AV-unprocessed.smi:869|AV-procd|sdf|4006|dock1
  -GOLD-   22720 1493D 1   1.00000     0.00000
 Structure written by MMmdl.
 47 49  0  0  0  0  0  0  0  0  2 V2000
  146.9417  141.3933  154.2569 C   0  0  0  0  0  0  0  0  0  0  0  0
  147.8677  141.5286  155.3208 O   0  0  0  0  0  0  0  0  0  0  0  0
  149.2099  141.3448  154.9003 C   0  0  0  0  0  0  0  0  0  0  0  0
  150.1828  141.6604  155.9889 C   0  0  0  0  0  0  0  0  0  0  0  0
  150.3576  142.8757  156.5810 N   0  3  0  0  0  0  0  0  0  0  0  0
  151.3508  142.7888  157.5570 C   0  0  0  0  0  0  0  0  0  0  0  0
  151.8728  143.7514  158.4156 C   0  0  0  0  0  0  0  0  0  0  0  0
  152.8876  143.3278  159.2988 C   0  0  0  0  0  0  0  0  0  0  0  0
  153.3456  141.9941  159.3057 C   0  0  0  0  0  0  0  0  0  0  0  0
  152.8082  141.0269  158.4303 C   0  0  0  0  0  0  0  0  0  0  0  0
  151.8055  141.4544  157.5607 C   0  0  0  0  0  0  0  0  0  0  0  0
  151.0571  140.7953  156.5794 N   0  0  0  0  0  0  0  0  0  0  0  0
  151.2949  139.3636  156.3370 C   0  0  0  0  0  0  0  0  0  0  0  0
  151.6018  139.0469  154.8594 C   0  0  1  0  0  0  0  0  0  0  0  0
  152.9258  139.4513  154.5713 O   0  0  0  0  0  0  0  0  0  0  0  0
  151.4695  137.5465  154.5557 C   0  0  0  0  0  0  0  0  0  0  0  0
  150.1636  137.1202  154.9213 O   0  0  0  0  0  0  0  0  0  0  0  0
  150.0292  135.9170  155.5806 C   0  0  0  0  0  0  0  0  0  0  0  0
  148.7213  135.5222  155.9296 C   0  0  0  0  0  0  0  0  0  0  0  0
  148.4899  134.3108  156.6091 C   0  0  0  0  0  0  0  0  0  0  0  0
  149.5710  133.4739  156.9491 C   0  0  0  0  0  0  0  0  0  0  0  0
  149.3288  132.1729  157.6864 C   0  0  0  0  0  0  0  0  0  0  0  0
  150.8820  133.8577  156.6051 C   0  0  0  0  0  0  0  0  0  0  0  0
  151.1126  135.0694  155.9250 C   0  0  0  0  0  0  0  0  0  0  0  0
  145.9292  141.5435  154.6312 H   0  0  0  0  0  0  0  0  0  0  0  0
  146.9924  140.3981  153.8138 H   0  0  0  0  0  0  0  0  0  0  0  0
  147.1255  142.1337  153.4775 H   0  0  0  0  0  0  0  0  0  0  0  0
  149.3622  140.3124  154.5832 H   0  0  0  0  0  0  0  0  0  0  0  0
  149.4217  141.9873  154.0445 H   0  0  0  0  0  0  0  0  0  0  0  0
  151.5235  144.7734  158.4121 H   0  0  0  0  0  0  0  0  0  0  0  0
  153.3231  144.0400  159.9846 H   0  0  0  0  0  0  0  0  0  0  0  0
  154.1249  141.7066  159.9966 H   0  0  0  0  0  0  0  0  0  0  0  0
  153.1640  140.0073  158.4442 H   0  0  0  0  0  0  0  0  0  0  0  0
  152.1249  139.0504  156.9713 H   0  0  0  0  0  0  0  0  0  0  0  0
  150.4214  138.8091  156.6819 H   0  0  0  0  0  0  0  0  0  0  0  0
  150.9171  139.6081  154.2228 H   0  0  0  0  0  0  0  0  0  0  0  0
  152.9765  139.6740  153.6540 H   0  0  0  0  0  0  0  0  0  0  0  0
  151.6823  137.3411  153.5047 H   0  0  0  0  0  0  0  0  0  0  0  0
  152.1931  136.9941  155.1576 H   0  0  0  0  0  0  0  0  0  0  0  0
  147.8848  136.1562  155.6742 H   0  0  0  0  0  0  0  0  0  0  0  0
  147.4802  134.0284  156.8688 H   0  0  0  0  0  0  0  0  0  0  0  0
  149.5104  132.3063  158.7529 H   0  0  0  0  0  0  0  0  0  0  0  0
  149.9953  131.3920  157.3188 H   0  0  0  0  0  0  0  0  0  0  0  0
  148.3020  131.8309  157.5532 H   0  0  0  0  0  0  0  0  0  0  0  0
  151.7172  133.2232  156.8640 H   0  0  0  0  0  0  0  0  0  0  0  0
  152.1320  135.3264  155.6810 H   0  0  0  0  0  0  0  0  0  0  0  0
  149.8300  143.7022  156.3304 H   0  0  0  0  0  0  0  0  0  0  0  0
  1  2  1  0  0  0  0
  1 25  1  0  0  0  0
  1 26  1  0  0  0  0
  1 27  1  0  0  0  0
  2  3  1  0  0  0  0
  3  4  1  0  0  0  0
  3 28  1  0  0  0  0
  3 29  1  0  0  0  0
  4 12  1  0  0  0  0
  4  5  2  0  0  0  0
  5  6  1  0  0  0  0
  5 47  1  0  0  0  0
  6 11  2  0  0  0  0
  6  7  1  0  0  0  0
  7  8  2  0  0  0  0
  7 30  1  0  0  0  0
  8  9  1  0  0  0  0
  8 31  1  0  0  0  0
  9 10  2  0  0  0  0
  9 32  1  0  0  0  0
 10 11  1  0  0  0  0
 10 33  1  0  0  0  0
 11 12  1  0  0  0  0
 12 13  1  0  0  0  0
 13 14  1  0  0  0  0
 13 34  1  0  0  0  0
 13 35  1  0  0  0  0
 14 15  1  0  0  0  0
 14 16  1  0  0  0  0
 14 36  1  0  0  0  0
 15 37  1  0  0  0  0
 16 17  1  0  0  0  0
 16 38  1  0  0  0  0
 16 39  1  0  0  0  0
 17 18  1  0  0  0  0
 18 24  1  0  0  0  0
 18 19  2  0  0  0  0
 19 20  1  0  0  0  0
 19 40  1  0  0  0  0
 20 21  2  0  0  0  0
 20 41  1  0  0  0  0
 21 22  1  0  0  0  0
 21 23  1  0  0  0  0
 22 42  1  0  0  0  0
 22 43  1  0  0  0  0
 22 44  1  0  0  0  0
 23 24  2  0  0  0  0
 23 45  1  0  0  0  0
 24 46  1  0  0  0  0
M  CHG  1   5   1
M  END
> <s_m_source_file>
AV-unprocessed.smi

> <i_m_source_file_index>
869

> <i_lp_mmshare_version>
43012

> <i_f3d_flags>
0

> <s_epik_input>
W2NIXTFbY0hdW2NIXVtjSF1jKGMxMiluKGMobjIpW0NIMl1PW0NIM10pW0NIMl1bQ0BIXShbT0hdKVtDSDJdT2MzW2NIXVtjSF1jKFtDSDNdKVtjSF1bY0hdMw==

> <s_epik_cmdline>
J2VwaWtfcHl0aG9uJywgJy1waCcsICc3LjAnLCAnLXRuJywgJzgnLCAnLW1hJywgJzIwMCcsICctbWV0YWxfYmluZGluZycsICctaW1hZScsICc8aW5maWxlLm1hZT4nLCAnLW9tYWUnLCAnPG91dGZpbGUubWFlPic=

> <r_lp_tautomer_probability>
1

> <r_epik_Ionization_Penalty>
1.5538

> <r_epik_Ionization_Penalty_Charging>
1.5538

> <r_epik_Ionization_Penalty_Neutral>
2.3993e-06

> <r_epik_State_Penalty>
1.64824

> <r_epik_Charging_Adjusted_Penalty>
3.20204

> <i_epik_Tot_Q>
1

> <i_epik_Tot_abs_Q>
1

> <r_epik_Metal_State_Penalty>
5.70315

> <b_epik_Metal_Only>
0

> <s_lp_Force_Field>
OPLS_2005

> <r_lp_Energy>
19.236

> <b_lp_Chiralities_Consistent>
1

> <s_lp_Variant>
AV-unprocessed.smi:869-4

> <Gold.Version>
5.8.1

> <Gold.Id.Protein>
6NUR|6NUR_protein|mol2

> <Gold.PLP.Fitness>
54.4746

> <Gold.PLP.PLP>
-45.9424

> <Gold.PLP.part.hbond>
-2.9341

> <Gold.PLP.part.metal>
0.0000

> <Gold.PLP.part.buried>
-5.0341

> <Gold.PLP.part.nonpolar>
-38.1732

> <Gold.PLP.part.repulsive>
0.3886

> <Gold.PLP.ligand.clash>
0.0000

> <Gold.PLP.ligand.torsion>
0.4794

> <Gold.PLP.Chemscore.Hbond>
3.0000

> <Gold.PLP.Chemscore.CHOScore>
0.0000

> <Gold.PLP.Chemscore.Metal>
0.0000

> <Gold.Chemscore.Hbonds>
donor molecule, donor type, donor heavy atom, donor atom, acceptor molecule, acceptor atom, score
      L1  H     5    47       P1  8028  2.00
      P1  H  7997  8008       L1    15  0.70

> <Gold.PLP.Chemscore.Internal.Correction>
0.4910

> <Gold.Rescore>
     Score         DG    S(hbond)    S(metal)    S(lipo)     H(rot)  DE(clash)    DE(int)     intcor
     19.33     -19.84       1.93        0.00     121.14       2.45       0.04       0.47       ----

> <Gold.Chemscore.Fitness>
19.3256

> <Gold.Chemscore.DG>
-19.8363

> <Gold.Chemscore.ZeroCoef>
-5.4800

> <Gold.Chemscore.Hbond>
1.9322

> <Gold.Chemscore.Metal>
0.0000

> <Gold.Chemscore.Lipo>
121.1382

> <Gold.Chemscore.Internal_Hbond>
0.0000

> <Gold.Chemscore.DEClash>
0.0415

> <Gold.Chemscore.DEInternal>
0.4692

> <Gold.Chemscore.Rot>
2.4494

> <Gold.Chemscore.Internal.Correction>
   9.000000E+99

> <Gold.Chemscore.Hbonds>
donor molecule, donor type, donor heavy atom, donor atom, acceptor molecule, acceptor atom, score
      L1  H     5    47       P1  8028  0.93
      P1  H  7997  8008       L1    15  0.67

> <Gold.Chemscore.Hbond.Weighted>
-6.4536

> <Gold.Chemscore.Metal.Weighted>
-0.0000

> <Gold.Chemscore.Lipo.Weighted>
-14.1732

> <Gold.Chemscore.Internal_Hbond.Weighted>
0.0000

> <Gold.Chemscore.DEClash.Weighted>
0.0415

> <Gold.Chemscore.DEInternal.Weighted>
0.4692

> <Gold.Chemscore.Rot.Weighted>
6.2704

> <Gold.Chemscore.Internal.Correction.Weighted>
   9.000000E+99

> <Gold.Protein.RotatedTorsions>
[ 6907 6896 6895 6894 ] final -168.84 input  -60.11 | X-H torsion
[ 7974 7965 7964 7962 ] final -140.71 input  175.53 | X-H torsion
[ 8008 7997 7996 7995 ] final  -18.23 input   59.86 | X-H torsion
[ 10167 10162 10161 10158 ] final -154.68 input  -65.29 | X-H torsion
[ 10718 10713 10712 10709 ] final -151.49 input   66.30 | X-H torsion
[ 10763 10752 10751 10750 ] final    0.14 input  -60.55 | X-H torsion
[ 11005 11000 10999 10996 ] final  157.02 input  -57.11 | X-H torsion

> <Gold.Protein.ActiveResidues>
 VAL166  LYS551  ARG553  GLY616  TRP617  ASP618  TYR619  PRO620  LYS621  CYS622 
 ASP623  PHE694  ASN695  SER759  ASP760  ASP761  ALA762  ILE779  LEU786  VAL792 
 PHE793  MET794  SER795  GLU796  ALA797  LYS798  CYS799  TRP800  GLU811  SER814 

> <Gold.Protein.RotatedAtoms>
  151.4820  133.3544  159.2839 H   0  0  0  0  0  0  0  0  0  0  0  0  # atno 6907 bound_to 6896
  150.8891  134.8295  159.7291 H   0  0  0  0  0  0  0  0  0  0  0  0  # atno 6908 bound_to 6896
  152.4812  134.4727  159.9692 H   0  0  0  0  0  0  0  0  0  0  0  0  # atno 6909 bound_to 6896
  144.8576  140.6167  143.5349 H   0  0  0  0  0  0  0  0  0  0  0  0  # atno 7974 bound_to 7965
  154.4921  140.2121  155.9526 H   0  0  0  0  0  0  0  0  0  0  0  0  # atno 8008 bound_to 7997
  156.1320  140.3195  155.8331 H   0  0  0  0  0  0  0  0  0  0  0  0  # atno 8009 bound_to 7997
  155.4280  140.0501  157.3011 H   0  0  0  0  0  0  0  0  0  0  0  0  # atno 8010 bound_to 7997
  139.6994  143.9289  152.2421 H   0  0  0  0  0  0  0  0  0  0  0  0  # atno 10167 bound_to 10162
  156.4600  130.8208  151.2439 H   0  0  0  0  0  0  0  0  0  0  0  0  # atno 10718 bound_to 10713
  153.3245  135.6971  153.7001 H   0  0  0  0  0  0  0  0  0  0  0  0  # atno 10763 bound_to 10752
  153.5828  135.3494  155.2882 H   0  0  0  0  0  0  0  0  0  0  0  0  # atno 10764 bound_to 10752
  154.8605  135.4299  154.2418 H   0  0  0  0  0  0  0  0  0  0  0  0  # atno 10765 bound_to 10752
  140.1730  134.8530  157.2713 H   0  0  0  0  0  0  0  0  0  0  0  0  # atno 11005 bound_to 11000
  145.4376  139.1540  143.3988 LP  0  0  0  0  0  0  0  0  0  0  0  0  # atno 17320 bound_to 7965
  146.2835  140.4496  142.8767 LP  0  0  0  0  0  0  0  0  0  0  0  0  # atno 17321 bound_to 7965
  139.9127  144.6847  150.8545 LP  0  0  0  0  0  0  0  0  0  0  0  0  # atno 17342 bound_to 10162
  140.7705  143.3432  151.2166 LP  0  0  0  0  0  0  0  0  0  0  0  0  # atno 17343 bound_to 10162
  157.7498  131.0110  150.3329 LP  0  0  0  0  0  0  0  0  0  0  0  0  # atno 17370 bound_to 10713
  156.3727  130.3866  149.7163 LP  0  0  0  0  0  0  0  0  0  0  0  0  # atno 17371 bound_to 10713
  140.2355  134.3857  155.7503 LP  0  0  0  0  0  0  0  0  0  0  0  0  # atno 17394 bound_to 11000
  141.2218  133.7237  156.8708 LP  0  0  0  0  0  0  0  0  0  0  0  0  # atno 17395 bound_to 11000

$$$$
