AV-unprocessed.smi:1215|AV-procd|sdf|5094|dock2
  -GOLD-   22720 4143D 1   1.00000     0.00000
 Structure written by MMmdl.
 46 47  0  0  0  0  0  0  0  0  2 V2000
  151.8372  143.8152  157.5129 C   0  0  0  0  0  0  0  0  0  0  0  0
  150.7468  142.7810  157.8169 C   0  0  0  0  0  0  0  0  0  0  0  0
  150.6609  141.7711  156.7806 N   0  0  0  0  0  0  0  0  0  0  0  0
  149.7358  141.6732  155.7606 C   0  0  0  0  0  0  0  0  0  0  0  0
  150.0793  140.5540  155.0561 C   0  0  0  0  0  0  0  0  0  0  0  0
  149.4649  139.9890  153.9098 N   0  0  0  0  0  0  0  0  0  0  0  0
  148.1734  139.6520  153.7620 C   0  0  0  0  0  0  0  0  0  0  0  0
  147.3021  139.7881  154.6212 O   0  0  0  0  0  0  0  0  0  0  0  0
  147.9349  139.1445  152.5442 N   0  0  0  0  0  0  0  0  0  0  0  0
  146.6339  138.6757  152.0796 C   0  0  0  0  0  0  0  0  0  0  0  0
  146.0392  137.6178  153.0340 C   0  0  0  0  0  0  0  0  0  0  0  0
  146.2012  136.2185  152.5419 N   0  3  2  0  0  0  0  0  0  0  0  0
  145.3136  135.9345  151.3762 C   0  0  0  0  0  0  0  0  0  0  0  0
  145.5619  134.5403  150.7836 C   0  0  0  0  0  0  0  0  0  0  0  0
  145.3740  133.4618  151.8495 C   0  0  0  0  0  0  0  0  0  0  0  0
  146.2935  133.7609  153.0351 C   0  0  0  0  0  0  0  0  0  0  0  0
  146.0555  135.1747  153.6114 C   0  0  1  0  0  0  0  0  0  0  0  0
  147.0105  135.3828  154.8061 C   0  0  0  0  0  0  0  0  0  0  0  0
  151.2216  140.0216  155.7088 C   0  0  0  0  0  0  0  0  0  0  0  0
  151.5677  140.7633  156.7499 N   0  0  0  0  0  0  0  0  0  0  0  0
  151.9000  144.5570  158.3091 H   0  0  0  0  0  0  0  0  0  0  0  0
  151.6325  144.3433  156.5811 H   0  0  0  0  0  0  0  0  0  0  0  0
  152.8148  143.3406  157.4221 H   0  0  0  0  0  0  0  0  0  0  0  0
  150.9515  142.2878  158.7678 H   0  0  0  0  0  0  0  0  0  0  0  0
  149.7759  143.2688  157.9151 H   0  0  0  0  0  0  0  0  0  0  0  0
  148.9401  142.3929  155.6385 H   0  0  0  0  0  0  0  0  0  0  0  0
  150.0737  139.8261  153.1210 H   0  0  0  0  0  0  0  0  0  0  0  0
  148.7082  139.0665  151.8995 H   0  0  0  0  0  0  0  0  0  0  0  0
  145.9960  139.5555  152.0148 H   0  0  0  0  0  0  0  0  0  0  0  0
  146.7216  138.2747  151.0683 H   0  0  0  0  0  0  0  0  0  0  0  0
  146.5481  137.7413  153.9863 H   0  0  0  0  0  0  0  0  0  0  0  0
  144.9838  137.8207  153.2217 H   0  0  0  0  0  0  0  0  0  0  0  0
  144.2706  136.0289  151.6831 H   0  0  0  0  0  0  0  0  0  0  0  0
  145.4734  136.6598  150.5808 H   0  0  0  0  0  0  0  0  0  0  0  0
  144.8804  134.3624  149.9512 H   0  0  0  0  0  0  0  0  0  0  0  0
  146.5718  134.4861  150.3747 H   0  0  0  0  0  0  0  0  0  0  0  0
  144.3343  133.4378  152.1789 H   0  0  0  0  0  0  0  0  0  0  0  0
  145.5965  132.4776  151.4361 H   0  0  0  0  0  0  0  0  0  0  0  0
  146.1343  133.0082  153.8082 H   0  0  0  0  0  0  0  0  0  0  0  0
  147.3336  133.6614  152.7205 H   0  0  0  0  0  0  0  0  0  0  0  0
  145.0317  135.2205  153.9867 H   0  0  0  0  0  0  0  0  0  0  0  0
  147.0038  134.5144  155.4657 H   0  0  0  0  0  0  0  0  0  0  0  0
  146.7222  136.2294  155.4280 H   0  0  0  0  0  0  0  0  0  0  0  0
  148.0385  135.5334  154.4745 H   0  0  0  0  0  0  0  0  0  0  0  0
  151.7993  139.1413  155.4684 H   0  0  0  0  0  0  0  0  0  0  0  0
  147.1519  136.1440  152.2089 H   0  0  0  0  0  0  0  0  0  0  0  0
  1  2  1  0  0  0  0
  1 21  1  0  0  0  0
  1 22  1  0  0  0  0
  1 23  1  0  0  0  0
  2  3  1  0  0  0  0
  2 24  1  0  0  0  0
  2 25  1  0  0  0  0
  3 20  1  0  0  0  0
  3  4  1  0  0  0  0
  4  5  2  0  0  0  0
  4 26  1  0  0  0  0
  5  6  1  0  0  0  0
  5 19  1  0  0  0  0
  6  7  1  0  0  0  0
  6 27  1  0  0  0  0
  7  8  2  0  0  0  0
  7  9  1  0  0  0  0
  9 10  1  0  0  0  0
  9 28  1  0  0  0  0
 10 11  1  0  0  0  0
 10 29  1  0  0  0  0
 10 30  1  0  0  0  0
 11 12  1  0  0  0  0
 11 31  1  0  0  0  0
 11 32  1  0  0  0  0
 12 17  1  0  0  0  0
 12 13  1  0  0  0  0
 12 46  1  0  0  0  0
 13 14  1  0  0  0  0
 13 33  1  0  0  0  0
 13 34  1  0  0  0  0
 14 15  1  0  0  0  0
 14 35  1  0  0  0  0
 14 36  1  0  0  0  0
 15 16  1  0  0  0  0
 15 37  1  0  0  0  0
 15 38  1  0  0  0  0
 16 17  1  0  0  0  0
 16 39  1  0  0  0  0
 16 40  1  0  0  0  0
 17 18  1  0  0  0  0
 17 41  1  0  0  0  0
 18 42  1  0  0  0  0
 18 43  1  0  0  0  0
 18 44  1  0  0  0  0
 19 20  2  0  0  0  0
 19 45  1  0  0  0  0
M  CHG  1  12   1
M  END
> <s_m_source_file>
AV-unprocessed.smi

> <i_m_source_file_index>
1215

> <i_lp_mmshare_version>
43012

> <i_f3d_flags>
0

> <s_epik_input>
W0NIM11bQ0gyXW4xW2NIXWMoW2NIXW4xKVtOSF1DKD1PKVtOSF1bQ0gyXVtDSDJdTjJbQ0gyXVtDSDJdW0NIMl1bQ0gyXVtDQEhdMltDSDNd

> <s_epik_cmdline>
J2VwaWtfcHl0aG9uJywgJy1waCcsICc3LjAnLCAnLXRuJywgJzgnLCAnLW1hJywgJzIwMCcsICctbWV0YWxfYmluZGluZycsICctaW1hZScsICc8aW5maWxlLm1hZT4nLCAnLW9tYWUnLCAnPG91dGZpbGUubWFlPic=

> <r_lp_tautomer_probability>
1

> <r_epik_Ionization_Penalty>
0.00247187

> <r_epik_Ionization_Penalty_Charging>
0.00232067

> <r_epik_Ionization_Penalty_Neutral>
0.000151201

> <r_epik_State_Penalty>
0.00160128

> <r_epik_Charging_Adjusted_Penalty>
0.00392194

> <i_epik_Tot_Q>
1

> <i_epik_Tot_abs_Q>
1

> <r_epik_Metal_State_Penalty>
-0

> <b_epik_Metal_Only>
0

> <s_lp_Force_Field>
OPLS_2005

> <r_lp_Energy>
23.5711

> <b_lp_Chiralities_Consistent>
1

> <s_lp_Variant>
AV-unprocessed.smi:1215-1

> <Gold.Version>
5.8.1

> <Gold.Id.Protein>
6NUR|6NUR_protein|mol2

> <Gold.PLP.Fitness>
46.6302

> <Gold.PLP.PLP>
-35.2208

> <Gold.PLP.part.hbond>
-3.0841

> <Gold.PLP.part.metal>
0.0000

> <Gold.PLP.part.buried>
-1.4870

> <Gold.PLP.part.nonpolar>
-30.3016

> <Gold.PLP.part.repulsive>
0.3363

> <Gold.PLP.ligand.clash>
0.0000

> <Gold.PLP.ligand.torsion>
1.1637

> <Gold.PLP.Chemscore.Hbond>
3.5762

> <Gold.PLP.Chemscore.CHOScore>
0.9804

> <Gold.PLP.Chemscore.Metal>
0.0000

> <Gold.Chemscore.Hbonds>
donor molecule, donor type, donor heavy atom, donor atom, acceptor molecule, acceptor atom, score
      L1  H     6    27       P1  7957  0.56
      L1  H     9    28       P1  7957  0.67
      L1  H    12    46       P1  7948  2.00
      L1  C     4    26       P1  8028  1.00

> <Gold.PLP.Chemscore.Internal.Correction>
0.0671

> <Gold.Rescore>
     Score         DG    S(hbond)    S(metal)    S(lipo)     H(rot)  DE(clash)    DE(int)     intcor
     17.50     -19.55       2.74        0.00      76.86       1.59       0.03       2.02       ----

> <Gold.Chemscore.Fitness>
17.4986

> <Gold.Chemscore.DG>
-19.5535

> <Gold.Chemscore.ZeroCoef>
-5.4800

> <Gold.Chemscore.Hbond>
2.7405

> <Gold.Chemscore.Metal>
0.0000

> <Gold.Chemscore.Lipo>
76.8627

> <Gold.Chemscore.Internal_Hbond>
0.0000

> <Gold.Chemscore.DEClash>
0.0306

> <Gold.Chemscore.DEInternal>
2.0244

> <Gold.Chemscore.Rot>
1.5909

> <Gold.Chemscore.Internal.Correction>
   9.000000E+99

> <Gold.Chemscore.Hbonds>
donor molecule, donor type, donor heavy atom, donor atom, acceptor molecule, acceptor atom, score
      L1  H     6    27       P1  7957  0.53
      L1  H     9    28       P1  7957  0.61
      L1  H    12    46       P1  7948  1.00

> <Gold.Chemscore.Hbond.Weighted>
-9.1534

> <Gold.Chemscore.Metal.Weighted>
-0.0000

> <Gold.Chemscore.Lipo.Weighted>
-8.9929

> <Gold.Chemscore.Internal_Hbond.Weighted>
0.0000

> <Gold.Chemscore.DEClash.Weighted>
0.0306

> <Gold.Chemscore.DEInternal.Weighted>
2.0244

> <Gold.Chemscore.Rot.Weighted>
4.0728

> <Gold.Chemscore.Internal.Correction.Weighted>
   9.000000E+99

> <Gold.Protein.RotatedTorsions>
[ 6907 6896 6895 6894 ] final  144.89 input  -60.11 | X-H torsion
[ 7974 7965 7964 7962 ] final   49.91 input  175.53 | X-H torsion
[ 8008 7997 7996 7995 ] final   64.61 input   59.86 | X-H torsion
[ 10167 10162 10161 10158 ] final -118.70 input  -65.29 | X-H torsion
[ 10718 10713 10712 10709 ] final -144.12 input   66.30 | X-H torsion
[ 10763 10752 10751 10750 ] final  113.27 input  -60.55 | X-H torsion
[ 11005 11000 10999 10996 ] final  177.86 input  -57.11 | X-H torsion

> <Gold.Protein.ActiveResidues>
 VAL166  LYS551  ARG553  GLY616  TRP617  ASP618  TYR619  PRO620  LYS621  CYS622 
 ASP623  PHE694  ASN695  SER759  ASP760  ASP761  ALA762  ILE779  LEU786  VAL792 
 PHE793  MET794  SER795  GLU796  ALA797  LYS798  CYS799  TRP800  GLU811  SER814 

> <Gold.Protein.RotatedAtoms>
  152.1879  133.4753  159.4992 H   0  0  0  0  0  0  0  0  0  0  0  0  # atno 6907 bound_to 6896
  150.6946  134.1749  159.4235 H   0  0  0  0  0  0  0  0  0  0  0  0  # atno 6908 bound_to 6896
  151.9663  135.0098  160.0601 H   0  0  0  0  0  0  0  0  0  0  0  0  # atno 6909 bound_to 6896
  146.0063  139.4494  142.9984 H   0  0  0  0  0  0  0  0  0  0  0  0  # atno 7974 bound_to 7965
  155.6487  140.3497  155.4740 H   0  0  0  0  0  0  0  0  0  0  0  0  # atno 8008 bound_to 7997
  155.9866  140.1185  157.0700 H   0  0  0  0  0  0  0  0  0  0  0  0  # atno 8009 bound_to 7997
  154.4207  140.1127  156.5494 H   0  0  0  0  0  0  0  0  0  0  0  0  # atno 8010 bound_to 7997
  140.0547  143.5026  152.2064 H   0  0  0  0  0  0  0  0  0  0  0  0  # atno 10167 bound_to 10162
  156.3663  130.7764  151.1939 H   0  0  0  0  0  0  0  0  0  0  0  0  # atno 10718 bound_to 10713
  153.4901  135.3660  155.2487 H   0  0  0  0  0  0  0  0  0  0  0  0  # atno 10763 bound_to 10752
  154.8752  135.3975  154.3599 H   0  0  0  0  0  0  0  0  0  0  0  0  # atno 10764 bound_to 10752
  153.4217  135.7080  153.6355 H   0  0  0  0  0  0  0  0  0  0  0  0  # atno 10765 bound_to 10752
  140.3887  134.6881  157.4494 H   0  0  0  0  0  0  0  0  0  0  0  0  # atno 11005 bound_to 11000
  145.7410  141.0008  143.1301 LP  0  0  0  0  0  0  0  0  0  0  0  0  # atno 17320 bound_to 7965
  144.6937  139.9099  143.7463 LP  0  0  0  0  0  0  0  0  0  0  0  0  # atno 17321 bound_to 7965
  139.5931  144.7557  151.3352 LP  0  0  0  0  0  0  0  0  0  0  0  0  # atno 17342 bound_to 10162
  140.7200  143.7161  150.7732 LP  0  0  0  0  0  0  0  0  0  0  0  0  # atno 17343 bound_to 10162
  157.7479  131.0385  150.4507 LP  0  0  0  0  0  0  0  0  0  0  0  0  # atno 17370 bound_to 10713
  156.4726  130.4056  149.6509 LP  0  0  0  0  0  0  0  0  0  0  0  0  # atno 17371 bound_to 10713
  140.0423  134.6249  155.8965 LP  0  0  0  0  0  0  0  0  0  0  0  0  # atno 17394 bound_to 11000
  141.1898  133.6566  156.5385 LP  0  0  0  0  0  0  0  0  0  0  0  0  # atno 17395 bound_to 11000

$$$$
