AV-unprocessed.smi:2037|AV-procd|sdf|8279|dock3
  -GOLD-   2272010543D 1   1.00000     0.00000
 Structure written by MMmdl.
 38 39  0  0  0  0  0  0  0  0  3 V2000
  150.5965  144.7967  159.7079 C   0  0  0  0  0  0  0  0  0  0  0  0
  151.9830  144.4983  159.1114 C   0  0  2  0  0  0  0  0  0  0  0  0
  151.9277  144.1717  157.6083 C   0  0  0  0  0  0  0  0  0  0  0  0
  151.3586  142.7675  157.3371 C   0  0  0  0  0  0  0  0  0  0  0  0
  152.1219  141.7236  158.0688 N   0  3  2  0  0  0  0  0  0  0  0  0
  151.6719  140.3538  157.7153 C   0  0  0  0  0  0  0  0  0  0  0  0
  150.1966  140.1062  158.0818 C   0  0  0  0  0  0  0  0  0  0  0  0
  149.9775  138.7252  158.4942 N   0  0  0  0  0  0  0  0  0  0  0  0
  148.7850  138.1242  158.6117 C   0  0  0  0  0  0  0  0  0  0  0  0
  147.7532  138.7537  158.3660 O   0  0  0  0  0  0  0  0  0  0  0  0
  148.8638  136.8344  159.0082 N   0  5  0  0  0  0  0  0  0  0  0  0
  148.2410  136.4367  160.1296 C   0  0  0  0  0  0  0  0  0  0  0  0
  147.8118  137.2903  161.0662 N   0  0  0  0  0  0  0  0  0  0  0  0
  147.1867  136.6629  162.1451 C   0  0  0  0  0  0  0  0  0  0  0  0
  147.1305  135.2999  162.0229 C   0  0  0  0  0  0  0  0  0  0  0  0
  147.8654  134.7607  160.5401 S   0  0  0  0  0  0  0  0  0  0  0  0
  152.1333  141.9805  159.5337 C   0  0  0  0  0  0  0  0  0  0  0  0
  152.7193  143.3679  159.8527 C   0  0  0  0  0  0  0  0  0  0  0  0
  149.9271  143.9391  159.6455 H   0  0  0  0  0  0  0  0  0  0  0  0
  150.1177  145.6262  159.1867 H   0  0  0  0  0  0  0  0  0  0  0  0
  150.6767  145.0760  160.7586 H   0  0  0  0  0  0  0  0  0  0  0  0
  152.5715  145.4091  159.2296 H   0  0  0  0  0  0  0  0  0  0  0  0
  151.3401  144.9227  157.0791 H   0  0  0  0  0  0  0  0  0  0  0  0
  152.9349  144.2302  157.1931 H   0  0  0  0  0  0  0  0  0  0  0  0
  150.3062  142.7182  157.6197 H   0  0  0  0  0  0  0  0  0  0  0  0
  151.4039  142.5709  156.2652 H   0  0  0  0  0  0  0  0  0  0  0  0
  151.8449  140.1681  156.6542 H   0  0  0  0  0  0  0  0  0  0  0  0
  152.2848  139.6317  158.2568 H   0  0  0  0  0  0  0  0  0  0  0  0
  149.8765  140.7882  158.8713 H   0  0  0  0  0  0  0  0  0  0  0  0
  149.5457  140.2912  157.2285 H   0  0  0  0  0  0  0  0  0  0  0  0
  150.7963  138.1718  158.7011 H   0  0  0  0  0  0  0  0  0  0  0  0
  146.8094  137.2658  162.9576 H   0  0  0  0  0  0  0  0  0  0  0  0
  146.7034  134.5841  162.7090 H   0  0  0  0  0  0  0  0  0  0  0  0
  151.1207  141.8932  159.9297 H   0  0  0  0  0  0  0  0  0  0  0  0
  152.7317  141.2284  160.0456 H   0  0  0  0  0  0  0  0  0  0  0  0
  153.7720  143.3794  159.5664 H   0  0  0  0  0  0  0  0  0  0  0  0
  152.6981  143.5452  160.9286 H   0  0  0  0  0  0  0  0  0  0  0  0
  153.0767  141.7982  157.7481 H   0  0  0  0  0  0  0  0  0  0  0  0
  1  2  1  0  0  0  0
  1 19  1  0  0  0  0
  1 20  1  0  0  0  0
  1 21  1  0  0  0  0
  2 18  1  0  0  0  0
  2  3  1  0  0  0  0
  2 22  1  0  0  0  0
  3  4  1  0  0  0  0
  3 23  1  0  0  0  0
  3 24  1  0  0  0  0
  4  5  1  0  0  0  0
  4 25  1  0  0  0  0
  4 26  1  0  0  0  0
  5  6  1  0  0  0  0
  5 17  1  0  0  0  0
  5 38  1  0  0  0  0
  6  7  1  0  0  0  0
  6 27  1  0  0  0  0
  6 28  1  0  0  0  0
  7  8  1  0  0  0  0
  7 29  1  0  0  0  0
  7 30  1  0  0  0  0
  8  9  1  0  0  0  0
  8 31  1  0  0  0  0
  9 10  2  0  0  0  0
  9 11  1  0  0  0  0
 11 12  1  0  0  0  0
 12 16  1  0  0  0  0
 12 13  2  0  0  0  0
 13 14  1  0  0  0  0
 14 15  2  0  0  0  0
 14 32  1  0  0  0  0
 15 16  1  0  0  0  0
 15 33  1  0  0  0  0
 17 18  1  0  0  0  0
 17 34  1  0  0  0  0
 17 35  1  0  0  0  0
 18 36  1  0  0  0  0
 18 37  1  0  0  0  0
M  CHG  1   5   1
M  CHG  1  11  -1
M  END
> <s_m_source_file>
AV-unprocessed.smi

> <i_m_source_file_index>
2037

> <i_lp_mmshare_version>
43012

> <i_f3d_flags>
0

> <s_epik_input>
W0NIM11bQ0hdMVtDSDJdW0NIMl1OKFtDSDJdW0NIMl0xKVtDSDJdW0NIMl1bTkhdQyg9TylbTkhdYzJuW2NIXVtjSF1zMg==

> <s_epik_cmdline>
J2VwaWtfcHl0aG9uJywgJy1waCcsICc3LjAnLCAnLXRuJywgJzgnLCAnLW1hJywgJzIwMCcsICctbWV0YWxfYmluZGluZycsICctaW1hZScsICc8aW5maWxlLm1hZT4nLCAnLW9tYWUnLCAnPG91dGZpbGUubWFlPic=

> <r_lp_tautomer_probability>
0.999

> <r_epik_Ionization_Penalty>
6.22113

> <r_epik_Ionization_Penalty_Charging>
5.39005

> <r_epik_Ionization_Penalty_Neutral>
0.831074

> <r_epik_State_Penalty>
5.38997

> <r_epik_Charging_Adjusted_Penalty>
10.78

> <i_epik_Tot_Q>
0

> <i_epik_Tot_abs_Q>
2

> <r_epik_Metal_State_Penalty>
1.41601

> <b_epik_Metal_Only>
1

> <s_lp_Force_Field>
OPLS_2005

> <r_lp_Energy>
7.28937

> <b_lp_Chiralities_Consistent>
1

> <s_lp_Variant>
AV-unprocessed.smi:2037-4

> <Gold.Version>
5.8.1

> <Gold.Id.Protein>
6NUR|6NUR_protein|mol2

> <Gold.PLP.Fitness>
42.3827

> <Gold.PLP.PLP>
-38.9747

> <Gold.PLP.part.hbond>
-3.0000

> <Gold.PLP.part.metal>
0.0000

> <Gold.PLP.part.buried>
-4.1218

> <Gold.PLP.part.nonpolar>
-31.5334

> <Gold.PLP.part.repulsive>
0.2456

> <Gold.PLP.ligand.clash>
0.0000

> <Gold.PLP.ligand.torsion>
0.9330

> <Gold.PLP.Chemscore.Hbond>
1.7440

> <Gold.PLP.Chemscore.CHOScore>
0.0000

> <Gold.PLP.Chemscore.Metal>
0.0000

> <Gold.Chemscore.Hbonds>
donor molecule, donor type, donor heavy atom, donor atom, acceptor molecule, acceptor atom, score
      P1  H  6931  6943       L1    13  0.88
      P1  H  6934  6947       L1    13  0.80

> <Gold.PLP.Chemscore.Internal.Correction>
0.0419

> <Gold.Rescore>
     Score         DG    S(hbond)    S(metal)    S(lipo)     H(rot)  DE(clash)    DE(int)     intcor
     15.16     -17.34       1.25        0.00      99.97       1.57       0.18       2.00       ----

> <Gold.Chemscore.Fitness>
15.1581

> <Gold.Chemscore.DG>
-17.3395

> <Gold.Chemscore.ZeroCoef>
-5.4800

> <Gold.Chemscore.Hbond>
1.2504

> <Gold.Chemscore.Metal>
0.0000

> <Gold.Chemscore.Lipo>
99.9684

> <Gold.Chemscore.Internal_Hbond>
0.0000

> <Gold.Chemscore.DEClash>
0.1805

> <Gold.Chemscore.DEInternal>
2.0010

> <Gold.Chemscore.Rot>
1.5676

> <Gold.Chemscore.Internal.Correction>
   9.000000E+99

> <Gold.Chemscore.Hbonds>
donor molecule, donor type, donor heavy atom, donor atom, acceptor molecule, acceptor atom, score
      P1  H  6931  6943       L1    13  0.24
      P1  H  6934  6947       L1    13  0.56

> <Gold.Chemscore.Hbond.Weighted>
-4.1763

> <Gold.Chemscore.Metal.Weighted>
-0.0000

> <Gold.Chemscore.Lipo.Weighted>
-11.6963

> <Gold.Chemscore.Internal_Hbond.Weighted>
0.0000

> <Gold.Chemscore.DEClash.Weighted>
0.1805

> <Gold.Chemscore.DEInternal.Weighted>
2.0010

> <Gold.Chemscore.Rot.Weighted>
4.0130

> <Gold.Chemscore.Internal.Correction.Weighted>
   9.000000E+99

> <Gold.Protein.RotatedTorsions>
[ 6907 6896 6895 6894 ] final  -89.31 input  -60.11 | X-H torsion
[ 7974 7965 7964 7962 ] final   12.37 input  175.53 | X-H torsion
[ 8008 7997 7996 7995 ] final    2.39 input   59.86 | X-H torsion
[ 10167 10162 10161 10158 ] final   64.70 input  -65.29 | X-H torsion
[ 10718 10713 10712 10709 ] final  -97.58 input   66.30 | X-H torsion
[ 10763 10752 10751 10750 ] final   53.42 input  -60.55 | X-H torsion
[ 11005 11000 10999 10996 ] final  127.58 input  -57.11 | X-H torsion

> <Gold.Protein.ActiveResidues>
 VAL166  LYS551  ARG553  GLY616  TRP617  ASP618  TYR619  PRO620  LYS621  CYS622 
 ASP623  PHE694  ASN695  SER759  ASP760  ASP761  ALA762  ILE779  LEU786  VAL792 
 PHE793  MET794  SER795  GLU796  ALA797  LYS798  CYS799  TRP800  GLU811  SER814 

> <Gold.Protein.RotatedAtoms>
  150.6873  134.2607  159.4547 H   0  0  0  0  0  0  0  0  0  0  0  0  # atno 6907 bound_to 6896
  152.0537  134.9635  160.0584 H   0  0  0  0  0  0  0  0  0  0  0  0  # atno 6908 bound_to 6896
  152.1089  133.4255  159.4658 H   0  0  0  0  0  0  0  0  0  0  0  0  # atno 6909 bound_to 6896
  146.2352  139.9347  142.8491 H   0  0  0  0  0  0  0  0  0  0  0  0  # atno 7974 bound_to 7965
  154.6910  140.2653  155.6813 H   0  0  0  0  0  0  0  0  0  0  0  0  # atno 8008 bound_to 7997
  156.2732  140.2791  156.1411 H   0  0  0  0  0  0  0  0  0  0  0  0  # atno 8009 bound_to 7997
  155.0897  140.0373  157.2655 H   0  0  0  0  0  0  0  0  0  0  0  0  # atno 8010 bound_to 7997
  140.1193  144.4746  150.6930 H   0  0  0  0  0  0  0  0  0  0  0  0  # atno 10167 bound_to 10162
  156.0087  130.5200  150.6395 H   0  0  0  0  0  0  0  0  0  0  0  0  # atno 10718 bound_to 10713
  152.9795  135.5779  154.4738 H   0  0  0  0  0  0  0  0  0  0  0  0  # atno 10763 bound_to 10752
  154.4297  135.2773  155.1923 H   0  0  0  0  0  0  0  0  0  0  0  0  # atno 10764 bound_to 10752
  154.3636  135.6183  153.5757 H   0  0  0  0  0  0  0  0  0  0  0  0  # atno 10765 bound_to 10752
  139.9515  134.9621  156.8875 H   0  0  0  0  0  0  0  0  0  0  0  0  # atno 11005 bound_to 11000
  145.2011  140.9854  143.4155 LP  0  0  0  0  0  0  0  0  0  0  0  0  # atno 17320 bound_to 7965
  144.9773  139.3819  143.6279 LP  0  0  0  0  0  0  0  0  0  0  0  0  # atno 17321 bound_to 7965
  140.6881  143.2361  151.5206 LP  0  0  0  0  0  0  0  0  0  0  0  0  # atno 17342 bound_to 10162
  139.5577  144.2234  152.1640 LP  0  0  0  0  0  0  0  0  0  0  0  0  # atno 17343 bound_to 10162
  157.4178  131.0832  151.1160 LP  0  0  0  0  0  0  0  0  0  0  0  0  # atno 17370 bound_to 10713
  157.1772  130.6293  149.5660 LP  0  0  0  0  0  0  0  0  0  0  0  0  # atno 17371 bound_to 10713
  140.5709  134.0444  155.7430 LP  0  0  0  0  0  0  0  0  0  0  0  0  # atno 17394 bound_to 11000
  141.1178  133.9511  157.2788 LP  0  0  0  0  0  0  0  0  0  0  0  0  # atno 17395 bound_to 11000

$$$$
