AV-unprocessed.smi:1871|AV-procd|sdf|7600|dock4
  -GOLD-   22720 9313D 1   1.00000     0.00000
 Structure written by MMmdl.
 40 42  0  0  0  0  0  0  0  0  1 V2000
  152.2310  137.0960  154.9989 O   0  0  0  0  0  0  0  0  0  0  0  0
  152.4568  138.4383  154.6175 C   0  0  0  0  0  0  0  0  0  0  0  0
  152.1007  139.4410  155.6802 C   0  0  0  0  0  0  0  0  0  0  0  0
  152.7421  139.4997  156.8502 N   0  0  0  0  0  0  0  0  0  0  0  0
  152.1217  140.5517  157.4913 C   0  0  0  0  0  0  0  0  0  0  0  0
  152.3533  141.1135  158.7672 C   0  0  0  0  0  0  0  0  0  0  0  0
  151.5837  142.2062  159.2168 C   0  0  0  0  0  0  0  0  0  0  0  0
  150.5766  142.7538  158.3965 C   0  0  0  0  0  0  0  0  0  0  0  0
  150.3326  142.2104  157.1208 C   0  0  0  0  0  0  0  0  0  0  0  0
  151.0980  141.1138  156.6788 C   0  0  0  0  0  0  0  0  0  0  0  0
  151.1020  140.3483  155.5140 N   0  0  0  0  0  0  0  0  0  0  0  0
  150.2118  140.5306  154.3693 C   0  0  0  0  0  0  0  0  0  0  0  0
  148.7649  140.9278  154.7460 C   0  0  1  0  0  0  0  0  0  0  0  0
  148.4506  142.2055  154.2297 O   0  0  0  0  0  0  0  0  0  0  0  0
  147.7412  139.8656  154.3635 C   0  0  0  0  0  0  0  0  0  0  0  0
  146.9359  139.2397  155.3406 C   0  0  0  0  0  0  0  0  0  0  0  0
  145.9756  138.2821  154.9630 C   0  0  0  0  0  0  0  0  0  0  0  0
  145.8084  137.9269  153.6098 C   0  0  0  0  0  0  0  0  0  0  0  0
  144.8380  136.9985  153.3062 O   0  0  0  0  0  0  0  0  0  0  0  0
  144.6464  136.6282  152.0121 C   0  0  0  0  0  0  0  0  0  0  0  0
  145.6951  135.8815  151.5897 F   0  0  0  0  0  0  0  0  0  0  0  0
  143.5308  135.8664  151.8977 F   0  0  0  0  0  0  0  0  0  0  0  0
  146.6116  138.5598  152.6307 C   0  0  0  0  0  0  0  0  0  0  0  0
  147.5722  139.5178  153.0075 C   0  0  0  0  0  0  0  0  0  0  0  0
  151.8913  137.0876  155.8802 H   0  0  0  0  0  0  0  0  0  0  0  0
  153.5100  138.5334  154.3562 H   0  0  0  0  0  0  0  0  0  0  0  0
  151.8716  138.6406  153.7217 H   0  0  0  0  0  0  0  0  0  0  0  0
  153.1250  140.7025  159.4011 H   0  0  0  0  0  0  0  0  0  0  0  0
  151.7682  142.6267  160.1945 H   0  0  0  0  0  0  0  0  0  0  0  0
  149.9906  143.5908  158.7471 H   0  0  0  0  0  0  0  0  0  0  0  0
  149.5599  142.6280  156.4933 H   0  0  0  0  0  0  0  0  0  0  0  0
  150.6437  141.2944  153.7219 H   0  0  0  0  0  0  0  0  0  0  0  0
  150.2044  139.6196  153.7724 H   0  0  0  0  0  0  0  0  0  0  0  0
  148.7245  141.0336  155.8307 H   0  0  0  0  0  0  0  0  0  0  0  0
  148.6729  142.8540  154.8804 H   0  0  0  0  0  0  0  0  0  0  0  0
  147.0358  139.5034  156.3831 H   0  0  0  0  0  0  0  0  0  0  0  0
  145.3591  137.8188  155.7195 H   0  0  0  0  0  0  0  0  0  0  0  0
  144.5668  137.4924  151.3524 H   0  0  0  0  0  0  0  0  0  0  0  0
  146.4955  138.3282  151.5827 H   0  0  0  0  0  0  0  0  0  0  0  0
  148.1719  139.9965  152.2475 H   0  0  0  0  0  0  0  0  0  0  0  0
  1  2  1  0  0  0  0
  1 25  1  0  0  0  0
  2  3  1  0  0  0  0
  2 26  1  0  0  0  0
  2 27  1  0  0  0  0
  3 11  1  0  0  0  0
  3  4  2  0  0  0  0
  4  5  1  0  0  0  0
  5 10  2  0  0  0  0
  5  6  1  0  0  0  0
  6  7  2  0  0  0  0
  6 28  1  0  0  0  0
  7  8  1  0  0  0  0
  7 29  1  0  0  0  0
  8  9  2  0  0  0  0
  8 30  1  0  0  0  0
  9 10  1  0  0  0  0
  9 31  1  0  0  0  0
 10 11  1  0  0  0  0
 11 12  1  0  0  0  0
 12 13  1  0  0  0  0
 12 32  1  0  0  0  0
 12 33  1  0  0  0  0
 13 14  1  0  0  0  0
 13 15  1  0  0  0  0
 13 34  1  0  0  0  0
 14 35  1  0  0  0  0
 15 24  1  0  0  0  0
 15 16  2  0  0  0  0
 16 17  1  0  0  0  0
 16 36  1  0  0  0  0
 17 18  2  0  0  0  0
 17 37  1  0  0  0  0
 18 19  1  0  0  0  0
 18 23  1  0  0  0  0
 19 20  1  0  0  0  0
 20 21  1  0  0  0  0
 20 22  1  0  0  0  0
 20 38  1  0  0  0  0
 23 24  2  0  0  0  0
 23 39  1  0  0  0  0
 24 40  1  0  0  0  0
M  END
> <s_m_source_file>
AV-unprocessed.smi

> <i_m_source_file_index>
1871

> <i_lp_mmshare_version>
43012

> <i_f3d_flags>
0

> <s_epik_input>
W2NIXTFbY0hdW2NIXVtjSF1jKGMxMiluKGMobjIpW0NIMl1bT0hdKVtDSDJdW0NASF0oW09IXSljM1tjSF1bY0hdYyhPW0NIXShGKUYpW2NIXVtjSF0z

> <s_epik_cmdline>
J2VwaWtfcHl0aG9uJywgJy1waCcsICc3LjAnLCAnLXRuJywgJzgnLCAnLW1hJywgJzIwMCcsICctbWV0YWxfYmluZGluZycsICctaW1hZScsICc8aW5maWxlLm1hZT4nLCAnLW9tYWUnLCAnPG91dGZpbGUubWFlPic=

> <r_lp_tautomer_probability>
1

> <r_epik_Ionization_Penalty>
0.0634717

> <r_epik_Ionization_Penalty_Charging>
0

> <r_epik_Ionization_Penalty_Neutral>
0.0634717

> <r_epik_State_Penalty>
0.0551572

> <r_epik_Charging_Adjusted_Penalty>
0.0551572

> <i_epik_Tot_Q>
0

> <i_epik_Tot_abs_Q>
0

> <r_epik_Metal_State_Penalty>
5.78034e-05

> <b_epik_Metal_Only>
0

> <s_lp_Force_Field>
OPLS_2005

> <r_lp_Energy>
11.9527

> <b_lp_Chiralities_Consistent>
1

> <s_lp_Variant>
AV-unprocessed.smi:1871-2

> <Gold.Version>
5.8.1

> <Gold.Id.Protein>
6NUR|6NUR_protein|mol2

> <Gold.PLP.Fitness>
46.0129

> <Gold.PLP.PLP>
-38.6824

> <Gold.PLP.part.hbond>
-4.0000

> <Gold.PLP.part.metal>
0.0000

> <Gold.PLP.part.buried>
1.0365

> <Gold.PLP.part.nonpolar>
-35.3934

> <Gold.PLP.part.repulsive>
0.1271

> <Gold.PLP.ligand.clash>
0.0000

> <Gold.PLP.ligand.torsion>
1.1667

> <Gold.PLP.Chemscore.Hbond>
3.1550

> <Gold.PLP.Chemscore.CHOScore>
0.0000

> <Gold.PLP.Chemscore.Metal>
0.0000

> <Gold.Chemscore.Hbonds>
donor molecule, donor type, donor heavy atom, donor atom, acceptor molecule, acceptor atom, score
      L1  H    14    35       P1  8028  1.00
      P1  H  7997  8008       L1     4  1.00
      P1  H  8011  8017       L1    14  0.08
      P1  H 10752 10764       L1     1  0.78

> <Gold.PLP.Chemscore.Internal.Correction>
0.1988

> <Gold.Rescore>
     Score         DG    S(hbond)    S(metal)    S(lipo)     H(rot)  DE(clash)    DE(int)     intcor
     12.96     -16.68       2.42        0.00      98.46       3.29       2.45       1.26       ----

> <Gold.Chemscore.Fitness>
12.9646

> <Gold.Chemscore.DG>
-16.6767

> <Gold.Chemscore.ZeroCoef>
-5.4800

> <Gold.Chemscore.Hbond>
2.4225

> <Gold.Chemscore.Metal>
0.0000

> <Gold.Chemscore.Lipo>
98.4606

> <Gold.Chemscore.Internal_Hbond>
0.0000

> <Gold.Chemscore.DEClash>
2.4493

> <Gold.Chemscore.DEInternal>
1.2628

> <Gold.Chemscore.Rot>
3.2868

> <Gold.Chemscore.Internal.Correction>
   9.000000E+99

> <Gold.Chemscore.Hbonds>
donor molecule, donor type, donor heavy atom, donor atom, acceptor molecule, acceptor atom, score
      L1  H    14    35       P1  8028  0.93
      P1  H  7997  8008       L1     4  0.25
      P1  H  8011  8017       L1    14  0.03
      P1  H 10752 10764       L1     1  0.51

> <Gold.Chemscore.Hbond.Weighted>
-8.0911

> <Gold.Chemscore.Metal.Weighted>
-0.0000

> <Gold.Chemscore.Lipo.Weighted>
-11.5199

> <Gold.Chemscore.Internal_Hbond.Weighted>
0.0000

> <Gold.Chemscore.DEClash.Weighted>
2.4493

> <Gold.Chemscore.DEInternal.Weighted>
1.2628

> <Gold.Chemscore.Rot.Weighted>
8.4143

> <Gold.Chemscore.Internal.Correction.Weighted>
   9.000000E+99

> <Gold.Protein.RotatedTorsions>
[ 6907 6896 6895 6894 ] final  114.28 input  -60.11 | X-H torsion
[ 7974 7965 7964 7962 ] final -162.28 input  175.53 | X-H torsion
[ 8008 7997 7996 7995 ] final  -48.67 input   59.86 | X-H torsion
[ 10167 10162 10161 10158 ] final   97.67 input  -65.29 | X-H torsion
[ 10718 10713 10712 10709 ] final  143.81 input   66.30 | X-H torsion
[ 10763 10752 10751 10750 ] final  -51.69 input  -60.55 | X-H torsion
[ 11005 11000 10999 10996 ] final  105.07 input  -57.11 | X-H torsion

> <Gold.Protein.ActiveResidues>
 VAL166  LYS551  ARG553  GLY616  TRP617  ASP618  TYR619  PRO620  LYS621  CYS622 
 ASP623  PHE694  ASN695  SER759  ASP760  ASP761  ALA762  ILE779  LEU786  VAL792 
 PHE793  MET794  SER795  GLU796  ALA797  LYS798  CYS799  TRP800  GLU811  SER814 

> <Gold.Protein.RotatedAtoms>
  152.4812  133.8258  159.7077 H   0  0  0  0  0  0  0  0  0  0  0  0  # atno 6907 bound_to 6896
  150.8863  133.7294  159.2924 H   0  0  0  0  0  0  0  0  0  0  0  0  # atno 6908 bound_to 6896
  151.4781  135.1054  159.9822 H   0  0  0  0  0  0  0  0  0  0  0  0  # atno 6909 bound_to 6896
  144.7363  140.3276  143.6159 H   0  0  0  0  0  0  0  0  0  0  0  0  # atno 7974 bound_to 7965
  154.4032  140.1316  156.4376 H   0  0  0  0  0  0  0  0  0  0  0  0  # atno 8008 bound_to 7997
  155.7490  140.3488  155.5121 H   0  0  0  0  0  0  0  0  0  0  0  0  # atno 8009 bound_to 7997
  155.8968  140.1012  157.1369 H   0  0  0  0  0  0  0  0  0  0  0  0  # atno 8010 bound_to 7997
  139.7779  144.6899  151.0064 H   0  0  0  0  0  0  0  0  0  0  0  0  # atno 10167 bound_to 10162
  157.3645  131.0970  151.0885 H   0  0  0  0  0  0  0  0  0  0  0  0  # atno 10718 bound_to 10713
  154.1306  135.6520  153.4921 H   0  0  0  0  0  0  0  0  0  0  0  0  # atno 10763 bound_to 10752
  153.0196  135.5292  154.7004 H   0  0  0  0  0  0  0  0  0  0  0  0  # atno 10764 bound_to 10752
  154.6238  135.2968  155.0266 H   0  0  0  0  0  0  0  0  0  0  0  0  # atno 10765 bound_to 10752
  139.8798  134.9323  156.5457 H   0  0  0  0  0  0  0  0  0  0  0  0  # atno 11005 bound_to 11000
  145.7505  139.1792  143.2324 LP  0  0  0  0  0  0  0  0  0  0  0  0  # atno 17320 bound_to 7965
  146.1065  140.7481  142.9524 LP  0  0  0  0  0  0  0  0  0  0  0  0  # atno 17321 bound_to 7965
  140.7817  143.4515  151.0405 LP  0  0  0  0  0  0  0  0  0  0  0  0  # atno 17342 bound_to 10162
  139.8197  143.7837  152.3176 LP  0  0  0  0  0  0  0  0  0  0  0  0  # atno 17343 bound_to 10162
  157.2012  130.6395  149.5739 LP  0  0  0  0  0  0  0  0  0  0  0  0  # atno 17370 bound_to 10713
  155.9743  130.4690  150.6381 LP  0  0  0  0  0  0  0  0  0  0  0  0  # atno 17371 bound_to 10713
  140.8277  133.8303  155.8955 LP  0  0  0  0  0  0  0  0  0  0  0  0  # atno 17394 bound_to 11000
  140.9358  134.1964  157.4832 LP  0  0  0  0  0  0  0  0  0  0  0  0  # atno 17395 bound_to 11000

$$$$
