AV-unprocessed.smi:2750|AV-procd|sdf|10594|dock7
  -GOLD-   2272015 43D 1   1.00000     0.00000
 Structure written by MMmdl.
 24 25  0  0  0  0  0  0  0  0  3 V2000
  148.4356  136.4618  160.9599 O   0  0  0  0  0  0  0  0  0  0  0  0
  148.5972  136.0073  159.8057 C   0  0  0  0  0  0  0  0  0  0  0  0
  148.9659  134.8447  159.5281 O   0  5  0  0  0  0  0  0  0  0  0  0
  148.2879  136.9384  158.6315 C   0  0  0  0  0  0  0  0  0  0  0  0
  149.3204  137.9368  158.4145 N   0  0  0  0  0  0  0  0  0  0  0  0
  149.3175  138.9981  157.5323 C   0  0  0  0  0  0  0  0  0  0  0  0
  150.5140  139.6128  157.7696 C   0  0  0  0  0  0  0  0  0  0  0  0
  151.0928  140.8445  157.1375 C   0  0  0  0  0  0  0  0  0  0  0  0
  151.6350  140.5986  155.7127 C   0  0  1  0  0  0  0  0  0  0  0  0
  152.6533  139.5612  155.6950 N   0  5  0  0  0  0  0  0  0  0  0  0
  152.2455  138.5723  154.8654 C   0  0  0  0  0  0  0  0  0  0  0  0
  152.8391  137.5336  154.5838 O   0  0  0  0  0  0  0  0  0  0  0  0
  151.0451  138.8535  154.3484 N   0  0  0  0  0  0  0  0  0  0  0  0
  150.5808  140.0180  154.7901 C   0  0  0  0  0  0  0  0  0  0  0  0
  149.5037  140.5451  154.5150 O   0  0  0  0  0  0  0  0  0  0  0  0
  151.1896  138.9068  158.7650 N   0  0  0  0  0  0  0  0  0  0  0  0
  150.4629  137.9020  159.1428 N   0  0  0  0  0  0  0  0  0  0  0  0
  148.1705  136.3581  157.7153 H   0  0  0  0  0  0  0  0  0  0  0  0
  147.3361  137.4402  158.8119 H   0  0  0  0  0  0  0  0  0  0  0  0
  148.5077  139.2124  156.8510 H   0  0  0  0  0  0  0  0  0  0  0  0
  150.3461  141.6401  157.1219 H   0  0  0  0  0  0  0  0  0  0  0  0
  151.8981  141.2180  157.7715 H   0  0  0  0  0  0  0  0  0  0  0  0
  151.9833  141.5368  155.2783 H   0  0  0  0  0  0  0  0  0  0  0  0
  150.5488  138.2502  153.7101 H   0  0  0  0  0  0  0  0  0  0  0  0
  1  2  2  0  0  0  0
  2  3  1  0  0  0  0
  2  4  1  0  0  0  0
  4  5  1  0  0  0  0
  4 18  1  0  0  0  0
  4 19  1  0  0  0  0
  5 17  1  0  0  0  0
  5  6  1  0  0  0  0
  6  7  2  0  0  0  0
  6 20  1  0  0  0  0
  7  8  1  0  0  0  0
  7 16  1  0  0  0  0
  8  9  1  0  0  0  0
  8 21  1  0  0  0  0
  8 22  1  0  0  0  0
  9 14  1  0  0  0  0
  9 10  1  0  0  0  0
  9 23  1  0  0  0  0
 10 11  1  0  0  0  0
 11 12  2  0  0  0  0
 11 13  1  0  0  0  0
 13 14  1  0  0  0  0
 13 24  1  0  0  0  0
 14 15  2  0  0  0  0
 16 17  2  0  0  0  0
M  CHG  1   3  -1
M  CHG  1  10  -1
M  END
> <s_m_source_file>
AV-unprocessed.smi

> <i_m_source_file_index>
2750

> <i_lp_mmshare_version>
43012

> <i_f3d_flags>
0

> <s_epik_input>
Tz1DKFtPSF0pW0NIMl1uMVtjSF1jKG5uMSlbQ0gyXVtDQEBIXTJbTkhdQyg9TylbTkhdQzI9Tw==

> <s_epik_cmdline>
J2VwaWtfcHl0aG9uJywgJy1waCcsICc3LjAnLCAnLXRuJywgJzgnLCAnLW1hJywgJzIwMCcsICctbWV0YWxfYmluZGluZycsICctaW1hZScsICc8aW5maWxlLm1hZT4nLCAnLW9tYWUnLCAnPG91dGZpbGUubWFlPic=

> <r_lp_tautomer_probability>
1

> <r_epik_Ionization_Penalty>
5.10791

> <r_epik_Ionization_Penalty_Charging>
5.10788

> <r_epik_Ionization_Penalty_Neutral>
2.55687e-05

> <r_epik_State_Penalty>
5.12334

> <r_epik_Charging_Adjusted_Penalty>
10.2312

> <i_epik_Tot_Q>
-2

> <i_epik_Tot_abs_Q>
2

> <r_epik_Metal_State_Penalty>
1.50935

> <b_epik_Metal_Only>
1

> <s_lp_Force_Field>
OPLS_2005

> <r_lp_Energy>
16.7857

> <b_lp_Chiralities_Consistent>
1

> <s_lp_Variant>
AV-unprocessed.smi:2750-6

> <Gold.Version>
5.8.1

> <Gold.Id.Protein>
6NUR|6NUR_protein|mol2

> <Gold.PLP.Fitness>
41.8852

> <Gold.PLP.PLP>
-23.1529

> <Gold.PLP.part.hbond>
-5.0053

> <Gold.PLP.part.metal>
0.0000

> <Gold.PLP.part.buried>
-3.2869

> <Gold.PLP.part.nonpolar>
-14.6267

> <Gold.PLP.part.repulsive>
0.3028

> <Gold.PLP.ligand.clash>
0.0000

> <Gold.PLP.ligand.torsion>
0.4295

> <Gold.PLP.Chemscore.Hbond>
6.5265

> <Gold.PLP.Chemscore.CHOScore>
0.0000

> <Gold.PLP.Chemscore.Metal>
0.0000

> <Gold.Chemscore.Hbonds>
donor molecule, donor type, donor heavy atom, donor atom, acceptor molecule, acceptor atom, score
      P1  H  6896  6908       L1     3  2.00
      P1  H  6931  6943       L1     1  1.62
      P1  H  7997  8009       L1    10  2.00
      P1  H 10752 10765       L1    12  0.37

> <Gold.PLP.Chemscore.Internal.Correction>
0.0118

> <Gold.Rescore>
     Score         DG    S(hbond)    S(metal)    S(lipo)     H(rot)  DE(clash)    DE(int)     intcor
     10.41     -11.67       3.29        0.00      20.18       2.80       0.05       1.21       ----

> <Gold.Chemscore.Fitness>
10.4098

> <Gold.Chemscore.DG>
-11.6698

> <Gold.Chemscore.ZeroCoef>
-5.4800

> <Gold.Chemscore.Hbond>
3.2903

> <Gold.Chemscore.Metal>
0.0000

> <Gold.Chemscore.Lipo>
20.1825

> <Gold.Chemscore.Internal_Hbond>
0.0000

> <Gold.Chemscore.DEClash>
0.0509

> <Gold.Chemscore.DEInternal>
1.2091

> <Gold.Chemscore.Rot>
2.7973

> <Gold.Chemscore.Internal.Correction>
   9.000000E+99

> <Gold.Chemscore.Hbonds>
donor molecule, donor type, donor heavy atom, donor atom, acceptor molecule, acceptor atom, score
      P1  H  6896  6908       L1     3  0.89
      P1  H  6931  6943       L1     1  0.80
      P1  H  7997  8009       L1    10  0.85
      P1  H 10752 10765       L1    12  0.36

> <Gold.Chemscore.Hbond.Weighted>
-10.9896

> <Gold.Chemscore.Metal.Weighted>
-0.0000

> <Gold.Chemscore.Lipo.Weighted>
-2.3614

> <Gold.Chemscore.Internal_Hbond.Weighted>
0.0000

> <Gold.Chemscore.DEClash.Weighted>
0.0509

> <Gold.Chemscore.DEInternal.Weighted>
1.2091

> <Gold.Chemscore.Rot.Weighted>
7.1611

> <Gold.Chemscore.Internal.Correction.Weighted>
   9.000000E+99

> <Gold.Protein.RotatedTorsions>
[ 6907 6896 6895 6894 ] final  170.24 input  -60.11 | X-H torsion
[ 7974 7965 7964 7962 ] final  -54.90 input  175.53 | X-H torsion
[ 8008 7997 7996 7995 ] final -171.06 input   59.86 | X-H torsion
[ 10167 10162 10161 10158 ] final -158.48 input  -65.29 | X-H torsion
[ 10718 10713 10712 10709 ] final  117.22 input   66.30 | X-H torsion
[ 10763 10752 10751 10750 ] final  177.52 input  -60.55 | X-H torsion
[ 11005 11000 10999 10996 ] final -145.13 input  -57.11 | X-H torsion

> <Gold.Protein.ActiveResidues>
 VAL166  LYS551  ARG553  GLY616  TRP617  ASP618  TYR619  PRO620  LYS621  CYS622 
 ASP623  PHE694  ASN695  SER759  ASP760  ASP761  ALA762  ILE779  LEU786  VAL792 
 PHE793  MET794  SER795  GLU796  ALA797  LYS798  CYS799  TRP800  GLU811  SER814 

> <Gold.Protein.RotatedAtoms>
  151.8193  133.3392  159.3578 H   0  0  0  0  0  0  0  0  0  0  0  0  # atno 6907 bound_to 6896
  150.7300  134.5589  159.5842 H   0  0  0  0  0  0  0  0  0  0  0  0  # atno 6908 bound_to 6896
  152.3018  134.7603  160.0407 H   0  0  0  0  0  0  0  0  0  0  0  0  # atno 6909 bound_to 6896
  145.8803  140.8149  142.9843 H   0  0  0  0  0  0  0  0  0  0  0  0  # atno 7974 bound_to 7965
  155.9266  140.1084  157.1165 H   0  0  0  0  0  0  0  0  0  0  0  0  # atno 8008 bound_to 7997
  154.4063  140.1245  156.4814 H   0  0  0  0  0  0  0  0  0  0  0  0  # atno 8009 bound_to 7997
  155.7131  140.3470  155.4985 H   0  0  0  0  0  0  0  0  0  0  0  0  # atno 8010 bound_to 7997
  139.6689  143.9780  152.2272 H   0  0  0  0  0  0  0  0  0  0  0  0  # atno 10167 bound_to 10162
  157.6110  131.1034  150.7584 H   0  0  0  0  0  0  0  0  0  0  0  0  # atno 10718 bound_to 10713
  154.4955  135.2781  155.1462 H   0  0  0  0  0  0  0  0  0  0  0  0  # atno 10763 bound_to 10752
  154.3117  135.6227  153.5472 H   0  0  0  0  0  0  0  0  0  0  0  0  # atno 10764 bound_to 10752
  152.9894  135.5721  154.5386 H   0  0  0  0  0  0  0  0  0  0  0  0  # atno 10765 bound_to 10752
  140.7954  134.2919  157.4998 H   0  0  0  0  0  0  0  0  0  0  0  0  # atno 11005 bound_to 11000
  144.6727  140.1373  143.7439 LP  0  0  0  0  0  0  0  0  0  0  0  0  # atno 17320 bound_to 7965
  145.9031  139.2442  143.1481 LP  0  0  0  0  0  0  0  0  0  0  0  0  # atno 17321 bound_to 7965
  139.9539  144.6602  150.8145 LP  0  0  0  0  0  0  0  0  0  0  0  0  # atno 17342 bound_to 10162
  140.7610  143.3165  151.2722 LP  0  0  0  0  0  0  0  0  0  0  0  0  # atno 17343 bound_to 10162
  156.7961  130.4906  149.5377 LP  0  0  0  0  0  0  0  0  0  0  0  0  # atno 17370 bound_to 10713
  156.1213  130.6112  151.0198 LP  0  0  0  0  0  0  0  0  0  0  0  0  # atno 17371 bound_to 10713
  139.8727  134.9399  156.3753 LP  0  0  0  0  0  0  0  0  0  0  0  0  # atno 17394 bound_to 11000
  140.9348  133.7554  156.0071 LP  0  0  0  0  0  0  0  0  0  0  0  0  # atno 17395 bound_to 11000

$$$$
