AV-unprocessed.smi:148|AV-procd|sdf|1212|dock6
  -GOLD-   2262018393D 1   1.00000     0.00000
 Structure written by MMmdl.
 63 67  0  0  0  0  0  0  0  0  1 V2000
  148.7967  134.1393  158.9511 O   0  0  0  0  0  0  0  0  0  0  0  0
  147.8853  134.9043  159.7131 C   0  0  0  0  0  0  0  0  0  0  0  0
  146.5022  134.2087  159.8066 C   0  0  2  0  0  0  0  0  0  0  0  0
  145.6440  134.4889  158.5436 C   0  0  0  0  0  0  0  0  0  0  0  0
  145.9139  133.5655  157.4552 N   0  0  0  0  0  0  0  0  0  0  0  0
  145.5151  132.2504  157.3808 C   0  0  0  0  0  0  0  0  0  0  0  0
  145.8898  131.6154  156.3040 N   0  0  0  0  0  0  0  0  0  0  0  0
  146.5943  132.5687  155.5784 C   0  0  0  0  0  0  0  0  0  0  0  0
  147.2735  132.5656  154.3271 C   0  0  0  0  0  0  0  0  0  0  0  0
  147.3860  131.4913  153.5159 N   0  0  0  0  0  0  0  0  0  0  0  0
  148.2310  130.4936  154.1768 C   0  0  0  0  0  0  0  0  0  0  0  0
  148.6195  129.3604  153.2237 C   0  0  0  0  0  0  0  0  0  0  0  0
  147.3592  128.7281  152.6342 C   0  0  0  0  0  0  0  0  0  0  0  0
  146.5154  129.8058  151.9433 C   0  0  0  0  0  0  0  0  0  0  0  0
  146.1469  130.9830  152.8887 C   0  0  2  0  0  0  0  0  0  0  0  0
  145.3415  132.0736  152.0991 C   0  0  2  0  0  0  0  0  0  0  0  0
  144.4866  131.5956  150.9049 C   0  0  0  0  0  0  0  0  0  0  0  0
  144.3058  132.7994  149.9686 C   0  0  0  0  0  0  0  0  0  0  0  0
  145.2138  133.9050  150.5136 C   0  0  0  0  0  0  0  0  0  0  0  0
  146.1842  133.1987  151.4611 C   0  0  2  0  0  0  0  0  0  0  0  0
  147.2563  132.6729  150.6979 O   0  0  0  0  0  0  0  0  0  0  0  0
  147.8819  133.7097  153.9280 N   0  0  0  0  0  0  0  0  0  0  0  0
  147.8145  134.8023  154.6947 C   0  0  0  0  0  0  0  0  0  0  0  0
  147.2118  134.9586  155.8756 N   0  0  0  0  0  0  0  0  0  0  0  0
  146.6122  133.8037  156.2846 C   0  0  0  0  0  0  0  0  0  0  0  0
  145.7252  134.5492  161.1155 C   0  0  2  0  0  0  0  0  0  0  0  0
  146.1358  135.8468  161.8039 C   0  0  0  0  0  0  0  0  0  0  0  0
  147.3638  135.4445  162.6175 C   0  0  0  0  0  0  0  0  0  0  0  0
  147.2196  134.0506  162.8686 O   0  0  0  0  0  0  0  0  0  0  0  0
  146.0168  133.5809  162.2711 C   0  0  0  0  0  0  0  0  0  0  0  0
  148.3874  133.9134  158.1298 H   0  0  0  0  0  0  0  0  0  0  0  0
  148.3127  135.0673  160.7019 H   0  0  0  0  0  0  0  0  0  0  0  0
  147.8042  135.8984  159.2768 H   0  0  0  0  0  0  0  0  0  0  0  0
  146.7033  133.1365  159.8200 H   0  0  0  0  0  0  0  0  0  0  0  0
  144.5799  134.4193  158.7596 H   0  0  0  0  0  0  0  0  0  0  0  0
  145.8133  135.5064  158.1894 H   0  0  0  0  0  0  0  0  0  0  0  0
  144.9390  131.7725  158.1599 H   0  0  0  0  0  0  0  0  0  0  0  0
  149.1374  130.9652  154.5607 H   0  0  0  0  0  0  0  0  0  0  0  0
  147.7023  130.0783  155.0360 H   0  0  0  0  0  0  0  0  0  0  0  0
  149.2523  129.7478  152.4238 H   0  0  0  0  0  0  0  0  0  0  0  0
  149.2059  128.6094  153.7535 H   0  0  0  0  0  0  0  0  0  0  0  0
  147.6269  127.9451  151.9242 H   0  0  0  0  0  0  0  0  0  0  0  0
  146.7775  128.2518  153.4243 H   0  0  0  0  0  0  0  0  0  0  0  0
  147.0621  130.1889  151.0804 H   0  0  0  0  0  0  0  0  0  0  0  0
  145.6221  129.3231  151.5501 H   0  0  0  0  0  0  0  0  0  0  0  0
  145.5097  130.5855  153.6793 H   0  0  0  0  0  0  0  0  0  0  0  0
  144.6659  132.5573  152.8070 H   0  0  0  0  0  0  0  0  0  0  0  0
  145.0041  130.8000  150.3678 H   0  0  0  0  0  0  0  0  0  0  0  0
  143.5163  131.2085  151.2129 H   0  0  0  0  0  0  0  0  0  0  0  0
  144.5939  132.5286  148.9523 H   0  0  0  0  0  0  0  0  0  0  0  0
  143.2678  133.1316  149.9366 H   0  0  0  0  0  0  0  0  0  0  0  0
  145.7154  134.4680  149.7256 H   0  0  0  0  0  0  0  0  0  0  0  0
  144.6103  134.6133  151.0829 H   0  0  0  0  0  0  0  0  0  0  0  0
  146.5792  133.8936  152.2027 H   0  0  0  0  0  0  0  0  0  0  0  0
  147.3079  131.7425  150.8542 H   0  0  0  0  0  0  0  0  0  0  0  0
  148.3168  135.6768  154.3077 H   0  0  0  0  0  0  0  0  0  0  0  0
  144.6570  134.5655  160.8944 H   0  0  0  0  0  0  0  0  0  0  0  0
  146.3149  136.6949  161.1462 H   0  0  0  0  0  0  0  0  0  0  0  0
  145.3416  136.1499  162.4880 H   0  0  0  0  0  0  0  0  0  0  0  0
  148.2780  135.6049  162.0450 H   0  0  0  0  0  0  0  0  0  0  0  0
  147.4416  136.0092  163.5468 H   0  0  0  0  0  0  0  0  0  0  0  0
  145.2211  133.6418  163.0153 H   0  0  0  0  0  0  0  0  0  0  0  0
  146.1057  132.5351  161.9844 H   0  0  0  0  0  0  0  0  0  0  0  0
  1  2  1  0  0  0  0
  1 31  1  0  0  0  0
  2  3  1  0  0  0  0
  2 32  1  0  0  0  0
  2 33  1  0  0  0  0
  3  4  1  0  0  0  0
  3 26  1  0  0  0  0
  3 34  1  0  0  0  0
  4  5  1  0  0  0  0
  4 35  1  0  0  0  0
  4 36  1  0  0  0  0
  5 25  1  0  0  0  0
  5  6  1  0  0  0  0
  6  7  2  0  0  0  0
  6 37  1  0  0  0  0
  7  8  1  0  0  0  0
  8 25  2  0  0  0  0
  8  9  1  0  0  0  0
  9 10  1  0  0  0  0
  9 22  2  0  0  0  0
 10 15  1  0  0  0  0
 10 11  1  0  0  0  0
 11 12  1  0  0  0  0
 11 38  1  0  0  0  0
 11 39  1  0  0  0  0
 12 13  1  0  0  0  0
 12 40  1  0  0  0  0
 12 41  1  0  0  0  0
 13 14  1  0  0  0  0
 13 42  1  0  0  0  0
 13 43  1  0  0  0  0
 14 15  1  0  0  0  0
 14 44  1  0  0  0  0
 14 45  1  0  0  0  0
 15 16  1  0  0  0  0
 15 46  1  0  0  0  0
 16 20  1  0  0  0  0
 16 17  1  0  0  0  0
 16 47  1  0  0  0  0
 17 18  1  0  0  0  0
 17 48  1  0  0  0  0
 17 49  1  0  0  0  0
 18 19  1  0  0  0  0
 18 50  1  0  0  0  0
 18 51  1  0  0  0  0
 19 20  1  0  0  0  0
 19 52  1  0  0  0  0
 19 53  1  0  0  0  0
 20 21  1  0  0  0  0
 20 54  1  0  0  0  0
 21 55  1  0  0  0  0
 22 23  1  0  0  0  0
 23 24  2  0  0  0  0
 23 56  1  0  0  0  0
 24 25  1  0  0  0  0
 26 30  1  0  0  0  0
 26 27  1  0  0  0  0
 26 57  1  0  0  0  0
 27 28  1  0  0  0  0
 27 58  1  0  0  0  0
 27 59  1  0  0  0  0
 28 29  1  0  0  0  0
 28 60  1  0  0  0  0
 28 61  1  0  0  0  0
 29 30  1  0  0  0  0
 30 62  1  0  0  0  0
 30 63  1  0  0  0  0
M  END
> <s_m_source_file>
AV-unprocessed.smi

> <i_m_source_file_index>
148

> <i_lp_mmshare_version>
43012

> <i_f3d_flags>
0

> <s_epik_input>
W0NIMl0xT1tDSDJdW0NIMl1bQ0BIXTFbQ0BIXShbQ0gyXVtPSF0pW0NIMl1uKFtjSF1uMiljKGMyMyluW2NIXW5jM040W0NIMl1bQ0gyXVtDSDJdW0NIMl1bQ0BIXTRbQ0BASF01W0NIMl1bQ0gyXVtDSDJdW0NASF01W09IXQ==

> <s_epik_cmdline>
J2VwaWtfcHl0aG9uJywgJy1waCcsICc3LjAnLCAnLXRuJywgJzgnLCAnLW1hJywgJzIwMCcsICctbWV0YWxfYmluZGluZycsICctaW1hZScsICc8aW5maWxlLm1hZT4nLCAnLW9tYWUnLCAnPG91dGZpbGUubWFlPic=

> <r_lp_tautomer_probability>
1

> <r_epik_Ionization_Penalty>
0.00556303

> <r_epik_Ionization_Penalty_Charging>
0

> <r_epik_Ionization_Penalty_Neutral>
0.00556303

> <r_epik_State_Penalty>
0.00401767

> <r_epik_Charging_Adjusted_Penalty>
0.00401767

> <i_epik_Tot_Q>
0

> <i_epik_Tot_abs_Q>
0

> <r_epik_Metal_State_Penalty>
-0

> <b_epik_Metal_Only>
0

> <s_lp_Force_Field>
OPLS_2005

> <r_lp_Energy>
72.8369

> <b_lp_Chiralities_Consistent>
1

> <s_lp_Variant>
AV-unprocessed.smi:148-11

> <Gold.Version>
5.8.1

> <Gold.Id.Protein>
6NUR|6NUR_protein|mol2

> <Gold.PLP.Fitness>
42.9575

> <Gold.PLP.PLP>
-40.7343

> <Gold.PLP.part.hbond>
-2.0000

> <Gold.PLP.part.metal>
0.0000

> <Gold.PLP.part.buried>
-6.6091

> <Gold.PLP.part.nonpolar>
-30.7852

> <Gold.PLP.part.repulsive>
0.3830

> <Gold.PLP.ligand.clash>
0.0012

> <Gold.PLP.ligand.torsion>
2.6960

> <Gold.PLP.Chemscore.Hbond>
1.3172

> <Gold.PLP.Chemscore.CHOScore>
1.0000

> <Gold.PLP.Chemscore.Metal>
0.0000

> <Gold.Chemscore.Hbonds>
donor molecule, donor type, donor heavy atom, donor atom, acceptor molecule, acceptor atom, score
      L1  H    21    55       P1 10747  0.32
      P1  H  6896  6907       L1     1  1.00
      L1  C    23    56       P1  7948  0.86

> <Gold.PLP.Chemscore.Internal.Correction>
0.6648

> <Gold.Rescore>
     Score         DG    S(hbond)    S(metal)    S(lipo)     H(rot)  DE(clash)    DE(int)     intcor
     10.51     -14.19       1.38        0.00     107.65       3.32       0.20       3.47       ----

> <Gold.Chemscore.Fitness>
10.5133

> <Gold.Chemscore.DG>
-14.1885

> <Gold.Chemscore.ZeroCoef>
-5.4800

> <Gold.Chemscore.Hbond>
1.3814

> <Gold.Chemscore.Metal>
0.0000

> <Gold.Chemscore.Lipo>
107.6466

> <Gold.Chemscore.Internal_Hbond>
0.0000

> <Gold.Chemscore.DEClash>
0.2039

> <Gold.Chemscore.DEInternal>
3.4714

> <Gold.Chemscore.Rot>
3.3203

> <Gold.Chemscore.Internal.Correction>
   9.000000E+99

> <Gold.Chemscore.Hbonds>
donor molecule, donor type, donor heavy atom, donor atom, acceptor molecule, acceptor atom, score
      L1  H    21    55       P1 10747  0.31
      P1  H  6896  6907       L1     1  0.94

> <Gold.Chemscore.Hbond.Weighted>
-4.6139

> <Gold.Chemscore.Metal.Weighted>
-0.0000

> <Gold.Chemscore.Lipo.Weighted>
-12.5947

> <Gold.Chemscore.Internal_Hbond.Weighted>
0.0000

> <Gold.Chemscore.DEClash.Weighted>
0.2039

> <Gold.Chemscore.DEInternal.Weighted>
3.4714

> <Gold.Chemscore.Rot.Weighted>
8.5000

> <Gold.Chemscore.Internal.Correction.Weighted>
   9.000000E+99

> <Gold.Protein.RotatedTorsions>
[ 6907 6896 6895 6894 ] final  -89.60 input  -60.11 | X-H torsion
[ 7974 7965 7964 7962 ] final  100.29 input  175.53 | X-H torsion
[ 8008 7997 7996 7995 ] final  -96.42 input   59.86 | X-H torsion
[ 10167 10162 10161 10158 ] final   11.29 input  -65.29 | X-H torsion
[ 10718 10713 10712 10709 ] final  173.62 input   66.30 | X-H torsion
[ 10763 10752 10751 10750 ] final  -48.84 input  -60.55 | X-H torsion
[ 11005 11000 10999 10996 ] final  123.70 input  -57.11 | X-H torsion

> <Gold.Protein.ActiveResidues>
 VAL166  LYS551  ARG553  GLY616  TRP617  ASP618  TYR619  PRO620  LYS621  CYS622 
 ASP623  PHE694  ASN695  SER759  ASP760  ASP761  ALA762  ILE779  LEU786  VAL792 
 PHE793  MET794  SER795  GLU796  ALA797  LYS798  CYS799  TRP800  GLU811  SER814 

> <Gold.Protein.RotatedAtoms>
  150.6875  134.2561  159.4530 H   0  0  0  0  0  0  0  0  0  0  0  0  # atno 6907 bound_to 6896
  152.0495  134.9660  160.0584 H   0  0  0  0  0  0  0  0  0  0  0  0  # atno 6908 bound_to 6896
  152.1130  133.4276  159.4676 H   0  0  0  0  0  0  0  0  0  0  0  0  # atno 6909 bound_to 6896
  145.3875  139.2368  143.3370 H   0  0  0  0  0  0  0  0  0  0  0  0  # atno 7974 bound_to 7965
  154.7742  140.0471  157.1076 H   0  0  0  0  0  0  0  0  0  0  0  0  # atno 8008 bound_to 7997
  154.9783  140.3098  155.4938 H   0  0  0  0  0  0  0  0  0  0  0  0  # atno 8009 bound_to 7997
  156.2926  140.2240  156.4880 H   0  0  0  0  0  0  0  0  0  0  0  0  # atno 8010 bound_to 7997
  140.6141  143.8345  150.7098 H   0  0  0  0  0  0  0  0  0  0  0  0  # atno 10167 bound_to 10162
  156.9615  131.0062  151.2926 H   0  0  0  0  0  0  0  0  0  0  0  0  # atno 10718 bound_to 10713
  154.0844  135.6586  153.4843 H   0  0  0  0  0  0  0  0  0  0  0  0  # atno 10763 bound_to 10752
  153.0344  135.5187  154.7442 H   0  0  0  0  0  0  0  0  0  0  0  0  # atno 10764 bound_to 10752
  154.6547  135.3006  154.9911 H   0  0  0  0  0  0  0  0  0  0  0  0  # atno 10765 bound_to 10752
  139.9325  134.9641  156.8299 H   0  0  0  0  0  0  0  0  0  0  0  0  # atno 11005 bound_to 11000
  146.2813  140.4553  142.8775 LP  0  0  0  0  0  0  0  0  0  0  0  0  # atno 17320 bound_to 7965
  144.8463  140.6934  143.6197 LP  0  0  0  0  0  0  0  0  0  0  0  0  # atno 17321 bound_to 7965
  140.1920  143.4028  152.1856 LP  0  0  0  0  0  0  0  0  0  0  0  0  # atno 17342 bound_to 10162
  139.5384  144.7233  151.4814 LP  0  0  0  0  0  0  0  0  0  0  0  0  # atno 17343 bound_to 10162
  157.5654  130.8274  149.8321 LP  0  0  0  0  0  0  0  0  0  0  0  0  # atno 17370 bound_to 10713
  156.0320  130.3762  150.1662 LP  0  0  0  0  0  0  0  0  0  0  0  0  # atno 17371 bound_to 10713
  140.6164  134.0034  155.7599 LP  0  0  0  0  0  0  0  0  0  0  0  0  # atno 17394 bound_to 11000
  141.0921  133.9901  157.3220 LP  0  0  0  0  0  0  0  0  0  0  0  0  # atno 17395 bound_to 11000

$$$$
