AV-unprocessed.smi:2222|AV-procd|sdf|8986|dock2
  -GOLD-   2272012203D 1   1.00000     0.00000
 Structure written by MMmdl.
 34 35  0  0  0  0  0  0  0  0  1 V2000
  146.1890  142.0680  154.4623 C   0  0  0  0  0  0  0  0  0  0  0  0
  147.4814  142.0940  155.0505 O   0  0  0  0  0  0  0  0  0  0  0  0
  148.3363  141.0390  154.7970 C   0  0  0  0  0  0  0  0  0  0  0  0
  147.9423  139.8538  154.1248 C   0  0  0  0  0  0  0  0  0  0  0  0
  148.8852  138.8327  153.9146 C   0  0  0  0  0  0  0  0  0  0  0  0
  150.1954  139.0313  154.3846 C   0  0  0  0  0  0  0  0  0  0  0  0
  151.2616  137.9731  154.1966 C   0  0  0  0  0  0  0  0  0  0  0  0
  150.5817  140.1531  155.0246 N   0  0  0  0  0  0  0  0  0  0  0  0
  149.6823  141.1465  155.2331 C   0  0  0  0  0  0  0  0  0  0  0  0
  150.0116  142.3583  155.9000 N   0  0  0  0  0  0  0  0  0  0  0  0
  151.0886  142.6369  156.6611 C   0  0  0  0  0  0  0  0  0  0  0  0
  152.0201  141.8610  156.8677 O   0  0  0  0  0  0  0  0  0  0  0  0
  151.0986  143.8822  157.1693 N   0  0  0  0  0  0  0  0  0  0  0  0
  152.0920  144.4831  158.0100 C   0  0  1  0  0  0  0  0  0  0  0  0
  151.6470  144.9335  159.3845 C   0  0  0  0  0  0  0  0  0  0  0  0
  152.5578  143.7420  159.2499 C   0  0  1  0  0  0  0  0  0  0  0  0
  152.0647  142.3487  159.5888 C   0  0  0  0  0  0  0  0  0  0  0  0
  145.6405  142.9606  154.7625 H   0  0  0  0  0  0  0  0  0  0  0  0
  145.6164  141.2017  154.7963 H   0  0  0  0  0  0  0  0  0  0  0  0
  146.2457  142.0672  153.3730 H   0  0  0  0  0  0  0  0  0  0  0  0
  146.9353  139.7060  153.7658 H   0  0  0  0  0  0  0  0  0  0  0  0
  148.6051  137.9218  153.4060 H   0  0  0  0  0  0  0  0  0  0  0  0
  150.9068  137.1629  153.5592 H   0  0  0  0  0  0  0  0  0  0  0  0
  151.5470  137.5498  155.1600 H   0  0  0  0  0  0  0  0  0  0  0  0
  152.1496  138.4047  153.7340 H   0  0  0  0  0  0  0  0  0  0  0  0
  149.3376  143.1023  155.7949 H   0  0  0  0  0  0  0  0  0  0  0  0
  150.3484  144.4913  156.8763 H   0  0  0  0  0  0  0  0  0  0  0  0
  152.8216  145.1371  157.5345 H   0  0  0  0  0  0  0  0  0  0  0  0
  152.0795  145.8516  159.7768 H   0  0  0  0  0  0  0  0  0  0  0  0
  150.6116  144.7519  159.6676 H   0  0  0  0  0  0  0  0  0  0  0  0
  153.5987  143.9052  159.5229 H   0  0  0  0  0  0  0  0  0  0  0  0
  151.0003  142.2446  159.3766 H   0  0  0  0  0  0  0  0  0  0  0  0
  152.2249  142.1444  160.6475 H   0  0  0  0  0  0  0  0  0  0  0  0
  152.6104  141.6072  159.0052 H   0  0  0  0  0  0  0  0  0  0  0  0
  1  2  1  0  0  0  0
  1 18  1  0  0  0  0
  1 19  1  0  0  0  0
  1 20  1  0  0  0  0
  2  3  1  0  0  0  0
  3  9  1  0  0  0  0
  3  4  2  0  0  0  0
  4  5  1  0  0  0  0
  4 21  1  0  0  0  0
  5  6  2  0  0  0  0
  5 22  1  0  0  0  0
  6  7  1  0  0  0  0
  6  8  1  0  0  0  0
  7 23  1  0  0  0  0
  7 24  1  0  0  0  0
  7 25  1  0  0  0  0
  8  9  2  0  0  0  0
  9 10  1  0  0  0  0
 10 11  1  0  0  0  0
 10 26  1  0  0  0  0
 11 12  2  0  0  0  0
 11 13  1  0  0  0  0
 13 14  1  0  0  0  0
 13 27  1  0  0  0  0
 14 16  1  0  0  0  0
 14 15  1  0  0  0  0
 14 28  1  0  0  0  0
 15 16  1  0  0  0  0
 15 29  1  0  0  0  0
 15 30  1  0  0  0  0
 16 17  1  0  0  0  0
 16 31  1  0  0  0  0
 17 32  1  0  0  0  0
 17 33  1  0  0  0  0
 17 34  1  0  0  0  0
M  END
> <s_m_source_file>
AV-unprocessed.smi

> <i_m_source_file_index>
2222

> <i_lp_mmshare_version>
43012

> <i_f3d_flags>
0

> <s_epik_input>
W0NIM11PYzFbY0hdW2NIXWMoW0NIM10pbmMxW05IXUMoPU8pW05IXVtDQEBIXTJbQ0gyXVtDQEhdMltDSDNd

> <s_epik_cmdline>
J2VwaWtfcHl0aG9uJywgJy1waCcsICc3LjAnLCAnLXRuJywgJzgnLCAnLW1hJywgJzIwMCcsICctbWV0YWxfYmluZGluZycsICctaW1hZScsICc8aW5maWxlLm1hZT4nLCAnLW9tYWUnLCAnPG91dGZpbGUubWFlPic=

> <r_lp_tautomer_probability>
1

> <r_epik_Ionization_Penalty>
6.59103e-05

> <r_epik_Ionization_Penalty_Charging>
0

> <r_epik_Ionization_Penalty_Neutral>
6.59103e-05

> <r_epik_State_Penalty>
-0

> <r_epik_Charging_Adjusted_Penalty>
0

> <i_epik_Tot_Q>
0

> <i_epik_Tot_abs_Q>
0

> <r_epik_Metal_State_Penalty>
-0

> <b_epik_Metal_Only>
0

> <s_lp_Force_Field>
OPLS_2005

> <r_lp_Energy>
34.1661

> <b_lp_Chiralities_Consistent>
1

> <s_lp_Variant>
AV-unprocessed.smi:2222-2

> <Gold.Version>
5.8.1

> <Gold.Id.Protein>
6NUR|6NUR_protein|mol2

> <Gold.PLP.Fitness>
42.7845

> <Gold.PLP.PLP>
-34.7927

> <Gold.PLP.part.hbond>
-3.0000

> <Gold.PLP.part.metal>
0.0000

> <Gold.PLP.part.buried>
-0.6421

> <Gold.PLP.part.nonpolar>
-33.4044

> <Gold.PLP.part.repulsive>
1.2152

> <Gold.PLP.ligand.clash>
0.0000

> <Gold.PLP.ligand.torsion>
0.1637

> <Gold.PLP.Chemscore.Hbond>
2.7600

> <Gold.PLP.Chemscore.CHOScore>
0.0000

> <Gold.PLP.Chemscore.Metal>
0.0000

> <Gold.Chemscore.Hbonds>
donor molecule, donor type, donor heavy atom, donor atom, acceptor molecule, acceptor atom, score
      L1  H    10    26       P1  8028  1.00
      L1  H    13    27       P1  8028  0.94
      P1  H  7989  7998       L1     8  0.75

> <Gold.PLP.Chemscore.Internal.Correction>
0.0392

> <Gold.Rescore>
     Score         DG    S(hbond)    S(metal)    S(lipo)     H(rot)  DE(clash)    DE(int)     intcor
     15.98     -19.07       1.95        0.00      87.19       1.22       1.71       1.38       ----

> <Gold.Chemscore.Fitness>
15.9795

> <Gold.Chemscore.DG>
-19.0718

> <Gold.Chemscore.ZeroCoef>
-5.4800

> <Gold.Chemscore.Hbond>
1.9479

> <Gold.Chemscore.Metal>
0.0000

> <Gold.Chemscore.Lipo>
87.1870

> <Gold.Chemscore.Internal_Hbond>
0.0000

> <Gold.Chemscore.DEClash>
1.7113

> <Gold.Chemscore.DEInternal>
1.3810

> <Gold.Chemscore.Rot>
1.2168

> <Gold.Chemscore.Internal.Correction>
   9.000000E+99

> <Gold.Chemscore.Hbonds>
donor molecule, donor type, donor heavy atom, donor atom, acceptor molecule, acceptor atom, score
      L1  H    10    26       P1  8028  0.98
      L1  H    13    27       P1  8028  0.78
      P1  H  7989  7998       L1     8  0.03

> <Gold.Chemscore.Hbond.Weighted>
-6.5059

> <Gold.Chemscore.Metal.Weighted>
-0.0000

> <Gold.Chemscore.Lipo.Weighted>
-10.2009

> <Gold.Chemscore.Internal_Hbond.Weighted>
0.0000

> <Gold.Chemscore.DEClash.Weighted>
1.7113

> <Gold.Chemscore.DEInternal.Weighted>
1.3810

> <Gold.Chemscore.Rot.Weighted>
3.1150

> <Gold.Chemscore.Internal.Correction.Weighted>
   9.000000E+99

> <Gold.Protein.RotatedTorsions>
[ 6907 6896 6895 6894 ] final  -14.72 input  -60.11 | X-H torsion
[ 7974 7965 7964 7962 ] final  123.57 input  175.53 | X-H torsion
[ 8008 7997 7996 7995 ] final  -58.90 input   59.86 | X-H torsion
[ 10167 10162 10161 10158 ] final  -50.27 input  -65.29 | X-H torsion
[ 10718 10713 10712 10709 ] final  156.66 input   66.30 | X-H torsion
[ 10763 10752 10751 10750 ] final   46.17 input  -60.55 | X-H torsion
[ 11005 11000 10999 10996 ] final  163.60 input  -57.11 | X-H torsion

> <Gold.Protein.ActiveResidues>
 VAL166  LYS551  ARG553  GLY616  TRP617  ASP618  TYR619  PRO620  LYS621  CYS622 
 ASP623  PHE694  ASN695  SER759  ASP760  ASP761  ALA762  ILE779  LEU786  VAL792 
 PHE793  MET794  SER795  GLU796  ALA797  LYS798  CYS799  TRP800  GLU811  SER814 

> <Gold.Protein.RotatedAtoms>
  151.3350  135.0850  159.9351 H   0  0  0  0  0  0  0  0  0  0  0  0  # atno 6907 bound_to 6896
  152.5225  133.9504  159.7679 H   0  0  0  0  0  0  0  0  0  0  0  0  # atno 6908 bound_to 6896
  150.9850  133.6153  159.2746 H   0  0  0  0  0  0  0  0  0  0  0  0  # atno 6909 bound_to 6896
  145.0943  139.3564  143.4844 H   0  0  0  0  0  0  0  0  0  0  0  0  # atno 7974 bound_to 7965
  154.4329  140.1074  156.6030 H   0  0  0  0  0  0  0  0  0  0  0  0  # atno 8008 bound_to 7997
  155.5891  140.3492  155.4542 H   0  0  0  0  0  0  0  0  0  0  0  0  # atno 8009 bound_to 7997
  156.0260  140.1250  157.0297 H   0  0  0  0  0  0  0  0  0  0  0  0  # atno 8010 bound_to 7997
  140.6645  143.2664  151.4335 H   0  0  0  0  0  0  0  0  0  0  0  0  # atno 10167 bound_to 10162
  157.2020  131.0678  151.2020 H   0  0  0  0  0  0  0  0  0  0  0  0  # atno 10718 bound_to 10713
  152.9814  135.6016  154.3556 H   0  0  0  0  0  0  0  0  0  0  0  0  # atno 10763 bound_to 10752
  154.3242  135.2769  155.2506 H   0  0  0  0  0  0  0  0  0  0  0  0  # atno 10764 bound_to 10752
  154.4659  135.5954  153.6343 H   0  0  0  0  0  0  0  0  0  0  0  0  # atno 10765 bound_to 10752
  140.2374  134.8077  157.3377 H   0  0  0  0  0  0  0  0  0  0  0  0  # atno 11005 bound_to 11000
  146.3531  140.0792  142.8618 LP  0  0  0  0  0  0  0  0  0  0  0  0  # atno 17320 bound_to 7965
  145.1029  140.9357  143.4702 LP  0  0  0  0  0  0  0  0  0  0  0  0  # atno 17321 bound_to 7965
  139.5890  144.1541  152.2064 LP  0  0  0  0  0  0  0  0  0  0  0  0  # atno 17342 bound_to 10162
  140.0890  144.5637  150.7068 LP  0  0  0  0  0  0  0  0  0  0  0  0  # atno 17343 bound_to 10162
  157.3758  130.7205  149.6596 LP  0  0  0  0  0  0  0  0  0  0  0  0  # atno 17370 bound_to 10713
  155.9699  130.4186  150.4336 LP  0  0  0  0  0  0  0  0  0  0  0  0  # atno 17371 bound_to 10713
  140.1688  134.4635  155.7845 LP  0  0  0  0  0  0  0  0  0  0  0  0  # atno 17394 bound_to 11000
  141.2213  133.6933  156.7672 LP  0  0  0  0  0  0  0  0  0  0  0  0  # atno 17395 bound_to 11000

$$$$
