AV-unprocessed.smi:3314|AV-procd|sdf|12746|dock2
  -GOLD-   2272019 83D 1   1.00000     0.00000
 Structure written by MMmdl.
 37 38  0  0  0  0  0  0  0  0  3 V2000
  151.6532  144.8152  158.8460 C   0  0  0  0  0  0  0  0  0  0  0  0
  151.8997  143.3509  158.5502 C   0  0  0  0  0  0  0  0  0  0  0  0
  152.7537  142.5888  159.3693 C   0  0  0  0  0  0  0  0  0  0  0  0
  152.9407  141.2300  159.0496 C   0  0  0  0  0  0  0  0  0  0  0  0
  153.8482  140.3552  159.8884 C   0  0  0  0  0  0  0  0  0  0  0  0
  152.3444  140.6306  157.9963 N   0  0  0  0  0  0  0  0  0  0  0  0
  151.5263  141.3543  157.1958 C   0  0  0  0  0  0  0  0  0  0  0  0
  150.9327  140.7444  156.1599 N   0  5  0  0  0  0  0  0  0  0  0  0
  151.5528  139.7132  155.5352 C   0  0  0  0  0  0  0  0  0  0  0  0
  152.7590  139.4734  155.4502 O   0  0  0  0  0  0  0  0  0  0  0  0
  150.5418  138.7741  154.8636 C   0  0  1  0  0  0  0  0  0  0  0  0
  150.7992  137.3036  155.2591 C   0  0  0  0  0  0  0  0  0  0  0  0
  149.7658  136.4221  154.6710 N   0  3  1  0  0  0  0  0  0  0  0  0
  149.9907  134.9943  154.9809 C   0  0  0  0  0  0  0  0  0  0  0  0
  148.4076  136.8811  155.0392 C   0  0  0  0  0  0  0  0  0  0  0  0
  148.2222  138.3566  154.6498 C   0  0  0  0  0  0  0  0  0  0  0  0
  149.2271  139.1431  155.2760 O   0  0  0  0  0  0  0  0  0  0  0  0
  151.2759  142.7225  157.4535 C   0  0  0  0  0  0  0  0  0  0  0  0
  152.5588  145.2893  159.2253 H   0  0  0  0  0  0  0  0  0  0  0  0
  150.8686  144.9198  159.5955 H   0  0  0  0  0  0  0  0  0  0  0  0
  151.3435  145.3483  157.9466 H   0  0  0  0  0  0  0  0  0  0  0  0
  153.2498  143.0331  160.2197 H   0  0  0  0  0  0  0  0  0  0  0  0
  153.9412  140.7479  160.9012 H   0  0  0  0  0  0  0  0  0  0  0  0
  154.8423  140.3119  159.4435 H   0  0  0  0  0  0  0  0  0  0  0  0
  153.4564  139.3396  159.9551 H   0  0  0  0  0  0  0  0  0  0  0  0
  150.6101  138.8888  153.7789 H   0  0  0  0  0  0  0  0  0  0  0  0
  151.7826  136.9863  154.9091 H   0  0  0  0  0  0  0  0  0  0  0  0
  150.7952  137.1954  156.3455 H   0  0  0  0  0  0  0  0  0  0  0  0
  149.9258  134.8117  156.0544 H   0  0  0  0  0  0  0  0  0  0  0  0
  150.9763  134.6777  154.6383 H   0  0  0  0  0  0  0  0  0  0  0  0
  149.2482  134.3710  154.4818 H   0  0  0  0  0  0  0  0  0  0  0  0
  147.6609  136.2667  154.5349 H   0  0  0  0  0  0  0  0  0  0  0  0
  148.2566  136.7565  156.1126 H   0  0  0  0  0  0  0  0  0  0  0  0
  148.2648  138.4837  153.5669 H   0  0  0  0  0  0  0  0  0  0  0  0
  147.2437  138.7109  154.9738 H   0  0  0  0  0  0  0  0  0  0  0  0
  150.6134  143.2848  156.8114 H   0  0  0  0  0  0  0  0  0  0  0  0
  149.8437  136.5195  153.6687 H   0  0  0  0  0  0  0  0  0  0  0  0
  1  2  1  0  0  0  0
  1 19  1  0  0  0  0
  1 20  1  0  0  0  0
  1 21  1  0  0  0  0
  2 18  2  0  0  0  0
  2  3  1  0  0  0  0
  3  4  2  0  0  0  0
  3 22  1  0  0  0  0
  4  5  1  0  0  0  0
  4  6  1  0  0  0  0
  5 23  1  0  0  0  0
  5 24  1  0  0  0  0
  5 25  1  0  0  0  0
  6  7  2  0  0  0  0
  7  8  1  0  0  0  0
  7 18  1  0  0  0  0
  8  9  1  0  0  0  0
  9 10  2  0  0  0  0
  9 11  1  0  0  0  0
 11 17  1  0  0  0  0
 11 12  1  0  0  0  0
 11 26  1  0  0  0  0
 12 13  1  0  0  0  0
 12 27  1  0  0  0  0
 12 28  1  0  0  0  0
 13 14  1  0  0  0  0
 13 15  1  0  0  0  0
 13 37  1  0  0  0  0
 14 29  1  0  0  0  0
 14 30  1  0  0  0  0
 14 31  1  0  0  0  0
 15 16  1  0  0  0  0
 15 32  1  0  0  0  0
 15 33  1  0  0  0  0
 16 17  1  0  0  0  0
 16 34  1  0  0  0  0
 16 35  1  0  0  0  0
 18 36  1  0  0  0  0
M  CHG  1   8  -1
M  CHG  1  13   1
M  END
> <s_m_source_file>
AV-unprocessed.smi

> <i_m_source_file_index>
3314

> <i_lp_mmshare_version>
43012

> <i_f3d_flags>
0

> <s_epik_input>
W0NIM11jMVtjSF1jKFtDSDNdKW5jKFtjSF0xKVtOSF1DKD1PKVtDQEBIXTJbQ0gyXU4oW0NIM10pW0NIMl1bQ0gyXU8y

> <s_epik_cmdline>
J2VwaWtfcHl0aG9uJywgJy1waCcsICc3LjAnLCAnLXRuJywgJzgnLCAnLW1hJywgJzIwMCcsICctbWV0YWxfYmluZGluZycsICctaW1hZScsICc8aW5maWxlLm1hZT4nLCAnLW9tYWUnLCAnPG91dGZpbGUubWFlPic=

> <r_epik_Ionization_Penalty>
13.8964

> <r_epik_Ionization_Penalty_Charging>
7.88995

> <r_epik_Ionization_Penalty_Neutral>
6.00641

> <r_epik_State_Penalty>
8.39989

> <r_epik_Charging_Adjusted_Penalty>
16.2898

> <i_epik_Tot_Q>
0

> <i_epik_Tot_abs_Q>
2

> <r_epik_Metal_State_Penalty>
4.31145

> <b_epik_Metal_Only>
1

> <s_lp_Force_Field>
OPLS_2005

> <r_lp_Energy>
9.09812

> <b_lp_Chiralities_Consistent>
1

> <s_lp_Variant>
AV-unprocessed.smi:3314-16

> <Gold.Version>
5.8.1

> <Gold.Id.Protein>
6NUR|6NUR_protein|mol2

> <Gold.PLP.Fitness>
42.0016

> <Gold.PLP.PLP>
-34.1243

> <Gold.PLP.part.hbond>
-2.1234

> <Gold.PLP.part.metal>
0.0000

> <Gold.PLP.part.buried>
-5.6169

> <Gold.PLP.part.nonpolar>
-26.7204

> <Gold.PLP.part.repulsive>
0.1260

> <Gold.PLP.ligand.clash>
0.0000

> <Gold.PLP.ligand.torsion>
0.4981

> <Gold.PLP.Chemscore.Hbond>
2.9520

> <Gold.PLP.Chemscore.CHOScore>
0.0000

> <Gold.PLP.Chemscore.Metal>
0.0000

> <Gold.Chemscore.Hbonds>
donor molecule, donor type, donor heavy atom, donor atom, acceptor molecule, acceptor atom, score
      L1  H    13    37       P1  7948  1.92
      P1  H  7997  8008       L1    10  1.00

> <Gold.PLP.Chemscore.Internal.Correction>
0.0175

> <Gold.Rescore>
     Score         DG    S(hbond)    S(metal)    S(lipo)     H(rot)  DE(clash)    DE(int)     intcor
     17.18     -19.16       1.86        0.00      85.86       1.00       0.18       1.80       ----

> <Gold.Chemscore.Fitness>
17.1777

> <Gold.Chemscore.DG>
-19.1620

> <Gold.Chemscore.ZeroCoef>
-5.4800

> <Gold.Chemscore.Hbond>
1.8551

> <Gold.Chemscore.Metal>
0.0000

> <Gold.Chemscore.Lipo>
85.8641

> <Gold.Chemscore.Internal_Hbond>
0.0000

> <Gold.Chemscore.DEClash>
0.1803

> <Gold.Chemscore.DEInternal>
1.8040

> <Gold.Chemscore.Rot>
1.0000

> <Gold.Chemscore.Internal.Correction>
   9.000000E+99

> <Gold.Chemscore.Hbonds>
donor molecule, donor type, donor heavy atom, donor atom, acceptor molecule, acceptor atom, score
      L1  H    13    37       P1  7948  0.31
      P1  H  7997  8008       L1    10  1.00

> <Gold.Chemscore.Hbond.Weighted>
-6.1959

> <Gold.Chemscore.Metal.Weighted>
-0.0000

> <Gold.Chemscore.Lipo.Weighted>
-10.0461

> <Gold.Chemscore.Internal_Hbond.Weighted>
0.0000

> <Gold.Chemscore.DEClash.Weighted>
0.1803

> <Gold.Chemscore.DEInternal.Weighted>
1.8040

> <Gold.Chemscore.Rot.Weighted>
2.5600

> <Gold.Chemscore.Internal.Correction.Weighted>
   9.000000E+99

> <Gold.Protein.RotatedTorsions>
[ 6907 6896 6895 6894 ] final -118.52 input  -60.11 | X-H torsion
[ 7974 7965 7964 7962 ] final  -77.64 input  175.53 | X-H torsion
[ 8008 7997 7996 7995 ] final  -16.53 input   59.86 | X-H torsion
[ 10167 10162 10161 10158 ] final -127.34 input  -65.29 | X-H torsion
[ 10718 10713 10712 10709 ] final  155.74 input   66.30 | X-H torsion
[ 10763 10752 10751 10750 ] final -152.73 input  -60.55 | X-H torsion
[ 11005 11000 10999 10996 ] final    2.08 input  -57.11 | X-H torsion

> <Gold.Protein.ActiveResidues>
 VAL166  LYS551  ARG553  GLY616  TRP617  ASP618  TYR619  PRO620  LYS621  CYS622 
 ASP623  PHE694  ASN695  SER759  ASP760  ASP761  ALA762  ILE779  LEU786  VAL792 
 PHE793  MET794  SER795  GLU796  ALA797  LYS798  CYS799  TRP800  GLU811  SER814 

> <Gold.Protein.RotatedAtoms>
  150.8226  133.8226  159.3132 H   0  0  0  0  0  0  0  0  0  0  0  0  # atno 6907 bound_to 6896
  151.5980  135.1047  160.0063 H   0  0  0  0  0  0  0  0  0  0  0  0  # atno 6908 bound_to 6896
  152.4314  133.7243  159.6608 H   0  0  0  0  0  0  0  0  0  0  0  0  # atno 6909 bound_to 6896
  145.5971  140.9417  143.1261 H   0  0  0  0  0  0  0  0  0  0  0  0  # atno 7974 bound_to 7965
  154.5046  140.2167  155.9278 H   0  0  0  0  0  0  0  0  0  0  0  0  # atno 8008 bound_to 7997
  156.1477  140.3167  155.8564 H   0  0  0  0  0  0  0  0  0  0  0  0  # atno 8009 bound_to 7997
  155.3999  140.0483  157.3028 H   0  0  0  0  0  0  0  0  0  0  0  0  # atno 8010 bound_to 7997
  139.9619  143.5940  152.2442 H   0  0  0  0  0  0  0  0  0  0  0  0  # atno 10167 bound_to 10162
  157.2143  131.0704  151.1951 H   0  0  0  0  0  0  0  0  0  0  0  0  # atno 10718 bound_to 10713
  154.7975  135.3229  154.7632 H   0  0  0  0  0  0  0  0  0  0  0  0  # atno 10763 bound_to 10752
  153.8307  135.6879  153.4819 H   0  0  0  0  0  0  0  0  0  0  0  0  # atno 10764 bound_to 10752
  153.1673  135.4637  154.9797 H   0  0  0  0  0  0  0  0  0  0  0  0  # atno 10765 bound_to 10752
  140.6083  133.9772  155.8165 H   0  0  0  0  0  0  0  0  0  0  0  0  # atno 11005 bound_to 11000
  144.7326  139.7680  143.7341 LP  0  0  0  0  0  0  0  0  0  0  0  0  # atno 17320 bound_to 7965
  146.1604  139.4716  142.9992 LP  0  0  0  0  0  0  0  0  0  0  0  0  # atno 17321 bound_to 7965
  139.6547  144.7662  151.2079 LP  0  0  0  0  0  0  0  0  0  0  0  0  # atno 17342 bound_to 10162
  140.7550  143.6105  150.8611 LP  0  0  0  0  0  0  0  0  0  0  0  0  # atno 17343 bound_to 10162
  157.3641  130.7146  149.6521 LP  0  0  0  0  0  0  0  0  0  0  0  0  # atno 17370 bound_to 10713
  155.9688  130.4217  150.4483 LP  0  0  0  0  0  0  0  0  0  0  0  0  # atno 17371 bound_to 10713
  141.0825  134.0040  157.3363 LP  0  0  0  0  0  0  0  0  0  0  0  0  # atno 17394 bound_to 11000
  139.9203  135.0200  156.8038 LP  0  0  0  0  0  0  0  0  0  0  0  0  # atno 17395 bound_to 11000

$$$$
