AV-unprocessed.smi:1512|AV-procd|sdf|6106|dock4
  -GOLD-   22720 6243D 1   1.00000     0.00000
 Structure written by MMmdl.
 44 46  0  0  0  0  0  0  0  0  3 V2000
  149.6382  141.6548  156.8198 C   0  0  0  0  0  0  0  0  0  0  0  0
  150.9949  141.6561  157.5445 C   0  0  2  0  0  0  0  0  0  0  0  0
  151.2328  140.3097  158.0641 N   0  0  0  0  0  0  0  0  0  0  0  0
  151.9906  139.3622  157.4904 C   0  0  0  0  0  0  0  0  0  0  0  0
  152.6128  139.5326  156.4413 O   0  0  0  0  0  0  0  0  0  0  0  0
  152.0650  138.0231  158.2381 C   0  0  0  0  0  0  0  0  0  0  0  0
  153.4443  137.5709  158.4898 N   0  0  0  0  0  0  0  0  0  0  0  0
  153.9205  137.6835  159.8094 C   0  0  0  0  0  0  0  0  0  0  0  0
  155.1607  137.3051  160.1499 C   0  0  0  0  0  0  0  0  0  0  0  0
  156.0204  136.7763  159.1194 C   0  0  0  0  0  0  0  0  0  0  0  0
  155.5865  136.6625  157.8428 C   0  0  0  0  0  0  0  0  0  0  0  0
  156.5037  136.1374  156.8574 N   0  3  0  0  0  0  0  0  0  0  0  0
  156.1620  136.1208  155.6790 O   0  0  0  0  0  0  0  0  0  0  0  0
  157.6017  135.7377  157.2333 O   0  5  0  0  0  0  0  0  0  0  0  0
  154.2136  137.0668  157.4749 C   0  0  0  0  0  0  0  0  0  0  0  0
  153.7677  136.9567  156.3310 O   0  0  0  0  0  0  0  0  0  0  0  0
  151.0614  142.6836  158.7026 C   0  0  1  0  0  0  0  0  0  0  0  0
  152.4336  142.7236  159.4228 C   0  0  0  0  0  0  0  0  0  0  0  0
  152.8225  144.2110  159.3685 C   0  0  2  0  0  0  0  0  0  0  0  0
  151.8927  145.0221  160.2887 C   0  0  0  0  0  0  0  0  0  0  0  0
  150.5614  145.0125  159.5147 C   0  0  0  0  0  0  0  0  0  0  0  0
  150.8952  144.1638  158.2725 C   0  0  1  0  0  0  0  0  0  0  0  0
  152.3268  144.6039  157.9839 C   0  0  0  0  0  0  0  0  0  0  0  0
  149.4410  142.6037  156.3228 H   0  0  0  0  0  0  0  0  0  0  0  0
  148.8178  141.4632  157.5125 H   0  0  0  0  0  0  0  0  0  0  0  0
  149.6086  140.8821  156.0505 H   0  0  0  0  0  0  0  0  0  0  0  0
  151.7607  141.9129  156.8112 H   0  0  0  0  0  0  0  0  0  0  0  0
  150.7688  140.0756  158.9297 H   0  0  0  0  0  0  0  0  0  0  0  0
  151.5170  138.1296  159.1753 H   0  0  0  0  0  0  0  0  0  0  0  0
  151.5197  137.2627  157.6757 H   0  0  0  0  0  0  0  0  0  0  0  0
  153.2199  138.0976  160.5201 H   0  0  0  0  0  0  0  0  0  0  0  0
  155.5094  137.4005  161.1677 H   0  0  0  0  0  0  0  0  0  0  0  0
  157.0268  136.4836  159.3818 H   0  0  0  0  0  0  0  0  0  0  0  0
  150.2829  142.4262  159.4229 H   0  0  0  0  0  0  0  0  0  0  0  0
  152.3773  142.3454  160.4442 H   0  0  0  0  0  0  0  0  0  0  0  0
  153.1823  142.1321  158.8944 H   0  0  0  0  0  0  0  0  0  0  0  0
  153.8829  144.3915  159.5469 H   0  0  0  0  0  0  0  0  0  0  0  0
  151.8022  144.5763  161.2798 H   0  0  0  0  0  0  0  0  0  0  0  0
  152.2581  146.0424  160.4112 H   0  0  0  0  0  0  0  0  0  0  0  0
  149.7408  144.5957  160.0994 H   0  0  0  0  0  0  0  0  0  0  0  0
  150.2812  146.0263  159.2257 H   0  0  0  0  0  0  0  0  0  0  0  0
  150.1962  144.3278  157.4534 H   0  0  0  0  0  0  0  0  0  0  0  0
  152.4182  145.6720  157.7787 H   0  0  0  0  0  0  0  0  0  0  0  0
  152.8031  144.0446  157.1772 H   0  0  0  0  0  0  0  0  0  0  0  0
  1  2  1  0  0  0  0
  1 24  1  0  0  0  0
  1 25  1  0  0  0  0
  1 26  1  0  0  0  0
  2  3  1  0  0  0  0
  2 17  1  0  0  0  0
  2 27  1  0  0  0  0
  3  4  1  0  0  0  0
  3 28  1  0  0  0  0
  4  5  2  0  0  0  0
  4  6  1  0  0  0  0
  6  7  1  0  0  0  0
  6 29  1  0  0  0  0
  6 30  1  0  0  0  0
  7 15  1  0  0  0  0
  7  8  1  0  0  0  0
  8  9  2  0  0  0  0
  8 31  1  0  0  0  0
  9 10  1  0  0  0  0
  9 32  1  0  0  0  0
 10 11  2  0  0  0  0
 10 33  1  0  0  0  0
 11 12  1  0  0  0  0
 11 15  1  0  0  0  0
 12 13  2  0  0  0  0
 12 14  1  0  0  0  0
 15 16  2  0  0  0  0
 17 22  1  0  0  0  0
 17 18  1  0  0  0  0
 17 34  1  0  0  0  0
 18 19  1  0  0  0  0
 18 35  1  0  0  0  0
 18 36  1  0  0  0  0
 19 23  1  0  0  0  0
 19 20  1  0  0  0  0
 19 37  1  0  0  0  0
 20 21  1  0  0  0  0
 20 38  1  0  0  0  0
 20 39  1  0  0  0  0
 21 22  1  0  0  0  0
 21 40  1  0  0  0  0
 21 41  1  0  0  0  0
 22 23  1  0  0  0  0
 22 42  1  0  0  0  0
 23 43  1  0  0  0  0
 23 44  1  0  0  0  0
M  CHG  1  12   1
M  CHG  1  14  -1
M  END
> <s_m_source_file>
AV-unprocessed.smi

> <i_m_source_file_index>
1512

> <i_lp_mmshare_version>
43012

> <i_f3d_flags>
0

> <s_epik_input>
W0NIMl0xW0NIMl1bQ0BIXShbQ0gyXTIpW0NAQEhdKFtDSDJdW0NAQEhdMTIpW0NASF0oW0NIM10pW05IXUMoPU8pW0NIMl1uM1tjSF1bY0hdW2NIXWMoW04rXSg9TylbTy1dKWMzPU8=

> <s_epik_cmdline>
J2VwaWtfcHl0aG9uJywgJy1waCcsICc3LjAnLCAnLXRuJywgJzgnLCAnLW1hJywgJzIwMCcsICctbWV0YWxfYmluZGluZycsICctaW1hZScsICc8aW5maWxlLm1hZT4nLCAnLW9tYWUnLCAnPG91dGZpbGUubWFlPic=

> <r_lp_tautomer_probability>
1

> <r_epik_Ionization_Penalty>
2.17697e-08

> <r_epik_Ionization_Penalty_Charging>
1.42735e-10

> <r_epik_Ionization_Penalty_Neutral>
2.16269e-08

> <r_epik_State_Penalty>
-0

> <r_epik_Charging_Adjusted_Penalty>
1.42735e-10

> <i_epik_Tot_Q>
0

> <i_epik_Tot_abs_Q>
2

> <r_epik_Metal_State_Penalty>
-0

> <b_epik_Metal_Only>
0

> <s_lp_Force_Field>
OPLS_2005

> <r_lp_Energy>
64.581

> <b_lp_Chiralities_Consistent>
1

> <s_lp_Variant>
AV-unprocessed.smi:1512-7

> <Gold.Version>
5.8.1

> <Gold.Id.Protein>
6NUR|6NUR_protein|mol2

> <Gold.PLP.Fitness>
46.3758

> <Gold.PLP.PLP>
-39.9900

> <Gold.PLP.part.hbond>
-3.0000

> <Gold.PLP.part.metal>
0.0000

> <Gold.PLP.part.buried>
-6.3433

> <Gold.PLP.part.nonpolar>
-31.0236

> <Gold.PLP.part.repulsive>
0.1267

> <Gold.PLP.ligand.clash>
0.0000

> <Gold.PLP.ligand.torsion>
0.5201

> <Gold.PLP.Chemscore.Hbond>
2.4560

> <Gold.PLP.Chemscore.CHOScore>
0.0000

> <Gold.PLP.Chemscore.Metal>
0.0000

> <Gold.Chemscore.Hbonds>
donor molecule, donor type, donor heavy atom, donor atom, acceptor molecule, acceptor atom, score
      P1  H  7997  8010       L1     5  1.00
      P1  H 10752 10763       L1    16  0.35
      P1  H 10752 10764       L1    13  1.00

> <Gold.PLP.Chemscore.Internal.Correction>
0.0579

> <Gold.Rescore>
     Score         DG    S(hbond)    S(metal)    S(lipo)     H(rot)  DE(clash)    DE(int)     intcor
     18.97     -22.58       2.46        0.00     114.26       1.75       0.16       3.45       ----

> <Gold.Chemscore.Fitness>
18.9700

> <Gold.Chemscore.DG>
-22.5848

> <Gold.Chemscore.ZeroCoef>
-5.4800

> <Gold.Chemscore.Hbond>
2.4578

> <Gold.Chemscore.Metal>
0.0000

> <Gold.Chemscore.Lipo>
114.2643

> <Gold.Chemscore.Internal_Hbond>
0.0000

> <Gold.Chemscore.DEClash>
0.1642

> <Gold.Chemscore.DEInternal>
3.4506

> <Gold.Chemscore.Rot>
1.7474

> <Gold.Chemscore.Internal.Correction>
   9.000000E+99

> <Gold.Chemscore.Hbonds>
donor molecule, donor type, donor heavy atom, donor atom, acceptor molecule, acceptor atom, score
      P1  H  7997  8010       L1     5  1.00
      P1  H 10752 10763       L1    16  0.33
      P1  H 10752 10764       L1    13  0.99

> <Gold.Chemscore.Hbond.Weighted>
-8.2092

> <Gold.Chemscore.Metal.Weighted>
-0.0000

> <Gold.Chemscore.Lipo.Weighted>
-13.3689

> <Gold.Chemscore.Internal_Hbond.Weighted>
0.0000

> <Gold.Chemscore.DEClash.Weighted>
0.1642

> <Gold.Chemscore.DEInternal.Weighted>
3.4506

> <Gold.Chemscore.Rot.Weighted>
4.4733

> <Gold.Chemscore.Internal.Correction.Weighted>
   9.000000E+99

> <Gold.Protein.RotatedTorsions>
[ 6907 6896 6895 6894 ] final -170.28 input  -60.11 | X-H torsion
[ 7974 7965 7964 7962 ] final  141.67 input  175.53 | X-H torsion
[ 8008 7997 7996 7995 ] final   75.80 input   59.86 | X-H torsion
[ 10167 10162 10161 10158 ] final  -60.39 input  -65.29 | X-H torsion
[ 10718 10713 10712 10709 ] final  159.85 input   66.30 | X-H torsion
[ 10763 10752 10751 10750 ] final   93.25 input  -60.55 | X-H torsion
[ 11005 11000 10999 10996 ] final  -73.36 input  -57.11 | X-H torsion

> <Gold.Protein.ActiveResidues>
 VAL166  LYS551  ARG553  GLY616  TRP617  ASP618  TYR619  PRO620  LYS621  CYS622 
 ASP623  PHE694  ASN695  SER759  ASP760  ASP761  ALA762  ILE779  LEU786  VAL792 
 PHE793  MET794  SER795  GLU796  ALA797  LYS798  CYS799  TRP800  GLU811  SER814 

> <Gold.Protein.RotatedAtoms>
  151.5052  133.3496  159.2875 H   0  0  0  0  0  0  0  0  0  0  0  0  # atno 6907 bound_to 6896
  150.8747  134.8130  159.7192 H   0  0  0  0  0  0  0  0  0  0  0  0  # atno 6908 bound_to 6896
  152.4723  134.4941  159.9756 H   0  0  0  0  0  0  0  0  0  0  0  0  # atno 6909 bound_to 6896
  144.9075  139.5338  143.5724 H   0  0  0  0  0  0  0  0  0  0  0  0  # atno 7974 bound_to 7965
  155.8181  140.3471  155.5498 H   0  0  0  0  0  0  0  0  0  0  0  0  # atno 8008 bound_to 7997
  155.8370  140.0936  157.1778 H   0  0  0  0  0  0  0  0  0  0  0  0  # atno 8009 bound_to 7997
  154.4004  140.1401  156.3670 H   0  0  0  0  0  0  0  0  0  0  0  0  # atno 8010 bound_to 7997
  140.6074  143.2377  151.5788 H   0  0  0  0  0  0  0  0  0  0  0  0  # atno 10167 bound_to 10162
  157.1585  131.0581  151.2244 H   0  0  0  0  0  0  0  0  0  0  0  0  # atno 10718 bound_to 10713
  153.2282  135.4332  155.0566 H   0  0  0  0  0  0  0  0  0  0  0  0  # atno 10763 bound_to 10752
  154.8284  135.3373  154.6826 H   0  0  0  0  0  0  0  0  0  0  0  0  # atno 10764 bound_to 10752
  153.7254  135.7014  153.5058 H   0  0  0  0  0  0  0  0  0  0  0  0  # atno 10765 bound_to 10752
  141.1622  133.6876  156.7201 H   0  0  0  0  0  0  0  0  0  0  0  0  # atno 11005 bound_to 11000
  146.3141  139.7855  142.8997 LP  0  0  0  0  0  0  0  0  0  0  0  0  # atno 17320 bound_to 7965
  145.3510  141.0307  143.3338 LP  0  0  0  0  0  0  0  0  0  0  0  0  # atno 17321 bound_to 7965
  139.5335  144.2846  152.1201 LP  0  0  0  0  0  0  0  0  0  0  0  0  # atno 17342 bound_to 10162
  140.2039  144.4630  150.6418 LP  0  0  0  0  0  0  0  0  0  0  0  0  # atno 17343 bound_to 10162
  157.4155  130.7408  149.6872 LP  0  0  0  0  0  0  0  0  0  0  0  0  # atno 17370 bound_to 10713
  155.9758  130.4084  150.3825 LP  0  0  0  0  0  0  0  0  0  0  0  0  # atno 17371 bound_to 10713
  140.2823  134.8307  157.3944 LP  0  0  0  0  0  0  0  0  0  0  0  0  # atno 17394 bound_to 11000
  140.1422  134.4957  155.8023 LP  0  0  0  0  0  0  0  0  0  0  0  0  # atno 17395 bound_to 11000

$$$$
