AV-unprocessed.smi:317|AV-procd|sdf|2328|dock7
  -GOLD-   2262022233D 1   1.00000     0.00000
 Structure written by MMmdl.
 40 41  0  0  0  0  0  0  0  0  2 V2000
  150.0476  139.4699  154.3863 C   0  0  0  0  0  0  0  0  0  0  0  0
  151.3545  139.1361  155.1220 C   0  0  2  0  0  0  0  0  0  0  0  0
  151.5638  137.6169  155.2795 C   0  0  0  0  0  0  0  0  0  0  0  0
  151.5198  136.9804  154.0201 O   0  0  0  0  0  0  0  0  0  0  0  0
  151.3448  139.7872  156.4294 N   0  0  0  0  0  0  0  0  0  0  0  0
  152.3382  139.7411  157.3286 C   0  0  0  0  0  0  0  0  0  0  0  0
  153.3842  139.1155  157.1579 O   0  0  0  0  0  0  0  0  0  0  0  0
  152.0276  140.4434  158.4311 N   0  0  0  0  0  0  0  0  0  0  0  0
  152.8043  140.6273  159.6110 C   0  0  0  0  0  0  0  0  0  0  0  0
  153.5819  139.5724  160.1556 C   0  0  0  0  0  0  0  0  0  0  0  0
  154.3224  139.7796  161.3346 C   0  0  0  0  0  0  0  0  0  0  0  0
  154.2793  141.0411  161.9516 C   0  0  0  0  0  0  0  0  0  0  0  0
  153.5479  142.0302  161.3985 N   0  3  0  0  0  0  0  0  0  0  0  0
  152.8260  141.8981  160.2576 C   0  0  0  0  0  0  0  0  0  0  0  0
  152.1209  143.0314  159.7916 N   0  0  0  0  0  0  0  0  0  0  0  0
  151.9875  144.2153  160.6328 C   0  0  0  0  0  0  0  0  0  0  0  0
  151.4930  145.3134  159.6954 C   0  0  0  0  0  0  0  0  0  0  0  0
  152.2026  144.9725  158.3884 C   0  0  0  0  0  0  0  0  0  0  0  0
  152.2701  143.4414  158.3988 C   0  0  0  0  0  0  0  0  0  0  0  0
  150.0359  139.0371  153.3857 H   0  0  0  0  0  0  0  0  0  0  0  0
  149.9224  140.5476  154.2768 H   0  0  0  0  0  0  0  0  0  0  0  0
  149.1795  139.0863  154.9236 H   0  0  0  0  0  0  0  0  0  0  0  0
  152.1825  139.5485  154.5414 H   0  0  0  0  0  0  0  0  0  0  0  0
  152.5375  137.4037  155.7220 H   0  0  0  0  0  0  0  0  0  0  0  0
  150.8098  137.1822  155.9365 H   0  0  0  0  0  0  0  0  0  0  0  0
  150.6266  136.7289  153.8407 H   0  0  0  0  0  0  0  0  0  0  0  0
  150.5194  140.3213  156.6588 H   0  0  0  0  0  0  0  0  0  0  0  0
  151.0912  140.8180  158.4653 H   0  0  0  0  0  0  0  0  0  0  0  0
  153.6293  138.6032  159.6832 H   0  0  0  0  0  0  0  0  0  0  0  0
  154.9132  138.9807  161.7588 H   0  0  0  0  0  0  0  0  0  0  0  0
  154.8106  141.2916  162.8585 H   0  0  0  0  0  0  0  0  0  0  0  0
  151.2942  144.0441  161.4568 H   0  0  0  0  0  0  0  0  0  0  0  0
  152.9553  144.4986  161.0486 H   0  0  0  0  0  0  0  0  0  0  0  0
  150.4129  145.2351  159.5641 H   0  0  0  0  0  0  0  0  0  0  0  0
  151.7200  146.3164  160.0572 H   0  0  0  0  0  0  0  0  0  0  0  0
  151.6916  145.3683  157.5105 H   0  0  0  0  0  0  0  0  0  0  0  0
  153.2123  145.3847  158.4030 H   0  0  0  0  0  0  0  0  0  0  0  0
  153.2032  143.0831  157.9619 H   0  0  0  0  0  0  0  0  0  0  0  0
  151.4420  143.0293  157.8216 H   0  0  0  0  0  0  0  0  0  0  0  0
  153.5458  142.9378  161.8643 H   0  0  0  0  0  0  0  0  0  0  0  0
  1  2  1  0  0  0  0
  1 20  1  0  0  0  0
  1 21  1  0  0  0  0
  1 22  1  0  0  0  0
  2  3  1  0  0  0  0
  2  5  1  0  0  0  0
  2 23  1  0  0  0  0
  3  4  1  0  0  0  0
  3 24  1  0  0  0  0
  3 25  1  0  0  0  0
  4 26  1  0  0  0  0
  5  6  1  0  0  0  0
  5 27  1  0  0  0  0
  6  7  2  0  0  0  0
  6  8  1  0  0  0  0
  8  9  1  0  0  0  0
  8 28  1  0  0  0  0
  9 14  1  0  0  0  0
  9 10  2  0  0  0  0
 10 11  1  0  0  0  0
 10 29  1  0  0  0  0
 11 12  2  0  0  0  0
 11 30  1  0  0  0  0
 12 13  1  0  0  0  0
 12 31  1  0  0  0  0
 13 14  2  0  0  0  0
 13 40  1  0  0  0  0
 14 15  1  0  0  0  0
 15 19  1  0  0  0  0
 15 16  1  0  0  0  0
 16 17  1  0  0  0  0
 16 32  1  0  0  0  0
 16 33  1  0  0  0  0
 17 18  1  0  0  0  0
 17 34  1  0  0  0  0
 17 35  1  0  0  0  0
 18 19  1  0  0  0  0
 18 36  1  0  0  0  0
 18 37  1  0  0  0  0
 19 38  1  0  0  0  0
 19 39  1  0  0  0  0
M  CHG  1  13   1
M  END
> <s_m_source_file>
AV-unprocessed.smi

> <i_m_source_file_index>
317

> <i_lp_mmshare_version>
43012

> <i_f3d_flags>
0

> <s_epik_input>
W09IXVtDSDJdW0NAQEhdKFtDSDNdKVtOSF1DKD1PKVtOSF1jMVtjSF1bY0hdW2NIXW5jMU4yW0NIMl1bQ0gyXVtDSDJdW0NIMl0y

> <s_epik_cmdline>
J2VwaWtfcHl0aG9uJywgJy1waCcsICc3LjAnLCAnLXRuJywgJzgnLCAnLW1hJywgJzIwMCcsICctbWV0YWxfYmluZGluZycsICctaW1hZScsICc8aW5maWxlLm1hZT4nLCAnLW9tYWUnLCAnPG91dGZpbGUubWFlPic=

> <r_lp_tautomer_probability>
0.999994

> <r_epik_Ionization_Penalty>
1.11558

> <r_epik_Ionization_Penalty_Charging>
1.11556

> <r_epik_Ionization_Penalty_Neutral>
2.02999e-05

> <r_epik_State_Penalty>
1.17393

> <r_epik_Charging_Adjusted_Penalty>
2.28949

> <i_epik_Tot_Q>
1

> <i_epik_Tot_abs_Q>
1

> <r_epik_Metal_State_Penalty>
1.25924

> <b_epik_Metal_Only>
0

> <s_lp_Force_Field>
OPLS_2005

> <r_lp_Energy>
37.9657

> <b_lp_Chiralities_Consistent>
1

> <s_lp_Variant>
AV-unprocessed.smi:317-3

> <Gold.Version>
5.8.1

> <Gold.Id.Protein>
6NUR|6NUR_protein|mol2

> <Gold.PLP.Fitness>
48.4083

> <Gold.PLP.PLP>
-43.1550

> <Gold.PLP.part.hbond>
-2.7459

> <Gold.PLP.part.metal>
0.0000

> <Gold.PLP.part.buried>
-5.9249

> <Gold.PLP.part.nonpolar>
-34.8182

> <Gold.PLP.part.repulsive>
0.2391

> <Gold.PLP.ligand.clash>
0.0000

> <Gold.PLP.ligand.torsion>
0.5003

> <Gold.PLP.Chemscore.Hbond>
1.9513

> <Gold.PLP.Chemscore.CHOScore>
0.0000

> <Gold.PLP.Chemscore.Metal>
0.0000

> <Gold.Chemscore.Hbonds>
donor molecule, donor type, donor heavy atom, donor atom, acceptor molecule, acceptor atom, score
      P1  H  7997  8009       L1     7  0.98
      P1  H 10752 10764       L1     4  0.98

> <Gold.PLP.Chemscore.Internal.Correction>
0.4001

> <Gold.Rescore>
     Score         DG    S(hbond)    S(metal)    S(lipo)     H(rot)  DE(clash)    DE(int)     intcor
     15.60     -17.53       1.82        0.00      97.22       2.11       0.02       1.91       ----

> <Gold.Chemscore.Fitness>
15.6026

> <Gold.Chemscore.DG>
-17.5345

> <Gold.Chemscore.ZeroCoef>
-5.4800

> <Gold.Chemscore.Hbond>
1.8208

> <Gold.Chemscore.Metal>
0.0000

> <Gold.Chemscore.Lipo>
97.2189

> <Gold.Chemscore.Internal_Hbond>
0.0000

> <Gold.Chemscore.DEClash>
0.0231

> <Gold.Chemscore.DEInternal>
1.9087

> <Gold.Chemscore.Rot>
2.1099

> <Gold.Chemscore.Internal.Correction>
   9.000000E+99

> <Gold.Chemscore.Hbonds>
donor molecule, donor type, donor heavy atom, donor atom, acceptor molecule, acceptor atom, score
      P1  H  7997  8009       L1     7  0.74
      P1  H 10752 10764       L1     4  0.57

> <Gold.Chemscore.Hbond.Weighted>
-6.0814

> <Gold.Chemscore.Metal.Weighted>
-0.0000

> <Gold.Chemscore.Lipo.Weighted>
-11.3746

> <Gold.Chemscore.Internal_Hbond.Weighted>
0.0000

> <Gold.Chemscore.DEClash.Weighted>
0.0231

> <Gold.Chemscore.DEInternal.Weighted>
1.9087

> <Gold.Chemscore.Rot.Weighted>
5.4015

> <Gold.Chemscore.Internal.Correction.Weighted>
   9.000000E+99

> <Gold.Protein.RotatedTorsions>
[ 6907 6896 6895 6894 ] final   45.82 input  -60.11 | X-H torsion
[ 7974 7965 7964 7962 ] final   20.05 input  175.53 | X-H torsion
[ 8008 7997 7996 7995 ] final  153.49 input   59.86 | X-H torsion
[ 10167 10162 10161 10158 ] final -123.28 input  -65.29 | X-H torsion
[ 10718 10713 10712 10709 ] final -158.32 input   66.30 | X-H torsion
[ 10763 10752 10751 10750 ] final -104.36 input  -60.55 | X-H torsion
[ 11005 11000 10999 10996 ] final    2.77 input  -57.11 | X-H torsion

> <Gold.Protein.ActiveResidues>
 VAL166  LYS551  ARG553  GLY616  TRP617  ASP618  TYR619  PRO620  LYS621  CYS622 
 ASP623  PHE694  ASN695  SER759  ASP760  ASP761  ALA762  ILE779  LEU786  VAL792 
 PHE793  MET794  SER795  GLU796  ALA797  LYS798  CYS799  TRP800  GLU811  SER814 

> <Gold.Protein.RotatedAtoms>
  152.2490  134.8151  160.0448 H   0  0  0  0  0  0  0  0  0  0  0  0  # atno 6907 bound_to 6896
  151.8838  133.3496  159.3783 H   0  0  0  0  0  0  0  0  0  0  0  0  # atno 6908 bound_to 6896
  150.7078  134.4918  159.5563 H   0  0  0  0  0  0  0  0  0  0  0  0  # atno 6909 bound_to 6896
  146.2126  139.8225  142.8677 H   0  0  0  0  0  0  0  0  0  0  0  0  # atno 7974 bound_to 7965
  156.2579  140.1992  156.6498 H   0  0  0  0  0  0  0  0  0  0  0  0  # atno 8008 bound_to 7997
  154.6545  140.0568  157.0018 H   0  0  0  0  0  0  0  0  0  0  0  0  # atno 8009 bound_to 7997
  155.1368  140.3239  155.4464 H   0  0  0  0  0  0  0  0  0  0  0  0  # atno 8010 bound_to 7997
  140.0052  143.5499  152.2287 H   0  0  0  0  0  0  0  0  0  0  0  0  # atno 10167 bound_to 10162
  156.5525  130.8611  151.2784 H   0  0  0  0  0  0  0  0  0  0  0  0  # atno 10718 bound_to 10713
  154.7873  135.4789  153.9973 H   0  0  0  0  0  0  0  0  0  0  0  0  # atno 10763 bound_to 10752
  153.1578  135.6803  153.8794 H   0  0  0  0  0  0  0  0  0  0  0  0  # atno 10764 bound_to 10752
  153.8417  135.3178  155.3404 H   0  0  0  0  0  0  0  0  0  0  0  0  # atno 10765 bound_to 10752
  140.6005  133.9840  155.8130 H   0  0  0  0  0  0  0  0  0  0  0  0  # atno 11005 bound_to 11000
  145.3082  141.0212  143.3570 LP  0  0  0  0  0  0  0  0  0  0  0  0  # atno 17320 bound_to 7965
  144.8956  139.4717  143.6657 LP  0  0  0  0  0  0  0  0  0  0  0  0  # atno 17321 bound_to 7965
  139.6244  144.7634  151.2671 LP  0  0  0  0  0  0  0  0  0  0  0  0  # atno 17342 bound_to 10162
  140.7403  143.6591  150.8180 LP  0  0  0  0  0  0  0  0  0  0  0  0  # atno 17343 bound_to 10162
  157.7385  130.9814  150.2254 LP  0  0  0  0  0  0  0  0  0  0  0  0  # atno 17370 bound_to 10713
  156.2872  130.3741  149.7877 LP  0  0  0  0  0  0  0  0  0  0  0  0  # atno 17371 bound_to 10713
  141.0875  133.9968  157.3290 LP  0  0  0  0  0  0  0  0  0  0  0  0  # atno 17394 bound_to 11000
  139.9234  135.0201  156.8148 LP  0  0  0  0  0  0  0  0  0  0  0  0  # atno 17395 bound_to 11000

$$$$
