AV-unprocessed.smi:1|AV-procd|sdf|2|dock4
  -GOLD-   2262015 83D 1   1.00000     0.00000
 Structure written by MMmdl.
 57 62  0  0  0  0  0  0  0  0  1 V2000
  154.2074  139.7758  159.1188 O   0  0  0  0  0  0  0  0  0  0  0  0
  153.8970  140.1134  160.2616 C   0  0  0  0  0  0  0  0  0  0  0  0
  153.9653  139.1956  161.3851 N   0  0  0  0  0  0  0  0  0  0  0  0
  154.4148  137.9187  161.3958 C   0  0  0  0  0  0  0  0  0  0  0  0
  154.9281  137.3163  160.2907 N   0  0  0  0  0  0  0  0  0  0  0  0
  155.3557  136.0520  160.3511 C   0  0  0  0  0  0  0  0  0  0  0  0
  155.3642  135.2244  161.3980 N   0  0  0  0  0  0  0  0  0  0  0  0
  154.8557  135.8231  162.5127 C   0  0  0  0  0  0  0  0  0  0  0  0
  154.3653  137.1562  162.5919 C   0  0  0  0  0  0  0  0  0  0  0  0
  153.9274  137.4199  163.8836 N   0  0  0  0  0  0  0  0  0  0  0  0
  154.1483  136.3044  164.5264 C   0  0  0  0  0  0  0  0  0  0  0  0
  154.7066  135.2928  163.7773 N   0  0  0  0  0  0  0  0  0  0  0  0
  155.0731  133.9198  164.2288 C   0  0  1  0  0  0  0  0  0  0  0  0
  153.9888  133.3421  164.8781 O   0  0  0  0  0  0  0  0  0  0  0  0
  154.0797  131.9230  164.7559 C   0  0  1  0  0  0  0  0  0  0  0  0
  152.6845  131.3509  164.4627 C   0  0  0  0  0  0  0  0  0  0  0  0
  152.3156  130.4311  165.4784 O   0  0  0  0  0  0  0  0  0  0  0  0
  151.1986  129.6906  165.3557 C   0  0  0  0  0  0  0  0  0  0  0  0
  150.4965  129.6735  164.3426 O   0  0  0  0  0  0  0  0  0  0  0  0
  150.9095  128.8812  166.5740 C   0  0  0  0  0  0  0  0  0  0  0  0
  151.8614  128.8344  167.6185 C   0  0  0  0  0  0  0  0  0  0  0  0
  151.6073  128.0909  168.7875 C   0  0  0  0  0  0  0  0  0  0  0  0
  150.3990  127.3828  168.9245 C   0  0  0  0  0  0  0  0  0  0  0  0
  149.4464  127.4161  167.8897 C   0  0  0  0  0  0  0  0  0  0  0  0
  149.6997  128.1581  166.7199 C   0  0  0  0  0  0  0  0  0  0  0  0
  155.1283  131.6363  163.6660 C   0  0  2  0  0  0  0  0  0  0  0  0
  156.3312  131.1728  164.2568 O   0  0  0  0  0  0  0  0  0  0  0  0
  157.6188  131.9538  163.5323 S   0  0  0  0  0  0  0  0  0  0  0  0
  158.3933  132.6335  164.5818 O   0  0  0  0  0  0  0  0  0  0  0  0
  158.2329  131.0321  162.5647 O   0  0  0  0  0  0  0  0  0  0  0  0
  156.7620  133.1085  162.6818 O   0  0  0  0  0  0  0  0  0  0  0  0
  155.3975  133.0120  163.0468 C   0  0  2  0  0  0  0  0  0  0  0  0
  153.3422  141.4762  160.5582 C   0  0  0  0  0  0  0  0  0  0  0  0
  152.8361  142.2764  159.5093 C   0  0  0  0  0  0  0  0  0  0  0  0
  152.3263  143.5623  159.7757 C   0  0  0  0  0  0  0  0  0  0  0  0
  152.3256  144.0619  161.0916 C   0  0  0  0  0  0  0  0  0  0  0  0
  152.8391  143.2762  162.1407 C   0  0  0  0  0  0  0  0  0  0  0  0
  153.3487  141.9900  161.8758 C   0  0  0  0  0  0  0  0  0  0  0  0
  153.6412  139.5576  162.2701 H   0  0  0  0  0  0  0  0  0  0  0  0
  155.7479  135.6467  159.4298 H   0  0  0  0  0  0  0  0  0  0  0  0
  153.9117  136.1893  165.5743 H   0  0  0  0  0  0  0  0  0  0  0  0
  155.9024  134.0477  164.9263 H   0  0  0  0  0  0  0  0  0  0  0  0
  154.4242  131.5276  165.7123 H   0  0  0  0  0  0  0  0  0  0  0  0
  151.9500  132.1564  164.4313 H   0  0  0  0  0  0  0  0  0  0  0  0
  152.6811  130.8659  163.4856 H   0  0  0  0  0  0  0  0  0  0  0  0
  152.7940  129.3741  167.5376 H   0  0  0  0  0  0  0  0  0  0  0  0
  152.3399  128.0655  169.5806 H   0  0  0  0  0  0  0  0  0  0  0  0
  150.2039  126.8143  169.8217 H   0  0  0  0  0  0  0  0  0  0  0  0
  148.5189  126.8725  167.9924 H   0  0  0  0  0  0  0  0  0  0  0  0
  148.9468  128.1636  165.9457 H   0  0  0  0  0  0  0  0  0  0  0  0
  154.7976  130.9083  162.9239 H   0  0  0  0  0  0  0  0  0  0  0  0
  154.7261  133.2122  162.2117 H   0  0  0  0  0  0  0  0  0  0  0  0
  152.8299  141.9075  158.4938 H   0  0  0  0  0  0  0  0  0  0  0  0
  151.9367  144.1658  158.9692 H   0  0  0  0  0  0  0  0  0  0  0  0
  151.9350  145.0479  161.2953 H   0  0  0  0  0  0  0  0  0  0  0  0
  152.8445  143.6617  163.1495 H   0  0  0  0  0  0  0  0  0  0  0  0
  153.7465  141.4075  162.6941 H   0  0  0  0  0  0  0  0  0  0  0  0
  1  2  2  0  0  0  0
  2  3  1  0  0  0  0
  2 33  1  0  0  0  0
  3  4  1  0  0  0  0
  3 39  1  0  0  0  0
  4  9  1  0  0  0  0
  4  5  2  0  0  0  0
  5  6  1  0  0  0  0
  6  7  2  0  0  0  0
  6 40  1  0  0  0  0
  7  8  1  0  0  0  0
  8 12  1  0  0  0  0
  8  9  2  0  0  0  0
  9 10  1  0  0  0  0
 10 11  2  0  0  0  0
 11 12  1  0  0  0  0
 11 41  1  0  0  0  0
 12 13  1  0  0  0  0
 13 32  1  0  0  0  0
 13 14  1  0  0  0  0
 13 42  1  0  0  0  0
 14 15  1  0  0  0  0
 15 16  1  0  0  0  0
 15 26  1  0  0  0  0
 15 43  1  0  0  0  0
 16 17  1  0  0  0  0
 16 44  1  0  0  0  0
 16 45  1  0  0  0  0
 17 18  1  0  0  0  0
 18 19  2  0  0  0  0
 18 20  1  0  0  0  0
 20 25  1  0  0  0  0
 20 21  2  0  0  0  0
 21 22  1  0  0  0  0
 21 46  1  0  0  0  0
 22 23  2  0  0  0  0
 22 47  1  0  0  0  0
 23 24  1  0  0  0  0
 23 48  1  0  0  0  0
 24 25  2  0  0  0  0
 24 49  1  0  0  0  0
 25 50  1  0  0  0  0
 26 32  1  0  0  0  0
 26 27  1  0  0  0  0
 26 51  1  0  0  0  0
 27 28  1  0  0  0  0
 28 29  2  0  0  0  0
 28 30  2  0  0  0  0
 28 31  1  0  0  0  0
 31 32  1  0  0  0  0
 32 52  1  0  0  0  0
 33 38  1  0  0  0  0
 33 34  2  0  0  0  0
 34 35  1  0  0  0  0
 34 53  1  0  0  0  0
 35 36  2  0  0  0  0
 35 54  1  0  0  0  0
 36 37  1  0  0  0  0
 36 55  1  0  0  0  0
 37 38  2  0  0  0  0
 37 56  1  0  0  0  0
 38 57  1  0  0  0  0
M  END
> <s_m_source_file>
AV-unprocessed.smi

> <i_m_source_file_index>
1

> <i_lp_mmshare_version>
43012

> <i_f3d_flags>
0

> <s_epik_input>
W2NIXTFbY0hdW2NIXVtjSF1bY0hdYzFDKD1PKVtOSF1jKG5bY0hdbjIpYyhjMjMpbltjSF1uM1tDQEBIXShbQ0BIXShbQ0BIXTQ1KU9TKE81KSg9Tyk9TylPW0NASF00W0NIMl1PQyg9TyljNltjSF1bY0hdW2NIXVtjSF1bY0hdNg==

> <s_epik_cmdline>
J2VwaWtfcHl0aG9uJywgJy1waCcsICc3LjAnLCAnLXRuJywgJzgnLCAnLW1hJywgJzIwMCcsICctbWV0YWxfYmluZGluZycsICctaW1hZScsICc8aW5maWxlLm1hZT4nLCAnLW9tYWUnLCAnPG91dGZpbGUubWFlPic=

> <r_lp_tautomer_probability>
1

> <r_epik_Ionization_Penalty>
0.00195722

> <r_epik_Ionization_Penalty_Charging>
0

> <r_epik_Ionization_Penalty_Neutral>
0.00195722

> <r_epik_State_Penalty>
0.00633741

> <r_epik_Charging_Adjusted_Penalty>
0.00633741

> <i_epik_Tot_Q>
0

> <i_epik_Tot_abs_Q>
0

> <r_epik_Metal_State_Penalty>
0.341185

> <b_epik_Metal_Only>
0

> <s_epik_Chemistry_Notes>
This compound has an ester and may undergo hydrolysis at high or low pH. This compound contains an acetal/aminal-like group ( X-CH(R)-Y where X, Y are N, S, or O) that may be acid/base labile, releasing an aldehyde.

> <s_lp_Force_Field>
OPLS_2005

> <r_lp_Energy>
43.8604

> <b_lp_Chiralities_Consistent>
1

> <s_lp_Variant>
AV-unprocessed.smi:1-2

> <Gold.Version>
5.8.1

> <Gold.Id.Protein>
6NUR|6NUR_protein|mol2

> <Gold.PLP.Fitness>
64.3223

> <Gold.PLP.PLP>
-63.7482

> <Gold.PLP.part.hbond>
-1.0000

> <Gold.PLP.part.metal>
0.0000

> <Gold.PLP.part.buried>
-6.0485

> <Gold.PLP.part.nonpolar>
-57.3174

> <Gold.PLP.part.repulsive>
0.2947

> <Gold.PLP.ligand.clash>
0.0000

> <Gold.PLP.ligand.torsion>
1.1848

> <Gold.PLP.Chemscore.Hbond>
0.9440

> <Gold.PLP.Chemscore.CHOScore>
0.0000

> <Gold.PLP.Chemscore.Metal>
0.0000

> <Gold.Chemscore.Hbonds>
donor molecule, donor type, donor heavy atom, donor atom, acceptor molecule, acceptor atom, score
      P1  H  7997  8009       L1     1  0.80

> <Gold.PLP.Chemscore.Internal.Correction>
0.1116

> <Gold.Rescore>
     Score         DG    S(hbond)    S(metal)    S(lipo)     H(rot)  DE(clash)    DE(int)     intcor
     15.08     -21.45       0.97        0.00     155.51       2.13       1.31       5.06       ----

> <Gold.Chemscore.Fitness>
15.0835

> <Gold.Chemscore.DG>
-21.4507

> <Gold.Chemscore.ZeroCoef>
-5.4800

> <Gold.Chemscore.Hbond>
0.9691

> <Gold.Chemscore.Metal>
0.0000

> <Gold.Chemscore.Lipo>
155.5141

> <Gold.Chemscore.Internal_Hbond>
0.0000

> <Gold.Chemscore.DEClash>
1.3117

> <Gold.Chemscore.DEInternal>
5.0554

> <Gold.Chemscore.Rot>
2.1333

> <Gold.Chemscore.Internal.Correction>
   9.000000E+99

> <Gold.Chemscore.Hbonds>
donor molecule, donor type, donor heavy atom, donor atom, acceptor molecule, acceptor atom, score
      P1  H  7997  8009       L1     1  0.77

> <Gold.Chemscore.Hbond.Weighted>
-3.2369

> <Gold.Chemscore.Metal.Weighted>
-0.0000

> <Gold.Chemscore.Lipo.Weighted>
-18.1952

> <Gold.Chemscore.Internal_Hbond.Weighted>
0.0000

> <Gold.Chemscore.DEClash.Weighted>
1.3117

> <Gold.Chemscore.DEInternal.Weighted>
5.0554

> <Gold.Chemscore.Rot.Weighted>
5.4614

> <Gold.Chemscore.Internal.Correction.Weighted>
   9.000000E+99

> <Gold.Protein.RotatedTorsions>
[ 6907 6896 6895 6894 ] final  107.41 input  -60.11 | X-H torsion
[ 7974 7965 7964 7962 ] final  -49.73 input  175.53 | X-H torsion
[ 8008 7997 7996 7995 ] final  108.99 input   59.86 | X-H torsion
[ 10167 10162 10161 10158 ] final  -90.03 input  -65.29 | X-H torsion
[ 10718 10713 10712 10709 ] final  153.60 input   66.30 | X-H torsion
[ 10763 10752 10751 10750 ] final -128.36 input  -60.55 | X-H torsion
[ 11005 11000 10999 10996 ] final  -24.87 input  -57.11 | X-H torsion

> <Gold.Protein.ActiveResidues>
 VAL166  LYS551  ARG553  GLY616  TRP617  ASP618  TYR619  PRO620  LYS621  CYS622 
 ASP623  PHE694  ASN695  SER759  ASP760  ASP761  ALA762  ILE779  LEU786  VAL792 
 PHE793  MET794  SER795  GLU796  ALA797  LYS798  CYS799  TRP800  GLU811  SER814 

> <Gold.Protein.RotatedAtoms>
  152.5155  133.9238  159.7547 H   0  0  0  0  0  0  0  0  0  0  0  0  # atno 6907 bound_to 6896
  150.9604  133.6443  159.2762 H   0  0  0  0  0  0  0  0  0  0  0  0  # atno 6908 bound_to 6896
  151.3690  135.0924  159.9512 H   0  0  0  0  0  0  0  0  0  0  0  0  # atno 6909 bound_to 6896
  145.9374  140.7694  142.9569 H   0  0  0  0  0  0  0  0  0  0  0  0  # atno 7974 bound_to 7965
  156.1945  140.3066  155.9400 H   0  0  0  0  0  0  0  0  0  0  0  0  # atno 8008 bound_to 7997
  155.3097  140.0450  157.3051 H   0  0  0  0  0  0  0  0  0  0  0  0  # atno 8009 bound_to 7997
  154.5493  140.2286  155.8521 H   0  0  0  0  0  0  0  0  0  0  0  0  # atno 8010 bound_to 7997
  140.3589  143.2852  151.9637 H   0  0  0  0  0  0  0  0  0  0  0  0  # atno 10167 bound_to 10162
  157.2427  131.0762  151.1782 H   0  0  0  0  0  0  0  0  0  0  0  0  # atno 10718 bound_to 10713
  154.8756  135.3931  154.3745 H   0  0  0  0  0  0  0  0  0  0  0  0  # atno 10763 bound_to 10752
  153.4500  135.7028  153.6120 H   0  0  0  0  0  0  0  0  0  0  0  0  # atno 10764 bound_to 10752
  153.4664  135.3800  155.2335 H   0  0  0  0  0  0  0  0  0  0  0  0  # atno 10765 bound_to 10752
  140.8885  133.7605  156.0391 H   0  0  0  0  0  0  0  0  0  0  0  0  # atno 11005 bound_to 11000
  144.6774  140.2225  143.7365 LP  0  0  0  0  0  0  0  0  0  0  0  0  # atno 17320 bound_to 7965
  145.8345  139.2101  143.1863 LP  0  0  0  0  0  0  0  0  0  0  0  0  # atno 17321 bound_to 7965
  139.4816  144.6010  151.7606 LP  0  0  0  0  0  0  0  0  0  0  0  0  # atno 17342 bound_to 10162
  140.5146  144.0973  150.6004 LP  0  0  0  0  0  0  0  0  0  0  0  0  # atno 17343 bound_to 10162
  157.3362  130.7010  149.6354 LP  0  0  0  0  0  0  0  0  0  0  0  0  # atno 17370 bound_to 10713
  155.9669  130.4293  150.4826 LP  0  0  0  0  0  0  0  0  0  0  0  0  # atno 17371 bound_to 10713
  140.8376  134.3105  157.5326 LP  0  0  0  0  0  0  0  0  0  0  0  0  # atno 17394 bound_to 11000
  139.8727  134.9398  156.3752 LP  0  0  0  0  0  0  0  0  0  0  0  0  # atno 17395 bound_to 11000

$$$$
