AV-unprocessed.smi:311|AV-procd|sdf|2297|dock10
  -GOLD-   2262022193D 1   1.00000     0.00000
 Structure written by MMmdl.
 44 46  0  0  0  0  0  0  0  0  2 V2000
  148.3297  135.1925  157.6520 C   0  0  0  0  0  0  0  0  0  0  0  0
  149.6211  135.9580  157.6994 C   0  0  0  0  0  0  0  0  0  0  0  0
  150.0517  136.4465  158.8504 N   0  0  0  0  0  0  0  0  0  0  0  0
  151.2518  137.1037  158.5630 O   0  0  0  0  0  0  0  0  0  0  0  0
  151.5000  136.9832  157.2342 C   0  0  0  0  0  0  0  0  0  0  0  0
  152.7406  137.6353  156.7244 C   0  0  0  0  0  0  0  0  0  0  0  0
  150.5049  136.2675  156.6261 C   0  0  0  0  0  0  0  0  0  0  0  0
  150.3571  135.9010  155.1721 C   0  0  0  0  0  0  0  0  0  0  0  0
  149.7821  134.4898  155.0712 C   0  0  0  0  0  0  0  0  0  0  0  0
  150.1545  133.6158  155.8537 O   0  0  0  0  0  0  0  0  0  0  0  0
  148.8512  134.2914  154.1254 N   0  0  0  0  0  0  0  0  0  0  0  0
  148.0933  133.0593  153.9372 C   0  0  2  0  0  0  0  0  0  0  0  0
  148.9195  131.7996  154.1684 C   0  0  0  0  0  0  0  0  0  0  0  0
  148.0967  130.7391  153.4348 C   0  0  0  0  0  0  0  0  0  0  0  0
  147.5081  131.4254  152.2626 N   0  3  1  0  0  0  0  0  0  0  0  0
  146.1728  130.9252  151.8536 C   0  0  0  0  0  0  0  0  0  0  0  0
  145.6579  131.7056  150.6306 C   0  0  0  0  0  0  0  0  0  0  0  0
  145.6906  133.2350  150.8344 C   0  0  0  0  0  0  0  0  0  0  0  0
  146.2794  133.6369  152.1964 C   0  0  0  0  0  0  0  0  0  0  0  0
  147.6039  132.8956  152.4873 C   0  0  1  0  0  0  0  0  0  0  0  0
  147.5795  135.7336  157.0752 H   0  0  0  0  0  0  0  0  0  0  0  0
  147.9223  135.0221  158.6494 H   0  0  0  0  0  0  0  0  0  0  0  0
  148.4703  134.2189  157.1827 H   0  0  0  0  0  0  0  0  0  0  0  0
  153.1765  137.0583  155.9090 H   0  0  0  0  0  0  0  0  0  0  0  0
  153.4893  137.7222  157.5124 H   0  0  0  0  0  0  0  0  0  0  0  0
  152.5231  138.6365  156.3523 H   0  0  0  0  0  0  0  0  0  0  0  0
  149.7086  136.6037  154.6470 H   0  0  0  0  0  0  0  0  0  0  0  0
  151.3154  135.9283  154.6526 H   0  0  0  0  0  0  0  0  0  0  0  0
  148.6181  135.0684  153.5238 H   0  0  0  0  0  0  0  0  0  0  0  0
  147.2424  133.0273  154.6214 H   0  0  0  0  0  0  0  0  0  0  0  0
  149.9035  131.8954  153.7065 H   0  0  0  0  0  0  0  0  0  0  0  0
  149.0600  131.5698  155.2251 H   0  0  0  0  0  0  0  0  0  0  0  0
  148.6938  129.8774  153.1355 H   0  0  0  0  0  0  0  0  0  0  0  0
  147.3025  130.3824  154.0928 H   0  0  0  0  0  0  0  0  0  0  0  0
  146.2411  129.8628  151.6177 H   0  0  0  0  0  0  0  0  0  0  0  0
  145.4705  131.0188  152.6836 H   0  0  0  0  0  0  0  0  0  0  0  0
  146.2664  131.4499  149.7620 H   0  0  0  0  0  0  0  0  0  0  0  0
  144.6441  131.3837  150.3903 H   0  0  0  0  0  0  0  0  0  0  0  0
  146.2825  133.6892  150.0389 H   0  0  0  0  0  0  0  0  0  0  0  0
  144.6862  133.6481  150.7352 H   0  0  0  0  0  0  0  0  0  0  0  0
  146.4369  134.7154  152.2261 H   0  0  0  0  0  0  0  0  0  0  0  0
  145.5513  133.4187  152.9791 H   0  0  0  0  0  0  0  0  0  0  0  0
  148.3714  133.2551  151.7996 H   0  0  0  0  0  0  0  0  0  0  0  0
  148.1255  131.2375  151.4857 H   0  0  0  0  0  0  0  0  0  0  0  0
  1  2  1  0  0  0  0
  1 21  1  0  0  0  0
  1 22  1  0  0  0  0
  1 23  1  0  0  0  0
  2  7  1  0  0  0  0
  2  3  2  0  0  0  0
  3  4  1  0  0  0  0
  4  5  1  0  0  0  0
  5  6  1  0  0  0  0
  5  7  2  0  0  0  0
  6 24  1  0  0  0  0
  6 25  1  0  0  0  0
  6 26  1  0  0  0  0
  7  8  1  0  0  0  0
  8  9  1  0  0  0  0
  8 27  1  0  0  0  0
  8 28  1  0  0  0  0
  9 10  2  0  0  0  0
  9 11  1  0  0  0  0
 11 12  1  0  0  0  0
 11 29  1  0  0  0  0
 12 20  1  0  0  0  0
 12 13  1  0  0  0  0
 12 30  1  0  0  0  0
 13 14  1  0  0  0  0
 13 31  1  0  0  0  0
 13 32  1  0  0  0  0
 14 15  1  0  0  0  0
 14 33  1  0  0  0  0
 14 34  1  0  0  0  0
 15 20  1  0  0  0  0
 15 16  1  0  0  0  0
 15 44  1  0  0  0  0
 16 17  1  0  0  0  0
 16 35  1  0  0  0  0
 16 36  1  0  0  0  0
 17 18  1  0  0  0  0
 17 37  1  0  0  0  0
 17 38  1  0  0  0  0
 18 19  1  0  0  0  0
 18 39  1  0  0  0  0
 18 40  1  0  0  0  0
 19 20  1  0  0  0  0
 19 41  1  0  0  0  0
 19 42  1  0  0  0  0
 20 43  1  0  0  0  0
M  CHG  1  15   1
M  END
> <s_m_source_file>
AV-unprocessed.smi

> <i_m_source_file_index>
311

> <i_lp_mmshare_version>
43012

> <i_f3d_flags>
0

> <s_epik_input>
W0NIM11jMW5vYyhbQ0gzXSljMVtDSDJdQyg9TylbTkhdW0NASF0oW0NIMl1bQ0gyXTIpW0NAQEhdKE4yMylbQ0gyXVtDSDJdW0NIMl1bQ0gyXTM=

> <s_epik_cmdline>
J2VwaWtfcHl0aG9uJywgJy1waCcsICc3LjAnLCAnLXRuJywgJzgnLCAnLW1hJywgJzIwMCcsICctbWV0YWxfYmluZGluZycsICctaW1hZScsICc8aW5maWxlLm1hZT4nLCAnLW9tYWUnLCAnPG91dGZpbGUubWFlPic=

> <r_epik_Ionization_Penalty>
0.00173669

> <r_epik_Ionization_Penalty_Charging>
0.0017366

> <r_epik_Ionization_Penalty_Neutral>
9.2145e-08

> <r_epik_State_Penalty>
0.00117499

> <r_epik_Charging_Adjusted_Penalty>
0.00291159

> <i_epik_Tot_Q>
1

> <i_epik_Tot_abs_Q>
1

> <r_epik_Metal_State_Penalty>
-0

> <b_epik_Metal_Only>
0

> <s_lp_Force_Field>
OPLS_2005

> <r_lp_Energy>
32.9133

> <b_lp_Chiralities_Consistent>
1

> <s_lp_Variant>
AV-unprocessed.smi:311-1

> <Gold.Version>
5.8.1

> <Gold.Id.Protein>
6NUR|6NUR_protein|mol2

> <Gold.PLP.Fitness>
36.4725

> <Gold.PLP.PLP>
-29.3064

> <Gold.PLP.part.hbond>
-3.0000

> <Gold.PLP.part.metal>
0.0000

> <Gold.PLP.part.buried>
-5.1130

> <Gold.PLP.part.nonpolar>
-22.0246

> <Gold.PLP.part.repulsive>
0.0169

> <Gold.PLP.ligand.clash>
0.0000

> <Gold.PLP.ligand.torsion>
0.9218

> <Gold.PLP.Chemscore.Hbond>
3.0000

> <Gold.PLP.Chemscore.CHOScore>
0.0000

> <Gold.PLP.Chemscore.Metal>
0.0000

> <Gold.Chemscore.Hbonds>
donor molecule, donor type, donor heavy atom, donor atom, acceptor molecule, acceptor atom, score
      L1  H    11    29       P1  7948  1.00
      L1  H    15    44       P1 10747  0.99
      P1  H  6896  6909       L1     3  0.65

> <Gold.PLP.Chemscore.Internal.Correction>
0.0096

> <Gold.Rescore>
     Score         DG    S(hbond)    S(metal)    S(lipo)     H(rot)  DE(clash)    DE(int)     intcor
     14.35     -16.62       1.76        0.00      74.72       1.36       0.01       2.26       ----

> <Gold.Chemscore.Fitness>
14.3527

> <Gold.Chemscore.DG>
-16.6223

> <Gold.Chemscore.ZeroCoef>
-5.4800

> <Gold.Chemscore.Hbond>
1.7583

> <Gold.Chemscore.Metal>
0.0000

> <Gold.Chemscore.Lipo>
74.7230

> <Gold.Chemscore.Internal_Hbond>
0.0000

> <Gold.Chemscore.DEClash>
0.0135

> <Gold.Chemscore.DEInternal>
2.2561

> <Gold.Chemscore.Rot>
1.3567

> <Gold.Chemscore.Internal.Correction>
   9.000000E+99

> <Gold.Chemscore.Hbonds>
donor molecule, donor type, donor heavy atom, donor atom, acceptor molecule, acceptor atom, score
      L1  H    11    29       P1  7948  0.69
      L1  H    15    44       P1 10747  0.92
      P1  H  6896  6909       L1     3  0.03

> <Gold.Chemscore.Hbond.Weighted>
-5.8728

> <Gold.Chemscore.Metal.Weighted>
-0.0000

> <Gold.Chemscore.Lipo.Weighted>
-8.7426

> <Gold.Chemscore.Internal_Hbond.Weighted>
0.0000

> <Gold.Chemscore.DEClash.Weighted>
0.0135

> <Gold.Chemscore.DEInternal.Weighted>
2.2561

> <Gold.Chemscore.Rot.Weighted>
3.4731

> <Gold.Chemscore.Internal.Correction.Weighted>
   9.000000E+99

> <Gold.Protein.RotatedTorsions>
[ 6907 6896 6895 6894 ] final   80.72 input  -60.11 | X-H torsion
[ 7974 7965 7964 7962 ] final -112.42 input  175.53 | X-H torsion
[ 8008 7997 7996 7995 ] final  -43.71 input   59.86 | X-H torsion
[ 10167 10162 10161 10158 ] final   64.75 input  -65.29 | X-H torsion
[ 10718 10713 10712 10709 ] final  100.78 input   66.30 | X-H torsion
[ 10763 10752 10751 10750 ] final -102.41 input  -60.55 | X-H torsion
[ 11005 11000 10999 10996 ] final   40.54 input  -57.11 | X-H torsion

> <Gold.Protein.ActiveResidues>
 VAL166  LYS551  ARG553  GLY616  TRP617  ASP618  TYR619  PRO620  LYS621  CYS622 
 ASP623  PHE694  ASN695  SER759  ASP760  ASP761  ALA762  ILE779  LEU786  VAL792 
 PHE793  MET794  SER795  GLU796  ALA797  LYS798  CYS799  TRP800  GLU811  SER814 

> <Gold.Protein.RotatedAtoms>
  152.5244  134.3315  159.9184 H   0  0  0  0  0  0  0  0  0  0  0  0  # atno 6907 bound_to 6896
  151.3264  133.4012  159.2666 H   0  0  0  0  0  0  0  0  0  0  0  0  # atno 6908 bound_to 6896
  150.9917  134.9267  159.7961 H   0  0  0  0  0  0  0  0  0  0  0  0  # atno 6909 bound_to 6896
  145.1442  140.8794  143.3684 H   0  0  0  0  0  0  0  0  0  0  0  0  # atno 7974 bound_to 7965
  154.3997  140.1441  156.3564 H   0  0  0  0  0  0  0  0  0  0  0  0  # atno 8008 bound_to 7997
  155.8222  140.3469  155.5500 H   0  0  0  0  0  0  0  0  0  0  0  0  # atno 8009 bound_to 7997
  155.8276  140.0907  157.1802 H   0  0  0  0  0  0  0  0  0  0  0  0  # atno 8010 bound_to 7997
  140.1188  144.4750  150.6933 H   0  0  0  0  0  0  0  0  0  0  0  0  # atno 10167 bound_to 10162
  157.6845  131.0708  150.5153 H   0  0  0  0  0  0  0  0  0  0  0  0  # atno 10718 bound_to 10713
  154.7732  135.4861  153.9691 H   0  0  0  0  0  0  0  0  0  0  0  0  # atno 10763 bound_to 10752
  153.1394  135.6769  153.9058 H   0  0  0  0  0  0  0  0  0  0  0  0  # atno 10764 bound_to 10752
  153.8737  135.3140  155.3421 H   0  0  0  0  0  0  0  0  0  0  0  0  # atno 10765 bound_to 10752
  140.1921  134.3974  155.8141 H   0  0  0  0  0  0  0  0  0  0  0  0  # atno 11005 bound_to 11000
  145.0500  139.3189  143.5933 LP  0  0  0  0  0  0  0  0  0  0  0  0  # atno 17320 bound_to 7965
  146.3502  139.9904  142.8686 LP  0  0  0  0  0  0  0  0  0  0  0  0  # atno 17321 bound_to 7965
  140.6884  143.2362  151.5199 LP  0  0  0  0  0  0  0  0  0  0  0  0  # atno 17342 bound_to 10162
  139.5580  144.2228  152.1644 LP  0  0  0  0  0  0  0  0  0  0  0  0  # atno 17343 bound_to 10162
  156.5468  130.4222  149.6127 LP  0  0  0  0  0  0  0  0  0  0  0  0  # atno 17370 bound_to 10713
  156.2937  130.7138  151.1993 LP  0  0  0  0  0  0  0  0  0  0  0  0  # atno 17371 bound_to 10713
  141.2226  133.7051  156.8113 LP  0  0  0  0  0  0  0  0  0  0  0  0  # atno 17394 bound_to 11000
  140.2148  134.8801  157.3314 LP  0  0  0  0  0  0  0  0  0  0  0  0  # atno 17395 bound_to 11000

$$$$
