AV-unprocessed.smi:258|AV-procd|sdf|1970|dock4
  -GOLD-   2262021133D 1   1.00000     0.00000
 Structure written by MMmdl.
 57 60  0  0  0  0  0  0  0  0  1 V2000
  150.5301  145.5601  160.3572 O   0  0  0  0  0  0  0  0  0  0  0  0
  151.7982  145.5899  159.7386 C   0  0  0  0  0  0  0  0  0  0  0  0
  152.1236  144.2078  159.1516 C   0  0  0  0  0  0  0  0  0  0  0  0
  152.6877  143.3539  160.1390 O   0  0  0  0  0  0  0  0  0  0  0  0
  153.3735  142.2130  159.6371 C   0  0  1  0  0  0  0  0  0  0  0  0
  153.8888  141.4086  160.8414 C   0  0  0  0  0  0  0  0  0  0  0  0
  154.5497  140.1053  160.3687 C   0  0  0  0  0  0  0  0  0  0  0  0
  153.5852  139.2855  159.4967 C   0  0  0  0  0  0  0  0  0  0  0  0
  153.0676  140.0917  158.3913 N   0  0  0  0  0  0  0  0  0  0  0  0
  152.4896  139.3754  157.3937 C   0  0  0  0  0  0  0  0  0  0  0  0
  152.8056  139.6385  156.0970 N   0  0  0  0  0  0  0  0  0  0  0  0
  152.2324  138.9468  155.1079 C   0  0  0  0  0  0  0  0  0  0  0  0
  151.3362  137.9620  155.1892 N   0  0  0  0  0  0  0  0  0  0  0  0
  151.0227  137.6847  156.4869 C   0  0  0  0  0  0  0  0  0  0  0  0
  151.5449  138.3389  157.6387 C   0  0  0  0  0  0  0  0  0  0  0  0
  150.9950  137.7821  158.7877 N   0  0  0  0  0  0  0  0  0  0  0  0
  150.1875  136.8594  158.3409 C   0  0  0  0  0  0  0  0  0  0  0  0
  150.1579  136.7189  156.9715 N   0  0  0  0  0  0  0  0  0  0  0  0
  149.3508  135.7796  156.2127 C   0  0  0  0  0  0  0  0  0  0  0  0
  149.6568  134.2802  156.4861 C   0  0  2  0  0  0  0  0  0  0  0  0
  151.1906  134.0680  156.4860 C   0  0  0  0  0  0  0  0  0  0  0  0
  151.5547  132.9345  157.2466 O   0  0  0  0  0  0  0  0  0  0  0  0
  148.9474  133.3185  155.4857 C   0  0  1  0  0  0  0  0  0  0  0  0
  149.5787  133.2420  154.1028 C   0  0  0  0  0  0  0  0  0  0  0  0
  149.0047  131.9449  153.5544 C   0  0  0  0  0  0  0  0  0  0  0  0
  149.0004  131.0691  154.6694 O   0  0  0  0  0  0  0  0  0  0  0  0
  148.9501  131.8287  155.8736 C   0  0  0  0  0  0  0  0  0  0  0  0
  152.4236  141.3468  158.7848 C   0  0  0  0  0  0  0  0  0  0  0  0
  150.3766  146.3972  160.7676 H   0  0  0  0  0  0  0  0  0  0  0  0
  151.7953  146.3605  158.9684 H   0  0  0  0  0  0  0  0  0  0  0  0
  152.5453  145.8730  160.4802 H   0  0  0  0  0  0  0  0  0  0  0  0
  151.1989  143.7400  158.8123 H   0  0  0  0  0  0  0  0  0  0  0  0
  152.7665  144.2915  158.2749 H   0  0  0  0  0  0  0  0  0  0  0  0
  154.2322  142.5132  159.0352 H   0  0  0  0  0  0  0  0  0  0  0  0
  154.6000  142.0037  161.4152 H   0  0  0  0  0  0  0  0  0  0  0  0
  153.0612  141.1764  161.5131 H   0  0  0  0  0  0  0  0  0  0  0  0
  155.4497  140.3371  159.7978 H   0  0  0  0  0  0  0  0  0  0  0  0
  154.8697  139.5146  161.2272 H   0  0  0  0  0  0  0  0  0  0  0  0
  154.0968  138.3941  159.1355 H   0  0  0  0  0  0  0  0  0  0  0  0
  152.7444  138.9393  160.0991 H   0  0  0  0  0  0  0  0  0  0  0  0
  152.5358  139.2216  154.1084 H   0  0  0  0  0  0  0  0  0  0  0  0
  149.5985  136.2424  159.0039 H   0  0  0  0  0  0  0  0  0  0  0  0
  148.2990  135.9843  156.4169 H   0  0  0  0  0  0  0  0  0  0  0  0
  149.5054  136.0161  155.1597 H   0  0  0  0  0  0  0  0  0  0  0  0
  149.3041  134.0308  157.4876 H   0  0  0  0  0  0  0  0  0  0  0  0
  151.5712  133.8958  155.4802 H   0  0  0  0  0  0  0  0  0  0  0  0
  151.7042  134.9465  156.8779 H   0  0  0  0  0  0  0  0  0  0  0  0
  150.9399  132.2398  157.0657 H   0  0  0  0  0  0  0  0  0  0  0  0
  147.9126  133.6400  155.3574 H   0  0  0  0  0  0  0  0  0  0  0  0
  149.3362  134.0959  153.4697 H   0  0  0  0  0  0  0  0  0  0  0  0
  150.6645  133.1660  154.1796 H   0  0  0  0  0  0  0  0  0  0  0  0
  147.9792  132.0929  153.2132 H   0  0  0  0  0  0  0  0  0  0  0  0
  149.5874  131.5405  152.7266 H   0  0  0  0  0  0  0  0  0  0  0  0
  149.8283  131.5723  156.4669 H   0  0  0  0  0  0  0  0  0  0  0  0
  148.0642  131.5538  156.4443 H   0  0  0  0  0  0  0  0  0  0  0  0
  151.5184  141.1222  159.3508 H   0  0  0  0  0  0  0  0  0  0  0  0
  152.1185  141.8957  157.8934 H   0  0  0  0  0  0  0  0  0  0  0  0
  1  2  1  0  0  0  0
  1 29  1  0  0  0  0
  2  3  1  0  0  0  0
  2 30  1  0  0  0  0
  2 31  1  0  0  0  0
  3  4  1  0  0  0  0
  3 32  1  0  0  0  0
  3 33  1  0  0  0  0
  4  5  1  0  0  0  0
  5 28  1  0  0  0  0
  5  6  1  0  0  0  0
  5 34  1  0  0  0  0
  6  7  1  0  0  0  0
  6 35  1  0  0  0  0
  6 36  1  0  0  0  0
  7  8  1  0  0  0  0
  7 37  1  0  0  0  0
  7 38  1  0  0  0  0
  8  9  1  0  0  0  0
  8 39  1  0  0  0  0
  8 40  1  0  0  0  0
  9 10  1  0  0  0  0
  9 28  1  0  0  0  0
 10 15  1  0  0  0  0
 10 11  2  0  0  0  0
 11 12  1  0  0  0  0
 12 13  2  0  0  0  0
 12 41  1  0  0  0  0
 13 14  1  0  0  0  0
 14 18  1  0  0  0  0
 14 15  2  0  0  0  0
 15 16  1  0  0  0  0
 16 17  2  0  0  0  0
 17 18  1  0  0  0  0
 17 42  1  0  0  0  0
 18 19  1  0  0  0  0
 19 20  1  0  0  0  0
 19 43  1  0  0  0  0
 19 44  1  0  0  0  0
 20 21  1  0  0  0  0
 20 23  1  0  0  0  0
 20 45  1  0  0  0  0
 21 22  1  0  0  0  0
 21 46  1  0  0  0  0
 21 47  1  0  0  0  0
 22 48  1  0  0  0  0
 23 27  1  0  0  0  0
 23 24  1  0  0  0  0
 23 49  1  0  0  0  0
 24 25  1  0  0  0  0
 24 50  1  0  0  0  0
 24 51  1  0  0  0  0
 25 26  1  0  0  0  0
 25 52  1  0  0  0  0
 25 53  1  0  0  0  0
 26 27  1  0  0  0  0
 27 54  1  0  0  0  0
 27 55  1  0  0  0  0
 28 56  1  0  0  0  0
 28 57  1  0  0  0  0
M  END
> <s_m_source_file>
AV-unprocessed.smi

> <i_m_source_file_index>
258

> <i_lp_mmshare_version>
43012

> <i_f3d_flags>
0

> <s_epik_input>
W09IXVtDSDJdW0NIMl1PW0NAQEhdMVtDSDJdW0NIMl1bQ0gyXU4oW0NIMl0xKWMobltjSF1uMiljKGMyMyluW2NIXW4zW0NIMl1bQ0BIXShbQ0gyXVtPSF0pW0NAQEhdNFtDSDJdW0NIMl1PW0NIMl00

> <s_epik_cmdline>
J2VwaWtfcHl0aG9uJywgJy1waCcsICc3LjAnLCAnLXRuJywgJzgnLCAnLW1hJywgJzIwMCcsICctbWV0YWxfYmluZGluZycsICctaW1hZScsICc8aW5maWxlLm1hZT4nLCAnLW9tYWUnLCAnPG91dGZpbGUubWFlPic=

> <r_lp_tautomer_probability>
1

> <r_epik_Ionization_Penalty>
0.00349036

> <r_epik_Ionization_Penalty_Charging>
0

> <r_epik_Ionization_Penalty_Neutral>
0.00349036

> <r_epik_State_Penalty>
0.00229798

> <r_epik_Charging_Adjusted_Penalty>
0.00229798

> <i_epik_Tot_Q>
0

> <i_epik_Tot_abs_Q>
0

> <r_epik_Metal_State_Penalty>
-0

> <b_epik_Metal_Only>
0

> <s_lp_Force_Field>
OPLS_2005

> <r_lp_Energy>
44.143

> <b_lp_Chiralities_Consistent>
1

> <s_lp_Variant>
AV-unprocessed.smi:258-6

> <Gold.Version>
5.8.1

> <Gold.Id.Protein>
6NUR|6NUR_protein|mol2

> <Gold.PLP.Fitness>
50.5957

> <Gold.PLP.PLP>
-46.8073

> <Gold.PLP.part.hbond>
-4.9182

> <Gold.PLP.part.metal>
0.0000

> <Gold.PLP.part.buried>
-6.9176

> <Gold.PLP.part.nonpolar>
-35.2243

> <Gold.PLP.part.repulsive>
0.1114

> <Gold.PLP.ligand.clash>
0.0000

> <Gold.PLP.ligand.torsion>
1.1918

> <Gold.PLP.Chemscore.Hbond>
1.8640

> <Gold.PLP.Chemscore.CHOScore>
0.0000

> <Gold.PLP.Chemscore.Metal>
0.0000

> <Gold.Chemscore.Hbonds>
donor molecule, donor type, donor heavy atom, donor atom, acceptor molecule, acceptor atom, score
      P1  H  6896  6908       L1    22  0.88
      P1  H  7997  8010       L1    11  1.00

> <Gold.PLP.Chemscore.Internal.Correction>
0.5801

> <Gold.Rescore>
     Score         DG    S(hbond)    S(metal)    S(lipo)     H(rot)  DE(clash)    DE(int)     intcor
     10.64     -12.00       1.65        0.00     101.11       4.22       0.01       1.35       ----

> <Gold.Chemscore.Fitness>
10.6392

> <Gold.Chemscore.DG>
-12.0021

> <Gold.Chemscore.ZeroCoef>
-5.4800

> <Gold.Chemscore.Hbond>
1.6489

> <Gold.Chemscore.Metal>
0.0000

> <Gold.Chemscore.Lipo>
101.1083

> <Gold.Chemscore.Internal_Hbond>
0.0000

> <Gold.Chemscore.DEClash>
0.0141

> <Gold.Chemscore.DEInternal>
1.3488

> <Gold.Chemscore.Rot>
4.2246

> <Gold.Chemscore.Internal.Correction>
   9.000000E+99

> <Gold.Chemscore.Hbonds>
donor molecule, donor type, donor heavy atom, donor atom, acceptor molecule, acceptor atom, score
      P1  H  6896  6908       L1    22  0.40
      P1  H  7997  8010       L1    11  0.30

> <Gold.Chemscore.Hbond.Weighted>
-5.5073

> <Gold.Chemscore.Metal.Weighted>
-0.0000

> <Gold.Chemscore.Lipo.Weighted>
-11.8297

> <Gold.Chemscore.Internal_Hbond.Weighted>
0.0000

> <Gold.Chemscore.DEClash.Weighted>
0.0141

> <Gold.Chemscore.DEInternal.Weighted>
1.3488

> <Gold.Chemscore.Rot.Weighted>
10.8149

> <Gold.Chemscore.Internal.Correction.Weighted>
   9.000000E+99

> <Gold.Protein.RotatedTorsions>
[ 6907 6896 6895 6894 ] final   72.85 input  -60.11 | X-H torsion
[ 7974 7965 7964 7962 ] final  119.37 input  175.53 | X-H torsion
[ 8008 7997 7996 7995 ] final   82.79 input   59.86 | X-H torsion
[ 10167 10162 10161 10158 ] final   31.51 input  -65.29 | X-H torsion
[ 10718 10713 10712 10709 ] final  -65.94 input   66.30 | X-H torsion
[ 10763 10752 10751 10750 ] final  -86.07 input  -60.55 | X-H torsion
[ 11005 11000 10999 10996 ] final   12.60 input  -57.11 | X-H torsion

> <Gold.Protein.ActiveResidues>
 VAL166  LYS551  ARG553  GLY616  TRP617  ASP618  TYR619  PRO620  LYS621  CYS622 
 ASP623  PHE694  ASN695  SER759  ASP760  ASP761  ALA762  ILE779  LEU786  VAL792 
 PHE793  MET794  SER795  GLU796  ALA797  LYS798  CYS799  TRP800  GLU811  SER814 

> <Gold.Protein.RotatedAtoms>
  152.4891  134.4509  159.9573 H   0  0  0  0  0  0  0  0  0  0  0  0  # atno 6907 bound_to 6896
  151.4499  133.3614  159.2801 H   0  0  0  0  0  0  0  0  0  0  0  0  # atno 6908 bound_to 6896
  150.9028  134.8466  159.7432 H   0  0  0  0  0  0  0  0  0  0  0  0  # atno 6909 bound_to 6896
  145.1439  139.3251  143.4601 H   0  0  0  0  0  0  0  0  0  0  0  0  # atno 7974 bound_to 7965
  155.9153  140.3425  155.6130 H   0  0  0  0  0  0  0  0  0  0  0  0  # atno 8008 bound_to 7997
  155.7338  140.0799  157.2295 H   0  0  0  0  0  0  0  0  0  0  0  0  # atno 8009 bound_to 7997
  154.4061  140.1583  156.2526 H   0  0  0  0  0  0  0  0  0  0  0  0  # atno 8010 bound_to 7997
  140.4582  144.0947  150.6206 H   0  0  0  0  0  0  0  0  0  0  0  0  # atno 10167 bound_to 10162
  156.0640  130.4254  150.1637 H   0  0  0  0  0  0  0  0  0  0  0  0  # atno 10718 bound_to 10713
  154.6183  135.5462  153.7547 H   0  0  0  0  0  0  0  0  0  0  0  0  # atno 10763 bound_to 10752
  153.0226  135.6406  154.1478 H   0  0  0  0  0  0  0  0  0  0  0  0  # atno 10764 bound_to 10752
  154.1413  135.2908  155.3140 H   0  0  0  0  0  0  0  0  0  0  0  0  # atno 10765 bound_to 10752
  140.4902  134.0848  155.7769 H   0  0  0  0  0  0  0  0  0  0  0  0  # atno 11005 bound_to 11000
  146.3502  140.1487  142.8593 LP  0  0  0  0  0  0  0  0  0  0  0  0  # atno 17320 bound_to 7965
  145.0502  140.9012  143.5000 LP  0  0  0  0  0  0  0  0  0  0  0  0  # atno 17321 bound_to 7965
  140.4126  143.2650  151.9814 LP  0  0  0  0  0  0  0  0  0  0  0  0  # atno 17342 bound_to 10162
  139.4803  144.5902  151.7784 LP  0  0  0  0  0  0  0  0  0  0  0  0  # atno 17343 bound_to 10162
  156.9700  130.9831  151.3461 LP  0  0  0  0  0  0  0  0  0  0  0  0  # atno 17370 bound_to 10713
  157.5670  130.8284  149.8340 LP  0  0  0  0  0  0  0  0  0  0  0  0  # atno 17371 bound_to 10713
  141.1488  133.9007  157.2150 LP  0  0  0  0  0  0  0  0  0  0  0  0  # atno 17394 bound_to 11000
  139.9774  135.0109  156.9665 LP  0  0  0  0  0  0  0  0  0  0  0  0  # atno 17395 bound_to 11000

$$$$
