AV-unprocessed.smi:1916|AV-procd|sdf|7764|dock10
  -GOLD-   22720 9513D 1   1.00000     0.00000
 Structure written by MMmdl.
 45 47  0  0  0  0  0  0  0  0  1 V2000
  147.0602  139.0234  156.1572 O   0  0  0  0  0  0  0  0  0  0  0  0
  148.1432  139.3083  156.6698 C   0  0  0  0  0  0  0  0  0  0  0  0
  148.6402  138.6746  157.7438 N   0  0  0  0  0  0  0  0  0  0  0  0
  148.0291  137.5218  158.4022 C   0  0  0  0  0  0  0  0  0  0  0  0
  149.0140  136.7916  159.3387 C   0  0  0  0  0  0  0  0  0  0  0  0
  148.3751  136.2643  160.6136 C   0  0  0  0  0  0  0  0  0  0  0  0
  148.2364  134.8760  160.8317 C   0  0  0  0  0  0  0  0  0  0  0  0
  147.6003  134.4420  162.0108 C   0  0  0  0  0  0  0  0  0  0  0  0
  147.1319  135.4067  162.9231 C   0  0  0  0  0  0  0  0  0  0  0  0
  147.3275  136.7685  162.6175 C   0  0  0  0  0  0  0  0  0  0  0  0
  147.9379  137.1956  161.4909 N   0  0  0  0  0  0  0  0  0  0  0  0
  149.0240  140.4065  156.0538 C   0  0  2  0  0  0  0  0  0  0  0  0
  150.4314  139.8917  155.7032 C   0  0  0  0  0  0  0  0  0  0  0  0
  151.3280  140.5549  156.7361 C   0  0  0  0  0  0  0  0  0  0  0  0
  152.5138  140.2556  156.8691 O   0  0  0  0  0  0  0  0  0  0  0  0
  150.6559  141.4592  157.4626 N   0  0  0  0  0  0  0  0  0  0  0  0
  151.2165  142.2015  158.6044 C   0  0  0  0  0  0  0  0  0  0  0  0
  152.0802  143.4262  158.2393 C   0  0  0  0  0  0  0  0  0  0  0  0
  153.0558  143.5669  159.4035 C   0  0  0  0  0  0  0  0  0  0  0  0
  153.4005  142.1240  159.7627 C   0  0  0  0  0  0  0  0  0  0  0  0
  152.1186  141.3236  159.5014 C   0  0  0  0  0  0  0  0  0  0  0  0
  149.2627  141.5626  157.0457 C   0  0  0  0  0  0  0  0  0  0  0  0
  149.5352  138.9786  158.0992 H   0  0  0  0  0  0  0  0  0  0  0  0
  147.1735  137.8746  158.9781 H   0  0  0  0  0  0  0  0  0  0  0  0
  147.6283  136.8250  157.6639 H   0  0  0  0  0  0  0  0  0  0  0  0
  149.4759  135.9606  158.8043 H   0  0  0  0  0  0  0  0  0  0  0  0
  149.8289  137.4648  159.6075 H   0  0  0  0  0  0  0  0  0  0  0  0
  148.5935  134.1598  160.1065 H   0  0  0  0  0  0  0  0  0  0  0  0
  147.4675  133.3886  162.2082 H   0  0  0  0  0  0  0  0  0  0  0  0
  146.6354  135.1106  163.8353 H   0  0  0  0  0  0  0  0  0  0  0  0
  146.9831  137.5353  163.2955 H   0  0  0  0  0  0  0  0  0  0  0  0
  148.5378  140.7882  155.1544 H   0  0  0  0  0  0  0  0  0  0  0  0
  150.5281  138.8057  155.7469 H   0  0  0  0  0  0  0  0  0  0  0  0
  150.7302  140.2152  154.7056 H   0  0  0  0  0  0  0  0  0  0  0  0
  150.3826  142.5599  159.2110 H   0  0  0  0  0  0  0  0  0  0  0  0
  152.6695  143.2508  157.3392 H   0  0  0  0  0  0  0  0  0  0  0  0
  151.4853  144.3257  158.0775 H   0  0  0  0  0  0  0  0  0  0  0  0
  153.9356  144.1575  159.1462 H   0  0  0  0  0  0  0  0  0  0  0  0
  152.5600  144.0513  160.2458 H   0  0  0  0  0  0  0  0  0  0  0  0
  154.1935  141.7662  159.1043 H   0  0  0  0  0  0  0  0  0  0  0  0
  153.7544  142.0230  160.7891 H   0  0  0  0  0  0  0  0  0  0  0  0
  151.6061  141.1008  160.4380 H   0  0  0  0  0  0  0  0  0  0  0  0
  152.3653  140.3673  159.0377 H   0  0  0  0  0  0  0  0  0  0  0  0
  149.1025  142.5244  156.5567 H   0  0  0  0  0  0  0  0  0  0  0  0
  148.5931  141.5114  157.9051 H   0  0  0  0  0  0  0  0  0  0  0  0
  1  2  2  0  0  0  0
  2  3  1  0  0  0  0
  2 12  1  0  0  0  0
  3  4  1  0  0  0  0
  3 23  1  0  0  0  0
  4  5  1  0  0  0  0
  4 24  1  0  0  0  0
  4 25  1  0  0  0  0
  5  6  1  0  0  0  0
  5 26  1  0  0  0  0
  5 27  1  0  0  0  0
  6 11  1  0  0  0  0
  6  7  2  0  0  0  0
  7  8  1  0  0  0  0
  7 28  1  0  0  0  0
  8  9  2  0  0  0  0
  8 29  1  0  0  0  0
  9 10  1  0  0  0  0
  9 30  1  0  0  0  0
 10 11  2  0  0  0  0
 10 31  1  0  0  0  0
 12 22  1  0  0  0  0
 12 13  1  0  0  0  0
 12 32  1  0  0  0  0
 13 14  1  0  0  0  0
 13 33  1  0  0  0  0
 13 34  1  0  0  0  0
 14 15  2  0  0  0  0
 14 16  1  0  0  0  0
 16 17  1  0  0  0  0
 16 22  1  0  0  0  0
 17 21  1  0  0  0  0
 17 18  1  0  0  0  0
 17 35  1  0  0  0  0
 18 19  1  0  0  0  0
 18 36  1  0  0  0  0
 18 37  1  0  0  0  0
 19 20  1  0  0  0  0
 19 38  1  0  0  0  0
 19 39  1  0  0  0  0
 20 21  1  0  0  0  0
 20 40  1  0  0  0  0
 20 41  1  0  0  0  0
 21 42  1  0  0  0  0
 21 43  1  0  0  0  0
 22 44  1  0  0  0  0
 22 45  1  0  0  0  0
M  END
> <s_m_source_file>
AV-unprocessed.smi

> <i_m_source_file_index>
1916

> <i_lp_mmshare_version>
43012

> <i_f3d_flags>
0

> <s_epik_input>
W0NIMl0xW0NIMl1bQ0gyXVtDSDJdW0NIXTFOKFtDSDJdMilDKD1PKVtDSDJdW0NASF0yQyg9TylbTkhdW0NIMl1bQ0gyXWMzW2NIXVtjSF1bY0hdW2NIXW4z

> <s_epik_cmdline>
J2VwaWtfcHl0aG9uJywgJy1waCcsICc3LjAnLCAnLXRuJywgJzgnLCAnLW1hJywgJzIwMCcsICctbWV0YWxfYmluZGluZycsICctaW1hZScsICc8aW5maWxlLm1hZT4nLCAnLW9tYWUnLCAnPG91dGZpbGUubWFlPic=

> <r_epik_Ionization_Penalty>
0.0252359

> <r_epik_Ionization_Penalty_Charging>
0

> <r_epik_Ionization_Penalty_Neutral>
0.0252359

> <r_epik_State_Penalty>
0.020532

> <r_epik_Charging_Adjusted_Penalty>
0.020532

> <i_epik_Tot_Q>
0

> <i_epik_Tot_abs_Q>
0

> <r_epik_Metal_State_Penalty>
0.0196901

> <b_epik_Metal_Only>
0

> <s_lp_Force_Field>
OPLS_2005

> <r_lp_Energy>
33.617

> <b_lp_Chiralities_Consistent>
1

> <s_lp_Variant>
AV-unprocessed.smi:1916-1

> <Gold.Version>
5.8.1

> <Gold.Id.Protein>
6NUR|6NUR_protein|mol2

> <Gold.PLP.Fitness>
50.1150

> <Gold.PLP.PLP>
-43.5825

> <Gold.PLP.part.hbond>
-3.0000

> <Gold.PLP.part.metal>
0.0000

> <Gold.PLP.part.buried>
-3.4546

> <Gold.PLP.part.nonpolar>
-35.8006

> <Gold.PLP.part.repulsive>
0.0963

> <Gold.PLP.ligand.clash>
0.0000

> <Gold.PLP.ligand.torsion>
0.9436

> <Gold.PLP.Chemscore.Hbond>
2.7840

> <Gold.PLP.Chemscore.CHOScore>
0.0000

> <Gold.PLP.Chemscore.Metal>
0.0000

> <Gold.Chemscore.Hbonds>
donor molecule, donor type, donor heavy atom, donor atom, acceptor molecule, acceptor atom, score
      P1  H  6931  6943       L1    11  1.00
      P1  H  6934  6947       L1    11  0.64
      P1  H  7997  8008       L1    15  1.00

> <Gold.PLP.Chemscore.Internal.Correction>
0.0677

> <Gold.Rescore>
     Score         DG    S(hbond)    S(metal)    S(lipo)     H(rot)  DE(clash)    DE(int)     intcor
     19.27     -21.92       2.35        0.00     108.53       1.61       0.01       2.64       ----

> <Gold.Chemscore.Fitness>
19.2718

> <Gold.Chemscore.DG>
-21.9175

> <Gold.Chemscore.ZeroCoef>
-5.4800

> <Gold.Chemscore.Hbond>
2.3546

> <Gold.Chemscore.Metal>
0.0000

> <Gold.Chemscore.Lipo>
108.5253

> <Gold.Chemscore.Internal_Hbond>
0.0000

> <Gold.Chemscore.DEClash>
0.0073

> <Gold.Chemscore.DEInternal>
2.6384

> <Gold.Chemscore.Rot>
1.6110

> <Gold.Chemscore.Internal.Correction>
   9.000000E+99

> <Gold.Chemscore.Hbonds>
donor molecule, donor type, donor heavy atom, donor atom, acceptor molecule, acceptor atom, score
      P1  H  6931  6943       L1    11  0.55
      P1  H  6934  6947       L1    11  0.45
      P1  H  7997  8008       L1    15  0.95

> <Gold.Chemscore.Hbond.Weighted>
-7.8643

> <Gold.Chemscore.Metal.Weighted>
-0.0000

> <Gold.Chemscore.Lipo.Weighted>
-12.6975

> <Gold.Chemscore.Internal_Hbond.Weighted>
0.0000

> <Gold.Chemscore.DEClash.Weighted>
0.0073

> <Gold.Chemscore.DEInternal.Weighted>
2.6384

> <Gold.Chemscore.Rot.Weighted>
4.1243

> <Gold.Chemscore.Internal.Correction.Weighted>
   9.000000E+99

> <Gold.Protein.RotatedTorsions>
[ 6907 6896 6895 6894 ] final  111.47 input  -60.11 | X-H torsion
[ 7974 7965 7964 7962 ] final   -9.93 input  175.53 | X-H torsion
[ 8008 7997 7996 7995 ] final  -58.91 input   59.86 | X-H torsion
[ 10167 10162 10161 10158 ] final   61.20 input  -65.29 | X-H torsion
[ 10718 10713 10712 10709 ] final  -19.79 input   66.30 | X-H torsion
[ 10763 10752 10751 10750 ] final -141.55 input  -60.55 | X-H torsion
[ 11005 11000 10999 10996 ] final -151.02 input  -57.11 | X-H torsion

> <Gold.Protein.ActiveResidues>
 VAL166  LYS551  ARG553  GLY616  TRP617  ASP618  TYR619  PRO620  LYS621  CYS622 
 ASP623  PHE694  ASN695  SER759  ASP760  ASP761  ALA762  ILE779  LEU786  VAL792 
 PHE793  MET794  SER795  GLU796  ALA797  LYS798  CYS799  TRP800  GLU811  SER814 

> <Gold.Protein.RotatedAtoms>
  152.4968  133.8653  159.7270 H   0  0  0  0  0  0  0  0  0  0  0  0  # atno 6907 bound_to 6896
  150.9154  133.6937  159.2851 H   0  0  0  0  0  0  0  0  0  0  0  0  # atno 6908 bound_to 6896
  151.4332  135.1016  159.9701 H   0  0  0  0  0  0  0  0  0  0  0  0  # atno 6909 bound_to 6896
  146.2236  140.2689  142.8355 H   0  0  0  0  0  0  0  0  0  0  0  0  # atno 7974 bound_to 7965
  154.4329  140.1073  156.6032 H   0  0  0  0  0  0  0  0  0  0  0  0  # atno 8008 bound_to 7997
  155.5889  140.3492  155.4542 H   0  0  0  0  0  0  0  0  0  0  0  0  # atno 8009 bound_to 7997
  156.0261  140.1250  157.0296 H   0  0  0  0  0  0  0  0  0  0  0  0  # atno 8010 bound_to 7997
  140.1573  144.4404  150.6727 H   0  0  0  0  0  0  0  0  0  0  0  0  # atno 10167 bound_to 10162
  156.5408  130.4678  149.6499 H   0  0  0  0  0  0  0  0  0  0  0  0  # atno 10718 bound_to 10713
  154.8541  135.3521  154.5885 H   0  0  0  0  0  0  0  0  0  0  0  0  # atno 10763 bound_to 10752
  153.6495  135.6994  153.5218 H   0  0  0  0  0  0  0  0  0  0  0  0  # atno 10764 bound_to 10752
  153.2905  135.4236  155.1121 H   0  0  0  0  0  0  0  0  0  0  0  0  # atno 10765 bound_to 10752
  140.7341  134.3588  157.5161 H   0  0  0  0  0  0  0  0  0  0  0  0  # atno 11005 bound_to 11000
  144.9283  140.7946  143.5705 LP  0  0  0  0  0  0  0  0  0  0  0  0  # atno 17320 bound_to 7965
  145.2631  139.1984  143.4881 LP  0  0  0  0  0  0  0  0  0  0  0  0  # atno 17321 bound_to 7965
  140.6665  143.2270  151.5730 LP  0  0  0  0  0  0  0  0  0  0  0  0  # atno 17342 bound_to 10162
  139.5397  144.2681  152.1326 LP  0  0  0  0  0  0  0  0  0  0  0  0  # atno 17343 bound_to 10162
  156.2973  130.7157  151.2020 LP  0  0  0  0  0  0  0  0  0  0  0  0  # atno 17370 bound_to 10713
  157.7405  131.0515  150.5158 LP  0  0  0  0  0  0  0  0  0  0  0  0  # atno 17371 bound_to 10713
  139.8820  134.9037  156.2862 LP  0  0  0  0  0  0  0  0  0  0  0  0  # atno 17394 bound_to 11000
  140.9895  133.7217  156.0793 LP  0  0  0  0  0  0  0  0  0  0  0  0  # atno 17395 bound_to 11000

$$$$
