AV-unprocessed.smi:1475|AV-procd|sdf|5979|dock3
  -GOLD-   22720 6 73D 1   1.00000     0.00000
 Structure written by MMmdl.
 50 51  0  0  0  0  0  0  0  0  2 V2000
  153.9862  140.8484  160.6674 C   0  0  0  0  0  0  0  0  0  0  0  0
  153.2382  142.0292  160.1220 C   0  0  0  0  0  0  0  0  0  0  0  0
  152.8783  143.2314  160.7928 C   0  0  0  0  0  0  0  0  0  0  0  0
  152.2148  143.9608  159.8469 C   0  0  0  0  0  0  0  0  0  0  0  0
  151.5900  145.3143  159.9406 C   0  0  0  0  0  0  0  0  0  0  0  0
  152.2003  143.2001  158.6904 N   0  0  0  0  0  0  0  0  0  0  0  0
  151.6147  143.5072  157.3917 C   0  0  0  0  0  0  0  0  0  0  0  0
  150.9975  142.2749  156.7195 C   0  0  0  0  0  0  0  0  0  0  0  0
  151.4620  141.1583  156.9455 O   0  0  0  0  0  0  0  0  0  0  0  0
  149.9661  142.4816  155.8862 N   0  0  0  0  0  0  0  0  0  0  0  0
  149.2508  141.4295  155.1796 C   0  0  0  0  0  0  0  0  0  0  0  0
  148.1015  140.8921  156.0470 C   0  0  0  0  0  0  0  0  0  0  0  0
  146.8874  140.5740  155.2484 N   0  3  1  0  0  0  0  0  0  0  0  0
  145.7043  140.2322  156.0810 C   0  0  0  0  0  0  0  0  0  0  0  0
  145.0704  141.4799  156.7314 C   0  0  2  0  0  0  0  0  0  0  0  0
  143.8529  141.1068  157.5890 C   0  0  0  0  0  0  0  0  0  0  0  0
  144.6990  142.5076  155.6480 C   0  0  0  0  0  0  0  0  0  0  0  0
  145.9185  142.8563  154.7765 C   0  0  2  0  0  0  0  0  0  0  0  0
  145.5446  143.8458  153.6641 C   0  0  0  0  0  0  0  0  0  0  0  0
  146.5488  141.5710  154.1957 C   0  0  0  0  0  0  0  0  0  0  0  0
  152.8281  142.0164  158.8646 N   0  0  0  0  0  0  0  0  0  0  0  0
  154.4567  141.0871  161.6213 H   0  0  0  0  0  0  0  0  0  0  0  0
  154.7716  140.5268  159.9827 H   0  0  0  0  0  0  0  0  0  0  0  0
  153.3175  140.0028  160.8286 H   0  0  0  0  0  0  0  0  0  0  0  0
  153.0784  143.5157  161.8154 H   0  0  0  0  0  0  0  0  0  0  0  0
  151.6830  145.7165  160.9497 H   0  0  0  0  0  0  0  0  0  0  0  0
  150.5291  145.2724  159.6933 H   0  0  0  0  0  0  0  0  0  0  0  0
  152.0720  146.0130  159.2568 H   0  0  0  0  0  0  0  0  0  0  0  0
  150.8502  144.2751  157.5093 H   0  0  0  0  0  0  0  0  0  0  0  0
  152.3888  143.9298  156.7491 H   0  0  0  0  0  0  0  0  0  0  0  0
  149.6463  143.4301  155.7529 H   0  0  0  0  0  0  0  0  0  0  0  0
  148.8807  141.8409  154.2408 H   0  0  0  0  0  0  0  0  0  0  0  0
  149.9387  140.6192  154.9312 H   0  0  0  0  0  0  0  0  0  0  0  0
  148.4510  139.9811  156.5353 H   0  0  0  0  0  0  0  0  0  0  0  0
  147.8664  141.5927  156.8479 H   0  0  0  0  0  0  0  0  0  0  0  0
  144.9693  139.7393  155.4430 H   0  0  0  0  0  0  0  0  0  0  0  0
  145.9813  139.4997  156.8404 H   0  0  0  0  0  0  0  0  0  0  0  0
  145.8055  141.9357  157.3962 H   0  0  0  0  0  0  0  0  0  0  0  0
  143.0664  140.6516  156.9862 H   0  0  0  0  0  0  0  0  0  0  0  0
  143.4313  141.9867  158.0759 H   0  0  0  0  0  0  0  0  0  0  0  0
  144.1254  140.3978  158.3713 H   0  0  0  0  0  0  0  0  0  0  0  0
  143.9007  142.1082  155.0204 H   0  0  0  0  0  0  0  0  0  0  0  0
  144.3040  143.4119  156.1126 H   0  0  0  0  0  0  0  0  0  0  0  0
  146.6549  143.3532  155.4081 H   0  0  0  0  0  0  0  0  0  0  0  0
  144.8083  143.4188  152.9823 H   0  0  0  0  0  0  0  0  0  0  0  0
  146.4201  144.1247  153.0769 H   0  0  0  0  0  0  0  0  0  0  0  0
  145.1217  144.7613  154.0788 H   0  0  0  0  0  0  0  0  0  0  0  0
  147.4260  141.8135  153.5973 H   0  0  0  0  0  0  0  0  0  0  0  0
  145.8429  141.1030  153.5081 H   0  0  0  0  0  0  0  0  0  0  0  0
  147.1202  139.7218  154.7584 H   0  0  0  0  0  0  0  0  0  0  0  0
  1  2  1  0  0  0  0
  1 22  1  0  0  0  0
  1 23  1  0  0  0  0
  1 24  1  0  0  0  0
  2 21  2  0  0  0  0
  2  3  1  0  0  0  0
  3  4  2  0  0  0  0
  3 25  1  0  0  0  0
  4  5  1  0  0  0  0
  4  6  1  0  0  0  0
  5 26  1  0  0  0  0
  5 27  1  0  0  0  0
  5 28  1  0  0  0  0
  6  7  1  0  0  0  0
  6 21  1  0  0  0  0
  7  8  1  0  0  0  0
  7 29  1  0  0  0  0
  7 30  1  0  0  0  0
  8  9  2  0  0  0  0
  8 10  1  0  0  0  0
 10 11  1  0  0  0  0
 10 31  1  0  0  0  0
 11 12  1  0  0  0  0
 11 32  1  0  0  0  0
 11 33  1  0  0  0  0
 12 13  1  0  0  0  0
 12 34  1  0  0  0  0
 12 35  1  0  0  0  0
 13 20  1  0  0  0  0
 13 14  1  0  0  0  0
 13 50  1  0  0  0  0
 14 15  1  0  0  0  0
 14 36  1  0  0  0  0
 14 37  1  0  0  0  0
 15 16  1  0  0  0  0
 15 17  1  0  0  0  0
 15 38  1  0  0  0  0
 16 39  1  0  0  0  0
 16 40  1  0  0  0  0
 16 41  1  0  0  0  0
 17 18  1  0  0  0  0
 17 42  1  0  0  0  0
 17 43  1  0  0  0  0
 18 19  1  0  0  0  0
 18 20  1  0  0  0  0
 18 44  1  0  0  0  0
 19 45  1  0  0  0  0
 19 46  1  0  0  0  0
 19 47  1  0  0  0  0
 20 48  1  0  0  0  0
 20 49  1  0  0  0  0
M  CHG  1  13   1
M  END
> <s_m_source_file>
AV-unprocessed.smi

> <i_m_source_file_index>
1475

> <i_lp_mmshare_version>
43012

> <i_f3d_flags>
0

> <s_epik_input>
W0NIM11jMVtjSF1jKFtDSDNdKW4objEpW0NIMl1DKD1PKVtOSF1bQ0gyXVtDSDJdTjJbQ0gyXVtDQEBIXShbQ0gzXSlbQ0gyXVtDQEBIXShbQ0gzXSlbQ0gyXTI=

> <s_epik_cmdline>
J2VwaWtfcHl0aG9uJywgJy1waCcsICc3LjAnLCAnLXRuJywgJzgnLCAnLW1hJywgJzIwMCcsICctbWV0YWxfYmluZGluZycsICctaW1hZScsICc8aW5maWxlLm1hZT4nLCAnLW9tYWUnLCAnPG91dGZpbGUubWFlPic=

> <r_lp_tautomer_probability>
1

> <r_epik_Ionization_Penalty>
0.00206431

> <r_epik_Ionization_Penalty_Charging>
0.00187095

> <r_epik_Ionization_Penalty_Neutral>
0.000193364

> <r_epik_State_Penalty>
-0

> <r_epik_Charging_Adjusted_Penalty>
0.00187095

> <i_epik_Tot_Q>
1

> <i_epik_Tot_abs_Q>
1

> <r_epik_Metal_State_Penalty>
-0

> <b_epik_Metal_Only>
0

> <s_lp_Force_Field>
OPLS_2005

> <r_lp_Energy>
18.0361

> <b_lp_Chiralities_Consistent>
1

> <s_lp_Variant>
AV-unprocessed.smi:1475-4

> <Gold.Version>
5.8.1

> <Gold.Id.Protein>
6NUR|6NUR_protein|mol2

> <Gold.PLP.Fitness>
45.4059

> <Gold.PLP.PLP>
-44.8408

> <Gold.PLP.part.hbond>
-0.9736

> <Gold.PLP.part.metal>
0.0000

> <Gold.PLP.part.buried>
-7.0759

> <Gold.PLP.part.nonpolar>
-37.5894

> <Gold.PLP.part.repulsive>
0.1707

> <Gold.PLP.ligand.clash>
0.0000

> <Gold.PLP.ligand.torsion>
1.2437

> <Gold.PLP.Chemscore.Hbond>
1.0000

> <Gold.PLP.Chemscore.CHOScore>
0.0000

> <Gold.PLP.Chemscore.Metal>
0.0000

> <Gold.Chemscore.Hbonds>
donor molecule, donor type, donor heavy atom, donor atom, acceptor molecule, acceptor atom, score
      L1  H    10    31       P1  8028  0.93

> <Gold.PLP.Chemscore.Internal.Correction>
0.0526

> <Gold.Rescore>
     Score         DG    S(hbond)    S(metal)    S(lipo)     H(rot)  DE(clash)    DE(int)     intcor
     13.63     -16.78       0.99        0.00     104.20       1.64       0.07       3.08       ----

> <Gold.Chemscore.Fitness>
13.6304

> <Gold.Chemscore.DG>
-16.7839

> <Gold.Chemscore.ZeroCoef>
-5.4800

> <Gold.Chemscore.Hbond>
0.9913

> <Gold.Chemscore.Metal>
0.0000

> <Gold.Chemscore.Lipo>
104.1988

> <Gold.Chemscore.Internal_Hbond>
0.0000

> <Gold.Chemscore.DEClash>
0.0726

> <Gold.Chemscore.DEInternal>
3.0809

> <Gold.Chemscore.Rot>
1.6399

> <Gold.Chemscore.Internal.Correction>
   9.000000E+99

> <Gold.Chemscore.Hbonds>
donor molecule, donor type, donor heavy atom, donor atom, acceptor molecule, acceptor atom, score
      L1  H    10    31       P1  8028  0.89

> <Gold.Chemscore.Hbond.Weighted>
-3.3108

> <Gold.Chemscore.Metal.Weighted>
-0.0000

> <Gold.Chemscore.Lipo.Weighted>
-12.1913

> <Gold.Chemscore.Internal_Hbond.Weighted>
0.0000

> <Gold.Chemscore.DEClash.Weighted>
0.0726

> <Gold.Chemscore.DEInternal.Weighted>
3.0809

> <Gold.Chemscore.Rot.Weighted>
4.1982

> <Gold.Chemscore.Internal.Correction.Weighted>
   9.000000E+99

> <Gold.Protein.RotatedTorsions>
[ 6907 6896 6895 6894 ] final  -57.60 input  -60.11 | X-H torsion
[ 7974 7965 7964 7962 ] final   81.47 input  175.53 | X-H torsion
[ 8008 7997 7996 7995 ] final   56.88 input   59.86 | X-H torsion
[ 10167 10162 10161 10158 ] final  -82.03 input  -65.29 | X-H torsion
[ 10718 10713 10712 10709 ] final -160.85 input   66.30 | X-H torsion
[ 10763 10752 10751 10750 ] final  178.34 input  -60.55 | X-H torsion
[ 11005 11000 10999 10996 ] final -163.20 input  -57.11 | X-H torsion

> <Gold.Protein.ActiveResidues>
 VAL166  LYS551  ARG553  GLY616  TRP617  ASP618  TYR619  PRO620  LYS621  CYS622 
 ASP623  PHE694  ASN695  SER759  ASP760  ASP761  ALA762  ILE779  LEU786  VAL792 
 PHE793  MET794  SER795  GLU796  ALA797  LYS798  CYS799  TRP800  GLU811  SER814 

> <Gold.Protein.RotatedAtoms>
  150.8073  134.7206  159.6655 H   0  0  0  0  0  0  0  0  0  0  0  0  # atno 6907 bound_to 6896
  152.4193  134.5981  160.0002 H   0  0  0  0  0  0  0  0  0  0  0  0  # atno 6908 bound_to 6896
  151.6201  133.3302  159.3122 H   0  0  0  0  0  0  0  0  0  0  0  0  # atno 6909 bound_to 6896
  145.6377  139.2418  143.2048 H   0  0  0  0  0  0  0  0  0  0  0  0  # atno 7974 bound_to 7965
  155.5246  140.3480  155.4414 H   0  0  0  0  0  0  0  0  0  0  0  0  # atno 8008 bound_to 7997
  156.0761  140.1375  156.9797 H   0  0  0  0  0  0  0  0  0  0  0  0  # atno 8009 bound_to 7997
  154.4554  140.0956  156.6716 H   0  0  0  0  0  0  0  0  0  0  0  0  # atno 8010 bound_to 7997
  140.4357  143.2532  151.8697 H   0  0  0  0  0  0  0  0  0  0  0  0  # atno 10167 bound_to 10162
  156.5879  130.8757  151.2882 H   0  0  0  0  0  0  0  0  0  0  0  0  # atno 10718 bound_to 10713
  154.5064  135.2786  155.1379 H   0  0  0  0  0  0  0  0  0  0  0  0  # atno 10763 bound_to 10752
  154.2992  135.6251  153.5421 H   0  0  0  0  0  0  0  0  0  0  0  0  # atno 10764 bound_to 10752
  152.9911  135.5692  154.5519 H   0  0  0  0  0  0  0  0  0  0  0  0  # atno 10765 bound_to 10752
  140.6007  134.4950  157.5205 H   0  0  0  0  0  0  0  0  0  0  0  0  # atno 11005 bound_to 11000
  146.1306  140.7191  142.9414 LP  0  0  0  0  0  0  0  0  0  0  0  0  # atno 17320 bound_to 7965
  144.7169  140.4241  143.7037 LP  0  0  0  0  0  0  0  0  0  0  0  0  # atno 17321 bound_to 7965
  139.4787  144.5285  151.8700 LP  0  0  0  0  0  0  0  0  0  0  0  0  # atno 17342 bound_to 10162
  140.4376  144.2030  150.5890 LP  0  0  0  0  0  0  0  0  0  0  0  0  # atno 17343 bound_to 10162
  157.7311  130.9695  150.1862 LP  0  0  0  0  0  0  0  0  0  0  0  0  # atno 17370 bound_to 10713
  156.2575  130.3707  149.8166 LP  0  0  0  0  0  0  0  0  0  0  0  0  # atno 17371 bound_to 10713
  139.9233  134.8104  156.1143 LP  0  0  0  0  0  0  0  0  0  0  0  0  # atno 17394 bound_to 11000
  141.0874  133.6728  156.2465 LP  0  0  0  0  0  0  0  0  0  0  0  0  # atno 17395 bound_to 11000

$$$$
