AV-unprocessed.smi:2027|AV-procd|sdf|8212|dock8
  -GOLD-   2272010473D 1   1.00000     0.00000
 Structure written by MMmdl.
 50 52  0  0  0  0  0  0  0  0  2 V2000
  152.9243  143.0723  161.8801 C   0  0  0  0  0  0  0  0  0  0  0  0
  152.5668  142.4011  160.5654 C   0  0  0  0  0  0  0  0  0  0  0  0
  151.6545  143.0384  159.6945 C   0  0  0  0  0  0  0  0  0  0  0  0
  151.2988  142.4499  158.4615 C   0  0  0  0  0  0  0  0  0  0  0  0
  150.4402  142.8905  157.4691 N   0  0  0  0  0  0  0  0  0  0  0  0
  150.5352  141.9096  156.5765 C   0  0  0  0  0  0  0  0  0  0  0  0
  151.3497  140.8795  156.8771 N   0  0  0  0  0  0  0  0  0  0  0  0
  151.6135  139.7040  156.0667 C   0  0  0  0  0  0  0  0  0  0  0  0
  150.4012  139.2948  155.2087 C   0  0  1  0  0  0  0  0  0  0  0  0
  150.5073  139.8942  153.9315 O   0  0  0  0  0  0  0  0  0  0  0  0
  150.3194  137.7658  155.0297 C   0  0  0  0  0  0  0  0  0  0  0  0
  150.4812  137.0396  156.3155 N   0  3  1  0  0  0  0  0  0  0  0  0
  149.1756  136.6822  156.9198 C   0  0  0  0  0  0  0  0  0  0  0  0
  151.4045  135.8794  156.2164 C   0  0  0  0  0  0  0  0  0  0  0  0
  150.7465  134.7118  155.5329 C   0  0  0  0  0  0  0  0  0  0  0  0
  150.7997  133.3397  155.9112 C   0  0  0  0  0  0  0  0  0  0  0  0
  150.1045  132.5566  155.1033 N   0  0  0  0  0  0  0  0  0  0  0  0
  149.5925  133.3952  154.1794 N   0  0  0  0  0  0  0  0  0  0  0  0
  148.7595  132.8681  153.1197 C   0  0  0  0  0  0  0  0  0  0  0  0
  149.9652  134.7015  154.4113 C   0  0  0  0  0  0  0  0  0  0  0  0
  151.8848  141.1957  158.1211 C   0  0  0  0  0  0  0  0  0  0  0  0
  152.7931  140.5510  158.9791 C   0  0  0  0  0  0  0  0  0  0  0  0
  153.1378  141.1533  160.2074 C   0  0  0  0  0  0  0  0  0  0  0  0
  154.1201  140.4503  161.1275 C   0  0  0  0  0  0  0  0  0  0  0  0
  152.4024  144.0225  161.9972 H   0  0  0  0  0  0  0  0  0  0  0  0
  153.9950  143.2717  161.9285 H   0  0  0  0  0  0  0  0  0  0  0  0
  152.6516  142.4353  162.7217 H   0  0  0  0  0  0  0  0  0  0  0  0
  151.2200  143.9893  159.9665 H   0  0  0  0  0  0  0  0  0  0  0  0
  149.9772  141.9398  155.6518 H   0  0  0  0  0  0  0  0  0  0  0  0
  152.4804  139.9025  155.4344 H   0  0  0  0  0  0  0  0  0  0  0  0
  151.8945  138.8891  156.7348 H   0  0  0  0  0  0  0  0  0  0  0  0
  149.4953  139.6719  155.6826 H   0  0  0  0  0  0  0  0  0  0  0  0
  149.7884  139.5914  153.3966 H   0  0  0  0  0  0  0  0  0  0  0  0
  149.3543  137.5238  154.5806 H   0  0  0  0  0  0  0  0  0  0  0  0
  151.0751  137.4179  154.3236 H   0  0  0  0  0  0  0  0  0  0  0  0
  148.6382  135.9683  156.2943 H   0  0  0  0  0  0  0  0  0  0  0  0
  148.5507  137.5675  157.0421 H   0  0  0  0  0  0  0  0  0  0  0  0
  149.3025  136.2422  157.9090 H   0  0  0  0  0  0  0  0  0  0  0  0
  152.3126  136.1865  155.6953 H   0  0  0  0  0  0  0  0  0  0  0  0
  151.7293  135.5773  157.2115 H   0  0  0  0  0  0  0  0  0  0  0  0
  151.3161  132.8940  156.7487 H   0  0  0  0  0  0  0  0  0  0  0  0
  148.5822  133.6362  152.3663 H   0  0  0  0  0  0  0  0  0  0  0  0
  147.8022  132.5460  153.5309 H   0  0  0  0  0  0  0  0  0  0  0  0
  149.2517  132.0171  152.6474 H   0  0  0  0  0  0  0  0  0  0  0  0
  149.6434  135.5080  153.7687 H   0  0  0  0  0  0  0  0  0  0  0  0
  153.2219  139.6017  158.6938 H   0  0  0  0  0  0  0  0  0  0  0  0
  154.4627  139.5080  160.6990 H   0  0  0  0  0  0  0  0  0  0  0  0
  153.6539  140.2309  162.0884 H   0  0  0  0  0  0  0  0  0  0  0  0
  154.9957  141.0761  161.3018 H   0  0  0  0  0  0  0  0  0  0  0  0
  150.9098  137.7021  156.9467 H   0  0  0  0  0  0  0  0  0  0  0  0
  1  2  1  0  0  0  0
  1 25  1  0  0  0  0
  1 26  1  0  0  0  0
  1 27  1  0  0  0  0
  2 23  1  0  0  0  0
  2  3  2  0  0  0  0
  3  4  1  0  0  0  0
  3 28  1  0  0  0  0
  4 21  2  0  0  0  0
  4  5  1  0  0  0  0
  5  6  2  0  0  0  0
  6  7  1  0  0  0  0
  6 29  1  0  0  0  0
  7  8  1  0  0  0  0
  7 21  1  0  0  0  0
  8  9  1  0  0  0  0
  8 30  1  0  0  0  0
  8 31  1  0  0  0  0
  9 10  1  0  0  0  0
  9 11  1  0  0  0  0
  9 32  1  0  0  0  0
 10 33  1  0  0  0  0
 11 12  1  0  0  0  0
 11 34  1  0  0  0  0
 11 35  1  0  0  0  0
 12 13  1  0  0  0  0
 12 14  1  0  0  0  0
 12 50  1  0  0  0  0
 13 36  1  0  0  0  0
 13 37  1  0  0  0  0
 13 38  1  0  0  0  0
 14 15  1  0  0  0  0
 14 39  1  0  0  0  0
 14 40  1  0  0  0  0
 15 20  2  0  0  0  0
 15 16  1  0  0  0  0
 16 17  2  0  0  0  0
 16 41  1  0  0  0  0
 17 18  1  0  0  0  0
 18 19  1  0  0  0  0
 18 20  1  0  0  0  0
 19 42  1  0  0  0  0
 19 43  1  0  0  0  0
 19 44  1  0  0  0  0
 20 45  1  0  0  0  0
 21 22  1  0  0  0  0
 22 23  2  0  0  0  0
 22 46  1  0  0  0  0
 23 24  1  0  0  0  0
 24 47  1  0  0  0  0
 24 48  1  0  0  0  0
 24 49  1  0  0  0  0
M  CHG  1  12   1
M  END
> <s_m_source_file>
AV-unprocessed.smi

> <i_m_source_file_index>
2027

> <i_lp_mmshare_version>
43012

> <i_f3d_flags>
0

> <s_epik_input>
W0NIM11jKFtjSF0xKWMoW0NIM10pW2NIXWMoYzEyKW4oW2NIXW4yKVtDSDJdW0NASF0oW09IXSlbQ0gyXU4oW0NIM10pW0NIMl1jM1tjSF1ubihbQ0gzXSlbY0hdMw==

> <s_epik_cmdline>
J2VwaWtfcHl0aG9uJywgJy1waCcsICc3LjAnLCAnLXRuJywgJzgnLCAnLW1hJywgJzIwMCcsICctbWV0YWxfYmluZGluZycsICctaW1hZScsICc8aW5maWxlLm1hZT4nLCAnLW9tYWUnLCAnPG91dGZpbGUubWFlPic=

> <r_lp_tautomer_probability>
1

> <r_epik_Ionization_Penalty>
0.646578

> <r_epik_Ionization_Penalty_Charging>
0.559419

> <r_epik_Ionization_Penalty_Neutral>
0.087159

> <r_epik_State_Penalty>
0.661677

> <r_epik_Charging_Adjusted_Penalty>
1.2211

> <i_epik_Tot_Q>
1

> <i_epik_Tot_abs_Q>
1

> <r_epik_Metal_State_Penalty>
0.649174

> <b_epik_Metal_Only>
0

> <s_lp_Force_Field>
OPLS_2005

> <r_lp_Energy>
9.42611

> <b_lp_Chiralities_Consistent>
1

> <s_lp_Variant>
AV-unprocessed.smi:2027-4

> <Gold.Version>
5.8.1

> <Gold.Id.Protein>
6NUR|6NUR_protein|mol2

> <Gold.PLP.Fitness>
49.3728

> <Gold.PLP.PLP>
-46.0668

> <Gold.PLP.part.hbond>
-1.8559

> <Gold.PLP.part.metal>
0.0000

> <Gold.PLP.part.buried>
-4.1997

> <Gold.PLP.part.nonpolar>
-40.9422

> <Gold.PLP.part.repulsive>
1.3557

> <Gold.PLP.ligand.clash>
0.0000

> <Gold.PLP.ligand.torsion>
1.7496

> <Gold.PLP.Chemscore.Hbond>
1.1950

> <Gold.PLP.Chemscore.CHOScore>
1.0000

> <Gold.PLP.Chemscore.Metal>
0.0000

> <Gold.Chemscore.Hbonds>
donor molecule, donor type, donor heavy atom, donor atom, acceptor molecule, acceptor atom, score
      L1  H    10    33       P1  7957  0.17
      P1  H  7989  7998       L1    10  1.00
      L1  C    20    45       P1  7948  0.84

> <Gold.PLP.Chemscore.Internal.Correction>
0.2202

> <Gold.Rescore>
     Score         DG    S(hbond)    S(metal)    S(lipo)     H(rot)  DE(clash)    DE(int)     intcor
     14.61     -16.35       1.08        0.00     116.88       2.50       0.17       1.57       ----

> <Gold.Chemscore.Fitness>
14.6072

> <Gold.Chemscore.DG>
-16.3459

> <Gold.Chemscore.ZeroCoef>
-5.4800

> <Gold.Chemscore.Hbond>
1.0789

> <Gold.Chemscore.Metal>
0.0000

> <Gold.Chemscore.Lipo>
116.8764

> <Gold.Chemscore.Internal_Hbond>
0.0000

> <Gold.Chemscore.DEClash>
0.1685

> <Gold.Chemscore.DEInternal>
1.5702

> <Gold.Chemscore.Rot>
2.5047

> <Gold.Chemscore.Internal.Correction>
   9.000000E+99

> <Gold.Chemscore.Hbonds>
donor molecule, donor type, donor heavy atom, donor atom, acceptor molecule, acceptor atom, score
      L1  H    10    33       P1  7957  0.17
      P1  H  7989  7998       L1    10  0.92

> <Gold.Chemscore.Hbond.Weighted>
-3.6034

> <Gold.Chemscore.Metal.Weighted>
-0.0000

> <Gold.Chemscore.Lipo.Weighted>
-13.6745

> <Gold.Chemscore.Internal_Hbond.Weighted>
0.0000

> <Gold.Chemscore.DEClash.Weighted>
0.1685

> <Gold.Chemscore.DEInternal.Weighted>
1.5702

> <Gold.Chemscore.Rot.Weighted>
6.4120

> <Gold.Chemscore.Internal.Correction.Weighted>
   9.000000E+99

> <Gold.Protein.RotatedTorsions>
[ 6907 6896 6895 6894 ] final -130.09 input  -60.11 | X-H torsion
[ 7974 7965 7964 7962 ] final -179.79 input  175.53 | X-H torsion
[ 8008 7997 7996 7995 ] final   31.85 input   59.86 | X-H torsion
[ 10167 10162 10161 10158 ] final  -50.67 input  -65.29 | X-H torsion
[ 10718 10713 10712 10709 ] final   85.24 input   66.30 | X-H torsion
[ 10763 10752 10751 10750 ] final  102.94 input  -60.55 | X-H torsion
[ 11005 11000 10999 10996 ] final   -6.09 input  -57.11 | X-H torsion

> <Gold.Protein.ActiveResidues>
 VAL166  LYS551  ARG553  GLY616  TRP617  ASP618  TYR619  PRO620  LYS621  CYS622 
 ASP623  PHE694  ASN695  SER759  ASP760  ASP761  ALA762  ILE779  LEU786  VAL792 
 PHE793  MET794  SER795  GLU796  ALA797  LYS798  CYS799  TRP800  GLU811  SER814 

> <Gold.Protein.RotatedAtoms>
  150.9359  133.6713  159.2800 H   0  0  0  0  0  0  0  0  0  0  0  0  # atno 6907 bound_to 6896
  151.4119  135.0985  159.9597 H   0  0  0  0  0  0  0  0  0  0  0  0  # atno 6908 bound_to 6896
  152.5047  133.8830  159.7410 H   0  0  0  0  0  0  0  0  0  0  0  0  # atno 6909 bound_to 6896
  144.7139  140.0664  143.6431 H   0  0  0  0  0  0  0  0  0  0  0  0  # atno 7974 bound_to 7965
  155.1130  140.3241  155.4517 H   0  0  0  0  0  0  0  0  0  0  0  0  # atno 8008 bound_to 7997
  156.2685  140.2041  156.6201 H   0  0  0  0  0  0  0  0  0  0  0  0  # atno 8009 bound_to 7997
  154.6742  140.0533  157.0184 H   0  0  0  0  0  0  0  0  0  0  0  0  # atno 8010 bound_to 7997
  140.6626  143.2649  151.4393 H   0  0  0  0  0  0  0  0  0  0  0  0  # atno 10167 bound_to 10162
  157.6911  131.0166  150.2792 H   0  0  0  0  0  0  0  0  0  0  0  0  # atno 10718 bound_to 10713
  153.3462  135.3993  155.1610 H   0  0  0  0  0  0  0  0  0  0  0  0  # atno 10763 bound_to 10752
  154.8653  135.3645  154.5282 H   0  0  0  0  0  0  0  0  0  0  0  0  # atno 10764 bound_to 10752
  153.5730  135.7078  153.5556 H   0  0  0  0  0  0  0  0  0  0  0  0  # atno 10765 bound_to 10752
  140.6983  133.9012  155.8665 H   0  0  0  0  0  0  0  0  0  0  0  0  # atno 11005 bound_to 11000
  145.9821  139.2949  143.1036 LP  0  0  0  0  0  0  0  0  0  0  0  0  # atno 17320 bound_to 7965
  145.8999  140.9249  143.0508 LP  0  0  0  0  0  0  0  0  0  0  0  0  # atno 17321 bound_to 7965
  139.5864  144.1594  152.2035 LP  0  0  0  0  0  0  0  0  0  0  0  0  # atno 17342 bound_to 10162
  140.0935  144.5600  150.7038 LP  0  0  0  0  0  0  0  0  0  0  0  0  # atno 17343 bound_to 10162
  156.3342  130.3805  149.7465 LP  0  0  0  0  0  0  0  0  0  0  0  0  # atno 17370 bound_to 10713
  156.4995  130.8122  151.3127 LP  0  0  0  0  0  0  0  0  0  0  0  0  # atno 17371 bound_to 10713
  141.0185  134.0922  157.4146 LP  0  0  0  0  0  0  0  0  0  0  0  0  # atno 17394 bound_to 11000
  139.8904  135.0111  156.6733 LP  0  0  0  0  0  0  0  0  0  0  0  0  # atno 17395 bound_to 11000

$$$$
