AV-unprocessed.smi:102|AV-procd|sdf|946|dock7
  -GOLD-   2262017473D 1   1.00000     0.00000
 Structure written by MMmdl.
 44 45  0  0  0  0  0  0  0  0  1 V2000
  148.0588  134.7437  160.1892 C   0  0  0  0  0  0  0  0  0  0  0  0
  148.6086  136.1624  160.1221 C   0  0  0  0  0  0  0  0  0  0  0  0
  148.0711  137.0893  160.7284 O   0  0  0  0  0  0  0  0  0  0  0  0
  149.7003  136.2534  159.3466 O   0  0  0  0  0  0  0  0  0  0  0  0
  150.5102  137.4163  159.4057 C   0  0  0  0  0  0  0  0  0  0  0  0
  151.8412  137.1449  158.6797 C   0  0  1  0  0  0  0  0  0  0  0  0
  151.5699  136.6830  157.3559 O   0  0  0  0  0  0  0  0  0  0  0  0
  151.6934  137.7138  156.4144 C   0  0  1  0  0  0  0  0  0  0  0  0
  150.3876  137.8851  155.6629 N   0  0  0  0  0  0  0  0  0  0  0  0
  149.1987  137.3013  156.0838 C   0  0  0  0  0  0  0  0  0  0  0  0
  148.0244  137.4702  155.4316 C   0  0  0  0  0  0  0  0  0  0  0  0
  146.9145  136.8751  155.9005 F   0  0  0  0  0  0  0  0  0  0  0  0
  147.9529  138.2889  154.2249 C   0  0  0  0  0  0  0  0  0  0  0  0
  146.9356  138.5042  153.5689 O   0  0  0  0  0  0  0  0  0  0  0  0
  149.1732  138.8459  153.8323 N   0  0  0  0  0  0  0  0  0  0  0  0
  150.3900  138.6796  154.4954 C   0  0  0  0  0  0  0  0  0  0  0  0
  151.4072  139.2220  154.0660 O   0  0  0  0  0  0  0  0  0  0  0  0
  152.1231  138.9869  157.1731 C   0  0  1  0  0  0  0  0  0  0  0  0
  150.9982  139.8233  157.4493 O   0  0  0  0  0  0  0  0  0  0  0  0
  150.6865  140.8519  156.6433 C   0  0  0  0  0  0  0  0  0  0  0  0
  149.4654  141.6184  157.1325 C   0  0  0  0  0  0  0  0  0  0  0  0
  151.2822  141.1797  155.6175 O   0  0  0  0  0  0  0  0  0  0  0  0
  152.7059  138.3859  158.4449 C   0  0  1  0  0  0  0  0  0  0  0  0
  152.7338  139.2819  159.5510 O   0  0  0  0  0  0  0  0  0  0  0  0
  153.7901  140.0923  159.7395 C   0  0  0  0  0  0  0  0  0  0  0  0
  153.4799  141.2377  160.6935 C   0  0  0  0  0  0  0  0  0  0  0  0
  154.8971  139.9734  159.2144 O   0  0  0  0  0  0  0  0  0  0  0  0
  149.1729  139.4187  153.0008 H   0  0  0  0  0  0  0  0  0  0  0  0
  148.0733  134.2818  159.2018 H   0  0  0  0  0  0  0  0  0  0  0  0
  147.0303  134.7495  160.5506 H   0  0  0  0  0  0  0  0  0  0  0  0
  148.6603  134.1368  160.8657 H   0  0  0  0  0  0  0  0  0  0  0  0
  149.9949  138.2686  158.9628 H   0  0  0  0  0  0  0  0  0  0  0  0
  150.6896  137.6552  160.4544 H   0  0  0  0  0  0  0  0  0  0  0  0
  152.4071  136.3933  159.2312 H   0  0  0  0  0  0  0  0  0  0  0  0
  152.4235  137.3956  155.6679 H   0  0  0  0  0  0  0  0  0  0  0  0
  149.1808  136.6794  156.9647 H   0  0  0  0  0  0  0  0  0  0  0  0
  152.8822  139.5090  156.5888 H   0  0  0  0  0  0  0  0  0  0  0  0
  149.4164  141.6077  158.2216 H   0  0  0  0  0  0  0  0  0  0  0  0
  148.5548  141.1649  156.7404 H   0  0  0  0  0  0  0  0  0  0  0  0
  149.5081  142.6554  156.7997 H   0  0  0  0  0  0  0  0  0  0  0  0
  153.7171  138.0370  158.2282 H   0  0  0  0  0  0  0  0  0  0  0  0
  152.9710  140.8663  161.5831 H   0  0  0  0  0  0  0  0  0  0  0  0
  152.8367  141.9699  160.2050 H   0  0  0  0  0  0  0  0  0  0  0  0
  154.3983  141.7367  161.0038 H   0  0  0  0  0  0  0  0  0  0  0  0
  1  2  1  0  0  0  0
  1 29  1  0  0  0  0
  1 30  1  0  0  0  0
  1 31  1  0  0  0  0
  2  3  2  0  0  0  0
  2  4  1  0  0  0  0
  4  5  1  0  0  0  0
  5  6  1  0  0  0  0
  5 32  1  0  0  0  0
  5 33  1  0  0  0  0
  6 23  1  0  0  0  0
  6  7  1  0  0  0  0
  6 34  1  0  0  0  0
  7  8  1  0  0  0  0
  8  9  1  0  0  0  0
  8 18  1  0  0  0  0
  8 35  1  0  0  0  0
  9 16  1  0  0  0  0
  9 10  1  0  0  0  0
 10 11  2  0  0  0  0
 10 36  1  0  0  0  0
 11 12  1  0  0  0  0
 11 13  1  0  0  0  0
 13 14  2  0  0  0  0
 13 15  1  0  0  0  0
 15 28  1  0  0  0  0
 15 16  1  0  0  0  0
 16 17  2  0  0  0  0
 18 19  1  0  0  0  0
 18 23  1  0  0  0  0
 18 37  1  0  0  0  0
 19 20  1  0  0  0  0
 20 21  1  0  0  0  0
 20 22  2  0  0  0  0
 21 38  1  0  0  0  0
 21 39  1  0  0  0  0
 21 40  1  0  0  0  0
 23 24  1  0  0  0  0
 23 41  1  0  0  0  0
 24 25  1  0  0  0  0
 25 26  1  0  0  0  0
 25 27  2  0  0  0  0
 26 42  1  0  0  0  0
 26 43  1  0  0  0  0
 26 44  1  0  0  0  0
M  END
> <s_m_source_file>
AV-unprocessed.smi

> <i_m_source_file_index>
102

> <i_lp_mmshare_version>
43012

> <i_f3d_flags>
0

> <s_epik_input>
W0NIM11DKD1PKU9bQ0gyXVtDQEBIXTFPW0NASF0oW0NAQEhdKE9DKD1PKVtDSDNdKVtDQEhdMU9DKD1PKVtDSDNdKW4yW2NIXWMoRiljKD1PKVtuSF1jMj1P

> <s_epik_cmdline>
J2VwaWtfcHl0aG9uJywgJy1waCcsICc3LjAnLCAnLXRuJywgJzgnLCAnLW1hJywgJzIwMCcsICctbWV0YWxfYmluZGluZycsICctaW1hZScsICc8aW5maWxlLm1hZT4nLCAnLW9tYWUnLCAnPG91dGZpbGUubWFlPic=

> <r_lp_tautomer_probability>
0.999537

> <r_epik_Ionization_Penalty>
0.058267

> <r_epik_Ionization_Penalty_Charging>
0.058267

> <r_epik_Ionization_Penalty_Neutral>
6.57791e-16

> <r_epik_State_Penalty>
0.0503774

> <r_epik_Charging_Adjusted_Penalty>
0.108644

> <i_epik_Tot_Q>
0

> <i_epik_Tot_abs_Q>
0

> <r_epik_Metal_State_Penalty>
2.6644

> <b_epik_Metal_Only>
0

> <s_epik_Chemistry_Notes>
This compound has an ester and may undergo hydrolysis at high or low pH. This compound contains an acetal/aminal-like group ( X-CH(R)-Y where X, Y are N, S, or O) that may be acid/base labile, releasing an aldehyde.

> <s_lp_Force_Field>
OPLS_2005

> <r_lp_Energy>
16.4745

> <b_lp_Chiralities_Consistent>
1

> <s_lp_Variant>
AV-unprocessed.smi:102-2

> <Gold.Version>
5.8.1

> <Gold.Id.Protein>
6NUR|6NUR_protein|mol2

> <Gold.PLP.Fitness>
38.0670

> <Gold.PLP.PLP>
-27.0755

> <Gold.PLP.part.hbond>
-7.4054

> <Gold.PLP.part.metal>
0.0000

> <Gold.PLP.part.buried>
1.7963

> <Gold.PLP.part.nonpolar>
-20.6212

> <Gold.PLP.part.repulsive>
0.4984

> <Gold.PLP.ligand.clash>
0.0000

> <Gold.PLP.ligand.torsion>
1.5003

> <Gold.PLP.Chemscore.Hbond>
4.6000

> <Gold.PLP.Chemscore.CHOScore>
0.0000

> <Gold.PLP.Chemscore.Metal>
0.0000

> <Gold.Chemscore.Hbonds>
donor molecule, donor type, donor heavy atom, donor atom, acceptor molecule, acceptor atom, score
      L1  H    15    28       P1  7957  1.00
      P1  H  6931  6943       L1     3  0.88
      P1  H  6934  6947       L1     3  0.56
      P1  H  7989  7998       L1    17  1.00
      P1  H  7997  8010       L1    27  1.00

> <Gold.PLP.Chemscore.Internal.Correction>
0.1921

> <Gold.Rescore>
     Score         DG    S(hbond)    S(metal)    S(lipo)     H(rot)  DE(clash)    DE(int)     intcor
      9.35     -14.78       4.53        0.00      38.92       4.05       2.56       2.88       ----

> <Gold.Chemscore.Fitness>
9.3452

> <Gold.Chemscore.DG>
-14.7827

> <Gold.Chemscore.ZeroCoef>
-5.4800

> <Gold.Chemscore.Hbond>
4.5277

> <Gold.Chemscore.Metal>
0.0000

> <Gold.Chemscore.Lipo>
38.9166

> <Gold.Chemscore.Internal_Hbond>
0.0000

> <Gold.Chemscore.DEClash>
2.5575

> <Gold.Chemscore.DEInternal>
2.8799

> <Gold.Chemscore.Rot>
4.0520

> <Gold.Chemscore.Internal.Correction>
   9.000000E+99

> <Gold.Chemscore.Hbonds>
donor molecule, donor type, donor heavy atom, donor atom, acceptor molecule, acceptor atom, score
      L1  H    15    28       P1  7957  0.97
      P1  H  6931  6943       L1     3  0.86
      P1  H  6934  6947       L1     3  0.55
      P1  H  7989  7998       L1    17  0.96
      P1  H  7997  8010       L1    27  0.96

> <Gold.Chemscore.Hbond.Weighted>
-15.1226

> <Gold.Chemscore.Metal.Weighted>
-0.0000

> <Gold.Chemscore.Lipo.Weighted>
-4.5532

> <Gold.Chemscore.Internal_Hbond.Weighted>
0.0000

> <Gold.Chemscore.DEClash.Weighted>
2.5575

> <Gold.Chemscore.DEInternal.Weighted>
2.8799

> <Gold.Chemscore.Rot.Weighted>
10.3732

> <Gold.Chemscore.Internal.Correction.Weighted>
   9.000000E+99

> <Gold.Protein.RotatedTorsions>
[ 6907 6896 6895 6894 ] final  159.19 input  -60.11 | X-H torsion
[ 7974 7965 7964 7962 ] final   24.31 input  175.53 | X-H torsion
[ 8008 7997 7996 7995 ] final   -3.44 input   59.86 | X-H torsion
[ 10167 10162 10161 10158 ] final   40.24 input  -65.29 | X-H torsion
[ 10718 10713 10712 10709 ] final   76.53 input   66.30 | X-H torsion
[ 10763 10752 10751 10750 ] final   48.82 input  -60.55 | X-H torsion
[ 11005 11000 10999 10996 ] final -142.00 input  -57.11 | X-H torsion

> <Gold.Protein.ActiveResidues>
 VAL166  LYS551  ARG553  GLY616  TRP617  ASP618  TYR619  PRO620  LYS621  CYS622 
 ASP623  PHE694  ASN695  SER759  ASP760  ASP761  ALA762  ILE779  LEU786  VAL792 
 PHE793  MET794  SER795  GLU796  ALA797  LYS798  CYS799  TRP800  GLU811  SER814 

> <Gold.Protein.RotatedAtoms>
  151.9893  133.3785  159.4137 H   0  0  0  0  0  0  0  0  0  0  0  0  # atno 6907 bound_to 6896
  150.6924  134.3954  159.5104 H   0  0  0  0  0  0  0  0  0  0  0  0  # atno 6908 bound_to 6896
  152.1685  134.8853  160.0587 H   0  0  0  0  0  0  0  0  0  0  0  0  # atno 6909 bound_to 6896
  146.1944  139.7623  142.8808 H   0  0  0  0  0  0  0  0  0  0  0  0  # atno 7974 bound_to 7965
  154.6249  140.2509  155.7504 H   0  0  0  0  0  0  0  0  0  0  0  0  # atno 8008 bound_to 7997
  156.2447  140.2919  156.0493 H   0  0  0  0  0  0  0  0  0  0  0  0  # atno 8009 bound_to 7997
  155.1838  140.0389  157.2877 H   0  0  0  0  0  0  0  0  0  0  0  0  # atno 8010 bound_to 7997
  140.3761  144.2041  150.6131 H   0  0  0  0  0  0  0  0  0  0  0  0  # atno 10167 bound_to 10162
  157.6677  130.9778  150.1510 H   0  0  0  0  0  0  0  0  0  0  0  0  # atno 10718 bound_to 10713
  152.9790  135.5932  154.3988 H   0  0  0  0  0  0  0  0  0  0  0  0  # atno 10763 bound_to 10752
  154.3636  135.2767  155.2308 H   0  0  0  0  0  0  0  0  0  0  0  0  # atno 10764 bound_to 10752
  154.4294  135.6040  153.6114 H   0  0  0  0  0  0  0  0  0  0  0  0  # atno 10765 bound_to 10752
  140.8269  134.2564  157.4875 H   0  0  0  0  0  0  0  0  0  0  0  0  # atno 11005 bound_to 11000
  145.3692  141.0339  143.3241 LP  0  0  0  0  0  0  0  0  0  0  0  0  # atno 17320 bound_to 7965
  144.8550  139.5264  143.6839 LP  0  0  0  0  0  0  0  0  0  0  0  0  # atno 17321 bound_to 7965
  140.4984  143.2325  151.8714 LP  0  0  0  0  0  0  0  0  0  0  0  0  # atno 17342 bound_to 10162
  139.4799  144.5087  151.8962 LP  0  0  0  0  0  0  0  0  0  0  0  0  # atno 17343 bound_to 10162
  156.2309  130.3682  149.8446 LP  0  0  0  0  0  0  0  0  0  0  0  0  # atno 17370 bound_to 10713
  156.6273  130.8651  151.3488 LP  0  0  0  0  0  0  0  0  0  0  0  0  # atno 17371 bound_to 10713
  139.8706  134.9565  156.4240 LP  0  0  0  0  0  0  0  0  0  0  0  0  # atno 17394 bound_to 11000
  140.9039  133.7759  155.9713 LP  0  0  0  0  0  0  0  0  0  0  0  0  # atno 17395 bound_to 11000

$$$$
