AV-unprocessed.smi:1285|AV-procd|sdf|5367|dock9
  -GOLD-   22720 4513D 1   1.00000     0.00000
 Structure written by MMmdl.
 46 47  0  0  0  0  0  0  0  0  1 V2000
  150.6751  132.4105  155.4490 C   0  0  0  0  0  0  0  0  0  0  0  0
  149.8032  132.8901  154.2739 C   0  0  0  0  0  0  0  0  0  0  0  0
  148.4640  133.5913  154.6679 C   0  0  1  0  0  0  0  0  0  0  0  0
  147.6772  132.5740  155.5378 C   0  0  0  0  0  0  0  0  0  0  0  0
  148.8035  134.8408  155.5448 C   0  0  0  0  0  0  0  0  0  0  0  0
  149.3547  135.9651  154.7878 N   0  0  0  0  0  0  0  0  0  0  0  0
  149.8889  137.0811  155.3099 C   0  0  0  0  0  0  0  0  0  0  0  0
  149.9737  137.2863  156.5212 O   0  0  0  0  0  0  0  0  0  0  0  0
  150.4115  138.1162  154.3025 C   0  0  2  0  0  0  0  0  0  0  0  0
  151.9339  138.3368  154.4171 C   0  0  0  0  0  0  0  0  0  0  0  0
  149.6572  139.3581  154.4206 N   0  0  0  0  0  0  0  0  0  0  0  0
  148.3399  139.5681  154.3656 C   0  0  0  0  0  0  0  0  0  0  0  0
  147.9859  140.8301  154.5641 N   0  0  0  0  0  0  0  0  0  0  0  0
  149.2189  141.3837  154.7629 C   0  0  0  0  0  0  0  0  0  0  0  0
  150.2525  140.5447  154.7000 N   0  0  0  0  0  0  0  0  0  0  0  0
  147.6739  133.9560  153.4577 N   0  0  0  0  0  0  0  0  0  0  0  0
  147.4059  132.8512  152.5290 C   0  0  0  0  0  0  0  0  0  0  0  0
  146.7168  133.3345  151.2412 C   0  0  0  0  0  0  0  0  0  0  0  0
  145.5137  134.0196  151.5680 O   0  0  0  0  0  0  0  0  0  0  0  0
  145.7382  135.1340  152.4229 C   0  0  0  0  0  0  0  0  0  0  0  0
  146.4137  134.6611  153.7211 C   0  0  0  0  0  0  0  0  0  0  0  0
  151.5781  131.9252  155.0789 H   0  0  0  0  0  0  0  0  0  0  0  0
  150.1527  131.6876  156.0756 H   0  0  0  0  0  0  0  0  0  0  0  0
  150.9906  133.2381  156.0836 H   0  0  0  0  0  0  0  0  0  0  0  0
  150.4143  133.5650  153.6736 H   0  0  0  0  0  0  0  0  0  0  0  0
  149.6077  132.0446  153.6144 H   0  0  0  0  0  0  0  0  0  0  0  0
  148.3100  132.1002  156.2886 H   0  0  0  0  0  0  0  0  0  0  0  0
  147.2450  131.7756  154.9339 H   0  0  0  0  0  0  0  0  0  0  0  0
  146.8598  133.0490  156.0810 H   0  0  0  0  0  0  0  0  0  0  0  0
  147.9041  135.2203  156.0290 H   0  0  0  0  0  0  0  0  0  0  0  0
  149.4837  134.5791  156.3554 H   0  0  0  0  0  0  0  0  0  0  0  0
  149.3299  135.8834  153.7819 H   0  0  0  0  0  0  0  0  0  0  0  0
  150.2213  137.7233  153.3021 H   0  0  0  0  0  0  0  0  0  0  0  0
  152.4771  137.4007  154.2822 H   0  0  0  0  0  0  0  0  0  0  0  0
  152.2196  138.7455  155.3873 H   0  0  0  0  0  0  0  0  0  0  0  0
  152.2841  139.0299  153.6517 H   0  0  0  0  0  0  0  0  0  0  0  0
  147.6245  138.7802  154.1807 H   0  0  0  0  0  0  0  0  0  0  0  0
  149.3584  142.4351  154.9667 H   0  0  0  0  0  0  0  0  0  0  0  0
  148.3285  132.3496  152.2422 H   0  0  0  0  0  0  0  0  0  0  0  0
  146.7719  132.1025  153.0033 H   0  0  0  0  0  0  0  0  0  0  0  0
  147.3764  133.9928  150.6735 H   0  0  0  0  0  0  0  0  0  0  0  0
  146.4800  132.4867  150.5983 H   0  0  0  0  0  0  0  0  0  0  0  0
  146.3565  135.8749  151.9137 H   0  0  0  0  0  0  0  0  0  0  0  0
  144.7836  135.6113  152.6443 H   0  0  0  0  0  0  0  0  0  0  0  0
  145.7213  134.0115  154.2567 H   0  0  0  0  0  0  0  0  0  0  0  0
  146.5773  135.5351  154.3486 H   0  0  0  0  0  0  0  0  0  0  0  0
  1  2  1  0  0  0  0
  1 22  1  0  0  0  0
  1 23  1  0  0  0  0
  1 24  1  0  0  0  0
  2  3  1  0  0  0  0
  2 25  1  0  0  0  0
  2 26  1  0  0  0  0
  3  4  1  0  0  0  0
  3  5  1  0  0  0  0
  3 16  1  0  0  0  0
  4 27  1  0  0  0  0
  4 28  1  0  0  0  0
  4 29  1  0  0  0  0
  5  6  1  0  0  0  0
  5 30  1  0  0  0  0
  5 31  1  0  0  0  0
  6  7  1  0  0  0  0
  6 32  1  0  0  0  0
  7  8  2  0  0  0  0
  7  9  1  0  0  0  0
  9 10  1  0  0  0  0
  9 11  1  0  0  0  0
  9 33  1  0  0  0  0
 10 34  1  0  0  0  0
 10 35  1  0  0  0  0
 10 36  1  0  0  0  0
 11 15  1  0  0  0  0
 11 12  1  0  0  0  0
 12 13  2  0  0  0  0
 12 37  1  0  0  0  0
 13 14  1  0  0  0  0
 14 15  2  0  0  0  0
 14 38  1  0  0  0  0
 16 21  1  0  0  0  0
 16 17  1  0  0  0  0
 17 18  1  0  0  0  0
 17 39  1  0  0  0  0
 17 40  1  0  0  0  0
 18 19  1  0  0  0  0
 18 41  1  0  0  0  0
 18 42  1  0  0  0  0
 19 20  1  0  0  0  0
 20 21  1  0  0  0  0
 20 43  1  0  0  0  0
 20 44  1  0  0  0  0
 21 45  1  0  0  0  0
 21 46  1  0  0  0  0
M  END
> <s_m_source_file>
AV-unprocessed.smi

> <i_m_source_file_index>
1285

> <i_lp_mmshare_version>
43012

> <i_f3d_flags>
0

> <s_epik_input>
W0NIMl0xW0NIMl1PW0NIMl1bQ0gyXU4xW0NAQF0oW0NIM10pKFtDSDJdW0NIM10pW0NIMl1bTkhdQyg9TylbQ0BIXShbQ0gzXSluMltjSF1uW2NIXW4y

> <s_epik_cmdline>
J2VwaWtfcHl0aG9uJywgJy1waCcsICc3LjAnLCAnLXRuJywgJzgnLCAnLW1hJywgJzIwMCcsICctbWV0YWxfYmluZGluZycsICctaW1hZScsICc8aW5maWxlLm1hZT4nLCAnLW9tYWUnLCAnPG91dGZpbGUubWFlPic=

> <r_lp_tautomer_probability>
1

> <r_epik_Ionization_Penalty>
0.285697

> <r_epik_Ionization_Penalty_Charging>
0

> <r_epik_Ionization_Penalty_Neutral>
0.285697

> <r_epik_State_Penalty>
0.278478

> <r_epik_Charging_Adjusted_Penalty>
0.278478

> <i_epik_Tot_Q>
0

> <i_epik_Tot_abs_Q>
0

> <r_epik_Metal_State_Penalty>
0.278477

> <b_epik_Metal_Only>
0

> <s_lp_Force_Field>
OPLS_2005

> <r_lp_Energy>
49.2775

> <b_lp_Chiralities_Consistent>
1

> <s_lp_Variant>
AV-unprocessed.smi:1285-1

> <Gold.Version>
5.8.1

> <Gold.Id.Protein>
6NUR|6NUR_protein|mol2

> <Gold.PLP.Fitness>
40.4982

> <Gold.PLP.PLP>
-31.7625

> <Gold.PLP.part.hbond>
-2.0000

> <Gold.PLP.part.metal>
0.0000

> <Gold.PLP.part.buried>
-4.7828

> <Gold.PLP.part.nonpolar>
-26.5055

> <Gold.PLP.part.repulsive>
1.4364

> <Gold.PLP.ligand.clash>
0.0000

> <Gold.PLP.ligand.torsion>
0.2236

> <Gold.PLP.Chemscore.Hbond>
2.0000

> <Gold.PLP.Chemscore.CHOScore>
1.0000

> <Gold.PLP.Chemscore.Metal>
0.0000

> <Gold.Chemscore.Hbonds>
donor molecule, donor type, donor heavy atom, donor atom, acceptor molecule, acceptor atom, score
      L1  H     6    32       P1  7948  1.00
      P1  H  7989  7998       L1    15  0.93
      L1  C    14    38       P1  8028  1.00

> <Gold.PLP.Chemscore.Internal.Correction>
0.1829

> <Gold.Rescore>
     Score         DG    S(hbond)    S(metal)    S(lipo)     H(rot)  DE(clash)    DE(int)     intcor
     10.69     -11.15       1.78        0.00      56.21       2.68       0.11       0.35       ----

> <Gold.Chemscore.Fitness>
10.6864

> <Gold.Chemscore.DG>
-11.1489

> <Gold.Chemscore.ZeroCoef>
-5.4800

> <Gold.Chemscore.Hbond>
1.7838

> <Gold.Chemscore.Metal>
0.0000

> <Gold.Chemscore.Lipo>
56.2140

> <Gold.Chemscore.Internal_Hbond>
0.0000

> <Gold.Chemscore.DEClash>
0.1120

> <Gold.Chemscore.DEInternal>
0.3505

> <Gold.Chemscore.Rot>
2.6821

> <Gold.Chemscore.Internal.Correction>
   9.000000E+99

> <Gold.Chemscore.Hbonds>
donor molecule, donor type, donor heavy atom, donor atom, acceptor molecule, acceptor atom, score
      L1  H     6    32       P1  7948  0.64
      P1  H  7989  7998       L1    15  0.69

> <Gold.Chemscore.Hbond.Weighted>
-5.9580

> <Gold.Chemscore.Metal.Weighted>
-0.0000

> <Gold.Chemscore.Lipo.Weighted>
-6.5770

> <Gold.Chemscore.Internal_Hbond.Weighted>
0.0000

> <Gold.Chemscore.DEClash.Weighted>
0.1120

> <Gold.Chemscore.DEInternal.Weighted>
0.3505

> <Gold.Chemscore.Rot.Weighted>
6.8661

> <Gold.Chemscore.Internal.Correction.Weighted>
   9.000000E+99

> <Gold.Protein.RotatedTorsions>
[ 6907 6896 6895 6894 ] final -125.84 input  -60.11 | X-H torsion
[ 7974 7965 7964 7962 ] final  -67.57 input  175.53 | X-H torsion
[ 8008 7997 7996 7995 ] final -157.27 input   59.86 | X-H torsion
[ 10167 10162 10161 10158 ] final  108.21 input  -65.29 | X-H torsion
[ 10718 10713 10712 10709 ] final -150.25 input   66.30 | X-H torsion
[ 10763 10752 10751 10750 ] final  -72.24 input  -60.55 | X-H torsion
[ 11005 11000 10999 10996 ] final -161.59 input  -57.11 | X-H torsion

> <Gold.Protein.ActiveResidues>
 VAL166  LYS551  ARG553  GLY616  TRP617  ASP618  TYR619  PRO620  LYS621  CYS622 
 ASP623  PHE694  ASN695  SER759  ASP760  ASP761  ALA762  ILE779  LEU786  VAL792 
 PHE793  MET794  SER795  GLU796  ALA797  LYS798  CYS799  TRP800  GLU811  SER814 

> <Gold.Protein.RotatedAtoms>
  150.8908  133.7246  159.2905 H   0  0  0  0  0  0  0  0  0  0  0  0  # atno 6907 bound_to 6896
  151.4797  135.1050  159.9784 H   0  0  0  0  0  0  0  0  0  0  0  0  # atno 6908 bound_to 6896
  152.4819  133.8228  159.7118 H   0  0  0  0  0  0  0  0  0  0  0  0  # atno 6909 bound_to 6896
  145.7274  140.9012  143.0598 H   0  0  0  0  0  0  0  0  0  0  0  0  # atno 7974 bound_to 7965
  155.7298  140.0800  157.2294 H   0  0  0  0  0  0  0  0  0  0  0  0  # atno 8008 bound_to 7997
  154.4034  140.1597  156.2551 H   0  0  0  0  0  0  0  0  0  0  0  0  # atno 8009 bound_to 7997
  155.9119  140.3403  155.6108 H   0  0  0  0  0  0  0  0  0  0  0  0  # atno 8010 bound_to 7997
  139.6865  144.7113  151.1424 H   0  0  0  0  0  0  0  0  0  0  0  0  # atno 10167 bound_to 10162
  156.4436  130.8134  151.2364 H   0  0  0  0  0  0  0  0  0  0  0  0  # atno 10718 bound_to 10713
  154.4429  135.5936  153.6141 H   0  0  0  0  0  0  0  0  0  0  0  0  # atno 10763 bound_to 10752
  152.9807  135.6002  154.3700 H   0  0  0  0  0  0  0  0  0  0  0  0  # atno 10764 bound_to 10752
  154.3552  135.2841  155.2329 H   0  0  0  0  0  0  0  0  0  0  0  0  # atno 10765 bound_to 10752
  140.6187  134.4773  157.5222 H   0  0  0  0  0  0  0  0  0  0  0  0  # atno 11005 bound_to 11000
  144.6901  139.9285  143.7471 LP  0  0  0  0  0  0  0  0  0  0  0  0  # atno 17320 bound_to 7965
  146.0569  139.3565  143.0605 LP  0  0  0  0  0  0  0  0  0  0  0  0  # atno 17321 bound_to 7965
  140.7669  143.5622  150.9086 LP  0  0  0  0  0  0  0  0  0  0  0  0  # atno 17342 bound_to 10162
  139.9297  143.6508  152.3079 LP  0  0  0  0  0  0  0  0  0  0  0  0  # atno 17343 bound_to 10162
  157.7505  131.0160  150.3527 LP  0  0  0  0  0  0  0  0  0  0  0  0  # atno 17370 bound_to 10713
  156.3890  130.3894  149.7044 LP  0  0  0  0  0  0  0  0  0  0  0  0  # atno 17371 bound_to 10713
  139.9162  134.8241  156.1358 LP  0  0  0  0  0  0  0  0  0  0  0  0  # atno 17394 bound_to 11000
  141.0758  133.6776  156.2233 LP  0  0  0  0  0  0  0  0  0  0  0  0  # atno 17395 bound_to 11000

$$$$
