AV-unprocessed.smi:281|AV-procd|sdf|2103|dock3
  -GOLD-   2262021393D 1   1.00000     0.00000
 Structure written by MMmdl.
 55 59  0  0  0  0  0  0  0  0  1 V2000
  147.2520  140.7674  153.4066 C   0  0  0  0  0  0  0  0  0  0  0  0
  148.0518  139.6891  154.1443 C   0  0  2  0  0  0  0  0  0  0  0  0
  147.2152  138.9934  155.2290 C   0  0  0  0  0  0  0  0  0  0  0  0
  148.0487  138.0548  155.9681 N   0  0  0  0  0  0  0  0  0  0  0  0
  147.3703  137.1523  156.7213 C   0  0  0  0  0  0  0  0  0  0  0  0
  146.2159  136.6063  156.2527 N   0  0  0  0  0  0  0  0  0  0  0  0
  145.5466  135.7102  156.9834 C   0  0  0  0  0  0  0  0  0  0  0  0
  145.8440  135.2302  158.1919 N   0  0  0  0  0  0  0  0  0  0  0  0
  146.9929  135.7836  158.6753 C   0  0  0  0  0  0  0  0  0  0  0  0
  147.8128  136.7388  158.0099 C   0  0  0  0  0  0  0  0  0  0  0  0
  148.8987  137.0689  158.8124 N   0  0  0  0  0  0  0  0  0  0  0  0
  148.7360  136.3427  159.8841 C   0  0  0  0  0  0  0  0  0  0  0  0
  147.6086  135.5526  159.8936 N   0  0  0  0  0  0  0  0  0  0  0  0
  147.1808  134.6542  160.9561 C   0  0  0  0  0  0  0  0  0  0  0  0
  146.6273  135.3726  162.2137 C   0  0  2  0  0  0  0  0  0  0  0  0
  146.5568  134.4520  163.2869 O   0  0  0  0  0  0  0  0  0  0  0  0
  145.2519  136.0159  162.0171 C   0  0  0  0  0  0  0  0  0  0  0  0
  145.5863  137.4831  161.7905 C   0  0  0  0  0  0  0  0  0  0  0  0
  146.6521  137.6931  162.6988 O   0  0  0  0  0  0  0  0  0  0  0  0
  147.5160  136.5664  162.6194 C   0  0  0  0  0  0  0  0  0  0  0  0
  149.2340  138.6804  156.5474 C   0  0  0  0  0  0  0  0  0  0  0  0
  150.0525  139.4336  155.4729 C   0  0  2  0  0  0  0  0  0  0  0  0
  150.8084  138.5032  154.5130 C   0  0  0  0  0  0  0  0  0  0  0  0
  152.2693  138.6448  154.9187 C   0  0  0  0  0  0  0  0  0  0  0  0
  152.3432  139.9967  155.3303 O   0  0  0  0  0  0  0  0  0  0  0  0
  151.1966  140.2430  156.1307 C   0  0  1  0  0  0  0  0  0  0  0  0
  150.9561  141.7524  156.2783 C   0  0  0  0  0  0  0  0  0  0  0  0
  149.1857  140.3142  154.7464 O   0  0  0  0  0  0  0  0  0  0  0  0
  146.3758  140.3407  152.9179 H   0  0  0  0  0  0  0  0  0  0  0  0
  147.8606  141.2457  152.6389 H   0  0  0  0  0  0  0  0  0  0  0  0
  146.9098  141.5432  154.0920 H   0  0  0  0  0  0  0  0  0  0  0  0
  148.3807  138.9492  153.4138 H   0  0  0  0  0  0  0  0  0  0  0  0
  146.8123  139.7307  155.9249 H   0  0  0  0  0  0  0  0  0  0  0  0
  146.3627  138.4963  154.7678 H   0  0  0  0  0  0  0  0  0  0  0  0
  144.6428  135.3237  156.5361 H   0  0  0  0  0  0  0  0  0  0  0  0
  149.4362  136.3697  160.7065 H   0  0  0  0  0  0  0  0  0  0  0  0
  146.4245  133.9832  160.5463 H   0  0  0  0  0  0  0  0  0  0  0  0
  148.0289  134.0244  161.2278 H   0  0  0  0  0  0  0  0  0  0  0  0
  145.8247  133.8734  163.1375 H   0  0  0  0  0  0  0  0  0  0  0  0
  144.6644  135.5927  161.2041 H   0  0  0  0  0  0  0  0  0  0  0  0
  144.6524  135.9328  162.9253 H   0  0  0  0  0  0  0  0  0  0  0  0
  145.9276  137.6567  160.7686 H   0  0  0  0  0  0  0  0  0  0  0  0
  144.7448  138.1453  161.9945 H   0  0  0  0  0  0  0  0  0  0  0  0
  148.0365  136.4173  163.5665 H   0  0  0  0  0  0  0  0  0  0  0  0
  148.2740  136.7696  161.8615 H   0  0  0  0  0  0  0  0  0  0  0  0
  148.9165  139.3793  157.3227 H   0  0  0  0  0  0  0  0  0  0  0  0
  149.8595  137.9274  157.0296 H   0  0  0  0  0  0  0  0  0  0  0  0
  150.4657  137.4685  154.5447 H   0  0  0  0  0  0  0  0  0  0  0  0
  150.7035  138.8536  153.4855 H   0  0  0  0  0  0  0  0  0  0  0  0
  152.5115  137.9875  155.7554 H   0  0  0  0  0  0  0  0  0  0  0  0
  152.9575  138.4329  154.1002 H   0  0  0  0  0  0  0  0  0  0  0  0
  151.4133  139.8293  157.1175 H   0  0  0  0  0  0  0  0  0  0  0  0
  150.0647  141.9498  156.8743 H   0  0  0  0  0  0  0  0  0  0  0  0
  150.8278  142.2339  155.3084 H   0  0  0  0  0  0  0  0  0  0  0  0
  151.8002  142.2316  156.7742 H   0  0  0  0  0  0  0  0  0  0  0  0
  1  2  1  0  0  0  0
  1 29  1  0  0  0  0
  1 30  1  0  0  0  0
  1 31  1  0  0  0  0
  2 28  1  0  0  0  0
  2  3  1  0  0  0  0
  2 32  1  0  0  0  0
  3  4  1  0  0  0  0
  3 33  1  0  0  0  0
  3 34  1  0  0  0  0
  4  5  1  0  0  0  0
  4 21  1  0  0  0  0
  5 10  1  0  0  0  0
  5  6  2  0  0  0  0
  6  7  1  0  0  0  0
  7  8  2  0  0  0  0
  7 35  1  0  0  0  0
  8  9  1  0  0  0  0
  9 13  1  0  0  0  0
  9 10  2  0  0  0  0
 10 11  1  0  0  0  0
 11 12  2  0  0  0  0
 12 13  1  0  0  0  0
 12 36  1  0  0  0  0
 13 14  1  0  0  0  0
 14 15  1  0  0  0  0
 14 37  1  0  0  0  0
 14 38  1  0  0  0  0
 15 20  1  0  0  0  0
 15 16  1  0  0  0  0
 15 17  1  0  0  0  0
 16 39  1  0  0  0  0
 17 18  1  0  0  0  0
 17 40  1  0  0  0  0
 17 41  1  0  0  0  0
 18 19  1  0  0  0  0
 18 42  1  0  0  0  0
 18 43  1  0  0  0  0
 19 20  1  0  0  0  0
 20 44  1  0  0  0  0
 20 45  1  0  0  0  0
 21 22  1  0  0  0  0
 21 46  1  0  0  0  0
 21 47  1  0  0  0  0
 22 26  1  0  0  0  0
 22 23  1  0  0  0  0
 22 28  1  0  0  0  0
 23 24  1  0  0  0  0
 23 48  1  0  0  0  0
 23 49  1  0  0  0  0
 24 25  1  0  0  0  0
 24 50  1  0  0  0  0
 24 51  1  0  0  0  0
 25 26  1  0  0  0  0
 26 27  1  0  0  0  0
 26 52  1  0  0  0  0
 27 53  1  0  0  0  0
 27 54  1  0  0  0  0
 27 55  1  0  0  0  0
M  END
> <s_m_source_file>
AV-unprocessed.smi

> <i_m_source_file_index>
281

> <i_lp_mmshare_version>
43012

> <i_f3d_flags>
0

> <s_epik_input>
W0NIM11bQ0BASF0xT1tDSDJdW0NIMl1bQ0BAXTEyW0NIMl1OKFtDSDJdW0NASF0oTzIpW0NIM10pYyhuW2NIXW4zKWMoYzM0KW5bY0hdbjRbQ0gyXVtDQEBdNShbT0hdKVtDSDJdW0NIMl1PW0NIMl01

> <s_epik_cmdline>
J2VwaWtfcHl0aG9uJywgJy1waCcsICc3LjAnLCAnLXRuJywgJzgnLCAnLW1hJywgJzIwMCcsICctbWV0YWxfYmluZGluZycsICctaW1hZScsICc8aW5maWxlLm1hZT4nLCAnLW9tYWUnLCAnPG91dGZpbGUubWFlPic=

> <r_lp_tautomer_probability>
1

> <r_epik_Ionization_Penalty>
0.00571331

> <r_epik_Ionization_Penalty_Charging>
0

> <r_epik_Ionization_Penalty_Neutral>
0.00571331

> <r_epik_State_Penalty>
0.00399586

> <r_epik_Charging_Adjusted_Penalty>
0.00399586

> <i_epik_Tot_Q>
0

> <i_epik_Tot_abs_Q>
0

> <r_epik_Metal_State_Penalty>
-0

> <b_epik_Metal_Only>
0

> <s_lp_Force_Field>
OPLS_2005

> <r_lp_Energy>
53.0608

> <b_lp_Chiralities_Consistent>
1

> <s_lp_Variant>
AV-unprocessed.smi:281-3

> <Gold.Version>
5.8.1

> <Gold.Id.Protein>
6NUR|6NUR_protein|mol2

> <Gold.PLP.Fitness>
43.3566

> <Gold.PLP.PLP>
-40.6927

> <Gold.PLP.part.hbond>
-4.5173

> <Gold.PLP.part.metal>
0.0000

> <Gold.PLP.part.buried>
-5.7695

> <Gold.PLP.part.nonpolar>
-29.8086

> <Gold.PLP.part.repulsive>
0.1280

> <Gold.PLP.ligand.clash>
0.0000

> <Gold.PLP.ligand.torsion>
0.5967

> <Gold.PLP.Chemscore.Hbond>
1.1851

> <Gold.PLP.Chemscore.CHOScore>
0.0000

> <Gold.PLP.Chemscore.Metal>
0.0000

> <Gold.Chemscore.Hbonds>
donor molecule, donor type, donor heavy atom, donor atom, acceptor molecule, acceptor atom, score
      P1  H  7989  7998       L1    25  0.41
      P1  H  7997  8010       L1    25  0.65

> <Gold.PLP.Chemscore.Internal.Correction>
0.3020

> <Gold.Rescore>
     Score         DG    S(hbond)    S(metal)    S(lipo)     H(rot)  DE(clash)    DE(int)     intcor
     10.88     -13.08       0.99        0.00      82.54       2.09       0.17       2.04       ----

> <Gold.Chemscore.Fitness>
10.8780

> <Gold.Chemscore.DG>
-13.0807

> <Gold.Chemscore.ZeroCoef>
-5.4800

> <Gold.Chemscore.Hbond>
0.9885

> <Gold.Chemscore.Metal>
0.0000

> <Gold.Chemscore.Lipo>
82.5353

> <Gold.Chemscore.Internal_Hbond>
0.0000

> <Gold.Chemscore.DEClash>
0.1671

> <Gold.Chemscore.DEInternal>
2.0357

> <Gold.Chemscore.Rot>
2.0927

> <Gold.Chemscore.Internal.Correction>
   9.000000E+99

> <Gold.Chemscore.Hbonds>
donor molecule, donor type, donor heavy atom, donor atom, acceptor molecule, acceptor atom, score
      P1  H  7989  7998       L1    25  0.02
      P1  H  7997  8010       L1    25  0.26

> <Gold.Chemscore.Hbond.Weighted>
-3.3014

> <Gold.Chemscore.Metal.Weighted>
-0.0000

> <Gold.Chemscore.Lipo.Weighted>
-9.6566

> <Gold.Chemscore.Internal_Hbond.Weighted>
0.0000

> <Gold.Chemscore.DEClash.Weighted>
0.1671

> <Gold.Chemscore.DEInternal.Weighted>
2.0357

> <Gold.Chemscore.Rot.Weighted>
5.3573

> <Gold.Chemscore.Internal.Correction.Weighted>
   9.000000E+99

> <Gold.Protein.RotatedTorsions>
[ 6907 6896 6895 6894 ] final  150.31 input  -60.11 | X-H torsion
[ 7974 7965 7964 7962 ] final  151.17 input  175.53 | X-H torsion
[ 8008 7997 7996 7995 ] final   95.17 input   59.86 | X-H torsion
[ 10167 10162 10161 10158 ] final   18.60 input  -65.29 | X-H torsion
[ 10718 10713 10712 10709 ] final   55.50 input   66.30 | X-H torsion
[ 10763 10752 10751 10750 ] final  -62.59 input  -60.55 | X-H torsion
[ 11005 11000 10999 10996 ] final  -97.29 input  -57.11 | X-H torsion

> <Gold.Protein.ActiveResidues>
 VAL166  LYS551  ARG553  GLY616  TRP617  ASP618  TYR619  PRO620  LYS621  CYS622 
 ASP623  PHE694  ASN695  SER759  ASP760  ASP761  ALA762  ILE779  LEU786  VAL792 
 PHE793  MET794  SER795  GLU796  ALA797  LYS798  CYS799  TRP800  GLU811  SER814 

> <Gold.Protein.RotatedAtoms>
  152.1161  133.4327  159.4653 H   0  0  0  0  0  0  0  0  0  0  0  0  # atno 6907 bound_to 6896
  150.6869  134.2590  159.4550 H   0  0  0  0  0  0  0  0  0  0  0  0  # atno 6908 bound_to 6896
  152.0463  134.9680  160.0625 H   0  0  0  0  0  0  0  0  0  0  0  0  # atno 6909 bound_to 6896
  144.8311  139.6504  143.6058 H   0  0  0  0  0  0  0  0  0  0  0  0  # atno 7974 bound_to 7965
  156.0660  140.3290  155.7518 H   0  0  0  0  0  0  0  0  0  0  0  0  # atno 8008 bound_to 7997
  155.5380  140.0599  157.2893 H   0  0  0  0  0  0  0  0  0  0  0  0  # atno 8009 bound_to 7997
  154.4505  140.1915  156.0551 H   0  0  0  0  0  0  0  0  0  0  0  0  # atno 8010 bound_to 7997
  140.5641  143.9282  150.6664 H   0  0  0  0  0  0  0  0  0  0  0  0  # atno 10167 bound_to 10162
  157.5351  130.8657  149.8741 H   0  0  0  0  0  0  0  0  0  0  0  0  # atno 10718 bound_to 10713
  154.3022  135.6232  153.5429 H   0  0  0  0  0  0  0  0  0  0  0  0  # atno 10763 bound_to 10752
  152.9839  135.5681  154.5271 H   0  0  0  0  0  0  0  0  0  0  0  0  # atno 10764 bound_to 10752
  154.4904  135.2867  155.1477 H   0  0  0  0  0  0  0  0  0  0  0  0  # atno 10765 bound_to 10752
  141.1384  133.8160  157.0686 H   0  0  0  0  0  0  0  0  0  0  0  0  # atno 11005 bound_to 11000
  146.2614  139.6419  142.9359 LP  0  0  0  0  0  0  0  0  0  0  0  0  # atno 17320 bound_to 7965
  145.4894  141.0438  143.2602 LP  0  0  0  0  0  0  0  0  0  0  0  0  # atno 17321 bound_to 7965
  140.2741  143.3435  152.1211 LP  0  0  0  0  0  0  0  0  0  0  0  0  # atno 17342 bound_to 10162
  139.5084  144.6850  151.5911 LP  0  0  0  0  0  0  0  0  0  0  0  0  # atno 17343 bound_to 10162
  156.0452  130.3729  150.1335 LP  0  0  0  0  0  0  0  0  0  0  0  0  # atno 17370 bound_to 10713
  156.9518  130.9777  151.3496 LP  0  0  0  0  0  0  0  0  0  0  0  0  # atno 17371 bound_to 10713
  140.0525  134.9798  157.1162 LP  0  0  0  0  0  0  0  0  0  0  0  0  # atno 17394 bound_to 11000
  140.3968  134.2125  155.7164 LP  0  0  0  0  0  0  0  0  0  0  0  0  # atno 17395 bound_to 11000

$$$$
