AV-unprocessed.smi:2807|AV-procd|sdf|10819|dock3
  -GOLD-   2272015253D 1   1.00000     0.00000
 Structure written by MMmdl.
 32 33  0  0  0  0  0  0  0  0  1 V2000
  152.4015  139.3881  156.6931 O   0  0  0  0  0  0  0  0  0  0  0  0
  152.0452  138.6927  157.6461 C   0  0  0  0  0  0  0  0  0  0  0  0
  151.0324  137.8144  157.5658 N   0  0  0  0  0  0  0  0  0  0  0  0
  150.2164  137.5700  156.3788 C   0  0  1  0  0  0  0  0  0  0  0  0
  149.2110  138.7180  156.1667 C   0  0  0  0  0  0  0  0  0  0  0  0
  149.8392  139.6191  155.1053 C   0  0  0  0  0  0  0  0  0  0  0  0
  150.5547  138.6407  154.1797 C   0  0  0  0  0  0  0  0  0  0  0  0
  151.1020  137.5503  155.1116 C   0  0  2  0  0  0  0  0  0  0  0  0
  151.0609  136.2944  154.4662 O   0  0  0  0  0  0  0  0  0  0  0  0
  152.7649  138.7720  159.0034 C   0  0  0  0  0  0  0  0  0  0  0  0
  152.2113  137.8880  159.8372 F   0  0  0  0  0  0  0  0  0  0  0  0
  154.0360  138.4114  158.8159 F   0  0  0  0  0  0  0  0  0  0  0  0
  152.6955  140.1708  159.6153 C   0  0  0  0  0  0  0  0  0  0  0  0
  151.9739  141.2084  158.9818 C   0  0  0  0  0  0  0  0  0  0  0  0
  151.9308  142.4742  159.5968 C   0  0  0  0  0  0  0  0  0  0  0  0
  152.6063  142.6589  160.8177 C   0  0  0  0  0  0  0  0  0  0  0  0
  153.2970  141.5641  161.3726 C   0  0  0  0  0  0  0  0  0  0  0  0
  153.3446  140.3465  160.7913 N   0  0  0  0  0  0  0  0  0  0  0  0
  150.8069  137.2781  158.3912 H   0  0  0  0  0  0  0  0  0  0  0  0
  149.6801  136.6260  156.4981 H   0  0  0  0  0  0  0  0  0  0  0  0
  148.2776  138.3086  155.7781 H   0  0  0  0  0  0  0  0  0  0  0  0
  148.9649  139.2616  157.0799 H   0  0  0  0  0  0  0  0  0  0  0  0
  149.1030  140.2310  154.5834 H   0  0  0  0  0  0  0  0  0  0  0  0
  150.5644  140.2885  155.5698 H   0  0  0  0  0  0  0  0  0  0  0  0
  149.8270  138.2193  153.4840 H   0  0  0  0  0  0  0  0  0  0  0  0
  151.3370  139.1171  153.5881 H   0  0  0  0  0  0  0  0  0  0  0  0
  152.1402  137.7769  155.3601 H   0  0  0  0  0  0  0  0  0  0  0  0
  151.0000  136.4376  153.5340 H   0  0  0  0  0  0  0  0  0  0  0  0
  151.4575  141.0414  158.0481 H   0  0  0  0  0  0  0  0  0  0  0  0
  151.3873  143.2884  159.1406 H   0  0  0  0  0  0  0  0  0  0  0  0
  152.5943  143.6160  161.3179 H   0  0  0  0  0  0  0  0  0  0  0  0
  153.8258  141.6693  162.3082 H   0  0  0  0  0  0  0  0  0  0  0  0
  1  2  2  0  0  0  0
  2  3  1  0  0  0  0
  2 10  1  0  0  0  0
  3  4  1  0  0  0  0
  3 19  1  0  0  0  0
  4  8  1  0  0  0  0
  4  5  1  0  0  0  0
  4 20  1  0  0  0  0
  5  6  1  0  0  0  0
  5 21  1  0  0  0  0
  5 22  1  0  0  0  0
  6  7  1  0  0  0  0
  6 23  1  0  0  0  0
  6 24  1  0  0  0  0
  7  8  1  0  0  0  0
  7 25  1  0  0  0  0
  7 26  1  0  0  0  0
  8  9  1  0  0  0  0
  8 27  1  0  0  0  0
  9 28  1  0  0  0  0
 10 11  1  0  0  0  0
 10 12  1  0  0  0  0
 10 13  1  0  0  0  0
 13 18  1  0  0  0  0
 13 14  2  0  0  0  0
 14 15  1  0  0  0  0
 14 29  1  0  0  0  0
 15 16  2  0  0  0  0
 15 30  1  0  0  0  0
 16 17  1  0  0  0  0
 16 31  1  0  0  0  0
 17 18  2  0  0  0  0
 17 32  1  0  0  0  0
M  END
> <s_m_source_file>
AV-unprocessed.smi

> <i_m_source_file_index>
2807

> <i_lp_mmshare_version>
43012

> <i_f3d_flags>
0

> <s_epik_input>
bjFbY0hdW2NIXVtjSF1bY0hdYzFDKEYpKEYpQyg9TylbTkhdW0NAQEhdMltDSDJdW0NIMl1bQ0gyXVtDQEhdMltPSF0=

> <s_epik_cmdline>
J2VwaWtfcHl0aG9uJywgJy1waCcsICc3LjAnLCAnLXRuJywgJzgnLCAnLW1hJywgJzIwMCcsICctbWV0YWxfYmluZGluZycsICctaW1hZScsICc8aW5maWxlLm1hZT4nLCAnLW9tYWUnLCAnPG91dGZpbGUubWFlPic=

> <r_lp_tautomer_probability>
1

> <r_epik_Ionization_Penalty>
4.08325e-05

> <r_epik_Ionization_Penalty_Charging>
0

> <r_epik_Ionization_Penalty_Neutral>
4.08325e-05

> <r_epik_State_Penalty>
-0

> <r_epik_Charging_Adjusted_Penalty>
0

> <i_epik_Tot_Q>
0

> <i_epik_Tot_abs_Q>
0

> <r_epik_Metal_State_Penalty>
0.034564

> <b_epik_Metal_Only>
0

> <s_lp_Force_Field>
OPLS_2005

> <r_lp_Energy>
23.3641

> <b_lp_Chiralities_Consistent>
1

> <s_lp_Variant>
AV-unprocessed.smi:2807-4

> <Gold.Version>
5.8.1

> <Gold.Id.Protein>
6NUR|6NUR_protein|mol2

> <Gold.PLP.Fitness>
39.9075

> <Gold.PLP.PLP>
-31.3961

> <Gold.PLP.part.hbond>
-3.0000

> <Gold.PLP.part.metal>
0.0000

> <Gold.PLP.part.buried>
-4.2003

> <Gold.PLP.part.nonpolar>
-23.6971

> <Gold.PLP.part.repulsive>
0.0327

> <Gold.PLP.ligand.clash>
0.0000

> <Gold.PLP.ligand.torsion>
0.2561

> <Gold.PLP.Chemscore.Hbond>
3.0000

> <Gold.PLP.Chemscore.CHOScore>
0.0000

> <Gold.PLP.Chemscore.Metal>
0.0000

> <Gold.Chemscore.Hbonds>
donor molecule, donor type, donor heavy atom, donor atom, acceptor molecule, acceptor atom, score
      L1  H     9    28       P1  7949  0.83
      P1  H  7997  8010       L1     1  0.84
      P1  H 10752 10764       L1     9  0.98

> <Gold.PLP.Chemscore.Internal.Correction>
0.0237

> <Gold.Rescore>
     Score         DG    S(hbond)    S(metal)    S(lipo)     H(rot)  DE(clash)    DE(int)     intcor
     15.28     -17.93       2.49        0.00      80.09       2.05       0.29       2.36       ----

> <Gold.Chemscore.Fitness>
15.2775

> <Gold.Chemscore.DG>
-17.9262

> <Gold.Chemscore.ZeroCoef>
-5.4800

> <Gold.Chemscore.Hbond>
2.4889

> <Gold.Chemscore.Metal>
0.0000

> <Gold.Chemscore.Lipo>
80.0873

> <Gold.Chemscore.Internal_Hbond>
0.0000

> <Gold.Chemscore.DEClash>
0.2879

> <Gold.Chemscore.DEInternal>
2.3608

> <Gold.Chemscore.Rot>
2.0457

> <Gold.Chemscore.Internal.Correction>
   9.000000E+99

> <Gold.Chemscore.Hbonds>
donor molecule, donor type, donor heavy atom, donor atom, acceptor molecule, acceptor atom, score
      L1  H     9    28       P1  7949  0.21
      P1  H  7997  8010       L1     1  0.82
      P1  H 10752 10764       L1     9  0.16

> <Gold.Chemscore.Hbond.Weighted>
-8.3130

> <Gold.Chemscore.Metal.Weighted>
-0.0000

> <Gold.Chemscore.Lipo.Weighted>
-9.3702

> <Gold.Chemscore.Internal_Hbond.Weighted>
0.0000

> <Gold.Chemscore.DEClash.Weighted>
0.2879

> <Gold.Chemscore.DEInternal.Weighted>
2.3608

> <Gold.Chemscore.Rot.Weighted>
5.2371

> <Gold.Chemscore.Internal.Correction.Weighted>
   9.000000E+99

> <Gold.Protein.RotatedTorsions>
[ 6907 6896 6895 6894 ] final   19.63 input  -60.11 | X-H torsion
[ 7974 7965 7964 7962 ] final -126.51 input  175.53 | X-H torsion
[ 8008 7997 7996 7995 ] final   77.11 input   59.86 | X-H torsion
[ 10167 10162 10161 10158 ] final  -54.71 input  -65.29 | X-H torsion
[ 10718 10713 10712 10709 ] final -172.03 input   66.30 | X-H torsion
[ 10763 10752 10751 10750 ] final  -52.59 input  -60.55 | X-H torsion
[ 11005 11000 10999 10996 ] final  160.79 input  -57.11 | X-H torsion

> <Gold.Protein.ActiveResidues>
 VAL166  LYS551  ARG553  GLY616  TRP617  ASP618  TYR619  PRO620  LYS621  CYS622 
 ASP623  PHE694  ASN695  SER759  ASP760  ASP761  ALA762  ILE779  LEU786  VAL792 
 PHE793  MET794  SER795  GLU796  ALA797  LYS798  CYS799  TRP800  GLU811  SER814 

> <Gold.Protein.RotatedAtoms>
  151.8838  135.0443  160.0491 H   0  0  0  0  0  0  0  0  0  0  0  0  # atno 6907 bound_to 6896
  152.2491  133.5195  159.5323 H   0  0  0  0  0  0  0  0  0  0  0  0  # atno 6908 bound_to 6896
  150.7078  134.0901  159.3971 H   0  0  0  0  0  0  0  0  0  0  0  0  # atno 6909 bound_to 6896
  144.9865  140.7691  143.4580 H   0  0  0  0  0  0  0  0  0  0  0  0  # atno 7974 bound_to 7965
  155.8369  140.3464  155.5607 H   0  0  0  0  0  0  0  0  0  0  0  0  # atno 8008 bound_to 7997
  155.8182  140.0909  157.1884 H   0  0  0  0  0  0  0  0  0  0  0  0  # atno 8009 bound_to 7997
  154.4004  140.1435  156.3455 H   0  0  0  0  0  0  0  0  0  0  0  0  # atno 8010 bound_to 7997
  140.6415  143.2510  151.4975 H   0  0  0  0  0  0  0  0  0  0  0  0  # atno 10167 bound_to 10162
  156.7496  130.9373  151.3114 H   0  0  0  0  0  0  0  0  0  0  0  0  # atno 10718 bound_to 10713
  154.1452  135.6499  153.4951 H   0  0  0  0  0  0  0  0  0  0  0  0  # atno 10763 bound_to 10752
  153.0154  135.5325  154.6864 H   0  0  0  0  0  0  0  0  0  0  0  0  # atno 10764 bound_to 10752
  154.6137  135.2956  155.0375 H   0  0  0  0  0  0  0  0  0  0  0  0  # atno 10765 bound_to 10752
  140.2094  134.8279  157.3104 H   0  0  0  0  0  0  0  0  0  0  0  0  # atno 11005 bound_to 11000
  145.2346  139.2099  143.5024 LP  0  0  0  0  0  0  0  0  0  0  0  0  # atno 17320 bound_to 7965
  146.3421  140.2230  142.8592 LP  0  0  0  0  0  0  0  0  0  0  0  0  # atno 17321 bound_to 7965
  139.5625  144.2123  152.1713 LP  0  0  0  0  0  0  0  0  0  0  0  0  # atno 17342 bound_to 10162
  140.1395  144.5215  150.6753 LP  0  0  0  0  0  0  0  0  0  0  0  0  # atno 17343 bound_to 10162
  157.6783  130.9115  150.0203 LP  0  0  0  0  0  0  0  0  0  0  0  0  # atno 17370 bound_to 10713
  156.1410  130.3642  149.9583 LP  0  0  0  0  0  0  0  0  0  0  0  0  # atno 17371 bound_to 10713
  140.1968  134.4304  155.7685 LP  0  0  0  0  0  0  0  0  0  0  0  0  # atno 17394 bound_to 11000
  141.2226  133.7053  156.8117 LP  0  0  0  0  0  0  0  0  0  0  0  0  # atno 17395 bound_to 11000

$$$$
