AV-unprocessed.smi:2160|AV-procd|sdf|8800|dock9
  -GOLD-   2272011583D 1   1.00000     0.00000
 Structure written by MMmdl.
 44 46  0  0  0  0  0  0  0  0  2 V2000
  144.0384  145.1670  153.9148 C   0  0  0  0  0  0  0  0  0  0  0  0
  144.4532  144.4832  155.0884 O   0  0  0  0  0  0  0  0  0  0  0  0
  145.4975  143.5897  154.9829 C   0  0  0  0  0  0  0  0  0  0  0  0
  146.1073  143.2183  153.7584 C   0  0  0  0  0  0  0  0  0  0  0  0
  147.1718  142.2964  153.7426 C   0  0  0  0  0  0  0  0  0  0  0  0
  147.6481  141.7334  154.9433 C   0  0  0  0  0  0  0  0  0  0  0  0
  148.7848  140.7278  154.8975 C   0  0  0  0  0  0  0  0  0  0  0  0
  149.2580  140.3701  156.1869 O   0  0  0  0  0  0  0  0  0  0  0  0
  150.4543  141.0458  156.5383 C   0  0  0  0  0  0  0  0  0  0  0  0
  150.1021  142.3522  157.2672 C   0  0  1  0  0  0  0  0  0  0  0  0
  149.4787  142.0263  158.4944 O   0  0  0  0  0  0  0  0  0  0  0  0
  151.3524  143.2110  157.5443 C   0  0  0  0  0  0  0  0  0  0  0  0
  151.3435  143.8120  158.8864 N   0  0  0  0  0  0  0  0  0  0  0  0
  150.7126  144.9340  159.3273 C   0  0  0  0  0  0  0  0  0  0  0  0
  151.0013  145.0766  160.6503 N   0  3  0  0  0  0  0  0  0  0  0  0
  151.8282  144.0300  161.0627 C   0  0  0  0  0  0  0  0  0  0  0  0
  152.3811  143.7437  162.3071 C   0  0  0  0  0  0  0  0  0  0  0  0
  153.1836  142.5873  162.3922 C   0  0  0  0  0  0  0  0  0  0  0  0
  153.4097  141.7663  161.2685 C   0  0  0  0  0  0  0  0  0  0  0  0
  152.8446  142.0664  160.0116 C   0  0  0  0  0  0  0  0  0  0  0  0
  152.0530  143.2124  159.9345 C   0  0  0  0  0  0  0  0  0  0  0  0
  147.0390  142.0932  156.1637 C   0  0  0  0  0  0  0  0  0  0  0  0
  145.9758  143.0164  156.1789 C   0  0  0  0  0  0  0  0  0  0  0  0
  143.2097  145.8315  154.1588 H   0  0  0  0  0  0  0  0  0  0  0  0
  143.6887  144.4714  153.1507 H   0  0  0  0  0  0  0  0  0  0  0  0
  144.8422  145.7803  153.5053 H   0  0  0  0  0  0  0  0  0  0  0  0
  145.7759  143.6253  152.8153 H   0  0  0  0  0  0  0  0  0  0  0  0
  147.6233  142.0209  152.8007 H   0  0  0  0  0  0  0  0  0  0  0  0
  148.4321  139.8381  154.3737 H   0  0  0  0  0  0  0  0  0  0  0  0
  149.6029  141.1493  154.3111 H   0  0  0  0  0  0  0  0  0  0  0  0
  151.1049  140.4185  157.1503 H   0  0  0  0  0  0  0  0  0  0  0  0
  150.9971  141.2716  155.6191 H   0  0  0  0  0  0  0  0  0  0  0  0
  149.4042  142.9330  156.6623 H   0  0  0  0  0  0  0  0  0  0  0  0
  149.6277  141.1108  158.6733 H   0  0  0  0  0  0  0  0  0  0  0  0
  152.2677  142.6351  157.4081 H   0  0  0  0  0  0  0  0  0  0  0  0
  151.4023  144.0332  156.8293 H   0  0  0  0  0  0  0  0  0  0  0  0
  150.0917  145.5907  158.7350 H   0  0  0  0  0  0  0  0  0  0  0  0
  152.2074  144.3700  163.1699 H   0  0  0  0  0  0  0  0  0  0  0  0
  153.6338  142.3239  163.3384 H   0  0  0  0  0  0  0  0  0  0  0  0
  154.0287  140.8870  161.3726 H   0  0  0  0  0  0  0  0  0  0  0  0
  153.0232  141.4263  159.1609 H   0  0  0  0  0  0  0  0  0  0  0  0
  147.3794  141.6657  157.0954 H   0  0  0  0  0  0  0  0  0  0  0  0
  145.5200  143.2856  157.1206 H   0  0  0  0  0  0  0  0  0  0  0  0
  150.6559  145.8327  161.2274 H   0  0  0  0  0  0  0  0  0  0  0  0
  1  2  1  0  0  0  0
  1 24  1  0  0  0  0
  1 25  1  0  0  0  0
  1 26  1  0  0  0  0
  2  3  1  0  0  0  0
  3 23  1  0  0  0  0
  3  4  2  0  0  0  0
  4  5  1  0  0  0  0
  4 27  1  0  0  0  0
  5  6  2  0  0  0  0
  5 28  1  0  0  0  0
  6  7  1  0  0  0  0
  6 22  1  0  0  0  0
  7  8  1  0  0  0  0
  7 29  1  0  0  0  0
  7 30  1  0  0  0  0
  8  9  1  0  0  0  0
  9 10  1  0  0  0  0
  9 31  1  0  0  0  0
  9 32  1  0  0  0  0
 10 11  1  0  0  0  0
 10 12  1  0  0  0  0
 10 33  1  0  0  0  0
 11 34  1  0  0  0  0
 12 13  1  0  0  0  0
 12 35  1  0  0  0  0
 12 36  1  0  0  0  0
 13 21  1  0  0  0  0
 13 14  1  0  0  0  0
 14 15  2  0  0  0  0
 14 37  1  0  0  0  0
 15 16  1  0  0  0  0
 15 44  1  0  0  0  0
 16 21  2  0  0  0  0
 16 17  1  0  0  0  0
 17 18  2  0  0  0  0
 17 38  1  0  0  0  0
 18 19  1  0  0  0  0
 18 39  1  0  0  0  0
 19 20  2  0  0  0  0
 19 40  1  0  0  0  0
 20 21  1  0  0  0  0
 20 41  1  0  0  0  0
 22 23  2  0  0  0  0
 22 42  1  0  0  0  0
 23 43  1  0  0  0  0
M  CHG  1  15   1
M  END
> <s_m_source_file>
AV-unprocessed.smi

> <i_m_source_file_index>
2160

> <i_lp_mmshare_version>
43012

> <i_f3d_flags>
0

> <s_epik_input>
W0NIM11PYzFbY0hdW2NIXWMoW2NIXVtjSF0xKVtDSDJdT1tDSDJdW0NASF0oW09IXSlbQ0gyXW4oW2NIXW4yKWMoYzIzKVtjSF1bY0hdW2NIXVtjSF0z

> <s_epik_cmdline>
J2VwaWtfcHl0aG9uJywgJy1waCcsICc3LjAnLCAnLXRuJywgJzgnLCAnLW1hJywgJzIwMCcsICctbWV0YWxfYmluZGluZycsICctaW1hZScsICc8aW5maWxlLm1hZT4nLCAnLW9tYWUnLCAnPG91dGZpbGUubWFlPic=

> <r_lp_tautomer_probability>
1

> <r_epik_Ionization_Penalty>
1.28975

> <r_epik_Ionization_Penalty_Charging>
1.28975

> <r_epik_Ionization_Penalty_Neutral>
9.74819e-07

> <r_epik_State_Penalty>
1.36276

> <r_epik_Charging_Adjusted_Penalty>
2.65251

> <i_epik_Tot_Q>
1

> <i_epik_Tot_abs_Q>
1

> <r_epik_Metal_State_Penalty>
5.39298

> <b_epik_Metal_Only>
0

> <s_lp_Force_Field>
OPLS_2005

> <r_lp_Energy>
25.2455

> <b_lp_Chiralities_Consistent>
1

> <s_lp_Variant>
AV-unprocessed.smi:2160-4

> <Gold.Version>
5.8.1

> <Gold.Id.Protein>
6NUR|6NUR_protein|mol2

> <Gold.PLP.Fitness>
54.8527

> <Gold.PLP.PLP>
-55.5490

> <Gold.PLP.part.hbond>
-1.0961

> <Gold.PLP.part.metal>
0.0000

> <Gold.PLP.part.buried>
-7.3533

> <Gold.PLP.part.nonpolar>
-47.3352

> <Gold.PLP.part.repulsive>
0.3123

> <Gold.PLP.ligand.clash>
0.0000

> <Gold.PLP.ligand.torsion>
1.4945

> <Gold.PLP.Chemscore.Hbond>
0.0000

> <Gold.PLP.Chemscore.CHOScore>
0.7335

> <Gold.PLP.Chemscore.Metal>
0.0000

> <Gold.Chemscore.Hbonds>
donor molecule, donor type, donor heavy atom, donor atom, acceptor molecule, acceptor atom, score
      L1  C    14    37       P1  8029  0.72

> <Gold.PLP.Chemscore.Internal.Correction>
0.0920

> <Gold.Rescore>
     Score         DG    S(hbond)    S(metal)    S(lipo)     H(rot)  DE(clash)    DE(int)     intcor
     12.45     -14.12       0.00        0.00     133.74       2.74       0.22       1.45       ----

> <Gold.Chemscore.Fitness>
12.4476

> <Gold.Chemscore.DG>
-14.1155

> <Gold.Chemscore.ZeroCoef>
-5.4800

> <Gold.Chemscore.Hbond>
0.0000

> <Gold.Chemscore.Metal>
0.0000

> <Gold.Chemscore.Lipo>
133.7371

> <Gold.Chemscore.Internal_Hbond>
0.0000

> <Gold.Chemscore.DEClash>
0.2165

> <Gold.Chemscore.DEInternal>
1.4514

> <Gold.Chemscore.Rot>
2.7390

> <Gold.Chemscore.Internal.Correction>
   9.000000E+99

> <Gold.Chemscore.Hbond.Weighted>
-0.0000

> <Gold.Chemscore.Metal.Weighted>
-0.0000

> <Gold.Chemscore.Lipo.Weighted>
-15.6472

> <Gold.Chemscore.Internal_Hbond.Weighted>
0.0000

> <Gold.Chemscore.DEClash.Weighted>
0.2165

> <Gold.Chemscore.DEInternal.Weighted>
1.4514

> <Gold.Chemscore.Rot.Weighted>
7.0118

> <Gold.Chemscore.Internal.Correction.Weighted>
   9.000000E+99

> <Gold.Protein.RotatedTorsions>
[ 6907 6896 6895 6894 ] final   77.21 input  -60.11 | X-H torsion
[ 7974 7965 7964 7962 ] final   67.57 input  175.53 | X-H torsion
[ 8008 7997 7996 7995 ] final -176.57 input   59.86 | X-H torsion
[ 10167 10162 10161 10158 ] final  -39.70 input  -65.29 | X-H torsion
[ 10718 10713 10712 10709 ] final -103.94 input   66.30 | X-H torsion
[ 10763 10752 10751 10750 ] final   11.63 input  -60.55 | X-H torsion
[ 11005 11000 10999 10996 ] final   16.82 input  -57.11 | X-H torsion

> <Gold.Protein.ActiveResidues>
 VAL166  LYS551  ARG553  GLY616  TRP617  ASP618  TYR619  PRO620  LYS621  CYS622 
 ASP623  PHE694  ASN695  SER759  ASP760  ASP761  ALA762  ILE779  LEU786  VAL792 
 PHE793  MET794  SER795  GLU796  ALA797  LYS798  CYS799  TRP800  GLU811  SER814 

> <Gold.Protein.RotatedAtoms>
  152.5108  134.3851  159.9364 H   0  0  0  0  0  0  0  0  0  0  0  0  # atno 6907 bound_to 6896
  151.3809  133.3815  159.2718 H   0  0  0  0  0  0  0  0  0  0  0  0  # atno 6908 bound_to 6896
  150.9505  134.8926  159.7727 H   0  0  0  0  0  0  0  0  0  0  0  0  # atno 6909 bound_to 6896
  145.8131  139.3043  143.1087 H   0  0  0  0  0  0  0  0  0  0  0  0  # atno 7974 bound_to 7965
  155.9965  140.1211  157.0589 H   0  0  0  0  0  0  0  0  0  0  0  0  # atno 8008 bound_to 7997
  154.4228  140.1115  156.5705 H   0  0  0  0  0  0  0  0  0  0  0  0  # atno 8009 bound_to 7997
  155.6272  140.3472  155.4673 H   0  0  0  0  0  0  0  0  0  0  0  0  # atno 8010 bound_to 7997
  140.7056  143.3198  151.2819 H   0  0  0  0  0  0  0  0  0  0  0  0  # atno 10167 bound_to 10162
  156.0285  130.5491  150.7325 H   0  0  0  0  0  0  0  0  0  0  0  0  # atno 10718 bound_to 10713
  153.1906  135.6842  153.8357 H   0  0  0  0  0  0  0  0  0  0  0  0  # atno 10763 bound_to 10752
  153.7658  135.3203  155.3345 H   0  0  0  0  0  0  0  0  0  0  0  0  # atno 10764 bound_to 10752
  154.8115  135.4714  154.0627 H   0  0  0  0  0  0  0  0  0  0  0  0  # atno 10765 bound_to 10752
  140.4428  134.1304  155.7692 H   0  0  0  0  0  0  0  0  0  0  0  0  # atno 11005 bound_to 11000
  145.9756  140.8725  143.0140 LP  0  0  0  0  0  0  0  0  0  0  0  0  # atno 17320 bound_to 7965
  144.6755  140.2007  143.7387 LP  0  0  0  0  0  0  0  0  0  0  0  0  # atno 17321 bound_to 7965
  139.6648  144.0124  152.2716 LP  0  0  0  0  0  0  0  0  0  0  0  0  # atno 17342 bound_to 10162
  139.9703  144.6498  150.7995 LP  0  0  0  0  0  0  0  0  0  0  0  0  # atno 17343 bound_to 10162
  157.4914  131.0911  151.0423 LP  0  0  0  0  0  0  0  0  0  0  0  0  # atno 17370 bound_to 10713
  157.0828  130.5910  149.5424 LP  0  0  0  0  0  0  0  0  0  0  0  0  # atno 17371 bound_to 10713
  141.1698  133.8631  157.1605 LP  0  0  0  0  0  0  0  0  0  0  0  0  # atno 17394 bound_to 11000
  140.0058  135.0009  157.0290 LP  0  0  0  0  0  0  0  0  0  0  0  0  # atno 17395 bound_to 11000

$$$$
