AV-unprocessed.smi:2350|AV-procd|sdf|9373|dock1
  -GOLD-   2272013 03D 1   1.00000     0.00000
 Structure written by MMmdl.
 30 31  0  0  0  0  0  0  0  0  1 V2000
  153.0979  144.7620  157.9847 C   0  0  0  0  0  0  0  0  0  0  0  0
  151.7376  144.2929  158.5122 C   0  0  0  0  0  0  0  0  0  0  0  0
  150.9816  143.6392  157.4410 N   0  0  0  0  0  0  0  0  0  0  0  0
  151.0843  142.3553  157.0618 C   0  0  0  0  0  0  0  0  0  0  0  0
  151.8420  141.5461  157.5970 O   0  0  0  0  0  0  0  0  0  0  0  0
  150.2458  142.0831  156.0472 N   0  0  0  0  0  0  0  0  0  0  0  0
  150.0641  140.8615  155.3425 C   0  0  0  0  0  0  0  0  0  0  0  0
  151.0024  139.8007  155.3337 C   0  0  0  0  0  0  0  0  0  0  0  0
  150.7111  138.6485  154.5759 C   0  0  0  0  0  0  0  0  0  0  0  0
  149.5839  138.5014  153.8481 N   0  0  0  0  0  0  0  0  0  0  0  0
  148.6979  139.5196  153.8486 C   0  0  0  0  0  0  0  0  0  0  0  0
  148.8923  140.7147  154.5699 C   0  0  0  0  0  0  0  0  0  0  0  0
  147.9645  141.7013  154.5211 F   0  0  0  0  0  0  0  0  0  0  0  0
  151.7233  143.4194  159.7811 C   0  0  0  0  0  0  0  0  0  0  0  0
  151.4706  144.6932  160.5930 C   0  0  0  0  0  0  0  0  0  0  0  0
  150.8715  145.2870  159.3158 C   0  0  0  0  0  0  0  0  0  0  0  0
  153.7172  145.1713  158.7832 H   0  0  0  0  0  0  0  0  0  0  0  0
  152.9913  145.5428  157.2316 H   0  0  0  0  0  0  0  0  0  0  0  0
  153.6549  143.9409  157.5326 H   0  0  0  0  0  0  0  0  0  0  0  0
  150.3258  144.2215  156.9410 H   0  0  0  0  0  0  0  0  0  0  0  0
  149.6256  142.8309  155.7730 H   0  0  0  0  0  0  0  0  0  0  0  0
  151.9347  139.8495  155.8748 H   0  0  0  0  0  0  0  0  0  0  0  0
  151.4077  137.8237  154.5494 H   0  0  0  0  0  0  0  0  0  0  0  0
  147.8073  139.3789  153.2539 H   0  0  0  0  0  0  0  0  0  0  0  0
  150.8832  142.7232  159.8287 H   0  0  0  0  0  0  0  0  0  0  0  0
  152.6666  142.9207  160.0057 H   0  0  0  0  0  0  0  0  0  0  0  0
  150.7671  144.5791  161.4180 H   0  0  0  0  0  0  0  0  0  0  0  0
  152.3892  145.1917  160.9064 H   0  0  0  0  0  0  0  0  0  0  0  0
  151.1096  146.3382  159.1501 H   0  0  0  0  0  0  0  0  0  0  0  0
  149.7977  145.1038  159.2367 H   0  0  0  0  0  0  0  0  0  0  0  0
  1  2  1  0  0  0  0
  1 17  1  0  0  0  0
  1 18  1  0  0  0  0
  1 19  1  0  0  0  0
  2 16  1  0  0  0  0
  2  3  1  0  0  0  0
  2 14  1  0  0  0  0
  3  4  1  0  0  0  0
  3 20  1  0  0  0  0
  4  5  2  0  0  0  0
  4  6  1  0  0  0  0
  6  7  1  0  0  0  0
  6 21  1  0  0  0  0
  7 12  1  0  0  0  0
  7  8  2  0  0  0  0
  8  9  1  0  0  0  0
  8 22  1  0  0  0  0
  9 10  2  0  0  0  0
  9 23  1  0  0  0  0
 10 11  1  0  0  0  0
 11 12  2  0  0  0  0
 11 24  1  0  0  0  0
 12 13  1  0  0  0  0
 14 15  1  0  0  0  0
 14 25  1  0  0  0  0
 14 26  1  0  0  0  0
 15 16  1  0  0  0  0
 15 27  1  0  0  0  0
 15 28  1  0  0  0  0
 16 29  1  0  0  0  0
 16 30  1  0  0  0  0
M  END
> <s_m_source_file>
AV-unprocessed.smi

> <i_m_source_file_index>
2350

> <i_lp_mmshare_version>
43012

> <i_f3d_flags>
0

> <s_epik_input>
W0NIMl0xW0NIMl1bQ0gyXUMxKFtDSDNdKVtOSF1DKD1PKVtOSF1jMltjSF1bY0hdbltjSF1jMkY=

> <s_epik_cmdline>
J2VwaWtfcHl0aG9uJywgJy1waCcsICc3LjAnLCAnLXRuJywgJzgnLCAnLW1hJywgJzIwMCcsICctbWV0YWxfYmluZGluZycsICctaW1hZScsICc8aW5maWxlLm1hZT4nLCAnLW9tYWUnLCAnPG91dGZpbGUubWFlPic=

> <r_epik_Ionization_Penalty>
0.00347391

> <r_epik_Ionization_Penalty_Charging>
0

> <r_epik_Ionization_Penalty_Neutral>
0.00347391

> <r_epik_State_Penalty>
0.00243273

> <r_epik_Charging_Adjusted_Penalty>
0.00243273

> <i_epik_Tot_Q>
0

> <i_epik_Tot_abs_Q>
0

> <r_epik_Metal_State_Penalty>
-0

> <b_epik_Metal_Only>
0

> <s_lp_Force_Field>
OPLS_2005

> <r_lp_Energy>
20.3652

> <b_lp_Chiralities_Consistent>
1

> <s_lp_Variant>
AV-unprocessed.smi:2350-1

> <Gold.Version>
5.8.1

> <Gold.Id.Protein>
6NUR|6NUR_protein|mol2

> <Gold.PLP.Fitness>
42.2919

> <Gold.PLP.PLP>
-36.9164

> <Gold.PLP.part.hbond>
-2.0000

> <Gold.PLP.part.metal>
0.0000

> <Gold.PLP.part.buried>
-2.3648

> <Gold.PLP.part.nonpolar>
-33.5895

> <Gold.PLP.part.repulsive>
1.1583

> <Gold.PLP.ligand.clash>
0.0000

> <Gold.PLP.ligand.torsion>
0.4644

> <Gold.PLP.Chemscore.Hbond>
1.9913

> <Gold.PLP.Chemscore.CHOScore>
0.0111

> <Gold.PLP.Chemscore.Metal>
0.0000

> <Gold.Chemscore.Hbonds>
donor molecule, donor type, donor heavy atom, donor atom, acceptor molecule, acceptor atom, score
      L1  H     3    20       P1  8028  1.00
      L1  H     6    21       P1  8028  0.99
      L1  C    11    24       P1  7957  0.01

> <Gold.PLP.Chemscore.Internal.Correction>
0.2971

> <Gold.Rescore>
     Score         DG    S(hbond)    S(metal)    S(lipo)     H(rot)  DE(clash)    DE(int)     intcor
     17.39     -20.59       1.89        0.00      97.00       1.00       0.40       2.81       ----

> <Gold.Chemscore.Fitness>
17.3881

> <Gold.Chemscore.DG>
-20.5933

> <Gold.Chemscore.ZeroCoef>
-5.4800

> <Gold.Chemscore.Hbond>
1.8936

> <Gold.Chemscore.Metal>
0.0000

> <Gold.Chemscore.Lipo>
96.9968

> <Gold.Chemscore.Internal_Hbond>
0.0000

> <Gold.Chemscore.DEClash>
0.3964

> <Gold.Chemscore.DEInternal>
2.8088

> <Gold.Chemscore.Rot>
1.0000

> <Gold.Chemscore.Internal.Correction>
   9.000000E+99

> <Gold.Chemscore.Hbonds>
donor molecule, donor type, donor heavy atom, donor atom, acceptor molecule, acceptor atom, score
      L1  H     3    20       P1  8028  0.92
      L1  H     6    21       P1  8028  0.93

> <Gold.Chemscore.Hbond.Weighted>
-6.3247

> <Gold.Chemscore.Metal.Weighted>
-0.0000

> <Gold.Chemscore.Lipo.Weighted>
-11.3486

> <Gold.Chemscore.Internal_Hbond.Weighted>
0.0000

> <Gold.Chemscore.DEClash.Weighted>
0.3964

> <Gold.Chemscore.DEInternal.Weighted>
2.8088

> <Gold.Chemscore.Rot.Weighted>
2.5600

> <Gold.Chemscore.Internal.Correction.Weighted>
   9.000000E+99

> <Gold.Protein.RotatedTorsions>
[ 6907 6896 6895 6894 ] final  -22.14 input  -60.11 | X-H torsion
[ 7974 7965 7964 7962 ] final    3.96 input  175.53 | X-H torsion
[ 8008 7997 7996 7995 ] final  -94.83 input   59.86 | X-H torsion
[ 10167 10162 10161 10158 ] final   30.33 input  -65.29 | X-H torsion
[ 10718 10713 10712 10709 ] final -136.20 input   66.30 | X-H torsion
[ 10763 10752 10751 10750 ] final   73.04 input  -60.55 | X-H torsion
[ 11005 11000 10999 10996 ] final  134.14 input  -57.11 | X-H torsion

> <Gold.Protein.ActiveResidues>
 VAL166  LYS551  ARG553  GLY616  TRP617  ASP618  TYR619  PRO620  LYS621  CYS622 
 ASP623  PHE694  ASN695  SER759  ASP760  ASP761  ALA762  ILE779  LEU786  VAL792 
 PHE793  MET794  SER795  GLU796  ALA797  LYS798  CYS799  TRP800  GLU811  SER814 

> <Gold.Protein.RotatedAtoms>
  151.2229  135.0525  159.8956 H   0  0  0  0  0  0  0  0  0  0  0  0  # atno 6907 bound_to 6896
  152.5413  134.0621  159.8167 H   0  0  0  0  0  0  0  0  0  0  0  0  # atno 6908 bound_to 6896
  151.0789  133.5357  159.2653 H   0  0  0  0  0  0  0  0  0  0  0  0  # atno 6909 bound_to 6896
  146.2444  140.0606  142.8369 H   0  0  0  0  0  0  0  0  0  0  0  0  # atno 7974 bound_to 7965
  154.7534  140.0485  157.0913 H   0  0  0  0  0  0  0  0  0  0  0  0  # atno 8008 bound_to 7997
  155.0028  140.3126  155.4841 H   0  0  0  0  0  0  0  0  0  0  0  0  # atno 8009 bound_to 7997
  156.2890  140.2198  156.5138 H   0  0  0  0  0  0  0  0  0  0  0  0  # atno 8010 bound_to 7997
  140.4687  144.0796  150.6231 H   0  0  0  0  0  0  0  0  0  0  0  0  # atno 10167 bound_to 10162
  156.2745  130.7285  151.1262 H   0  0  0  0  0  0  0  0  0  0  0  0  # atno 10718 bound_to 10713
  153.0496  135.5077  154.7834 H   0  0  0  0  0  0  0  0  0  0  0  0  # atno 10763 bound_to 10752
  154.6707  135.2952  154.9748 H   0  0  0  0  0  0  0  0  0  0  0  0  # atno 10764 bound_to 10752
  154.0568  135.6696  153.4859 H   0  0  0  0  0  0  0  0  0  0  0  0  # atno 10765 bound_to 10752
  139.9896  134.9520  156.9825 H   0  0  0  0  0  0  0  0  0  0  0  0  # atno 11005 bound_to 11000
  145.0903  140.9280  143.4773 LP  0  0  0  0  0  0  0  0  0  0  0  0  # atno 17320 bound_to 7965
  145.0777  139.2983  143.5799 LP  0  0  0  0  0  0  0  0  0  0  0  0  # atno 17321 bound_to 7965
  140.4004  143.2706  151.9954 LP  0  0  0  0  0  0  0  0  0  0  0  0  # atno 17342 bound_to 10162
  139.4815  144.6002  151.7619 LP  0  0  0  0  0  0  0  0  0  0  0  0  # atno 17343 bound_to 10162
  157.7295  131.0624  150.5772 LP  0  0  0  0  0  0  0  0  0  0  0  0  # atno 17370 bound_to 10713
  156.5872  130.4320  149.5952 LP  0  0  0  0  0  0  0  0  0  0  0  0  # atno 17371 bound_to 10713
  140.4934  134.1170  155.7237 LP  0  0  0  0  0  0  0  0  0  0  0  0  # atno 17394 bound_to 11000
  141.1554  133.8891  157.1990 LP  0  0  0  0  0  0  0  0  0  0  0  0  # atno 17395 bound_to 11000

$$$$
