AV-unprocessed.smi:3280|AV-procd|sdf|12554|dock4
  -GOLD-   2272018473D 1   1.00000     0.00000
 Structure written by MMmdl.
 38 39  0  0  0  0  0  0  0  0  1 V2000
  138.0294  138.4904  153.7068 C   0  0  0  0  0  0  0  0  0  0  0  0
  138.2831  137.1087  154.3272 C   0  0  0  0  0  0  0  0  0  0  0  0
  137.6066  136.9328  155.6951 C   0  0  0  0  0  0  0  0  0  0  0  0
  139.7457  136.7892  154.3846 C   0  0  0  0  0  0  0  0  0  0  0  0
  140.3565  136.5641  155.5424 N   0  0  0  0  0  0  0  0  0  0  0  0
  141.6775  136.2844  155.1646 O   0  0  0  0  0  0  0  0  0  0  0  0
  141.7068  136.3934  153.8147 C   0  0  0  0  0  0  0  0  0  0  0  0
  142.9797  136.0983  153.0948 C   0  0  0  0  0  0  0  0  0  0  0  0
  143.6260  134.7925  153.5743 C   0  0  0  0  0  0  0  0  0  0  0  0
  143.2317  133.6987  152.6972 N   0  0  0  0  0  0  0  0  0  0  0  0
  144.0527  133.6396  151.4928 C   0  0  2  0  0  0  0  0  0  0  0  0
  143.5332  132.5500  150.5268 C   0  0  0  0  0  0  0  0  0  0  0  0
  144.3686  132.4563  149.2397 C   0  0  0  0  0  0  0  0  0  0  0  0
  145.8361  132.1016  149.5145 C   0  0  0  0  0  0  0  0  0  0  0  0
  146.6395  133.3777  150.5204 S   0  0  0  0  0  0  0  0  0  0  0  0
  145.5014  133.3576  151.9322 C   0  0  0  0  0  0  0  0  0  0  0  0
  140.5283  136.6899  153.2732 N   0  0  0  0  0  0  0  0  0  0  0  0
  138.4630  138.5572  152.7084 H   0  0  0  0  0  0  0  0  0  0  0  0
  138.4660  139.2845  154.3135 H   0  0  0  0  0  0  0  0  0  0  0  0
  136.9615  138.6904  153.6170 H   0  0  0  0  0  0  0  0  0  0  0  0
  137.8182  136.3817  153.6591 H   0  0  0  0  0  0  0  0  0  0  0  0
  137.7473  135.9203  156.0750 H   0  0  0  0  0  0  0  0  0  0  0  0
  136.5337  137.1140  155.6277 H   0  0  0  0  0  0  0  0  0  0  0  0
  138.0142  137.6254  156.4322 H   0  0  0  0  0  0  0  0  0  0  0  0
  142.7704  136.0479  152.0255 H   0  0  0  0  0  0  0  0  0  0  0  0
  143.6636  136.9353  153.2427 H   0  0  0  0  0  0  0  0  0  0  0  0
  144.7098  134.9036  153.5839 H   0  0  0  0  0  0  0  0  0  0  0  0
  143.3084  134.5779  154.5956 H   0  0  0  0  0  0  0  0  0  0  0  0
  143.3300  132.8296  153.2027 H   0  0  0  0  0  0  0  0  0  0  0  0
  144.0298  134.6130  151.0001 H   0  0  0  0  0  0  0  0  0  0  0  0
  143.5267  131.5810  151.0280 H   0  0  0  0  0  0  0  0  0  0  0  0
  142.5008  132.7511  150.2425 H   0  0  0  0  0  0  0  0  0  0  0  0
  143.9338  131.7005  148.5851 H   0  0  0  0  0  0  0  0  0  0  0  0
  144.3131  133.3996  148.6950 H   0  0  0  0  0  0  0  0  0  0  0  0
  145.9059  131.1439  150.0314 H   0  0  0  0  0  0  0  0  0  0  0  0
  146.3824  132.0002  148.5765 H   0  0  0  0  0  0  0  0  0  0  0  0
  145.8386  134.1083  152.6480 H   0  0  0  0  0  0  0  0  0  0  0  0
  145.5740  132.3883  152.4275 H   0  0  0  0  0  0  0  0  0  0  0  0
  1  2  1  0  0  0  0
  1 18  1  0  0  0  0
  1 19  1  0  0  0  0
  1 20  1  0  0  0  0
  2  3  1  0  0  0  0
  2  4  1  0  0  0  0
  2 21  1  0  0  0  0
  3 22  1  0  0  0  0
  3 23  1  0  0  0  0
  3 24  1  0  0  0  0
  4 17  1  0  0  0  0
  4  5  2  0  0  0  0
  5  6  1  0  0  0  0
  6  7  1  0  0  0  0
  7  8  1  0  0  0  0
  7 17  2  0  0  0  0
  8  9  1  0  0  0  0
  8 25  1  0  0  0  0
  8 26  1  0  0  0  0
  9 10  1  0  0  0  0
  9 27  1  0  0  0  0
  9 28  1  0  0  0  0
 10 11  1  0  0  0  0
 10 29  1  0  0  0  0
 11 16  1  0  0  0  0
 11 12  1  0  0  0  0
 11 30  1  0  0  0  0
 12 13  1  0  0  0  0
 12 31  1  0  0  0  0
 12 32  1  0  0  0  0
 13 14  1  0  0  0  0
 13 33  1  0  0  0  0
 13 34  1  0  0  0  0
 14 15  1  0  0  0  0
 14 35  1  0  0  0  0
 14 36  1  0  0  0  0
 15 16  1  0  0  0  0
 16 37  1  0  0  0  0
 16 38  1  0  0  0  0
M  END
> <s_m_source_file>
AV-unprocessed.smi

> <i_m_source_file_index>
3280

> <i_lp_mmshare_version>
43012

> <i_f3d_flags>
0

> <s_epik_input>
W0NIM11bQ0hdKFtDSDNdKWMxbm9jKG4xKVtDSDJdW0NIMl1bTkhdW0NAQEhdMltDSDJdW0NIMl1bQ0gyXVNbQ0gyXTI=

> <s_epik_cmdline>
J2VwaWtfcHl0aG9uJywgJy1waCcsICc3LjAnLCAnLXRuJywgJzgnLCAnLW1hJywgJzIwMCcsICctbWV0YWxfYmluZGluZycsICctaW1hZScsICc8aW5maWxlLm1hZT4nLCAnLW9tYWUnLCAnPG91dGZpbGUubWFlPic=

> <r_lp_tautomer_probability>
1

> <r_epik_Ionization_Penalty>
2.40576

> <r_epik_Ionization_Penalty_Charging>
0

> <r_epik_Ionization_Penalty_Neutral>
2.40576

> <r_epik_State_Penalty>
2.56401

> <r_epik_Charging_Adjusted_Penalty>
2.56401

> <i_epik_Tot_Q>
0

> <i_epik_Tot_abs_Q>
0

> <r_epik_Metal_State_Penalty>
2.56401

> <b_epik_Metal_Only>
0

> <s_lp_Force_Field>
OPLS_2005

> <r_lp_Energy>
1.17925

> <b_lp_Chiralities_Consistent>
1

> <s_lp_Variant>
AV-unprocessed.smi:3280-3

> <Gold.Version>
5.8.1

> <Gold.Id.Protein>
6NUR|6NUR_protein|mol2

> <Gold.PLP.Fitness>
39.1345

> <Gold.PLP.PLP>
-35.0412

> <Gold.PLP.part.hbond>
-2.9565

> <Gold.PLP.part.metal>
0.0000

> <Gold.PLP.part.buried>
-5.1867

> <Gold.PLP.part.nonpolar>
-26.4158

> <Gold.PLP.part.repulsive>
0.1839

> <Gold.PLP.ligand.clash>
0.0000

> <Gold.PLP.ligand.torsion>
0.5470

> <Gold.PLP.Chemscore.Hbond>
1.6960

> <Gold.PLP.Chemscore.CHOScore>
0.0000

> <Gold.PLP.Chemscore.Metal>
0.0000

> <Gold.Chemscore.Hbonds>
donor molecule, donor type, donor heavy atom, donor atom, acceptor molecule, acceptor atom, score
      L1  H    10    29       P1 10957  0.90
      P1  H 11000 11005       L1     5  0.77

> <Gold.PLP.Chemscore.Internal.Correction>
0.0993

> <Gold.Rescore>
     Score         DG    S(hbond)    S(metal)    S(lipo)     H(rot)  DE(clash)    DE(int)     intcor
     13.14     -13.85       1.00        0.00      79.93       1.68       0.28       0.43       ----

> <Gold.Chemscore.Fitness>
13.1398

> <Gold.Chemscore.DG>
-13.8502

> <Gold.Chemscore.ZeroCoef>
-5.4800

> <Gold.Chemscore.Hbond>
0.9961

> <Gold.Chemscore.Metal>
0.0000

> <Gold.Chemscore.Lipo>
79.9342

> <Gold.Chemscore.Internal_Hbond>
0.0000

> <Gold.Chemscore.DEClash>
0.2759

> <Gold.Chemscore.DEInternal>
0.4346

> <Gold.Chemscore.Rot>
1.6833

> <Gold.Chemscore.Internal.Correction>
   9.000000E+99

> <Gold.Chemscore.Hbonds>
donor molecule, donor type, donor heavy atom, donor atom, acceptor molecule, acceptor atom, score
      L1  H    10    29       P1 10957  0.42
      P1  H 11000 11005       L1     5  0.17

> <Gold.Chemscore.Hbond.Weighted>
-3.3271

> <Gold.Chemscore.Metal.Weighted>
-0.0000

> <Gold.Chemscore.Lipo.Weighted>
-9.3523

> <Gold.Chemscore.Internal_Hbond.Weighted>
0.0000

> <Gold.Chemscore.DEClash.Weighted>
0.2759

> <Gold.Chemscore.DEInternal.Weighted>
0.4346

> <Gold.Chemscore.Rot.Weighted>
4.3092

> <Gold.Chemscore.Internal.Correction.Weighted>
   9.000000E+99

> <Gold.Protein.RotatedTorsions>
[ 6907 6896 6895 6894 ] final  144.33 input  -60.11 | X-H torsion
[ 7974 7965 7964 7962 ] final  -32.63 input  175.53 | X-H torsion
[ 8008 7997 7996 7995 ] final  104.43 input   59.86 | X-H torsion
[ 10167 10162 10161 10158 ] final   92.58 input  -65.29 | X-H torsion
[ 10718 10713 10712 10709 ] final -169.88 input   66.30 | X-H torsion
[ 10763 10752 10751 10750 ] final -174.67 input  -60.55 | X-H torsion
[ 11005 11000 10999 10996 ] final   94.34 input  -57.11 | X-H torsion

> <Gold.Protein.ActiveResidues>
 VAL166  LYS551  ARG553  GLY616  TRP617  ASP618  TYR619  PRO620  LYS621  CYS622 
 ASP623  PHE694  ASN695  SER759  ASP760  ASP761  ALA762  ILE779  LEU786  VAL792 
 PHE793  MET794  SER795  GLU796  ALA797  LYS798  CYS799  TRP800  GLU811  SER814 

> <Gold.Protein.RotatedAtoms>
  152.1950  133.4800  159.5027 H   0  0  0  0  0  0  0  0  0  0  0  0  # atno 6907 bound_to 6896
  150.6958  134.1664  159.4204 H   0  0  0  0  0  0  0  0  0  0  0  0  # atno 6908 bound_to 6896
  151.9579  135.0137  160.0596 H   0  0  0  0  0  0  0  0  0  0  0  0  # atno 6909 bound_to 6896
  146.0974  140.5816  142.8836 H   0  0  0  0  0  0  0  0  0  0  0  0  # atno 7974 bound_to 7965
  156.1572  140.3148  155.8745 H   0  0  0  0  0  0  0  0  0  0  0  0  # atno 8008 bound_to 7997
  155.3855  140.0490  157.3059 H   0  0  0  0  0  0  0  0  0  0  0  0  # atno 8009 bound_to 7997
  154.5112  140.2165  155.9164 H   0  0  0  0  0  0  0  0  0  0  0  0  # atno 8010 bound_to 7997
  139.8263  144.6708  150.9456 H   0  0  0  0  0  0  0  0  0  0  0  0  # atno 10167 bound_to 10162
  156.7180  130.9259  151.3095 H   0  0  0  0  0  0  0  0  0  0  0  0  # atno 10718 bound_to 10713
  154.5935  135.2847  155.0611 H   0  0  0  0  0  0  0  0  0  0  0  0  # atno 10763 bound_to 10752
  154.1902  135.6442  153.5062 H   0  0  0  0  0  0  0  0  0  0  0  0  # atno 10764 bound_to 10752
  153.0130  135.5444  154.6629 H   0  0  0  0  0  0  0  0  0  0  0  0  # atno 10765 bound_to 10752
  139.8799  134.8840  156.3850 H   0  0  0  0  0  0  0  0  0  0  0  0  # atno 11005 bound_to 11000
  144.7406  140.4932  143.6872 LP  0  0  0  0  0  0  0  0  0  0  0  0  # atno 17320 bound_to 7965
  145.5920  139.1496  143.3177 LP  0  0  0  0  0  0  0  0  0  0  0  0  # atno 17321 bound_to 7965
  140.7810  143.4043  151.1096 LP  0  0  0  0  0  0  0  0  0  0  0  0  # atno 17342 bound_to 10162
  139.7700  143.8508  152.3118 LP  0  0  0  0  0  0  0  0  0  0  0  0  # atno 17343 bound_to 10162
  157.6909  130.9233  150.0512 LP  0  0  0  0  0  0  0  0  0  0  0  0  # atno 17370 bound_to 10713
  156.1614  130.3644  149.9294 LP  0  0  0  0  0  0  0  0  0  0  0  0  # atno 17371 bound_to 10713
  140.9372  133.7539  156.0100 LP  0  0  0  0  0  0  0  0  0  0  0  0  # atno 17394 bound_to 11000
  140.8261  134.3232  157.5365 LP  0  0  0  0  0  0  0  0  0  0  0  0  # atno 17395 bound_to 11000

$$$$
