AV-unprocessed.smi:8|AV-procd|sdf|47|dock5
  -GOLD-   2262015163D 1   1.00000     0.00000
 Structure written by MMmdl.
 33 34  0  0  0  0  0  0  0  0  2 V2000
  152.3082  144.1942  159.5193 C   0  0  0  0  0  0  0  0  0  0  0  0
  152.2029  143.1134  160.6043 C   0  0  0  0  0  0  0  0  0  0  0  0
  152.9589  141.9089  160.2371 N   0  0  0  0  0  0  0  0  0  0  0  0
  153.9022  141.4296  161.1603 C   0  0  0  0  0  0  0  0  0  0  0  0
  154.6598  140.3392  160.9233 C   0  0  0  0  0  0  0  0  0  0  0  0
  155.6795  139.8276  161.9322 C   0  0  0  0  0  0  0  0  0  0  0  0
  156.2702  140.8839  162.7468 N   0  0  0  0  0  0  0  0  0  0  0  0
  156.3704  140.6821  164.1319 C   0  0  0  0  0  0  0  0  0  0  0  0
  156.8664  139.5067  164.5878 N   0  0  0  0  0  0  0  0  0  0  0  0
  156.9435  139.3462  165.9105 C   0  0  0  0  0  0  0  0  0  0  0  0
  156.5857  140.2299  166.8441 N   0  0  0  0  0  0  0  0  0  0  0  0
  156.0915  141.4071  166.4057 C   0  0  0  0  0  0  0  0  0  0  0  0
  155.9594  141.6952  165.0305 C   0  0  0  0  0  0  0  0  0  0  0  0
  155.3908  143.0206  164.5581 C   0  0  0  0  0  0  0  0  0  0  0  0
  154.4484  139.6371  159.6524 C   0  0  0  0  0  0  0  0  0  0  0  0
  155.1076  138.6309  159.3918 O   0  0  0  0  0  0  0  0  0  0  0  0
  153.5123  140.1367  158.7939 N   0  5  0  0  0  0  0  0  0  0  0  0
  152.7639  141.2512  159.0568 C   0  0  0  0  0  0  0  0  0  0  0  0
  151.9208  141.6790  158.2679 O   0  0  0  0  0  0  0  0  0  0  0  0
  151.7333  145.0779  159.7966 H   0  0  0  0  0  0  0  0  0  0  0  0
  151.9247  143.8336  158.5644 H   0  0  0  0  0  0  0  0  0  0  0  0
  153.3425  144.5052  159.3693 H   0  0  0  0  0  0  0  0  0  0  0  0
  152.5491  143.5106  161.5599 H   0  0  0  0  0  0  0  0  0  0  0  0
  151.1538  142.8613  160.7659 H   0  0  0  0  0  0  0  0  0  0  0  0
  153.9777  142.0059  162.0710 H   0  0  0  0  0  0  0  0  0  0  0  0
  155.2269  139.0680  162.5707 H   0  0  0  0  0  0  0  0  0  0  0  0
  156.4811  139.3255  161.3899 H   0  0  0  0  0  0  0  0  0  0  0  0
  156.0375  141.8248  162.4620 H   0  0  0  0  0  0  0  0  0  0  0  0
  157.3383  138.4043  166.2613 H   0  0  0  0  0  0  0  0  0  0  0  0
  155.7980  142.1222  167.1601 H   0  0  0  0  0  0  0  0  0  0  0  0
  155.1046  143.6497  165.4013 H   0  0  0  0  0  0  0  0  0  0  0  0
  154.5060  142.8561  163.9419 H   0  0  0  0  0  0  0  0  0  0  0  0
  156.1294  143.5612  163.9656 H   0  0  0  0  0  0  0  0  0  0  0  0
  1  2  1  0  0  0  0
  1 20  1  0  0  0  0
  1 21  1  0  0  0  0
  1 22  1  0  0  0  0
  2  3  1  0  0  0  0
  2 23  1  0  0  0  0
  2 24  1  0  0  0  0
  3 18  1  0  0  0  0
  3  4  1  0  0  0  0
  4  5  2  0  0  0  0
  4 25  1  0  0  0  0
  5  6  1  0  0  0  0
  5 15  1  0  0  0  0
  6  7  1  0  0  0  0
  6 26  1  0  0  0  0
  6 27  1  0  0  0  0
  7  8  1  0  0  0  0
  7 28  1  0  0  0  0
  8 13  1  0  0  0  0
  8  9  2  0  0  0  0
  9 10  1  0  0  0  0
 10 11  2  0  0  0  0
 10 29  1  0  0  0  0
 11 12  1  0  0  0  0
 12 13  2  0  0  0  0
 12 30  1  0  0  0  0
 13 14  1  0  0  0  0
 14 31  1  0  0  0  0
 14 32  1  0  0  0  0
 14 33  1  0  0  0  0
 15 16  2  0  0  0  0
 15 17  1  0  0  0  0
 17 18  1  0  0  0  0
 18 19  2  0  0  0  0
M  CHG  1  17  -1
M  END
> <s_m_source_file>
AV-unprocessed.smi

> <i_m_source_file_index>
8

> <i_lp_mmshare_version>
43012

> <i_f3d_flags>
0

> <s_epik_input>
W0NIM11bQ0gyXW4xW2NIXWMoYyg9TylbbkhdYzE9TylbQ0gyXVtOSF1jMm5bY0hdbltjSF1jMltDSDNd

> <s_epik_cmdline>
J2VwaWtfcHl0aG9uJywgJy1waCcsICc3LjAnLCAnLXRuJywgJzgnLCAnLW1hJywgJzIwMCcsICctbWV0YWxfYmluZGluZycsICctaW1hZScsICc8aW5maWxlLm1hZT4nLCAnLW9tYWUnLCAnPG91dGZpbGUubWFlPic=

> <r_lp_tautomer_probability>
0.999537

> <r_epik_Ionization_Penalty>
4.00162

> <r_epik_Ionization_Penalty_Charging>
4.85554e-07

> <r_epik_Ionization_Penalty_Neutral>
4.00162

> <r_epik_State_Penalty>
4.01059

> <r_epik_Charging_Adjusted_Penalty>
4.01059

> <i_epik_Tot_Q>
-1

> <i_epik_Tot_abs_Q>
1

> <r_epik_Metal_State_Penalty>
0.642438

> <b_epik_Metal_Only>
1

> <s_lp_Force_Field>
OPLS_2005

> <r_lp_Energy>
12.8082

> <b_lp_Chiralities_Consistent>
1

> <s_lp_Variant>
AV-unprocessed.smi:8-3

> <Gold.Version>
5.8.1

> <Gold.Id.Protein>
6NUR|6NUR_protein|mol2

> <Gold.PLP.Fitness>
42.1234

> <Gold.PLP.PLP>
-38.0262

> <Gold.PLP.part.hbond>
-1.9344

> <Gold.PLP.part.metal>
0.0000

> <Gold.PLP.part.buried>
-4.1186

> <Gold.PLP.part.nonpolar>
-31.3990

> <Gold.PLP.part.repulsive>
0.0704

> <Gold.PLP.ligand.clash>
0.0000

> <Gold.PLP.ligand.torsion>
0.8823

> <Gold.PLP.Chemscore.Hbond>
1.9520

> <Gold.PLP.Chemscore.CHOScore>
0.0000

> <Gold.PLP.Chemscore.Metal>
0.0000

> <Gold.Chemscore.Hbonds>
donor molecule, donor type, donor heavy atom, donor atom, acceptor molecule, acceptor atom, score
      P1  H  7997  8008       L1    17  1.24

> <Gold.PLP.Chemscore.Internal.Correction>
0.0058

> <Gold.Rescore>
     Score         DG    S(hbond)    S(metal)    S(lipo)     H(rot)  DE(clash)    DE(int)     intcor
      8.36     -10.96       0.69        0.00      72.83       2.09       1.67       0.93       ----

> <Gold.Chemscore.Fitness>
8.3590

> <Gold.Chemscore.DG>
-10.9609

> <Gold.Chemscore.ZeroCoef>
-5.4800

> <Gold.Chemscore.Hbond>
0.6899

> <Gold.Chemscore.Metal>
0.0000

> <Gold.Chemscore.Lipo>
72.8279

> <Gold.Chemscore.Internal_Hbond>
0.0000

> <Gold.Chemscore.DEClash>
1.6686

> <Gold.Chemscore.DEInternal>
0.9333

> <Gold.Chemscore.Rot>
2.0876

> <Gold.Chemscore.Internal.Correction>
   9.000000E+99

> <Gold.Chemscore.Hbonds>
donor molecule, donor type, donor heavy atom, donor atom, acceptor molecule, acceptor atom, score
      P1  H  7997  8008       L1    17  0.05

> <Gold.Chemscore.Hbond.Weighted>
-2.3042

> <Gold.Chemscore.Metal.Weighted>
-0.0000

> <Gold.Chemscore.Lipo.Weighted>
-8.5209

> <Gold.Chemscore.Internal_Hbond.Weighted>
0.0000

> <Gold.Chemscore.DEClash.Weighted>
1.6686

> <Gold.Chemscore.DEInternal.Weighted>
0.9333

> <Gold.Chemscore.Rot.Weighted>
5.3442

> <Gold.Chemscore.Internal.Correction.Weighted>
   9.000000E+99

> <Gold.Protein.RotatedTorsions>
[ 6907 6896 6895 6894 ] final   -7.05 input  -60.11 | X-H torsion
[ 7974 7965 7964 7962 ] final  -32.92 input  175.53 | X-H torsion
[ 8008 7997 7996 7995 ] final -100.69 input   59.86 | X-H torsion
[ 10167 10162 10161 10158 ] final -125.80 input  -65.29 | X-H torsion
[ 10718 10713 10712 10709 ] final   -4.07 input   66.30 | X-H torsion
[ 10763 10752 10751 10750 ] final -108.56 input  -60.55 | X-H torsion
[ 11005 11000 10999 10996 ] final   19.96 input  -57.11 | X-H torsion

> <Gold.Protein.ActiveResidues>
 VAL166  LYS551  ARG553  GLY616  TRP617  ASP618  TYR619  PRO620  LYS621  CYS622 
 ASP623  PHE694  ASN695  SER759  ASP760  ASP761  ALA762  ILE779  LEU786  VAL792 
 PHE793  MET794  SER795  GLU796  ALA797  LYS798  CYS799  TRP800  GLU811  SER814 

> <Gold.Protein.RotatedAtoms>
  151.4558  135.1034  159.9710 H   0  0  0  0  0  0  0  0  0  0  0  0  # atno 6907 bound_to 6896
  152.4871  133.8398  159.7157 H   0  0  0  0  0  0  0  0  0  0  0  0  # atno 6908 bound_to 6896
  150.8991  133.7082  159.2911 H   0  0  0  0  0  0  0  0  0  0  0  0  # atno 6909 bound_to 6896
  146.0951  140.5853  142.8846 H   0  0  0  0  0  0  0  0  0  0  0  0  # atno 7974 bound_to 7965
  154.8321  140.0439  157.1484 H   0  0  0  0  0  0  0  0  0  0  0  0  # atno 8008 bound_to 7997
  154.9141  140.3017  155.5230 H   0  0  0  0  0  0  0  0  0  0  0  0  # atno 8009 bound_to 7997
  156.2987  140.2353  156.4183 H   0  0  0  0  0  0  0  0  0  0  0  0  # atno 8010 bound_to 7997
  139.9782  143.5771  152.2388 H   0  0  0  0  0  0  0  0  0  0  0  0  # atno 10167 bound_to 10162
  156.7667  130.5287  149.5775 H   0  0  0  0  0  0  0  0  0  0  0  0  # atno 10718 bound_to 10713
  154.8142  135.4633  154.0599 H   0  0  0  0  0  0  0  0  0  0  0  0  # atno 10763 bound_to 10752
  153.2005  135.6868  153.8244 H   0  0  0  0  0  0  0  0  0  0  0  0  # atno 10764 bound_to 10752
  153.7730  135.3267  155.3332 H   0  0  0  0  0  0  0  0  0  0  0  0  # atno 10765 bound_to 10752
  140.4079  134.1649  155.7666 H   0  0  0  0  0  0  0  0  0  0  0  0  # atno 11005 bound_to 11000
  144.7389  140.4888  143.6883 LP  0  0  0  0  0  0  0  0  0  0  0  0  # atno 17320 bound_to 7965
  145.5963  139.1500  143.3154 LP  0  0  0  0  0  0  0  0  0  0  0  0  # atno 17321 bound_to 7965
  139.6430  144.7656  151.2301 LP  0  0  0  0  0  0  0  0  0  0  0  0  # atno 17342 bound_to 10162
  140.7498  143.6286  150.8444 LP  0  0  0  0  0  0  0  0  0  0  0  0  # atno 17343 bound_to 10162
  156.1304  130.6174  151.0325 LP  0  0  0  0  0  0  0  0  0  0  0  0  # atno 17370 bound_to 10713
  157.6710  131.0861  150.7613 LP  0  0  0  0  0  0  0  0  0  0  0  0  # atno 17371 bound_to 10713
  141.1832  133.8369  157.1183 LP  0  0  0  0  0  0  0  0  0  0  0  0  # atno 17394 bound_to 11000
  140.0288  134.9911  157.0740 LP  0  0  0  0  0  0  0  0  0  0  0  0  # atno 17395 bound_to 11000

$$$$
