AV-unprocessed.smi:1184|AV-procd|sdf|4971|dock7
  -GOLD-   22720 3563D 1   1.00000     0.00000
 Structure written by MMmdl.
 43 44  0  0  0  0  0  0  0  0  2 V2000
  144.1695  132.8079  149.9842 C   0  0  0  0  0  0  0  0  0  0  0  0
  143.3480  132.6708  151.2735 C   0  0  0  0  0  0  0  0  0  0  0  0
  144.0816  133.1689  152.4614 N   0  3  1  0  0  0  0  0  0  0  0  0
  145.5174  132.8101  152.5037 C   0  0  0  0  0  0  0  0  0  0  0  0
  146.2038  133.9564  153.2412 C   0  0  0  0  0  0  0  0  0  0  0  0
  145.4150  135.1737  152.7686 C   0  0  2  0  0  0  0  0  0  0  0  0
  145.5914  136.4165  153.6623 C   0  0  0  0  0  0  0  0  0  0  0  0
  146.9608  136.9210  153.6376 N   0  0  0  0  0  0  0  0  0  0  0  0
  147.4458  137.9066  154.4090 C   0  0  0  0  0  0  0  0  0  0  0  0
  146.7675  138.5232  155.2301 O   0  0  0  0  0  0  0  0  0  0  0  0
  148.9240  138.2512  154.2273 C   0  0  0  0  0  0  0  0  0  0  0  0
  149.1157  139.7425  154.3346 C   0  0  0  0  0  0  0  0  0  0  0  0
  148.3067  140.7797  153.7849 C   0  0  0  0  0  0  0  0  0  0  0  0
  147.0579  140.6664  152.9584 C   0  0  0  0  0  0  0  0  0  0  0  0
  148.7742  141.9802  154.0817 N   0  0  0  0  0  0  0  0  0  0  0  0
  149.9238  141.7661  154.8474 O   0  0  0  0  0  0  0  0  0  0  0  0
  150.1061  140.4284  154.9837 C   0  0  0  0  0  0  0  0  0  0  0  0
  151.2931  139.9963  155.7762 C   0  0  0  0  0  0  0  0  0  0  0  0
  143.9792  134.6333  152.6709 C   0  0  0  0  0  0  0  0  0  0  0  0
  143.6296  132.3838  149.1373 H   0  0  0  0  0  0  0  0  0  0  0  0
  145.1219  132.2832  150.0660 H   0  0  0  0  0  0  0  0  0  0  0  0
  144.3792  133.8515  149.7480 H   0  0  0  0  0  0  0  0  0  0  0  0
  142.3955  133.1939  151.1769 H   0  0  0  0  0  0  0  0  0  0  0  0
  143.1134  131.6163  151.4252 H   0  0  0  0  0  0  0  0  0  0  0  0
  145.6758  131.8471  152.9899 H   0  0  0  0  0  0  0  0  0  0  0  0
  145.9160  132.7449  151.4899 H   0  0  0  0  0  0  0  0  0  0  0  0
  146.0943  133.8259  154.3188 H   0  0  0  0  0  0  0  0  0  0  0  0
  147.2682  134.0260  153.0145 H   0  0  0  0  0  0  0  0  0  0  0  0
  145.7558  135.4152  151.7601 H   0  0  0  0  0  0  0  0  0  0  0  0
  144.8841  137.1991  153.3823 H   0  0  0  0  0  0  0  0  0  0  0  0
  145.3598  136.1549  154.6951 H   0  0  0  0  0  0  0  0  0  0  0  0
  147.5981  136.4696  152.9973 H   0  0  0  0  0  0  0  0  0  0  0  0
  149.5166  137.7142  154.9690 H   0  0  0  0  0  0  0  0  0  0  0  0
  149.2547  137.8797  153.2566 H   0  0  0  0  0  0  0  0  0  0  0  0
  146.9169  139.6537  152.5817 H   0  0  0  0  0  0  0  0  0  0  0  0
  147.0935  141.3339  152.0971 H   0  0  0  0  0  0  0  0  0  0  0  0
  146.1770  140.9271  153.5456 H   0  0  0  0  0  0  0  0  0  0  0  0
  151.5441  138.9558  155.5708 H   0  0  0  0  0  0  0  0  0  0  0  0
  151.0988  140.0926  156.8443 H   0  0  0  0  0  0  0  0  0  0  0  0
  152.1640  140.6053  155.5333 H   0  0  0  0  0  0  0  0  0  0  0  0
  143.4191  135.1376  151.8818 H   0  0  0  0  0  0  0  0  0  0  0  0
  143.4412  134.7909  153.6060 H   0  0  0  0  0  0  0  0  0  0  0  0
  143.6518  132.7462  153.2720 H   0  0  0  0  0  0  0  0  0  0  0  0
  1  2  1  0  0  0  0
  1 20  1  0  0  0  0
  1 21  1  0  0  0  0
  1 22  1  0  0  0  0
  2  3  1  0  0  0  0
  2 23  1  0  0  0  0
  2 24  1  0  0  0  0
  3 19  1  0  0  0  0
  3  4  1  0  0  0  0
  3 43  1  0  0  0  0
  4  5  1  0  0  0  0
  4 25  1  0  0  0  0
  4 26  1  0  0  0  0
  5  6  1  0  0  0  0
  5 27  1  0  0  0  0
  5 28  1  0  0  0  0
  6  7  1  0  0  0  0
  6 19  1  0  0  0  0
  6 29  1  0  0  0  0
  7  8  1  0  0  0  0
  7 30  1  0  0  0  0
  7 31  1  0  0  0  0
  8  9  1  0  0  0  0
  8 32  1  0  0  0  0
  9 10  2  0  0  0  0
  9 11  1  0  0  0  0
 11 12  1  0  0  0  0
 11 33  1  0  0  0  0
 11 34  1  0  0  0  0
 12 17  2  0  0  0  0
 12 13  1  0  0  0  0
 13 14  1  0  0  0  0
 13 15  2  0  0  0  0
 14 35  1  0  0  0  0
 14 36  1  0  0  0  0
 14 37  1  0  0  0  0
 15 16  1  0  0  0  0
 16 17  1  0  0  0  0
 17 18  1  0  0  0  0
 18 38  1  0  0  0  0
 18 39  1  0  0  0  0
 18 40  1  0  0  0  0
 19 41  1  0  0  0  0
 19 42  1  0  0  0  0
M  CHG  1   3   1
M  END
> <s_m_source_file>
AV-unprocessed.smi

> <i_m_source_file_index>
1184

> <i_lp_mmshare_version>
43012

> <i_f3d_flags>
0

> <s_epik_input>
W0NIM11bQ0gyXU4xW0NIMl1bQ0gyXVtDQEhdKFtDSDJdMSlbQ0gyXVtOSF1DKD1PKVtDSDJdYzJjKFtDSDNdKW5vYzJbQ0gzXQ==

> <s_epik_cmdline>
J2VwaWtfcHl0aG9uJywgJy1waCcsICc3LjAnLCAnLXRuJywgJzgnLCAnLW1hJywgJzIwMCcsICctbWV0YWxfYmluZGluZycsICctaW1hZScsICc8aW5maWxlLm1hZT4nLCAnLW9tYWUnLCAnPG91dGZpbGUubWFlPic=

> <r_epik_Ionization_Penalty>
0.000590726

> <r_epik_Ionization_Penalty_Charging>
0.000590692

> <r_epik_Ionization_Penalty_Neutral>
3.44741e-08

> <r_epik_State_Penalty>
0.000371644

> <r_epik_Charging_Adjusted_Penalty>
0.000962336

> <i_epik_Tot_Q>
1

> <i_epik_Tot_abs_Q>
1

> <r_epik_Metal_State_Penalty>
-0

> <b_epik_Metal_Only>
0

> <s_lp_Force_Field>
OPLS_2005

> <r_lp_Energy>
22.6293

> <b_lp_Chiralities_Consistent>
1

> <s_lp_Variant>
AV-unprocessed.smi:1184-3

> <Gold.Version>
5.8.1

> <Gold.Id.Protein>
6NUR|6NUR_protein|mol2

> <Gold.PLP.Fitness>
35.8238

> <Gold.PLP.PLP>
-27.5351

> <Gold.PLP.part.hbond>
-4.1278

> <Gold.PLP.part.metal>
0.0000

> <Gold.PLP.part.buried>
0.5836

> <Gold.PLP.part.nonpolar>
-24.8463

> <Gold.PLP.part.repulsive>
0.4197

> <Gold.PLP.ligand.clash>
0.0000

> <Gold.PLP.ligand.torsion>
0.8003

> <Gold.PLP.Chemscore.Hbond>
3.2843

> <Gold.PLP.Chemscore.CHOScore>
0.0000

> <Gold.PLP.Chemscore.Metal>
0.0000

> <Gold.Chemscore.Hbonds>
donor molecule, donor type, donor heavy atom, donor atom, acceptor molecule, acceptor atom, score
      L1  H     3    43       P1 10957  1.95
      L1  H     8    32       P1  7948  1.00
      P1  H  8011  8017       L1    15  0.29

> <Gold.PLP.Chemscore.Internal.Correction>
0.0365

> <Gold.Rescore>
     Score         DG    S(hbond)    S(metal)    S(lipo)     H(rot)  DE(clash)    DE(int)     intcor
     14.71     -15.68       1.86        0.00      70.58       1.67       0.21       0.75       ----

> <Gold.Chemscore.Fitness>
14.7145

> <Gold.Chemscore.DG>
-15.6825

> <Gold.Chemscore.ZeroCoef>
-5.4800

> <Gold.Chemscore.Hbond>
1.8610

> <Gold.Chemscore.Metal>
0.0000

> <Gold.Chemscore.Lipo>
70.5810

> <Gold.Chemscore.Internal_Hbond>
0.0000

> <Gold.Chemscore.DEClash>
0.2149

> <Gold.Chemscore.DEInternal>
0.7531

> <Gold.Chemscore.Rot>
1.6684

> <Gold.Chemscore.Internal.Correction>
   9.000000E+99

> <Gold.Chemscore.Hbonds>
donor molecule, donor type, donor heavy atom, donor atom, acceptor molecule, acceptor atom, score
      L1  H     3    43       P1 10957  0.41
      L1  H     8    32       P1  7948  1.00
      P1  H  8011  8017       L1    15  0.01

> <Gold.Chemscore.Hbond.Weighted>
-6.2157

> <Gold.Chemscore.Metal.Weighted>
-0.0000

> <Gold.Chemscore.Lipo.Weighted>
-8.2580

> <Gold.Chemscore.Internal_Hbond.Weighted>
0.0000

> <Gold.Chemscore.DEClash.Weighted>
0.2149

> <Gold.Chemscore.DEInternal.Weighted>
0.7531

> <Gold.Chemscore.Rot.Weighted>
4.2712

> <Gold.Chemscore.Internal.Correction.Weighted>
   9.000000E+99

> <Gold.Protein.RotatedTorsions>
[ 6907 6896 6895 6894 ] final   83.97 input  -60.11 | X-H torsion
[ 7974 7965 7964 7962 ] final -123.87 input  175.53 | X-H torsion
[ 8008 7997 7996 7995 ] final -114.47 input   59.86 | X-H torsion
[ 10167 10162 10161 10158 ] final  -85.07 input  -65.29 | X-H torsion
[ 10718 10713 10712 10709 ] final  -22.52 input   66.30 | X-H torsion
[ 10763 10752 10751 10750 ] final  178.02 input  -60.55 | X-H torsion
[ 11005 11000 10999 10996 ] final   49.87 input  -57.11 | X-H torsion

> <Gold.Protein.ActiveResidues>
 VAL166  LYS551  ARG553  GLY616  TRP617  ASP618  TYR619  PRO620  LYS621  CYS622 
 ASP623  PHE694  ASN695  SER759  ASP760  ASP761  ALA762  ILE779  LEU786  VAL792 
 PHE793  MET794  SER795  GLU796  ALA797  LYS798  CYS799  TRP800  GLU811  SER814 

> <Gold.Protein.RotatedAtoms>
  152.5341  134.2814  159.9008 H   0  0  0  0  0  0  0  0  0  0  0  0  # atno 6907 bound_to 6896
  151.2768  133.4222  159.2632 H   0  0  0  0  0  0  0  0  0  0  0  0  # atno 6908 bound_to 6896
  151.0319  134.9560  159.8172 H   0  0  0  0  0  0  0  0  0  0  0  0  # atno 6909 bound_to 6896
  145.0141  140.7931  143.4421 H   0  0  0  0  0  0  0  0  0  0  0  0  # atno 7974 bound_to 7965
  155.0369  140.0392  157.2495 H   0  0  0  0  0  0  0  0  0  0  0  0  # atno 8008 bound_to 7997
  154.7249  140.2719  155.6484 H   0  0  0  0  0  0  0  0  0  0  0  0  # atno 8009 bound_to 7997
  156.2826  140.2695  156.1932 H   0  0  0  0  0  0  0  0  0  0  0  0  # atno 8010 bound_to 7997
  140.4073  143.2637  151.9064 H   0  0  0  0  0  0  0  0  0  0  0  0  # atno 10167 bound_to 10162
  156.5034  130.4593  149.6688 H   0  0  0  0  0  0  0  0  0  0  0  0  # atno 10718 bound_to 10713
  154.5022  135.2784  155.1411 H   0  0  0  0  0  0  0  0  0  0  0  0  # atno 10763 bound_to 10752
  154.3040  135.6242  153.5441 H   0  0  0  0  0  0  0  0  0  0  0  0  # atno 10764 bound_to 10752
  152.9904  135.5704  154.5467 H   0  0  0  0  0  0  0  0  0  0  0  0  # atno 10765 bound_to 10752
  140.1066  134.5011  155.8715 H   0  0  0  0  0  0  0  0  0  0  0  0  # atno 11005 bound_to 11000
  145.1983  139.2265  143.5206 LP  0  0  0  0  0  0  0  0  0  0  0  0  # atno 17320 bound_to 7965
  146.3475  140.1795  142.8589 LP  0  0  0  0  0  0  0  0  0  0  0  0  # atno 17321 bound_to 7965
  139.4783  144.5573  151.8294 LP  0  0  0  0  0  0  0  0  0  0  0  0  # atno 17342 bound_to 10162
  140.4676  144.1633  150.5914 LP  0  0  0  0  0  0  0  0  0  0  0  0  # atno 17343 bound_to 10162
  156.3310  130.7332  151.2261 LP  0  0  0  0  0  0  0  0  0  0  0  0  # atno 17370 bound_to 10713
  157.7460  131.0429  150.4720 LP  0  0  0  0  0  0  0  0  0  0  0  0  # atno 17371 bound_to 10713
  141.2119  133.6713  156.6622 LP  0  0  0  0  0  0  0  0  0  0  0  0  # atno 17394 bound_to 11000
  140.3148  134.8056  157.4205 LP  0  0  0  0  0  0  0  0  0  0  0  0  # atno 17395 bound_to 11000

$$$$
