AV-unprocessed.smi:2942|AV-procd|sdf|11267|dock5
  -GOLD-   2272016163D 1   1.00000     0.00000
 Structure written by MMmdl.
 46 49  0  0  0  0  0  0  0  0  2 V2000
  147.6377  140.3039  157.9629 O   0  0  0  0  0  0  0  0  0  0  0  0
  147.4633  141.4550  157.5619 C   0  0  0  0  0  0  0  0  0  0  0  0
  148.3530  142.0780  156.7712 N   0  0  0  0  0  0  0  0  0  0  0  0
  149.5695  141.4773  156.2330 C   0  0  0  0  0  0  0  0  0  0  0  0
  150.6171  141.1515  157.3191 C   0  0  0  0  0  0  0  0  0  0  0  0
  151.2701  142.3791  157.9329 C   0  0  0  0  0  0  0  0  0  0  0  0
  152.2695  142.2791  158.9247 C   0  0  0  0  0  0  0  0  0  0  0  0
  152.8235  143.4580  159.4663 C   0  0  0  0  0  0  0  0  0  0  0  0
  152.3654  144.7108  159.0078 C   0  0  0  0  0  0  0  0  0  0  0  0
  151.3654  144.7532  158.0150 C   0  0  0  0  0  0  0  0  0  0  0  0
  150.8631  143.6017  157.5187 N   0  3  0  0  0  0  0  0  0  0  0  0
  146.1668  142.2091  157.9382 C   0  0  0  0  0  0  0  0  0  0  0  0
  146.5299  143.4125  158.8520 C   0  0  0  0  0  0  0  0  0  0  0  0
  145.2634  144.2193  159.2080 C   0  0  1  0  0  0  0  0  0  0  0  0
  144.6137  144.7547  157.9152 C   0  0  0  0  0  0  0  0  0  0  0  0
  144.2278  143.5660  157.0101 C   0  0  2  0  0  0  0  0  0  0  0  0
  143.2243  142.6577  157.7498 C   0  0  0  0  0  0  0  0  0  0  0  0
  143.8755  142.1278  159.0441 C   0  0  2  0  0  0  0  0  0  0  0  0
  144.2636  143.3118  159.9540 C   0  0  0  0  0  0  0  0  0  0  0  0
  145.1378  141.3131  158.6912 C   0  0  0  0  0  0  0  0  0  0  0  0
  145.4933  142.7573  156.6503 C   0  0  0  0  0  0  0  0  0  0  0  0
  148.1520  143.0279  156.4928 H   0  0  0  0  0  0  0  0  0  0  0  0
  149.2790  140.5573  155.7254 H   0  0  0  0  0  0  0  0  0  0  0  0
  150.0025  142.1256  155.4695 H   0  0  0  0  0  0  0  0  0  0  0  0
  150.1502  140.5644  158.1107 H   0  0  0  0  0  0  0  0  0  0  0  0
  151.3981  140.5157  156.8996 H   0  0  0  0  0  0  0  0  0  0  0  0
  152.6063  141.3122  159.2695 H   0  0  0  0  0  0  0  0  0  0  0  0
  153.5888  143.4018  160.2265 H   0  0  0  0  0  0  0  0  0  0  0  0
  152.7746  145.6250  159.4123 H   0  0  0  0  0  0  0  0  0  0  0  0
  150.9542  145.6651  157.6069 H   0  0  0  0  0  0  0  0  0  0  0  0
  147.0117  143.0635  159.7666 H   0  0  0  0  0  0  0  0  0  0  0  0
  147.2499  144.0691  158.3607 H   0  0  0  0  0  0  0  0  0  0  0  0
  145.5374  145.0581  159.8486 H   0  0  0  0  0  0  0  0  0  0  0  0
  143.7317  145.3505  158.1539 H   0  0  0  0  0  0  0  0  0  0  0  0
  145.3026  145.4195  157.3925 H   0  0  0  0  0  0  0  0  0  0  0  0
  143.7680  143.9430  156.0962 H   0  0  0  0  0  0  0  0  0  0  0  0
  142.3144  143.2118  157.9841 H   0  0  0  0  0  0  0  0  0  0  0  0
  142.9235  141.8272  157.1098 H   0  0  0  0  0  0  0  0  0  0  0  0
  143.1661  141.4869  159.5686 H   0  0  0  0  0  0  0  0  0  0  0  0
  144.7041  142.9469  160.8827 H   0  0  0  0  0  0  0  0  0  0  0  0
  143.3756  143.8790  160.2359 H   0  0  0  0  0  0  0  0  0  0  0  0
  144.8540  140.4552  158.0792 H   0  0  0  0  0  0  0  0  0  0  0  0
  145.5731  140.9109  159.6075 H   0  0  0  0  0  0  0  0  0  0  0  0
  146.1825  143.3929  156.0919 H   0  0  0  0  0  0  0  0  0  0  0  0
  145.2281  141.9363  155.9823 H   0  0  0  0  0  0  0  0  0  0  0  0
  150.1379  143.6550  156.8028 H   0  0  0  0  0  0  0  0  0  0  0  0
  1  2  2  0  0  0  0
  2  3  1  0  0  0  0
  2 12  1  0  0  0  0
  3  4  1  0  0  0  0
  3 22  1  0  0  0  0
  4  5  1  0  0  0  0
  4 23  1  0  0  0  0
  4 24  1  0  0  0  0
  5  6  1  0  0  0  0
  5 25  1  0  0  0  0
  5 26  1  0  0  0  0
  6 11  1  0  0  0  0
  6  7  2  0  0  0  0
  7  8  1  0  0  0  0
  7 27  1  0  0  0  0
  8  9  2  0  0  0  0
  8 28  1  0  0  0  0
  9 10  1  0  0  0  0
  9 29  1  0  0  0  0
 10 11  2  0  0  0  0
 10 30  1  0  0  0  0
 11 46  1  0  0  0  0
 12 20  1  0  0  0  0
 12 21  1  0  0  0  0
 12 13  1  0  0  0  0
 13 14  1  0  0  0  0
 13 31  1  0  0  0  0
 13 32  1  0  0  0  0
 14 19  1  0  0  0  0
 14 15  1  0  0  0  0
 14 33  1  0  0  0  0
 15 16  1  0  0  0  0
 15 34  1  0  0  0  0
 15 35  1  0  0  0  0
 16 17  1  0  0  0  0
 16 21  1  0  0  0  0
 16 36  1  0  0  0  0
 17 18  1  0  0  0  0
 17 37  1  0  0  0  0
 17 38  1  0  0  0  0
 18 19  1  0  0  0  0
 18 20  1  0  0  0  0
 18 39  1  0  0  0  0
 19 40  1  0  0  0  0
 19 41  1  0  0  0  0
 20 42  1  0  0  0  0
 20 43  1  0  0  0  0
 21 44  1  0  0  0  0
 21 45  1  0  0  0  0
M  CHG  1  11   1
M  END
> <s_m_source_file>
AV-unprocessed.smi

> <i_m_source_file_index>
2942

> <i_lp_mmshare_version>
43012

> <i_f3d_flags>
0

> <s_epik_input>
W0NIMl0xW0NASF0oW0NIMl0yKVtDSDJdW0NASF0oW0NIMl0zKVtDSDJdW0NAQEhdMVtDSDJdQzIzQyg9TylbTkhdW0NIMl1bQ0gyXWM0W2NIXVtjSF1bY0hdW2NIXW40

> <s_epik_cmdline>
J2VwaWtfcHl0aG9uJywgJy1waCcsICc3LjAnLCAnLXRuJywgJzgnLCAnLW1hJywgJzIwMCcsICctbWV0YWxfYmluZGluZycsICctaW1hZScsICc8aW5maWxlLm1hZT4nLCAnLW9tYWUnLCAnPG91dGZpbGUubWFlPic=

> <r_epik_Ionization_Penalty>
1.81477

> <r_epik_Ionization_Penalty_Charging>
1.81477

> <r_epik_Ionization_Penalty_Neutral>
2.68418e-08

> <r_epik_State_Penalty>
1.92951

> <r_epik_Charging_Adjusted_Penalty>
3.74429

> <i_epik_Tot_Q>
1

> <i_epik_Tot_abs_Q>
1

> <r_epik_Metal_State_Penalty>
1.95679

> <b_epik_Metal_Only>
0

> <s_lp_Force_Field>
OPLS_2005

> <r_lp_Energy>
40.8466

> <b_lp_Chiralities_Consistent>
1

> <s_lp_Variant>
AV-unprocessed.smi:2942-2

> <Gold.Version>
5.8.1

> <Gold.Id.Protein>
6NUR|6NUR_protein|mol2

> <Gold.PLP.Fitness>
40.5059

> <Gold.PLP.PLP>
-31.9761

> <Gold.PLP.part.hbond>
-3.0000

> <Gold.PLP.part.metal>
0.0000

> <Gold.PLP.part.buried>
-4.8223

> <Gold.PLP.part.nonpolar>
-24.3544

> <Gold.PLP.part.repulsive>
0.0092

> <Gold.PLP.ligand.clash>
0.0000

> <Gold.PLP.ligand.torsion>
0.2083

> <Gold.PLP.Chemscore.Hbond>
2.9760

> <Gold.PLP.Chemscore.CHOScore>
0.0000

> <Gold.PLP.Chemscore.Metal>
0.0000

> <Gold.Chemscore.Hbonds>
donor molecule, donor type, donor heavy atom, donor atom, acceptor molecule, acceptor atom, score
      L1  H     3    22       P1  8028  0.94
      L1  H    11    46       P1  8028  1.98

> <Gold.PLP.Chemscore.Internal.Correction>
0.0183

> <Gold.Rescore>
     Score         DG    S(hbond)    S(metal)    S(lipo)     H(rot)  DE(clash)    DE(int)     intcor
     16.83     -17.18       1.53        0.00      87.21       1.41       0.11       0.24       ----

> <Gold.Chemscore.Fitness>
16.8348

> <Gold.Chemscore.DG>
-17.1850

> <Gold.Chemscore.ZeroCoef>
-5.4800

> <Gold.Chemscore.Hbond>
1.5337

> <Gold.Chemscore.Metal>
0.0000

> <Gold.Chemscore.Lipo>
87.2084

> <Gold.Chemscore.Internal_Hbond>
0.0000

> <Gold.Chemscore.DEClash>
0.1120

> <Gold.Chemscore.DEInternal>
0.2381

> <Gold.Chemscore.Rot>
1.4145

> <Gold.Chemscore.Internal.Correction>
   9.000000E+99

> <Gold.Chemscore.Hbonds>
donor molecule, donor type, donor heavy atom, donor atom, acceptor molecule, acceptor atom, score
      L1  H     3    22       P1  8028  0.39
      L1  H    11    46       P1  8028  0.91

> <Gold.Chemscore.Hbond.Weighted>
-5.1226

> <Gold.Chemscore.Metal.Weighted>
-0.0000

> <Gold.Chemscore.Lipo.Weighted>
-10.2034

> <Gold.Chemscore.Internal_Hbond.Weighted>
0.0000

> <Gold.Chemscore.DEClash.Weighted>
0.1120

> <Gold.Chemscore.DEInternal.Weighted>
0.2381

> <Gold.Chemscore.Rot.Weighted>
3.6210

> <Gold.Chemscore.Internal.Correction.Weighted>
   9.000000E+99

> <Gold.Protein.RotatedTorsions>
[ 6907 6896 6895 6894 ] final  149.68 input  -60.11 | X-H torsion
[ 7974 7965 7964 7962 ] final -146.89 input  175.53 | X-H torsion
[ 8008 7997 7996 7995 ] final   21.30 input   59.86 | X-H torsion
[ 10167 10162 10161 10158 ] final   82.81 input  -65.29 | X-H torsion
[ 10718 10713 10712 10709 ] final  159.92 input   66.30 | X-H torsion
[ 10763 10752 10751 10750 ] final   54.19 input  -60.55 | X-H torsion
[ 11005 11000 10999 10996 ] final -120.02 input  -57.11 | X-H torsion

> <Gold.Protein.ActiveResidues>
 VAL166  LYS551  ARG553  GLY616  TRP617  ASP618  TYR619  PRO620  LYS621  CYS622 
 ASP623  PHE694  ASN695  SER759  ASP760  ASP761  ALA762  ILE779  LEU786  VAL792 
 PHE793  MET794  SER795  GLU796  ALA797  LYS798  CYS799  TRP800  GLU811  SER814 

> <Gold.Protein.RotatedAtoms>
  152.1247  133.4373  159.4691 H   0  0  0  0  0  0  0  0  0  0  0  0  # atno 6907 bound_to 6896
  150.6874  134.2493  159.4513 H   0  0  0  0  0  0  0  0  0  0  0  0  # atno 6908 bound_to 6896
  152.0372  134.9732  160.0624 H   0  0  0  0  0  0  0  0  0  0  0  0  # atno 6909 bound_to 6896
  144.8129  140.5398  143.5630 H   0  0  0  0  0  0  0  0  0  0  0  0  # atno 7974 bound_to 7965
  154.9486  140.3062  155.5086 H   0  0  0  0  0  0  0  0  0  0  0  0  # atno 8008 bound_to 7997
  156.2989  140.2323  156.4499 H   0  0  0  0  0  0  0  0  0  0  0  0  # atno 8009 bound_to 7997
  154.8077  140.0430  157.1308 H   0  0  0  0  0  0  0  0  0  0  0  0  # atno 8010 bound_to 7997
  139.9249  144.6189  150.8403 H   0  0  0  0  0  0  0  0  0  0  0  0  # atno 10167 bound_to 10162
  157.1575  131.0579  151.2249 H   0  0  0  0  0  0  0  0  0  0  0  0  # atno 10718 bound_to 10713
  152.9802  135.5753  154.4864 H   0  0  0  0  0  0  0  0  0  0  0  0  # atno 10763 bound_to 10752
  154.4405  135.2776  155.1853 H   0  0  0  0  0  0  0  0  0  0  0  0  # atno 10764 bound_to 10752
  154.3523  135.6206  153.5702 H   0  0  0  0  0  0  0  0  0  0  0  0  # atno 10765 bound_to 10752
  141.0174  134.0175  157.3331 H   0  0  0  0  0  0  0  0  0  0  0  0  # atno 11005 bound_to 11000
  145.5281  139.1475  143.3515 LP  0  0  0  0  0  0  0  0  0  0  0  0  # atno 17320 bound_to 7965
  146.2430  140.5422  142.8926 LP  0  0  0  0  0  0  0  0  0  0  0  0  # atno 17321 bound_to 7965
  140.7652  143.3271  151.2493 LP  0  0  0  0  0  0  0  0  0  0  0  0  # atno 17342 bound_to 10162
  139.6830  143.9821  152.2819 LP  0  0  0  0  0  0  0  0  0  0  0  0  # atno 17343 bound_to 10162
  157.4163  130.7413  149.6878 LP  0  0  0  0  0  0  0  0  0  0  0  0  # atno 17370 bound_to 10713
  155.9759  130.4082  150.3814 LP  0  0  0  0  0  0  0  0  0  0  0  0  # atno 17371 bound_to 10713
  139.9125  135.0192  156.7749 LP  0  0  0  0  0  0  0  0  0  0  0  0  # atno 17394 bound_to 11000
  140.6632  133.9626  155.7816 LP  0  0  0  0  0  0  0  0  0  0  0  0  # atno 17395 bound_to 11000

$$$$
