AV-unprocessed.smi:2965|AV-procd|sdf|11323|dock8
  -GOLD-   2272016233D 1   1.00000     0.00000
 Structure written by MMmdl.
 36 37  0  0  0  0  0  0  0  0  1 V2000
  152.7144  139.4673  156.6529 O   0  0  0  0  0  0  0  0  0  0  0  0
  151.7935  138.9006  157.2428 C   0  0  0  0  0  0  0  0  0  0  0  0
  151.5374  139.1641  158.7333 C   0  0  0  0  0  0  0  0  0  0  0  0
  152.3451  140.2718  159.2707 N   0  0  0  0  0  0  0  0  0  0  0  0
  152.0793  141.5616  158.7705 C   0  0  0  0  0  0  0  0  0  0  0  0
  152.7518  142.6568  159.1730 C   0  0  0  0  0  0  0  0  0  0  0  0
  152.3979  144.0436  158.6581 C   0  0  0  0  0  0  0  0  0  0  0  0
  153.1286  144.9825  159.2596 F   0  0  0  0  0  0  0  0  0  0  0  0
  152.6295  144.1128  157.3480 F   0  0  0  0  0  0  0  0  0  0  0  0
  151.1095  144.3180  158.8657 F   0  0  0  0  0  0  0  0  0  0  0  0
  153.7654  142.4541  160.1897 C   0  0  0  0  0  0  0  0  0  0  0  0
  154.0226  141.2292  160.6887 C   0  0  0  0  0  0  0  0  0  0  0  0
  153.2934  140.0452  160.2287 C   0  0  0  0  0  0  0  0  0  0  0  0
  153.5191  138.9207  160.6772 O   0  0  0  0  0  0  0  0  0  0  0  0
  150.9686  138.0238  156.6508 N   0  0  0  0  0  0  0  0  0  0  0  0
  151.0030  137.6475  155.2415 C   0  0  0  0  0  0  0  0  0  0  0  0
  150.2170  138.6415  154.3693 C   0  0  1  0  0  0  0  0  0  0  0  0
  148.7295  138.7644  154.7000 C   0  0  0  0  0  0  0  0  0  0  0  0
  148.4075  140.1271  154.1317 C   0  0  0  0  0  0  0  0  0  0  0  0
  149.6744  140.9150  154.4574 C   0  0  0  0  0  0  0  0  0  0  0  0
  150.7304  139.9595  154.5370 O   0  0  0  0  0  0  0  0  0  0  0  0
  150.4763  139.3668  158.8917 H   0  0  0  0  0  0  0  0  0  0  0  0
  151.7357  138.2415  159.2805 H   0  0  0  0  0  0  0  0  0  0  0  0
  151.2816  141.6062  158.0432 H   0  0  0  0  0  0  0  0  0  0  0  0
  154.3309  143.2980  160.5563 H   0  0  0  0  0  0  0  0  0  0  0  0
  154.7853  141.1153  161.4451 H   0  0  0  0  0  0  0  0  0  0  0  0
  150.2462  137.5999  157.2148 H   0  0  0  0  0  0  0  0  0  0  0  0
  152.0295  137.5514  154.8837 H   0  0  0  0  0  0  0  0  0  0  0  0
  150.5564  136.6569  155.1531 H   0  0  0  0  0  0  0  0  0  0  0  0
  150.3283  138.3801  153.3156 H   0  0  0  0  0  0  0  0  0  0  0  0
  148.1274  137.9660  154.2649 H   0  0  0  0  0  0  0  0  0  0  0  0
  148.5729  138.7638  155.7796 H   0  0  0  0  0  0  0  0  0  0  0  0
  148.2753  140.0571  153.0510 H   0  0  0  0  0  0  0  0  0  0  0  0
  147.5075  140.5700  154.5587 H   0  0  0  0  0  0  0  0  0  0  0  0
  149.8871  141.6791  153.7091 H   0  0  0  0  0  0  0  0  0  0  0  0
  149.5812  141.4070  155.4260 H   0  0  0  0  0  0  0  0  0  0  0  0
  1  2  2  0  0  0  0
  2  3  1  0  0  0  0
  2 15  1  0  0  0  0
  3  4  1  0  0  0  0
  3 22  1  0  0  0  0
  3 23  1  0  0  0  0
  4 13  1  0  0  0  0
  4  5  1  0  0  0  0
  5  6  2  0  0  0  0
  5 24  1  0  0  0  0
  6  7  1  0  0  0  0
  6 11  1  0  0  0  0
  7  8  1  0  0  0  0
  7  9  1  0  0  0  0
  7 10  1  0  0  0  0
 11 12  2  0  0  0  0
 11 25  1  0  0  0  0
 12 13  1  0  0  0  0
 12 26  1  0  0  0  0
 13 14  2  0  0  0  0
 15 16  1  0  0  0  0
 15 27  1  0  0  0  0
 16 17  1  0  0  0  0
 16 28  1  0  0  0  0
 16 29  1  0  0  0  0
 17 21  1  0  0  0  0
 17 18  1  0  0  0  0
 17 30  1  0  0  0  0
 18 19  1  0  0  0  0
 18 31  1  0  0  0  0
 18 32  1  0  0  0  0
 19 20  1  0  0  0  0
 19 33  1  0  0  0  0
 19 34  1  0  0  0  0
 20 21  1  0  0  0  0
 20 35  1  0  0  0  0
 20 36  1  0  0  0  0
M  END
> <s_m_source_file>
AV-unprocessed.smi

> <i_m_source_file_index>
2965

> <i_lp_mmshare_version>
43012

> <i_f3d_flags>
0

> <s_epik_input>
TzFbQ0gyXVtDSDJdW0NIMl1bQ0BIXTFbQ0gyXVtOSF1DKD1PKVtDSDJdbjJbY0hdYyhDKEYpKEYpRilbY0hdW2NIXWMyPU8=

> <s_epik_cmdline>
J2VwaWtfcHl0aG9uJywgJy1waCcsICc3LjAnLCAnLXRuJywgJzgnLCAnLW1hJywgJzIwMCcsICctbWV0YWxfYmluZGluZycsICctaW1hZScsICc8aW5maWxlLm1hZT4nLCAnLW9tYWUnLCAnPG91dGZpbGUubWFlPic=

> <r_lp_tautomer_probability>
1

> <r_epik_Ionization_Penalty>
4.53327e-08

> <r_epik_Ionization_Penalty_Charging>
1.84737e-08

> <r_epik_Ionization_Penalty_Neutral>
2.6859e-08

> <r_epik_State_Penalty>
-0

> <r_epik_Charging_Adjusted_Penalty>
1.84737e-08

> <i_epik_Tot_Q>
0

> <i_epik_Tot_abs_Q>
0

> <r_epik_Metal_State_Penalty>
-0

> <b_epik_Metal_Only>
0

> <s_lp_Force_Field>
OPLS_2005

> <r_lp_Energy>
29.2256

> <b_lp_Chiralities_Consistent>
1

> <s_lp_Variant>
AV-unprocessed.smi:2965-2

> <Gold.Version>
5.8.1

> <Gold.Id.Protein>
6NUR|6NUR_protein|mol2

> <Gold.PLP.Fitness>
54.2267

> <Gold.PLP.PLP>
-48.7644

> <Gold.PLP.part.hbond>
-1.9324

> <Gold.PLP.part.metal>
0.0000

> <Gold.PLP.part.buried>
-3.6081

> <Gold.PLP.part.nonpolar>
-42.1751

> <Gold.PLP.part.repulsive>
0.1521

> <Gold.PLP.ligand.clash>
0.0000

> <Gold.PLP.ligand.torsion>
0.3067

> <Gold.PLP.Chemscore.Hbond>
2.0000

> <Gold.PLP.Chemscore.CHOScore>
0.0000

> <Gold.PLP.Chemscore.Metal>
0.0000

> <Gold.Chemscore.Hbonds>
donor molecule, donor type, donor heavy atom, donor atom, acceptor molecule, acceptor atom, score
      P1  H  7989  7998       L1    21  0.50
      P1  H  7997  8008       L1     1  1.00

> <Gold.PLP.Chemscore.Internal.Correction>
0.0758

> <Gold.Rescore>
     Score         DG    S(hbond)    S(metal)    S(lipo)     H(rot)  DE(clash)    DE(int)     intcor
     16.59     -17.26       1.94        0.00      86.29       1.87       0.15       0.52       ----

> <Gold.Chemscore.Fitness>
16.5866

> <Gold.Chemscore.DG>
-17.2586

> <Gold.Chemscore.ZeroCoef>
-5.4800

> <Gold.Chemscore.Hbond>
1.9356

> <Gold.Chemscore.Metal>
0.0000

> <Gold.Chemscore.Lipo>
86.2914

> <Gold.Chemscore.Internal_Hbond>
0.0000

> <Gold.Chemscore.DEClash>
0.1483

> <Gold.Chemscore.DEInternal>
0.5238

> <Gold.Chemscore.Rot>
1.8681

> <Gold.Chemscore.Internal.Correction>
   9.000000E+99

> <Gold.Chemscore.Hbonds>
donor molecule, donor type, donor heavy atom, donor atom, acceptor molecule, acceptor atom, score
      P1  H  7989  7998       L1    21  0.02
      P1  H  7997  8008       L1     1  1.00

> <Gold.Chemscore.Hbond.Weighted>
-6.4648

> <Gold.Chemscore.Metal.Weighted>
-0.0000

> <Gold.Chemscore.Lipo.Weighted>
-10.0961

> <Gold.Chemscore.Internal_Hbond.Weighted>
0.0000

> <Gold.Chemscore.DEClash.Weighted>
0.1483

> <Gold.Chemscore.DEInternal.Weighted>
0.5238

> <Gold.Chemscore.Rot.Weighted>
4.7822

> <Gold.Chemscore.Internal.Correction.Weighted>
   9.000000E+99

> <Gold.Protein.RotatedTorsions>
[ 6907 6896 6895 6894 ] final  -53.99 input  -60.11 | X-H torsion
[ 7974 7965 7964 7962 ] final    0.79 input  175.53 | X-H torsion
[ 8008 7997 7996 7995 ] final  -58.99 input   59.86 | X-H torsion
[ 10167 10162 10161 10158 ] final   72.59 input  -65.29 | X-H torsion
[ 10718 10713 10712 10709 ] final  -91.14 input   66.30 | X-H torsion
[ 10763 10752 10751 10750 ] final   38.11 input  -60.55 | X-H torsion
[ 11005 11000 10999 10996 ] final  -53.58 input  -57.11 | X-H torsion

> <Gold.Protein.ActiveResidues>
 VAL166  LYS551  ARG553  GLY616  TRP617  ASP618  TYR619  PRO620  LYS621  CYS622 
 ASP623  PHE694  ASN695  SER759  ASP760  ASP761  ALA762  ILE779  LEU786  VAL792 
 PHE793  MET794  SER795  GLU796  ALA797  LYS798  CYS799  TRP800  GLU811  SER814 

> <Gold.Protein.RotatedAtoms>
  150.8377  134.7657  159.6906 H   0  0  0  0  0  0  0  0  0  0  0  0  # atno 6907 bound_to 6896
  152.4471  134.5469  159.9865 H   0  0  0  0  0  0  0  0  0  0  0  0  # atno 6908 bound_to 6896
  151.5615  133.3365  159.3008 H   0  0  0  0  0  0  0  0  0  0  0  0  # atno 6909 bound_to 6896
  146.2436  140.1084  142.8345 H   0  0  0  0  0  0  0  0  0  0  0  0  # atno 7974 bound_to 7965
  154.4332  140.1072  156.6044 H   0  0  0  0  0  0  0  0  0  0  0  0  # atno 8008 bound_to 7997
  155.5876  140.3491  155.4539 H   0  0  0  0  0  0  0  0  0  0  0  0  # atno 8009 bound_to 7997
  156.0271  140.1252  157.0287 H   0  0  0  0  0  0  0  0  0  0  0  0  # atno 8010 bound_to 7997
  140.0336  144.5446  150.7488 H   0  0  0  0  0  0  0  0  0  0  0  0  # atno 10167 bound_to 10162
  155.9992  130.4936  150.5429 H   0  0  0  0  0  0  0  0  0  0  0  0  # atno 10718 bound_to 10713
  153.0013  135.6258  154.2252 H   0  0  0  0  0  0  0  0  0  0  0  0  # atno 10763 bound_to 10752
  154.1995  135.2805  155.2997 H   0  0  0  0  0  0  0  0  0  0  0  0  # atno 10764 bound_to 10752
  154.5695  135.5681  153.7141 H   0  0  0  0  0  0  0  0  0  0  0  0  # atno 10765 bound_to 10752
  141.0983  133.6621  156.4193 H   0  0  0  0  0  0  0  0  0  0  0  0  # atno 11005 bound_to 11000
  145.0508  140.9016  143.4997 LP  0  0  0  0  0  0  0  0  0  0  0  0  # atno 17320 bound_to 7965
  145.1182  139.2711  143.5602 LP  0  0  0  0  0  0  0  0  0  0  0  0  # atno 17321 bound_to 7965
  140.7291  143.2669  151.4015 LP  0  0  0  0  0  0  0  0  0  0  0  0  # atno 17342 bound_to 10162
  139.6060  144.1197  152.2249 LP  0  0  0  0  0  0  0  0  0  0  0  0  # atno 17343 bound_to 10162
  157.3362  131.0708  151.1823 LP  0  0  0  0  0  0  0  0  0  0  0  0  # atno 17370 bound_to 10713
  157.2686  130.6693  149.6009 LP  0  0  0  0  0  0  0  0  0  0  0  0  # atno 17371 bound_to 10713
  140.5086  134.6417  157.5275 LP  0  0  0  0  0  0  0  0  0  0  0  0  # atno 17394 bound_to 11000
  139.9826  134.7113  155.9832 LP  0  0  0  0  0  0  0  0  0  0  0  0  # atno 17395 bound_to 11000

$$$$
