AV-unprocessed.smi:1533|AV-procd|sdf|6163|dock1
  -GOLD-   22720 6313D 1   1.00000     0.00000
 Structure written by MMmdl.
 37 39  0  0  0  0  0  0  0  0  1 V2000
  144.9550  144.3448  153.6530 C   0  0  0  0  0  0  0  0  0  0  0  0
  145.8040  143.2112  154.1163 C   0  0  0  0  0  0  0  0  0  0  0  0
  145.2935  142.2266  154.8455 N   0  0  0  0  0  0  0  0  0  0  0  0
  146.3913  141.3812  155.0600 O   0  0  0  0  0  0  0  0  0  0  0  0
  147.4399  141.9711  154.4361 C   0  0  0  0  0  0  0  0  0  0  0  0
  148.7613  141.2725  154.4227 C   0  0  0  0  0  0  0  0  0  0  0  0
  149.3610  141.0380  155.8224 C   0  0  0  0  0  0  0  0  0  0  0  0
  149.8081  142.2762  156.4566 N   0  0  0  0  0  0  0  0  0  0  0  0
  150.4072  142.3681  157.6546 C   0  0  0  0  0  0  0  0  0  0  0  0
  150.6531  141.3880  158.3589 O   0  0  0  0  0  0  0  0  0  0  0  0
  150.7379  143.7918  158.1353 C   0  0  1  0  0  0  0  0  0  0  0  0
  150.2089  144.1332  159.5503 C   0  0  0  0  0  0  0  0  0  0  0  0
  151.4677  144.6459  160.2753 C   0  0  1  0  0  0  0  0  0  0  0  0
  152.4024  143.4613  160.5832 C   0  0  0  0  0  0  0  0  0  0  0  0
  152.9921  143.1263  159.2009 C   0  0  0  0  0  0  0  0  0  0  0  0
  152.2513  144.1092  158.2675 C   0  0  2  0  0  0  0  0  0  0  0  0
  152.2120  145.3543  159.1488 C   0  0  0  0  0  0  0  0  0  0  0  0
  147.1302  143.1120  153.8255 N   0  0  0  0  0  0  0  0  0  0  0  0
  144.5081  144.8559  154.5061 H   0  0  0  0  0  0  0  0  0  0  0  0
  144.1557  143.9785  153.0084 H   0  0  0  0  0  0  0  0  0  0  0  0
  145.5478  145.0667  153.0907 H   0  0  0  0  0  0  0  0  0  0  0  0
  148.6397  140.3163  153.9127 H   0  0  0  0  0  0  0  0  0  0  0  0
  149.4547  141.8563  153.8165 H   0  0  0  0  0  0  0  0  0  0  0  0
  148.6404  140.5181  156.4563 H   0  0  0  0  0  0  0  0  0  0  0  0
  150.2227  140.3756  155.7397 H   0  0  0  0  0  0  0  0  0  0  0  0
  149.6370  143.1330  155.9503 H   0  0  0  0  0  0  0  0  0  0  0  0
  150.2970  144.4991  157.4299 H   0  0  0  0  0  0  0  0  0  0  0  0
  149.4569  144.9210  159.4892 H   0  0  0  0  0  0  0  0  0  0  0  0
  149.7511  143.2937  160.0754 H   0  0  0  0  0  0  0  0  0  0  0  0
  151.2477  145.2657  161.1450 H   0  0  0  0  0  0  0  0  0  0  0  0
  153.1917  143.7543  161.2765 H   0  0  0  0  0  0  0  0  0  0  0  0
  151.8669  142.6181  161.0213 H   0  0  0  0  0  0  0  0  0  0  0  0
  154.0627  143.3349  159.1912 H   0  0  0  0  0  0  0  0  0  0  0  0
  152.8723  142.0785  158.9291 H   0  0  0  0  0  0  0  0  0  0  0  0
  152.7478  144.2577  157.3081 H   0  0  0  0  0  0  0  0  0  0  0  0
  151.6498  146.1809  158.7105 H   0  0  0  0  0  0  0  0  0  0  0  0
  153.2012  145.7118  159.4412 H   0  0  0  0  0  0  0  0  0  0  0  0
  1  2  1  0  0  0  0
  1 19  1  0  0  0  0
  1 20  1  0  0  0  0
  1 21  1  0  0  0  0
  2 18  1  0  0  0  0
  2  3  2  0  0  0  0
  3  4  1  0  0  0  0
  4  5  1  0  0  0  0
  5  6  1  0  0  0  0
  5 18  2  0  0  0  0
  6  7  1  0  0  0  0
  6 22  1  0  0  0  0
  6 23  1  0  0  0  0
  7  8  1  0  0  0  0
  7 24  1  0  0  0  0
  7 25  1  0  0  0  0
  8  9  1  0  0  0  0
  8 26  1  0  0  0  0
  9 10  2  0  0  0  0
  9 11  1  0  0  0  0
 11 16  1  0  0  0  0
 11 12  1  0  0  0  0
 11 27  1  0  0  0  0
 12 13  1  0  0  0  0
 12 28  1  0  0  0  0
 12 29  1  0  0  0  0
 13 17  1  0  0  0  0
 13 14  1  0  0  0  0
 13 30  1  0  0  0  0
 14 15  1  0  0  0  0
 14 31  1  0  0  0  0
 14 32  1  0  0  0  0
 15 16  1  0  0  0  0
 15 33  1  0  0  0  0
 15 34  1  0  0  0  0
 16 17  1  0  0  0  0
 16 35  1  0  0  0  0
 17 36  1  0  0  0  0
 17 37  1  0  0  0  0
M  END
> <s_m_source_file>
AV-unprocessed.smi

> <i_m_source_file_index>
1533

> <i_lp_mmshare_version>
43012

> <i_f3d_flags>
0

> <s_epik_input>
W0NIM11jMW5vYyhuMSlbQ0gyXVtDSDJdW05IXUMoPU8pW0NASF0oW0NIMl1bQ0BASF0yMylbQ0BASF0oW0NIMl0zKVtDSDJdW0NIMl0y

> <s_epik_cmdline>
J2VwaWtfcHl0aG9uJywgJy1waCcsICc3LjAnLCAnLXRuJywgJzgnLCAnLW1hJywgJzIwMCcsICctbWV0YWxfYmluZGluZycsICctaW1hZScsICc8aW5maWxlLm1hZT4nLCAnLW9tYWUnLCAnPG91dGZpbGUubWFlPic=

> <r_lp_tautomer_probability>
1

> <r_epik_Ionization_Penalty>
1.90116e-08

> <r_epik_Ionization_Penalty_Charging>
0

> <r_epik_Ionization_Penalty_Neutral>
1.90116e-08

> <r_epik_State_Penalty>
-0

> <r_epik_Charging_Adjusted_Penalty>
0

> <i_epik_Tot_Q>
0

> <i_epik_Tot_abs_Q>
0

> <r_epik_Metal_State_Penalty>
-0

> <b_epik_Metal_Only>
0

> <s_lp_Force_Field>
OPLS_2005

> <r_lp_Energy>
44.7071

> <b_lp_Chiralities_Consistent>
1

> <s_lp_Variant>
AV-unprocessed.smi:1533-2

> <Gold.Version>
5.8.1

> <Gold.Id.Protein>
6NUR|6NUR_protein|mol2

> <Gold.PLP.Fitness>
45.2385

> <Gold.PLP.PLP>
-41.5451

> <Gold.PLP.part.hbond>
-2.0646

> <Gold.PLP.part.metal>
0.0000

> <Gold.PLP.part.buried>
-4.7772

> <Gold.PLP.part.nonpolar>
-36.8526

> <Gold.PLP.part.repulsive>
1.7765

> <Gold.PLP.ligand.clash>
0.0000

> <Gold.PLP.ligand.torsion>
0.1382

> <Gold.PLP.Chemscore.Hbond>
1.3130

> <Gold.PLP.Chemscore.CHOScore>
0.0000

> <Gold.PLP.Chemscore.Metal>
0.0000

> <Gold.Chemscore.Hbonds>
donor molecule, donor type, donor heavy atom, donor atom, acceptor molecule, acceptor atom, score
      L1  H     8    26       P1  8028  1.00
      P1  H  8022  8030       L1    18  0.27

> <Gold.PLP.Chemscore.Internal.Correction>
0.0305

> <Gold.Rescore>
     Score         DG    S(hbond)    S(metal)    S(lipo)     H(rot)  DE(clash)    DE(int)     intcor
     15.07     -17.08       1.29        0.00     102.90       1.85       1.59       0.42       ----

> <Gold.Chemscore.Fitness>
15.0744

> <Gold.Chemscore.DG>
-17.0848

> <Gold.Chemscore.ZeroCoef>
-5.4800

> <Gold.Chemscore.Hbond>
1.2869

> <Gold.Chemscore.Metal>
0.0000

> <Gold.Chemscore.Lipo>
102.9043

> <Gold.Chemscore.Internal_Hbond>
0.0000

> <Gold.Chemscore.DEClash>
1.5905

> <Gold.Chemscore.DEInternal>
0.4199

> <Gold.Chemscore.Rot>
1.8490

> <Gold.Chemscore.Internal.Correction>
   9.000000E+99

> <Gold.Chemscore.Hbonds>
donor molecule, donor type, donor heavy atom, donor atom, acceptor molecule, acceptor atom, score
      L1  H     8    26       P1  8028  0.99
      P1  H  8022  8030       L1    18  0.28

> <Gold.Chemscore.Hbond.Weighted>
-4.2984

> <Gold.Chemscore.Metal.Weighted>
-0.0000

> <Gold.Chemscore.Lipo.Weighted>
-12.0398

> <Gold.Chemscore.Internal_Hbond.Weighted>
0.0000

> <Gold.Chemscore.DEClash.Weighted>
1.5905

> <Gold.Chemscore.DEInternal.Weighted>
0.4199

> <Gold.Chemscore.Rot.Weighted>
4.7334

> <Gold.Chemscore.Internal.Correction.Weighted>
   9.000000E+99

> <Gold.Protein.RotatedTorsions>
[ 6907 6896 6895 6894 ] final  -87.41 input  -60.11 | X-H torsion
[ 7974 7965 7964 7962 ] final   39.52 input  175.53 | X-H torsion
[ 8008 7997 7996 7995 ] final -132.19 input   59.86 | X-H torsion
[ 10167 10162 10161 10158 ] final   23.58 input  -65.29 | X-H torsion
[ 10718 10713 10712 10709 ] final   93.99 input   66.30 | X-H torsion
[ 10763 10752 10751 10750 ] final  -76.99 input  -60.55 | X-H torsion
[ 11005 11000 10999 10996 ] final   42.13 input  -57.11 | X-H torsion

> <Gold.Protein.ActiveResidues>
 VAL166  LYS551  ARG553  GLY616  TRP617  ASP618  TYR619  PRO620  LYS621  CYS622 
 ASP623  PHE694  ASN695  SER759  ASP760  ASP761  ALA762  ILE779  LEU786  VAL792 
 PHE793  MET794  SER795  GLU796  ALA797  LYS798  CYS799  TRP800  GLU811  SER814 

> <Gold.Protein.RotatedAtoms>
  150.6866  134.2900  159.4662 H   0  0  0  0  0  0  0  0  0  0  0  0  # atno 6907 bound_to 6896
  152.0806  134.9471  160.0583 H   0  0  0  0  0  0  0  0  0  0  0  0  # atno 6908 bound_to 6896
  152.0825  133.4125  159.4544 H   0  0  0  0  0  0  0  0  0  0  0  0  # atno 6909 bound_to 6896
  146.0978  139.5642  142.9434 H   0  0  0  0  0  0  0  0  0  0  0  0  # atno 7974 bound_to 7965
  155.3247  140.0464  157.3040 H   0  0  0  0  0  0  0  0  0  0  0  0  # atno 8008 bound_to 7997
  154.5361  140.2272  155.8687 H   0  0  0  0  0  0  0  0  0  0  0  0  # atno 8009 bound_to 7997
  156.1836  140.3068  155.9201 H   0  0  0  0  0  0  0  0  0  0  0  0  # atno 8010 bound_to 7997
  140.5257  143.9927  150.6439 H   0  0  0  0  0  0  0  0  0  0  0  0  # atno 10167 bound_to 10162
  157.6951  131.0497  150.4118 H   0  0  0  0  0  0  0  0  0  0  0  0  # atno 10718 bound_to 10713
  154.5071  135.5779  153.6576 H   0  0  0  0  0  0  0  0  0  0  0  0  # atno 10763 bound_to 10752
  152.9890  135.6150  154.2927 H   0  0  0  0  0  0  0  0  0  0  0  0  # atno 10764 bound_to 10752
  154.2839  135.2850  155.2664 H   0  0  0  0  0  0  0  0  0  0  0  0  # atno 10765 bound_to 10752
  140.1768  134.4153  155.8224 H   0  0  0  0  0  0  0  0  0  0  0  0  # atno 11005 bound_to 11000
  145.5914  141.0369  143.2068 LP  0  0  0  0  0  0  0  0  0  0  0  0  # atno 17320 bound_to 7965
  144.7409  139.7453  143.7311 LP  0  0  0  0  0  0  0  0  0  0  0  0  # atno 17321 bound_to 7965
  140.3288  143.3090  152.0708 LP  0  0  0  0  0  0  0  0  0  0  0  0  # atno 17342 bound_to 10162
  139.4937  144.6523  151.6648 LP  0  0  0  0  0  0  0  0  0  0  0  0  # atno 17343 bound_to 10162
  156.4501  130.4010  149.6641 LP  0  0  0  0  0  0  0  0  0  0  0  0  # atno 17370 bound_to 10713
  156.3794  130.7571  151.2562 LP  0  0  0  0  0  0  0  0  0  0  0  0  # atno 17371 bound_to 10713
  141.2221  133.6981  156.7860 LP  0  0  0  0  0  0  0  0  0  0  0  0  # atno 17394 bound_to 11000
  140.2313  134.8683  157.3480 LP  0  0  0  0  0  0  0  0  0  0  0  0  # atno 17395 bound_to 11000

$$$$
