AV-unprocessed.smi:219|AV-procd|sdf|1680|dock1
  -GOLD-   2262020113D 1   1.00000     0.00000
 Structure written by MMmdl.
 50 53  0  0  0  0  0  0  0  0  1 V2000
  144.2696  134.6893  149.5676 N   0  0  0  0  0  0  0  0  0  0  0  0
  144.5539  134.5315  150.8626 C   0  0  0  0  0  0  0  0  0  0  0  0
  143.6783  134.3635  151.7085 O   0  0  0  0  0  0  0  0  0  0  0  0
  146.0357  134.5709  151.2598 C   0  0  0  0  0  0  0  0  0  0  0  0
  146.5814  133.2810  151.9405 C   0  0  2  0  0  0  0  0  0  0  0  0
  145.7965  132.0623  151.4024 C   0  0  0  0  0  0  0  0  0  0  0  0
  146.2591  130.7463  152.0421 C   0  0  0  0  0  0  0  0  0  0  0  0
  146.1689  130.8484  153.5680 C   0  0  0  0  0  0  0  0  0  0  0  0
  146.9700  132.0582  154.0661 C   0  0  0  0  0  0  0  0  0  0  0  0
  146.5267  133.2934  153.4159 N   0  0  0  0  0  0  0  0  0  0  0  0
  147.0329  134.3861  154.0314 C   0  0  0  0  0  0  0  0  0  0  0  0
  146.2250  135.4400  154.3223 N   0  0  0  0  0  0  0  0  0  0  0  0
  146.7247  136.5069  154.9536 C   0  0  0  0  0  0  0  0  0  0  0  0
  147.9749  136.7213  155.3706 N   0  0  0  0  0  0  0  0  0  0  0  0
  148.7861  135.6657  155.0726 C   0  0  0  0  0  0  0  0  0  0  0  0
  148.3978  134.4683  154.4106 C   0  0  0  0  0  0  0  0  0  0  0  0
  149.4839  133.6115  154.2926 N   0  0  0  0  0  0  0  0  0  0  0  0
  150.4638  134.2686  154.8509 C   0  0  0  0  0  0  0  0  0  0  0  0
  150.1366  135.5151  155.3372 N   0  0  0  0  0  0  0  0  0  0  0  0
  151.0301  136.4531  156.0000 C   0  0  0  0  0  0  0  0  0  0  0  0
  151.6759  137.4802  155.0384 C   0  0  2  0  0  0  0  0  0  0  0  0
  152.3947  136.7810  154.0379 O   0  0  0  0  0  0  0  0  0  0  0  0
  152.6297  138.4360  155.7585 C   0  0  0  0  0  0  0  0  0  0  0  0
  151.8868  139.7665  155.7404 C   0  0  0  0  0  0  0  0  0  0  0  0
  151.2101  139.7263  154.4970 O   0  0  0  0  0  0  0  0  0  0  0  0
  150.6585  138.4243  154.3661 C   0  0  0  0  0  0  0  0  0  0  0  0
  143.3076  134.6689  149.2608 H   0  0  0  0  0  0  0  0  0  0  0  0
  145.0144  134.8268  148.9001 H   0  0  0  0  0  0  0  0  0  0  0  0
  146.6567  134.8341  150.4021 H   0  0  0  0  0  0  0  0  0  0  0  0
  146.1227  135.4082  151.9531 H   0  0  0  0  0  0  0  0  0  0  0  0
  147.6265  133.1451  151.6574 H   0  0  0  0  0  0  0  0  0  0  0  0
  144.7313  132.2000  151.5950 H   0  0  0  0  0  0  0  0  0  0  0  0
  145.9067  131.9924  150.3196 H   0  0  0  0  0  0  0  0  0  0  0  0
  145.6489  129.9173  151.6830 H   0  0  0  0  0  0  0  0  0  0  0  0
  147.2866  130.5324  151.7453 H   0  0  0  0  0  0  0  0  0  0  0  0
  145.1259  130.9473  153.8717 H   0  0  0  0  0  0  0  0  0  0  0  0
  146.5442  129.9347  154.0293 H   0  0  0  0  0  0  0  0  0  0  0  0
  146.8597  132.1475  155.1481 H   0  0  0  0  0  0  0  0  0  0  0  0
  148.0308  131.8999  153.8655 H   0  0  0  0  0  0  0  0  0  0  0  0
  146.0212  137.3012  155.1552 H   0  0  0  0  0  0  0  0  0  0  0  0
  151.4619  133.8607  154.9196 H   0  0  0  0  0  0  0  0  0  0  0  0
  150.4667  136.9728  156.7763 H   0  0  0  0  0  0  0  0  0  0  0  0
  151.8020  135.8808  156.5166 H   0  0  0  0  0  0  0  0  0  0  0  0
  151.8136  136.6225  153.3095 H   0  0  0  0  0  0  0  0  0  0  0  0
  152.8838  138.1174  156.7702 H   0  0  0  0  0  0  0  0  0  0  0  0
  153.5653  138.5462  155.2074 H   0  0  0  0  0  0  0  0  0  0  0  0
  151.1619  139.8233  156.5541 H   0  0  0  0  0  0  0  0  0  0  0  0
  152.5553  140.6247  155.8098 H   0  0  0  0  0  0  0  0  0  0  0  0
  150.4546  138.1786  153.3230 H   0  0  0  0  0  0  0  0  0  0  0  0
  149.7063  138.4195  154.8968 H   0  0  0  0  0  0  0  0  0  0  0  0
  1  2  1  0  0  0  0
  1 27  1  0  0  0  0
  1 28  1  0  0  0  0
  2  3  2  0  0  0  0
  2  4  1  0  0  0  0
  4  5  1  0  0  0  0
  4 29  1  0  0  0  0
  4 30  1  0  0  0  0
  5 10  1  0  0  0  0
  5  6  1  0  0  0  0
  5 31  1  0  0  0  0
  6  7  1  0  0  0  0
  6 32  1  0  0  0  0
  6 33  1  0  0  0  0
  7  8  1  0  0  0  0
  7 34  1  0  0  0  0
  7 35  1  0  0  0  0
  8  9  1  0  0  0  0
  8 36  1  0  0  0  0
  8 37  1  0  0  0  0
  9 10  1  0  0  0  0
  9 38  1  0  0  0  0
  9 39  1  0  0  0  0
 10 11  1  0  0  0  0
 11 16  1  0  0  0  0
 11 12  2  0  0  0  0
 12 13  1  0  0  0  0
 13 14  2  0  0  0  0
 13 40  1  0  0  0  0
 14 15  1  0  0  0  0
 15 19  1  0  0  0  0
 15 16  2  0  0  0  0
 16 17  1  0  0  0  0
 17 18  2  0  0  0  0
 18 19  1  0  0  0  0
 18 41  1  0  0  0  0
 19 20  1  0  0  0  0
 20 21  1  0  0  0  0
 20 42  1  0  0  0  0
 20 43  1  0  0  0  0
 21 26  1  0  0  0  0
 21 22  1  0  0  0  0
 21 23  1  0  0  0  0
 22 44  1  0  0  0  0
 23 24  1  0  0  0  0
 23 45  1  0  0  0  0
 23 46  1  0  0  0  0
 24 25  1  0  0  0  0
 24 47  1  0  0  0  0
 24 48  1  0  0  0  0
 25 26  1  0  0  0  0
 26 49  1  0  0  0  0
 26 50  1  0  0  0  0
M  END
> <s_m_source_file>
AV-unprocessed.smi

> <i_m_source_file_index>
219

> <i_lp_mmshare_version>
43012

> <i_f3d_flags>
0

> <s_epik_input>
W05IMl1DKD1PKVtDSDJdW0NAQEhdMVtDSDJdW0NIMl1bQ0gyXVtDSDJdTjFjKG5bY0hdbjIpYyhjMjMpbltjSF1uM1tDSDJdW0NAQF00KFtPSF0pW0NIMl1bQ0gyXU9bQ0gyXTQ=

> <s_epik_cmdline>
J2VwaWtfcHl0aG9uJywgJy1waCcsICc3LjAnLCAnLXRuJywgJzgnLCAnLW1hJywgJzIwMCcsICctbWV0YWxfYmluZGluZycsICctaW1hZScsICc8aW5maWxlLm1hZT4nLCAnLW9tYWUnLCAnPG91dGZpbGUubWFlPic=

> <r_lp_tautomer_probability>
1

> <r_epik_Ionization_Penalty>
0.00228532

> <r_epik_Ionization_Penalty_Charging>
0

> <r_epik_Ionization_Penalty_Neutral>
0.00228532

> <r_epik_State_Penalty>
0.00140978

> <r_epik_Charging_Adjusted_Penalty>
0.00140978

> <i_epik_Tot_Q>
0

> <i_epik_Tot_abs_Q>
0

> <r_epik_Metal_State_Penalty>
-0

> <b_epik_Metal_Only>
0

> <s_lp_Force_Field>
OPLS_2005

> <r_lp_Energy>
33.6932

> <b_lp_Chiralities_Consistent>
1

> <s_lp_Variant>
AV-unprocessed.smi:219-3

> <Gold.Version>
5.8.1

> <Gold.Id.Protein>
6NUR|6NUR_protein|mol2

> <Gold.PLP.Fitness>
49.9870

> <Gold.PLP.PLP>
-37.3019

> <Gold.PLP.part.hbond>
-4.8824

> <Gold.PLP.part.metal>
0.0000

> <Gold.PLP.part.buried>
-5.7860

> <Gold.PLP.part.nonpolar>
-26.8544

> <Gold.PLP.part.repulsive>
0.7526

> <Gold.PLP.ligand.clash>
0.0000

> <Gold.PLP.ligand.torsion>
1.3172

> <Gold.PLP.Chemscore.Hbond>
4.9913

> <Gold.PLP.Chemscore.CHOScore>
0.0000

> <Gold.PLP.Chemscore.Metal>
0.0000

> <Gold.Chemscore.Hbonds>
donor molecule, donor type, donor heavy atom, donor atom, acceptor molecule, acceptor atom, score
      L1  H     1    27       P1 10186  0.28
      L1  H     1    28       P1  7921  1.00
      L1  H    22    44       P1  7949  1.00
      P1  H  7989  7998       L1    25  1.00
      P1  H 10752 10765       L1    22  0.25

> <Gold.PLP.Chemscore.Internal.Correction>
0.3457

> <Gold.Rescore>
     Score         DG    S(hbond)    S(metal)    S(lipo)     H(rot)  DE(clash)    DE(int)     intcor
     16.72     -19.74       4.40        0.00      70.15       3.37       0.33       2.69       ----

> <Gold.Chemscore.Fitness>
16.7246

> <Gold.Chemscore.DG>
-19.7410

> <Gold.Chemscore.ZeroCoef>
-5.4800

> <Gold.Chemscore.Hbond>
4.3950

> <Gold.Chemscore.Metal>
0.0000

> <Gold.Chemscore.Lipo>
70.1540

> <Gold.Chemscore.Internal_Hbond>
0.0000

> <Gold.Chemscore.DEClash>
0.3262

> <Gold.Chemscore.DEInternal>
2.6902

> <Gold.Chemscore.Rot>
3.3697

> <Gold.Chemscore.Internal.Correction>
   9.000000E+99

> <Gold.Chemscore.Hbonds>
donor molecule, donor type, donor heavy atom, donor atom, acceptor molecule, acceptor atom, score
      L1  H     1    27       P1 10186  0.28
      L1  H     1    28       P1  7921  1.00
      L1  H    22    44       P1  7949  0.92
      P1  H  7989  7998       L1    25  0.86
      P1  H 10752 10765       L1    22  0.10

> <Gold.Chemscore.Hbond.Weighted>
-14.6793

> <Gold.Chemscore.Metal.Weighted>
-0.0000

> <Gold.Chemscore.Lipo.Weighted>
-8.2080

> <Gold.Chemscore.Internal_Hbond.Weighted>
0.0000

> <Gold.Chemscore.DEClash.Weighted>
0.3262

> <Gold.Chemscore.DEInternal.Weighted>
2.6902

> <Gold.Chemscore.Rot.Weighted>
8.6264

> <Gold.Chemscore.Internal.Correction.Weighted>
   9.000000E+99

> <Gold.Protein.RotatedTorsions>
[ 6907 6896 6895 6894 ] final   -5.07 input  -60.11 | X-H torsion
[ 7974 7965 7964 7962 ] final   15.42 input  175.53 | X-H torsion
[ 8008 7997 7996 7995 ] final   94.22 input   59.86 | X-H torsion
[ 10167 10162 10161 10158 ] final -139.30 input  -65.29 | X-H torsion
[ 10718 10713 10712 10709 ] final -103.26 input   66.30 | X-H torsion
[ 10763 10752 10751 10750 ] final  155.05 input  -60.55 | X-H torsion
[ 11005 11000 10999 10996 ] final   28.87 input  -57.11 | X-H torsion

> <Gold.Protein.ActiveResidues>
 VAL166  LYS551  ARG553  GLY616  TRP617  ASP618  TYR619  PRO620  LYS621  CYS622 
 ASP623  PHE694  ASN695  SER759  ASP760  ASP761  ALA762  ILE779  LEU786  VAL792 
 PHE793  MET794  SER795  GLU796  ALA797  LYS798  CYS799  TRP800  GLU811  SER814 

> <Gold.Protein.RotatedAtoms>
  151.4875  135.1056  159.9794 H   0  0  0  0  0  0  0  0  0  0  0  0  # atno 6907 bound_to 6896
  152.4754  133.8123  159.7020 H   0  0  0  0  0  0  0  0  0  0  0  0  # atno 6908 bound_to 6896
  150.8789  133.7338  159.2964 H   0  0  0  0  0  0  0  0  0  0  0  0  # atno 6909 bound_to 6896
  146.2279  139.8897  142.8557 H   0  0  0  0  0  0  0  0  0  0  0  0  # atno 7974 bound_to 7965
  156.0555  140.3302  155.7401 H   0  0  0  0  0  0  0  0  0  0  0  0  # atno 8008 bound_to 7997
  155.5535  140.0612  157.2862 H   0  0  0  0  0  0  0  0  0  0  0  0  # atno 8009 bound_to 7997
  154.4456  140.1890  156.0699 H   0  0  0  0  0  0  0  0  0  0  0  0  # atno 8010 bound_to 7997
  139.8393  143.7342  152.2664 H   0  0  0  0  0  0  0  0  0  0  0  0  # atno 10167 bound_to 10162
  156.0259  130.5459  150.7227 H   0  0  0  0  0  0  0  0  0  0  0  0  # atno 10718 bound_to 10713
  154.1621  135.2809  155.3105 H   0  0  0  0  0  0  0  0  0  0  0  0  # atno 10763 bound_to 10752
  154.6138  135.5490  153.7505 H   0  0  0  0  0  0  0  0  0  0  0  0  # atno 10764 bound_to 10752
  153.0189  135.6422  154.1763 H   0  0  0  0  0  0  0  0  0  0  0  0  # atno 10765 bound_to 10752
  140.3110  134.2650  155.7734 H   0  0  0  0  0  0  0  0  0  0  0  0  # atno 11005 bound_to 11000
  145.2430  141.0016  143.3925 LP  0  0  0  0  0  0  0  0  0  0  0  0  # atno 17320 bound_to 7965
  144.9436  139.4161  143.6436 LP  0  0  0  0  0  0  0  0  0  0  0  0  # atno 17321 bound_to 7965
  139.7575  144.7516  151.0414 LP  0  0  0  0  0  0  0  0  0  0  0  0  # atno 17342 bound_to 10162
  140.7799  143.4789  151.0045 LP  0  0  0  0  0  0  0  0  0  0  0  0  # atno 17343 bound_to 10162
  157.4839  131.0905  151.0505 LP  0  0  0  0  0  0  0  0  0  0  0  0  # atno 17370 bound_to 10713
  157.0930  130.5950  149.5444 LP  0  0  0  0  0  0  0  0  0  0  0  0  # atno 17371 bound_to 10713
  141.2108  133.7708  156.9907 LP  0  0  0  0  0  0  0  0  0  0  0  0  # atno 17394 bound_to 11000
  140.1025  134.9527  157.1944 LP  0  0  0  0  0  0  0  0  0  0  0  0  # atno 17395 bound_to 11000

$$$$
