AV-unprocessed.smi:1244|AV-procd|sdf|5231|dock10
  -GOLD-   22720 4333D 1   1.00000     0.00000
 Structure written by MMmdl.
 56 58  0  0  0  0  0  0  0  0  3 V2000
  153.8602  136.9430  164.5170 C   0  0  0  0  0  0  0  0  0  0  0  0
  155.2103  136.2297  164.3220 C   0  0  2  0  0  0  0  0  0  0  0  0
  155.9357  136.6271  163.0210 C   0  0  0  0  0  0  0  0  0  0  0  0
  155.2852  136.0198  161.8355 N   0  3  1  0  0  0  0  0  0  0  0  0
  155.9225  136.4396  160.5624 C   0  0  0  0  0  0  0  0  0  0  0  0
  156.3345  137.9242  160.5746 C   0  0  0  0  0  0  0  0  0  0  0  0
  155.2316  138.7946  160.1834 N   0  0  0  0  0  0  0  0  0  0  0  0
  154.9711  139.9925  160.7257 C   0  0  0  0  0  0  0  0  0  0  0  0
  155.6684  140.5079  161.5994 O   0  0  0  0  0  0  0  0  0  0  0  0
  153.8544  140.5318  160.2084 N   0  0  0  0  0  0  0  0  0  0  0  0
  153.2163  141.7482  160.5843 C   0  0  0  0  0  0  0  0  0  0  0  0
  153.4237  142.3211  161.8655 C   0  0  0  0  0  0  0  0  0  0  0  0
  152.7624  143.5123  162.2189 C   0  0  0  0  0  0  0  0  0  0  0  0
  151.9053  144.1168  161.2839 C   0  0  0  0  0  0  0  0  0  0  0  0
  151.7440  143.5589  160.0665 N   0  3  0  0  0  0  0  0  0  0  0  0
  152.3641  142.4224  159.6613 C   0  0  0  0  0  0  0  0  0  0  0  0
  152.1064  141.9633  158.3494 N   0  0  0  0  0  0  0  0  0  0  0  0
  151.6992  140.5824  158.1163 C   0  0  0  0  0  0  0  0  0  0  0  0
  151.1863  140.5588  156.6791 C   0  0  0  0  0  0  0  0  0  0  0  0
  150.5342  141.9314  156.5421 C   0  0  0  0  0  0  0  0  0  0  0  0
  151.4091  142.8393  157.4133 C   0  0  0  0  0  0  0  0  0  0  0  0
  155.1941  134.5491  161.9993 C   0  0  0  0  0  0  0  0  0  0  0  0
  154.4379  134.1989  163.2931 C   0  0  1  0  0  0  0  0  0  0  0  0
  154.3958  132.6873  163.5433 C   0  0  0  0  0  0  0  0  0  0  0  0
  155.0886  134.8097  164.4043 O   0  0  0  0  0  0  0  0  0  0  0  0
  153.9994  138.0224  164.5847 H   0  0  0  0  0  0  0  0  0  0  0  0
  153.3777  136.6164  165.4384 H   0  0  0  0  0  0  0  0  0  0  0  0
  153.1704  136.7578  163.6941 H   0  0  0  0  0  0  0  0  0  0  0  0
  155.8446  136.5259  165.1581 H   0  0  0  0  0  0  0  0  0  0  0  0
  155.9566  137.7137  162.9259 H   0  0  0  0  0  0  0  0  0  0  0  0
  156.9743  136.2946  163.0640 H   0  0  0  0  0  0  0  0  0  0  0  0
  156.8169  135.8356  160.4033 H   0  0  0  0  0  0  0  0  0  0  0  0
  155.2549  136.2284  159.7254 H   0  0  0  0  0  0  0  0  0  0  0  0
  156.6464  138.2326  161.5717 H   0  0  0  0  0  0  0  0  0  0  0  0
  157.1904  138.0881  159.9175 H   0  0  0  0  0  0  0  0  0  0  0  0
  154.6083  138.4463  159.4691 H   0  0  0  0  0  0  0  0  0  0  0  0
  153.3371  139.9497  159.5661 H   0  0  0  0  0  0  0  0  0  0  0  0
  154.0868  141.8652  162.5849 H   0  0  0  0  0  0  0  0  0  0  0  0
  152.9096  143.9535  163.1937 H   0  0  0  0  0  0  0  0  0  0  0  0
  151.3531  145.0273  161.4671 H   0  0  0  0  0  0  0  0  0  0  0  0
  152.5300  139.8916  158.2615 H   0  0  0  0  0  0  0  0  0  0  0  0
  150.8937  140.3020  158.7962 H   0  0  0  0  0  0  0  0  0  0  0  0
  152.0227  140.4728  155.9842 H   0  0  0  0  0  0  0  0  0  0  0  0
  150.4978  139.7357  156.4861 H   0  0  0  0  0  0  0  0  0  0  0  0
  150.4692  142.2714  155.5083 H   0  0  0  0  0  0  0  0  0  0  0  0
  149.5225  141.8976  156.9484 H   0  0  0  0  0  0  0  0  0  0  0  0
  150.8104  143.5949  157.9238 H   0  0  0  0  0  0  0  0  0  0  0  0
  152.1471  143.3496  156.7938 H   0  0  0  0  0  0  0  0  0  0  0  0
  154.6749  134.1025  161.1520 H   0  0  0  0  0  0  0  0  0  0  0  0
  156.1980  134.1217  162.0195 H   0  0  0  0  0  0  0  0  0  0  0  0
  153.4104  134.5568  163.2244 H   0  0  0  0  0  0  0  0  0  0  0  0
  153.8989  132.1666  162.7244 H   0  0  0  0  0  0  0  0  0  0  0  0
  153.8512  132.4593  164.4598 H   0  0  0  0  0  0  0  0  0  0  0  0
  155.4002  132.2743  163.6418 H   0  0  0  0  0  0  0  0  0  0  0  0
  154.3404  136.3769  161.8177 H   0  0  0  0  0  0  0  0  0  0  0  0
  151.1220  144.0269  159.4070 H   0  0  0  0  0  0  0  0  0  0  0  0
  1  2  1  0  0  0  0
  1 26  1  0  0  0  0
  1 27  1  0  0  0  0
  1 28  1  0  0  0  0
  2 25  1  0  0  0  0
  2  3  1  0  0  0  0
  2 29  1  0  0  0  0
  3  4  1  0  0  0  0
  3 30  1  0  0  0  0
  3 31  1  0  0  0  0
  4  5  1  0  0  0  0
  4 22  1  0  0  0  0
  4 55  1  0  0  0  0
  5  6  1  0  0  0  0
  5 32  1  0  0  0  0
  5 33  1  0  0  0  0
  6  7  1  0  0  0  0
  6 34  1  0  0  0  0
  6 35  1  0  0  0  0
  7  8  1  0  0  0  0
  7 36  1  0  0  0  0
  8  9  2  0  0  0  0
  8 10  1  0  0  0  0
 10 11  1  0  0  0  0
 10 37  1  0  0  0  0
 11 16  1  0  0  0  0
 11 12  2  0  0  0  0
 12 13  1  0  0  0  0
 12 38  1  0  0  0  0
 13 14  2  0  0  0  0
 13 39  1  0  0  0  0
 14 15  1  0  0  0  0
 14 40  1  0  0  0  0
 15 16  2  0  0  0  0
 15 56  1  0  0  0  0
 16 17  1  0  0  0  0
 17 21  1  0  0  0  0
 17 18  1  0  0  0  0
 18 19  1  0  0  0  0
 18 41  1  0  0  0  0
 18 42  1  0  0  0  0
 19 20  1  0  0  0  0
 19 43  1  0  0  0  0
 19 44  1  0  0  0  0
 20 21  1  0  0  0  0
 20 45  1  0  0  0  0
 20 46  1  0  0  0  0
 21 47  1  0  0  0  0
 21 48  1  0  0  0  0
 22 23  1  0  0  0  0
 22 49  1  0  0  0  0
 22 50  1  0  0  0  0
 23 24  1  0  0  0  0
 23 25  1  0  0  0  0
 23 51  1  0  0  0  0
 24 52  1  0  0  0  0
 24 53  1  0  0  0  0
 24 54  1  0  0  0  0
M  CHG  1   4   1
M  CHG  1  15   1
M  END
> <s_m_source_file>
AV-unprocessed.smi

> <i_m_source_file_index>
1244

> <i_lp_mmshare_version>
43012

> <i_f3d_flags>
0

> <s_epik_input>
W0NIM11bQ0BASF0xW0NIMl1OKFtDSDJdW0NASF0oTzEpW0NIM10pW0NIMl1bQ0gyXVtOSF1DKD1PKVtOSF1jMltjSF1bY0hdW2NIXW5jMk4zW0NIMl1bQ0gyXVtDSDJdW0NIMl0z

> <s_epik_cmdline>
J2VwaWtfcHl0aG9uJywgJy1waCcsICc3LjAnLCAnLXRuJywgJzgnLCAnLW1hJywgJzIwMCcsICctbWV0YWxfYmluZGluZycsICctaW1hZScsICc8aW5maWxlLm1hZT4nLCAnLW9tYWUnLCAnPG91dGZpbGUubWFlPic=

> <r_lp_tautomer_probability>
0.999994

> <r_epik_Ionization_Penalty>
1.81601

> <r_epik_Ionization_Penalty_Charging>
1.81599

> <r_epik_Ionization_Penalty_Neutral>
2.01972e-05

> <r_epik_State_Penalty>
1.85672

> <r_epik_Charging_Adjusted_Penalty>
3.6727

> <i_epik_Tot_Q>
2

> <i_epik_Tot_abs_Q>
2

> <r_epik_Metal_State_Penalty>
1.93796

> <b_epik_Metal_Only>
0

> <s_lp_Force_Field>
OPLS_2005

> <r_lp_Energy>
54.4997

> <b_lp_Chiralities_Consistent>
1

> <s_lp_Variant>
AV-unprocessed.smi:1244-11

> <Gold.Version>
5.8.1

> <Gold.Id.Protein>
6NUR|6NUR_protein|mol2

> <Gold.PLP.Fitness>
44.3102

> <Gold.PLP.PLP>
-45.4273

> <Gold.PLP.part.hbond>
-1.0000

> <Gold.PLP.part.metal>
0.0000

> <Gold.PLP.part.buried>
-6.9984

> <Gold.PLP.part.nonpolar>
-36.8442

> <Gold.PLP.part.repulsive>
0.2748

> <Gold.PLP.ligand.clash>
0.0000

> <Gold.PLP.ligand.torsion>
0.7642

> <Gold.PLP.Chemscore.Hbond>
0.0000

> <Gold.PLP.Chemscore.CHOScore>
0.0000

> <Gold.PLP.Chemscore.Metal>
0.0000

> <Gold.PLP.Chemscore.Internal.Correction>
0.4114

> <Gold.Rescore>
     Score         DG    S(hbond)    S(metal)    S(lipo)     H(rot)  DE(clash)    DE(int)     intcor
     11.64     -15.04       0.00        0.00     117.39       1.63       1.39       2.01       ----

> <Gold.Chemscore.Fitness>
11.6413

> <Gold.Chemscore.DG>
-15.0443

> <Gold.Chemscore.ZeroCoef>
-5.4800

> <Gold.Chemscore.Hbond>
0.0000

> <Gold.Chemscore.Metal>
0.0000

> <Gold.Chemscore.Lipo>
117.3948

> <Gold.Chemscore.Internal_Hbond>
0.0000

> <Gold.Chemscore.DEClash>
1.3893

> <Gold.Chemscore.DEInternal>
2.0137

> <Gold.Chemscore.Rot>
1.6293

> <Gold.Chemscore.Internal.Correction>
   9.000000E+99

> <Gold.Chemscore.Hbond.Weighted>
-0.0000

> <Gold.Chemscore.Metal.Weighted>
-0.0000

> <Gold.Chemscore.Lipo.Weighted>
-13.7352

> <Gold.Chemscore.Internal_Hbond.Weighted>
0.0000

> <Gold.Chemscore.DEClash.Weighted>
1.3893

> <Gold.Chemscore.DEInternal.Weighted>
2.0137

> <Gold.Chemscore.Rot.Weighted>
4.1709

> <Gold.Chemscore.Internal.Correction.Weighted>
   9.000000E+99

> <Gold.Protein.RotatedTorsions>
[ 6907 6896 6895 6894 ] final  -48.50 input  -60.11 | X-H torsion
[ 7974 7965 7964 7962 ] final    9.42 input  175.53 | X-H torsion
[ 8008 7997 7996 7995 ] final -147.66 input   59.86 | X-H torsion
[ 10167 10162 10161 10158 ] final   75.13 input  -65.29 | X-H torsion
[ 10718 10713 10712 10709 ] final  102.13 input   66.30 | X-H torsion
[ 10763 10752 10751 10750 ] final  -19.34 input  -60.55 | X-H torsion
[ 11005 11000 10999 10996 ] final -113.63 input  -57.11 | X-H torsion

> <Gold.Protein.ActiveResidues>
 VAL166  LYS551  ARG553  GLY616  TRP617  ASP618  TYR619  PRO620  LYS621  CYS622 
 ASP623  PHE694  ASN695  SER759  ASP760  ASP761  ALA762  ILE779  LEU786  VAL792 
 PHE793  MET794  SER795  GLU796  ALA797  LYS798  CYS799  TRP800  GLU811  SER814 

> <Gold.Protein.RotatedAtoms>
  150.8899  134.8302  159.7285 H   0  0  0  0  0  0  0  0  0  0  0  0  # atno 6907 bound_to 6896
  152.4831  134.4664  159.9631 H   0  0  0  0  0  0  0  0  0  0  0  0  # atno 6908 bound_to 6896
  151.4727  133.3526  159.2861 H   0  0  0  0  0  0  0  0  0  0  0  0  # atno 6909 bound_to 6896
  146.2403  139.9786  142.8439 H   0  0  0  0  0  0  0  0  0  0  0  0  # atno 7974 bound_to 7965
  155.5791  140.0641  157.2787 H   0  0  0  0  0  0  0  0  0  0  0  0  # atno 8008 bound_to 7997
  154.4338  140.1855  156.1004 H   0  0  0  0  0  0  0  0  0  0  0  0  # atno 8009 bound_to 7997
  156.0318  140.3305  155.7152 H   0  0  0  0  0  0  0  0  0  0  0  0  # atno 8010 bound_to 7997
  140.0063  144.5648  150.7695 H   0  0  0  0  0  0  0  0  0  0  0  0  # atno 10167 bound_to 10162
  157.6811  131.0745  150.5357 H   0  0  0  0  0  0  0  0  0  0  0  0  # atno 10718 bound_to 10713
  153.6032  135.6998  153.5376 H   0  0  0  0  0  0  0  0  0  0  0  0  # atno 10763 bound_to 10752
  153.3079  135.4110  155.1310 H   0  0  0  0  0  0  0  0  0  0  0  0  # atno 10764 bound_to 10752
  154.8578  135.3665  154.5568 H   0  0  0  0  0  0  0  0  0  0  0  0  # atno 10765 bound_to 10752
  141.0602  133.9547  157.2680 H   0  0  0  0  0  0  0  0  0  0  0  0  # atno 11005 bound_to 11000
  145.1613  140.9674  143.4375 LP  0  0  0  0  0  0  0  0  0  0  0  0  # atno 17320 bound_to 7965
  145.0113  139.3507  143.6118 LP  0  0  0  0  0  0  0  0  0  0  0  0  # atno 17321 bound_to 7965
  140.7399  143.2797  151.3634 LP  0  0  0  0  0  0  0  0  0  0  0  0  # atno 17342 bound_to 10162
  139.6236  144.0858  152.2414 LP  0  0  0  0  0  0  0  0  0  0  0  0  # atno 17343 bound_to 10162
  156.5666  130.4269  149.6038 LP  0  0  0  0  0  0  0  0  0  0  0  0  # atno 17370 bound_to 10713
  156.2776  130.7052  151.1868 LP  0  0  0  0  0  0  0  0  0  0  0  0  # atno 17371 bound_to 10713
  139.9426  135.0189  156.8755 LP  0  0  0  0  0  0  0  0  0  0  0  0  # atno 17394 bound_to 11000
  140.5883  134.0286  155.7490 LP  0  0  0  0  0  0  0  0  0  0  0  0  # atno 17395 bound_to 11000

$$$$
