AV-unprocessed.smi:514|AV-procd|sdf|2776|dock6
  -GOLD-   2262023243D 1   1.00000     0.00000
 Structure written by MMmdl.
 46 48  0  0  0  0  0  0  0  0  2 V2000
  148.6627  141.5360  155.2756 C   0  0  0  0  0  0  0  0  0  0  0  0
  148.7292  140.2049  154.5244 C   0  0  0  0  0  0  0  0  0  0  0  0
  150.0721  139.7547  154.5261 O   0  0  0  0  0  0  0  0  0  0  0  0
  150.5618  139.4499  155.8197 C   0  0  0  0  0  0  0  0  0  0  0  0
  151.6880  140.4259  156.2202 C   0  0  0  0  0  0  0  0  0  0  0  0
  152.2268  140.1645  157.5547 N   0  0  0  0  0  0  0  0  0  0  0  0
  152.4336  141.0231  158.6000 C   0  0  0  0  0  0  0  0  0  0  0  0
  152.1747  142.4042  158.5619 N   0  0  0  0  0  0  0  0  0  0  0  0
  151.0245  142.9745  157.8542 C   0  0  0  0  0  0  0  0  0  0  0  0
  150.1760  143.8703  158.7754 C   0  0  0  0  0  0  0  0  0  0  0  0
  151.0007  144.9479  159.3574 N   0  3  0  0  0  0  0  0  0  0  0  0
  152.2270  144.4350  159.9999 C   0  0  0  0  0  0  0  0  0  0  0  0
  152.9990  143.5209  159.0304 C   0  0  0  0  0  0  0  0  0  0  0  0
  152.9661  140.4418  159.6801 N   0  0  0  0  0  0  0  0  0  0  0  0
  153.1234  139.1213  159.3014 C   0  0  0  0  0  0  0  0  0  0  0  0
  152.7122  138.9370  158.0232 C   0  0  0  0  0  0  0  0  0  0  0  0
  152.8244  137.6312  157.3508 C   0  0  0  0  0  0  0  0  0  0  0  0
  152.5246  137.4410  156.1745 O   0  0  0  0  0  0  0  0  0  0  0  0
  153.3031  136.6540  158.1581 N   0  0  0  0  0  0  0  0  0  0  0  0
  153.7062  136.7727  159.4592 C   0  0  0  0  0  0  0  0  0  0  0  0
  154.1033  135.7815  160.0713 O   0  0  0  0  0  0  0  0  0  0  0  0
  153.6482  138.0179  160.0310 N   0  0  0  0  0  0  0  0  0  0  0  0
  154.0802  138.2286  161.4142 C   0  0  0  0  0  0  0  0  0  0  0  0
  153.3762  135.7334  157.7504 H   0  0  0  0  0  0  0  0  0  0  0  0
  147.6434  141.9217  155.2974 H   0  0  0  0  0  0  0  0  0  0  0  0
  149.2952  142.2852  154.7989 H   0  0  0  0  0  0  0  0  0  0  0  0
  148.9997  141.4207  156.3059 H   0  0  0  0  0  0  0  0  0  0  0  0
  148.0846  139.4698  155.0078 H   0  0  0  0  0  0  0  0  0  0  0  0
  148.3754  140.3366  153.5010 H   0  0  0  0  0  0  0  0  0  0  0  0
  149.7510  139.5124  156.5468 H   0  0  0  0  0  0  0  0  0  0  0  0
  150.9155  138.4198  155.8196 H   0  0  0  0  0  0  0  0  0  0  0  0
  152.5009  140.3656  155.4980 H   0  0  0  0  0  0  0  0  0  0  0  0
  151.3503  141.4574  156.1562 H   0  0  0  0  0  0  0  0  0  0  0  0
  151.3783  143.5439  156.9934 H   0  0  0  0  0  0  0  0  0  0  0  0
  150.3902  142.1831  157.4543 H   0  0  0  0  0  0  0  0  0  0  0  0
  149.3469  144.3118  158.2223 H   0  0  0  0  0  0  0  0  0  0  0  0
  149.7437  143.2763  159.5817 H   0  0  0  0  0  0  0  0  0  0  0  0
  151.2736  145.5717  158.6114 H   0  0  0  0  0  0  0  0  0  0  0  0
  152.8481  145.2760  160.3084 H   0  0  0  0  0  0  0  0  0  0  0  0
  151.9539  143.8895  160.9040 H   0  0  0  0  0  0  0  0  0  0  0  0
  153.9160  143.1781  159.4928 H   0  0  0  0  0  0  0  0  0  0  0  0
  153.3204  144.0997  158.1633 H   0  0  0  0  0  0  0  0  0  0  0  0
  153.2545  138.0279  162.0972 H   0  0  0  0  0  0  0  0  0  0  0  0
  154.4116  139.2540  161.5790 H   0  0  0  0  0  0  0  0  0  0  0  0
  154.9153  137.5830  161.6896 H   0  0  0  0  0  0  0  0  0  0  0  0
  150.4552  145.4635  160.0332 H   0  0  0  0  0  0  0  0  0  0  0  0
  1  2  1  0  0  0  0
  1 25  1  0  0  0  0
  1 26  1  0  0  0  0
  1 27  1  0  0  0  0
  2  3  1  0  0  0  0
  2 28  1  0  0  0  0
  2 29  1  0  0  0  0
  3  4  1  0  0  0  0
  4  5  1  0  0  0  0
  4 30  1  0  0  0  0
  4 31  1  0  0  0  0
  5  6  1  0  0  0  0
  5 32  1  0  0  0  0
  5 33  1  0  0  0  0
  6 16  1  0  0  0  0
  6  7  1  0  0  0  0
  7  8  1  0  0  0  0
  7 14  2  0  0  0  0
  8 13  1  0  0  0  0
  8  9  1  0  0  0  0
  9 10  1  0  0  0  0
  9 34  1  0  0  0  0
  9 35  1  0  0  0  0
 10 11  1  0  0  0  0
 10 36  1  0  0  0  0
 10 37  1  0  0  0  0
 11 12  1  0  0  0  0
 11 38  1  0  0  0  0
 11 46  1  0  0  0  0
 12 13  1  0  0  0  0
 12 39  1  0  0  0  0
 12 40  1  0  0  0  0
 13 41  1  0  0  0  0
 13 42  1  0  0  0  0
 14 15  1  0  0  0  0
 15 22  1  0  0  0  0
 15 16  2  0  0  0  0
 16 17  1  0  0  0  0
 17 18  2  0  0  0  0
 17 19  1  0  0  0  0
 19 24  1  0  0  0  0
 19 20  1  0  0  0  0
 20 21  2  0  0  0  0
 20 22  1  0  0  0  0
 22 23  1  0  0  0  0
 23 43  1  0  0  0  0
 23 44  1  0  0  0  0
 23 45  1  0  0  0  0
M  CHG  1  11   1
M  END
> <s_m_source_file>
AV-unprocessed.smi

> <i_m_source_file_index>
514

> <i_lp_mmshare_version>
43012

> <i_f3d_flags>
0

> <s_epik_input>
W0NIM11uMWMoPU8pW25IXWMoPU8pYyhjMTIpbihbQ0gyXVtDSDJdT1tDSDJdW0NIM10pYyhuMilOM1tDSDJdW0NIMl1bTkhdW0NIMl1bQ0gyXTM=

> <s_epik_cmdline>
J2VwaWtfcHl0aG9uJywgJy1waCcsICc3LjAnLCAnLXRuJywgJzgnLCAnLW1hJywgJzIwMCcsICctbWV0YWxfYmluZGluZycsICctaW1hZScsICc8aW5maWxlLm1hZT4nLCAnLW9tYWUnLCAnPG91dGZpbGUubWFlPic=

> <r_epik_Ionization_Penalty>
0.00860326

> <r_epik_Ionization_Penalty_Charging>
0.00860166

> <r_epik_Ionization_Penalty_Neutral>
1.60107e-06

> <r_epik_State_Penalty>
0.00646614

> <r_epik_Charging_Adjusted_Penalty>
0.0150678

> <i_epik_Tot_Q>
1

> <i_epik_Tot_abs_Q>
1

> <r_epik_Metal_State_Penalty>
0.0342529

> <b_epik_Metal_Only>
0

> <s_lp_Force_Field>
OPLS_2005

> <r_lp_Energy>
46.1071

> <b_lp_Chiralities_Consistent>
1

> <s_lp_Variant>
AV-unprocessed.smi:514-1

> <Gold.Version>
5.8.1

> <Gold.Id.Protein>
6NUR|6NUR_protein|mol2

> <Gold.PLP.Fitness>
41.4925

> <Gold.PLP.PLP>
-35.6708

> <Gold.PLP.part.hbond>
-3.0000

> <Gold.PLP.part.metal>
0.0000

> <Gold.PLP.part.buried>
-3.0019

> <Gold.PLP.part.nonpolar>
-30.6880

> <Gold.PLP.part.repulsive>
0.4703

> <Gold.PLP.ligand.clash>
0.0000

> <Gold.PLP.ligand.torsion>
1.0624

> <Gold.PLP.Chemscore.Hbond>
2.6400

> <Gold.PLP.Chemscore.CHOScore>
0.0000

> <Gold.PLP.Chemscore.Metal>
0.0000

> <Gold.Chemscore.Hbonds>
donor molecule, donor type, donor heavy atom, donor atom, acceptor molecule, acceptor atom, score
      P1  H  6896  6909       L1    21  1.00
      P1  H  7989  7998       L1     3  0.65
      P1  H 10752 10765       L1    18  0.20

> <Gold.PLP.Chemscore.Internal.Correction>
0.0265

> <Gold.Rescore>
     Score         DG    S(hbond)    S(metal)    S(lipo)     H(rot)  DE(clash)    DE(int)     intcor
     14.95     -17.60       2.14        0.00      80.81       1.75       0.37       2.28       ----

> <Gold.Chemscore.Fitness>
14.9535

> <Gold.Chemscore.DG>
-17.5987

> <Gold.Chemscore.ZeroCoef>
-5.4800

> <Gold.Chemscore.Hbond>
2.1360

> <Gold.Chemscore.Metal>
0.0000

> <Gold.Chemscore.Lipo>
80.8065

> <Gold.Chemscore.Internal_Hbond>
0.0000

> <Gold.Chemscore.DEClash>
0.3664

> <Gold.Chemscore.DEInternal>
2.2787

> <Gold.Chemscore.Rot>
1.7461

> <Gold.Chemscore.Internal.Correction>
   9.000000E+99

> <Gold.Chemscore.Hbonds>
donor molecule, donor type, donor heavy atom, donor atom, acceptor molecule, acceptor atom, score
      P1  H  6896  6909       L1    21  0.37
      P1  H  7989  7998       L1     3  0.41
      P1  H 10752 10765       L1    18  0.21

> <Gold.Chemscore.Hbond.Weighted>
-7.1344

> <Gold.Chemscore.Metal.Weighted>
-0.0000

> <Gold.Chemscore.Lipo.Weighted>
-9.4544

> <Gold.Chemscore.Internal_Hbond.Weighted>
0.0000

> <Gold.Chemscore.DEClash.Weighted>
0.3664

> <Gold.Chemscore.DEInternal.Weighted>
2.2787

> <Gold.Chemscore.Rot.Weighted>
4.4701

> <Gold.Chemscore.Internal.Correction.Weighted>
   9.000000E+99

> <Gold.Protein.RotatedTorsions>
[ 6907 6896 6895 6894 ] final -169.14 input  -60.11 | X-H torsion
[ 7974 7965 7964 7962 ] final -178.16 input  175.53 | X-H torsion
[ 8008 7997 7996 7995 ] final -108.80 input   59.86 | X-H torsion
[ 10167 10162 10161 10158 ] final   -0.24 input  -65.29 | X-H torsion
[ 10718 10713 10712 10709 ] final  171.96 input   66.30 | X-H torsion
[ 10763 10752 10751 10750 ] final -152.34 input  -60.55 | X-H torsion
[ 11005 11000 10999 10996 ] final  -52.17 input  -57.11 | X-H torsion

> <Gold.Protein.ActiveResidues>
 VAL166  LYS551  ARG553  GLY616  TRP617  ASP618  TYR619  PRO620  LYS621  CYS622 
 ASP623  PHE694  ASN695  SER759  ASP760  ASP761  ALA762  ILE779  LEU786  VAL792 
 PHE793  MET794  SER795  GLU796  ALA797  LYS798  CYS799  TRP800  GLU811  SER814 

> <Gold.Protein.RotatedAtoms>
  151.4868  133.3534  159.2846 H   0  0  0  0  0  0  0  0  0  0  0  0  # atno 6907 bound_to 6896
  150.8861  134.8261  159.7271 H   0  0  0  0  0  0  0  0  0  0  0  0  # atno 6908 bound_to 6896
  152.4794  134.4772  159.9706 H   0  0  0  0  0  0  0  0  0  0  0  0  # atno 6909 bound_to 6896
  144.7130  140.0910  143.6421 H   0  0  0  0  0  0  0  0  0  0  0  0  # atno 7974 bound_to 7965
  154.9497  140.0401  157.2138 H   0  0  0  0  0  0  0  0  0  0  0  0  # atno 8008 bound_to 7997
  154.7990  140.2848  155.5913 H   0  0  0  0  0  0  0  0  0  0  0  0  # atno 8009 bound_to 7997
  156.2959  140.2558  156.2854 H   0  0  0  0  0  0  0  0  0  0  0  0  # atno 8010 bound_to 7997
  140.6758  143.6919  150.8021 H   0  0  0  0  0  0  0  0  0  0  0  0  # atno 10167 bound_to 10162
  156.9859  131.0133  151.2869 H   0  0  0  0  0  0  0  0  0  0  0  0  # atno 10718 bound_to 10713
  154.8000  135.3238  154.7572 H   0  0  0  0  0  0  0  0  0  0  0  0  # atno 10763 bound_to 10752
  153.8242  135.6885  153.4827 H   0  0  0  0  0  0  0  0  0  0  0  0  # atno 10764 bound_to 10752
  153.1712  135.4622  154.9848 H   0  0  0  0  0  0  0  0  0  0  0  0  # atno 10765 bound_to 10752
  141.0910  133.6633  156.3985 H   0  0  0  0  0  0  0  0  0  0  0  0  # atno 11005 bound_to 11000
  145.9620  139.2808  143.1150 LP  0  0  0  0  0  0  0  0  0  0  0  0  # atno 17320 bound_to 7965
  145.9210  140.9115  143.0405 LP  0  0  0  0  0  0  0  0  0  0  0  0  # atno 17321 bound_to 7965
  140.0611  143.5153  152.2627 LP  0  0  0  0  0  0  0  0  0  0  0  0  # atno 17342 bound_to 10162
  139.6050  144.7594  151.3082 LP  0  0  0  0  0  0  0  0  0  0  0  0  # atno 17343 bound_to 10162
  157.5493  130.8171  149.8125 LP  0  0  0  0  0  0  0  0  0  0  0  0  # atno 17370 bound_to 10713
  156.0226  130.3790  150.1917 LP  0  0  0  0  0  0  0  0  0  0  0  0  # atno 17371 bound_to 10713
  140.5251  134.6266  157.5331 LP  0  0  0  0  0  0  0  0  0  0  0  0  # atno 17394 bound_to 11000
  139.9736  134.7251  155.9992 LP  0  0  0  0  0  0  0  0  0  0  0  0  # atno 17395 bound_to 11000

$$$$
