AV-unprocessed.smi:99|AV-procd|sdf|894|dock5
  -GOLD-   2262017383D 1   1.00000     0.00000
 Structure written by MMmdl.
 52 55  0  0  0  0  0  0  0  0  2 V2000
  148.8075  132.3718  154.8183 O   0  0  0  0  0  0  0  0  0  0  0  0
  147.7045  132.2094  154.2926 C   0  0  0  0  0  0  0  0  0  0  0  0
  146.7423  133.1507  154.2689 O   0  0  0  0  0  0  0  0  0  0  0  0
  147.0526  134.5105  154.5274 C   0  0  0  0  0  0  0  0  0  0  0  0
  146.6692  135.3428  153.2976 C   0  0  1  0  0  0  0  0  0  0  0  0
  145.4643  134.8483  152.7183 O   0  0  0  0  0  0  0  0  0  0  0  0
  144.7314  135.8964  152.1436 C   0  0  1  0  0  0  0  0  0  0  0  0
  143.3639  135.9612  152.7893 N   0  0  0  0  0  0  0  0  0  0  0  0
  142.8866  137.1420  153.3342 C   0  0  0  0  0  0  0  0  0  0  0  0
  141.6638  137.2109  153.8992 C   0  0  0  0  0  0  0  0  0  0  0  0
  140.8224  136.0181  153.9354 C   0  0  0  0  0  0  0  0  0  0  0  0
  139.7132  136.0876  154.4611 O   0  0  0  0  0  0  0  0  0  0  0  0
  141.3086  134.8719  153.3776 N   0  5  0  0  0  0  0  0  0  0  0  0
  142.5429  134.8007  152.7991 C   0  0  0  0  0  0  0  0  0  0  0  0
  142.9822  133.7771  152.2744 O   0  0  0  0  0  0  0  0  0  0  0  0
  145.4986  137.2028  152.3994 C   0  0  2  0  0  0  0  0  0  0  0  0
  146.2756  137.5416  151.2652 O   0  0  0  0  0  0  0  0  0  0  0  0
  146.3499  136.8072  153.5940 C   0  0  2  0  0  0  0  0  0  0  0  0
  147.4906  137.6485  153.7376 O   0  0  0  0  0  0  0  0  0  0  0  0
  147.3655  138.9386  154.1194 C   0  0  0  0  0  0  0  0  0  0  0  0
  146.3176  139.5822  154.0355 O   0  0  0  0  0  0  0  0  0  0  0  0
  148.6230  139.4947  154.6954 C   0  0  0  0  0  0  0  0  0  0  0  0
  148.6295  140.8179  155.1952 C   0  0  0  0  0  0  0  0  0  0  0  0
  149.7944  141.3618  155.7699 C   0  0  0  0  0  0  0  0  0  0  0  0
  150.9678  140.5894  155.8497 C   0  0  0  0  0  0  0  0  0  0  0  0
  150.9750  139.2731  155.3529 C   0  0  0  0  0  0  0  0  0  0  0  0
  149.8106  138.7269  154.7787 C   0  0  0  0  0  0  0  0  0  0  0  0
  147.2987  130.9559  153.5933 C   0  0  0  0  0  0  0  0  0  0  0  0
  148.0664  129.7816  153.7716 C   0  0  0  0  0  0  0  0  0  0  0  0
  147.7190  128.5899  153.1059 C   0  0  0  0  0  0  0  0  0  0  0  0
  146.6000  128.5576  152.2535 C   0  0  0  0  0  0  0  0  0  0  0  0
  145.8255  129.7178  152.0710 C   0  0  0  0  0  0  0  0  0  0  0  0
  146.1697  130.9093  152.7381 C   0  0  0  0  0  0  0  0  0  0  0  0
  146.4873  134.8400  155.3996 H   0  0  0  0  0  0  0  0  0  0  0  0
  148.1123  134.6409  154.7519 H   0  0  0  0  0  0  0  0  0  0  0  0
  147.4488  135.2746  152.5367 H   0  0  0  0  0  0  0  0  0  0  0  0
  144.5536  135.6766  151.0894 H   0  0  0  0  0  0  0  0  0  0  0  0
  143.4917  138.0355  153.3091 H   0  0  0  0  0  0  0  0  0  0  0  0
  141.3074  138.1405  154.3181 H   0  0  0  0  0  0  0  0  0  0  0  0
  144.8242  138.0297  152.6257 H   0  0  0  0  0  0  0  0  0  0  0  0
  145.7242  138.0027  150.6523 H   0  0  0  0  0  0  0  0  0  0  0  0
  145.7106  136.8533  154.4769 H   0  0  0  0  0  0  0  0  0  0  0  0
  147.7383  141.4274  155.1522 H   0  0  0  0  0  0  0  0  0  0  0  0
  149.7854  142.3715  156.1530 H   0  0  0  0  0  0  0  0  0  0  0  0
  151.8608  141.0060  156.2918 H   0  0  0  0  0  0  0  0  0  0  0  0
  151.8751  138.6791  155.4136 H   0  0  0  0  0  0  0  0  0  0  0  0
  149.8490  137.7118  154.4107 H   0  0  0  0  0  0  0  0  0  0  0  0
  148.9336  129.7838  154.4161 H   0  0  0  0  0  0  0  0  0  0  0  0
  148.3145  127.7000  153.2474 H   0  0  0  0  0  0  0  0  0  0  0  0
  146.3364  127.6447  151.7402 H   0  0  0  0  0  0  0  0  0  0  0  0
  144.9685  129.6968  151.4141 H   0  0  0  0  0  0  0  0  0  0  0  0
  145.5569  131.7827  152.5697 H   0  0  0  0  0  0  0  0  0  0  0  0
  1  2  2  0  0  0  0
  2  3  1  0  0  0  0
  2 28  1  0  0  0  0
  3  4  1  0  0  0  0
  4  5  1  0  0  0  0
  4 34  1  0  0  0  0
  4 35  1  0  0  0  0
  5 18  1  0  0  0  0
  5  6  1  0  0  0  0
  5 36  1  0  0  0  0
  6  7  1  0  0  0  0
  7  8  1  0  0  0  0
  7 16  1  0  0  0  0
  7 37  1  0  0  0  0
  8 14  1  0  0  0  0
  8  9  1  0  0  0  0
  9 10  2  0  0  0  0
  9 38  1  0  0  0  0
 10 11  1  0  0  0  0
 10 39  1  0  0  0  0
 11 12  2  0  0  0  0
 11 13  1  0  0  0  0
 13 14  1  0  0  0  0
 14 15  2  0  0  0  0
 16 17  1  0  0  0  0
 16 18  1  0  0  0  0
 16 40  1  0  0  0  0
 17 41  1  0  0  0  0
 18 19  1  0  0  0  0
 18 42  1  0  0  0  0
 19 20  1  0  0  0  0
 20 21  2  0  0  0  0
 20 22  1  0  0  0  0
 22 27  1  0  0  0  0
 22 23  2  0  0  0  0
 23 24  1  0  0  0  0
 23 43  1  0  0  0  0
 24 25  2  0  0  0  0
 24 44  1  0  0  0  0
 25 26  1  0  0  0  0
 25 45  1  0  0  0  0
 26 27  2  0  0  0  0
 26 46  1  0  0  0  0
 27 47  1  0  0  0  0
 28 33  1  0  0  0  0
 28 29  2  0  0  0  0
 29 30  1  0  0  0  0
 29 48  1  0  0  0  0
 30 31  2  0  0  0  0
 30 49  1  0  0  0  0
 31 32  1  0  0  0  0
 31 50  1  0  0  0  0
 32 33  2  0  0  0  0
 32 51  1  0  0  0  0
 33 52  1  0  0  0  0
M  CHG  1  13  -1
M  END
> <s_m_source_file>
AV-unprocessed.smi

> <i_m_source_file_index>
99

> <i_lp_mmshare_version>
43012

> <i_f3d_flags>
0

> <s_epik_input>
W2NIXTFbY0hdW2NIXVtjSF1bY0hdYzFDKD1PKU9bQ0gyXVtDQEBIXTJPW0NAQEhdKG4zW2NIXVtjSF1jKD1PKVtuSF1jMz1PKVtDQEBIXShbT0hdKVtDQEhdMk9DKD1PKWM0W2NIXVtjSF1bY0hdW2NIXVtjSF00

> <s_epik_cmdline>
J2VwaWtfcHl0aG9uJywgJy1waCcsICc3LjAnLCAnLXRuJywgJzgnLCAnLW1hJywgJzIwMCcsICctbWV0YWxfYmluZGluZycsICctaW1hZScsICc8aW5maWxlLm1hZT4nLCAnLW9tYWUnLCAnPG91dGZpbGUubWFlPic=

> <r_lp_tautomer_probability>
1

> <r_epik_Ionization_Penalty>
2.89159

> <r_epik_Ionization_Penalty_Charging>
2.1077e-08

> <r_epik_Ionization_Penalty_Neutral>
2.89159

> <r_epik_State_Penalty>
2.88671

> <r_epik_Charging_Adjusted_Penalty>
2.88671

> <i_epik_Tot_Q>
-1

> <i_epik_Tot_abs_Q>
1

> <r_epik_Metal_State_Penalty>
0.0727308

> <b_epik_Metal_Only>
1

> <s_epik_Chemistry_Notes>
This compound has an ester and may undergo hydrolysis at high or low pH. This compound contains an acetal/aminal-like group ( X-CH(R)-Y where X, Y are N, S, or O) that may be acid/base labile, releasing an aldehyde.

> <s_lp_Force_Field>
OPLS_2005

> <r_lp_Energy>
45.2634

> <b_lp_Chiralities_Consistent>
1

> <s_lp_Variant>
AV-unprocessed.smi:99-30

> <Gold.Version>
5.8.1

> <Gold.Id.Protein>
6NUR|6NUR_protein|mol2

> <Gold.PLP.Fitness>
52.7868

> <Gold.PLP.PLP>
-44.9007

> <Gold.PLP.part.hbond>
-3.5564

> <Gold.PLP.part.metal>
0.0000

> <Gold.PLP.part.buried>
-1.7879

> <Gold.PLP.part.nonpolar>
-44.3727

> <Gold.PLP.part.repulsive>
4.4216

> <Gold.PLP.ligand.clash>
0.0000

> <Gold.PLP.ligand.torsion>
1.3849

> <Gold.PLP.Chemscore.Hbond>
2.5188

> <Gold.PLP.Chemscore.CHOScore>
1.0000

> <Gold.PLP.Chemscore.Metal>
0.0000

> <Gold.Chemscore.Hbonds>
donor molecule, donor type, donor heavy atom, donor atom, acceptor molecule, acceptor atom, score
      L1  H    17    41       P1 10171  0.81
      P1  H  7954  7966       L1    17  0.11
      P1  H 11000 11005       L1    12  0.79
      L1  C     9    38       P1 10175  0.96

> <Gold.PLP.Chemscore.Internal.Correction>
0.0996

> <Gold.Rescore>
     Score         DG    S(hbond)    S(metal)    S(lipo)     H(rot)  DE(clash)    DE(int)     intcor
      7.36     -14.15       1.57        0.00      97.96       3.13       2.95       3.84       ----

> <Gold.Chemscore.Fitness>
7.3639

> <Gold.Chemscore.DG>
-14.1530

> <Gold.Chemscore.ZeroCoef>
-5.4800

> <Gold.Chemscore.Hbond>
1.5679

> <Gold.Chemscore.Metal>
0.0000

> <Gold.Chemscore.Lipo>
97.9567

> <Gold.Chemscore.Internal_Hbond>
0.0000

> <Gold.Chemscore.DEClash>
2.9465

> <Gold.Chemscore.DEInternal>
3.8427

> <Gold.Chemscore.Rot>
3.1346

> <Gold.Chemscore.Internal.Correction>
   9.000000E+99

> <Gold.Chemscore.Hbonds>
donor molecule, donor type, donor heavy atom, donor atom, acceptor molecule, acceptor atom, score
      L1  H    17    41       P1 10171  0.79
      P1  H  7954  7966       L1    17  0.01
      P1  H 11000 11005       L1    12  0.13

> <Gold.Chemscore.Hbond.Weighted>
-5.2367

> <Gold.Chemscore.Metal.Weighted>
-0.0000

> <Gold.Chemscore.Lipo.Weighted>
-11.4609

> <Gold.Chemscore.Internal_Hbond.Weighted>
0.0000

> <Gold.Chemscore.DEClash.Weighted>
2.9465

> <Gold.Chemscore.DEInternal.Weighted>
3.8427

> <Gold.Chemscore.Rot.Weighted>
8.0246

> <Gold.Chemscore.Internal.Correction.Weighted>
   9.000000E+99

> <Gold.Protein.RotatedTorsions>
[ 6907 6896 6895 6894 ] final -151.97 input  -60.11 | X-H torsion
[ 7974 7965 7964 7962 ] final  128.08 input  175.53 | X-H torsion
[ 8008 7997 7996 7995 ] final   83.71 input   59.86 | X-H torsion
[ 10167 10162 10161 10158 ] final  129.22 input  -65.29 | X-H torsion
[ 10718 10713 10712 10709 ] final   -6.51 input   66.30 | X-H torsion
[ 10763 10752 10751 10750 ] final   54.99 input  -60.55 | X-H torsion
[ 11005 11000 10999 10996 ] final   57.22 input  -57.11 | X-H torsion

> <Gold.Protein.ActiveResidues>
 VAL166  LYS551  ARG553  GLY616  TRP617  ASP618  TYR619  PRO620  LYS621  CYS622 
 ASP623  PHE694  ASN695  SER759  ASP760  ASP761  ALA762  ILE779  LEU786  VAL792 
 PHE793  MET794  SER795  GLU796  ALA797  LYS798  CYS799  TRP800  GLU811  SER814 

> <Gold.Protein.RotatedAtoms>
  151.2208  133.4503  159.2600 H   0  0  0  0  0  0  0  0  0  0  0  0  # atno 6907 bound_to 6896
  151.0886  134.9902  159.8402 H   0  0  0  0  0  0  0  0  0  0  0  0  # atno 6908 bound_to 6896
  152.5432  134.2143  159.8815 H   0  0  0  0  0  0  0  0  0  0  0  0  # atno 6909 bound_to 6896
  145.0434  139.3943  143.5090 H   0  0  0  0  0  0  0  0  0  0  0  0  # atno 7974 bound_to 7965
  155.9274  140.3417  155.6222 H   0  0  0  0  0  0  0  0  0  0  0  0  # atno 8008 bound_to 7997
  155.7199  140.0782  157.2354 H   0  0  0  0  0  0  0  0  0  0  0  0  # atno 8009 bound_to 7997
  154.4079  140.1607  156.2377 H   0  0  0  0  0  0  0  0  0  0  0  0  # atno 8010 bound_to 7997
  139.5488  144.6796  151.4388 H   0  0  0  0  0  0  0  0  0  0  0  0  # atno 10167 bound_to 10162
  156.7309  130.5179  149.5846 H   0  0  0  0  0  0  0  0  0  0  0  0  # atno 10718 bound_to 10713
  152.9811  135.5726  154.4994 H   0  0  0  0  0  0  0  0  0  0  0  0  # atno 10763 bound_to 10752
  154.4515  135.2778  155.1779 H   0  0  0  0  0  0  0  0  0  0  0  0  # atno 10764 bound_to 10752
  154.3405  135.6230  153.5647 H   0  0  0  0  0  0  0  0  0  0  0  0  # atno 10765 bound_to 10752
  140.0469  134.5792  155.9311 H   0  0  0  0  0  0  0  0  0  0  0  0  # atno 11005 bound_to 11000
  146.3511  140.0047  142.8673 LP  0  0  0  0  0  0  0  0  0  0  0  0  # atno 17320 bound_to 7965
  145.1618  140.9677  143.4372 LP  0  0  0  0  0  0  0  0  0  0  0  0  # atno 17321 bound_to 7965
  140.6745  143.8221  150.7040 LP  0  0  0  0  0  0  0  0  0  0  0  0  # atno 17342 bound_to 10162
  140.1655  143.4239  152.2037 LP  0  0  0  0  0  0  0  0  0  0  0  0  # atno 17343 bound_to 10162
  156.1530  130.6323  151.0620 LP  0  0  0  0  0  0  0  0  0  0  0  0  # atno 17370 bound_to 10713
  157.6859  131.0825  150.7243 LP  0  0  0  0  0  0  0  0  0  0  0  0  # atno 17371 bound_to 10713
  141.1911  133.6571  156.5443 LP  0  0  0  0  0  0  0  0  0  0  0  0  # atno 17394 bound_to 11000
  140.3979  134.7383  157.4762 LP  0  0  0  0  0  0  0  0  0  0  0  0  # atno 17395 bound_to 11000

$$$$
