AV-unprocessed.smi:3278|AV-procd|sdf|12546|dock8
  -GOLD-   2272018463D 1   1.00000     0.00000
 Structure written by MMmdl.
 38 39  0  0  0  0  0  0  0  0  1 V2000
  146.1035  142.9744  154.0328 C   0  0  0  0  0  0  0  0  0  0  0  0
  147.0777  141.9061  154.0937 N   0  0  0  0  0  0  0  0  0  0  0  0
  148.0679  141.6968  155.0289 C   0  0  0  0  0  0  0  0  0  0  0  0
  148.7389  140.5586  154.6745 C   0  0  0  0  0  0  0  0  0  0  0  0
  149.9079  139.8827  155.3598 C   0  0  1  0  0  0  0  0  0  0  0  0
  149.6043  138.3862  155.5437 C   0  0  0  0  0  0  0  0  0  0  0  0
  151.0902  139.9375  154.5826 O   0  0  0  0  0  0  0  0  0  0  0  0
  150.2271  140.5286  156.7267 C   0  0  0  0  0  0  0  0  0  0  0  0
  150.8646  141.8407  156.5815 N   0  0  0  0  0  0  0  0  0  0  0  0
  151.0500  142.6057  157.8180 C   0  0  1  0  0  0  0  0  0  0  0  0
  152.0016  141.8888  158.8048 C   0  0  0  0  0  0  0  0  0  0  0  0
  152.1804  142.6536  160.1268 C   0  0  0  0  0  0  0  0  0  0  0  0
  152.7751  144.0528  159.9253 C   0  0  0  0  0  0  0  0  0  0  0  0
  151.6808  145.0828  158.9146 S   0  0  0  0  0  0  0  0  0  0  0  0
  151.5790  144.0065  157.4590 C   0  0  0  0  0  0  0  0  0  0  0  0
  148.0672  140.1449  153.4868 C   0  0  0  0  0  0  0  0  0  0  0  0
  147.0760  140.9505  153.1429 N   0  0  0  0  0  0  0  0  0  0  0  0
  146.3211  143.7225  154.7955 H   0  0  0  0  0  0  0  0  0  0  0  0
  145.1047  142.5718  154.2045 H   0  0  0  0  0  0  0  0  0  0  0  0
  146.1350  143.4499  153.0520 H   0  0  0  0  0  0  0  0  0  0  0  0
  148.2123  142.3672  155.8633 H   0  0  0  0  0  0  0  0  0  0  0  0
  148.7203  138.2342  156.1640 H   0  0  0  0  0  0  0  0  0  0  0  0
  150.4332  137.8658  156.0249 H   0  0  0  0  0  0  0  0  0  0  0  0
  149.4200  137.8981  154.5858 H   0  0  0  0  0  0  0  0  0  0  0  0
  151.7935  139.5486  155.0794 H   0  0  0  0  0  0  0  0  0  0  0  0
  149.3020  140.6443  157.2929 H   0  0  0  0  0  0  0  0  0  0  0  0
  150.8564  139.8503  157.3021 H   0  0  0  0  0  0  0  0  0  0  0  0
  151.7531  141.7345  156.1023 H   0  0  0  0  0  0  0  0  0  0  0  0
  150.0791  142.7276  158.3002 H   0  0  0  0  0  0  0  0  0  0  0  0
  151.6214  140.8984  159.0508 H   0  0  0  0  0  0  0  0  0  0  0  0
  152.9749  141.7352  158.3366 H   0  0  0  0  0  0  0  0  0  0  0  0
  151.2211  142.7320  160.6395 H   0  0  0  0  0  0  0  0  0  0  0  0
  152.8317  142.0799  160.7866 H   0  0  0  0  0  0  0  0  0  0  0  0
  152.9255  144.5424  160.8877 H   0  0  0  0  0  0  0  0  0  0  0  0
  153.7505  143.9869  159.4427 H   0  0  0  0  0  0  0  0  0  0  0  0
  152.5664  143.9397  156.9998 H   0  0  0  0  0  0  0  0  0  0  0  0
  150.9222  144.4850  156.7320 H   0  0  0  0  0  0  0  0  0  0  0  0
  148.2711  139.2832  152.8684 H   0  0  0  0  0  0  0  0  0  0  0  0
  1  2  1  0  0  0  0
  1 18  1  0  0  0  0
  1 19  1  0  0  0  0
  1 20  1  0  0  0  0
  2 17  1  0  0  0  0
  2  3  1  0  0  0  0
  3  4  2  0  0  0  0
  3 21  1  0  0  0  0
  4  5  1  0  0  0  0
  4 16  1  0  0  0  0
  5  6  1  0  0  0  0
  5  7  1  0  0  0  0
  5  8  1  0  0  0  0
  6 22  1  0  0  0  0
  6 23  1  0  0  0  0
  6 24  1  0  0  0  0
  7 25  1  0  0  0  0
  8  9  1  0  0  0  0
  8 26  1  0  0  0  0
  8 27  1  0  0  0  0
  9 10  1  0  0  0  0
  9 28  1  0  0  0  0
 10 15  1  0  0  0  0
 10 11  1  0  0  0  0
 10 29  1  0  0  0  0
 11 12  1  0  0  0  0
 11 30  1  0  0  0  0
 11 31  1  0  0  0  0
 12 13  1  0  0  0  0
 12 32  1  0  0  0  0
 12 33  1  0  0  0  0
 13 14  1  0  0  0  0
 13 34  1  0  0  0  0
 13 35  1  0  0  0  0
 14 15  1  0  0  0  0
 15 36  1  0  0  0  0
 15 37  1  0  0  0  0
 16 17  2  0  0  0  0
 16 38  1  0  0  0  0
M  END
> <s_m_source_file>
AV-unprocessed.smi

> <i_m_source_file_index>
3278

> <i_lp_mmshare_version>
43012

> <i_f3d_flags>
0

> <s_epik_input>
W0NIM11uMVtjSF1jKFtjSF1uMSlbQ0BAXShbQ0gzXSkoW09IXSlbQ0gyXVtOSF1bQ0BASF0yW0NIMl1bQ0gyXVtDSDJdU1tDSDJdMg==

> <s_epik_cmdline>
J2VwaWtfcHl0aG9uJywgJy1waCcsICc3LjAnLCAnLXRuJywgJzgnLCAnLW1hJywgJzIwMCcsICctbWV0YWxfYmluZGluZycsICctaW1hZScsICc8aW5maWxlLm1hZT4nLCAnLW9tYWUnLCAnPG91dGZpbGUubWFlPic=

> <r_lp_tautomer_probability>
1

> <r_epik_Ionization_Penalty>
2.06123

> <r_epik_Ionization_Penalty_Charging>
0

> <r_epik_Ionization_Penalty_Neutral>
2.06123

> <r_epik_State_Penalty>
2.1944

> <r_epik_Charging_Adjusted_Penalty>
2.1944

> <i_epik_Tot_Q>
0

> <i_epik_Tot_abs_Q>
0

> <r_epik_Metal_State_Penalty>
2.19434

> <b_epik_Metal_Only>
0

> <s_lp_Force_Field>
OPLS_2005

> <r_lp_Energy>
12.2085

> <b_lp_Chiralities_Consistent>
1

> <s_lp_Variant>
AV-unprocessed.smi:3278-7

> <Gold.Version>
5.8.1

> <Gold.Id.Protein>
6NUR|6NUR_protein|mol2

> <Gold.PLP.Fitness>
43.4112

> <Gold.PLP.PLP>
-36.8491

> <Gold.PLP.part.hbond>
-1.0000

> <Gold.PLP.part.metal>
0.0000

> <Gold.PLP.part.buried>
-2.6922

> <Gold.PLP.part.nonpolar>
-33.7759

> <Gold.PLP.part.repulsive>
0.1863

> <Gold.PLP.ligand.clash>
0.0000

> <Gold.PLP.ligand.torsion>
0.3551

> <Gold.PLP.Chemscore.Hbond>
1.0000

> <Gold.PLP.Chemscore.CHOScore>
1.4132

> <Gold.PLP.Chemscore.Metal>
0.0000

> <Gold.Chemscore.Hbonds>
donor molecule, donor type, donor heavy atom, donor atom, acceptor molecule, acceptor atom, score
      P1  H  7989  7998       L1     7  0.99
      L1  C     3    21       P1  8028  0.89
      L1  C    16    38       P1  7957  0.53

> <Gold.PLP.Chemscore.Internal.Correction>
0.0328

> <Gold.Rescore>
     Score         DG    S(hbond)    S(metal)    S(lipo)     H(rot)  DE(clash)    DE(int)     intcor
     14.60     -16.33       0.97        0.00     107.46       1.93       1.43       0.30       ----

> <Gold.Chemscore.Fitness>
14.6049

> <Gold.Chemscore.DG>
-16.3340

> <Gold.Chemscore.ZeroCoef>
-5.4800

> <Gold.Chemscore.Hbond>
0.9669

> <Gold.Chemscore.Metal>
0.0000

> <Gold.Chemscore.Lipo>
107.4600

> <Gold.Chemscore.Internal_Hbond>
0.0000

> <Gold.Chemscore.DEClash>
1.4254

> <Gold.Chemscore.DEInternal>
0.3037

> <Gold.Chemscore.Rot>
1.9329

> <Gold.Chemscore.Internal.Correction>
   9.000000E+99

> <Gold.Chemscore.Hbonds>
donor molecule, donor type, donor heavy atom, donor atom, acceptor molecule, acceptor atom, score
      P1  H  7989  7998       L1     7  0.72

> <Gold.Chemscore.Hbond.Weighted>
-3.2295

> <Gold.Chemscore.Metal.Weighted>
-0.0000

> <Gold.Chemscore.Lipo.Weighted>
-12.5728

> <Gold.Chemscore.Internal_Hbond.Weighted>
0.0000

> <Gold.Chemscore.DEClash.Weighted>
1.4254

> <Gold.Chemscore.DEInternal.Weighted>
0.3037

> <Gold.Chemscore.Rot.Weighted>
4.9483

> <Gold.Chemscore.Internal.Correction.Weighted>
   9.000000E+99

> <Gold.Protein.RotatedTorsions>
[ 6907 6896 6895 6894 ] final -168.14 input  -60.11 | X-H torsion
[ 7974 7965 7964 7962 ] final   54.05 input  175.53 | X-H torsion
[ 8008 7997 7996 7995 ] final -117.35 input   59.86 | X-H torsion
[ 10167 10162 10161 10158 ] final  -96.93 input  -65.29 | X-H torsion
[ 10718 10713 10712 10709 ] final -114.73 input   66.30 | X-H torsion
[ 10763 10752 10751 10750 ] final  108.79 input  -60.55 | X-H torsion
[ 11005 11000 10999 10996 ] final  148.56 input  -57.11 | X-H torsion

> <Gold.Protein.ActiveResidues>
 VAL166  LYS551  ARG553  GLY616  TRP617  ASP618  TYR619  PRO620  LYS621  CYS622 
 ASP623  PHE694  ASN695  SER759  ASP760  ASP761  ALA762  ILE779  LEU786  VAL792 
 PHE793  MET794  SER795  GLU796  ALA797  LYS798  CYS799  TRP800  GLU811  SER814 

> <Gold.Protein.RotatedAtoms>
  151.4708  133.3569  159.2822 H   0  0  0  0  0  0  0  0  0  0  0  0  # atno 6907 bound_to 6896
  150.8962  134.8372  159.7339 H   0  0  0  0  0  0  0  0  0  0  0  0  # atno 6908 bound_to 6896
  152.4852  134.4623  159.9661 H   0  0  0  0  0  0  0  0  0  0  0  0  # atno 6909 bound_to 6896
  145.9649  139.4093  143.0226 H   0  0  0  0  0  0  0  0  0  0  0  0  # atno 7974 bound_to 7965
  155.0823  140.0394  157.2643 H   0  0  0  0  0  0  0  0  0  0  0  0  # atno 8008 bound_to 7997
  154.6897  140.2650  155.6800 H   0  0  0  0  0  0  0  0  0  0  0  0  # atno 8009 bound_to 7997
  156.2724  140.2762  156.1471 H   0  0  0  0  0  0  0  0  0  0  0  0  # atno 8010 bound_to 7997
  140.2887  143.3235  152.0368 H   0  0  0  0  0  0  0  0  0  0  0  0  # atno 10167 bound_to 10162
  156.0849  130.6042  150.8813 H   0  0  0  0  0  0  0  0  0  0  0  0  # atno 10718 bound_to 10713
  153.4255  135.3801  155.2138 H   0  0  0  0  0  0  0  0  0  0  0  0  # atno 10763 bound_to 10752
  154.8747  135.3827  154.4331 H   0  0  0  0  0  0  0  0  0  0  0  0  # atno 10764 bound_to 10752
  153.4857  135.7088  153.5975 H   0  0  0  0  0  0  0  0  0  0  0  0  # atno 10765 bound_to 10752
  140.0970  134.9006  157.1738 H   0  0  0  0  0  0  0  0  0  0  0  0  # atno 11005 bound_to 11000
  145.7988  140.9780  143.1010 LP  0  0  0  0  0  0  0  0  0  0  0  0  # atno 17320 bound_to 7965
  144.6823  139.9775  143.7483 LP  0  0  0  0  0  0  0  0  0  0  0  0  # atno 17321 bound_to 7965
  139.4943  144.6540  151.6612 LP  0  0  0  0  0  0  0  0  0  0  0  0  # atno 17342 bound_to 10162
  140.5751  144.0043  150.6237 LP  0  0  0  0  0  0  0  0  0  0  0  0  # atno 17343 bound_to 10162
  157.5979  131.0942  150.9009 LP  0  0  0  0  0  0  0  0  0  0  0  0  # atno 17370 bound_to 10713
  156.9172  130.5302  149.5279 LP  0  0  0  0  0  0  0  0  0  0  0  0  # atno 17371 bound_to 10713
  140.3272  134.2850  155.7234 LP  0  0  0  0  0  0  0  0  0  0  0  0  # atno 17394 bound_to 11000
  141.2095  133.7747  156.9994 LP  0  0  0  0  0  0  0  0  0  0  0  0  # atno 17395 bound_to 11000

$$$$
