AV-unprocessed.smi:1627|AV-procd|sdf|6519|dock5
  -GOLD-   22720 7193D 1   1.00000     0.00000
 Structure written by MMmdl.
 44 45  0  0  0  0  0  0  0  0  2 V2000
  146.8072  139.3590  151.3535 C   0  0  0  0  0  0  0  0  0  0  0  0
  146.1567  138.8076  152.6307 C   0  0  1  0  0  0  0  0  0  0  0  0
  146.3456  137.3953  152.6300 O   0  0  0  0  0  0  0  0  0  0  0  0
  145.9030  136.7188  151.4580 C   0  0  0  0  0  0  0  0  0  0  0  0
  144.7535  135.7716  151.8222 C   0  0  0  0  0  0  0  0  0  0  0  0
  144.3278  135.1543  150.7207 F   0  0  0  0  0  0  0  0  0  0  0  0
  145.1700  134.8530  152.6935 F   0  0  0  0  0  0  0  0  0  0  0  0
  143.7396  136.4598  152.3460 F   0  0  0  0  0  0  0  0  0  0  0  0
  146.7876  139.4277  153.8881 C   0  0  0  0  0  0  0  0  0  0  0  0
  146.1192  139.5305  154.9163 O   0  0  0  0  0  0  0  0  0  0  0  0
  148.0552  139.8612  153.7566 N   0  0  0  0  0  0  0  0  0  0  0  0
  148.8875  140.4697  154.7347 C   0  0  0  0  0  0  0  0  0  0  0  0
  150.2810  140.2410  154.8433 C   0  0  0  0  0  0  0  0  0  0  0  0
  151.0198  140.9095  155.8410 C   0  0  0  0  0  0  0  0  0  0  0  0
  150.3712  141.8102  156.7192 C   0  0  0  0  0  0  0  0  0  0  0  0
  151.0627  142.5048  157.7357 N   0  0  0  0  0  0  0  0  0  0  0  0
  151.9022  141.6828  158.6105 C   0  0  0  0  0  0  0  0  0  0  0  0
  152.2633  142.4347  159.9032 C   0  0  0  0  0  0  0  0  0  0  0  0
  152.8934  143.7999  159.5919 C   0  0  0  0  0  0  0  0  0  0  0  0
  151.9590  144.6132  158.6852 C   0  0  0  0  0  0  0  0  0  0  0  0
  151.6017  143.8284  157.4112 C   0  0  0  0  0  0  0  0  0  0  0  0
  149.0372  142.0018  156.5673 N   0  3  0  0  0  0  0  0  0  0  0  0
  148.2915  141.3845  155.6258 C   0  0  0  0  0  0  0  0  0  0  0  0
  146.7102  140.4437  151.2946 H   0  0  0  0  0  0  0  0  0  0  0  0
  146.3327  138.9382  150.4667 H   0  0  0  0  0  0  0  0  0  0  0  0
  147.8688  139.1137  151.3047 H   0  0  0  0  0  0  0  0  0  0  0  0
  145.0890  139.0329  152.5963 H   0  0  0  0  0  0  0  0  0  0  0  0
  145.5634  137.4264  150.7009 H   0  0  0  0  0  0  0  0  0  0  0  0
  146.7275  136.1497  151.0258 H   0  0  0  0  0  0  0  0  0  0  0  0
  148.4484  139.7979  152.8286 H   0  0  0  0  0  0  0  0  0  0  0  0
  150.8025  139.5733  154.1752 H   0  0  0  0  0  0  0  0  0  0  0  0
  152.0780  140.7120  155.9264 H   0  0  0  0  0  0  0  0  0  0  0  0
  151.4165  140.7451  158.8760 H   0  0  0  0  0  0  0  0  0  0  0  0
  152.8121  141.4195  158.0694 H   0  0  0  0  0  0  0  0  0  0  0  0
  151.3650  142.5766  160.5055 H   0  0  0  0  0  0  0  0  0  0  0  0
  152.9473  141.8351  160.5046 H   0  0  0  0  0  0  0  0  0  0  0  0
  153.0902  144.3440  160.5162 H   0  0  0  0  0  0  0  0  0  0  0  0
  153.8565  143.6595  159.0990 H   0  0  0  0  0  0  0  0  0  0  0  0
  151.0463  144.8588  159.2300 H   0  0  0  0  0  0  0  0  0  0  0  0
  152.4260  145.5623  158.4205 H   0  0  0  0  0  0  0  0  0  0  0  0
  152.4873  143.7094  156.7855 H   0  0  0  0  0  0  0  0  0  0  0  0
  150.8741  144.4035  156.8370 H   0  0  0  0  0  0  0  0  0  0  0  0
  147.2412  141.6375  155.6206 H   0  0  0  0  0  0  0  0  0  0  0  0
  148.5698  142.6528  157.1984 H   0  0  0  0  0  0  0  0  0  0  0  0
  1  2  1  0  0  0  0
  1 24  1  0  0  0  0
  1 25  1  0  0  0  0
  1 26  1  0  0  0  0
  2  3  1  0  0  0  0
  2  9  1  0  0  0  0
  2 27  1  0  0  0  0
  3  4  1  0  0  0  0
  4  5  1  0  0  0  0
  4 28  1  0  0  0  0
  4 29  1  0  0  0  0
  5  6  1  0  0  0  0
  5  7  1  0  0  0  0
  5  8  1  0  0  0  0
  9 10  2  0  0  0  0
  9 11  1  0  0  0  0
 11 12  1  0  0  0  0
 11 30  1  0  0  0  0
 12 23  1  0  0  0  0
 12 13  2  0  0  0  0
 13 14  1  0  0  0  0
 13 31  1  0  0  0  0
 14 15  2  0  0  0  0
 14 32  1  0  0  0  0
 15 16  1  0  0  0  0
 15 22  1  0  0  0  0
 16 21  1  0  0  0  0
 16 17  1  0  0  0  0
 17 18  1  0  0  0  0
 17 33  1  0  0  0  0
 17 34  1  0  0  0  0
 18 19  1  0  0  0  0
 18 35  1  0  0  0  0
 18 36  1  0  0  0  0
 19 20  1  0  0  0  0
 19 37  1  0  0  0  0
 19 38  1  0  0  0  0
 20 21  1  0  0  0  0
 20 39  1  0  0  0  0
 20 40  1  0  0  0  0
 21 41  1  0  0  0  0
 21 42  1  0  0  0  0
 22 23  2  0  0  0  0
 22 44  1  0  0  0  0
 23 43  1  0  0  0  0
M  CHG  1  22   1
M  END
> <s_m_source_file>
AV-unprocessed.smi

> <i_m_source_file_index>
1627

> <i_lp_mmshare_version>
43012

> <i_f3d_flags>
0

> <s_epik_input>
RkMoRikoRilbQ0gyXU9bQ0BASF0oW0NIM10pQyg9TylbTkhdYzFbY0hdW2NIXWMobltjSF0xKU4yW0NIMl1bQ0gyXVtDSDJdW0NIMl1bQ0gyXTI=

> <s_epik_cmdline>
J2VwaWtfcHl0aG9uJywgJy1waCcsICc3LjAnLCAnLXRuJywgJzgnLCAnLW1hJywgJzIwMCcsICctbWV0YWxfYmluZGluZycsICctaW1hZScsICc8aW5maWxlLm1hZT4nLCAnLW9tYWUnLCAnPG91dGZpbGUubWFlPic=

> <r_lp_tautomer_probability>
0.999994

> <r_epik_Ionization_Penalty>
1.93197

> <r_epik_Ionization_Penalty_Charging>
1.93197

> <r_epik_Ionization_Penalty_Neutral>
3.16684e-06

> <r_epik_State_Penalty>
2.05557

> <r_epik_Charging_Adjusted_Penalty>
3.98754

> <i_epik_Tot_Q>
1

> <i_epik_Tot_abs_Q>
1

> <r_epik_Metal_State_Penalty>
2.08108

> <b_epik_Metal_Only>
0

> <s_lp_Force_Field>
OPLS_2005

> <r_lp_Energy>
31.3841

> <b_lp_Chiralities_Consistent>
1

> <s_lp_Variant>
AV-unprocessed.smi:1627-4

> <Gold.Version>
5.8.1

> <Gold.Id.Protein>
6NUR|6NUR_protein|mol2

> <Gold.PLP.Fitness>
42.9854

> <Gold.PLP.PLP>
-43.2474

> <Gold.PLP.part.hbond>
-2.0000

> <Gold.PLP.part.metal>
0.0000

> <Gold.PLP.part.buried>
1.9056

> <Gold.PLP.part.nonpolar>
-44.8883

> <Gold.PLP.part.repulsive>
1.6404

> <Gold.PLP.ligand.clash>
0.0000

> <Gold.PLP.ligand.torsion>
1.8571

> <Gold.PLP.Chemscore.Hbond>
0.9750

> <Gold.PLP.Chemscore.CHOScore>
0.0000

> <Gold.PLP.Chemscore.Metal>
0.0000

> <Gold.Chemscore.Hbonds>
donor molecule, donor type, donor heavy atom, donor atom, acceptor molecule, acceptor atom, score
      L1  H    11    30       P1  7957  0.98

> <Gold.PLP.Chemscore.Internal.Correction>
0.5271

> <Gold.Rescore>
     Score         DG    S(hbond)    S(metal)    S(lipo)     H(rot)  DE(clash)    DE(int)     intcor
     11.58     -16.55       0.76        0.00     114.42       1.90       1.93       3.05       ----

> <Gold.Chemscore.Fitness>
11.5759

> <Gold.Chemscore.DG>
-16.5512

> <Gold.Chemscore.ZeroCoef>
-5.4800

> <Gold.Chemscore.Hbond>
0.7634

> <Gold.Chemscore.Metal>
0.0000

> <Gold.Chemscore.Lipo>
114.4205

> <Gold.Chemscore.Internal_Hbond>
0.0000

> <Gold.Chemscore.DEClash>
1.9273

> <Gold.Chemscore.DEInternal>
3.0480

> <Gold.Chemscore.Rot>
1.9007

> <Gold.Chemscore.Internal.Correction>
   9.000000E+99

> <Gold.Chemscore.Hbonds>
donor molecule, donor type, donor heavy atom, donor atom, acceptor molecule, acceptor atom, score
      L1  H    11    30       P1  7957  0.91

> <Gold.Chemscore.Hbond.Weighted>
-2.5497

> <Gold.Chemscore.Metal.Weighted>
-0.0000

> <Gold.Chemscore.Lipo.Weighted>
-13.3872

> <Gold.Chemscore.Internal_Hbond.Weighted>
0.0000

> <Gold.Chemscore.DEClash.Weighted>
1.9273

> <Gold.Chemscore.DEInternal.Weighted>
3.0480

> <Gold.Chemscore.Rot.Weighted>
4.8657

> <Gold.Chemscore.Internal.Correction.Weighted>
   9.000000E+99

> <Gold.Protein.RotatedTorsions>
[ 6907 6896 6895 6894 ] final  165.35 input  -60.11 | X-H torsion
[ 7974 7965 7964 7962 ] final  137.53 input  175.53 | X-H torsion
[ 8008 7997 7996 7995 ] final  -32.81 input   59.86 | X-H torsion
[ 10167 10162 10161 10158 ] final   47.78 input  -65.29 | X-H torsion
[ 10718 10713 10712 10709 ] final   -0.41 input   66.30 | X-H torsion
[ 10763 10752 10751 10750 ] final  111.77 input  -60.55 | X-H torsion
[ 11005 11000 10999 10996 ] final -175.92 input  -57.11 | X-H torsion

> <Gold.Protein.ActiveResidues>
 VAL166  LYS551  ARG553  GLY616  TRP617  ASP618  TYR619  PRO620  LYS621  CYS622 
 ASP623  PHE694  ASN695  SER759  ASP760  ASP761  ALA762  ILE779  LEU786  VAL792 
 PHE793  MET794  SER795  GLU796  ALA797  LYS798  CYS799  TRP800  GLU811  SER814 

> <Gold.Protein.RotatedAtoms>
  151.8958  133.3526  159.3813 H   0  0  0  0  0  0  0  0  0  0  0  0  # atno 6907 bound_to 6896
  150.7092  134.4878  159.5510 H   0  0  0  0  0  0  0  0  0  0  0  0  # atno 6908 bound_to 6896
  152.2457  134.8184  160.0504 H   0  0  0  0  0  0  0  0  0  0  0  0  # atno 6909 bound_to 6896
  144.9459  139.4876  143.5549 H   0  0  0  0  0  0  0  0  0  0  0  0  # atno 7974 bound_to 7965
  154.4168  140.1727  156.1787 H   0  0  0  0  0  0  0  0  0  0  0  0  # atno 8008 bound_to 7997
  155.9700  140.3386  155.6543 H   0  0  0  0  0  0  0  0  0  0  0  0  # atno 8009 bound_to 7997
  155.6638  140.0704  157.2535 H   0  0  0  0  0  0  0  0  0  0  0  0  # atno 8010 bound_to 7997
  140.3001  144.2944  150.6221 H   0  0  0  0  0  0  0  0  0  0  0  0  # atno 10167 bound_to 10162
  156.8209  130.5456  149.5697 H   0  0  0  0  0  0  0  0  0  0  0  0  # atno 10718 bound_to 10713
  153.4681  135.3707  155.2375 H   0  0  0  0  0  0  0  0  0  0  0  0  # atno 10763 bound_to 10752
  154.8757  135.3925  154.3845 H   0  0  0  0  0  0  0  0  0  0  0  0  # atno 10764 bound_to 10752
  153.4429  135.7084  153.6222 H   0  0  0  0  0  0  0  0  0  0  0  0  # atno 10765 bound_to 10752
  140.4579  134.6282  157.4830 H   0  0  0  0  0  0  0  0  0  0  0  0  # atno 11005 bound_to 11000
  146.3303  139.8510  142.8873 LP  0  0  0  0  0  0  0  0  0  0  0  0  # atno 17320 bound_to 7965
  145.2919  141.0169  143.3658 LP  0  0  0  0  0  0  0  0  0  0  0  0  # atno 17321 bound_to 7965
  140.5658  143.2186  151.7685 LP  0  0  0  0  0  0  0  0  0  0  0  0  # atno 17342 bound_to 10162
  139.4917  144.4285  151.9898 LP  0  0  0  0  0  0  0  0  0  0  0  0  # atno 17343 bound_to 10162
  156.0989  130.5954  150.9861 LP  0  0  0  0  0  0  0  0  0  0  0  0  # atno 17370 bound_to 10713
  157.6457  131.0904  150.8158 LP  0  0  0  0  0  0  0  0  0  0  0  0  # atno 17371 bound_to 10713
  139.9964  134.6904  155.9602 LP  0  0  0  0  0  0  0  0  0  0  0  0  # atno 17394 bound_to 11000
  141.1634  133.6538  156.4397 LP  0  0  0  0  0  0  0  0  0  0  0  0  # atno 17395 bound_to 11000

$$$$
