AV-unprocessed.smi:3264|AV-procd|sdf|12494|dock1
  -GOLD-   2272018393D 1   1.00000     0.00000
 Structure written by MMmdl.
 32 33  0  0  0  0  0  0  0  0  1 V2000
  152.2973  144.0464  161.7860 C   0  0  0  0  0  0  0  0  0  0  0  0
  151.9167  143.9231  160.3505 C   0  0  0  0  0  0  0  0  0  0  0  0
  151.4103  142.8092  159.8157 N   0  0  0  0  0  0  0  0  0  0  0  0
  151.1309  142.9456  158.4520 C   0  0  0  0  0  0  0  0  0  0  0  0
  150.5521  141.7937  157.6877 C   0  0  0  0  0  0  0  0  0  0  0  0
  150.6065  142.0199  156.1676 C   0  0  0  0  0  0  0  0  0  0  0  0
  149.2760  141.9941  155.5712 N   0  0  0  0  0  0  0  0  0  0  0  0
  148.9621  141.4022  154.4087 C   0  0  0  0  0  0  0  0  0  0  0  0
  149.7850  140.8118  153.7079 O   0  0  0  0  0  0  0  0  0  0  0  0
  147.4971  141.5047  153.9690 C   0  0  2  0  0  0  0  0  0  0  0  0
  147.0263  142.9405  153.6670 C   0  0  0  0  0  0  0  0  0  0  0  0
  146.0169  143.2292  154.7618 C   0  0  0  0  0  0  0  0  0  0  0  0
  145.5016  141.8360  155.0927 C   0  0  0  0  0  0  0  0  0  0  0  0
  146.6778  141.0453  155.0417 O   0  0  0  0  0  0  0  0  0  0  0  0
  151.4338  144.1904  157.9595 C   0  0  0  0  0  0  0  0  0  0  0  0
  152.0827  145.2367  159.1922 S   0  0  0  0  0  0  0  0  0  0  0  0
  152.6180  143.0812  162.1794 H   0  0  0  0  0  0  0  0  0  0  0  0
  151.4450  144.3978  162.3674 H   0  0  0  0  0  0  0  0  0  0  0  0
  153.1157  144.7576  161.8981 H   0  0  0  0  0  0  0  0  0  0  0  0
  151.0872  140.8781  157.9424 H   0  0  0  0  0  0  0  0  0  0  0  0
  149.5183  141.6288  157.9936 H   0  0  0  0  0  0  0  0  0  0  0  0
  151.0518  142.9916  155.9521 H   0  0  0  0  0  0  0  0  0  0  0  0
  151.2453  141.2736  155.6922 H   0  0  0  0  0  0  0  0  0  0  0  0
  148.5393  142.4648  156.0768 H   0  0  0  0  0  0  0  0  0  0  0  0
  147.3215  140.8736  153.0962 H   0  0  0  0  0  0  0  0  0  0  0  0
  147.8276  143.6803  153.6477 H   0  0  0  0  0  0  0  0  0  0  0  0
  146.5375  142.9681  152.6924 H   0  0  0  0  0  0  0  0  0  0  0  0
  146.5190  143.6565  155.6309 H   0  0  0  0  0  0  0  0  0  0  0  0
  145.2283  143.9140  154.4488 H   0  0  0  0  0  0  0  0  0  0  0  0
  145.0222  141.7826  156.0703 H   0  0  0  0  0  0  0  0  0  0  0  0
  144.7934  141.4908  154.3379 H   0  0  0  0  0  0  0  0  0  0  0  0
  151.3128  144.5548  156.9500 H   0  0  0  0  0  0  0  0  0  0  0  0
  1  2  1  0  0  0  0
  1 17  1  0  0  0  0
  1 18  1  0  0  0  0
  1 19  1  0  0  0  0
  2 16  1  0  0  0  0
  2  3  2  0  0  0  0
  3  4  1  0  0  0  0
  4  5  1  0  0  0  0
  4 15  2  0  0  0  0
  5  6  1  0  0  0  0
  5 20  1  0  0  0  0
  5 21  1  0  0  0  0
  6  7  1  0  0  0  0
  6 22  1  0  0  0  0
  6 23  1  0  0  0  0
  7  8  1  0  0  0  0
  7 24  1  0  0  0  0
  8  9  2  0  0  0  0
  8 10  1  0  0  0  0
 10 14  1  0  0  0  0
 10 11  1  0  0  0  0
 10 25  1  0  0  0  0
 11 12  1  0  0  0  0
 11 26  1  0  0  0  0
 11 27  1  0  0  0  0
 12 13  1  0  0  0  0
 12 28  1  0  0  0  0
 12 29  1  0  0  0  0
 13 14  1  0  0  0  0
 13 30  1  0  0  0  0
 13 31  1  0  0  0  0
 15 16  1  0  0  0  0
 15 32  1  0  0  0  0
M  END
> <s_m_source_file>
AV-unprocessed.smi

> <i_m_source_file_index>
3264

> <i_lp_mmshare_version>
43012

> <i_f3d_flags>
0

> <s_epik_input>
W0NIM11jMW5jKFtjSF1zMSlbQ0gyXVtDSDJdW05IXUMoPU8pW0NAQEhdMltDSDJdW0NIMl1bQ0gyXU8y

> <s_epik_cmdline>
J2VwaWtfcHl0aG9uJywgJy1waCcsICc3LjAnLCAnLXRuJywgJzgnLCAnLW1hJywgJzIwMCcsICctbWV0YWxfYmluZGluZycsICctaW1hZScsICc8aW5maWxlLm1hZT4nLCAnLW9tYWUnLCAnPG91dGZpbGUubWFlPic=

> <r_epik_Ionization_Penalty>
0.00112246

> <r_epik_Ionization_Penalty_Charging>
0

> <r_epik_Ionization_Penalty_Neutral>
0.00112246

> <r_epik_State_Penalty>
0.000737392

> <r_epik_Charging_Adjusted_Penalty>
0.000737392

> <i_epik_Tot_Q>
0

> <i_epik_Tot_abs_Q>
0

> <r_epik_Metal_State_Penalty>
-0

> <b_epik_Metal_Only>
0

> <s_lp_Force_Field>
OPLS_2005

> <r_lp_Energy>
12.7546

> <b_lp_Chiralities_Consistent>
1

> <s_lp_Variant>
AV-unprocessed.smi:3264-1

> <Gold.Version>
5.8.1

> <Gold.Id.Protein>
6NUR|6NUR_protein|mol2

> <Gold.PLP.Fitness>
42.2120

> <Gold.PLP.PLP>
-37.0220

> <Gold.PLP.part.hbond>
-3.2389

> <Gold.PLP.part.metal>
0.0000

> <Gold.PLP.part.buried>
-5.1664

> <Gold.PLP.part.nonpolar>
-31.0003

> <Gold.PLP.part.repulsive>
2.9065

> <Gold.PLP.ligand.clash>
0.0000

> <Gold.PLP.ligand.torsion>
0.7247

> <Gold.PLP.Chemscore.Hbond>
1.2595

> <Gold.PLP.Chemscore.CHOScore>
0.9479

> <Gold.PLP.Chemscore.Metal>
0.0000

> <Gold.Chemscore.Hbonds>
donor molecule, donor type, donor heavy atom, donor atom, acceptor molecule, acceptor atom, score
      L1  H     7    24       P1  8028  0.03
      P1  H  7989  7998       L1     9  0.43
      P1  H  8011  8017       L1     9  0.45
      L1  C    15    32       P1  8028  0.47

> <Gold.PLP.Chemscore.Internal.Correction>
0.0171

> <Gold.Rescore>
     Score         DG    S(hbond)    S(metal)    S(lipo)     H(rot)  DE(clash)    DE(int)     intcor
     13.42     -15.52       0.87        0.00      94.24       1.52       1.34       0.76       ----

> <Gold.Chemscore.Fitness>
13.4229

> <Gold.Chemscore.DG>
-15.5214

> <Gold.Chemscore.ZeroCoef>
-5.4800

> <Gold.Chemscore.Hbond>
0.8672

> <Gold.Chemscore.Metal>
0.0000

> <Gold.Chemscore.Lipo>
94.2364

> <Gold.Chemscore.Internal_Hbond>
0.0000

> <Gold.Chemscore.DEClash>
1.3367

> <Gold.Chemscore.DEInternal>
0.7618

> <Gold.Chemscore.Rot>
1.5159

> <Gold.Chemscore.Internal.Correction>
   9.000000E+99

> <Gold.Chemscore.Hbonds>
donor molecule, donor type, donor heavy atom, donor atom, acceptor molecule, acceptor atom, score
      L1  H     7    24       P1  8028  0.03
      P1  H  7989  7998       L1     9  0.42
      P1  H  8011  8017       L1     9  0.02

> <Gold.Chemscore.Hbond.Weighted>
-2.8964

> <Gold.Chemscore.Metal.Weighted>
-0.0000

> <Gold.Chemscore.Lipo.Weighted>
-11.0257

> <Gold.Chemscore.Internal_Hbond.Weighted>
0.0000

> <Gold.Chemscore.DEClash.Weighted>
1.3367

> <Gold.Chemscore.DEInternal.Weighted>
0.7618

> <Gold.Chemscore.Rot.Weighted>
3.8807

> <Gold.Chemscore.Internal.Correction.Weighted>
   9.000000E+99

> <Gold.Protein.RotatedTorsions>
[ 6907 6896 6895 6894 ] final   68.15 input  -60.11 | X-H torsion
[ 7974 7965 7964 7962 ] final   36.35 input  175.53 | X-H torsion
[ 8008 7997 7996 7995 ] final  -34.62 input   59.86 | X-H torsion
[ 10167 10162 10161 10158 ] final   40.34 input  -65.29 | X-H torsion
[ 10718 10713 10712 10709 ] final   92.84 input   66.30 | X-H torsion
[ 10763 10752 10751 10750 ] final   40.25 input  -60.55 | X-H torsion
[ 11005 11000 10999 10996 ] final  -69.39 input  -57.11 | X-H torsion

> <Gold.Protein.ActiveResidues>
 VAL166  LYS551  ARG553  GLY616  TRP617  ASP618  TYR619  PRO620  LYS621  CYS622 
 ASP623  PHE694  ASN695  SER759  ASP760  ASP761  ALA762  ILE779  LEU786  VAL792 
 PHE793  MET794  SER795  GLU796  ALA797  LYS798  CYS799  TRP800  GLU811  SER814 

> <Gold.Protein.RotatedAtoms>
  152.4601  134.5203  159.9780 H   0  0  0  0  0  0  0  0  0  0  0  0  # atno 6907 bound_to 6896
  151.5254  133.3453  159.2916 H   0  0  0  0  0  0  0  0  0  0  0  0  # atno 6908 bound_to 6896
  150.8560  134.7929  159.7109 H   0  0  0  0  0  0  0  0  0  0  0  0  # atno 6909 bound_to 6896
  146.1218  139.6029  142.9285 H   0  0  0  0  0  0  0  0  0  0  0  0  # atno 7974 bound_to 7965
  154.4116  140.1679  156.2078 H   0  0  0  0  0  0  0  0  0  0  0  0  # atno 8008 bound_to 7997
  155.9469  140.3404  155.6351 H   0  0  0  0  0  0  0  0  0  0  0  0  # atno 8009 bound_to 7997
  155.6918  140.0734  157.2435 H   0  0  0  0  0  0  0  0  0  0  0  0  # atno 8010 bound_to 7997
  140.3752  144.2053  150.6132 H   0  0  0  0  0  0  0  0  0  0  0  0  # atno 10167 bound_to 10162
  157.6957  131.0457  150.3943 H   0  0  0  0  0  0  0  0  0  0  0  0  # atno 10718 bound_to 10713
  152.9942  135.6197  154.2596 H   0  0  0  0  0  0  0  0  0  0  0  0  # atno 10763 bound_to 10752
  154.2332  135.2791  155.2884 H   0  0  0  0  0  0  0  0  0  0  0  0  # atno 10764 bound_to 10752
  154.5432  135.5755  153.6915 H   0  0  0  0  0  0  0  0  0  0  0  0  # atno 10765 bound_to 10752
  141.1553  133.6763  156.6591 H   0  0  0  0  0  0  0  0  0  0  0  0  # atno 11005 bound_to 11000
  145.5450  141.0418  143.2309 LP  0  0  0  0  0  0  0  0  0  0  0  0  # atno 17320 bound_to 7965
  144.7604  139.6971  143.7237 LP  0  0  0  0  0  0  0  0  0  0  0  0  # atno 17321 bound_to 7965
  140.4993  143.2322  151.8702 LP  0  0  0  0  0  0  0  0  0  0  0  0  # atno 17342 bound_to 10162
  139.4800  144.5077  151.8975 LP  0  0  0  0  0  0  0  0  0  0  0  0  # atno 17343 bound_to 10162
  156.4343  130.3978  149.6739 LP  0  0  0  0  0  0  0  0  0  0  0  0  # atno 17370 bound_to 10713
  156.3945  130.7644  151.2647 LP  0  0  0  0  0  0  0  0  0  0  0  0  # atno 17371 bound_to 10713
  140.3261  134.7968  157.4290 LP  0  0  0  0  0  0  0  0  0  0  0  0  # atno 17394 bound_to 11000
  140.1056  134.5414  155.8312 LP  0  0  0  0  0  0  0  0  0  0  0  0  # atno 17395 bound_to 11000

$$$$
