AV-unprocessed.smi:2802|AV-procd|sdf|10804|dock9
  -GOLD-   2272015243D 1   1.00000     0.00000
 Structure written by MMmdl.
 47 48  0  0  0  0  0  0  0  0  1 V2000
  147.1320  140.9505  152.8619 C   0  0  0  0  0  0  0  0  0  0  0  0
  147.8944  140.3693  154.0620 C   0  0  1  0  0  0  0  0  0  0  0  0
  149.0096  139.4172  153.5986 C   0  0  0  0  0  0  0  0  0  0  0  0
  149.7952  138.7790  154.7653 C   0  0  0  0  0  0  0  0  0  0  0  0
  148.9607  137.6778  155.4569 C   0  0  0  0  0  0  0  0  0  0  0  0
  151.0452  138.0839  154.1852 C   0  0  0  0  0  0  0  0  0  0  0  0
  150.2709  139.8740  155.7633 C   0  0  0  0  0  0  0  0  0  0  0  0
  149.2538  140.9833  156.1863 C   0  0  1  0  0  0  0  0  0  0  0  0
  148.2719  140.5009  157.2938 C   0  0  0  0  0  0  0  0  0  0  0  0
  147.4700  141.5537  157.7954 O   0  0  0  0  0  0  0  0  0  0  0  0
  150.0132  142.1447  156.6806 N   0  0  0  0  0  0  0  0  0  0  0  0
  151.1755  142.1631  157.3575 C   0  0  0  0  0  0  0  0  0  0  0  0
  151.8096  141.1499  157.6549 O   0  0  0  0  0  0  0  0  0  0  0  0
  151.6832  143.5563  157.7487 C   0  0  0  0  0  0  0  0  0  0  0  0
  151.9160  143.6888  159.2450 C   0  0  0  0  0  0  0  0  0  0  0  0
  152.5179  142.6464  159.9801 C   0  0  0  0  0  0  0  0  0  0  0  0
  152.7109  142.8163  161.3645 C   0  0  0  0  0  0  0  0  0  0  0  0
  152.2918  144.0247  161.9566 C   0  0  0  0  0  0  0  0  0  0  0  0
  151.7143  145.0296  161.2632 N   0  0  0  0  0  0  0  0  0  0  0  0
  151.5329  144.8585  159.9360 C   0  0  0  0  0  0  0  0  0  0  0  0
  148.4881  141.4882  154.9357 C   0  0  0  0  0  0  0  0  0  0  0  0
  147.7907  141.5326  152.2165 H   0  0  0  0  0  0  0  0  0  0  0  0
  146.3236  141.6048  153.1892 H   0  0  0  0  0  0  0  0  0  0  0  0
  146.6887  140.1588  152.2573 H   0  0  0  0  0  0  0  0  0  0  0  0
  147.1693  139.8096  154.6513 H   0  0  0  0  0  0  0  0  0  0  0  0
  148.5899  138.6348  152.9647 H   0  0  0  0  0  0  0  0  0  0  0  0
  149.6978  139.9768  152.9630 H   0  0  0  0  0  0  0  0  0  0  0  0
  149.4729  137.2852  156.3358 H   0  0  0  0  0  0  0  0  0  0  0  0
  148.7886  136.8382  154.7827 H   0  0  0  0  0  0  0  0  0  0  0  0
  147.9779  138.0142  155.7723 H   0  0  0  0  0  0  0  0  0  0  0  0
  151.6382  137.6138  154.9706 H   0  0  0  0  0  0  0  0  0  0  0  0
  151.6946  138.7880  153.6639 H   0  0  0  0  0  0  0  0  0  0  0  0
  150.7738  137.3064  153.4700 H   0  0  0  0  0  0  0  0  0  0  0  0
  150.6936  139.3928  156.6459 H   0  0  0  0  0  0  0  0  0  0  0  0
  151.1143  140.3822  155.2918 H   0  0  0  0  0  0  0  0  0  0  0  0
  147.5892  139.7413  156.9263 H   0  0  0  0  0  0  0  0  0  0  0  0
  148.8105  140.0516  158.1281 H   0  0  0  0  0  0  0  0  0  0  0  0
  147.3066  141.3952  158.7126 H   0  0  0  0  0  0  0  0  0  0  0  0
  149.5883  143.0424  156.4995 H   0  0  0  0  0  0  0  0  0  0  0  0
  152.6104  143.7622  157.2124 H   0  0  0  0  0  0  0  0  0  0  0  0
  150.9596  144.3083  157.4307 H   0  0  0  0  0  0  0  0  0  0  0  0
  152.8244  141.7316  159.4940 H   0  0  0  0  0  0  0  0  0  0  0  0
  153.1677  142.0389  161.9588 H   0  0  0  0  0  0  0  0  0  0  0  0
  152.4246  144.1881  163.0159 H   0  0  0  0  0  0  0  0  0  0  0  0
  151.0663  145.6787  159.4102 H   0  0  0  0  0  0  0  0  0  0  0  0
  149.1681  142.0718  154.3119 H   0  0  0  0  0  0  0  0  0  0  0  0
  147.7000  142.1823  155.2307 H   0  0  0  0  0  0  0  0  0  0  0  0
  1  2  1  0  0  0  0
  1 22  1  0  0  0  0
  1 23  1  0  0  0  0
  1 24  1  0  0  0  0
  2 21  1  0  0  0  0
  2  3  1  0  0  0  0
  2 25  1  0  0  0  0
  3  4  1  0  0  0  0
  3 26  1  0  0  0  0
  3 27  1  0  0  0  0
  4  5  1  0  0  0  0
  4  6  1  0  0  0  0
  4  7  1  0  0  0  0
  5 28  1  0  0  0  0
  5 29  1  0  0  0  0
  5 30  1  0  0  0  0
  6 31  1  0  0  0  0
  6 32  1  0  0  0  0
  6 33  1  0  0  0  0
  7  8  1  0  0  0  0
  7 34  1  0  0  0  0
  7 35  1  0  0  0  0
  8  9  1  0  0  0  0
  8 11  1  0  0  0  0
  8 21  1  0  0  0  0
  9 10  1  0  0  0  0
  9 36  1  0  0  0  0
  9 37  1  0  0  0  0
 10 38  1  0  0  0  0
 11 12  1  0  0  0  0
 11 39  1  0  0  0  0
 12 13  2  0  0  0  0
 12 14  1  0  0  0  0
 14 15  1  0  0  0  0
 14 40  1  0  0  0  0
 14 41  1  0  0  0  0
 15 20  1  0  0  0  0
 15 16  2  0  0  0  0
 16 17  1  0  0  0  0
 16 42  1  0  0  0  0
 17 18  2  0  0  0  0
 17 43  1  0  0  0  0
 18 19  1  0  0  0  0
 18 44  1  0  0  0  0
 19 20  2  0  0  0  0
 20 45  1  0  0  0  0
 21 46  1  0  0  0  0
 21 47  1  0  0  0  0
M  END
> <s_m_source_file>
AV-unprocessed.smi

> <i_m_source_file_index>
2802

> <i_lp_mmshare_version>
43012

> <i_f3d_flags>
0

> <s_epik_input>
W0NIM11DMShbQ0gzXSlbQ0gyXVtDQEBIXShbQ0gzXSlbQ0gyXVtDQF0oW0NIMl0xKShbQ0gyXVtPSF0pW05IXUMoPU8pW0NIMl1jMltjSF1bY0hdW2NIXW5bY0hdMg==

> <s_epik_cmdline>
J2VwaWtfcHl0aG9uJywgJy1waCcsICc3LjAnLCAnLXRuJywgJzgnLCAnLW1hJywgJzIwMCcsICctbWV0YWxfYmluZGluZycsICctaW1hZScsICc8aW5maWxlLm1hZT4nLCAnLW9tYWUnLCAnPG91dGZpbGUubWFlPic=

> <r_epik_Ionization_Penalty>
0.004793

> <r_epik_Ionization_Penalty_Charging>
0

> <r_epik_Ionization_Penalty_Neutral>
0.004793

> <r_epik_State_Penalty>
0.00347421

> <r_epik_Charging_Adjusted_Penalty>
0.00347421

> <i_epik_Tot_Q>
0

> <i_epik_Tot_abs_Q>
0

> <r_epik_Metal_State_Penalty>
-0

> <b_epik_Metal_Only>
0

> <s_lp_Force_Field>
OPLS_2005

> <r_lp_Energy>
22.6817

> <b_lp_Chiralities_Consistent>
1

> <s_lp_Variant>
AV-unprocessed.smi:2802-2

> <Gold.Version>
5.8.1

> <Gold.Id.Protein>
6NUR|6NUR_protein|mol2

> <Gold.PLP.Fitness>
41.7507

> <Gold.PLP.PLP>
-40.4497

> <Gold.PLP.part.hbond>
-1.0000

> <Gold.PLP.part.metal>
0.0000

> <Gold.PLP.part.buried>
-2.1581

> <Gold.PLP.part.nonpolar>
-37.2289

> <Gold.PLP.part.repulsive>
1.8800

> <Gold.PLP.ligand.clash>
0.0000

> <Gold.PLP.ligand.torsion>
0.8558

> <Gold.PLP.Chemscore.Hbond>
1.0000

> <Gold.PLP.Chemscore.CHOScore>
0.0000

> <Gold.PLP.Chemscore.Metal>
0.0000

> <Gold.Chemscore.Hbonds>
donor molecule, donor type, donor heavy atom, donor atom, acceptor molecule, acceptor atom, score
      L1  H    11    39       P1  8028  1.00

> <Gold.PLP.Chemscore.Internal.Correction>
0.0127

> <Gold.Rescore>
     Score         DG    S(hbond)    S(metal)    S(lipo)     H(rot)  DE(clash)    DE(int)     intcor
     13.04     -18.36       0.99        0.00     125.70       2.00       1.52       3.80       ----

> <Gold.Chemscore.Fitness>
13.0438

> <Gold.Chemscore.DG>
-18.3640

> <Gold.Chemscore.ZeroCoef>
-5.4800

> <Gold.Chemscore.Hbond>
0.9893

> <Gold.Chemscore.Metal>
0.0000

> <Gold.Chemscore.Lipo>
125.6950

> <Gold.Chemscore.Internal_Hbond>
0.0000

> <Gold.Chemscore.DEClash>
1.5177

> <Gold.Chemscore.DEInternal>
3.8025

> <Gold.Chemscore.Rot>
2.0026

> <Gold.Chemscore.Internal.Correction>
   9.000000E+99

> <Gold.Chemscore.Hbonds>
donor molecule, donor type, donor heavy atom, donor atom, acceptor molecule, acceptor atom, score
      L1  H    11    39       P1  8028  0.96

> <Gold.Chemscore.Hbond.Weighted>
-3.3044

> <Gold.Chemscore.Metal.Weighted>
-0.0000

> <Gold.Chemscore.Lipo.Weighted>
-14.7063

> <Gold.Chemscore.Internal_Hbond.Weighted>
0.0000

> <Gold.Chemscore.DEClash.Weighted>
1.5177

> <Gold.Chemscore.DEInternal.Weighted>
3.8025

> <Gold.Chemscore.Rot.Weighted>
5.1267

> <Gold.Chemscore.Internal.Correction.Weighted>
   9.000000E+99

> <Gold.Protein.RotatedTorsions>
[ 6907 6896 6895 6894 ] final   -6.08 input  -60.11 | X-H torsion
[ 7974 7965 7964 7962 ] final  105.65 input  175.53 | X-H torsion
[ 8008 7997 7996 7995 ] final -128.35 input   59.86 | X-H torsion
[ 10167 10162 10161 10158 ] final   -5.69 input  -65.29 | X-H torsion
[ 10718 10713 10712 10709 ] final  174.97 input   66.30 | X-H torsion
[ 10763 10752 10751 10750 ] final  158.28 input  -60.55 | X-H torsion
[ 11005 11000 10999 10996 ] final  -71.95 input  -57.11 | X-H torsion

> <Gold.Protein.ActiveResidues>
 VAL166  LYS551  ARG553  GLY616  TRP617  ASP618  TYR619  PRO620  LYS621  CYS622 
 ASP623  PHE694  ASN695  SER759  ASP760  ASP761  ALA762  ILE779  LEU786  VAL792 
 PHE793  MET794  SER795  GLU796  ALA797  LYS798  CYS799  TRP800  GLU811  SER814 

> <Gold.Protein.RotatedAtoms>
  151.4713  135.1046  159.9751 H   0  0  0  0  0  0  0  0  0  0  0  0  # atno 6907 bound_to 6896
  152.4815  133.8263  159.7090 H   0  0  0  0  0  0  0  0  0  0  0  0  # atno 6908 bound_to 6896
  150.8891  133.7207  159.2936 H   0  0  0  0  0  0  0  0  0  0  0  0  # atno 6909 bound_to 6896
  145.3169  139.2524  143.3733 H   0  0  0  0  0  0  0  0  0  0  0  0  # atno 7974 bound_to 7965
  155.2612  140.0436  157.2997 H   0  0  0  0  0  0  0  0  0  0  0  0  # atno 8008 bound_to 7997
  154.5709  140.2373  155.8162 H   0  0  0  0  0  0  0  0  0  0  0  0  # atno 8009 bound_to 7997
  156.2122  140.2995  155.9766 H   0  0  0  0  0  0  0  0  0  0  0  0  # atno 8010 bound_to 7997
  140.6972  143.6279  150.8550 H   0  0  0  0  0  0  0  0  0  0  0  0  # atno 10167 bound_to 10162
  156.9418  131.0003  151.2967 H   0  0  0  0  0  0  0  0  0  0  0  0  # atno 10718 bound_to 10713
  154.2135  135.2785  155.2950 H   0  0  0  0  0  0  0  0  0  0  0  0  # atno 10763 bound_to 10752
  154.5759  135.5604  153.7142 H   0  0  0  0  0  0  0  0  0  0  0  0  # atno 10764 bound_to 10752
  153.0058  135.6333  154.2275 H   0  0  0  0  0  0  0  0  0  0  0  0  # atno 10765 bound_to 10752
  141.1600  133.6832  156.6984 H   0  0  0  0  0  0  0  0  0  0  0  0  # atno 11005 bound_to 11000
  146.3097  140.3718  142.8675 LP  0  0  0  0  0  0  0  0  0  0  0  0  # atno 17320 bound_to 7965
  144.8970  140.7596  143.5890 LP  0  0  0  0  0  0  0  0  0  0  0  0  # atno 17321 bound_to 7965
  139.9998  143.5756  152.2880 LP  0  0  0  0  0  0  0  0  0  0  0  0  # atno 17342 bound_to 10162
  139.6442  144.7657  151.2278 LP  0  0  0  0  0  0  0  0  0  0  0  0  # atno 17343 bound_to 10162
  157.5780  130.8356  149.8483 LP  0  0  0  0  0  0  0  0  0  0  0  0  # atno 17370 bound_to 10713
  156.0401  130.3741  150.1457 LP  0  0  0  0  0  0  0  0  0  0  0  0  # atno 17371 bound_to 10713
  140.2978  134.8189  157.4071 LP  0  0  0  0  0  0  0  0  0  0  0  0  # atno 17394 bound_to 11000
  140.1289  134.5121  155.8122 LP  0  0  0  0  0  0  0  0  0  0  0  0  # atno 17395 bound_to 11000

$$$$
