AV-unprocessed.smi:265|AV-procd|sdf|2028|dock7
  -GOLD-   2262021233D 1   1.00000     0.00000
 Structure written by MMmdl.
 52 56  0  0  0  0  0  0  0  0  1 V2000
  147.8361  133.3021  153.3684 C   0  0  0  0  0  0  0  0  0  0  0  0
  148.3553  133.2391  154.8132 C   0  0  1  0  0  0  0  0  0  0  0  0
  149.2588  132.1490  154.9908 O   0  0  0  0  0  0  0  0  0  0  0  0
  150.4083  132.5687  155.7168 C   0  0  0  0  0  0  0  0  0  0  0  0
  150.0108  133.8854  156.3753 C   0  0  0  0  0  0  0  0  0  0  0  0
  149.0742  134.5005  155.3446 C   0  0  1  0  0  0  0  0  0  0  0  0
  149.8580  135.0906  154.3206 O   0  0  0  0  0  0  0  0  0  0  0  0
  148.1538  135.6271  155.8823 C   0  0  0  0  0  0  0  0  0  0  0  0
  148.8494  136.7846  156.4234 N   0  0  0  0  0  0  0  0  0  0  0  0
  148.9378  137.1524  157.7470 C   0  0  0  0  0  0  0  0  0  0  0  0
  149.6292  138.2344  157.9797 N   0  0  0  0  0  0  0  0  0  0  0  0
  150.0611  138.6392  156.7219 C   0  0  0  0  0  0  0  0  0  0  0  0
  150.8534  139.7224  156.2461 C   0  0  0  0  0  0  0  0  0  0  0  0
  151.3614  140.6770  157.0667 N   0  0  0  0  0  0  0  0  0  0  0  0
  151.9251  140.1686  158.3206 C   0  0  0  0  0  0  0  0  0  0  0  0
  152.8015  141.2295  159.0123 C   0  0  0  0  0  0  0  0  0  0  0  0
  152.0083  142.5309  159.1875 C   0  0  1  0  0  0  0  0  0  0  0  0
  152.8067  143.5724  159.7286 O   0  0  0  0  0  0  0  0  0  0  0  0
  152.0606  144.7514  160.0506 C   0  0  0  0  0  0  0  0  0  0  0  0
  151.1015  145.1814  158.9199 C   0  0  0  0  0  0  0  0  0  0  0  0
  150.5789  146.2931  158.9505 O   0  0  0  0  0  0  0  0  0  0  0  0
  150.8326  144.2970  157.9453 N   0  0  0  0  0  0  0  0  0  0  0  0
  151.5201  143.0192  157.8150 C   0  0  2  0  0  0  0  0  0  0  0  0
  150.6341  141.9467  157.1620 C   0  0  0  0  0  0  0  0  0  0  0  0
  151.0948  139.7791  154.9086 N   0  0  0  0  0  0  0  0  0  0  0  0
  150.5916  138.8496  154.0910 C   0  0  0  0  0  0  0  0  0  0  0  0
  149.8349  137.7936  154.3941 N   0  0  0  0  0  0  0  0  0  0  0  0
  149.5923  137.7275  155.7342 C   0  0  0  0  0  0  0  0  0  0  0  0
  151.1628  142.3400  159.8524 H   0  0  0  0  0  0  0  0  0  0  0  0
  152.3846  143.1931  157.1714 H   0  0  0  0  0  0  0  0  0  0  0  0
  147.1512  134.1398  153.2354 H   0  0  0  0  0  0  0  0  0  0  0  0
  147.2970  132.3897  153.1131 H   0  0  0  0  0  0  0  0  0  0  0  0
  148.6498  133.4126  152.6515 H   0  0  0  0  0  0  0  0  0  0  0  0
  147.5154  133.0023  155.4646 H   0  0  0  0  0  0  0  0  0  0  0  0
  150.7202  131.8155  156.4405 H   0  0  0  0  0  0  0  0  0  0  0  0
  151.2288  132.7239  155.0151 H   0  0  0  0  0  0  0  0  0  0  0  0
  149.4805  133.6608  157.3000 H   0  0  0  0  0  0  0  0  0  0  0  0
  150.8652  134.5157  156.6247 H   0  0  0  0  0  0  0  0  0  0  0  0
  149.2787  135.4431  153.6628 H   0  0  0  0  0  0  0  0  0  0  0  0
  147.4911  135.9758  155.0890 H   0  0  0  0  0  0  0  0  0  0  0  0
  147.5038  135.2316  156.6641 H   0  0  0  0  0  0  0  0  0  0  0  0
  148.4658  136.5916  158.5408 H   0  0  0  0  0  0  0  0  0  0  0  0
  151.1030  139.8840  158.9786 H   0  0  0  0  0  0  0  0  0  0  0  0
  152.5162  139.2684  158.1574 H   0  0  0  0  0  0  0  0  0  0  0  0
  153.1417  140.8611  159.9805 H   0  0  0  0  0  0  0  0  0  0  0  0
  153.6951  141.4151  158.4149 H   0  0  0  0  0  0  0  0  0  0  0  0
  151.4769  144.5703  160.9540 H   0  0  0  0  0  0  0  0  0  0  0  0
  152.7553  145.5618  160.2726 H   0  0  0  0  0  0  0  0  0  0  0  0
  150.1806  144.5568  157.2193 H   0  0  0  0  0  0  0  0  0  0  0  0
  150.3341  142.2784  156.1668 H   0  0  0  0  0  0  0  0  0  0  0  0
  149.7239  141.8014  157.7460 H   0  0  0  0  0  0  0  0  0  0  0  0
  150.8281  138.9701  153.0441 H   0  0  0  0  0  0  0  0  0  0  0  0
  1  2  1  0  0  0  0
  1 31  1  0  0  0  0
  1 32  1  0  0  0  0
  1 33  1  0  0  0  0
  2  6  1  0  0  0  0
  2  3  1  0  0  0  0
  2 34  1  0  0  0  0
  3  4  1  0  0  0  0
  4  5  1  0  0  0  0
  4 35  1  0  0  0  0
  4 36  1  0  0  0  0
  5  6  1  0  0  0  0
  5 37  1  0  0  0  0
  5 38  1  0  0  0  0
  6  7  1  0  0  0  0
  6  8  1  0  0  0  0
  7 39  1  0  0  0  0
  8  9  1  0  0  0  0
  8 40  1  0  0  0  0
  8 41  1  0  0  0  0
  9 28  1  0  0  0  0
  9 10  1  0  0  0  0
 10 11  2  0  0  0  0
 10 42  1  0  0  0  0
 11 12  1  0  0  0  0
 12 28  2  0  0  0  0
 12 13  1  0  0  0  0
 13 14  1  0  0  0  0
 13 25  2  0  0  0  0
 14 24  1  0  0  0  0
 14 15  1  0  0  0  0
 15 16  1  0  0  0  0
 15 43  1  0  0  0  0
 15 44  1  0  0  0  0
 16 17  1  0  0  0  0
 16 45  1  0  0  0  0
 16 46  1  0  0  0  0
 17 29  1  0  0  0  0
 17 23  1  0  0  0  0
 17 18  1  0  0  0  0
 18 19  1  0  0  0  0
 19 20  1  0  0  0  0
 19 47  1  0  0  0  0
 19 48  1  0  0  0  0
 20 21  2  0  0  0  0
 20 22  1  0  0  0  0
 22 23  1  0  0  0  0
 22 49  1  0  0  0  0
 23 30  1  0  0  0  0
 23 24  1  0  0  0  0
 24 50  1  0  0  0  0
 24 51  1  0  0  0  0
 25 26  1  0  0  0  0
 26 27  2  0  0  0  0
 26 52  1  0  0  0  0
 27 28  1  0  0  0  0
M  END
> <s_m_source_file>
AV-unprocessed.smi

> <i_m_source_file_index>
265

> <i_lp_mmshare_version>
43012

> <i_f3d_flags>
0

> <s_epik_input>
W0NIMl0xW0NIMl1PW0NAQEhdKFtDSDNdKVtDQEBdMShbT0hdKVtDSDJdbihbY0hdbjIpYyhjMjMpbltjSF1uYzNOKFtDSDJdW0NIMl00KVtDSDJdW0NAQEhdKFtDQEhdNDUpW05IXUMoPU8pW0NIMl1PNQ==

> <s_epik_cmdline>
J2VwaWtfcHl0aG9uJywgJy1waCcsICc3LjAnLCAnLXRuJywgJzgnLCAnLW1hJywgJzIwMCcsICctbWV0YWxfYmluZGluZycsICctaW1hZScsICc8aW5maWxlLm1hZT4nLCAnLW9tYWUnLCAnPG91dGZpbGUubWFlPic=

> <r_lp_tautomer_probability>
1

> <r_epik_Ionization_Penalty>
0.00221504

> <r_epik_Ionization_Penalty_Charging>
0

> <r_epik_Ionization_Penalty_Neutral>
0.00221504

> <r_epik_State_Penalty>
-0

> <r_epik_Charging_Adjusted_Penalty>
0

> <i_epik_Tot_Q>
0

> <i_epik_Tot_abs_Q>
0

> <r_epik_Metal_State_Penalty>
-0

> <b_epik_Metal_Only>
0

> <s_lp_Force_Field>
OPLS_2005

> <r_lp_Energy>
47.2889

> <b_lp_Chiralities_Consistent>
1

> <s_lp_Variant>
AV-unprocessed.smi:265-14

> <Gold.Version>
5.8.1

> <Gold.Id.Protein>
6NUR|6NUR_protein|mol2

> <Gold.PLP.Fitness>
46.9566

> <Gold.PLP.PLP>
-36.9255

> <Gold.PLP.part.hbond>
-5.9582

> <Gold.PLP.part.metal>
0.0000

> <Gold.PLP.part.buried>
-3.1791

> <Gold.PLP.part.nonpolar>
-29.5542

> <Gold.PLP.part.repulsive>
0.8556

> <Gold.PLP.ligand.clash>
0.0000

> <Gold.PLP.ligand.torsion>
0.6345

> <Gold.PLP.Chemscore.Hbond>
2.6250

> <Gold.PLP.Chemscore.CHOScore>
1.0000

> <Gold.PLP.Chemscore.Metal>
0.0000

> <Gold.Chemscore.Hbonds>
donor molecule, donor type, donor heavy atom, donor atom, acceptor molecule, acceptor atom, score
      L1  H     7    39       P1  7948  0.99
      L1  H    22    49       P1  8028  1.00
      P1  H  7989  7998       L1    25  0.65
      L1  C    26    52       P1  7957  1.00

> <Gold.PLP.Chemscore.Internal.Correction>
0.4251

> <Gold.Rescore>
     Score         DG    S(hbond)    S(metal)    S(lipo)     H(rot)  DE(clash)    DE(int)     intcor
      6.53     -10.53       0.63        0.00      74.17       2.25       0.16       3.85       ----

> <Gold.Chemscore.Fitness>
6.5258

> <Gold.Chemscore.DG>
-10.5292

> <Gold.Chemscore.ZeroCoef>
-5.4800

> <Gold.Chemscore.Hbond>
0.6347

> <Gold.Chemscore.Metal>
0.0000

> <Gold.Chemscore.Lipo>
74.1650

> <Gold.Chemscore.Internal_Hbond>
0.0000

> <Gold.Chemscore.DEClash>
0.1559

> <Gold.Chemscore.DEInternal>
3.8475

> <Gold.Chemscore.Rot>
2.2453

> <Gold.Chemscore.Internal.Correction>
   9.000000E+99

> <Gold.Chemscore.Hbonds>
donor molecule, donor type, donor heavy atom, donor atom, acceptor molecule, acceptor atom, score
      L1  H     7    39       P1  7948  0.37
      L1  H    22    49       P1  8028  0.43
      P1  H  7989  7998       L1    25  0.06

> <Gold.Chemscore.Hbond.Weighted>
-2.1198

> <Gold.Chemscore.Metal.Weighted>
-0.0000

> <Gold.Chemscore.Lipo.Weighted>
-8.6773

> <Gold.Chemscore.Internal_Hbond.Weighted>
0.0000

> <Gold.Chemscore.DEClash.Weighted>
0.1559

> <Gold.Chemscore.DEInternal.Weighted>
3.8475

> <Gold.Chemscore.Rot.Weighted>
5.7479

> <Gold.Chemscore.Internal.Correction.Weighted>
   9.000000E+99

> <Gold.Protein.RotatedTorsions>
[ 6907 6896 6895 6894 ] final  158.70 input  -60.11 | X-H torsion
[ 7974 7965 7964 7962 ] final  -88.37 input  175.53 | X-H torsion
[ 8008 7997 7996 7995 ] final   43.07 input   59.86 | X-H torsion
[ 10167 10162 10161 10158 ] final   80.53 input  -65.29 | X-H torsion
[ 10718 10713 10712 10709 ] final -130.52 input   66.30 | X-H torsion
[ 10763 10752 10751 10750 ] final -125.47 input  -60.55 | X-H torsion
[ 11005 11000 10999 10996 ] final  -36.23 input  -57.11 | X-H torsion

> <Gold.Protein.ActiveResidues>
 VAL166  LYS551  ARG553  GLY616  TRP617  ASP618  TYR619  PRO620  LYS621  CYS622 
 ASP623  PHE694  ASN695  SER759  ASP760  ASP761  ALA762  ILE779  LEU786  VAL792 
 PHE793  MET794  SER795  GLU796  ALA797  LYS798  CYS799  TRP800  GLU811  SER814 

> <Gold.Protein.RotatedAtoms>
  151.9965  133.3810  159.4164 H   0  0  0  0  0  0  0  0  0  0  0  0  # atno 6907 bound_to 6896
  150.6915  134.3880  159.5073 H   0  0  0  0  0  0  0  0  0  0  0  0  # atno 6908 bound_to 6896
  152.1621  134.8903  160.0591 H   0  0  0  0  0  0  0  0  0  0  0  0  # atno 6909 bound_to 6896
  145.4541  140.9561  143.2006 H   0  0  0  0  0  0  0  0  0  0  0  0  # atno 7974 bound_to 7965
  155.2967  140.3382  155.4249 H   0  0  0  0  0  0  0  0  0  0  0  0  # atno 8008 bound_to 7997
  156.2021  140.1737  156.7918 H   0  0  0  0  0  0  0  0  0  0  0  0  # atno 8009 bound_to 7997
  154.5572  140.0694  156.8746 H   0  0  0  0  0  0  0  0  0  0  0  0  # atno 8010 bound_to 7997
  139.9488  144.6040  150.8180 H   0  0  0  0  0  0  0  0  0  0  0  0  # atno 10167 bound_to 10162
  156.2153  130.6944  151.0695 H   0  0  0  0  0  0  0  0  0  0  0  0  # atno 10718 bound_to 10713
  154.8736  135.4028  154.3273 H   0  0  0  0  0  0  0  0  0  0  0  0  # atno 10763 bound_to 10752
  153.4092  135.7020  153.6377 H   0  0  0  0  0  0  0  0  0  0  0  0  # atno 10764 bound_to 10752
  153.5086  135.3712  155.2546 H   0  0  0  0  0  0  0  0  0  0  0  0  # atno 10765 bound_to 10752
  140.9859  133.7031  156.1764 H   0  0  0  0  0  0  0  0  0  0  0  0  # atno 11005 bound_to 11000
  144.8043  139.6080  143.7057 LP  0  0  0  0  0  0  0  0  0  0  0  0  # atno 17320 bound_to 7965
  146.2488  139.6155  142.9441 LP  0  0  0  0  0  0  0  0  0  0  0  0  # atno 17321 bound_to 7965
  140.7589  143.3117  151.2829 LP  0  0  0  0  0  0  0  0  0  0  0  0  # atno 17342 bound_to 10162
  139.6645  144.0130  152.2714 LP  0  0  0  0  0  0  0  0  0  0  0  0  # atno 17343 bound_to 10162
  157.7060  131.0756  150.6666 LP  0  0  0  0  0  0  0  0  0  0  0  0  # atno 17370 bound_to 10713
  156.6726  130.4544  149.5652 LP  0  0  0  0  0  0  0  0  0  0  0  0  # atno 17371 bound_to 10713
  140.7116  134.4456  157.5581 LP  0  0  0  0  0  0  0  0  0  0  0  0  # atno 17394 bound_to 11000
  139.8970  134.8646  156.2062 LP  0  0  0  0  0  0  0  0  0  0  0  0  # atno 17395 bound_to 11000

$$$$
