AV-unprocessed.smi:3129|AV-procd|sdf|11923|dock2
  -GOLD-   2272017303D 1   1.00000     0.00000
 Structure written by MMmdl.
 40 40  0  0  0  0  0  0  0  0  2 V2000
  151.8989  137.9711  155.9888 C   0  0  0  0  0  0  0  0  0  0  0  0
  150.6445  137.6502  155.1572 C   0  0  0  0  0  0  0  0  0  0  0  0
  150.6811  136.1969  154.6619 C   0  0  0  0  0  0  0  0  0  0  0  0
  150.4560  138.6243  153.9783 C   0  0  0  0  0  0  0  0  0  0  0  0
  149.1564  138.4511  153.3416 N   0  0  0  0  0  0  0  0  0  0  0  0
  148.0133  138.9882  153.7914 C   0  0  0  0  0  0  0  0  0  0  0  0
  147.9497  139.6893  154.8020 O   0  0  0  0  0  0  0  0  0  0  0  0
  146.7463  138.6736  152.9831 C   0  0  1  0  0  0  0  0  0  0  0  0
  146.7974  139.3942  151.6273 C   0  0  0  0  0  0  0  0  0  0  0  0
  146.5796  137.2185  152.7686 N   0  3  0  0  0  0  0  0  0  0  0  0
  145.3283  136.8218  152.0858 C   0  0  0  0  0  0  0  0  0  0  0  0
  145.5960  135.7779  150.9875 C   0  0  0  0  0  0  0  0  0  0  0  0
  144.7622  134.5935  151.1133 N   0  0  0  0  0  0  0  0  0  0  0  0
  144.6999  133.5002  150.2746 C   0  0  0  0  0  0  0  0  0  0  0  0
  143.7611  132.6492  150.7831 C   0  0  0  0  0  0  0  0  0  0  0  0
  143.2854  133.3236  151.9419 C   0  0  0  0  0  0  0  0  0  0  0  0
  143.8798  134.4904  152.1314 N   0  0  0  0  0  0  0  0  0  0  0  0
  152.8015  137.9166  155.3794 H   0  0  0  0  0  0  0  0  0  0  0  0
  152.0127  137.2657  156.8126 H   0  0  0  0  0  0  0  0  0  0  0  0
  151.8505  138.9694  156.4241 H   0  0  0  0  0  0  0  0  0  0  0  0
  149.7791  137.7466  155.8142 H   0  0  0  0  0  0  0  0  0  0  0  0
  151.5287  136.0263  153.9973 H   0  0  0  0  0  0  0  0  0  0  0  0
  149.7725  135.9438  154.1147 H   0  0  0  0  0  0  0  0  0  0  0  0
  150.7660  135.4993  155.4956 H   0  0  0  0  0  0  0  0  0  0  0  0
  150.5553  139.6549  154.3236 H   0  0  0  0  0  0  0  0  0  0  0  0
  151.2366  138.4616  153.2332 H   0  0  0  0  0  0  0  0  0  0  0  0
  149.1271  137.8793  152.5099 H   0  0  0  0  0  0  0  0  0  0  0  0
  145.8751  139.0395  153.5295 H   0  0  0  0  0  0  0  0  0  0  0  0
  146.8890  140.4740  151.7535 H   0  0  0  0  0  0  0  0  0  0  0  0
  145.8889  139.2110  151.0525 H   0  0  0  0  0  0  0  0  0  0  0  0
  147.6429  139.0572  151.0257 H   0  0  0  0  0  0  0  0  0  0  0  0
  147.3533  136.8908  152.2088 H   0  0  0  0  0  0  0  0  0  0  0  0
  144.6129  136.4277  152.8087 H   0  0  0  0  0  0  0  0  0  0  0  0
  144.8697  137.7071  151.6445 H   0  0  0  0  0  0  0  0  0  0  0  0
  145.4165  136.2159  150.0049 H   0  0  0  0  0  0  0  0  0  0  0  0
  146.6427  135.4719  151.0076 H   0  0  0  0  0  0  0  0  0  0  0  0
  145.3235  133.4172  149.3964 H   0  0  0  0  0  0  0  0  0  0  0  0
  143.4561  131.6929  150.3848 H   0  0  0  0  0  0  0  0  0  0  0  0
  142.5287  133.0046  152.6436 H   0  0  0  0  0  0  0  0  0  0  0  0
  146.6161  136.7625  153.6697 H   0  0  0  0  0  0  0  0  0  0  0  0
  1  2  1  0  0  0  0
  1 18  1  0  0  0  0
  1 19  1  0  0  0  0
  1 20  1  0  0  0  0
  2  3  1  0  0  0  0
  2  4  1  0  0  0  0
  2 21  1  0  0  0  0
  3 22  1  0  0  0  0
  3 23  1  0  0  0  0
  3 24  1  0  0  0  0
  4  5  1  0  0  0  0
  4 25  1  0  0  0  0
  4 26  1  0  0  0  0
  5  6  1  0  0  0  0
  5 27  1  0  0  0  0
  6  7  2  0  0  0  0
  6  8  1  0  0  0  0
  8  9  1  0  0  0  0
  8 10  1  0  0  0  0
  8 28  1  0  0  0  0
  9 29  1  0  0  0  0
  9 30  1  0  0  0  0
  9 31  1  0  0  0  0
 10 11  1  0  0  0  0
 10 32  1  0  0  0  0
 10 40  1  0  0  0  0
 11 12  1  0  0  0  0
 11 33  1  0  0  0  0
 11 34  1  0  0  0  0
 12 13  1  0  0  0  0
 12 35  1  0  0  0  0
 12 36  1  0  0  0  0
 13 17  1  0  0  0  0
 13 14  1  0  0  0  0
 14 15  2  0  0  0  0
 14 37  1  0  0  0  0
 15 16  1  0  0  0  0
 15 38  1  0  0  0  0
 16 17  2  0  0  0  0
 16 39  1  0  0  0  0
M  CHG  1  10   1
M  END
> <s_m_source_file>
AV-unprocessed.smi

> <i_m_source_file_index>
3129

> <i_lp_mmshare_version>
43012

> <i_f3d_flags>
0

> <s_epik_input>
W0NIM11bQ0hdKFtDSDNdKVtDSDJdW05IXUMoPU8pW0NASF0oW0NIM10pW05IXVtDSDJdW0NIMl1uMVtjSF1bY0hdW2NIXW4x

> <s_epik_cmdline>
J2VwaWtfcHl0aG9uJywgJy1waCcsICc3LjAnLCAnLXRuJywgJzgnLCAnLW1hJywgJzIwMCcsICctbWV0YWxfYmluZGluZycsICctaW1hZScsICc8aW5maWxlLm1hZT4nLCAnLW9tYWUnLCAnPG91dGZpbGUubWFlPic=

> <r_lp_tautomer_probability>
1

> <r_epik_Ionization_Penalty>
0.20724

> <r_epik_Ionization_Penalty_Charging>
0.207237

> <r_epik_Ionization_Penalty_Neutral>
3.32432e-06

> <r_epik_State_Penalty>
0.197234

> <r_epik_Charging_Adjusted_Penalty>
0.404471

> <i_epik_Tot_Q>
1

> <i_epik_Tot_abs_Q>
1

> <r_epik_Metal_State_Penalty>
0.197522

> <b_epik_Metal_Only>
0

> <s_lp_Force_Field>
OPLS_2005

> <r_lp_Energy>
6.88256

> <b_lp_Chiralities_Consistent>
1

> <s_lp_Variant>
AV-unprocessed.smi:3129-2

> <Gold.Version>
5.8.1

> <Gold.Id.Protein>
6NUR|6NUR_protein|mol2

> <Gold.PLP.Fitness>
45.2146

> <Gold.PLP.PLP>
-32.0333

> <Gold.PLP.part.hbond>
-3.0000

> <Gold.PLP.part.metal>
0.0000

> <Gold.PLP.part.buried>
-1.0697

> <Gold.PLP.part.nonpolar>
-28.8168

> <Gold.PLP.part.repulsive>
0.3068

> <Gold.PLP.ligand.clash>
0.0000

> <Gold.PLP.ligand.torsion>
1.0244

> <Gold.PLP.Chemscore.Hbond>
2.9600

> <Gold.PLP.Chemscore.CHOScore>
2.0000

> <Gold.PLP.Chemscore.Metal>
0.0000

> <Gold.Chemscore.Hbonds>
donor molecule, donor type, donor heavy atom, donor atom, acceptor molecule, acceptor atom, score
      L1  H     5    27       P1  7948  0.94
      L1  H    10    32       P1  7948  2.00
      L1  C    14    37       P1  7921  1.00
      L1  C    16    39       P1 10957  1.00

> <Gold.PLP.Chemscore.Internal.Correction>
0.3502

> <Gold.Rescore>
     Score         DG    S(hbond)    S(metal)    S(lipo)     H(rot)  DE(clash)    DE(int)     intcor
     14.10     -15.48       1.89        0.00      80.07       2.22       0.39       0.99       ----

> <Gold.Chemscore.Fitness>
14.0999

> <Gold.Chemscore.DG>
-15.4767

> <Gold.Chemscore.ZeroCoef>
-5.4800

> <Gold.Chemscore.Hbond>
1.8933

> <Gold.Chemscore.Metal>
0.0000

> <Gold.Chemscore.Lipo>
80.0741

> <Gold.Chemscore.Internal_Hbond>
0.0000

> <Gold.Chemscore.DEClash>
0.3874

> <Gold.Chemscore.DEInternal>
0.9895

> <Gold.Chemscore.Rot>
2.2249

> <Gold.Chemscore.Internal.Correction>
   9.000000E+99

> <Gold.Chemscore.Hbonds>
donor molecule, donor type, donor heavy atom, donor atom, acceptor molecule, acceptor atom, score
      L1  H     5    27       P1  7948  0.88
      L1  H    10    32       P1  7948  0.99

> <Gold.Chemscore.Hbond.Weighted>
-6.3238

> <Gold.Chemscore.Metal.Weighted>
-0.0000

> <Gold.Chemscore.Lipo.Weighted>
-9.3687

> <Gold.Chemscore.Internal_Hbond.Weighted>
0.0000

> <Gold.Chemscore.DEClash.Weighted>
0.3874

> <Gold.Chemscore.DEInternal.Weighted>
0.9895

> <Gold.Chemscore.Rot.Weighted>
5.6957

> <Gold.Chemscore.Internal.Correction.Weighted>
   9.000000E+99

> <Gold.Protein.RotatedTorsions>
[ 6907 6896 6895 6894 ] final  -29.38 input  -60.11 | X-H torsion
[ 7974 7965 7964 7962 ] final  -14.24 input  175.53 | X-H torsion
[ 8008 7997 7996 7995 ] final  -74.06 input   59.86 | X-H torsion
[ 10167 10162 10161 10158 ] final    8.44 input  -65.29 | X-H torsion
[ 10718 10713 10712 10709 ] final  -77.53 input   66.30 | X-H torsion
[ 10763 10752 10751 10750 ] final   44.72 input  -60.55 | X-H torsion
[ 11005 11000 10999 10996 ] final  -70.01 input  -57.11 | X-H torsion

> <Gold.Protein.ActiveResidues>
 VAL166  LYS551  ARG553  GLY616  TRP617  ASP618  TYR619  PRO620  LYS621  CYS622 
 ASP623  PHE694  ASN695  SER759  ASP760  ASP761  ALA762  ILE779  LEU786  VAL792 
 PHE793  MET794  SER795  GLU796  ALA797  LYS798  CYS799  TRP800  GLU811  SER814 

> <Gold.Protein.RotatedAtoms>
  151.1200  135.0074  159.8533 H   0  0  0  0  0  0  0  0  0  0  0  0  # atno 6907 bound_to 6896
  152.5447  134.1734  159.8616 H   0  0  0  0  0  0  0  0  0  0  0  0  # atno 6908 bound_to 6896
  151.1791  133.4691  159.2627 H   0  0  0  0  0  0  0  0  0  0  0  0  # atno 6909 bound_to 6896
  146.2082  140.3319  142.8400 H   0  0  0  0  0  0  0  0  0  0  0  0  # atno 7974 bound_to 7965
  154.5299  140.0768  156.8325 H   0  0  0  0  0  0  0  0  0  0  0  0  # atno 8008 bound_to 7997
  155.3398  140.3406  155.4221 H   0  0  0  0  0  0  0  0  0  0  0  0  # atno 8009 bound_to 7997
  156.1770  140.1639  156.8331 H   0  0  0  0  0  0  0  0  0  0  0  0  # atno 8010 bound_to 7997
  140.6314  143.7985  150.7300 H   0  0  0  0  0  0  0  0  0  0  0  0  # atno 10167 bound_to 10162
  156.0142  130.4494  150.3359 H   0  0  0  0  0  0  0  0  0  0  0  0  # atno 10718 bound_to 10713
  152.9836  135.6062  154.3321 H   0  0  0  0  0  0  0  0  0  0  0  0  # atno 10763 bound_to 10752
  154.3023  135.2772  155.2607 H   0  0  0  0  0  0  0  0  0  0  0  0  # atno 10764 bound_to 10752
  154.4853  135.5906  153.6476 H   0  0  0  0  0  0  0  0  0  0  0  0  # atno 10765 bound_to 10752
  141.1565  133.6779  156.6687 H   0  0  0  0  0  0  0  0  0  0  0  0  # atno 11005 bound_to 11000
  144.8846  140.7445  143.5965 LP  0  0  0  0  0  0  0  0  0  0  0  0  # atno 17320 bound_to 7965
  145.3240  139.1779  143.4572 LP  0  0  0  0  0  0  0  0  0  0  0  0  # atno 17321 bound_to 7965
  140.1597  143.4286  152.2075 LP  0  0  0  0  0  0  0  0  0  0  0  0  # atno 17342 bound_to 10162
  139.5528  144.7350  151.4385 LP  0  0  0  0  0  0  0  0  0  0  0  0  # atno 17343 bound_to 10162
  157.1456  131.0308  151.2908 LP  0  0  0  0  0  0  0  0  0  0  0  0  # atno 17370 bound_to 10713
  157.4435  130.7557  149.7089 LP  0  0  0  0  0  0  0  0  0  0  0  0  # atno 17371 bound_to 10713
  140.3191  134.8022  157.4238 LP  0  0  0  0  0  0  0  0  0  0  0  0  # atno 17394 bound_to 11000
  140.1112  134.5343  155.8264 LP  0  0  0  0  0  0  0  0  0  0  0  0  # atno 17395 bound_to 11000

$$$$
