AV-unprocessed.smi:367|AV-procd|sdf|2432|dock2
  -GOLD-   2262022373D 1   1.00000     0.00000
 Structure written by MMmdl.
 22 22  0  0  0  0  0  0  0  0  2 V2000
  151.2110  144.0454  158.2178 C   0  0  0  0  0  0  0  0  0  0  0  0
  151.1688  142.7002  157.5259 C   0  0  0  0  0  0  0  0  0  0  0  0
  150.2859  142.6507  156.4598 N   0  0  0  0  0  0  0  0  0  0  0  0
  150.1806  141.4608  155.7616 C   0  0  0  0  0  0  0  0  0  0  0  0
  149.1963  141.4931  154.6054 C   0  0  0  0  0  0  0  0  0  0  0  0
  150.9125  140.3728  156.1123 C   0  0  0  0  0  0  0  0  0  0  0  0
  150.8237  139.0402  155.3664 C   0  0  0  0  0  0  0  0  0  0  0  0
  152.1465  138.5619  154.7563 C   0  0  0  0  0  0  0  0  0  0  0  0
  152.1361  137.4360  154.2131 O   0  0  0  0  0  0  0  0  0  0  0  0
  153.1408  139.3178  154.8319 O   0  5  0  0  0  0  0  0  0  0  0  0
  151.8353  140.4851  157.2670 C   0  0  0  0  0  0  0  0  0  0  0  0
  152.5187  139.5331  157.6415 O   0  0  0  0  0  0  0  0  0  0  0  0
  151.9117  141.7178  157.9360 N   0  0  0  0  0  0  0  0  0  0  0  0
  149.7182  143.4326  156.1677 H   0  0  0  0  0  0  0  0  0  0  0  0
  151.9709  144.0581  159.0002 H   0  0  0  0  0  0  0  0  0  0  0  0
  150.2462  144.2658  158.6751 H   0  0  0  0  0  0  0  0  0  0  0  0
  151.4453  144.8349  157.5031 H   0  0  0  0  0  0  0  0  0  0  0  0
  149.7103  141.3046  153.6628 H   0  0  0  0  0  0  0  0  0  0  0  0
  148.6980  142.4601  154.5274 H   0  0  0  0  0  0  0  0  0  0  0  0
  148.4281  140.7311  154.7381 H   0  0  0  0  0  0  0  0  0  0  0  0
  150.0725  139.0825  154.5774 H   0  0  0  0  0  0  0  0  0  0  0  0
  150.4677  138.2747  156.0563 H   0  0  0  0  0  0  0  0  0  0  0  0
  1 15  1  0  0  0  0
  1 16  1  0  0  0  0
  1 17  1  0  0  0  0
  1  2  1  0  0  0  0
  2  3  1  0  0  0  0
  2 13  2  0  0  0  0
  3  4  1  0  0  0  0
  3 14  1  0  0  0  0
  4  6  2  0  0  0  0
  4  5  1  0  0  0  0
  5 18  1  0  0  0  0
  5 19  1  0  0  0  0
  5 20  1  0  0  0  0
  6 11  1  0  0  0  0
  6  7  1  0  0  0  0
  7  8  1  0  0  0  0
  7 21  1  0  0  0  0
  7 22  1  0  0  0  0
  8  9  2  0  0  0  0
  8 10  1  0  0  0  0
 11 12  2  0  0  0  0
 11 13  1  0  0  0  0
M  CHG  1  10  -1
M  END
> <s_m_source_file>
AV-unprocessed.smi

> <i_m_source_file_index>
367

> <i_lp_mmshare_version>
43012

> <i_f3d_flags>
0

> <s_epik_input>
W0NIM11jMW5jKFtDSDNdKWMoYyg9TylbbkhdMSlbQ0gyXUMoPU8pW09IXQ==

> <s_epik_cmdline>
J2VwaWtfcHl0aG9uJywgJy1waCcsICc3LjAnLCAnLXRuJywgJzgnLCAnLW1hJywgJzIwMCcsICctbWV0YWxfYmluZGluZycsICctaW1hZScsICc8aW5maWxlLm1hZT4nLCAnLW9tYWUnLCAnPG91dGZpbGUubWFlPic=

> <r_lp_tautomer_probability>
0.156392

> <r_epik_Ionization_Penalty>
0.00675001

> <r_epik_Ionization_Penalty_Charging>
0.00587431

> <r_epik_Ionization_Penalty_Neutral>
0.000875703

> <r_epik_State_Penalty>
1.15342

> <r_epik_Charging_Adjusted_Penalty>
1.15929

> <i_epik_Tot_Q>
-1

> <i_epik_Tot_abs_Q>
1

> <r_epik_Metal_State_Penalty>
1.20317

> <b_epik_Metal_Only>
0

> <s_lp_Force_Field>
OPLS_2005

> <r_lp_Energy>
7.55918

> <b_lp_Chiralities_Consistent>
1

> <s_lp_Variant>
AV-unprocessed.smi:367-2

> <Gold.Version>
5.8.1

> <Gold.Id.Protein>
6NUR|6NUR_protein|mol2

> <Gold.PLP.Fitness>
41.6745

> <Gold.PLP.PLP>
-27.4160

> <Gold.PLP.part.hbond>
-4.9205

> <Gold.PLP.part.metal>
0.0000

> <Gold.PLP.part.buried>
-4.0518

> <Gold.PLP.part.nonpolar>
-20.3761

> <Gold.PLP.part.repulsive>
0.2757

> <Gold.PLP.ligand.clash>
0.0000

> <Gold.PLP.ligand.torsion>
0.0220

> <Gold.PLP.Chemscore.Hbond>
4.7675

> <Gold.PLP.Chemscore.CHOScore>
0.0000

> <Gold.PLP.Chemscore.Metal>
0.0000

> <Gold.Chemscore.Hbonds>
donor molecule, donor type, donor heavy atom, donor atom, acceptor molecule, acceptor atom, score
      L1  H     3    14       P1  8028  1.00
      P1  H  7997  8010       L1    10  2.00
      P1  H 10752 10764       L1     9  1.73

> <Gold.PLP.Chemscore.Internal.Correction>
0.0001

> <Gold.Rescore>
     Score         DG    S(hbond)    S(metal)    S(lipo)     H(rot)  DE(clash)    DE(int)     intcor
     15.65     -15.73       2.86        0.00      39.98       1.55       0.01       0.07       ----

> <Gold.Chemscore.Fitness>
15.6488

> <Gold.Chemscore.DG>
-15.7340

> <Gold.Chemscore.ZeroCoef>
-5.4800

> <Gold.Chemscore.Hbond>
2.8558

> <Gold.Chemscore.Metal>
0.0000

> <Gold.Chemscore.Lipo>
39.9805

> <Gold.Chemscore.Internal_Hbond>
0.0000

> <Gold.Chemscore.DEClash>
0.0126

> <Gold.Chemscore.DEInternal>
0.0726

> <Gold.Chemscore.Rot>
1.5477

> <Gold.Chemscore.Internal.Correction>
   9.000000E+99

> <Gold.Chemscore.Hbonds>
donor molecule, donor type, donor heavy atom, donor atom, acceptor molecule, acceptor atom, score
      L1  H     3    14       P1  8028  0.99
      P1  H  7997  8010       L1    10  1.00
      P1  H 10752 10764       L1     9  0.84

> <Gold.Chemscore.Hbond.Weighted>
-9.5383

> <Gold.Chemscore.Metal.Weighted>
-0.0000

> <Gold.Chemscore.Lipo.Weighted>
-4.6777

> <Gold.Chemscore.Internal_Hbond.Weighted>
0.0000

> <Gold.Chemscore.DEClash.Weighted>
0.0126

> <Gold.Chemscore.DEInternal.Weighted>
0.0726

> <Gold.Chemscore.Rot.Weighted>
3.9621

> <Gold.Chemscore.Internal.Correction.Weighted>
   9.000000E+99

> <Gold.Protein.RotatedTorsions>
[ 6907 6896 6895 6894 ] final  102.55 input  -60.11 | X-H torsion
[ 7974 7965 7964 7962 ] final  103.04 input  175.53 | X-H torsion
[ 8008 7997 7996 7995 ] final   98.86 input   59.86 | X-H torsion
[ 10167 10162 10161 10158 ] final -103.41 input  -65.29 | X-H torsion
[ 10718 10713 10712 10709 ] final  131.69 input   66.30 | X-H torsion
[ 10763 10752 10751 10750 ] final  -84.85 input  -60.55 | X-H torsion
[ 11005 11000 10999 10996 ] final -152.58 input  -57.11 | X-H torsion

> <Gold.Protein.ActiveResidues>
 VAL166  LYS551  ARG553  GLY616  TRP617  ASP618  TYR619  PRO620  LYS621  CYS622 
 ASP623  PHE694  ASN695  SER759  ASP760  ASP761  ALA762  ILE779  LEU786  VAL792 
 PHE793  MET794  SER795  GLU796  ALA797  LYS798  CYS799  TRP800  GLU811  SER814 

> <Gold.Protein.RotatedAtoms>
  152.5320  133.9958  159.7871 H   0  0  0  0  0  0  0  0  0  0  0  0  # atno 6907 bound_to 6896
  151.0186  133.5890  159.2681 H   0  0  0  0  0  0  0  0  0  0  0  0  # atno 6908 bound_to 6896
  151.2938  135.0756  159.9267 H   0  0  0  0  0  0  0  0  0  0  0  0  # atno 6909 bound_to 6896
  145.3511  139.2439  143.3557 H   0  0  0  0  0  0  0  0  0  0  0  0  # atno 7974 bound_to 7965
  156.1047  140.3237  155.7990 H   0  0  0  0  0  0  0  0  0  0  0  0  # atno 8008 bound_to 7997
  155.4776  140.0551  157.2988 H   0  0  0  0  0  0  0  0  0  0  0  0  # atno 8009 bound_to 7997
  154.4720  140.2015  155.9987 H   0  0  0  0  0  0  0  0  0  0  0  0  # atno 8010 bound_to 7997
  140.2203  143.3680  152.0975 H   0  0  0  0  0  0  0  0  0  0  0  0  # atno 10167 bound_to 10162
  157.4943  131.1092  150.9514 H   0  0  0  0  0  0  0  0  0  0  0  0  # atno 10718 bound_to 10713
  154.6042  135.5506  153.7406 H   0  0  0  0  0  0  0  0  0  0  0  0  # atno 10763 bound_to 10752
  153.0167  135.6374  154.1670 H   0  0  0  0  0  0  0  0  0  0  0  0  # atno 10764 bound_to 10752
  154.1609  135.2897  155.3089 H   0  0  0  0  0  0  0  0  0  0  0  0  # atno 10765 bound_to 10752
  140.7173  134.3766  157.5189 H   0  0  0  0  0  0  0  0  0  0  0  0  # atno 11005 bound_to 11000
  146.2967  140.4127  142.8719 LP  0  0  0  0  0  0  0  0  0  0  0  0  # atno 17320 bound_to 7965
  144.8717  140.7281  143.6043 LP  0  0  0  0  0  0  0  0  0  0  0  0  # atno 17321 bound_to 7965
  139.5146  144.6951  151.5653 LP  0  0  0  0  0  0  0  0  0  0  0  0  # atno 17342 bound_to 10162
  140.6260  143.9169  150.6565 LP  0  0  0  0  0  0  0  0  0  0  0  0  # atno 17343 bound_to 10162
  157.0206  130.5672  149.5331 LP  0  0  0  0  0  0  0  0  0  0  0  0  # atno 17370 bound_to 10713
  156.0191  130.5286  150.8223 LP  0  0  0  0  0  0  0  0  0  0  0  0  # atno 17371 bound_to 10713
  139.8856  134.8931  156.2630 LP  0  0  0  0  0  0  0  0  0  0  0  0  # atno 17394 bound_to 11000
  141.0033  133.7138  156.0995 LP  0  0  0  0  0  0  0  0  0  0  0  0  # atno 17395 bound_to 11000

$$$$
