AV-unprocessed.smi:3338|AV-procd|sdf|12875|dock2
  -GOLD-   2272019273D 1   1.00000     0.00000
 Structure written by MMmdl.
 44 45  0  0  0  0  0  0  0  0  2 V2000
  147.5173  133.1328  151.4946 C   0  0  0  0  0  0  0  0  0  0  0  0
  146.0394  133.2578  151.9041 C   0  0  2  0  0  0  0  0  0  0  0  0
  145.1163  133.5862  150.7164 C   0  0  0  0  0  0  0  0  0  0  0  0
  145.2732  135.0491  150.2792 C   0  0  0  0  0  0  0  0  0  0  0  0
  145.0793  136.0035  151.4680 C   0  0  0  0  0  0  0  0  0  0  0  0
  146.0113  135.6771  152.5783 N   0  3  1  0  0  0  0  0  0  0  0  0
  145.9431  136.6760  153.6749 C   0  0  0  0  0  0  0  0  0  0  0  0
  147.1974  136.6634  154.5637 C   0  0  0  0  0  0  0  0  0  0  0  0
  148.1138  137.7221  154.1649 N   0  0  0  0  0  0  0  0  0  0  0  0
  148.1409  138.9460  154.7139 C   0  0  0  0  0  0  0  0  0  0  0  0
  147.3577  139.2972  155.5971 O   0  0  0  0  0  0  0  0  0  0  0  0
  149.2137  139.9104  154.1777 C   0  0  1  0  0  0  0  0  0  0  0  0
  149.0430  141.3525  154.6954 C   0  0  0  0  0  0  0  0  0  0  0  0
  150.5528  139.3981  154.4480 N   0  0  0  0  0  0  0  0  0  0  0  0
  151.0903  138.1839  154.0713 C   0  0  0  0  0  0  0  0  0  0  0  0
  152.3638  138.1289  154.5606 C   0  0  0  0  0  0  0  0  0  0  0  0
  152.5208  139.3714  155.2350 C   0  0  0  0  0  0  0  0  0  0  0  0
  151.4364  140.1261  155.1703 N   0  0  0  0  0  0  0  0  0  0  0  0
  145.8350  134.2746  153.0464 C   0  0  0  0  0  0  0  0  0  0  0  0
  147.9218  134.0776  151.1312 H   0  0  0  0  0  0  0  0  0  0  0  0
  147.6438  132.3921  150.7043 H   0  0  0  0  0  0  0  0  0  0  0  0
  148.1307  132.8168  152.3388 H   0  0  0  0  0  0  0  0  0  0  0  0
  145.7432  132.2783  152.2820 H   0  0  0  0  0  0  0  0  0  0  0  0
  145.3145  132.9160  149.8793 H   0  0  0  0  0  0  0  0  0  0  0  0
  144.0797  133.4114  151.0080 H   0  0  0  0  0  0  0  0  0  0  0  0
  146.2587  135.2038  149.8390 H   0  0  0  0  0  0  0  0  0  0  0  0
  144.5506  135.2808  149.4959 H   0  0  0  0  0  0  0  0  0  0  0  0
  145.2479  137.0272  151.1313 H   0  0  0  0  0  0  0  0  0  0  0  0
  144.0506  135.9534  151.8292 H   0  0  0  0  0  0  0  0  0  0  0  0
  145.8491  137.6740  153.2441 H   0  0  0  0  0  0  0  0  0  0  0  0
  145.0431  136.5110  154.2697 H   0  0  0  0  0  0  0  0  0  0  0  0
  146.9394  136.8061  155.6132 H   0  0  0  0  0  0  0  0  0  0  0  0
  147.7026  135.6995  154.4822 H   0  0  0  0  0  0  0  0  0  0  0  0
  148.7863  137.5073  153.4429 H   0  0  0  0  0  0  0  0  0  0  0  0
  149.0940  139.9415  153.0935 H   0  0  0  0  0  0  0  0  0  0  0  0
  148.0618  141.7513  154.4356 H   0  0  0  0  0  0  0  0  0  0  0  0
  149.7898  142.0133  154.2545 H   0  0  0  0  0  0  0  0  0  0  0  0
  149.1491  141.4125  155.7794 H   0  0  0  0  0  0  0  0  0  0  0  0
  150.5281  137.4666  153.4915 H   0  0  0  0  0  0  0  0  0  0  0  0
  153.0758  137.3239  154.4529 H   0  0  0  0  0  0  0  0  0  0  0  0
  153.3833  139.7440  155.7677 H   0  0  0  0  0  0  0  0  0  0  0  0
  144.8323  134.1633  153.4624 H   0  0  0  0  0  0  0  0  0  0  0  0
  146.5299  134.0467  153.8539 H   0  0  0  0  0  0  0  0  0  0  0  0
  146.9418  135.7423  152.1907 H   0  0  0  0  0  0  0  0  0  0  0  0
  1  2  1  0  0  0  0
  1 20  1  0  0  0  0
  1 21  1  0  0  0  0
  1 22  1  0  0  0  0
  2 19  1  0  0  0  0
  2  3  1  0  0  0  0
  2 23  1  0  0  0  0
  3  4  1  0  0  0  0
  3 24  1  0  0  0  0
  3 25  1  0  0  0  0
  4  5  1  0  0  0  0
  4 26  1  0  0  0  0
  4 27  1  0  0  0  0
  5  6  1  0  0  0  0
  5 28  1  0  0  0  0
  5 29  1  0  0  0  0
  6  7  1  0  0  0  0
  6 19  1  0  0  0  0
  6 44  1  0  0  0  0
  7  8  1  0  0  0  0
  7 30  1  0  0  0  0
  7 31  1  0  0  0  0
  8  9  1  0  0  0  0
  8 32  1  0  0  0  0
  8 33  1  0  0  0  0
  9 10  1  0  0  0  0
  9 34  1  0  0  0  0
 10 11  2  0  0  0  0
 10 12  1  0  0  0  0
 12 13  1  0  0  0  0
 12 14  1  0  0  0  0
 12 35  1  0  0  0  0
 13 36  1  0  0  0  0
 13 37  1  0  0  0  0
 13 38  1  0  0  0  0
 14 18  1  0  0  0  0
 14 15  1  0  0  0  0
 15 16  2  0  0  0  0
 15 39  1  0  0  0  0
 16 17  1  0  0  0  0
 16 40  1  0  0  0  0
 17 18  2  0  0  0  0
 17 41  1  0  0  0  0
 19 42  1  0  0  0  0
 19 43  1  0  0  0  0
M  CHG  1   6   1
M  END
> <s_m_source_file>
AV-unprocessed.smi

> <i_m_source_file_index>
3338

> <i_lp_mmshare_version>
43012

> <i_f3d_flags>
0

> <s_epik_input>
W0NIM11bQ0BASF0xW0NIMl1bQ0gyXVtDSDJdTihbQ0gyXTEpW0NIMl1bQ0gyXVtOSF1DKD1PKVtDQEhdKFtDSDNdKW4yW2NIXVtjSF1bY0hdbjI=

> <s_epik_cmdline>
J2VwaWtfcHl0aG9uJywgJy1waCcsICc3LjAnLCAnLXRuJywgJzgnLCAnLW1hJywgJzIwMCcsICctbWV0YWxfYmluZGluZycsICctaW1hZScsICc8aW5maWxlLm1hZT4nLCAnLW9tYWUnLCAnPG91dGZpbGUubWFlPic=

> <r_lp_tautomer_probability>
1

> <r_epik_Ionization_Penalty>
0.00225707

> <r_epik_Ionization_Penalty_Charging>
0.00223709

> <r_epik_Ionization_Penalty_Neutral>
1.99775e-05

> <r_epik_State_Penalty>
0.00153978

> <r_epik_Charging_Adjusted_Penalty>
0.00377687

> <i_epik_Tot_Q>
1

> <i_epik_Tot_abs_Q>
1

> <r_epik_Metal_State_Penalty>
-0

> <b_epik_Metal_Only>
0

> <s_lp_Force_Field>
OPLS_2005

> <r_lp_Energy>
23.0994

> <b_lp_Chiralities_Consistent>
1

> <s_lp_Variant>
AV-unprocessed.smi:3338-7

> <Gold.Version>
5.8.1

> <Gold.Id.Protein>
6NUR|6NUR_protein|mol2

> <Gold.PLP.Fitness>
40.5870

> <Gold.PLP.PLP>
-30.9011

> <Gold.PLP.part.hbond>
-2.8261

> <Gold.PLP.part.metal>
0.0000

> <Gold.PLP.part.buried>
3.7135

> <Gold.PLP.part.nonpolar>
-29.9351

> <Gold.PLP.part.repulsive>
0.0309

> <Gold.PLP.ligand.clash>
0.0000

> <Gold.PLP.ligand.torsion>
0.6990

> <Gold.PLP.Chemscore.Hbond>
2.4900

> <Gold.PLP.Chemscore.CHOScore>
1.1613

> <Gold.PLP.Chemscore.Metal>
0.0000

> <Gold.Chemscore.Hbonds>
donor molecule, donor type, donor heavy atom, donor atom, acceptor molecule, acceptor atom, score
      L1  H     6    44       P1  7948  1.79
      L1  H     9    34       P1  7948  0.78
      L1  C    15    39       P1  7948  0.66
      L1  C    15    39       P1  7949  0.51

> <Gold.PLP.Chemscore.Internal.Correction>
0.1302

> <Gold.Rescore>
     Score         DG    S(hbond)    S(metal)    S(lipo)     H(rot)  DE(clash)    DE(int)     intcor
     12.45     -15.04       1.45        0.00      78.78       1.76       1.14       1.45       ----

> <Gold.Chemscore.Fitness>
12.4528

> <Gold.Chemscore.DG>
-15.0406

> <Gold.Chemscore.ZeroCoef>
-5.4800

> <Gold.Chemscore.Hbond>
1.4496

> <Gold.Chemscore.Metal>
0.0000

> <Gold.Chemscore.Lipo>
78.7752

> <Gold.Chemscore.Internal_Hbond>
0.0000

> <Gold.Chemscore.DEClash>
1.1400

> <Gold.Chemscore.DEInternal>
1.4478

> <Gold.Chemscore.Rot>
1.7570

> <Gold.Chemscore.Internal.Correction>
   9.000000E+99

> <Gold.Chemscore.Hbonds>
donor molecule, donor type, donor heavy atom, donor atom, acceptor molecule, acceptor atom, score
      L1  H     6    44       P1  7948  0.87
      L1  H     9    34       P1  7948  0.73

> <Gold.Chemscore.Hbond.Weighted>
-4.8417

> <Gold.Chemscore.Metal.Weighted>
-0.0000

> <Gold.Chemscore.Lipo.Weighted>
-9.2167

> <Gold.Chemscore.Internal_Hbond.Weighted>
0.0000

> <Gold.Chemscore.DEClash.Weighted>
1.1400

> <Gold.Chemscore.DEInternal.Weighted>
1.4478

> <Gold.Chemscore.Rot.Weighted>
4.4979

> <Gold.Chemscore.Internal.Correction.Weighted>
   9.000000E+99

> <Gold.Protein.RotatedTorsions>
[ 6907 6896 6895 6894 ] final -104.45 input  -60.11 | X-H torsion
[ 7974 7965 7964 7962 ] final  149.21 input  175.53 | X-H torsion
[ 8008 7997 7996 7995 ] final  -66.44 input   59.86 | X-H torsion
[ 10167 10162 10161 10158 ] final  -89.66 input  -65.29 | X-H torsion
[ 10718 10713 10712 10709 ] final  -13.12 input   66.30 | X-H torsion
[ 10763 10752 10751 10750 ] final   79.84 input  -60.55 | X-H torsion
[ 11005 11000 10999 10996 ] final  -58.98 input  -57.11 | X-H torsion

> <Gold.Protein.ActiveResidues>
 VAL166  LYS551  ARG553  GLY616  TRP617  ASP618  TYR619  PRO620  LYS621  CYS622 
 ASP623  PHE694  ASN695  SER759  ASP760  ASP761  ALA762  ILE779  LEU786  VAL792 
 PHE793  MET794  SER795  GLU796  ALA797  LYS798  CYS799  TRP800  GLU811  SER814 

> <Gold.Protein.RotatedAtoms>
  150.7288  134.0276  159.3722 H   0  0  0  0  0  0  0  0  0  0  0  0  # atno 6907 bound_to 6896
  151.8244  135.0639  160.0438 H   0  0  0  0  0  0  0  0  0  0  0  0  # atno 6908 bound_to 6896
  152.2980  133.5591  159.5636 H   0  0  0  0  0  0  0  0  0  0  0  0  # atno 6909 bound_to 6896
  144.8455  139.6251  143.5997 H   0  0  0  0  0  0  0  0  0  0  0  0  # atno 7974 bound_to 7965
  154.4735  140.0912  156.7204 H   0  0  0  0  0  0  0  0  0  0  0  0  # atno 8008 bound_to 7997
  155.4660  140.3462  155.4301 H   0  0  0  0  0  0  0  0  0  0  0  0  # atno 8009 bound_to 7997
  156.1078  140.1439  156.9368 H   0  0  0  0  0  0  0  0  0  0  0  0  # atno 8010 bound_to 7997
  140.3626  143.2834  151.9596 H   0  0  0  0  0  0  0  0  0  0  0  0  # atno 10167 bound_to 10162
  156.6349  130.4912  149.6116 H   0  0  0  0  0  0  0  0  0  0  0  0  # atno 10718 bound_to 10713
  153.0985  135.4825  154.8823 H   0  0  0  0  0  0  0  0  0  0  0  0  # atno 10763 bound_to 10752
  154.7352  135.3069  154.8827 H   0  0  0  0  0  0  0  0  0  0  0  0  # atno 10764 bound_to 10752
  153.9451  135.6830  153.4797 H   0  0  0  0  0  0  0  0  0  0  0  0  # atno 10765 bound_to 10752
  141.1229  133.6614  156.5002 H   0  0  0  0  0  0  0  0  0  0  0  0  # atno 11005 bound_to 11000
  146.2740  139.6707  142.9276 LP  0  0  0  0  0  0  0  0  0  0  0  0  # atno 17320 bound_to 7965
  145.4605  141.0432  143.2754 LP  0  0  0  0  0  0  0  0  0  0  0  0  # atno 17321 bound_to 7965
  139.4812  144.5979  151.7658 LP  0  0  0  0  0  0  0  0  0  0  0  0  # atno 17342 bound_to 10162
  140.5112  144.1022  150.5996 LP  0  0  0  0  0  0  0  0  0  0  0  0  # atno 17343 bound_to 10162
  156.2205  130.6734  151.1363 LP  0  0  0  0  0  0  0  0  0  0  0  0  # atno 17370 bound_to 10713
  157.7189  131.0693  150.6217 LP  0  0  0  0  0  0  0  0  0  0  0  0  # atno 17371 bound_to 10713
  140.4452  134.6979  157.5012 LP  0  0  0  0  0  0  0  0  0  0  0  0  # atno 17394 bound_to 11000
  140.0202  134.6558  155.9250 LP  0  0  0  0  0  0  0  0  0  0  0  0  # atno 17395 bound_to 11000

$$$$
