AV-unprocessed.smi:1982|AV-procd|sdf|8027|dock5
  -GOLD-   2272010223D 1   1.00000     0.00000
 Structure written by MMmdl.
 36 37  0  0  0  0  0  0  0  0  1 V2000
  145.7530  138.0479  156.7726 C   0  0  0  0  0  0  0  0  0  0  0  0
  146.4930  138.0644  155.4231 C   0  0  1  0  0  0  0  0  0  0  0  0
  145.5206  137.6739  154.2906 C   0  0  0  0  0  0  0  0  0  0  0  0
  146.2064  137.6573  152.9181 C   0  0  0  0  0  0  0  0  0  0  0  0
  146.8578  139.0137  152.6143 C   0  0  0  0  0  0  0  0  0  0  0  0
  147.8418  139.4366  153.7218 C   0  0  2  0  0  0  0  0  0  0  0  0
  149.0287  138.5826  153.7127 N   0  0  0  0  0  0  0  0  0  0  0  0
  150.2322  138.8962  154.2164 C   0  0  0  0  0  0  0  0  0  0  0  0
  150.5021  139.9929  154.7049 O   0  0  0  0  0  0  0  0  0  0  0  0
  151.2949  137.7974  154.1656 C   0  0  0  0  0  0  0  0  0  0  0  0
  150.9433  136.6917  155.0383 N   0  0  0  0  0  0  0  0  0  0  0  0
  149.9028  135.8562  155.0193 C   0  0  0  0  0  0  0  0  0  0  0  0
  149.9765  134.9616  155.9928 N   0  0  0  0  0  0  0  0  0  0  0  0
  151.1552  135.2957  156.6388 N   0  0  0  0  0  0  0  0  0  0  0  0
  151.7333  136.3217  156.0773 N   0  0  0  0  0  0  0  0  0  0  0  0
  147.1705  139.4305  155.1201 C   0  0  2  0  0  0  0  0  0  0  0  0
  148.1648  139.8666  156.2167 C   0  0  0  0  0  0  0  0  0  0  0  0
  145.0041  138.8385  156.8243 H   0  0  0  0  0  0  0  0  0  0  0  0
  146.4371  138.1768  157.6109 H   0  0  0  0  0  0  0  0  0  0  0  0
  145.2417  137.0974  156.9266 H   0  0  0  0  0  0  0  0  0  0  0  0
  147.2698  137.2997  155.4711 H   0  0  0  0  0  0  0  0  0  0  0  0
  145.0919  136.6910  154.4895 H   0  0  0  0  0  0  0  0  0  0  0  0
  144.6839  138.3737  154.2671 H   0  0  0  0  0  0  0  0  0  0  0  0
  146.9585  136.8678  152.8913 H   0  0  0  0  0  0  0  0  0  0  0  0
  145.4789  137.4146  152.1432 H   0  0  0  0  0  0  0  0  0  0  0  0
  147.3632  138.9786  151.6483 H   0  0  0  0  0  0  0  0  0  0  0  0
  146.0786  139.7709  152.5202 H   0  0  0  0  0  0  0  0  0  0  0  0
  148.1558  140.4613  153.5141 H   0  0  0  0  0  0  0  0  0  0  0  0
  148.9102  137.6568  153.3268 H   0  0  0  0  0  0  0  0  0  0  0  0
  151.4049  137.4354  153.1422 H   0  0  0  0  0  0  0  0  0  0  0  0
  152.2623  138.1939  154.4761 H   0  0  0  0  0  0  0  0  0  0  0  0
  149.1031  135.8997  154.2945 H   0  0  0  0  0  0  0  0  0  0  0  0
  146.3826  140.1849  155.0931 H   0  0  0  0  0  0  0  0  0  0  0  0
  148.9190  139.1019  156.4067 H   0  0  0  0  0  0  0  0  0  0  0  0
  147.6582  140.0743  157.1587 H   0  0  0  0  0  0  0  0  0  0  0  0
  148.6858  140.7806  155.9302 H   0  0  0  0  0  0  0  0  0  0  0  0
  1  2  1  0  0  0  0
  1 18  1  0  0  0  0
  1 19  1  0  0  0  0
  1 20  1  0  0  0  0
  2 16  1  0  0  0  0
  2  3  1  0  0  0  0
  2 21  1  0  0  0  0
  3  4  1  0  0  0  0
  3 22  1  0  0  0  0
  3 23  1  0  0  0  0
  4  5  1  0  0  0  0
  4 24  1  0  0  0  0
  4 25  1  0  0  0  0
  5  6  1  0  0  0  0
  5 26  1  0  0  0  0
  5 27  1  0  0  0  0
  6  7  1  0  0  0  0
  6 16  1  0  0  0  0
  6 28  1  0  0  0  0
  7  8  1  0  0  0  0
  7 29  1  0  0  0  0
  8  9  2  0  0  0  0
  8 10  1  0  0  0  0
 10 11  1  0  0  0  0
 10 30  1  0  0  0  0
 10 31  1  0  0  0  0
 11 15  1  0  0  0  0
 11 12  1  0  0  0  0
 12 13  2  0  0  0  0
 12 32  1  0  0  0  0
 13 14  1  0  0  0  0
 14 15  2  0  0  0  0
 16 17  1  0  0  0  0
 16 33  1  0  0  0  0
 17 34  1  0  0  0  0
 17 35  1  0  0  0  0
 17 36  1  0  0  0  0
M  END
> <s_m_source_file>
AV-unprocessed.smi

> <i_m_source_file_index>
1982

> <i_lp_mmshare_version>
43012

> <i_f3d_flags>
0

> <s_epik_input>
W0NIM11bQ0BASF0xW0NIMl1bQ0gyXVtDSDJdW0NASF0oW0NASF0xW0NIM10pW05IXUMoPU8pW0NIMl1uMltjSF1ubm4y

> <s_epik_cmdline>
J2VwaWtfcHl0aG9uJywgJy1waCcsICc3LjAnLCAnLXRuJywgJzgnLCAnLW1hJywgJzIwMCcsICctbWV0YWxfYmluZGluZycsICctaW1hZScsICc8aW5maWxlLm1hZT4nLCAnLW9tYWUnLCAnPG91dGZpbGUubWFlPic=

> <r_lp_tautomer_probability>
1

> <r_epik_Ionization_Penalty>
5.03816e-07

> <r_epik_Ionization_Penalty_Charging>
0

> <r_epik_Ionization_Penalty_Neutral>
5.03816e-07

> <r_epik_State_Penalty>
-0

> <r_epik_Charging_Adjusted_Penalty>
0

> <i_epik_Tot_Q>
0

> <i_epik_Tot_abs_Q>
0

> <r_epik_Metal_State_Penalty>
-0

> <b_epik_Metal_Only>
0

> <s_lp_Force_Field>
OPLS_2005

> <r_lp_Energy>
12.4214

> <b_lp_Chiralities_Consistent>
1

> <s_lp_Variant>
AV-unprocessed.smi:1982-8

> <Gold.Version>
5.8.1

> <Gold.Id.Protein>
6NUR|6NUR_protein|mol2

> <Gold.PLP.Fitness>
31.7151

> <Gold.PLP.PLP>
-20.3711

> <Gold.PLP.part.hbond>
-4.0000

> <Gold.PLP.part.metal>
0.0000

> <Gold.PLP.part.buried>
-2.0707

> <Gold.PLP.part.nonpolar>
-14.9172

> <Gold.PLP.part.repulsive>
0.1877

> <Gold.PLP.ligand.clash>
0.0000

> <Gold.PLP.ligand.torsion>
0.3348

> <Gold.PLP.Chemscore.Hbond>
3.0000

> <Gold.PLP.Chemscore.CHOScore>
1.0000

> <Gold.PLP.Chemscore.Metal>
0.0000

> <Gold.Chemscore.Hbonds>
donor molecule, donor type, donor heavy atom, donor atom, acceptor molecule, acceptor atom, score
      L1  H     7    29       P1  7948  1.00
      P1  H  7989  7998       L1     9  1.00
      P1  H 10752 10764       L1    15  1.00
      L1  C    12    32       P1  7948  1.00

> <Gold.PLP.Chemscore.Internal.Correction>
0.0135

> <Gold.Rescore>
     Score         DG    S(hbond)    S(metal)    S(lipo)     H(rot)  DE(clash)    DE(int)     intcor
      9.88     -12.59       2.47        0.00      32.09       1.91       0.04       2.66       ----

> <Gold.Chemscore.Fitness>
9.8830

> <Gold.Chemscore.DG>
-12.5896

> <Gold.Chemscore.ZeroCoef>
-5.4800

> <Gold.Chemscore.Hbond>
2.4653

> <Gold.Chemscore.Metal>
0.0000

> <Gold.Chemscore.Lipo>
32.0884

> <Gold.Chemscore.Internal_Hbond>
0.0000

> <Gold.Chemscore.DEClash>
0.0440

> <Gold.Chemscore.DEInternal>
2.6626

> <Gold.Chemscore.Rot>
1.9058

> <Gold.Chemscore.Internal.Correction>
   9.000000E+99

> <Gold.Chemscore.Hbonds>
donor molecule, donor type, donor heavy atom, donor atom, acceptor molecule, acceptor atom, score
      L1  H     7    29       P1  7948  0.92
      P1  H  7989  7998       L1     9  0.60
      P1  H 10752 10764       L1    15  0.12

> <Gold.Chemscore.Hbond.Weighted>
-8.2341

> <Gold.Chemscore.Metal.Weighted>
-0.0000

> <Gold.Chemscore.Lipo.Weighted>
-3.7543

> <Gold.Chemscore.Internal_Hbond.Weighted>
0.0000

> <Gold.Chemscore.DEClash.Weighted>
0.0440

> <Gold.Chemscore.DEInternal.Weighted>
2.6626

> <Gold.Chemscore.Rot.Weighted>
4.8788

> <Gold.Chemscore.Internal.Correction.Weighted>
   9.000000E+99

> <Gold.Protein.RotatedTorsions>
[ 6907 6896 6895 6894 ] final  152.74 input  -60.11 | X-H torsion
[ 7974 7965 7964 7962 ] final    9.67 input  175.53 | X-H torsion
[ 8008 7997 7996 7995 ] final  -85.08 input   59.86 | X-H torsion
[ 10167 10162 10161 10158 ] final  155.90 input  -65.29 | X-H torsion
[ 10718 10713 10712 10709 ] final  173.22 input   66.30 | X-H torsion
[ 10763 10752 10751 10750 ] final  -15.69 input  -60.55 | X-H torsion
[ 11005 11000 10999 10996 ] final  138.86 input  -57.11 | X-H torsion

> <Gold.Protein.ActiveResidues>
 VAL166  LYS551  ARG553  GLY616  TRP617  ASP618  TYR619  PRO620  LYS621  CYS622 
 ASP623  PHE694  ASN695  SER759  ASP760  ASP761  ALA762  ILE779  LEU786  VAL792 
 PHE793  MET794  SER795  GLU796  ALA797  LYS798  CYS799  TRP800  GLU811  SER814 

> <Gold.Protein.RotatedAtoms>
  152.0825  133.4160  159.4507 H   0  0  0  0  0  0  0  0  0  0  0  0  # atno 6907 bound_to 6896
  150.6862  134.2965  159.4698 H   0  0  0  0  0  0  0  0  0  0  0  0  # atno 6908 bound_to 6896
  152.0808  134.9471  160.0624 H   0  0  0  0  0  0  0  0  0  0  0  0  # atno 6909 bound_to 6896
  146.2400  139.9748  142.8443 H   0  0  0  0  0  0  0  0  0  0  0  0  # atno 7974 bound_to 7965
  154.6368  140.0596  156.9798 H   0  0  0  0  0  0  0  0  0  0  0  0  # atno 8008 bound_to 7997
  155.1580  140.3280  155.4399 H   0  0  0  0  0  0  0  0  0  0  0  0  # atno 8009 bound_to 7997
  156.2511  140.1936  156.6688 H   0  0  0  0  0  0  0  0  0  0  0  0  # atno 8010 bound_to 7997
  139.4821  144.5057  151.8102 H   0  0  0  0  0  0  0  0  0  0  0  0  # atno 10167 bound_to 10162
  156.9674  131.0079  151.2913 H   0  0  0  0  0  0  0  0  0  0  0  0  # atno 10718 bound_to 10713
  153.5472  135.7012  153.5608 H   0  0  0  0  0  0  0  0  0  0  0  0  # atno 10763 bound_to 10752
  153.3548  135.3985  155.1674 H   0  0  0  0  0  0  0  0  0  0  0  0  # atno 10764 bound_to 10752
  154.8666  135.3774  154.4980 H   0  0  0  0  0  0  0  0  0  0  0  0  # atno 10765 bound_to 10752
  140.0213  134.9395  157.0480 H   0  0  0  0  0  0  0  0  0  0  0  0  # atno 11005 bound_to 11000
  145.1647  140.9690  143.4357 LP  0  0  0  0  0  0  0  0  0  0  0  0  # atno 17320 bound_to 7965
  145.0084  139.3533  143.6132 LP  0  0  0  0  0  0  0  0  0  0  0  0  # atno 17321 bound_to 7965
  140.4554  144.1796  150.5901 LP  0  0  0  0  0  0  0  0  0  0  0  0  # atno 17342 bound_to 10162
  140.4540  143.2475  151.9309 LP  0  0  0  0  0  0  0  0  0  0  0  0  # atno 17343 bound_to 10162
  157.5616  130.8249  149.8273 LP  0  0  0  0  0  0  0  0  0  0  0  0  # atno 17370 bound_to 10713
  156.0297  130.3768  150.1723 LP  0  0  0  0  0  0  0  0  0  0  0  0  # atno 17371 bound_to 10713
  140.4382  134.1709  155.7172 LP  0  0  0  0  0  0  0  0  0  0  0  0  # atno 17394 bound_to 11000
  141.1776  133.8482  157.1370 LP  0  0  0  0  0  0  0  0  0  0  0  0  # atno 17395 bound_to 11000

$$$$
