AV-unprocessed.smi:2734|AV-procd|sdf|10538|dock1
  -GOLD-   2272014583D 1   1.00000     0.00000
 Structure written by MMmdl.
 40 42  0  0  0  0  0  0  0  0  1 V2000
  153.6330  143.2253  163.5436 C   0  0  0  0  0  0  0  0  0  0  0  0
  153.0909  143.0216  162.1398 C   0  0  0  0  0  0  0  0  0  0  0  0
  152.2165  143.9883  161.5939 C   0  0  0  0  0  0  0  0  0  0  0  0
  151.6867  143.8337  160.2942 C   0  0  0  0  0  0  0  0  0  0  0  0
  150.8210  144.6396  159.5748 N   0  0  0  0  0  0  0  0  0  0  0  0
  150.7002  143.9572  158.4398 C   0  0  0  0  0  0  0  0  0  0  0  0
  151.3856  142.8024  158.3384 N   0  0  0  0  0  0  0  0  0  0  0  0
  151.4006  141.8943  157.2059 C   0  0  0  0  0  0  0  0  0  0  0  0
  149.9858  141.5589  156.6935 C   0  0  1  0  0  0  0  0  0  0  0  0
  149.7385  142.3559  155.5532 O   0  0  0  0  0  0  0  0  0  0  0  0
  149.7976  140.0751  156.3263 C   0  0  0  0  0  0  0  0  0  0  0  0
  150.5822  139.6487  154.7423 S   0  0  0  0  0  0  0  0  0  0  0  0
  151.8428  138.5554  155.3228 C   0  0  0  0  0  0  0  0  0  0  0  0
  153.1259  138.8489  155.5029 N   0  0  0  0  0  0  0  0  0  0  0  0
  153.6780  137.6681  155.9614 N   0  0  0  0  0  0  0  0  0  0  0  0
  152.7800  136.7303  156.0489 N   0  0  0  0  0  0  0  0  0  0  0  0
  151.6076  137.2778  155.6460 N   0  0  0  0  0  0  0  0  0  0  0  0
  150.3861  136.4981  155.6210 C   0  0  0  0  0  0  0  0  0  0  0  0
  152.0612  142.6781  159.5482 C   0  0  0  0  0  0  0  0  0  0  0  0
  152.9322  141.7106  160.0796 C   0  0  0  0  0  0  0  0  0  0  0  0
  153.4493  141.8784  161.3810 C   0  0  0  0  0  0  0  0  0  0  0  0
  154.3820  140.8233  161.9486 C   0  0  0  0  0  0  0  0  0  0  0  0
  153.2676  144.1551  163.9808 H   0  0  0  0  0  0  0  0  0  0  0  0
  154.7223  143.2676  163.5309 H   0  0  0  0  0  0  0  0  0  0  0  0
  153.3249  142.4061  164.1937 H   0  0  0  0  0  0  0  0  0  0  0  0
  151.9415  144.8581  162.1721 H   0  0  0  0  0  0  0  0  0  0  0  0
  150.0742  144.3153  157.6354 H   0  0  0  0  0  0  0  0  0  0  0  0
  151.9907  142.3520  156.4105 H   0  0  0  0  0  0  0  0  0  0  0  0
  151.9268  140.9844  157.4978 H   0  0  0  0  0  0  0  0  0  0  0  0
  149.2572  141.8339  157.4572 H   0  0  0  0  0  0  0  0  0  0  0  0
  149.2130  143.0966  155.8152 H   0  0  0  0  0  0  0  0  0  0  0  0
  150.2030  139.4387  157.1141 H   0  0  0  0  0  0  0  0  0  0  0  0
  148.7366  139.8429  156.2372 H   0  0  0  0  0  0  0  0  0  0  0  0
  149.6464  136.9561  156.2780 H   0  0  0  0  0  0  0  0  0  0  0  0
  150.5752  135.4781  155.9580 H   0  0  0  0  0  0  0  0  0  0  0  0
  149.9918  136.4680  154.6051 H   0  0  0  0  0  0  0  0  0  0  0  0
  153.1939  140.8426  159.4928 H   0  0  0  0  0  0  0  0  0  0  0  0
  154.5564  140.0196  161.2326 H   0  0  0  0  0  0  0  0  0  0  0  0
  153.9553  140.3818  162.8493 H   0  0  0  0  0  0  0  0  0  0  0  0
  155.3478  141.2619  162.2005 H   0  0  0  0  0  0  0  0  0  0  0  0
  1  2  1  0  0  0  0
  1 23  1  0  0  0  0
  1 24  1  0  0  0  0
  1 25  1  0  0  0  0
  2 21  1  0  0  0  0
  2  3  2  0  0  0  0
  3  4  1  0  0  0  0
  3 26  1  0  0  0  0
  4 19  2  0  0  0  0
  4  5  1  0  0  0  0
  5  6  2  0  0  0  0
  6  7  1  0  0  0  0
  6 27  1  0  0  0  0
  7  8  1  0  0  0  0
  7 19  1  0  0  0  0
  8  9  1  0  0  0  0
  8 28  1  0  0  0  0
  8 29  1  0  0  0  0
  9 10  1  0  0  0  0
  9 11  1  0  0  0  0
  9 30  1  0  0  0  0
 10 31  1  0  0  0  0
 11 12  1  0  0  0  0
 11 32  1  0  0  0  0
 11 33  1  0  0  0  0
 12 13  1  0  0  0  0
 13 17  1  0  0  0  0
 13 14  2  0  0  0  0
 14 15  1  0  0  0  0
 15 16  2  0  0  0  0
 16 17  1  0  0  0  0
 17 18  1  0  0  0  0
 18 34  1  0  0  0  0
 18 35  1  0  0  0  0
 18 36  1  0  0  0  0
 19 20  1  0  0  0  0
 20 21  2  0  0  0  0
 20 37  1  0  0  0  0
 21 22  1  0  0  0  0
 22 38  1  0  0  0  0
 22 39  1  0  0  0  0
 22 40  1  0  0  0  0
M  END
> <s_m_source_file>
AV-unprocessed.smi

> <i_m_source_file_index>
2734

> <i_lp_mmshare_version>
43012

> <i_f3d_flags>
0

> <s_epik_input>
W0NIM11jKFtjSF0xKWMoW0NIM10pW2NIXWMoYzEyKW4oW2NIXW4yKVtDSDJdW0NASF0oW09IXSlbQ0gyXVNjM25ubm4zW0NIM10=

> <s_epik_cmdline>
J2VwaWtfcHl0aG9uJywgJy1waCcsICc3LjAnLCAnLXRuJywgJzgnLCAnLW1hJywgJzIwMCcsICctbWV0YWxfYmluZGluZycsICctaW1hZScsICc8aW5maWxlLm1hZT4nLCAnLW9tYWUnLCAnPG91dGZpbGUubWFlPic=

> <r_lp_tautomer_probability>
1

> <r_epik_Ionization_Penalty>
0.105517

> <r_epik_Ionization_Penalty_Charging>
0

> <r_epik_Ionization_Penalty_Neutral>
0.105517

> <r_epik_State_Penalty>
0.0953887

> <r_epik_Charging_Adjusted_Penalty>
0.0953887

> <i_epik_Tot_Q>
0

> <i_epik_Tot_abs_Q>
0

> <r_epik_Metal_State_Penalty>
0.0808533

> <b_epik_Metal_Only>
0

> <s_lp_Force_Field>
OPLS_2005

> <r_lp_Energy>
9.84292

> <b_lp_Chiralities_Consistent>
1

> <s_lp_Variant>
AV-unprocessed.smi:2734-2

> <Gold.Version>
5.8.1

> <Gold.Id.Protein>
6NUR|6NUR_protein|mol2

> <Gold.PLP.Fitness>
59.1683

> <Gold.PLP.PLP>
-50.1492

> <Gold.PLP.part.hbond>
-3.9807

> <Gold.PLP.part.metal>
0.0000

> <Gold.PLP.part.buried>
-6.5490

> <Gold.PLP.part.nonpolar>
-39.5735

> <Gold.PLP.part.repulsive>
0.1332

> <Gold.PLP.ligand.clash>
0.0000

> <Gold.PLP.ligand.torsion>
1.4444

> <Gold.PLP.Chemscore.Hbond>
2.8720

> <Gold.PLP.Chemscore.CHOScore>
1.0546

> <Gold.PLP.Chemscore.Metal>
0.0000

> <Gold.Chemscore.Hbonds>
donor molecule, donor type, donor heavy atom, donor atom, acceptor molecule, acceptor atom, score
      L1  H    10    31       P1  8028  0.96
      P1  H  7997  8008       L1    14  1.00
      P1  H 10752 10764       L1    16  0.85
      L1  C     6    27       P1  8028  1.00
      L1  C     6    27       P1  8029  0.06

> <Gold.PLP.Chemscore.Internal.Correction>
0.1282

> <Gold.Rescore>
     Score         DG    S(hbond)    S(metal)    S(lipo)     H(rot)  DE(clash)    DE(int)     intcor
     18.66     -20.48       2.49        0.00     119.50       2.85       0.19       1.63       ----

> <Gold.Chemscore.Fitness>
18.6567

> <Gold.Chemscore.DG>
-20.4805

> <Gold.Chemscore.ZeroCoef>
-5.4800

> <Gold.Chemscore.Hbond>
2.4858

> <Gold.Chemscore.Metal>
0.0000

> <Gold.Chemscore.Lipo>
119.4993

> <Gold.Chemscore.Internal_Hbond>
0.0000

> <Gold.Chemscore.DEClash>
0.1936

> <Gold.Chemscore.DEInternal>
1.6302

> <Gold.Chemscore.Rot>
2.8452

> <Gold.Chemscore.Internal.Correction>
   9.000000E+99

> <Gold.Chemscore.Hbonds>
donor molecule, donor type, donor heavy atom, donor atom, acceptor molecule, acceptor atom, score
      L1  H    10    31       P1  8028  0.92
      P1  H  7997  8008       L1    14  0.34
      P1  H 10752 10764       L1    16  0.50

> <Gold.Chemscore.Hbond.Weighted>
-8.3027

> <Gold.Chemscore.Metal.Weighted>
-0.0000

> <Gold.Chemscore.Lipo.Weighted>
-13.9814

> <Gold.Chemscore.Internal_Hbond.Weighted>
0.0000

> <Gold.Chemscore.DEClash.Weighted>
0.1936

> <Gold.Chemscore.DEInternal.Weighted>
1.6302

> <Gold.Chemscore.Rot.Weighted>
7.2837

> <Gold.Chemscore.Internal.Correction.Weighted>
   9.000000E+99

> <Gold.Protein.RotatedTorsions>
[ 6907 6896 6895 6894 ] final  -88.10 input  -60.11 | X-H torsion
[ 7974 7965 7964 7962 ] final -117.74 input  175.53 | X-H torsion
[ 8008 7997 7996 7995 ] final  -29.76 input   59.86 | X-H torsion
[ 10167 10162 10161 10158 ] final  159.45 input  -65.29 | X-H torsion
[ 10718 10713 10712 10709 ] final  174.95 input   66.30 | X-H torsion
[ 10763 10752 10751 10750 ] final  -17.42 input  -60.55 | X-H torsion
[ 11005 11000 10999 10996 ] final -111.13 input  -57.11 | X-H torsion

> <Gold.Protein.ActiveResidues>
 VAL166  LYS551  ARG553  GLY616  TRP617  ASP618  TYR619  PRO620  LYS621  CYS622 
 ASP623  PHE694  ASN695  SER759  ASP760  ASP761  ALA762  ILE779  LEU786  VAL792 
 PHE793  MET794  SER795  GLU796  ALA797  LYS798  CYS799  TRP800  GLU811  SER814 

> <Gold.Protein.RotatedAtoms>
  150.6867  134.2794  159.4620 H   0  0  0  0  0  0  0  0  0  0  0  0  # atno 6907 bound_to 6896
  152.0709  134.9531  160.0583 H   0  0  0  0  0  0  0  0  0  0  0  0  # atno 6908 bound_to 6896
  152.0921  133.4171  159.4585 H   0  0  0  0  0  0  0  0  0  0  0  0  # atno 6909 bound_to 6896
  145.0818  140.8431  143.4034 H   0  0  0  0  0  0  0  0  0  0  0  0  # atno 7974 bound_to 7965
  154.4277  140.1809  156.1299 H   0  0  0  0  0  0  0  0  0  0  0  0  # atno 8008 bound_to 7997
  156.0076  140.3354  155.6883 H   0  0  0  0  0  0  0  0  0  0  0  0  # atno 8009 bound_to 7997
  155.6156  140.0654  157.2684 H   0  0  0  0  0  0  0  0  0  0  0  0  # atno 8010 bound_to 7997
  139.4832  144.4728  151.8552 H   0  0  0  0  0  0  0  0  0  0  0  0  # atno 10167 bound_to 10162
  156.9420  131.0004  151.2966 H   0  0  0  0  0  0  0  0  0  0  0  0  # atno 10718 bound_to 10713
  153.5736  135.7007  153.5494 H   0  0  0  0  0  0  0  0  0  0  0  0  # atno 10763 bound_to 10752
  153.3323  135.4044  155.1505 H   0  0  0  0  0  0  0  0  0  0  0  0  # atno 10764 bound_to 10752
  154.8629  135.3722  154.5260 H   0  0  0  0  0  0  0  0  0  0  0  0  # atno 10765 bound_to 10752
  141.0752  133.9313  157.2404 H   0  0  0  0  0  0  0  0  0  0  0  0  # atno 11005 bound_to 11000
  145.1169  139.2719  143.5608 LP  0  0  0  0  0  0  0  0  0  0  0  0  # atno 17320 bound_to 7965
  146.3531  140.0781  142.8619 LP  0  0  0  0  0  0  0  0  0  0  0  0  # atno 17321 bound_to 7965
  140.4198  144.2258  150.5887 LP  0  0  0  0  0  0  0  0  0  0  0  0  # atno 17342 bound_to 10162
  140.4885  143.2355  151.8853 LP  0  0  0  0  0  0  0  0  0  0  0  0  # atno 17343 bound_to 10162
  157.5779  130.8355  149.8481 LP  0  0  0  0  0  0  0  0  0  0  0  0  # atno 17370 bound_to 10713
  156.0400  130.3741  150.1460 LP  0  0  0  0  0  0  0  0  0  0  0  0  # atno 17371 bound_to 10713
  139.9565  135.0164  156.9141 LP  0  0  0  0  0  0  0  0  0  0  0  0  # atno 17394 bound_to 11000
  140.5588  134.0555  155.7392 LP  0  0  0  0  0  0  0  0  0  0  0  0  # atno 17395 bound_to 11000

$$$$
