AV-unprocessed.smi:21|AV-procd|sdf|133|dock1
  -GOLD-   2262015323D 1   1.00000     0.00000
 Structure written by MMmdl.
 62 65  0  0  0  0  0  0  0  0  2 V2000
  143.7619  132.5687  150.2860 C   0  0  0  0  0  0  0  0  0  0  0  0
  144.6768  132.8462  151.3337 O   0  0  0  0  0  0  0  0  0  0  0  0
  144.6677  134.2050  151.7443 C   0  0  1  0  0  0  0  0  0  0  0  0
  145.3650  134.3632  153.0884 C   0  0  0  0  0  0  0  0  0  0  0  0
  145.7487  135.8446  153.0962 C   0  0  1  0  0  0  0  0  0  0  0  0
  146.9095  136.1765  154.0607 C   0  0  0  0  0  0  0  0  0  0  0  0
  147.2452  137.5992  154.1096 N   0  0  0  0  0  0  0  0  0  0  0  0
  146.1666  138.5203  154.4361 C   0  0  0  0  0  0  0  0  0  0  0  0
  148.4185  137.9591  154.6808 C   0  0  0  0  0  0  0  0  0  0  0  0
  149.2229  136.9573  155.1152 N   0  0  0  0  0  0  0  0  0  0  0  0
  150.3775  137.2402  155.7252 C   0  0  0  0  0  0  0  0  0  0  0  0
  150.9051  138.4350  155.9998 N   0  0  0  0  0  0  0  0  0  0  0  0
  150.1076  139.4446  155.5486 C   0  0  0  0  0  0  0  0  0  0  0  0
  148.8612  139.2994  154.8766 C   0  0  0  0  0  0  0  0  0  0  0  0
  148.3435  140.5530  154.5685 N   0  0  0  0  0  0  0  0  0  0  0  0
  149.2243  141.3901  155.0438 C   0  0  0  0  0  0  0  0  0  0  0  0
  150.3054  140.8091  155.6655 N   0  0  0  0  0  0  0  0  0  0  0  0
  151.4088  141.5020  156.3055 C   0  0  0  0  0  0  0  0  0  0  0  0
  151.2875  141.5743  157.8517 C   0  0  1  0  0  0  0  0  0  0  0  0
  151.7787  140.2786  158.5487 C   0  0  0  0  0  0  0  0  0  0  0  0
  153.1309  139.9946  158.2506 O   0  0  0  0  0  0  0  0  0  0  0  0
  152.0423  142.8160  158.3944 C   0  0  1  0  0  0  0  0  0  0  0  0
  151.5391  144.1519  157.8719 C   0  0  0  0  0  0  0  0  0  0  0  0
  152.1038  145.1296  158.8937 C   0  0  0  0  0  0  0  0  0  0  0  0
  152.0460  144.4407  160.1352 O   0  0  0  0  0  0  0  0  0  0  0  0
  151.9143  143.0399  159.9087 C   0  0  0  0  0  0  0  0  0  0  0  0
  146.0975  136.1584  151.6912 N   0  3  2  0  0  0  0  0  0  0  0  0
  145.7776  137.5449  151.2861 C   0  0  0  0  0  0  0  0  0  0  0  0
  145.4842  135.1235  150.8246 C   0  0  0  0  0  0  0  0  0  0  0  0
  143.6451  134.5774  151.8366 H   0  0  0  0  0  0  0  0  0  0  0  0
  144.8554  136.4183  153.3476 H   0  0  0  0  0  0  0  0  0  0  0  0
  143.8125  131.5106  150.0295 H   0  0  0  0  0  0  0  0  0  0  0  0
  143.9940  133.1419  149.3877 H   0  0  0  0  0  0  0  0  0  0  0  0
  142.7375  132.7909  150.5881 H   0  0  0  0  0  0  0  0  0  0  0  0
  144.7295  134.0845  153.9296 H   0  0  0  0  0  0  0  0  0  0  0  0
  146.2601  133.7399  153.1208 H   0  0  0  0  0  0  0  0  0  0  0  0
  146.6404  135.8528  155.0669 H   0  0  0  0  0  0  0  0  0  0  0  0
  147.8007  135.6073  153.7977 H   0  0  0  0  0  0  0  0  0  0  0  0
  146.4337  139.5461  154.1785 H   0  0  0  0  0  0  0  0  0  0  0  0
  145.9375  138.4813  155.5018 H   0  0  0  0  0  0  0  0  0  0  0  0
  145.2625  138.2636  153.8833 H   0  0  0  0  0  0  0  0  0  0  0  0
  150.9579  136.3873  156.0459 H   0  0  0  0  0  0  0  0  0  0  0  0
  149.1025  142.4611  154.9685 H   0  0  0  0  0  0  0  0  0  0  0  0
  152.3403  141.0087  156.0256 H   0  0  0  0  0  0  0  0  0  0  0  0
  151.4506  142.5022  155.8748 H   0  0  0  0  0  0  0  0  0  0  0  0
  150.2332  141.7070  158.1002 H   0  0  0  0  0  0  0  0  0  0  0  0
  151.6487  140.3467  159.6293 H   0  0  0  0  0  0  0  0  0  0  0  0
  151.2074  139.4115  158.2204 H   0  0  0  0  0  0  0  0  0  0  0  0
  153.4542  139.3870  158.8980 H   0  0  0  0  0  0  0  0  0  0  0  0
  153.1017  142.7315  158.1459 H   0  0  0  0  0  0  0  0  0  0  0  0
  151.8765  144.3746  156.8593 H   0  0  0  0  0  0  0  0  0  0  0  0
  150.4484  144.1836  157.8867 H   0  0  0  0  0  0  0  0  0  0  0  0
  153.1460  145.3577  158.6669 H   0  0  0  0  0  0  0  0  0  0  0  0
  151.5497  146.0680  158.9293 H   0  0  0  0  0  0  0  0  0  0  0  0
  150.9323  142.7298  160.2684 H   0  0  0  0  0  0  0  0  0  0  0  0
  152.6673  142.4889  160.4728 H   0  0  0  0  0  0  0  0  0  0  0  0
  144.7041  137.7328  151.3366 H   0  0  0  0  0  0  0  0  0  0  0  0
  146.1098  137.7289  150.2640 H   0  0  0  0  0  0  0  0  0  0  0  0
  146.2807  138.2614  151.9357 H   0  0  0  0  0  0  0  0  0  0  0  0
  146.2942  134.5666  150.3523 H   0  0  0  0  0  0  0  0  0  0  0  0
  144.8681  135.5442  150.0285 H   0  0  0  0  0  0  0  0  0  0  0  0
  147.0973  136.0419  151.6047 H   0  0  0  0  0  0  0  0  0  0  0  0
  1  2  1  0  0  0  0
  1 32  1  0  0  0  0
  1 33  1  0  0  0  0
  1 34  1  0  0  0  0
  2  3  1  0  0  0  0
  3 30  1  0  0  0  0
  3 29  1  0  0  0  0
  3  4  1  0  0  0  0
  4  5  1  0  0  0  0
  4 35  1  0  0  0  0
  4 36  1  0  0  0  0
  5 31  1  0  0  0  0
  5  6  1  0  0  0  0
  5 27  1  0  0  0  0
  6  7  1  0  0  0  0
  6 37  1  0  0  0  0
  6 38  1  0  0  0  0
  7  8  1  0  0  0  0
  7  9  1  0  0  0  0
  8 39  1  0  0  0  0
  8 40  1  0  0  0  0
  8 41  1  0  0  0  0
  9 14  1  0  0  0  0
  9 10  2  0  0  0  0
 10 11  1  0  0  0  0
 11 12  2  0  0  0  0
 11 42  1  0  0  0  0
 12 13  1  0  0  0  0
 13 17  1  0  0  0  0
 13 14  2  0  0  0  0
 14 15  1  0  0  0  0
 15 16  2  0  0  0  0
 16 17  1  0  0  0  0
 16 43  1  0  0  0  0
 17 18  1  0  0  0  0
 18 19  1  0  0  0  0
 18 44  1  0  0  0  0
 18 45  1  0  0  0  0
 19 20  1  0  0  0  0
 19 22  1  0  0  0  0
 19 46  1  0  0  0  0
 20 21  1  0  0  0  0
 20 47  1  0  0  0  0
 20 48  1  0  0  0  0
 21 49  1  0  0  0  0
 22 26  1  0  0  0  0
 22 23  1  0  0  0  0
 22 50  1  0  0  0  0
 23 24  1  0  0  0  0
 23 51  1  0  0  0  0
 23 52  1  0  0  0  0
 24 25  1  0  0  0  0
 24 53  1  0  0  0  0
 24 54  1  0  0  0  0
 25 26  1  0  0  0  0
 26 55  1  0  0  0  0
 26 56  1  0  0  0  0
 27 28  1  0  0  0  0
 27 29  1  0  0  0  0
 27 62  1  0  0  0  0
 28 57  1  0  0  0  0
 28 58  1  0  0  0  0
 28 59  1  0  0  0  0
 29 60  1  0  0  0  0
 29 61  1  0  0  0  0
M  CHG  1  27   1
M  END
> <s_m_source_file>
AV-unprocessed.smi

> <i_m_source_file_index>
21

> <i_lp_mmshare_version>
43012

> <i_f3d_flags>
0

> <s_epik_input>
W0NIM11PW0NASF0xW0NIMl1bQ0BIXShOKFtDSDNdKVtDSDJdMSlbQ0gyXU4oW0NIM10pYyhuW2NIXW4yKWMoYzIzKW5bY0hdbjNbQ0gyXVtDQEhdKFtDSDJdW09IXSlbQ0BASF00W0NIMl1bQ0gyXU9bQ0gyXTQ=

> <s_epik_cmdline>
J2VwaWtfcHl0aG9uJywgJy1waCcsICc3LjAnLCAnLXRuJywgJzgnLCAnLW1hJywgJzIwMCcsICctbWV0YWxfYmluZGluZycsICctaW1hZScsICc8aW5maWxlLm1hZT4nLCAnLW9tYWUnLCAnPG91dGZpbGUubWFlPic=

> <r_lp_tautomer_probability>
1

> <r_epik_Ionization_Penalty>
0.0157465

> <r_epik_Ionization_Penalty_Charging>
0.015354

> <r_epik_Ionization_Penalty_Neutral>
0.000392529

> <r_epik_State_Penalty>
0.0120612

> <r_epik_Charging_Adjusted_Penalty>
0.0274152

> <i_epik_Tot_Q>
1

> <i_epik_Tot_abs_Q>
1

> <r_epik_Metal_State_Penalty>
0.0121253

> <b_epik_Metal_Only>
0

> <s_lp_Force_Field>
OPLS_2005

> <r_lp_Energy>
58.1484

> <b_lp_Chiralities_Consistent>
1

> <s_lp_Variant>
AV-unprocessed.smi:21-13

> <Gold.Version>
5.8.1

> <Gold.Id.Protein>
6NUR|6NUR_protein|mol2

> <Gold.PLP.Fitness>
53.7219

> <Gold.PLP.PLP>
-42.8819

> <Gold.PLP.part.hbond>
-2.0000

> <Gold.PLP.part.metal>
0.0000

> <Gold.PLP.part.buried>
-3.5449

> <Gold.PLP.part.nonpolar>
-39.0350

> <Gold.PLP.part.repulsive>
0.7605

> <Gold.PLP.ligand.clash>
0.0000

> <Gold.PLP.ligand.torsion>
1.1335

> <Gold.PLP.Chemscore.Hbond>
2.9760

> <Gold.PLP.Chemscore.CHOScore>
1.0000

> <Gold.PLP.Chemscore.Metal>
0.0000

> <Gold.Chemscore.Hbonds>
donor molecule, donor type, donor heavy atom, donor atom, acceptor molecule, acceptor atom, score
      L1  H    27    62       P1  7948  2.00
      P1  H  7997  8010       L1    21  0.80
      L1  C    16    43       P1  8028  1.00

> <Gold.PLP.Chemscore.Internal.Correction>
1.1790

> <Gold.Rescore>
     Score         DG    S(hbond)    S(metal)    S(lipo)     H(rot)  DE(clash)    DE(int)     intcor
     12.68     -14.92       1.93        0.00      98.68       3.35       0.06       2.17       ----

> <Gold.Chemscore.Fitness>
12.6816

> <Gold.Chemscore.DG>
-14.9167

> <Gold.Chemscore.ZeroCoef>
-5.4800

> <Gold.Chemscore.Hbond>
1.9325

> <Gold.Chemscore.Metal>
0.0000

> <Gold.Chemscore.Lipo>
98.6836

> <Gold.Chemscore.Internal_Hbond>
0.0000

> <Gold.Chemscore.DEClash>
0.0635

> <Gold.Chemscore.DEInternal>
2.1717

> <Gold.Chemscore.Rot>
3.3452

> <Gold.Chemscore.Internal.Correction>
   9.000000E+99

> <Gold.Chemscore.Hbonds>
donor molecule, donor type, donor heavy atom, donor atom, acceptor molecule, acceptor atom, score
      L1  H    27    62       P1  7948  1.00
      P1  H  7997  8010       L1    21  0.13

> <Gold.Chemscore.Hbond.Weighted>
-6.4544

> <Gold.Chemscore.Metal.Weighted>
-0.0000

> <Gold.Chemscore.Lipo.Weighted>
-11.5460

> <Gold.Chemscore.Internal_Hbond.Weighted>
0.0000

> <Gold.Chemscore.DEClash.Weighted>
0.0635

> <Gold.Chemscore.DEInternal.Weighted>
2.1717

> <Gold.Chemscore.Rot.Weighted>
8.5636

> <Gold.Chemscore.Internal.Correction.Weighted>
   9.000000E+99

> <Gold.Protein.RotatedTorsions>
[ 6907 6896 6895 6894 ] final   29.16 input  -60.11 | X-H torsion
[ 7974 7965 7964 7962 ] final  -11.55 input  175.53 | X-H torsion
[ 8008 7997 7996 7995 ] final   21.62 input   59.86 | X-H torsion
[ 10167 10162 10161 10158 ] final  -30.20 input  -65.29 | X-H torsion
[ 10718 10713 10712 10709 ] final   55.18 input   66.30 | X-H torsion
[ 10763 10752 10751 10750 ] final  -77.20 input  -60.55 | X-H torsion
[ 11005 11000 10999 10996 ] final   42.75 input  -57.11 | X-H torsion

> <Gold.Protein.ActiveResidues>
 VAL166  LYS551  ARG553  GLY616  TRP617  ASP618  TYR619  PRO620  LYS621  CYS622 
 ASP623  PHE694  ASN695  SER759  ASP760  ASP761  ALA762  ILE779  LEU786  VAL792 
 PHE793  MET794  SER795  GLU796  ALA797  LYS798  CYS799  TRP800  GLU811  SER814 

> <Gold.Protein.RotatedAtoms>
  152.0274  134.9787  160.0571 H   0  0  0  0  0  0  0  0  0  0  0  0  # atno 6907 bound_to 6896
  152.1278  133.4385  159.4714 H   0  0  0  0  0  0  0  0  0  0  0  0  # atno 6908 bound_to 6896
  150.6854  134.2376  159.4503 H   0  0  0  0  0  0  0  0  0  0  0  0  # atno 6909 bound_to 6896
  146.2183  140.2928  142.8369 H   0  0  0  0  0  0  0  0  0  0  0  0  # atno 7974 bound_to 7965
  154.9533  140.3068  155.5065 H   0  0  0  0  0  0  0  0  0  0  0  0  # atno 8008 bound_to 7997
  156.2985  140.2315  156.4550 H   0  0  0  0  0  0  0  0  0  0  0  0  # atno 8009 bound_to 7997
  154.8034  140.0432  157.1278 H   0  0  0  0  0  0  0  0  0  0  0  0  # atno 8010 bound_to 7997
  140.7252  143.3868  151.1501 H   0  0  0  0  0  0  0  0  0  0  0  0  # atno 10167 bound_to 10162
  157.5322  130.8638  149.8704 H   0  0  0  0  0  0  0  0  0  0  0  0  # atno 10718 bound_to 10713
  154.5099  135.5772  153.6596 H   0  0  0  0  0  0  0  0  0  0  0  0  # atno 10763 bound_to 10752
  152.9895  135.6156  154.2893 H   0  0  0  0  0  0  0  0  0  0  0  0  # atno 10764 bound_to 10752
  154.2806  135.2851  155.2678 H   0  0  0  0  0  0  0  0  0  0  0  0  # atno 10765 bound_to 10752
  140.1710  134.4222  155.8257 H   0  0  0  0  0  0  0  0  0  0  0  0  # atno 11005 bound_to 11000
  144.9114  140.7762  143.5805 LP  0  0  0  0  0  0  0  0  0  0  0  0  # atno 17320 bound_to 7965
  145.2859  139.1901  143.4766 LP  0  0  0  0  0  0  0  0  0  0  0  0  # atno 17321 bound_to 7965
  139.7466  143.8842  152.3065 LP  0  0  0  0  0  0  0  0  0  0  0  0  # atno 17342 bound_to 10162
  139.8682  144.7082  150.9019 LP  0  0  0  0  0  0  0  0  0  0  0  0  # atno 17343 bound_to 10162
  156.0431  130.3734  150.1384 LP  0  0  0  0  0  0  0  0  0  0  0  0  # atno 17370 bound_to 10713
  156.9569  130.9792  151.3487 LP  0  0  0  0  0  0  0  0  0  0  0  0  # atno 17371 bound_to 10713
  141.2217  133.6956  156.7763 LP  0  0  0  0  0  0  0  0  0  0  0  0  # atno 17394 bound_to 11000
  140.2378  134.8637  157.3542 LP  0  0  0  0  0  0  0  0  0  0  0  0  # atno 17395 bound_to 11000

$$$$
