AV-unprocessed.smi:282|AV-procd|sdf|2119|dock6
  -GOLD-   2262021413D 1   1.00000     0.00000
 Structure written by MMmdl.
 65 69  0  0  0  0  0  0  0  0  2 V2000
  141.3134  135.4973  153.2153 C   0  0  0  0  0  0  0  0  0  0  0  0
  142.7760  135.6567  153.6525 C   0  0  0  0  0  0  0  0  0  0  0  0
  143.8140  135.3222  152.5479 C   0  0  2  0  0  0  0  0  0  0  0  0
  143.5722  133.9043  151.9785 C   0  0  0  0  0  0  0  0  0  0  0  0
  144.6036  133.5103  150.9838 N   0  3  2  0  0  0  0  0  0  0  0  0
  144.3591  132.1789  150.3692 C   0  0  0  0  0  0  0  0  0  0  0  0
  144.7080  131.0230  151.3272 C   0  0  0  0  0  0  0  0  0  0  0  0
  146.1459  131.1517  151.8498 C   0  0  0  0  0  0  0  0  0  0  0  0
  146.3682  132.5358  152.4767 C   0  0  0  0  0  0  0  0  0  0  0  0
  145.9991  133.6572  151.4809 C   0  0  2  0  0  0  0  0  0  0  0  0
  146.2255  135.0657  152.0541 C   0  0  0  0  0  0  0  0  0  0  0  0
  145.1991  135.4305  153.0266 N   0  0  0  0  0  0  0  0  0  0  0  0
  145.5156  136.5867  153.6520 C   0  0  0  0  0  0  0  0  0  0  0  0
  144.7096  137.6735  153.5245 N   0  0  0  0  0  0  0  0  0  0  0  0
  145.0228  138.8095  154.1562 C   0  0  0  0  0  0  0  0  0  0  0  0
  146.0692  139.0655  154.9456 N   0  0  0  0  0  0  0  0  0  0  0  0
  146.8761  137.9726  155.0728 C   0  0  0  0  0  0  0  0  0  0  0  0
  146.6718  136.7036  154.4649 C   0  0  0  0  0  0  0  0  0  0  0  0
  147.6859  135.8279  154.8268 N   0  0  0  0  0  0  0  0  0  0  0  0
  148.4477  136.5395  155.6121 C   0  0  0  0  0  0  0  0  0  0  0  0
  148.0463  137.8440  155.8019 N   0  0  0  0  0  0  0  0  0  0  0  0
  148.7018  138.8469  156.6294 C   0  0  0  0  0  0  0  0  0  0  0  0
  149.3890  140.0096  155.8455 C   0  0  0  0  0  0  0  0  0  0  0  0
  148.2824  140.9194  155.2425 C   0  0  0  0  0  0  0  0  0  0  0  0
  148.7931  142.0468  154.5582 O   0  0  0  0  0  0  0  0  0  0  0  0
  150.2758  140.8211  156.8251 C   0  0  0  0  0  0  0  0  0  0  0  0
  151.5400  140.0533  157.2588 C   0  0  0  0  0  0  0  0  0  0  0  0
  152.2837  139.6444  156.1171 O   0  0  0  0  0  0  0  0  0  0  0  0
  151.5585  138.7672  155.2641 C   0  0  0  0  0  0  0  0  0  0  0  0
  150.3127  139.4853  154.7154 C   0  0  0  0  0  0  0  0  0  0  0  0
  140.6403  135.8545  153.9949 H   0  0  0  0  0  0  0  0  0  0  0  0
  141.0573  134.4558  153.0225 H   0  0  0  0  0  0  0  0  0  0  0  0
  141.1074  136.0719  152.3119 H   0  0  0  0  0  0  0  0  0  0  0  0
  142.8922  136.6903  153.9791 H   0  0  0  0  0  0  0  0  0  0  0  0
  142.9611  135.0406  154.5335 H   0  0  0  0  0  0  0  0  0  0  0  0
  143.6933  136.0397  151.7347 H   0  0  0  0  0  0  0  0  0  0  0  0
  143.5480  133.1832  152.7957 H   0  0  0  0  0  0  0  0  0  0  0  0
  142.5988  133.8570  151.4906 H   0  0  0  0  0  0  0  0  0  0  0  0
  143.3223  132.1033  150.0403 H   0  0  0  0  0  0  0  0  0  0  0  0
  144.9709  132.1000  149.4698 H   0  0  0  0  0  0  0  0  0  0  0  0
  144.0118  131.0055  152.1663 H   0  0  0  0  0  0  0  0  0  0  0  0
  144.5860  130.0686  150.8139 H   0  0  0  0  0  0  0  0  0  0  0  0
  146.3527  130.3691  152.5804 H   0  0  0  0  0  0  0  0  0  0  0  0
  146.8484  131.0041  151.0285 H   0  0  0  0  0  0  0  0  0  0  0  0
  145.7783  132.6255  153.3896 H   0  0  0  0  0  0  0  0  0  0  0  0
  147.4113  132.6352  152.7789 H   0  0  0  0  0  0  0  0  0  0  0  0
  146.6590  133.5531  150.6180 H   0  0  0  0  0  0  0  0  0  0  0  0
  147.2155  135.1277  152.5094 H   0  0  0  0  0  0  0  0  0  0  0  0
  146.2110  135.7893  151.2376 H   0  0  0  0  0  0  0  0  0  0  0  0
  144.3358  139.6301  154.0104 H   0  0  0  0  0  0  0  0  0  0  0  0
  149.3336  136.1295  156.0748 H   0  0  0  0  0  0  0  0  0  0  0  0
  147.9556  139.2554  157.3125 H   0  0  0  0  0  0  0  0  0  0  0  0
  149.4115  138.3203  157.2651 H   0  0  0  0  0  0  0  0  0  0  0  0
  147.6683  140.3644  154.5335 H   0  0  0  0  0  0  0  0  0  0  0  0
  147.6146  141.2757  156.0274 H   0  0  0  0  0  0  0  0  0  0  0  0
  148.7055  142.8036  155.1178 H   0  0  0  0  0  0  0  0  0  0  0  0
  150.6058  141.7478  156.3550 H   0  0  0  0  0  0  0  0  0  0  0  0
  149.7011  141.1194  157.7026 H   0  0  0  0  0  0  0  0  0  0  0  0
  152.1718  140.6996  157.8682 H   0  0  0  0  0  0  0  0  0  0  0  0
  151.2981  139.1893  157.8777 H   0  0  0  0  0  0  0  0  0  0  0  0
  152.2070  138.4710  154.4396 H   0  0  0  0  0  0  0  0  0  0  0  0
  151.2960  137.8534  155.7975 H   0  0  0  0  0  0  0  0  0  0  0  0
  149.7701  138.8362  154.0294 H   0  0  0  0  0  0  0  0  0  0  0  0
  150.6616  140.3202  154.1068 H   0  0  0  0  0  0  0  0  0  0  0  0
  144.5095  134.1810  150.2342 H   0  0  0  0  0  0  0  0  0  0  0  0
  1  2  1  0  0  0  0
  1 31  1  0  0  0  0
  1 32  1  0  0  0  0
  1 33  1  0  0  0  0
  2  3  1  0  0  0  0
  2 34  1  0  0  0  0
  2 35  1  0  0  0  0
  3 12  1  0  0  0  0
  3  4  1  0  0  0  0
  3 36  1  0  0  0  0
  4  5  1  0  0  0  0
  4 37  1  0  0  0  0
  4 38  1  0  0  0  0
  5 10  1  0  0  0  0
  5  6  1  0  0  0  0
  5 65  1  0  0  0  0
  6  7  1  0  0  0  0
  6 39  1  0  0  0  0
  6 40  1  0  0  0  0
  7  8  1  0  0  0  0
  7 41  1  0  0  0  0
  7 42  1  0  0  0  0
  8  9  1  0  0  0  0
  8 43  1  0  0  0  0
  8 44  1  0  0  0  0
  9 10  1  0  0  0  0
  9 45  1  0  0  0  0
  9 46  1  0  0  0  0
 10 11  1  0  0  0  0
 10 47  1  0  0  0  0
 11 12  1  0  0  0  0
 11 48  1  0  0  0  0
 11 49  1  0  0  0  0
 12 13  1  0  0  0  0
 13 18  1  0  0  0  0
 13 14  2  0  0  0  0
 14 15  1  0  0  0  0
 15 16  2  0  0  0  0
 15 50  1  0  0  0  0
 16 17  1  0  0  0  0
 17 21  1  0  0  0  0
 17 18  2  0  0  0  0
 18 19  1  0  0  0  0
 19 20  2  0  0  0  0
 20 21  1  0  0  0  0
 20 51  1  0  0  0  0
 21 22  1  0  0  0  0
 22 23  1  0  0  0  0
 22 52  1  0  0  0  0
 22 53  1  0  0  0  0
 23 30  1  0  0  0  0
 23 24  1  0  0  0  0
 23 26  1  0  0  0  0
 24 25  1  0  0  0  0
 24 54  1  0  0  0  0
 24 55  1  0  0  0  0
 25 56  1  0  0  0  0
 26 27  1  0  0  0  0
 26 57  1  0  0  0  0
 26 58  1  0  0  0  0
 27 28  1  0  0  0  0
 27 59  1  0  0  0  0
 27 60  1  0  0  0  0
 28 29  1  0  0  0  0
 29 30  1  0  0  0  0
 29 61  1  0  0  0  0
 29 62  1  0  0  0  0
 30 63  1  0  0  0  0
 30 64  1  0  0  0  0
M  CHG  1   5   1
M  END
> <s_m_source_file>
AV-unprocessed.smi

> <i_m_source_file_index>
282

> <i_lp_mmshare_version>
43012

> <i_f3d_flags>
0

> <s_epik_input>
W0NIMl0xW0NIMl1bQ0gyXVtDSDJdW0NAQEhdKE4xMilbQ0gyXU4oW0NAQEhdKFtDSDJdMilbQ0gyXVtDSDNdKWMobltjSF1uMyljKGMzNCluW2NIXW40W0NIMl1DNShbQ0gyXVtPSF0pW0NIMl1bQ0gyXU9bQ0gyXVtDSDJdNQ==

> <s_epik_cmdline>
J2VwaWtfcHl0aG9uJywgJy1waCcsICc3LjAnLCAnLXRuJywgJzgnLCAnLW1hJywgJzIwMCcsICctbWV0YWxfYmluZGluZycsICctaW1hZScsICc8aW5maWxlLm1hZT4nLCAnLW9tYWUnLCAnPG91dGZpbGUubWFlPic=

> <r_lp_tautomer_probability>
1

> <r_epik_Ionization_Penalty>
0.00308583

> <r_epik_Ionization_Penalty_Charging>
0.00300384

> <r_epik_Ionization_Penalty_Neutral>
8.19894e-05

> <r_epik_State_Penalty>
-0

> <r_epik_Charging_Adjusted_Penalty>
0.00300384

> <i_epik_Tot_Q>
1

> <i_epik_Tot_abs_Q>
1

> <r_epik_Metal_State_Penalty>
-0

> <b_epik_Metal_Only>
0

> <s_lp_Force_Field>
OPLS_2005

> <r_lp_Energy>
60.5871

> <b_lp_Chiralities_Consistent>
1

> <s_lp_Variant>
AV-unprocessed.smi:282-3

> <Gold.Version>
5.8.1

> <Gold.Id.Protein>
6NUR|6NUR_protein|mol2

> <Gold.PLP.Fitness>
45.4727

> <Gold.PLP.PLP>
-36.7454

> <Gold.PLP.part.hbond>
-3.0000

> <Gold.PLP.part.metal>
0.0000

> <Gold.PLP.part.buried>
-1.8529

> <Gold.PLP.part.nonpolar>
-32.4932

> <Gold.PLP.part.repulsive>
1.2340

> <Gold.PLP.ligand.clash>
0.0000

> <Gold.PLP.ligand.torsion>
0.4327

> <Gold.PLP.Chemscore.Hbond>
2.1180

> <Gold.PLP.Chemscore.CHOScore>
1.0000

> <Gold.PLP.Chemscore.Metal>
0.0000

> <Gold.Chemscore.Hbonds>
donor molecule, donor type, donor heavy atom, donor atom, acceptor molecule, acceptor atom, score
      L1  H    25    56       P1  8028  1.00
      P1  H  7997  8008       L1    28  0.68
      L1  C    15    50       P1 10175  0.57

> <Gold.PLP.Chemscore.Internal.Correction>
0.2386

> <Gold.Rescore>
     Score         DG    S(hbond)    S(metal)    S(lipo)     H(rot)  DE(clash)    DE(int)     intcor
     11.41     -16.48       1.91        0.00      93.16       2.46       1.65       3.41       ----

> <Gold.Chemscore.Fitness>
11.4136

> <Gold.Chemscore.DG>
-16.4828

> <Gold.Chemscore.ZeroCoef>
-5.4800

> <Gold.Chemscore.Hbond>
1.9145

> <Gold.Chemscore.Metal>
0.0000

> <Gold.Chemscore.Lipo>
93.1618

> <Gold.Chemscore.Internal_Hbond>
0.0000

> <Gold.Chemscore.DEClash>
1.6542

> <Gold.Chemscore.DEInternal>
3.4150

> <Gold.Chemscore.Rot>
2.4576

> <Gold.Chemscore.Internal.Correction>
   9.000000E+99

> <Gold.Chemscore.Hbonds>
donor molecule, donor type, donor heavy atom, donor atom, acceptor molecule, acceptor atom, score
      L1  H    25    56       P1  8028  0.96
      P1  H  7997  8008       L1    28  0.64
      P1  H  8011  8017       L1    25  0.01

> <Gold.Chemscore.Hbond.Weighted>
-6.3944

> <Gold.Chemscore.Metal.Weighted>
-0.0000

> <Gold.Chemscore.Lipo.Weighted>
-10.8999

> <Gold.Chemscore.Internal_Hbond.Weighted>
0.0000

> <Gold.Chemscore.DEClash.Weighted>
1.6542

> <Gold.Chemscore.DEInternal.Weighted>
3.4150

> <Gold.Chemscore.Rot.Weighted>
6.2915

> <Gold.Chemscore.Internal.Correction.Weighted>
   9.000000E+99

> <Gold.Protein.RotatedTorsions>
[ 6907 6896 6895 6894 ] final  -37.85 input  -60.11 | X-H torsion
[ 7974 7965 7964 7962 ] final -151.06 input  175.53 | X-H torsion
[ 8008 7997 7996 7995 ] final  -26.32 input   59.86 | X-H torsion
[ 10167 10162 10161 10158 ] final   10.36 input  -65.29 | X-H torsion
[ 10718 10713 10712 10709 ] final -179.83 input   66.30 | X-H torsion
[ 10763 10752 10751 10750 ] final   43.69 input  -60.55 | X-H torsion
[ 11005 11000 10999 10996 ] final  173.54 input  -57.11 | X-H torsion

> <Gold.Protein.ActiveResidues>
 VAL166  LYS551  ARG553  GLY616  TRP617  ASP618  TYR619  PRO620  LYS621  CYS622 
 ASP623  PHE694  ASN695  SER759  ASP760  ASP761  ALA762  ILE779  LEU786  VAL792 
 PHE793  MET794  SER795  GLU796  ALA797  LYS798  CYS799  TRP800  GLU811  SER814 

> <Gold.Protein.RotatedAtoms>
  151.0097  134.9387  159.7999 H   0  0  0  0  0  0  0  0  0  0  0  0  # atno 6907 bound_to 6896
  152.5299  134.3045  159.9101 H   0  0  0  0  0  0  0  0  0  0  0  0  # atno 6908 bound_to 6896
  151.3051  133.4063  159.2677 H   0  0  0  0  0  0  0  0  0  0  0  0  # atno 6909 bound_to 6896
  144.7871  140.4848  143.5798 H   0  0  0  0  0  0  0  0  0  0  0  0  # atno 7974 bound_to 7965
  154.4431  140.1902  156.0757 H   0  0  0  0  0  0  0  0  0  0  0  0  # atno 8008 bound_to 7997
  156.0477  140.3312  155.7289 H   0  0  0  0  0  0  0  0  0  0  0  0  # atno 8009 bound_to 7997
  155.5604  140.0603  157.2821 H   0  0  0  0  0  0  0  0  0  0  0  0  # atno 8010 bound_to 7997
  140.6199  143.8228  150.7162 H   0  0  0  0  0  0  0  0  0  0  0  0  # atno 10167 bound_to 10162
  156.8650  130.9764  151.3079 H   0  0  0  0  0  0  0  0  0  0  0  0  # atno 10718 bound_to 10713
  152.9855  135.6093  154.3153 H   0  0  0  0  0  0  0  0  0  0  0  0  # atno 10763 bound_to 10752
  154.2866  135.2776  155.2675 H   0  0  0  0  0  0  0  0  0  0  0  0  # atno 10764 bound_to 10752
  154.4990  135.5872  153.6573 H   0  0  0  0  0  0  0  0  0  0  0  0  # atno 10765 bound_to 10752
  140.3416  134.7271  157.4206 H   0  0  0  0  0  0  0  0  0  0  0  0  # atno 11005 bound_to 11000
  145.5892  139.1494  143.3192 LP  0  0  0  0  0  0  0  0  0  0  0  0  # atno 17320 bound_to 7965
  146.2108  140.6018  142.9060 LP  0  0  0  0  0  0  0  0  0  0  0  0  # atno 17321 bound_to 7965
  140.1815  143.4110  152.1929 LP  0  0  0  0  0  0  0  0  0  0  0  0  # atno 17342 bound_to 10162
  139.5429  144.7273  151.4675 LP  0  0  0  0  0  0  0  0  0  0  0  0  # atno 17343 bound_to 10162
  157.6229  130.8669  149.9139 LP  0  0  0  0  0  0  0  0  0  0  0  0  # atno 17370 bound_to 10713
  156.0757  130.3679  150.0683 LP  0  0  0  0  0  0  0  0  0  0  0  0  # atno 17371 bound_to 10713
  140.0776  134.5776  155.8574 LP  0  0  0  0  0  0  0  0  0  0  0  0  # atno 17394 bound_to 11000
  141.2037  133.6633  156.6077 LP  0  0  0  0  0  0  0  0  0  0  0  0  # atno 17395 bound_to 11000

$$$$
