AV-unprocessed.smi:2451|AV-procd|sdf|9669|dock10
  -GOLD-   2272013303D 1   1.00000     0.00000
 Structure written by MMmdl.
 38 39  0  0  0  0  0  0  0  0  1 V2000
  152.5302  144.4256  159.2973 C   0  0  0  0  0  0  0  0  0  0  0  0
  152.2549  143.0870  158.5891 C   0  0  2  0  0  0  0  0  0  0  0  0
  151.0347  143.2277  157.6567 C   0  0  0  0  0  0  0  0  0  0  0  0
  150.7409  141.9286  156.8949 C   0  0  0  0  0  0  0  0  0  0  0  0
  150.5287  140.7507  157.8571 C   0  0  0  0  0  0  0  0  0  0  0  0
  151.7016  140.5909  158.8408 C   0  0  1  0  0  0  0  0  0  0  0  0
  152.8702  140.0402  158.1422 N   0  0  0  0  0  0  0  0  0  0  0  0
  153.0747  138.3291  158.0807 S   0  0  0  0  0  0  0  0  0  0  0  0
  154.2238  137.9908  158.9341 O   0  0  0  0  0  0  0  0  0  0  0  0
  151.7633  137.7138  158.3371 O   0  0  0  0  0  0  0  0  0  0  0  0
  153.5239  138.0421  156.3173 C   0  0  0  0  0  0  0  0  0  0  0  0
  152.4040  138.5072  155.4304 C   0  0  0  0  0  0  0  0  0  0  0  0
  151.6240  137.7459  154.5163 C   0  0  0  0  0  0  0  0  0  0  0  0
  150.7649  138.6653  153.9872 C   0  0  0  0  0  0  0  0  0  0  0  0
  150.9869  139.8894  154.5286 O   0  0  0  0  0  0  0  0  0  0  0  0
  152.0343  139.7782  155.4501 N   0  0  0  0  0  0  0  0  0  0  0  0
  152.0520  141.9080  159.5790 C   0  0  1  0  0  0  0  0  0  0  0  0
  153.2220  141.7106  160.5633 C   0  0  0  0  0  0  0  0  0  0  0  0
  151.7299  144.6795  159.9929 H   0  0  0  0  0  0  0  0  0  0  0  0
  152.6123  145.2396  158.5764 H   0  0  0  0  0  0  0  0  0  0  0  0
  153.4662  144.4027  159.8548 H   0  0  0  0  0  0  0  0  0  0  0  0
  153.1241  142.8651  157.9682 H   0  0  0  0  0  0  0  0  0  0  0  0
  150.1568  143.5138  158.2378 H   0  0  0  0  0  0  0  0  0  0  0  0
  151.2037  144.0325  156.9404 H   0  0  0  0  0  0  0  0  0  0  0  0
  149.8584  142.0570  156.2677 H   0  0  0  0  0  0  0  0  0  0  0  0
  151.5676  141.7068  156.2190 H   0  0  0  0  0  0  0  0  0  0  0  0
  149.6119  140.9199  158.4232 H   0  0  0  0  0  0  0  0  0  0  0  0
  150.3721  139.8283  157.2963 H   0  0  0  0  0  0  0  0  0  0  0  0
  151.3948  139.8639  159.5944 H   0  0  0  0  0  0  0  0  0  0  0  0
  153.7272  140.5046  158.4418 H   0  0  0  0  0  0  0  0  0  0  0  0
  154.4458  138.5826  156.1030 H   0  0  0  0  0  0  0  0  0  0  0  0
  153.7223  136.9784  156.1829 H   0  0  0  0  0  0  0  0  0  0  0  0
  151.6894  136.6937  154.2822 H   0  0  0  0  0  0  0  0  0  0  0  0
  149.9760  138.6075  153.2519 H   0  0  0  0  0  0  0  0  0  0  0  0
  151.1814  142.1560  160.1887 H   0  0  0  0  0  0  0  0  0  0  0  0
  154.1696  141.5784  160.0404 H   0  0  0  0  0  0  0  0  0  0  0  0
  153.0623  140.8310  161.1876 H   0  0  0  0  0  0  0  0  0  0  0  0
  153.3296  142.5603  161.2367 H   0  0  0  0  0  0  0  0  0  0  0  0
  1  2  1  0  0  0  0
  1 19  1  0  0  0  0
  1 20  1  0  0  0  0
  1 21  1  0  0  0  0
  2 17  1  0  0  0  0
  2  3  1  0  0  0  0
  2 22  1  0  0  0  0
  3  4  1  0  0  0  0
  3 23  1  0  0  0  0
  3 24  1  0  0  0  0
  4  5  1  0  0  0  0
  4 25  1  0  0  0  0
  4 26  1  0  0  0  0
  5  6  1  0  0  0  0
  5 27  1  0  0  0  0
  5 28  1  0  0  0  0
  6  7  1  0  0  0  0
  6 17  1  0  0  0  0
  6 29  1  0  0  0  0
  7  8  1  0  0  0  0
  7 30  1  0  0  0  0
  8  9  2  0  0  0  0
  8 10  2  0  0  0  0
  8 11  1  0  0  0  0
 11 12  1  0  0  0  0
 11 31  1  0  0  0  0
 11 32  1  0  0  0  0
 12 16  2  0  0  0  0
 12 13  1  0  0  0  0
 13 14  2  0  0  0  0
 13 33  1  0  0  0  0
 14 15  1  0  0  0  0
 14 34  1  0  0  0  0
 15 16  1  0  0  0  0
 17 18  1  0  0  0  0
 17 35  1  0  0  0  0
 18 36  1  0  0  0  0
 18 37  1  0  0  0  0
 18 38  1  0  0  0  0
M  END
> <s_m_source_file>
AV-unprocessed.smi

> <i_m_source_file_index>
2451

> <i_lp_mmshare_version>
43012

> <i_f3d_flags>
0

> <s_epik_input>
W0NIM11bQ0BASF0xW0NIMl1bQ0gyXVtDSDJdW0NASF0oW0NASF0xW0NIM10pW05IXVMoPU8pKD1PKVtDSDJdYzJbY0hdW2NIXW9uMg==

> <s_epik_cmdline>
J2VwaWtfcHl0aG9uJywgJy1waCcsICc3LjAnLCAnLXRuJywgJzgnLCAnLW1hJywgJzIwMCcsICctbWV0YWxfYmluZGluZycsICctaW1hZScsICc8aW5maWxlLm1hZT4nLCAnLW9tYWUnLCAnPG91dGZpbGUubWFlPic=

> <r_lp_tautomer_probability>
1

> <r_epik_Ionization_Penalty>
8.73668e-05

> <r_epik_Ionization_Penalty_Charging>
0

> <r_epik_Ionization_Penalty_Neutral>
8.73668e-05

> <r_epik_State_Penalty>
-0

> <r_epik_Charging_Adjusted_Penalty>
0

> <i_epik_Tot_Q>
0

> <i_epik_Tot_abs_Q>
0

> <r_epik_Metal_State_Penalty>
0.0716439

> <b_epik_Metal_Only>
0

> <s_lp_Force_Field>
OPLS_2005

> <r_lp_Energy>
9.22722

> <b_lp_Chiralities_Consistent>
1

> <s_lp_Variant>
AV-unprocessed.smi:2451-1

> <Gold.Version>
5.8.1

> <Gold.Id.Protein>
6NUR|6NUR_protein|mol2

> <Gold.PLP.Fitness>
39.8425

> <Gold.PLP.PLP>
-35.0362

> <Gold.PLP.part.hbond>
-2.7534

> <Gold.PLP.part.metal>
0.0000

> <Gold.PLP.part.buried>
-3.8544

> <Gold.PLP.part.nonpolar>
-29.5981

> <Gold.PLP.part.repulsive>
0.0932

> <Gold.PLP.ligand.clash>
0.0000

> <Gold.PLP.ligand.torsion>
0.7605

> <Gold.PLP.Chemscore.Hbond>
1.0000

> <Gold.PLP.Chemscore.CHOScore>
1.0610

> <Gold.PLP.Chemscore.Metal>
0.0000

> <Gold.Chemscore.Hbonds>
donor molecule, donor type, donor heavy atom, donor atom, acceptor molecule, acceptor atom, score
      P1  H  7989  7998       L1    15  1.00
      L1  C    14    34       P1  7948  0.10
      L1  C    14    34       P1  7957  0.94

> <Gold.PLP.Chemscore.Internal.Correction>
0.1443

> <Gold.Rescore>
     Score         DG    S(hbond)    S(metal)    S(lipo)     H(rot)  DE(clash)    DE(int)     intcor
     14.06     -16.55       0.99        0.00     102.77       1.66       0.14       2.35       ----

> <Gold.Chemscore.Fitness>
14.0637

> <Gold.Chemscore.DG>
-16.5516

> <Gold.Chemscore.ZeroCoef>
-5.4800

> <Gold.Chemscore.Hbond>
0.9862

> <Gold.Chemscore.Metal>
0.0000

> <Gold.Chemscore.Lipo>
102.7709

> <Gold.Chemscore.Internal_Hbond>
0.0000

> <Gold.Chemscore.DEClash>
0.1403

> <Gold.Chemscore.DEInternal>
2.3476

> <Gold.Chemscore.Rot>
1.6588

> <Gold.Chemscore.Internal.Correction>
   9.000000E+99

> <Gold.Chemscore.Hbonds>
donor molecule, donor type, donor heavy atom, donor atom, acceptor molecule, acceptor atom, score
      P1  H  7989  7998       L1    15  0.19

> <Gold.Chemscore.Hbond.Weighted>
-3.2940

> <Gold.Chemscore.Metal.Weighted>
-0.0000

> <Gold.Chemscore.Lipo.Weighted>
-12.0242

> <Gold.Chemscore.Internal_Hbond.Weighted>
0.0000

> <Gold.Chemscore.DEClash.Weighted>
0.1403

> <Gold.Chemscore.DEInternal.Weighted>
2.3476

> <Gold.Chemscore.Rot.Weighted>
4.2466

> <Gold.Chemscore.Internal.Correction.Weighted>
   9.000000E+99

> <Gold.Protein.RotatedTorsions>
[ 6907 6896 6895 6894 ] final  -85.08 input  -60.11 | X-H torsion
[ 7974 7965 7964 7962 ] final   10.76 input  175.53 | X-H torsion
[ 8008 7997 7996 7995 ] final  -64.63 input   59.86 | X-H torsion
[ 10167 10162 10161 10158 ] final   34.00 input  -65.29 | X-H torsion
[ 10718 10713 10712 10709 ] final   85.47 input   66.30 | X-H torsion
[ 10763 10752 10751 10750 ] final -123.13 input  -60.55 | X-H torsion
[ 11005 11000 10999 10996 ] final  171.36 input  -57.11 | X-H torsion

> <Gold.Protein.ActiveResidues>
 VAL166  LYS551  ARG553  GLY616  TRP617  ASP618  TYR619  PRO620  LYS621  CYS622 
 ASP623  PHE694  ASN695  SER759  ASP760  ASP761  ALA762  ILE779  LEU786  VAL792 
 PHE793  MET794  SER795  GLU796  ALA797  LYS798  CYS799  TRP800  GLU811  SER814 

> <Gold.Protein.RotatedAtoms>
  150.6872  134.3260  159.4806 H   0  0  0  0  0  0  0  0  0  0  0  0  # atno 6907 bound_to 6896
  152.1130  134.9258  160.0575 H   0  0  0  0  0  0  0  0  0  0  0  0  # atno 6908 bound_to 6896
  152.0493  133.3977  159.4407 H   0  0  0  0  0  0  0  0  0  0  0  0  # atno 6909 bound_to 6896
  146.2383  139.9586  142.8461 H   0  0  0  0  0  0  0  0  0  0  0  0  # atno 7974 bound_to 7965
  154.4623  140.0950  156.6926 H   0  0  0  0  0  0  0  0  0  0  0  0  # atno 8008 bound_to 7997
  155.4958  140.3472  155.4344 H   0  0  0  0  0  0  0  0  0  0  0  0  # atno 8009 bound_to 7997
  156.0893  140.1393  156.9601 H   0  0  0  0  0  0  0  0  0  0  0  0  # atno 8010 bound_to 7997
  140.4355  144.1263  150.6165 H   0  0  0  0  0  0  0  0  0  0  0  0  # atno 10167 bound_to 10162
  157.6915  131.0176  150.2827 H   0  0  0  0  0  0  0  0  0  0  0  0  # atno 10718 bound_to 10713
  154.8702  135.4109  154.2893 H   0  0  0  0  0  0  0  0  0  0  0  0  # atno 10763 bound_to 10752
  153.3772  135.7010  153.6598 H   0  0  0  0  0  0  0  0  0  0  0  0  # atno 10764 bound_to 10752
  153.5436  135.3643  155.2701 H   0  0  0  0  0  0  0  0  0  0  0  0  # atno 10765 bound_to 10752
  140.3182  134.7459  157.4044 H   0  0  0  0  0  0  0  0  0  0  0  0  # atno 11005 bound_to 11000
  145.1792  140.9759  143.4276 LP  0  0  0  0  0  0  0  0  0  0  0  0  # atno 17320 bound_to 7965
  144.9957  139.3646  143.6192 LP  0  0  0  0  0  0  0  0  0  0  0  0  # atno 17321 bound_to 7965
  140.4378  143.2539  151.9512 LP  0  0  0  0  0  0  0  0  0  0  0  0  # atno 17342 bound_to 10162
  139.4787  144.5683  151.8129 LP  0  0  0  0  0  0  0  0  0  0  0  0  # atno 17343 bound_to 10162
  156.3371  130.3809  149.7440 LP  0  0  0  0  0  0  0  0  0  0  0  0  # atno 17370 bound_to 10713
  156.4961  130.8107  151.3114 LP  0  0  0  0  0  0  0  0  0  0  0  0  # atno 17371 bound_to 10713
  140.0965  134.5531  155.8394 LP  0  0  0  0  0  0  0  0  0  0  0  0  # atno 17394 bound_to 11000
  141.2093  133.6682  156.6427 LP  0  0  0  0  0  0  0  0  0  0  0  0  # atno 17395 bound_to 11000

$$$$
