AV-unprocessed.smi:3303|AV-procd|sdf|12667|dock6
  -GOLD-   2272019 03D 1   1.00000     0.00000
 Structure written by MMmdl.
 45 46  0  0  0  0  0  0  0  0  3 V2000
  148.3142  133.2139  153.0155 C   0  0  0  0  0  0  0  0  0  0  0  0
  146.7841  133.0787  153.1669 C   0  0  2  0  0  0  0  0  0  0  0  0
  146.3481  131.6005  153.0911 C   0  0  0  0  0  0  0  0  0  0  0  0
  146.4765  131.0648  151.7106 N   0  3  1  0  0  0  0  0  0  0  0  0
  146.2774  129.5991  151.6433 C   0  0  0  0  0  0  0  0  0  0  0  0
  145.7016  131.8364  150.6952 C   0  0  1  0  0  0  0  0  0  0  0  0
  144.1746  131.6285  150.7952 C   0  0  0  0  0  0  0  0  0  0  0  0
  146.0917  133.3304  150.7387 C   0  0  0  0  0  0  0  0  0  0  0  0
  145.9688  133.9233  152.1595 C   0  0  2  0  0  0  0  0  0  0  0  0
  146.3648  135.3504  152.2149 N   0  3  0  0  0  0  0  0  0  0  0  0
  145.4910  136.2817  151.4707 C   0  0  0  0  0  0  0  0  0  0  0  0
  146.2451  137.5691  151.1101 C   0  0  0  0  0  0  0  0  0  0  0  0
  146.4562  138.4675  152.3138 C   0  0  0  0  0  0  0  0  0  0  0  0
  146.9638  139.7751  152.1589 C   0  0  0  0  0  0  0  0  0  0  0  0
  147.1407  140.5661  153.3109 C   0  0  0  0  0  0  0  0  0  0  0  0
  146.8073  140.0210  154.5656 C   0  0  0  0  0  0  0  0  0  0  0  0
  146.3088  138.7040  154.6136 C   0  0  0  0  0  0  0  0  0  0  0  0
  146.1349  137.9371  153.5152 N   0  0  0  0  0  0  0  0  0  0  0  0
  148.6633  132.8677  152.0429 H   0  0  0  0  0  0  0  0  0  0  0  0
  148.8314  132.6250  153.7734 H   0  0  0  0  0  0  0  0  0  0  0  0
  148.6429  134.2458  153.1378 H   0  0  0  0  0  0  0  0  0  0  0  0
  146.5398  133.4357  154.1686 H   0  0  0  0  0  0  0  0  0  0  0  0
  146.9579  131.0039  153.7712 H   0  0  0  0  0  0  0  0  0  0  0  0
  145.3187  131.4919  153.4346 H   0  0  0  0  0  0  0  0  0  0  0  0
  145.2862  129.3119  151.9957 H   0  0  0  0  0  0  0  0  0  0  0  0
  147.0134  129.0888  152.2654 H   0  0  0  0  0  0  0  0  0  0  0  0
  146.4008  129.2368  150.6221 H   0  0  0  0  0  0  0  0  0  0  0  0
  146.0049  131.4604  149.7169 H   0  0  0  0  0  0  0  0  0  0  0  0
  143.6564  132.2185  150.0389 H   0  0  0  0  0  0  0  0  0  0  0  0
  143.7749  131.9232  151.7648 H   0  0  0  0  0  0  0  0  0  0  0  0
  143.8961  130.5889  150.6237 H   0  0  0  0  0  0  0  0  0  0  0  0
  147.1150  133.4463  150.3798 H   0  0  0  0  0  0  0  0  0  0  0  0
  145.4695  133.8824  150.0342 H   0  0  0  0  0  0  0  0  0  0  0  0
  144.9236  133.8735  152.4677 H   0  0  0  0  0  0  0  0  0  0  0  0
  146.3463  135.6362  153.1837 H   0  0  0  0  0  0  0  0  0  0  0  0
  145.1296  135.8014  150.5615 H   0  0  0  0  0  0  0  0  0  0  0  0
  144.6179  136.5230  152.0785 H   0  0  0  0  0  0  0  0  0  0  0  0
  147.2134  137.3237  150.6714 H   0  0  0  0  0  0  0  0  0  0  0  0
  145.6959  138.1254  150.3488 H   0  0  0  0  0  0  0  0  0  0  0  0
  147.2107  140.1672  151.1833 H   0  0  0  0  0  0  0  0  0  0  0  0
  147.5247  141.5726  153.2331 H   0  0  0  0  0  0  0  0  0  0  0  0
  146.9291  140.5991  155.4698 H   0  0  0  0  0  0  0  0  0  0  0  0
  146.0433  138.2546  155.5589 H   0  0  0  0  0  0  0  0  0  0  0  0
  147.3116  135.4422  151.8750 H   0  0  0  0  0  0  0  0  0  0  0  0
  147.4454  131.2060  151.4615 H   0  0  0  0  0  0  0  0  0  0  0  0
  1  2  1  0  0  0  0
  1 19  1  0  0  0  0
  1 20  1  0  0  0  0
  1 21  1  0  0  0  0
  2  9  1  0  0  0  0
  2  3  1  0  0  0  0
  2 22  1  0  0  0  0
  3  4  1  0  0  0  0
  3 23  1  0  0  0  0
  3 24  1  0  0  0  0
  4  5  1  0  0  0  0
  4  6  1  0  0  0  0
  4 45  1  0  0  0  0
  5 25  1  0  0  0  0
  5 26  1  0  0  0  0
  5 27  1  0  0  0  0
  6  7  1  0  0  0  0
  6  8  1  0  0  0  0
  6 28  1  0  0  0  0
  7 29  1  0  0  0  0
  7 30  1  0  0  0  0
  7 31  1  0  0  0  0
  8  9  1  0  0  0  0
  8 32  1  0  0  0  0
  8 33  1  0  0  0  0
  9 10  1  0  0  0  0
  9 34  1  0  0  0  0
 10 11  1  0  0  0  0
 10 35  1  0  0  0  0
 10 44  1  0  0  0  0
 11 12  1  0  0  0  0
 11 36  1  0  0  0  0
 11 37  1  0  0  0  0
 12 13  1  0  0  0  0
 12 38  1  0  0  0  0
 12 39  1  0  0  0  0
 13 18  1  0  0  0  0
 13 14  2  0  0  0  0
 14 15  1  0  0  0  0
 14 40  1  0  0  0  0
 15 16  2  0  0  0  0
 15 41  1  0  0  0  0
 16 17  1  0  0  0  0
 16 42  1  0  0  0  0
 17 18  2  0  0  0  0
 17 43  1  0  0  0  0
M  CHG  1   4   1
M  CHG  1  10   1
M  END
> <s_m_source_file>
AV-unprocessed.smi

> <i_m_source_file_index>
3303

> <i_lp_mmshare_version>
43012

> <i_f3d_flags>
0

> <s_epik_input>
W0NIM11bQ0BASF0xW0NIMl1OKFtDSDNdKVtDQEBIXShbQ0gzXSlbQ0gyXVtDQEhdMVtOSF1bQ0gyXVtDSDJdYzJbY0hdW2NIXVtjSF1bY0hdbjI=

> <s_epik_cmdline>
J2VwaWtfcHl0aG9uJywgJy1waCcsICc3LjAnLCAnLXRuJywgJzgnLCAnLW1hJywgJzIwMCcsICctbWV0YWxfYmluZGluZycsICctaW1hZScsICc8aW5maWxlLm1hZT4nLCAnLW9tYWUnLCAnPG91dGZpbGUubWFlPic=

> <r_epik_Ionization_Penalty>
0.0769462

> <r_epik_Ionization_Penalty_Charging>
0.0759813

> <r_epik_Ionization_Penalty_Neutral>
0.000964829

> <r_epik_State_Penalty>
0.0654373

> <r_epik_Charging_Adjusted_Penalty>
0.141419

> <i_epik_Tot_Q>
2

> <i_epik_Tot_abs_Q>
2

> <r_epik_Metal_State_Penalty>
0.0656439

> <b_epik_Metal_Only>
0

> <s_lp_Force_Field>
OPLS_2005

> <r_lp_Energy>
31.612

> <b_lp_Chiralities_Consistent>
1

> <s_lp_Variant>
AV-unprocessed.smi:3303-11

> <Gold.Version>
5.8.1

> <Gold.Id.Protein>
6NUR|6NUR_protein|mol2

> <Gold.PLP.Fitness>
42.5479

> <Gold.PLP.PLP>
-34.0811

> <Gold.PLP.part.hbond>
-2.0000

> <Gold.PLP.part.metal>
0.0000

> <Gold.PLP.part.buried>
4.3957

> <Gold.PLP.part.nonpolar>
-36.6232

> <Gold.PLP.part.repulsive>
0.2379

> <Gold.PLP.ligand.clash>
0.0000

> <Gold.PLP.ligand.torsion>
0.2749

> <Gold.PLP.Chemscore.Hbond>
3.0000

> <Gold.PLP.Chemscore.CHOScore>
0.0000

> <Gold.PLP.Chemscore.Metal>
0.0000

> <Gold.Chemscore.Hbonds>
donor molecule, donor type, donor heavy atom, donor atom, acceptor molecule, acceptor atom, score
      L1  H     4    45       P1 10747  1.00
      L1  H    10    44       P1  7948  2.00

> <Gold.PLP.Chemscore.Internal.Correction>
0.0166

> <Gold.Rescore>
     Score         DG    S(hbond)    S(metal)    S(lipo)     H(rot)  DE(clash)    DE(int)     intcor
     17.36     -20.64       1.95        0.00     103.94       1.37       1.71       1.57       ----

> <Gold.Chemscore.Fitness>
17.3625

> <Gold.Chemscore.DG>
-20.6419

> <Gold.Chemscore.ZeroCoef>
-5.4800

> <Gold.Chemscore.Hbond>
1.9520

> <Gold.Chemscore.Metal>
0.0000

> <Gold.Chemscore.Lipo>
103.9372

> <Gold.Chemscore.Internal_Hbond>
0.0000

> <Gold.Chemscore.DEClash>
1.7109

> <Gold.Chemscore.DEInternal>
1.5686

> <Gold.Chemscore.Rot>
1.3744

> <Gold.Chemscore.Internal.Correction>
   9.000000E+99

> <Gold.Chemscore.Hbonds>
donor molecule, donor type, donor heavy atom, donor atom, acceptor molecule, acceptor atom, score
      L1  H     4    45       P1 10747  0.93
      L1  H    10    44       P1  7948  0.97

> <Gold.Chemscore.Hbond.Weighted>
-6.5197

> <Gold.Chemscore.Metal.Weighted>
-0.0000

> <Gold.Chemscore.Lipo.Weighted>
-12.1607

> <Gold.Chemscore.Internal_Hbond.Weighted>
0.0000

> <Gold.Chemscore.DEClash.Weighted>
1.7109

> <Gold.Chemscore.DEInternal.Weighted>
1.5686

> <Gold.Chemscore.Rot.Weighted>
3.5185

> <Gold.Chemscore.Internal.Correction.Weighted>
   9.000000E+99

> <Gold.Protein.RotatedTorsions>
[ 6907 6896 6895 6894 ] final -161.54 input  -60.11 | X-H torsion
[ 7974 7965 7964 7962 ] final  -48.16 input  175.53 | X-H torsion
[ 8008 7997 7996 7995 ] final  137.33 input   59.86 | X-H torsion
[ 10167 10162 10161 10158 ] final  -64.44 input  -65.29 | X-H torsion
[ 10718 10713 10712 10709 ] final  -72.92 input   66.30 | X-H torsion
[ 10763 10752 10751 10750 ] final   70.94 input  -60.55 | X-H torsion
[ 11005 11000 10999 10996 ] final  -86.79 input  -57.11 | X-H torsion

> <Gold.Protein.ActiveResidues>
 VAL166  LYS551  ARG553  GLY616  TRP617  ASP618  TYR619  PRO620  LYS621  CYS622 
 ASP623  PHE694  ASN695  SER759  ASP760  ASP761  ALA762  ILE779  LEU786  VAL792 
 PHE793  MET794  SER795  GLU796  ALA797  LYS798  CYS799  TRP800  GLU811  SER814 

> <Gold.Protein.RotatedAtoms>
  151.3662  133.3871  159.2694 H   0  0  0  0  0  0  0  0  0  0  0  0  # atno 6907 bound_to 6896
  150.9686  134.9064  159.7785 H   0  0  0  0  0  0  0  0  0  0  0  0  # atno 6908 bound_to 6896
  152.5176  134.3624  159.9341 H   0  0  0  0  0  0  0  0  0  0  0  0  # atno 6909 bound_to 6896
  145.9541  140.7544  142.9490 H   0  0  0  0  0  0  0  0  0  0  0  0  # atno 7974 bound_to 7965
  156.3002  140.2422  156.3892 H   0  0  0  0  0  0  0  0  0  0  0  0  # atno 8008 bound_to 7997
  154.8629  140.0419  157.1696 H   0  0  0  0  0  0  0  0  0  0  0  0  # atno 8009 bound_to 7997
  154.8877  140.2958  155.5392 H   0  0  0  0  0  0  0  0  0  0  0  0  # atno 8010 bound_to 7997
  140.5801  143.2326  151.6361 H   0  0  0  0  0  0  0  0  0  0  0  0  # atno 10167 bound_to 10162
  156.0300  130.4383  150.2665 H   0  0  0  0  0  0  0  0  0  0  0  0  # atno 10718 bound_to 10713
  153.0370  135.5155  154.7518 H   0  0  0  0  0  0  0  0  0  0  0  0  # atno 10763 bound_to 10752
  154.6486  135.2922  155.0017 H   0  0  0  0  0  0  0  0  0  0  0  0  # atno 10764 bound_to 10752
  154.0909  135.6650  153.4905 H   0  0  0  0  0  0  0  0  0  0  0  0  # atno 10765 bound_to 10752
  141.1625  133.7474  156.9213 H   0  0  0  0  0  0  0  0  0  0  0  0  # atno 11005 bound_to 11000
  144.6801  140.2483  143.7335 LP  0  0  0  0  0  0  0  0  0  0  0  0  # atno 17320 bound_to 7965
  145.8131  139.2011  143.1981 LP  0  0  0  0  0  0  0  0  0  0  0  0  # atno 17321 bound_to 7965
  139.5165  144.3346  152.0795 LP  0  0  0  0  0  0  0  0  0  0  0  0  # atno 17342 bound_to 10162
  140.2495  144.4184  150.6227 LP  0  0  0  0  0  0  0  0  0  0  0  0  # atno 17343 bound_to 10162
  157.0768  131.0132  151.3171 LP  0  0  0  0  0  0  0  0  0  0  0  0  # atno 17370 bound_to 10713
  157.4958  130.7849  149.7553 LP  0  0  0  0  0  0  0  0  0  0  0  0  # atno 17371 bound_to 10713
  140.1449  134.9269  157.2517 LP  0  0  0  0  0  0  0  0  0  0  0  0  # atno 17394 bound_to 11000
  140.2791  134.3370  155.7348 LP  0  0  0  0  0  0  0  0  0  0  0  0  # atno 17395 bound_to 11000

$$$$
