AV-unprocessed.smi:607|AV-procd|sdf|3042|dock9
  -GOLD-   2262023563D 1   1.00000     0.00000
 Structure written by MMmdl.
 42 43  0  0  0  0  0  0  0  0  1 V2000
  149.7813  140.8821  156.7130 C   0  0  0  0  0  0  0  0  0  0  0  0
  150.8190  141.1170  157.7732 C   0  0  0  0  0  0  0  0  0  0  0  0
  150.8778  142.2956  158.3687 N   0  0  0  0  0  0  0  0  0  0  0  0
  151.8932  142.1865  159.2469 N   0  0  0  0  0  0  0  0  0  0  0  0
  152.2366  143.3253  160.0764 C   0  0  0  0  0  0  0  0  0  0  0  0
  152.4748  140.9337  159.2115 C   0  0  0  0  0  0  0  0  0  0  0  0
  153.6264  140.5761  160.0984 C   0  0  0  0  0  0  0  0  0  0  0  0
  151.8084  140.2088  158.2541 C   0  0  0  0  0  0  0  0  0  0  0  0
  152.0282  138.7856  157.7788 C   0  0  2  0  0  0  0  0  0  0  0  0
  152.1773  138.7202  156.2474 C   0  0  0  0  0  0  0  0  0  0  0  0
  150.9212  137.8664  158.3219 C   0  0  0  0  0  0  0  0  0  0  0  0
  151.1710  137.0076  159.1682 O   0  0  0  0  0  0  0  0  0  0  0  0
  149.6925  138.0546  157.8126 N   0  0  0  0  0  0  0  0  0  0  0  0
  148.5084  137.2490  158.1058 C   0  0  0  0  0  0  0  0  0  0  0  0
  148.2280  137.1966  159.5540 C   0  0  0  0  0  0  0  0  0  0  0  0
  148.0083  137.1571  160.6894 N   0  0  0  0  0  0  0  0  0  0  0  0
  147.2745  137.7311  157.3186 C   0  0  0  0  0  0  0  0  0  0  0  0
  146.4229  136.4867  157.0284 C   0  0  0  0  0  0  0  0  0  0  0  0
  147.2994  135.2742  157.3609 C   0  0  0  0  0  0  0  0  0  0  0  0
  148.7101  135.8290  157.5615 C   0  0  0  0  0  0  0  0  0  0  0  0
  150.2470  140.7446  155.7371 H   0  0  0  0  0  0  0  0  0  0  0  0
  149.0857  141.7183  156.6337 H   0  0  0  0  0  0  0  0  0  0  0  0
  149.1971  139.9881  156.9320 H   0  0  0  0  0  0  0  0  0  0  0  0
  153.3140  143.4900  160.0487 H   0  0  0  0  0  0  0  0  0  0  0  0
  151.9308  143.1335  161.1052 H   0  0  0  0  0  0  0  0  0  0  0  0
  151.7362  144.2267  159.7195 H   0  0  0  0  0  0  0  0  0  0  0  0
  153.7428  139.4972  160.1869 H   0  0  0  0  0  0  0  0  0  0  0  0
  153.4871  140.9724  161.1041 H   0  0  0  0  0  0  0  0  0  0  0  0
  154.5571  140.9806  159.7003 H   0  0  0  0  0  0  0  0  0  0  0  0
  152.9576  138.3978  158.1972 H   0  0  0  0  0  0  0  0  0  0  0  0
  151.2920  139.0953  155.7341 H   0  0  0  0  0  0  0  0  0  0  0  0
  152.3511  137.6983  155.9082 H   0  0  0  0  0  0  0  0  0  0  0  0
  153.0261  139.3196  155.9173 H   0  0  0  0  0  0  0  0  0  0  0  0
  149.5810  138.7841  157.1236 H   0  0  0  0  0  0  0  0  0  0  0  0
  146.7121  138.4961  157.8555 H   0  0  0  0  0  0  0  0  0  0  0  0
  147.5833  138.1710  156.3687 H   0  0  0  0  0  0  0  0  0  0  0  0
  145.5194  136.4799  157.6391 H   0  0  0  0  0  0  0  0  0  0  0  0
  146.1098  136.4732  155.9839 H   0  0  0  0  0  0  0  0  0  0  0  0
  146.9521  134.8176  158.2884 H   0  0  0  0  0  0  0  0  0  0  0  0
  147.2640  134.5089  156.5852 H   0  0  0  0  0  0  0  0  0  0  0  0
  149.2165  135.8634  156.5952 H   0  0  0  0  0  0  0  0  0  0  0  0
  149.3125  135.2047  158.2226 H   0  0  0  0  0  0  0  0  0  0  0  0
  1  2  1  0  0  0  0
  1 21  1  0  0  0  0
  1 22  1  0  0  0  0
  1 23  1  0  0  0  0
  2  8  1  0  0  0  0
  2  3  2  0  0  0  0
  3  4  1  0  0  0  0
  4  5  1  0  0  0  0
  4  6  1  0  0  0  0
  5 24  1  0  0  0  0
  5 25  1  0  0  0  0
  5 26  1  0  0  0  0
  6  7  1  0  0  0  0
  6  8  2  0  0  0  0
  7 27  1  0  0  0  0
  7 28  1  0  0  0  0
  7 29  1  0  0  0  0
  8  9  1  0  0  0  0
  9 10  1  0  0  0  0
  9 11  1  0  0  0  0
  9 30  1  0  0  0  0
 10 31  1  0  0  0  0
 10 32  1  0  0  0  0
 10 33  1  0  0  0  0
 11 12  2  0  0  0  0
 11 13  1  0  0  0  0
 13 14  1  0  0  0  0
 13 34  1  0  0  0  0
 14 20  1  0  0  0  0
 14 15  1  0  0  0  0
 14 17  1  0  0  0  0
 15 16  3  0  0  0  0
 17 18  1  0  0  0  0
 17 35  1  0  0  0  0
 17 36  1  0  0  0  0
 18 19  1  0  0  0  0
 18 37  1  0  0  0  0
 18 38  1  0  0  0  0
 19 20  1  0  0  0  0
 19 39  1  0  0  0  0
 19 40  1  0  0  0  0
 20 41  1  0  0  0  0
 20 42  1  0  0  0  0
M  END
> <s_m_source_file>
AV-unprocessed.smi

> <i_m_source_file_index>
607

> <i_lp_mmshare_version>
43012

> <i_f3d_flags>
0

> <s_epik_input>
W0NIM11jMW5uKFtDSDNdKWMoW0NIM10pYzFbQ0BIXShbQ0gzXSlDKD1PKVtOSF1DMihDI04pW0NIMl1bQ0gyXVtDSDJdW0NIMl0y

> <s_epik_cmdline>
J2VwaWtfcHl0aG9uJywgJy1waCcsICc3LjAnLCAnLXRuJywgJzgnLCAnLW1hJywgJzIwMCcsICctbWV0YWxfYmluZGluZycsICctaW1hZScsICc8aW5maWxlLm1hZT4nLCAnLW9tYWUnLCAnPG91dGZpbGUubWFlPic=

> <r_lp_tautomer_probability>
1

> <r_epik_Ionization_Penalty>
0.00342632

> <r_epik_Ionization_Penalty_Charging>
0

> <r_epik_Ionization_Penalty_Neutral>
0.00342632

> <r_epik_State_Penalty>
0.00242724

> <r_epik_Charging_Adjusted_Penalty>
0.00242724

> <i_epik_Tot_Q>
0

> <i_epik_Tot_abs_Q>
0

> <r_epik_Metal_State_Penalty>
-0

> <b_epik_Metal_Only>
0

> <s_lp_Force_Field>
OPLS_2005

> <r_lp_Energy>
13.4407

> <b_lp_Chiralities_Consistent>
1

> <s_lp_Variant>
AV-unprocessed.smi:607-1

> <Gold.Version>
5.8.1

> <Gold.Id.Protein>
6NUR|6NUR_protein|mol2

> <Gold.PLP.Fitness>
32.8236

> <Gold.PLP.PLP>
-25.5713

> <Gold.PLP.part.hbond>
-3.0000

> <Gold.PLP.part.metal>
0.0000

> <Gold.PLP.part.buried>
-4.0654

> <Gold.PLP.part.nonpolar>
-19.0575

> <Gold.PLP.part.repulsive>
0.1231

> <Gold.PLP.ligand.clash>
0.0000

> <Gold.PLP.ligand.torsion>
0.3420

> <Gold.PLP.Chemscore.Hbond>
2.6091

> <Gold.PLP.Chemscore.CHOScore>
0.0000

> <Gold.PLP.Chemscore.Metal>
0.0000

> <Gold.Chemscore.Hbonds>
donor molecule, donor type, donor heavy atom, donor atom, acceptor molecule, acceptor atom, score
      P1  H  6896  6907       L1    12  1.00
      P1  H  6931  6943       L1    16  0.85
      P1  H  6934  6947       L1    16  0.70

> <Gold.PLP.Chemscore.Internal.Correction>
0.1089

> <Gold.Rescore>
     Score         DG    S(hbond)    S(metal)    S(lipo)     H(rot)  DE(clash)    DE(int)     intcor
     15.12     -16.74       2.33        0.00      59.60       1.37       0.13       1.49       ----

> <Gold.Chemscore.Fitness>
15.1195

> <Gold.Chemscore.DG>
-16.7401

> <Gold.Chemscore.ZeroCoef>
-5.4800

> <Gold.Chemscore.Hbond>
2.3350

> <Gold.Chemscore.Metal>
0.0000

> <Gold.Chemscore.Lipo>
59.6032

> <Gold.Chemscore.Internal_Hbond>
0.0000

> <Gold.Chemscore.DEClash>
0.1274

> <Gold.Chemscore.DEInternal>
1.4932

> <Gold.Chemscore.Rot>
1.3720

> <Gold.Chemscore.Internal.Correction>
   9.000000E+99

> <Gold.Chemscore.Hbonds>
donor molecule, donor type, donor heavy atom, donor atom, acceptor molecule, acceptor atom, score
      P1  H  6896  6907       L1    12  0.95
      P1  H  6931  6943       L1    16  0.80
      P1  H  6934  6947       L1    16  0.15

> <Gold.Chemscore.Hbond.Weighted>
-7.7988

> <Gold.Chemscore.Metal.Weighted>
-0.0000

> <Gold.Chemscore.Lipo.Weighted>
-6.9736

> <Gold.Chemscore.Internal_Hbond.Weighted>
0.0000

> <Gold.Chemscore.DEClash.Weighted>
0.1274

> <Gold.Chemscore.DEInternal.Weighted>
1.4932

> <Gold.Chemscore.Rot.Weighted>
3.5123

> <Gold.Chemscore.Internal.Correction.Weighted>
   9.000000E+99

> <Gold.Protein.RotatedTorsions>
[ 6907 6896 6895 6894 ] final  -17.48 input  -60.11 | X-H torsion
[ 7974 7965 7964 7962 ] final   18.55 input  175.53 | X-H torsion
[ 8008 7997 7996 7995 ] final -177.10 input   59.86 | X-H torsion
[ 10167 10162 10161 10158 ] final   37.14 input  -65.29 | X-H torsion
[ 10718 10713 10712 10709 ] final  140.66 input   66.30 | X-H torsion
[ 10763 10752 10751 10750 ] final -135.37 input  -60.55 | X-H torsion
[ 11005 11000 10999 10996 ] final -134.11 input  -57.11 | X-H torsion

> <Gold.Protein.ActiveResidues>
 VAL166  LYS551  ARG553  GLY616  TRP617  ASP618  TYR619  PRO620  LYS621  CYS622 
 ASP623  PHE694  ASN695  SER759  ASP760  ASP761  ALA762  ILE779  LEU786  VAL792 
 PHE793  MET794  SER795  GLU796  ALA797  LYS798  CYS799  TRP800  GLU811  SER814 

> <Gold.Protein.RotatedAtoms>
  151.2926  135.0746  159.9209 H   0  0  0  0  0  0  0  0  0  0  0  0  # atno 6907 bound_to 6896
  152.5313  133.9915  159.7863 H   0  0  0  0  0  0  0  0  0  0  0  0  # atno 6908 bound_to 6896
  151.0188  133.5845  159.2704 H   0  0  0  0  0  0  0  0  0  0  0  0  # atno 6909 bound_to 6896
  146.2181  139.8441  142.8635 H   0  0  0  0  0  0  0  0  0  0  0  0  # atno 7974 bound_to 7965
  156.0029  140.1224  157.0529 H   0  0  0  0  0  0  0  0  0  0  0  0  # atno 8008 bound_to 7997
  154.4249  140.1103  156.5791 H   0  0  0  0  0  0  0  0  0  0  0  0  # atno 8009 bound_to 7997
  155.6187  140.3472  155.4647 H   0  0  0  0  0  0  0  0  0  0  0  0  # atno 8010 bound_to 7997
  140.4061  144.1657  150.6136 H   0  0  0  0  0  0  0  0  0  0  0  0  # atno 10167 bound_to 10162
  157.4007  131.1016  151.0554 H   0  0  0  0  0  0  0  0  0  0  0  0  # atno 10718 bound_to 10713
  154.8704  135.3705  154.4887 H   0  0  0  0  0  0  0  0  0  0  0  0  # atno 10763 bound_to 10752
  153.5536  135.7024  153.5585 H   0  0  0  0  0  0  0  0  0  0  0  0  # atno 10764 bound_to 10752
  153.3693  135.4026  155.1740 H   0  0  0  0  0  0  0  0  0  0  0  0  # atno 10765 bound_to 10752
  140.9019  134.1679  157.4454 H   0  0  0  0  0  0  0  0  0  0  0  0  # atno 11005 bound_to 11000
  145.2869  141.0155  143.3685 LP  0  0  0  0  0  0  0  0  0  0  0  0  # atno 17320 bound_to 7965
  144.9107  139.4532  143.6588 LP  0  0  0  0  0  0  0  0  0  0  0  0  # atno 17321 bound_to 7965
  140.4688  143.2421  151.9118 LP  0  0  0  0  0  0  0  0  0  0  0  0  # atno 17342 bound_to 10162
  139.4783  144.5391  151.8554 LP  0  0  0  0  0  0  0  0  0  0  0  0  # atno 17343 bound_to 10162
  157.1554  130.6202  149.5594 LP  0  0  0  0  0  0  0  0  0  0  0  0  # atno 17370 bound_to 10713
  155.9822  130.4835  150.6871 LP  0  0  0  0  0  0  0  0  0  0  0  0  # atno 17371 bound_to 10713
  139.8743  134.9901  156.5489 LP  0  0  0  0  0  0  0  0  0  0  0  0  # atno 17394 bound_to 11000
  140.8219  133.8347  155.8903 LP  0  0  0  0  0  0  0  0  0  0  0  0  # atno 17395 bound_to 11000

$$$$
