AV-unprocessed.smi:221|AV-procd|sdf|1696|dock1
  -GOLD-   2262020143D 1   1.00000     0.00000
 Structure written by MMmdl.
 50 53  0  0  0  0  0  0  0  0  1 V2000
  142.8117  133.2457  150.9763 N   0  0  0  0  0  0  0  0  0  0  0  0
  143.6358  132.5447  150.1906 C   0  0  0  0  0  0  0  0  0  0  0  0
  143.2864  132.1540  149.0791 O   0  0  0  0  0  0  0  0  0  0  0  0
  145.0572  132.2293  150.6970 C   0  0  2  0  0  0  0  0  0  0  0  0
  145.2574  130.7138  150.8650 C   0  0  0  0  0  0  0  0  0  0  0  0
  146.3641  130.6193  151.9074 C   0  0  2  0  0  0  0  0  0  0  0  0
  146.3860  129.4406  152.5289 F   0  0  0  0  0  0  0  0  0  0  0  0
  146.0516  131.7776  152.8508 C   0  0  0  0  0  0  0  0  0  0  0  0
  145.3782  132.7742  152.0249 N   0  0  0  0  0  0  0  0  0  0  0  0
  145.6523  134.0917  152.2275 C   0  0  0  0  0  0  0  0  0  0  0  0
  145.2712  135.0057  151.2960 N   0  0  0  0  0  0  0  0  0  0  0  0
  145.5283  136.3046  151.4724 C   0  0  0  0  0  0  0  0  0  0  0  0
  146.1420  136.9012  152.4953 N   0  0  0  0  0  0  0  0  0  0  0  0
  146.5181  135.9944  153.4412 C   0  0  0  0  0  0  0  0  0  0  0  0
  146.3134  134.5857  153.3899 C   0  0  0  0  0  0  0  0  0  0  0  0
  146.8169  133.9971  154.5451 N   0  0  0  0  0  0  0  0  0  0  0  0
  147.2989  134.9959  155.2325 C   0  0  0  0  0  0  0  0  0  0  0  0
  147.1580  136.2318  154.6452 N   0  0  0  0  0  0  0  0  0  0  0  0
  147.6001  137.5032  155.1911 C   0  0  0  0  0  0  0  0  0  0  0  0
  149.0149  137.4243  155.8196 C   0  0  2  0  0  0  0  0  0  0  0  0
  149.3305  138.6859  156.6566 C   0  0  0  0  0  0  0  0  0  0  0  0
  148.3987  138.8524  157.7048 O   0  0  0  0  0  0  0  0  0  0  0  0
  150.1316  137.1262  154.7811 C   0  0  1  0  0  0  0  0  0  0  0  0
  150.4952  138.2807  153.8460 C   0  0  0  0  0  0  0  0  0  0  0  0
  152.0254  138.2669  153.8086 C   0  0  0  0  0  0  0  0  0  0  0  0
  152.3835  136.9807  154.2899 O   0  0  0  0  0  0  0  0  0  0  0  0
  151.4850  136.6764  155.3432 C   0  0  0  0  0  0  0  0  0  0  0  0
  145.7835  132.5967  149.9696 H   0  0  0  0  0  0  0  0  0  0  0  0
  147.3372  130.7655  151.4361 H   0  0  0  0  0  0  0  0  0  0  0  0
  141.8778  133.4614  150.6586 H   0  0  0  0  0  0  0  0  0  0  0  0
  143.1271  133.5573  151.8835 H   0  0  0  0  0  0  0  0  0  0  0  0
  144.3517  130.2412  151.2507 H   0  0  0  0  0  0  0  0  0  0  0  0
  145.5212  130.2175  149.9303 H   0  0  0  0  0  0  0  0  0  0  0  0
  145.3666  131.4628  153.6390 H   0  0  0  0  0  0  0  0  0  0  0  0
  146.9640  132.1496  153.3193 H   0  0  0  0  0  0  0  0  0  0  0  0
  145.1940  136.9590  150.6809 H   0  0  0  0  0  0  0  0  0  0  0  0
  147.7688  134.8592  156.1958 H   0  0  0  0  0  0  0  0  0  0  0  0
  147.5650  138.2328  154.3832 H   0  0  0  0  0  0  0  0  0  0  0  0
  146.8680  137.8306  155.9292 H   0  0  0  0  0  0  0  0  0  0  0  0
  149.0065  136.5802  156.5113 H   0  0  0  0  0  0  0  0  0  0  0  0
  150.3377  138.6361  157.0710 H   0  0  0  0  0  0  0  0  0  0  0  0
  149.2842  139.5863  156.0448 H   0  0  0  0  0  0  0  0  0  0  0  0
  148.5562  138.1856  158.3559 H   0  0  0  0  0  0  0  0  0  0  0  0
  149.7855  136.3224  154.1297 H   0  0  0  0  0  0  0  0  0  0  0  0
  150.0837  138.0978  152.8524 H   0  0  0  0  0  0  0  0  0  0  0  0
  150.1205  139.2500  154.1736 H   0  0  0  0  0  0  0  0  0  0  0  0
  152.4239  138.4458  152.8096 H   0  0  0  0  0  0  0  0  0  0  0  0
  152.4324  139.0257  154.4793 H   0  0  0  0  0  0  0  0  0  0  0  0
  151.7808  137.2406  156.2275 H   0  0  0  0  0  0  0  0  0  0  0  0
  151.5052  135.6150  155.5916 H   0  0  0  0  0  0  0  0  0  0  0  0
  1  2  1  0  0  0  0
  1 30  1  0  0  0  0
  1 31  1  0  0  0  0
  2  3  2  0  0  0  0
  2  4  1  0  0  0  0
  4 28  1  0  0  0  0
  4  9  1  0  0  0  0
  4  5  1  0  0  0  0
  5  6  1  0  0  0  0
  5 32  1  0  0  0  0
  5 33  1  0  0  0  0
  6 29  1  0  0  0  0
  6  7  1  0  0  0  0
  6  8  1  0  0  0  0
  8  9  1  0  0  0  0
  8 34  1  0  0  0  0
  8 35  1  0  0  0  0
  9 10  1  0  0  0  0
 10 15  1  0  0  0  0
 10 11  2  0  0  0  0
 11 12  1  0  0  0  0
 12 13  2  0  0  0  0
 12 36  1  0  0  0  0
 13 14  1  0  0  0  0
 14 18  1  0  0  0  0
 14 15  2  0  0  0  0
 15 16  1  0  0  0  0
 16 17  2  0  0  0  0
 17 18  1  0  0  0  0
 17 37  1  0  0  0  0
 18 19  1  0  0  0  0
 19 20  1  0  0  0  0
 19 38  1  0  0  0  0
 19 39  1  0  0  0  0
 20 21  1  0  0  0  0
 20 23  1  0  0  0  0
 20 40  1  0  0  0  0
 21 22  1  0  0  0  0
 21 41  1  0  0  0  0
 21 42  1  0  0  0  0
 22 43  1  0  0  0  0
 23 27  1  0  0  0  0
 23 24  1  0  0  0  0
 23 44  1  0  0  0  0
 24 25  1  0  0  0  0
 24 45  1  0  0  0  0
 24 46  1  0  0  0  0
 25 26  1  0  0  0  0
 25 47  1  0  0  0  0
 25 48  1  0  0  0  0
 26 27  1  0  0  0  0
 27 49  1  0  0  0  0
 27 50  1  0  0  0  0
M  END
> <s_m_source_file>
AV-unprocessed.smi

> <i_m_source_file_index>
221

> <i_lp_mmshare_version>
43012

> <i_f3d_flags>
0

> <s_epik_input>
W05IMl1DKD1PKVtDQEBIXTFbQ0gyXVtDQEBIXShGKVtDSDJdTjFjKG5bY0hdbjIpYyhjMjMpbltjSF1uM1tDSDJdW0NASF0oW0NIMl1bT0hdKVtDQEBIXTRbQ0gyXVtDSDJdT1tDSDJdNA==

> <s_epik_cmdline>
J2VwaWtfcHl0aG9uJywgJy1waCcsICc3LjAnLCAnLXRuJywgJzgnLCAnLW1hJywgJzIwMCcsICctbWV0YWxfYmluZGluZycsICctaW1hZScsICc8aW5maWxlLm1hZT4nLCAnLW9tYWUnLCAnPG91dGZpbGUubWFlPic=

> <r_lp_tautomer_probability>
1

> <r_epik_Ionization_Penalty>
0.000818822

> <r_epik_Ionization_Penalty_Charging>
0

> <r_epik_Ionization_Penalty_Neutral>
0.000818822

> <r_epik_State_Penalty>
0.000440551

> <r_epik_Charging_Adjusted_Penalty>
0.000440551

> <i_epik_Tot_Q>
0

> <i_epik_Tot_abs_Q>
0

> <r_epik_Metal_State_Penalty>
-0

> <b_epik_Metal_Only>
0

> <s_lp_Force_Field>
OPLS_2005

> <r_lp_Energy>
49.7935

> <b_lp_Chiralities_Consistent>
1

> <s_lp_Variant>
AV-unprocessed.smi:221-11

> <Gold.Version>
5.8.1

> <Gold.Id.Protein>
6NUR|6NUR_protein|mol2

> <Gold.PLP.Fitness>
45.3162

> <Gold.PLP.PLP>
-34.7012

> <Gold.PLP.part.hbond>
-3.2363

> <Gold.PLP.part.metal>
0.0000

> <Gold.PLP.part.buried>
-7.5184

> <Gold.PLP.part.nonpolar>
-25.3548

> <Gold.PLP.part.repulsive>
1.1876

> <Gold.PLP.ligand.clash>
0.0000

> <Gold.PLP.ligand.torsion>
0.5492

> <Gold.PLP.Chemscore.Hbond>
2.7920

> <Gold.PLP.Chemscore.CHOScore>
1.0000

> <Gold.PLP.Chemscore.Metal>
0.0000

> <Gold.Chemscore.Hbonds>
donor molecule, donor type, donor heavy atom, donor atom, acceptor molecule, acceptor atom, score
      L1  H     1    30       P1 10186  0.88
      P1  H 10752 10764       L1    26  0.11
      P1  H 10785 10796       L1     3  0.98
      L1  C    12    36       P1 10171  1.00

> <Gold.PLP.Chemscore.Internal.Correction>
0.3373

> <Gold.Rescore>
     Score         DG    S(hbond)    S(metal)    S(lipo)     H(rot)  DE(clash)    DE(int)     intcor
     10.16     -12.97       2.68        0.00      59.87       3.31       1.11       1.70       ----

> <Gold.Chemscore.Fitness>
10.1599

> <Gold.Chemscore.DG>
-12.9679

> <Gold.Chemscore.ZeroCoef>
-5.4800

> <Gold.Chemscore.Hbond>
2.6807

> <Gold.Chemscore.Metal>
0.0000

> <Gold.Chemscore.Lipo>
59.8740

> <Gold.Chemscore.Internal_Hbond>
0.0000

> <Gold.Chemscore.DEClash>
1.1062

> <Gold.Chemscore.DEInternal>
1.7018

> <Gold.Chemscore.Rot>
3.3089

> <Gold.Chemscore.Internal.Correction>
   9.000000E+99

> <Gold.Chemscore.Hbonds>
donor molecule, donor type, donor heavy atom, donor atom, acceptor molecule, acceptor atom, score
      L1  H     1    30       P1 10186  0.78
      P1  H 10785 10796       L1     3  0.84

> <Gold.Chemscore.Hbond.Weighted>
-8.9536

> <Gold.Chemscore.Metal.Weighted>
-0.0000

> <Gold.Chemscore.Lipo.Weighted>
-7.0053

> <Gold.Chemscore.Internal_Hbond.Weighted>
0.0000

> <Gold.Chemscore.DEClash.Weighted>
1.1062

> <Gold.Chemscore.DEInternal.Weighted>
1.7018

> <Gold.Chemscore.Rot.Weighted>
8.4709

> <Gold.Chemscore.Internal.Correction.Weighted>
   9.000000E+99

> <Gold.Protein.RotatedTorsions>
[ 6907 6896 6895 6894 ] final -156.14 input  -60.11 | X-H torsion
[ 7974 7965 7964 7962 ] final  176.73 input  175.53 | X-H torsion
[ 8008 7997 7996 7995 ] final -141.62 input   59.86 | X-H torsion
[ 10167 10162 10161 10158 ] final -174.20 input  -65.29 | X-H torsion
[ 10718 10713 10712 10709 ] final -106.71 input   66.30 | X-H torsion
[ 10763 10752 10751 10750 ] final  -57.07 input  -60.55 | X-H torsion
[ 11005 11000 10999 10996 ] final   -8.31 input  -57.11 | X-H torsion

> <Gold.Protein.ActiveResidues>
 VAL166  LYS551  ARG553  GLY616  TRP617  ASP618  TYR619  PRO620  LYS621  CYS622 
 ASP623  PHE694  ASN695  SER759  ASP760  ASP761  ALA762  ILE779  LEU786  VAL792 
 PHE793  MET794  SER795  GLU796  ALA797  LYS798  CYS799  TRP800  GLU811  SER814 

> <Gold.Protein.RotatedAtoms>
  151.2831  133.4200  159.2627 H   0  0  0  0  0  0  0  0  0  0  0  0  # atno 6907 bound_to 6896
  151.0343  134.9562  159.8138 H   0  0  0  0  0  0  0  0  0  0  0  0  # atno 6908 bound_to 6896
  152.5352  134.2791  159.9053 H   0  0  0  0  0  0  0  0  0  0  0  0  # atno 6909 bound_to 6896
  144.7180  140.0140  143.6440 H   0  0  0  0  0  0  0  0  0  0  0  0  # atno 7974 bound_to 7965
  155.4808  140.0560  157.2967 H   0  0  0  0  0  0  0  0  0  0  0  0  # atno 8008 bound_to 7997
  154.4661  140.2019  156.0067 H   0  0  0  0  0  0  0  0  0  0  0  0  # atno 8009 bound_to 7997
  156.0976  140.3224  155.7903 H   0  0  0  0  0  0  0  0  0  0  0  0  # atno 8010 bound_to 7997
  139.5646  144.1786  152.1293 H   0  0  0  0  0  0  0  0  0  0  0  0  # atno 10167 bound_to 10162
  156.0402  130.5626  150.7719 H   0  0  0  0  0  0  0  0  0  0  0  0  # atno 10718 bound_to 10713
  154.2167  135.6385  153.5132 H   0  0  0  0  0  0  0  0  0  0  0  0  # atno 10763 bound_to 10752
  152.9978  135.5487  154.6158 H   0  0  0  0  0  0  0  0  0  0  0  0  # atno 10764 bound_to 10752
  154.5608  135.2909  155.0895 H   0  0  0  0  0  0  0  0  0  0  0  0  # atno 10765 bound_to 10752
  140.7221  133.8820  155.8828 H   0  0  0  0  0  0  0  0  0  0  0  0  # atno 11005 bound_to 11000
  146.0235  139.3272  143.0798 LP  0  0  0  0  0  0  0  0  0  0  0  0  # atno 17320 bound_to 7965
  145.8539  140.9513  143.0735 LP  0  0  0  0  0  0  0  0  0  0  0  0  # atno 17321 bound_to 7965
  140.1306  144.5291  150.6805 LP  0  0  0  0  0  0  0  0  0  0  0  0  # atno 17342 bound_to 10162
  140.6929  143.2386  151.5081 LP  0  0  0  0  0  0  0  0  0  0  0  0  # atno 17343 bound_to 10162
  157.5210  131.0931  151.0078 LP  0  0  0  0  0  0  0  0  0  0  0  0  # atno 17370 bound_to 10713
  157.0408  130.5748  149.5356 LP  0  0  0  0  0  0  0  0  0  0  0  0  # atno 17371 bound_to 10713
  140.9994  134.1170  157.4331 LP  0  0  0  0  0  0  0  0  0  0  0  0  # atno 17394 bound_to 11000
  139.8846  135.0064  156.6377 LP  0  0  0  0  0  0  0  0  0  0  0  0  # atno 17395 bound_to 11000

$$$$
