AV-unprocessed.smi:847|AV-procd|sdf|3938|dock7
  -GOLD-   22720 1403D 1   1.00000     0.00000
 Structure written by MMmdl.
 46 47  0  0  0  0  0  0  0  0  1 V2000
  152.0307  143.7590  161.7662 C   0  0  0  0  0  0  0  0  0  0  0  0
  151.5529  144.3893  160.5908 O   0  0  0  0  0  0  0  0  0  0  0  0
  152.4330  144.2268  159.4910 C   0  0  0  0  0  0  0  0  0  0  0  0
  152.3569  142.7799  158.9949 C   0  0  0  0  0  0  0  0  0  0  0  0
  151.2564  142.6610  158.0984 O   0  0  0  0  0  0  0  0  0  0  0  0
  150.6449  141.4316  157.9648 C   0  0  0  0  0  0  0  0  0  0  0  0
  151.3393  140.2843  158.3989 C   0  0  0  0  0  0  0  0  0  0  0  0
  150.7190  139.0272  158.2714 C   0  0  0  0  0  0  0  0  0  0  0  0
  149.4261  138.9579  157.7122 C   0  0  0  0  0  0  0  0  0  0  0  0
  148.7039  137.6297  157.5709 C   0  0  0  0  0  0  0  0  0  0  0  0
  148.7995  136.8199  158.7799 N   0  0  0  0  0  0  0  0  0  0  0  0
  147.9196  136.8285  159.7924 C   0  0  0  0  0  0  0  0  0  0  0  0
  146.9502  137.5868  159.8427 O   0  0  0  0  0  0  0  0  0  0  0  0
  148.1759  135.8183  160.9267 C   0  0  1  0  0  0  0  0  0  0  0  0
  147.2669  136.1225  162.1283 C   0  0  0  0  0  0  0  0  0  0  0  0
  147.0351  134.7756  162.7868 C   0  0  0  0  0  0  0  0  0  0  0  0
  147.1254  133.7631  161.6458 C   0  0  0  0  0  0  0  0  0  0  0  0
  147.8927  134.4114  160.5791 N   0  0  0  0  0  0  0  0  0  0  0  0
  148.3192  133.7626  159.4672 C   0  0  0  0  0  0  0  0  0  0  0  0
  147.8919  132.3075  159.2607 C   0  0  0  0  0  0  0  0  0  0  0  0
  149.0456  134.2834  158.6204 O   0  0  0  0  0  0  0  0  0  0  0  0
  148.8145  140.1616  157.3043 C   0  0  0  0  0  0  0  0  0  0  0  0
  149.4024  141.3710  157.4232 N   0  0  0  0  0  0  0  0  0  0  0  0
  149.2206  135.8686  161.2392 H   0  0  0  0  0  0  0  0  0  0  0  0
  151.3205  143.9121  162.5787 H   0  0  0  0  0  0  0  0  0  0  0  0
  152.9904  144.1751  162.0751 H   0  0  0  0  0  0  0  0  0  0  0  0
  152.1462  142.6844  161.6182 H   0  0  0  0  0  0  0  0  0  0  0  0
  152.1315  144.9022  158.6891 H   0  0  0  0  0  0  0  0  0  0  0  0
  153.4573  144.4815  159.7672 H   0  0  0  0  0  0  0  0  0  0  0  0
  153.2948  142.4968  158.5140 H   0  0  0  0  0  0  0  0  0  0  0  0
  152.2031  142.1172  159.8480 H   0  0  0  0  0  0  0  0  0  0  0  0
  152.3277  140.3676  158.8261 H   0  0  0  0  0  0  0  0  0  0  0  0
  151.2283  138.1343  158.6019 H   0  0  0  0  0  0  0  0  0  0  0  0
  147.6485  137.8081  157.3629 H   0  0  0  0  0  0  0  0  0  0  0  0
  149.0972  137.0923  156.7063 H   0  0  0  0  0  0  0  0  0  0  0  0
  149.5686  136.1673  158.8287 H   0  0  0  0  0  0  0  0  0  0  0  0
  147.7096  136.8472  162.8122 H   0  0  0  0  0  0  0  0  0  0  0  0
  146.3040  136.5229  161.8053 H   0  0  0  0  0  0  0  0  0  0  0  0
  147.8360  134.5845  163.5023 H   0  0  0  0  0  0  0  0  0  0  0  0
  146.0894  134.7218  163.3268 H   0  0  0  0  0  0  0  0  0  0  0  0
  147.5891  132.8364  161.9868 H   0  0  0  0  0  0  0  0  0  0  0  0
  146.1268  133.5283  161.2743 H   0  0  0  0  0  0  0  0  0  0  0  0
  146.8064  132.2121  159.2929 H   0  0  0  0  0  0  0  0  0  0  0  0
  148.3250  131.6647  160.0271 H   0  0  0  0  0  0  0  0  0  0  0  0
  148.2290  131.9430  158.2898 H   0  0  0  0  0  0  0  0  0  0  0  0
  147.8230  140.1579  156.8758 H   0  0  0  0  0  0  0  0  0  0  0  0
  1  2  1  0  0  0  0
  1 25  1  0  0  0  0
  1 26  1  0  0  0  0
  1 27  1  0  0  0  0
  2  3  1  0  0  0  0
  3  4  1  0  0  0  0
  3 28  1  0  0  0  0
  3 29  1  0  0  0  0
  4  5  1  0  0  0  0
  4 30  1  0  0  0  0
  4 31  1  0  0  0  0
  5  6  1  0  0  0  0
  6 23  1  0  0  0  0
  6  7  2  0  0  0  0
  7  8  1  0  0  0  0
  7 32  1  0  0  0  0
  8  9  2  0  0  0  0
  8 33  1  0  0  0  0
  9 10  1  0  0  0  0
  9 22  1  0  0  0  0
 10 11  1  0  0  0  0
 10 34  1  0  0  0  0
 10 35  1  0  0  0  0
 11 12  1  0  0  0  0
 11 36  1  0  0  0  0
 12 13  2  0  0  0  0
 12 14  1  0  0  0  0
 14 24  1  0  0  0  0
 14 18  1  0  0  0  0
 14 15  1  0  0  0  0
 15 16  1  0  0  0  0
 15 37  1  0  0  0  0
 15 38  1  0  0  0  0
 16 17  1  0  0  0  0
 16 39  1  0  0  0  0
 16 40  1  0  0  0  0
 17 18  1  0  0  0  0
 17 41  1  0  0  0  0
 17 42  1  0  0  0  0
 18 19  1  0  0  0  0
 19 20  1  0  0  0  0
 19 21  2  0  0  0  0
 20 43  1  0  0  0  0
 20 44  1  0  0  0  0
 20 45  1  0  0  0  0
 22 23  2  0  0  0  0
 22 46  1  0  0  0  0
M  END
> <s_m_source_file>
AV-unprocessed.smi

> <i_m_source_file_index>
847

> <i_lp_mmshare_version>
43012

> <i_f3d_flags>
0

> <s_epik_input>
W0NIM11PW0NIMl1bQ0gyXU9jMVtjSF1bY0hdYyhbY0hdbjEpW0NIMl1bTkhdQyg9TylbQ0BASF0yW0NIMl1bQ0gyXVtDSDJdTjJDKD1PKVtDSDNd

> <s_epik_cmdline>
J2VwaWtfcHl0aG9uJywgJy1waCcsICc3LjAnLCAnLXRuJywgJzgnLCAnLW1hJywgJzIwMCcsICctbWV0YWxfYmluZGluZycsICctaW1hZScsICc8aW5maWxlLm1hZT4nLCAnLW9tYWUnLCAnPG91dGZpbGUubWFlPic=

> <r_lp_tautomer_probability>
1

> <r_epik_Ionization_Penalty>
6.04138e-05

> <r_epik_Ionization_Penalty_Charging>
0

> <r_epik_Ionization_Penalty_Neutral>
6.04138e-05

> <r_epik_State_Penalty>
-0

> <r_epik_Charging_Adjusted_Penalty>
0

> <i_epik_Tot_Q>
0

> <i_epik_Tot_abs_Q>
0

> <r_epik_Metal_State_Penalty>
-0

> <b_epik_Metal_Only>
0

> <s_lp_Force_Field>
OPLS_2005

> <r_lp_Energy>
14.1261

> <b_lp_Chiralities_Consistent>
1

> <s_lp_Variant>
AV-unprocessed.smi:847-2

> <Gold.Version>
5.8.1

> <Gold.Id.Protein>
6NUR|6NUR_protein|mol2

> <Gold.PLP.Fitness>
43.2765

> <Gold.PLP.PLP>
-39.5612

> <Gold.PLP.part.hbond>
-2.0000

> <Gold.PLP.part.metal>
0.0000

> <Gold.PLP.part.buried>
-6.3973

> <Gold.PLP.part.nonpolar>
-32.3639

> <Gold.PLP.part.repulsive>
0.4063

> <Gold.PLP.ligand.clash>
0.0000

> <Gold.PLP.ligand.torsion>
1.1894

> <Gold.PLP.Chemscore.Hbond>
2.0000

> <Gold.PLP.Chemscore.CHOScore>
0.0000

> <Gold.PLP.Chemscore.Metal>
0.0000

> <Gold.Chemscore.Hbonds>
donor molecule, donor type, donor heavy atom, donor atom, acceptor molecule, acceptor atom, score
      P1  H  6896  6909       L1    21  1.00
      P1  H  6934  6947       L1    13  1.00

> <Gold.PLP.Chemscore.Internal.Correction>
0.0941

> <Gold.Rescore>
     Score         DG    S(hbond)    S(metal)    S(lipo)     H(rot)  DE(clash)    DE(int)     intcor
     12.69     -16.46       1.90        0.00      90.15       2.31       0.02       3.75       ----

> <Gold.Chemscore.Fitness>
12.6858

> <Gold.Chemscore.DG>
-16.4558

> <Gold.Chemscore.ZeroCoef>
-5.4800

> <Gold.Chemscore.Hbond>
1.8959

> <Gold.Chemscore.Metal>
0.0000

> <Gold.Chemscore.Lipo>
90.1482

> <Gold.Chemscore.Internal_Hbond>
0.0000

> <Gold.Chemscore.DEClash>
0.0246

> <Gold.Chemscore.DEInternal>
3.7453

> <Gold.Chemscore.Rot>
2.3062

> <Gold.Chemscore.Internal.Correction>
   9.000000E+99

> <Gold.Chemscore.Hbonds>
donor molecule, donor type, donor heavy atom, donor atom, acceptor molecule, acceptor atom, score
      P1  H  6896  6909       L1    21  0.29
      P1  H  6934  6947       L1    13  0.86

> <Gold.Chemscore.Hbond.Weighted>
-6.3323

> <Gold.Chemscore.Metal.Weighted>
-0.0000

> <Gold.Chemscore.Lipo.Weighted>
-10.5473

> <Gold.Chemscore.Internal_Hbond.Weighted>
0.0000

> <Gold.Chemscore.DEClash.Weighted>
0.0246

> <Gold.Chemscore.DEInternal.Weighted>
3.7453

> <Gold.Chemscore.Rot.Weighted>
5.9038

> <Gold.Chemscore.Internal.Correction.Weighted>
   9.000000E+99

> <Gold.Protein.RotatedTorsions>
[ 6907 6896 6895 6894 ] final    8.30 input  -60.11 | X-H torsion
[ 7974 7965 7964 7962 ] final  160.46 input  175.53 | X-H torsion
[ 8008 7997 7996 7995 ] final   53.17 input   59.86 | X-H torsion
[ 10167 10162 10161 10158 ] final  177.63 input  -65.29 | X-H torsion
[ 10718 10713 10712 10709 ] final  -34.51 input   66.30 | X-H torsion
[ 10763 10752 10751 10750 ] final -169.39 input  -60.55 | X-H torsion
[ 11005 11000 10999 10996 ] final -166.05 input  -57.11 | X-H torsion

> <Gold.Protein.ActiveResidues>
 VAL166  LYS551  ARG553  GLY616  TRP617  ASP618  TYR619  PRO620  LYS621  CYS622 
 ASP623  PHE694  ASN695  SER759  ASP760  ASP761  ALA762  ILE779  LEU786  VAL792 
 PHE793  MET794  SER795  GLU796  ALA797  LYS798  CYS799  TRP800  GLU811  SER814 

> <Gold.Protein.RotatedAtoms>
  151.7037  135.0925  160.0255 H   0  0  0  0  0  0  0  0  0  0  0  0  # atno 6907 bound_to 6896
  152.3704  133.6408  159.6091 H   0  0  0  0  0  0  0  0  0  0  0  0  # atno 6908 bound_to 6896
  150.7669  133.9195  159.3435 H   0  0  0  0  0  0  0  0  0  0  0  0  # atno 6909 bound_to 6896
  144.7735  139.7761  143.6287 H   0  0  0  0  0  0  0  0  0  0  0  0  # atno 7974 bound_to 7965
  155.4639  140.3463  155.4316 H   0  0  0  0  0  0  0  0  0  0  0  0  # atno 8008 bound_to 7997
  156.1143  140.1469  156.9323 H   0  0  0  0  0  0  0  0  0  0  0  0  # atno 8009 bound_to 7997
  154.4778  140.0879  156.7284 H   0  0  0  0  0  0  0  0  0  0  0  0  # atno 8010 bound_to 7997
  139.5261  144.2776  152.0575 H   0  0  0  0  0  0  0  0  0  0  0  0  # atno 10167 bound_to 10162
  156.3498  130.4306  149.7714 H   0  0  0  0  0  0  0  0  0  0  0  0  # atno 10718 bound_to 10713
  154.6528  135.2914  154.9965 H   0  0  0  0  0  0  0  0  0  0  0  0  # atno 10763 bound_to 10752
  154.1052  135.6571  153.4879 H   0  0  0  0  0  0  0  0  0  0  0  0  # atno 10764 bound_to 10752
  153.0386  135.5252  154.7444 H   0  0  0  0  0  0  0  0  0  0  0  0  # atno 10765 bound_to 10752
  140.5689  134.5258  157.5158 H   0  0  0  0  0  0  0  0  0  0  0  0  # atno 11005 bound_to 11000
  146.1899  139.5134  142.9812 LP  0  0  0  0  0  0  0  0  0  0  0  0  # atno 17320 bound_to 7965
  145.6253  141.0315  143.1893 LP  0  0  0  0  0  0  0  0  0  0  0  0  # atno 17321 bound_to 7965
  140.2232  144.4444  150.6332 LP  0  0  0  0  0  0  0  0  0  0  0  0  # atno 17342 bound_to 10162
  140.6404  143.2202  151.6302 LP  0  0  0  0  0  0  0  0  0  0  0  0  # atno 17343 bound_to 10162
  156.4919  130.8089  151.3098 LP  0  0  0  0  0  0  0  0  0  0  0  0  # atno 17370 bound_to 10713
  157.7459  130.9972  150.2809 LP  0  0  0  0  0  0  0  0  0  0  0  0  # atno 17371 bound_to 10713
  139.9371  134.7854  156.0773 LP  0  0  0  0  0  0  0  0  0  0  0  0  # atno 17394 bound_to 11000
  141.1069  133.6657  156.2884 LP  0  0  0  0  0  0  0  0  0  0  0  0  # atno 17395 bound_to 11000

$$$$
