AV-unprocessed.smi:1334|AV-procd|sdf|5492|dock10
  -GOLD-   22720 5 73D 1   1.00000     0.00000
 Structure written by MMmdl.
 38 39  0  0  0  0  0  0  0  0  1 V2000
  147.4803  139.3248  153.6974 C   0  0  0  0  0  0  0  0  0  0  0  0
  147.9716  140.7839  153.7812 C   0  0  2  0  0  0  0  0  0  0  0  0
  149.3413  140.8958  154.4656 C   0  0  0  0  0  0  0  0  0  0  0  0
  150.2829  140.1964  154.0901 O   0  0  0  0  0  0  0  0  0  0  0  0
  149.4287  141.7689  155.4822 N   0  0  0  0  0  0  0  0  0  0  0  0
  150.6020  141.9741  156.3280 C   0  0  0  0  0  0  0  0  0  0  0  0
  150.2883  141.7203  157.8152 C   0  0  0  0  0  0  0  0  0  0  0  0
  151.0086  142.6520  158.7813 C   0  0  0  0  0  0  0  0  0  0  0  0
  151.8058  142.1800  159.7601 C   0  0  0  0  0  0  0  0  0  0  0  0
  152.5120  143.0505  160.7846 C   0  0  0  0  0  0  0  0  0  0  0  0
  151.9811  144.4935  160.7987 C   0  0  0  0  0  0  0  0  0  0  0  0
  151.7532  145.0180  159.3762 C   0  0  0  0  0  0  0  0  0  0  0  0
  150.7435  144.1441  158.6117 C   0  0  0  0  0  0  0  0  0  0  0  0
  147.0111  141.6567  154.4458 N   0  0  0  0  0  0  0  0  0  0  0  0
  146.3051  142.6799  153.9602 C   0  0  0  0  0  0  0  0  0  0  0  0
  145.5479  143.2891  154.8617 N   0  0  0  0  0  0  0  0  0  0  0  0
  145.8695  142.5517  155.9652 C   0  0  0  0  0  0  0  0  0  0  0  0
  146.7493  141.5692  155.7743 N   0  0  0  0  0  0  0  0  0  0  0  0
  148.1884  138.7041  153.1473 H   0  0  0  0  0  0  0  0  0  0  0  0
  146.5239  139.2673  153.1770 H   0  0  0  0  0  0  0  0  0  0  0  0
  147.3472  138.8768  154.6830 H   0  0  0  0  0  0  0  0  0  0  0  0
  148.0763  141.1473  152.7573 H   0  0  0  0  0  0  0  0  0  0  0  0
  148.6050  142.3041  155.7157 H   0  0  0  0  0  0  0  0  0  0  0  0
  151.4327  141.3390  156.0174 H   0  0  0  0  0  0  0  0  0  0  0  0
  150.9467  143.0000  156.1961 H   0  0  0  0  0  0  0  0  0  0  0  0
  149.2143  141.8014  157.9847 H   0  0  0  0  0  0  0  0  0  0  0  0
  150.5534  140.6901  158.0572 H   0  0  0  0  0  0  0  0  0  0  0  0
  151.9765  141.1169  159.8479 H   0  0  0  0  0  0  0  0  0  0  0  0
  152.3972  142.6058  161.7732 H   0  0  0  0  0  0  0  0  0  0  0  0
  153.5776  143.0419  160.5587 H   0  0  0  0  0  0  0  0  0  0  0  0
  151.0382  144.5285  161.3458 H   0  0  0  0  0  0  0  0  0  0  0  0
  152.6747  145.1403  161.3368 H   0  0  0  0  0  0  0  0  0  0  0  0
  151.4057  146.0510  159.4035 H   0  0  0  0  0  0  0  0  0  0  0  0
  152.7030  145.0266  158.8401 H   0  0  0  0  0  0  0  0  0  0  0  0
  150.7706  144.4159  157.5571 H   0  0  0  0  0  0  0  0  0  0  0  0
  149.7310  144.3482  158.9615 H   0  0  0  0  0  0  0  0  0  0  0  0
  146.3485  142.9879  152.9257 H   0  0  0  0  0  0  0  0  0  0  0  0
  145.4491  142.7504  156.9398 H   0  0  0  0  0  0  0  0  0  0  0  0
  1  2  1  0  0  0  0
  1 19  1  0  0  0  0
  1 20  1  0  0  0  0
  1 21  1  0  0  0  0
  2  3  1  0  0  0  0
  2 14  1  0  0  0  0
  2 22  1  0  0  0  0
  3  4  2  0  0  0  0
  3  5  1  0  0  0  0
  5  6  1  0  0  0  0
  5 23  1  0  0  0  0
  6  7  1  0  0  0  0
  6 24  1  0  0  0  0
  6 25  1  0  0  0  0
  7  8  1  0  0  0  0
  7 26  1  0  0  0  0
  7 27  1  0  0  0  0
  8 13  1  0  0  0  0
  8  9  2  0  0  0  0
  9 10  1  0  0  0  0
  9 28  1  0  0  0  0
 10 11  1  0  0  0  0
 10 29  1  0  0  0  0
 10 30  1  0  0  0  0
 11 12  1  0  0  0  0
 11 31  1  0  0  0  0
 11 32  1  0  0  0  0
 12 13  1  0  0  0  0
 12 33  1  0  0  0  0
 12 34  1  0  0  0  0
 13 35  1  0  0  0  0
 13 36  1  0  0  0  0
 14 18  1  0  0  0  0
 14 15  1  0  0  0  0
 15 16  2  0  0  0  0
 15 37  1  0  0  0  0
 16 17  1  0  0  0  0
 17 18  2  0  0  0  0
 17 38  1  0  0  0  0
M  END
> <s_m_source_file>
AV-unprocessed.smi

> <i_m_source_file_index>
1334

> <i_lp_mmshare_version>
43012

> <i_f3d_flags>
0

> <s_epik_input>
bjFbY0hdbltjSF1uMVtDQEhdKFtDSDNdKUMoPU8pW05IXVtDSDJdW0NIMl1DMj1bQ0hdW0NIMl1bQ0gyXVtDSDJdW0NIMl0y

> <s_epik_cmdline>
J2VwaWtfcHl0aG9uJywgJy1waCcsICc3LjAnLCAnLXRuJywgJzgnLCAnLW1hJywgJzIwMCcsICctbWV0YWxfYmluZGluZycsICctaW1hZScsICc8aW5maWxlLm1hZT4nLCAnLW9tYWUnLCAnPG91dGZpbGUubWFlPic=

> <r_lp_tautomer_probability>
1

> <r_epik_Ionization_Penalty>
1.26383e-05

> <r_epik_Ionization_Penalty_Charging>
0

> <r_epik_Ionization_Penalty_Neutral>
1.26383e-05

> <r_epik_State_Penalty>
-0

> <r_epik_Charging_Adjusted_Penalty>
0

> <i_epik_Tot_Q>
0

> <i_epik_Tot_abs_Q>
0

> <r_epik_Metal_State_Penalty>
-0

> <b_epik_Metal_Only>
0

> <s_lp_Force_Field>
OPLS_2005

> <r_lp_Energy>
12.0281

> <b_lp_Chiralities_Consistent>
1

> <s_lp_Variant>
AV-unprocessed.smi:1334-1

> <Gold.Version>
5.8.1

> <Gold.Id.Protein>
6NUR|6NUR_protein|mol2

> <Gold.PLP.Fitness>
44.5875

> <Gold.PLP.PLP>
-41.8459

> <Gold.PLP.part.hbond>
-2.0000

> <Gold.PLP.part.metal>
0.0000

> <Gold.PLP.part.buried>
-5.4124

> <Gold.PLP.part.nonpolar>
-35.2813

> <Gold.PLP.part.repulsive>
1.3776

> <Gold.PLP.ligand.clash>
0.0000

> <Gold.PLP.ligand.torsion>
0.3929

> <Gold.PLP.Chemscore.Hbond>
1.1383

> <Gold.PLP.Chemscore.CHOScore>
0.0000

> <Gold.PLP.Chemscore.Metal>
0.0000

> <Gold.Chemscore.Hbonds>
donor molecule, donor type, donor heavy atom, donor atom, acceptor molecule, acceptor atom, score
      L1  H     5    23       P1  8028  0.01
      P1  H  7989  7998       L1     4  0.98

> <Gold.PLP.Chemscore.Internal.Correction>
0.1125

> <Gold.Rescore>
     Score         DG    S(hbond)    S(metal)    S(lipo)     H(rot)  DE(clash)    DE(int)     intcor
     12.07     -13.92       1.08        0.00      93.85       2.40       0.09       1.77       ----

> <Gold.Chemscore.Fitness>
12.0705

> <Gold.Chemscore.DG>
-13.9249

> <Gold.Chemscore.ZeroCoef>
-5.4800

> <Gold.Chemscore.Hbond>
1.0812

> <Gold.Chemscore.Metal>
0.0000

> <Gold.Chemscore.Lipo>
93.8515

> <Gold.Chemscore.Internal_Hbond>
0.0000

> <Gold.Chemscore.DEClash>
0.0890

> <Gold.Chemscore.DEInternal>
1.7654

> <Gold.Chemscore.Rot>
2.4011

> <Gold.Chemscore.Internal.Correction>
   9.000000E+99

> <Gold.Chemscore.Hbonds>
donor molecule, donor type, donor heavy atom, donor atom, acceptor molecule, acceptor atom, score
      L1  H     5    23       P1  8028  0.02
      P1  H  7989  7998       L1     4  0.90

> <Gold.Chemscore.Hbond.Weighted>
-3.6112

> <Gold.Chemscore.Metal.Weighted>
-0.0000

> <Gold.Chemscore.Lipo.Weighted>
-10.9806

> <Gold.Chemscore.Internal_Hbond.Weighted>
0.0000

> <Gold.Chemscore.DEClash.Weighted>
0.0890

> <Gold.Chemscore.DEInternal.Weighted>
1.7654

> <Gold.Chemscore.Rot.Weighted>
6.1469

> <Gold.Chemscore.Internal.Correction.Weighted>
   9.000000E+99

> <Gold.Protein.RotatedTorsions>
[ 6907 6896 6895 6894 ] final  -35.06 input  -60.11 | X-H torsion
[ 7974 7965 7964 7962 ] final  128.52 input  175.53 | X-H torsion
[ 8008 7997 7996 7995 ] final   86.17 input   59.86 | X-H torsion
[ 10167 10162 10161 10158 ] final   27.93 input  -65.29 | X-H torsion
[ 10718 10713 10712 10709 ] final -133.25 input   66.30 | X-H torsion
[ 10763 10752 10751 10750 ] final   98.32 input  -60.55 | X-H torsion
[ 11005 11000 10999 10996 ] final   19.96 input  -57.11 | X-H torsion

> <Gold.Protein.ActiveResidues>
 VAL166  LYS551  ARG553  GLY616  TRP617  ASP618  TYR619  PRO620  LYS621  CYS622 
 ASP623  PHE694  ASN695  SER759  ASP760  ASP761  ALA762  ILE779  LEU786  VAL792 
 PHE793  MET794  SER795  GLU796  ALA797  LYS798  CYS799  TRP800  GLU811  SER814 

> <Gold.Protein.RotatedAtoms>
  151.0447  134.9631  159.8179 H   0  0  0  0  0  0  0  0  0  0  0  0  # atno 6907 bound_to 6896
  152.5370  134.2614  159.8946 H   0  0  0  0  0  0  0  0  0  0  0  0  # atno 6908 bound_to 6896
  151.2627  133.4251  159.2651 H   0  0  0  0  0  0  0  0  0  0  0  0  # atno 6909 bound_to 6896
  145.0387  139.3982  143.5113 H   0  0  0  0  0  0  0  0  0  0  0  0  # atno 7974 bound_to 7965
  155.9594  140.3394  155.6477 H   0  0  0  0  0  0  0  0  0  0  0  0  # atno 8008 bound_to 7997
  155.6818  140.0738  157.2500 H   0  0  0  0  0  0  0  0  0  0  0  0  # atno 8009 bound_to 7997
  154.4139  140.1673  156.1978 H   0  0  0  0  0  0  0  0  0  0  0  0  # atno 8010 bound_to 7997
  140.4896  144.0487  150.6292 H   0  0  0  0  0  0  0  0  0  0  0  0  # atno 10167 bound_to 10162
  156.2430  130.7107  151.0976 H   0  0  0  0  0  0  0  0  0  0  0  0  # atno 10718 bound_to 10713
  153.2876  135.4152  155.1137 H   0  0  0  0  0  0  0  0  0  0  0  0  # atno 10763 bound_to 10752
  154.8510  135.3510  154.6025 H   0  0  0  0  0  0  0  0  0  0  0  0  # atno 10764 bound_to 10752
  153.6447  135.7055  153.5287 H   0  0  0  0  0  0  0  0  0  0  0  0  # atno 10765 bound_to 10752
  140.4079  134.1649  155.7666 H   0  0  0  0  0  0  0  0  0  0  0  0  # atno 11005 bound_to 11000
  146.3507  139.9975  142.8679 LP  0  0  0  0  0  0  0  0  0  0  0  0  # atno 17320 bound_to 7965
  145.1676  140.9705  143.4340 LP  0  0  0  0  0  0  0  0  0  0  0  0  # atno 17321 bound_to 7965
  140.3752  143.2832  152.0232 LP  0  0  0  0  0  0  0  0  0  0  0  0  # atno 17342 bound_to 10162
  139.4849  144.6198  151.7277 LP  0  0  0  0  0  0  0  0  0  0  0  0  # atno 17343 bound_to 10162
  157.7183  131.0697  150.6238 LP  0  0  0  0  0  0  0  0  0  0  0  0  # atno 17370 bound_to 10713
  156.6313  130.4432  149.5786 LP  0  0  0  0  0  0  0  0  0  0  0  0  # atno 17371 bound_to 10713
  141.1832  133.8369  157.1182 LP  0  0  0  0  0  0  0  0  0  0  0  0  # atno 17394 bound_to 11000
  140.0289  134.9911  157.0740 LP  0  0  0  0  0  0  0  0  0  0  0  0  # atno 17395 bound_to 11000

$$$$
