AV-unprocessed.smi:670|AV-procd|sdf|3269|dock3
  -GOLD-   22720 0223D 1   1.00000     0.00000
 Structure written by MMmdl.
 45 46  0  0  0  0  0  0  0  0  1 V2000
  153.8911  140.7144  160.3513 C   0  0  0  0  0  0  0  0  0  0  0  0
  153.3045  141.8896  159.5523 C   0  0  2  0  0  0  0  0  0  0  0  0
  152.9248  143.0507  160.4933 C   0  0  0  0  0  0  0  0  0  0  0  0
  152.3351  144.2402  159.7208 C   0  0  0  0  0  0  0  0  0  0  0  0
  151.1240  143.8058  158.8845 C   0  0  0  0  0  0  0  0  0  0  0  0
  151.4931  142.6564  157.9353 C   0  0  0  0  0  0  0  0  0  0  0  0
  152.0896  141.4553  158.7008 C   0  0  1  0  0  0  0  0  0  0  0  0
  152.5417  140.4732  157.7775 O   0  0  0  0  0  0  0  0  0  0  0  0
  151.5113  139.7529  157.1168 C   0  0  0  0  0  0  0  0  0  0  0  0
  151.4920  138.3085  157.6359 C   0  0  0  0  0  0  0  0  0  0  0  0
  150.2158  137.9844  158.2646 N   0  0  0  0  0  0  0  0  0  0  0  0
  150.0139  136.9818  159.1330 C   0  0  0  0  0  0  0  0  0  0  0  0
  150.9067  136.2171  159.5016 O   0  0  0  0  0  0  0  0  0  0  0  0
  148.5742  136.8099  159.6389 C   0  0  0  0  0  0  0  0  0  0  0  0
  148.3983  135.6342  160.5039 N   0  0  0  0  0  0  0  0  0  0  0  0
  148.6565  134.4246  159.8766 N   0  0  0  0  0  0  0  0  0  0  0  0
  148.5537  133.3210  160.5369 C   0  0  0  0  0  0  0  0  0  0  0  0
  148.8218  132.1455  159.8790 O   0  0  0  0  0  0  0  0  0  0  0  0
  148.1666  133.3157  161.9307 C   0  0  0  0  0  0  0  0  0  0  0  0
  147.9106  134.4986  162.5312 C   0  0  0  0  0  0  0  0  0  0  0  0
  148.0182  135.7692  161.8117 C   0  0  0  0  0  0  0  0  0  0  0  0
  147.7890  136.8605  162.3331 O   0  0  0  0  0  0  0  0  0  0  0  0
  147.9804  131.8087  159.6124 H   0  0  0  0  0  0  0  0  0  0  0  0
  153.1545  140.2939  161.0363 H   0  0  0  0  0  0  0  0  0  0  0  0
  154.7518  141.0315  160.9408 H   0  0  0  0  0  0  0  0  0  0  0  0
  154.2270  139.9138  159.6916 H   0  0  0  0  0  0  0  0  0  0  0  0
  154.0812  142.2489  158.8750 H   0  0  0  0  0  0  0  0  0  0  0  0
  152.2011  142.7044  161.2324 H   0  0  0  0  0  0  0  0  0  0  0  0
  153.8016  143.3802  161.0519 H   0  0  0  0  0  0  0  0  0  0  0  0
  152.0444  145.0282  160.4160 H   0  0  0  0  0  0  0  0  0  0  0  0
  153.0972  144.6682  159.0685 H   0  0  0  0  0  0  0  0  0  0  0  0
  150.3159  143.4898  159.5456 H   0  0  0  0  0  0  0  0  0  0  0  0
  150.7437  144.6528  158.3131 H   0  0  0  0  0  0  0  0  0  0  0  0
  150.6056  142.3573  157.3787 H   0  0  0  0  0  0  0  0  0  0  0  0
  152.2135  143.0123  157.1976 H   0  0  0  0  0  0  0  0  0  0  0  0
  151.3345  141.0286  159.3640 H   0  0  0  0  0  0  0  0  0  0  0  0
  150.5498  140.2252  157.3225 H   0  0  0  0  0  0  0  0  0  0  0  0
  151.6518  139.7585  156.0358 H   0  0  0  0  0  0  0  0  0  0  0  0
  151.7258  137.6076  156.8326 H   0  0  0  0  0  0  0  0  0  0  0  0
  152.2707  138.1841  158.3883 H   0  0  0  0  0  0  0  0  0  0  0  0
  149.4251  138.5598  158.0134 H   0  0  0  0  0  0  0  0  0  0  0  0
  148.2605  137.7120  160.1678 H   0  0  0  0  0  0  0  0  0  0  0  0
  147.9188  136.7387  158.7689 H   0  0  0  0  0  0  0  0  0  0  0  0
  148.0854  132.3838  162.4707 H   0  0  0  0  0  0  0  0  0  0  0  0
  147.6196  134.5098  163.5712 H   0  0  0  0  0  0  0  0  0  0  0  0
  1  2  1  0  0  0  0
  1 24  1  0  0  0  0
  1 25  1  0  0  0  0
  1 26  1  0  0  0  0
  2  7  1  0  0  0  0
  2  3  1  0  0  0  0
  2 27  1  0  0  0  0
  3  4  1  0  0  0  0
  3 28  1  0  0  0  0
  3 29  1  0  0  0  0
  4  5  1  0  0  0  0
  4 30  1  0  0  0  0
  4 31  1  0  0  0  0
  5  6  1  0  0  0  0
  5 32  1  0  0  0  0
  5 33  1  0  0  0  0
  6  7  1  0  0  0  0
  6 34  1  0  0  0  0
  6 35  1  0  0  0  0
  7  8  1  0  0  0  0
  7 36  1  0  0  0  0
  8  9  1  0  0  0  0
  9 10  1  0  0  0  0
  9 37  1  0  0  0  0
  9 38  1  0  0  0  0
 10 11  1  0  0  0  0
 10 39  1  0  0  0  0
 10 40  1  0  0  0  0
 11 12  1  0  0  0  0
 11 41  1  0  0  0  0
 12 13  2  0  0  0  0
 12 14  1  0  0  0  0
 14 42  1  0  0  0  0
 14 43  1  0  0  0  0
 14 15  1  0  0  0  0
 15 16  1  0  0  0  0
 15 21  1  0  0  0  0
 16 17  2  0  0  0  0
 17 18  1  0  0  0  0
 17 19  1  0  0  0  0
 18 23  1  0  0  0  0
 19 44  1  0  0  0  0
 19 20  2  0  0  0  0
 20 45  1  0  0  0  0
 20 21  1  0  0  0  0
 21 22  2  0  0  0  0
M  END
> <s_m_source_file>
AV-unprocessed.smi

> <i_m_source_file_index>
670

> <i_lp_mmshare_version>
43012

> <i_f3d_flags>
0

> <s_epik_input>
W0NIM11bQ0BASF0xW0NIMl1bQ0gyXVtDSDJdW0NIMl1bQ0BIXTFPW0NIMl1bQ0gyXVtOSF1DKD1PKVtDSDJdbjJbbkhdYyg9TylbY0hdW2NIXWMyPU8=

> <s_epik_cmdline>
J2VwaWtfcHl0aG9uJywgJy1waCcsICc3LjAnLCAnLXRuJywgJzgnLCAnLW1hJywgJzIwMCcsICctbWV0YWxfYmluZGluZycsICctaW1hZScsICc8aW5maWxlLm1hZT4nLCAnLW9tYWUnLCAnPG91dGZpbGUubWFlPic=

> <r_lp_tautomer_probability>
0.9996

> <r_epik_Ionization_Penalty>
2.12726

> <r_epik_Ionization_Penalty_Charging>
3.83395e-08

> <r_epik_Ionization_Penalty_Neutral>
2.12726

> <r_epik_State_Penalty>
1.70432

> <r_epik_Charging_Adjusted_Penalty>
1.70432

> <i_epik_Tot_Q>
0

> <i_epik_Tot_abs_Q>
0

> <r_epik_Metal_State_Penalty>
1.70432

> <b_epik_Metal_Only>
0

> <s_lp_Force_Field>
OPLS_2005

> <r_lp_Energy>
21.1157

> <b_lp_Chiralities_Consistent>
1

> <s_lp_Variant>
AV-unprocessed.smi:670-5

> <Gold.Version>
5.8.1

> <Gold.Id.Protein>
6NUR|6NUR_protein|mol2

> <Gold.PLP.Fitness>
51.2686

> <Gold.PLP.PLP>
-44.2039

> <Gold.PLP.part.hbond>
-4.0000

> <Gold.PLP.part.metal>
0.0000

> <Gold.PLP.part.buried>
-3.6480

> <Gold.PLP.part.nonpolar>
-35.9063

> <Gold.PLP.part.repulsive>
0.1021

> <Gold.PLP.ligand.clash>
0.0000

> <Gold.PLP.ligand.torsion>
0.9688

> <Gold.PLP.Chemscore.Hbond>
2.9909

> <Gold.PLP.Chemscore.CHOScore>
0.0000

> <Gold.PLP.Chemscore.Metal>
0.0000

> <Gold.Chemscore.Hbonds>
donor molecule, donor type, donor heavy atom, donor atom, acceptor molecule, acceptor atom, score
      P1  H  6896  6909       L1    13  0.28
      P1  H  6931  6943       L1    22  1.00
      P1  H  7997  8008       L1     8  0.59

> <Gold.PLP.Chemscore.Internal.Correction>
0.0295

> <Gold.Rescore>
     Score         DG    S(hbond)    S(metal)    S(lipo)     H(rot)  DE(clash)    DE(int)     intcor
     18.74     -20.85       3.58        0.00      96.71       3.09       0.18       1.93       ----

> <Gold.Chemscore.Fitness>
18.7414

> <Gold.Chemscore.DG>
-20.8518

> <Gold.Chemscore.ZeroCoef>
-5.4800

> <Gold.Chemscore.Hbond>
3.5830

> <Gold.Chemscore.Metal>
0.0000

> <Gold.Chemscore.Lipo>
96.7104

> <Gold.Chemscore.Internal_Hbond>
0.0000

> <Gold.Chemscore.DEClash>
0.1793

> <Gold.Chemscore.DEInternal>
1.9310

> <Gold.Chemscore.Rot>
3.0901

> <Gold.Chemscore.Internal.Correction>
   9.000000E+99

> <Gold.Chemscore.Hbonds>
donor molecule, donor type, donor heavy atom, donor atom, acceptor molecule, acceptor atom, score
      P1  H  6896  6909       L1    13  0.26
      P1  H  6931  6943       L1    22  0.90
      P1  H  7997  8008       L1     8  0.40

> <Gold.Chemscore.Hbond.Weighted>
-11.9673

> <Gold.Chemscore.Metal.Weighted>
-0.0000

> <Gold.Chemscore.Lipo.Weighted>
-11.3151

> <Gold.Chemscore.Internal_Hbond.Weighted>
0.0000

> <Gold.Chemscore.DEClash.Weighted>
0.1793

> <Gold.Chemscore.DEInternal.Weighted>
1.9310

> <Gold.Chemscore.Rot.Weighted>
7.9106

> <Gold.Chemscore.Internal.Correction.Weighted>
   9.000000E+99

> <Gold.Protein.RotatedTorsions>
[ 6907 6896 6895 6894 ] final  109.94 input  -60.11 | X-H torsion
[ 7974 7965 7964 7962 ] final  112.91 input  175.53 | X-H torsion
[ 8008 7997 7996 7995 ] final  -67.03 input   59.86 | X-H torsion
[ 10167 10162 10161 10158 ] final -151.50 input  -65.29 | X-H torsion
[ 10718 10713 10712 10709 ] final  141.67 input   66.30 | X-H torsion
[ 10763 10752 10751 10750 ] final   15.86 input  -60.55 | X-H torsion
[ 11005 11000 10999 10996 ] final   93.97 input  -57.11 | X-H torsion

> <Gold.Protein.ActiveResidues>
 VAL166  LYS551  ARG553  GLY616  TRP617  ASP618  TYR619  PRO620  LYS621  CYS622 
 ASP623  PHE694  ASN695  SER759  ASP760  ASP761  ALA762  ILE779  LEU786  VAL792 
 PHE793  MET794  SER795  GLU796  ALA797  LYS798  CYS799  TRP800  GLU811  SER814 

> <Gold.Protein.RotatedAtoms>
  152.5044  133.8872  159.7375 H   0  0  0  0  0  0  0  0  0  0  0  0  # atno 6907 bound_to 6896
  150.9320  133.6747  159.2815 H   0  0  0  0  0  0  0  0  0  0  0  0  # atno 6908 bound_to 6896
  151.4088  135.0987  159.9631 H   0  0  0  0  0  0  0  0  0  0  0  0  # atno 6909 bound_to 6896
  145.2236  139.2851  143.4205 H   0  0  0  0  0  0  0  0  0  0  0  0  # atno 7974 bound_to 7965
  154.4773  140.0901  156.7292 H   0  0  0  0  0  0  0  0  0  0  0  0  # atno 8008 bound_to 7997
  155.4563  140.3459  155.4289 H   0  0  0  0  0  0  0  0  0  0  0  0  # atno 8009 bound_to 7997
  156.1136  140.1454  156.9292 H   0  0  0  0  0  0  0  0  0  0  0  0  # atno 8010 bound_to 7997
  139.7262  143.8880  152.2520 H   0  0  0  0  0  0  0  0  0  0  0  0  # atno 10167 bound_to 10162
  157.3894  131.1002  151.0662 H   0  0  0  0  0  0  0  0  0  0  0  0  # atno 10718 bound_to 10713
  153.1485  135.6774  153.8917 H   0  0  0  0  0  0  0  0  0  0  0  0  # atno 10763 bound_to 10752
  153.8351  135.3112  155.3423 H   0  0  0  0  0  0  0  0  0  0  0  0  # atno 10764 bound_to 10752
  154.7844  135.4870  153.9999 H   0  0  0  0  0  0  0  0  0  0  0  0  # atno 10765 bound_to 10752
  139.8804  134.8820  156.3796 H   0  0  0  0  0  0  0  0  0  0  0  0  # atno 11005 bound_to 11000
  146.3370  140.2549  142.8600 LP  0  0  0  0  0  0  0  0  0  0  0  0  # atno 17320 bound_to 7965
  144.9742  140.8398  143.5436 LP  0  0  0  0  0  0  0  0  0  0  0  0  # atno 17321 bound_to 7965
  139.8790  144.7028  150.8899 LP  0  0  0  0  0  0  0  0  0  0  0  0  # atno 17342 bound_to 10162
  140.7763  143.3676  151.1709 LP  0  0  0  0  0  0  0  0  0  0  0  0  # atno 17343 bound_to 10162
  157.1701  130.6263  149.5638 LP  0  0  0  0  0  0  0  0  0  0  0  0  # atno 17370 bound_to 10713
  155.9794  130.4788  150.6715 LP  0  0  0  0  0  0  0  0  0  0  0  0  # atno 17371 bound_to 10713
  140.9408  133.7516  156.0143 LP  0  0  0  0  0  0  0  0  0  0  0  0  # atno 17394 bound_to 11000
  140.8222  134.3276  157.5378 LP  0  0  0  0  0  0  0  0  0  0  0  0  # atno 17395 bound_to 11000

$$$$
