AV-unprocessed.smi:3298|AV-procd|sdf|12644|dock7
  -GOLD-   2272018573D 1   1.00000     0.00000
 Structure written by MMmdl.
 36 37  0  0  0  0  0  0  0  0  2 V2000
  153.6250  141.1154  160.4633 C   0  0  0  0  0  0  0  0  0  0  0  0
  152.8917  142.2646  159.8044 C   0  0  0  0  0  0  0  0  0  0  0  0
  152.0349  142.0767  158.6987 C   0  0  0  0  0  0  0  0  0  0  0  0
  151.3902  143.1916  158.1188 C   0  0  0  0  0  0  0  0  0  0  0  0
  150.5284  142.9610  157.0138 N   0  0  0  0  0  0  0  0  0  0  0  0
  150.4036  141.8369  156.2880 C   0  0  0  0  0  0  0  0  0  0  0  0
  151.0352  140.7975  156.4789 O   0  0  0  0  0  0  0  0  0  0  0  0
  149.4743  141.9724  155.3317 N   0  0  0  0  0  0  0  0  0  0  0  0
  149.0639  140.9132  154.4165 C   0  0  2  0  0  0  0  0  0  0  0  0
  147.9731  141.3991  153.5022 C   0  0  0  0  0  0  0  0  0  0  0  0
  146.8739  140.6518  153.5704 C   0  0  0  0  0  0  0  0  0  0  0  0
  146.9978  139.5157  154.5534 C   0  0  2  0  0  0  0  0  0  0  0  0
  145.8876  139.5259  155.6187 C   0  0  0  0  0  0  0  0  0  0  0  0
  144.6208  139.3511  155.0197 O   0  0  0  0  0  0  0  0  0  0  0  0
  148.4151  139.7098  155.1508 C   0  0  0  0  0  0  0  0  0  0  0  0
  151.6003  144.4715  158.6904 C   0  0  0  0  0  0  0  0  0  0  0  0
  152.4631  144.5984  159.7974 C   0  0  0  0  0  0  0  0  0  0  0  0
  153.0722  143.5061  160.3063 N   0  3  0  0  0  0  0  0  0  0  0  0
  149.9072  140.5892  153.8041 H   0  0  0  0  0  0  0  0  0  0  0  0
  146.9631  138.5794  153.9947 H   0  0  0  0  0  0  0  0  0  0  0  0
  153.6108  140.2277  159.8302 H   0  0  0  0  0  0  0  0  0  0  0  0
  153.1568  140.8648  161.4155 H   0  0  0  0  0  0  0  0  0  0  0  0
  154.6661  141.3805  160.6502 H   0  0  0  0  0  0  0  0  0  0  0  0
  151.8825  141.0867  158.2931 H   0  0  0  0  0  0  0  0  0  0  0  0
  149.8750  143.7018  156.8052 H   0  0  0  0  0  0  0  0  0  0  0  0
  149.0006  142.8594  155.2424 H   0  0  0  0  0  0  0  0  0  0  0  0
  148.1017  142.2558  152.8569 H   0  0  0  0  0  0  0  0  0  0  0  0
  145.9774  140.8141  152.9900 H   0  0  0  0  0  0  0  0  0  0  0  0
  146.0444  138.7194  156.3353 H   0  0  0  0  0  0  0  0  0  0  0  0
  145.8941  140.4619  156.1784 H   0  0  0  0  0  0  0  0  0  0  0  0
  144.5836  139.8772  154.2354 H   0  0  0  0  0  0  0  0  0  0  0  0
  149.0160  138.8096  155.0167 H   0  0  0  0  0  0  0  0  0  0  0  0
  148.3600  139.8869  156.2262 H   0  0  0  0  0  0  0  0  0  0  0  0
  151.1068  145.3518  158.3067 H   0  0  0  0  0  0  0  0  0  0  0  0
  152.6790  145.5349  160.2902 H   0  0  0  0  0  0  0  0  0  0  0  0
  153.6930  143.6229  161.1076 H   0  0  0  0  0  0  0  0  0  0  0  0
  1  2  1  0  0  0  0
  1 21  1  0  0  0  0
  1 22  1  0  0  0  0
  1 23  1  0  0  0  0
  2 18  1  0  0  0  0
  2  3  2  0  0  0  0
  3  4  1  0  0  0  0
  3 24  1  0  0  0  0
  4  5  1  0  0  0  0
  4 16  2  0  0  0  0
  5  6  1  0  0  0  0
  5 25  1  0  0  0  0
  6  7  2  0  0  0  0
  6  8  1  0  0  0  0
  8  9  1  0  0  0  0
  8 26  1  0  0  0  0
  9 19  1  0  0  0  0
  9 15  1  0  0  0  0
  9 10  1  0  0  0  0
 10 11  2  0  0  0  0
 10 27  1  0  0  0  0
 11 12  1  0  0  0  0
 11 28  1  0  0  0  0
 12 20  1  0  0  0  0
 12 13  1  0  0  0  0
 12 15  1  0  0  0  0
 13 14  1  0  0  0  0
 13 29  1  0  0  0  0
 13 30  1  0  0  0  0
 14 31  1  0  0  0  0
 15 32  1  0  0  0  0
 15 33  1  0  0  0  0
 16 17  1  0  0  0  0
 16 34  1  0  0  0  0
 17 18  2  0  0  0  0
 17 35  1  0  0  0  0
 18 36  1  0  0  0  0
M  CHG  1  18   1
M  END
> <s_m_source_file>
AV-unprocessed.smi

> <i_m_source_file_index>
3298

> <i_lp_mmshare_version>
43012

> <i_f3d_flags>
0

> <s_epik_input>
W0NIM11jMVtjSF1jKFtjSF1bY0hdbjEpW05IXUMoPU8pW05IXVtDQEBIXTJbQ0hdPVtDSF1bQ0BASF0oW0NIMl0yKVtDSDJdW09IXQ==

> <s_epik_cmdline>
J2VwaWtfcHl0aG9uJywgJy1waCcsICc3LjAnLCAnLXRuJywgJzgnLCAnLW1hJywgJzIwMCcsICctbWV0YWxfYmluZGluZycsICctaW1hZScsICc8aW5maWxlLm1hZT4nLCAnLW9tYWUnLCAnPG91dGZpbGUubWFlPic=

> <r_epik_Ionization_Penalty>
0.443901

> <r_epik_Ionization_Penalty_Charging>
0.443881

> <r_epik_Ionization_Penalty_Neutral>
1.94967e-05

> <r_epik_State_Penalty>
0.446172

> <r_epik_Charging_Adjusted_Penalty>
0.890053

> <i_epik_Tot_Q>
1

> <i_epik_Tot_abs_Q>
1

> <r_epik_Metal_State_Penalty>
0.675842

> <b_epik_Metal_Only>
0

> <s_lp_Force_Field>
OPLS_2005

> <r_lp_Energy>
26.7826

> <b_lp_Chiralities_Consistent>
1

> <s_lp_Variant>
AV-unprocessed.smi:3298-5

> <Gold.Version>
5.8.1

> <Gold.Id.Protein>
6NUR|6NUR_protein|mol2

> <Gold.PLP.Fitness>
43.7723

> <Gold.PLP.PLP>
-34.8286

> <Gold.PLP.part.hbond>
-3.0000

> <Gold.PLP.part.metal>
0.0000

> <Gold.PLP.part.buried>
-3.7796

> <Gold.PLP.part.nonpolar>
-27.5579

> <Gold.PLP.part.repulsive>
0.2407

> <Gold.PLP.ligand.clash>
0.0000

> <Gold.PLP.ligand.torsion>
0.0358

> <Gold.PLP.Chemscore.Hbond>
3.0000

> <Gold.PLP.Chemscore.CHOScore>
0.0000

> <Gold.PLP.Chemscore.Metal>
0.0000

> <Gold.Chemscore.Hbonds>
donor molecule, donor type, donor heavy atom, donor atom, acceptor molecule, acceptor atom, score
      L1  H     5    25       P1  8028  1.00
      L1  H     8    26       P1  8028  1.00
      L1  H    14    31       P1 10175  0.93

> <Gold.PLP.Chemscore.Internal.Correction>
0.0154

> <Gold.Rescore>
     Score         DG    S(hbond)    S(metal)    S(lipo)     H(rot)  DE(clash)    DE(int)     intcor
     20.09     -21.65       2.86        0.00      96.01       1.81       0.06       1.50       ----

> <Gold.Chemscore.Fitness>
20.0912

> <Gold.Chemscore.DG>
-21.6518

> <Gold.Chemscore.ZeroCoef>
-5.4800

> <Gold.Chemscore.Hbond>
2.8630

> <Gold.Chemscore.Metal>
0.0000

> <Gold.Chemscore.Lipo>
96.0079

> <Gold.Chemscore.Internal_Hbond>
0.0000

> <Gold.Chemscore.DEClash>
0.0583

> <Gold.Chemscore.DEInternal>
1.5023

> <Gold.Chemscore.Rot>
1.8061

> <Gold.Chemscore.Internal.Correction>
   9.000000E+99

> <Gold.Chemscore.Hbonds>
donor molecule, donor type, donor heavy atom, donor atom, acceptor molecule, acceptor atom, score
      L1  H     5    25       P1  8028  0.97
      L1  H     8    26       P1  8028  0.95
      L1  H    14    31       P1 10175  0.85

> <Gold.Chemscore.Hbond.Weighted>
-9.5625

> <Gold.Chemscore.Metal.Weighted>
-0.0000

> <Gold.Chemscore.Lipo.Weighted>
-11.2329

> <Gold.Chemscore.Internal_Hbond.Weighted>
0.0000

> <Gold.Chemscore.DEClash.Weighted>
0.0583

> <Gold.Chemscore.DEInternal.Weighted>
1.5023

> <Gold.Chemscore.Rot.Weighted>
4.6237

> <Gold.Chemscore.Internal.Correction.Weighted>
   9.000000E+99

> <Gold.Protein.RotatedTorsions>
[ 6907 6896 6895 6894 ] final  -20.12 input  -60.11 | X-H torsion
[ 7974 7965 7964 7962 ] final   92.93 input  175.53 | X-H torsion
[ 8008 7997 7996 7995 ] final   71.84 input   59.86 | X-H torsion
[ 10167 10162 10161 10158 ] final  -97.21 input  -65.29 | X-H torsion
[ 10718 10713 10712 10709 ] final  110.82 input   66.30 | X-H torsion
[ 10763 10752 10751 10750 ] final  127.76 input  -60.55 | X-H torsion
[ 11005 11000 10999 10996 ] final   -3.54 input  -57.11 | X-H torsion

> <Gold.Protein.ActiveResidues>
 VAL166  LYS551  ARG553  GLY616  TRP617  ASP618  TYR619  PRO620  LYS621  CYS622 
 ASP623  PHE694  ASN695  SER759  ASP760  ASP761  ALA762  ILE779  LEU786  VAL792 
 PHE793  MET794  SER795  GLU796  ALA797  LYS798  CYS799  TRP800  GLU811  SER814 

> <Gold.Protein.RotatedAtoms>
  151.2529  135.0628  159.9068 H   0  0  0  0  0  0  0  0  0  0  0  0  # atno 6907 bound_to 6896
  152.5377  134.0313  159.8036 H   0  0  0  0  0  0  0  0  0  0  0  0  # atno 6908 bound_to 6896
  151.0524  133.5564  159.2672 H   0  0  0  0  0  0  0  0  0  0  0  0  # atno 6909 bound_to 6896
  145.4857  139.2277  143.2857 H   0  0  0  0  0  0  0  0  0  0  0  0  # atno 7974 bound_to 7965
  155.7599  140.3487  155.5193 H   0  0  0  0  0  0  0  0  0  0  0  0  # atno 8008 bound_to 7997
  155.8924  140.1020  157.1430 H   0  0  0  0  0  0  0  0  0  0  0  0  # atno 8009 bound_to 7997
  154.4035  140.1302  156.4319 H   0  0  0  0  0  0  0  0  0  0  0  0  # atno 8010 bound_to 7997
  140.2857  143.3253  152.0396 H   0  0  0  0  0  0  0  0  0  0  0  0  # atno 10167 bound_to 10162
  157.6475  131.0939  150.6658 H   0  0  0  0  0  0  0  0  0  0  0  0  # atno 10718 bound_to 10713
  153.7147  135.3263  155.3254 H   0  0  0  0  0  0  0  0  0  0  0  0  # atno 10763 bound_to 10752
  154.8374  135.4485  154.1279 H   0  0  0  0  0  0  0  0  0  0  0  0  # atno 10764 bound_to 10752
  153.2382  135.6968  153.7892 H   0  0  0  0  0  0  0  0  0  0  0  0  # atno 10765 bound_to 10752
  140.6704  133.9241  155.8491 H   0  0  0  0  0  0  0  0  0  0  0  0  # atno 11005 bound_to 11000
  146.2314  140.5647  142.8973 LP  0  0  0  0  0  0  0  0  0  0  0  0  # atno 17320 bound_to 7965
  144.7863  140.5942  143.6572 LP  0  0  0  0  0  0  0  0  0  0  0  0  # atno 17321 bound_to 7965
  139.4951  144.6560  151.6571 LP  0  0  0  0  0  0  0  0  0  0  0  0  # atno 17342 bound_to 10162
  140.5774  144.0005  150.6249 LP  0  0  0  0  0  0  0  0  0  0  0  0  # atno 17343 bound_to 10162
  156.6973  130.4613  149.5583 LP  0  0  0  0  0  0  0  0  0  0  0  0  # atno 17370 bound_to 10713
  156.1820  130.6505  151.0962 LP  0  0  0  0  0  0  0  0  0  0  0  0  # atno 17371 bound_to 10713
  141.0396  134.0640  157.3917 LP  0  0  0  0  0  0  0  0  0  0  0  0  # atno 17394 bound_to 11000
  139.8983  135.0154  156.7144 LP  0  0  0  0  0  0  0  0  0  0  0  0  # atno 17395 bound_to 11000

$$$$
