AV-unprocessed.smi:3278|AV-procd|sdf|12546|dock9
  -GOLD-   2272018463D 1   1.00000     0.00000
 Structure written by MMmdl.
 38 39  0  0  0  0  0  0  0  0  1 V2000
  145.6578  143.0284  154.0578 C   0  0  0  0  0  0  0  0  0  0  0  0
  146.6932  142.0200  154.1295 N   0  0  0  0  0  0  0  0  0  0  0  0
  147.6782  141.8641  155.0805 C   0  0  0  0  0  0  0  0  0  0  0  0
  148.4222  140.7706  154.7314 C   0  0  0  0  0  0  0  0  0  0  0  0
  149.6179  140.1614  155.4330 C   0  0  1  0  0  0  0  0  0  0  0  0
  149.3757  138.6592  155.6569 C   0  0  0  0  0  0  0  0  0  0  0  0
  150.7969  140.2438  154.6532 O   0  0  0  0  0  0  0  0  0  0  0  0
  149.9106  140.8559  156.7819 C   0  0  0  0  0  0  0  0  0  0  0  0
  150.2628  142.2685  156.6102 N   0  0  0  0  0  0  0  0  0  0  0  0
  151.3208  142.7785  157.4872 C   0  0  1  0  0  0  0  0  0  0  0  0
  151.3296  144.3243  157.5448 C   0  0  0  0  0  0  0  0  0  0  0  0
  152.4571  144.8843  158.4280 C   0  0  0  0  0  0  0  0  0  0  0  0
  152.3533  144.4191  159.8858 C   0  0  0  0  0  0  0  0  0  0  0  0
  152.4961  142.6175  160.0030 S   0  0  0  0  0  0  0  0  0  0  0  0
  151.1343  142.1741  158.8912 C   0  0  0  0  0  0  0  0  0  0  0  0
  147.7969  140.3254  153.5298 C   0  0  0  0  0  0  0  0  0  0  0  0
  146.7651  141.0724  153.1733 N   0  0  0  0  0  0  0  0  0  0  0  0
  145.8172  143.7831  154.8283 H   0  0  0  0  0  0  0  0  0  0  0  0
  144.6823  142.5655  154.2098 H   0  0  0  0  0  0  0  0  0  0  0  0
  145.6774  143.5115  153.0804 H   0  0  0  0  0  0  0  0  0  0  0  0
  147.7679  142.5363  155.9211 H   0  0  0  0  0  0  0  0  0  0  0  0
  148.4987  138.4878  156.2820 H   0  0  0  0  0  0  0  0  0  0  0  0
  150.2252  138.1860  156.1508 H   0  0  0  0  0  0  0  0  0  0  0  0
  149.2113  138.1387  154.7125 H   0  0  0  0  0  0  0  0  0  0  0  0
  151.5111  139.8755  155.1503 H   0  0  0  0  0  0  0  0  0  0  0  0
  149.0287  140.7851  157.4199 H   0  0  0  0  0  0  0  0  0  0  0  0
  150.7051  140.3150  157.2952 H   0  0  0  0  0  0  0  0  0  0  0  0
  150.5027  142.4423  155.6393 H   0  0  0  0  0  0  0  0  0  0  0  0
  152.2840  142.4409  157.1024 H   0  0  0  0  0  0  0  0  0  0  0  0
  151.4590  144.7430  156.5479 H   0  0  0  0  0  0  0  0  0  0  0  0
  150.3668  144.6879  157.9067 H   0  0  0  0  0  0  0  0  0  0  0  0
  153.4248  144.5944  158.0174 H   0  0  0  0  0  0  0  0  0  0  0  0
  152.4278  145.9737  158.3974 H   0  0  0  0  0  0  0  0  0  0  0  0
  153.1435  144.8721  160.4847 H   0  0  0  0  0  0  0  0  0  0  0  0
  151.4028  144.7313  160.3191 H   0  0  0  0  0  0  0  0  0  0  0  0
  150.1947  142.5086  159.3332 H   0  0  0  0  0  0  0  0  0  0  0  0
  151.0883  141.0862  158.8326 H   0  0  0  0  0  0  0  0  0  0  0  0
  148.0626  139.4817  152.9101 H   0  0  0  0  0  0  0  0  0  0  0  0
  1  2  1  0  0  0  0
  1 18  1  0  0  0  0
  1 19  1  0  0  0  0
  1 20  1  0  0  0  0
  2 17  1  0  0  0  0
  2  3  1  0  0  0  0
  3  4  2  0  0  0  0
  3 21  1  0  0  0  0
  4  5  1  0  0  0  0
  4 16  1  0  0  0  0
  5  6  1  0  0  0  0
  5  7  1  0  0  0  0
  5  8  1  0  0  0  0
  6 22  1  0  0  0  0
  6 23  1  0  0  0  0
  6 24  1  0  0  0  0
  7 25  1  0  0  0  0
  8  9  1  0  0  0  0
  8 26  1  0  0  0  0
  8 27  1  0  0  0  0
  9 10  1  0  0  0  0
  9 28  1  0  0  0  0
 10 15  1  0  0  0  0
 10 11  1  0  0  0  0
 10 29  1  0  0  0  0
 11 12  1  0  0  0  0
 11 30  1  0  0  0  0
 11 31  1  0  0  0  0
 12 13  1  0  0  0  0
 12 32  1  0  0  0  0
 12 33  1  0  0  0  0
 13 14  1  0  0  0  0
 13 34  1  0  0  0  0
 13 35  1  0  0  0  0
 14 15  1  0  0  0  0
 15 36  1  0  0  0  0
 15 37  1  0  0  0  0
 16 17  2  0  0  0  0
 16 38  1  0  0  0  0
M  END
> <s_m_source_file>
AV-unprocessed.smi

> <i_m_source_file_index>
3278

> <i_lp_mmshare_version>
43012

> <i_f3d_flags>
0

> <s_epik_input>
W0NIM11uMVtjSF1jKFtjSF1uMSlbQ0BAXShbQ0gzXSkoW09IXSlbQ0gyXVtOSF1bQ0BASF0yW0NIMl1bQ0gyXVtDSDJdU1tDSDJdMg==

> <s_epik_cmdline>
J2VwaWtfcHl0aG9uJywgJy1waCcsICc3LjAnLCAnLXRuJywgJzgnLCAnLW1hJywgJzIwMCcsICctbWV0YWxfYmluZGluZycsICctaW1hZScsICc8aW5maWxlLm1hZT4nLCAnLW9tYWUnLCAnPG91dGZpbGUubWFlPic=

> <r_lp_tautomer_probability>
1

> <r_epik_Ionization_Penalty>
2.06123

> <r_epik_Ionization_Penalty_Charging>
0

> <r_epik_Ionization_Penalty_Neutral>
2.06123

> <r_epik_State_Penalty>
2.1944

> <r_epik_Charging_Adjusted_Penalty>
2.1944

> <i_epik_Tot_Q>
0

> <i_epik_Tot_abs_Q>
0

> <r_epik_Metal_State_Penalty>
2.19434

> <b_epik_Metal_Only>
0

> <s_lp_Force_Field>
OPLS_2005

> <r_lp_Energy>
12.2085

> <b_lp_Chiralities_Consistent>
1

> <s_lp_Variant>
AV-unprocessed.smi:3278-7

> <Gold.Version>
5.8.1

> <Gold.Id.Protein>
6NUR|6NUR_protein|mol2

> <Gold.PLP.Fitness>
44.6585

> <Gold.PLP.PLP>
-38.2282

> <Gold.PLP.part.hbond>
-2.0000

> <Gold.PLP.part.metal>
0.0000

> <Gold.PLP.part.buried>
-1.4349

> <Gold.PLP.part.nonpolar>
-34.5868

> <Gold.PLP.part.repulsive>
0.2047

> <Gold.PLP.ligand.clash>
0.0000

> <Gold.PLP.ligand.torsion>
0.5551

> <Gold.PLP.Chemscore.Hbond>
1.0000

> <Gold.PLP.Chemscore.CHOScore>
1.5058

> <Gold.PLP.Chemscore.Metal>
0.0000

> <Gold.Chemscore.Hbonds>
donor molecule, donor type, donor heavy atom, donor atom, acceptor molecule, acceptor atom, score
      P1  H  7989  7998       L1     7  0.90
      L1  C     3    21       P1  8028  0.81
      L1  C    16    38       P1  7957  0.67

> <Gold.PLP.Chemscore.Internal.Correction>
0.0231

> <Gold.Rescore>
     Score         DG    S(hbond)    S(metal)    S(lipo)     H(rot)  DE(clash)    DE(int)     intcor
     14.09     -15.77       0.92        0.00     103.81       1.93       0.33       1.35       ----

> <Gold.Chemscore.Fitness>
14.0926

> <Gold.Chemscore.DG>
-15.7654

> <Gold.Chemscore.ZeroCoef>
-5.4800

> <Gold.Chemscore.Hbond>
0.9244

> <Gold.Chemscore.Metal>
0.0000

> <Gold.Chemscore.Lipo>
103.8146

> <Gold.Chemscore.Internal_Hbond>
0.0000

> <Gold.Chemscore.DEClash>
0.3257

> <Gold.Chemscore.DEInternal>
1.3471

> <Gold.Chemscore.Rot>
1.9329

> <Gold.Chemscore.Internal.Correction>
   9.000000E+99

> <Gold.Chemscore.Hbonds>
donor molecule, donor type, donor heavy atom, donor atom, acceptor molecule, acceptor atom, score
      P1  H  7989  7998       L1     7  0.17

> <Gold.Chemscore.Hbond.Weighted>
-3.0874

> <Gold.Chemscore.Metal.Weighted>
-0.0000

> <Gold.Chemscore.Lipo.Weighted>
-12.1463

> <Gold.Chemscore.Internal_Hbond.Weighted>
0.0000

> <Gold.Chemscore.DEClash.Weighted>
0.3257

> <Gold.Chemscore.DEInternal.Weighted>
1.3471

> <Gold.Chemscore.Rot.Weighted>
4.9483

> <Gold.Chemscore.Internal.Correction.Weighted>
   9.000000E+99

> <Gold.Protein.RotatedTorsions>
[ 6907 6896 6895 6894 ] final   14.96 input  -60.11 | X-H torsion
[ 7974 7965 7964 7962 ] final -139.69 input  175.53 | X-H torsion
[ 8008 7997 7996 7995 ] final   22.74 input   59.86 | X-H torsion
[ 10167 10162 10161 10158 ] final -102.93 input  -65.29 | X-H torsion
[ 10718 10713 10712 10709 ] final   45.43 input   66.30 | X-H torsion
[ 10763 10752 10751 10750 ] final  -10.50 input  -60.55 | X-H torsion
[ 11005 11000 10999 10996 ] final -171.49 input  -57.11 | X-H torsion

> <Gold.Protein.ActiveResidues>
 VAL166  LYS551  ARG553  GLY616  TRP617  ASP618  TYR619  PRO620  LYS621  CYS622 
 ASP623  PHE694  ASN695  SER759  ASP760  ASP761  ALA762  ILE779  LEU786  VAL792 
 PHE793  MET794  SER795  GLU796  ALA797  LYS798  CYS799  TRP800  GLU811  SER814 

> <Gold.Protein.RotatedAtoms>
  151.8106  135.0682  160.0412 H   0  0  0  0  0  0  0  0  0  0  0  0  # atno 6907 bound_to 6896
  152.3023  133.5664  159.5635 H   0  0  0  0  0  0  0  0  0  0  0  0  # atno 6908 bound_to 6896
  150.7279  134.0189  159.3736 H   0  0  0  0  0  0  0  0  0  0  0  0  # atno 6909 bound_to 6896
  144.8656  140.6288  143.5300 H   0  0  0  0  0  0  0  0  0  0  0  0  # atno 7974 bound_to 7965
  154.9704  140.3089  155.4991 H   0  0  0  0  0  0  0  0  0  0  0  0  # atno 8008 bound_to 7997
  156.2966  140.2285  156.4735 H   0  0  0  0  0  0  0  0  0  0  0  0  # atno 8009 bound_to 7997
  154.7882  140.0441  157.1169 H   0  0  0  0  0  0  0  0  0  0  0  0  # atno 8010 bound_to 7997
  140.2254  143.3645  152.0933 H   0  0  0  0  0  0  0  0  0  0  0  0  # atno 10167 bound_to 10162
  157.4375  130.8061  149.7662 H   0  0  0  0  0  0  0  0  0  0  0  0  # atno 10718 bound_to 10713
  153.4700  135.7016  153.5999 H   0  0  0  0  0  0  0  0  0  0  0  0  # atno 10763 bound_to 10752
  153.4257  135.3815  155.2139 H   0  0  0  0  0  0  0  0  0  0  0  0  # atno 10764 bound_to 10752
  154.8725  135.3938  154.4137 H   0  0  0  0  0  0  0  0  0  0  0  0  # atno 10765 bound_to 10752
  140.5076  134.5832  157.5008 H   0  0  0  0  0  0  0  0  0  0  0  0  # atno 11005 bound_to 11000
  145.4227  139.1561  143.4065 LP  0  0  0  0  0  0  0  0  0  0  0  0  # atno 17320 bound_to 7965
  146.2893  140.4339  142.8745 LP  0  0  0  0  0  0  0  0  0  0  0  0  # atno 17321 bound_to 7965
  139.5129  144.6924  151.5723 LP  0  0  0  0  0  0  0  0  0  0  0  0  # atno 17342 bound_to 10162
  140.6225  143.9232  150.6537 LP  0  0  0  0  0  0  0  0  0  0  0  0  # atno 17343 bound_to 10162
  155.9936  130.3923  150.2894 LP  0  0  0  0  0  0  0  0  0  0  0  0  # atno 17370 bound_to 10713
  157.1056  131.0207  151.3068 LP  0  0  0  0  0  0  0  0  0  0  0  0  # atno 17371 bound_to 10713
  139.9677  134.7345  156.0105 LP  0  0  0  0  0  0  0  0  0  0  0  0  # atno 17394 bound_to 11000
  141.1402  133.6566  156.3709 LP  0  0  0  0  0  0  0  0  0  0  0  0  # atno 17395 bound_to 11000

$$$$
