AV-unprocessed.smi:2997|AV-procd|sdf|11412|dock2
  -GOLD-   2272016333D 1   1.00000     0.00000
 Structure written by MMmdl.
 38 40  0  0  0  0  0  0  0  0  1 V2000
  153.2420  142.5971  161.7094 C   0  0  0  0  0  0  0  0  0  0  0  0
  152.6551  142.2916  160.3426 C   0  0  0  0  0  0  0  0  0  0  0  0
  153.0272  141.0965  159.6867 C   0  0  0  0  0  0  0  0  0  0  0  0
  152.5009  140.7731  158.4168 C   0  0  0  0  0  0  0  0  0  0  0  0
  152.7224  139.6736  157.6051 N   0  0  0  0  0  0  0  0  0  0  0  0
  151.9461  139.9508  156.5611 C   0  0  0  0  0  0  0  0  0  0  0  0
  151.2489  141.1027  156.6001 N   0  0  0  0  0  0  0  0  0  0  0  0
  150.3424  141.6153  155.5887 C   0  0  0  0  0  0  0  0  0  0  0  0
  149.5798  140.4932  154.8601 C   0  0  2  0  0  0  0  0  0  0  0  0
  150.4287  139.8856  153.9041 O   0  0  0  0  0  0  0  0  0  0  0  0
  148.3060  141.0170  154.1703 C   0  0  0  0  0  0  0  0  0  0  0  0
  147.5593  139.9611  153.5088 N   0  0  0  0  0  0  0  0  0  0  0  0
  147.1646  138.7438  154.0225 C   0  0  0  0  0  0  0  0  0  0  0  0
  146.4932  138.0837  153.0337 C   0  0  0  0  0  0  0  0  0  0  0  0
  146.5294  138.9902  151.9374 C   0  0  0  0  0  0  0  0  0  0  0  0
  147.1681  140.1129  152.2248 N   0  0  0  0  0  0  0  0  0  0  0  0
  151.5851  141.6857  157.8165 C   0  0  0  0  0  0  0  0  0  0  0  0
  151.2084  142.8787  158.4582 C   0  0  0  0  0  0  0  0  0  0  0  0
  151.7442  143.1867  159.7263 C   0  0  0  0  0  0  0  0  0  0  0  0
  151.3340  144.4791  160.4100 C   0  0  0  0  0  0  0  0  0  0  0  0
  153.9289  141.8141  162.0320 H   0  0  0  0  0  0  0  0  0  0  0  0
  152.4508  142.6759  162.4554 H   0  0  0  0  0  0  0  0  0  0  0  0
  153.7930  143.5374  161.6881 H   0  0  0  0  0  0  0  0  0  0  0  0
  153.7219  140.4150  160.1555 H   0  0  0  0  0  0  0  0  0  0  0  0
  151.8769  139.2766  155.7197 H   0  0  0  0  0  0  0  0  0  0  0  0
  149.6405  142.2932  156.0756 H   0  0  0  0  0  0  0  0  0  0  0  0
  150.9131  142.2153  154.8782 H   0  0  0  0  0  0  0  0  0  0  0  0
  149.2972  139.7286  155.5852 H   0  0  0  0  0  0  0  0  0  0  0  0
  149.9333  139.7423  153.1117 H   0  0  0  0  0  0  0  0  0  0  0  0
  147.6485  141.4827  154.9053 H   0  0  0  0  0  0  0  0  0  0  0  0
  148.5546  141.7904  153.4414 H   0  0  0  0  0  0  0  0  0  0  0  0
  147.3934  138.4518  155.0369 H   0  0  0  0  0  0  0  0  0  0  0  0
  146.0448  137.1026  153.0852 H   0  0  0  0  0  0  0  0  0  0  0  0
  146.1136  138.8661  150.9483 H   0  0  0  0  0  0  0  0  0  0  0  0
  150.5126  143.5501  157.9771 H   0  0  0  0  0  0  0  0  0  0  0  0
  150.6117  145.0342  159.8108 H   0  0  0  0  0  0  0  0  0  0  0  0
  152.2020  145.1202  160.5659 H   0  0  0  0  0  0  0  0  0  0  0  0
  150.8773  144.2729  161.3780 H   0  0  0  0  0  0  0  0  0  0  0  0
  1  2  1  0  0  0  0
  1 21  1  0  0  0  0
  1 22  1  0  0  0  0
  1 23  1  0  0  0  0
  2 19  1  0  0  0  0
  2  3  2  0  0  0  0
  3  4  1  0  0  0  0
  3 24  1  0  0  0  0
  4 17  2  0  0  0  0
  4  5  1  0  0  0  0
  5  6  2  0  0  0  0
  6  7  1  0  0  0  0
  6 25  1  0  0  0  0
  7  8  1  0  0  0  0
  7 17  1  0  0  0  0
  8  9  1  0  0  0  0
  8 26  1  0  0  0  0
  8 27  1  0  0  0  0
  9 10  1  0  0  0  0
  9 11  1  0  0  0  0
  9 28  1  0  0  0  0
 10 29  1  0  0  0  0
 11 12  1  0  0  0  0
 11 30  1  0  0  0  0
 11 31  1  0  0  0  0
 12 16  1  0  0  0  0
 12 13  1  0  0  0  0
 13 14  2  0  0  0  0
 13 32  1  0  0  0  0
 14 15  1  0  0  0  0
 14 33  1  0  0  0  0
 15 16  2  0  0  0  0
 15 34  1  0  0  0  0
 17 18  1  0  0  0  0
 18 19  2  0  0  0  0
 18 35  1  0  0  0  0
 19 20  1  0  0  0  0
 20 36  1  0  0  0  0
 20 37  1  0  0  0  0
 20 38  1  0  0  0  0
M  END
> <s_m_source_file>
AV-unprocessed.smi

> <i_m_source_file_index>
2997

> <i_lp_mmshare_version>
43012

> <i_f3d_flags>
0

> <s_epik_input>
W0NIM11jKFtjSF0xKWMoW0NIM10pW2NIXWMoYzEyKW4oW2NIXW4yKVtDSDJdW0NASF0oW09IXSlbQ0gyXW4zW2NIXVtjSF1bY0hdbjM=

> <s_epik_cmdline>
J2VwaWtfcHl0aG9uJywgJy1waCcsICc3LjAnLCAnLXRuJywgJzgnLCAnLW1hJywgJzIwMCcsICctbWV0YWxfYmluZGluZycsICctaW1hZScsICc8aW5maWxlLm1hZT4nLCAnLW9tYWUnLCAnPG91dGZpbGUubWFlPic=

> <r_lp_tautomer_probability>
1

> <r_epik_Ionization_Penalty>
0.102113

> <r_epik_Ionization_Penalty_Charging>
0

> <r_epik_Ionization_Penalty_Neutral>
0.102113

> <r_epik_State_Penalty>
0.0920694

> <r_epik_Charging_Adjusted_Penalty>
0.0920694

> <i_epik_Tot_Q>
0

> <i_epik_Tot_abs_Q>
0

> <r_epik_Metal_State_Penalty>
0.0784306

> <b_epik_Metal_Only>
0

> <s_lp_Force_Field>
OPLS_2005

> <r_lp_Energy>
8.0564

> <b_lp_Chiralities_Consistent>
1

> <s_lp_Variant>
AV-unprocessed.smi:2997-1

> <Gold.Version>
5.8.1

> <Gold.Id.Protein>
6NUR|6NUR_protein|mol2

> <Gold.PLP.Fitness>
53.6579

> <Gold.PLP.PLP>
-42.8957

> <Gold.PLP.part.hbond>
-3.0000

> <Gold.PLP.part.metal>
0.0000

> <Gold.PLP.part.buried>
-3.7746

> <Gold.PLP.part.nonpolar>
-38.0405

> <Gold.PLP.part.repulsive>
3.1268

> <Gold.PLP.ligand.clash>
0.0000

> <Gold.PLP.ligand.torsion>
0.6232

> <Gold.PLP.Chemscore.Hbond>
3.0000

> <Gold.PLP.Chemscore.CHOScore>
1.0000

> <Gold.PLP.Chemscore.Metal>
0.0000

> <Gold.Chemscore.Hbonds>
donor molecule, donor type, donor heavy atom, donor atom, acceptor molecule, acceptor atom, score
      L1  H    10    29       P1  7957  1.00
      P1  H  7989  7998       L1    10  1.00
      P1  H  7997  8008       L1     5  1.00
      L1  C    15    34       P1 10171  1.00

> <Gold.PLP.Chemscore.Internal.Correction>
0.0086

> <Gold.Rescore>
     Score         DG    S(hbond)    S(metal)    S(lipo)     H(rot)  DE(clash)    DE(int)     intcor
     19.36     -20.69       2.10        0.00     117.25       2.15       0.67       0.66       ----

> <Gold.Chemscore.Fitness>
19.3641

> <Gold.Chemscore.DG>
-20.6915

> <Gold.Chemscore.ZeroCoef>
-5.4800

> <Gold.Chemscore.Hbond>
2.0976

> <Gold.Chemscore.Metal>
0.0000

> <Gold.Chemscore.Lipo>
117.2509

> <Gold.Chemscore.Internal_Hbond>
0.0000

> <Gold.Chemscore.DEClash>
0.6656

> <Gold.Chemscore.DEInternal>
0.6618

> <Gold.Chemscore.Rot>
2.1534

> <Gold.Chemscore.Internal.Correction>
   9.000000E+99

> <Gold.Chemscore.Hbonds>
donor molecule, donor type, donor heavy atom, donor atom, acceptor molecule, acceptor atom, score
      L1  H    10    29       P1  7957  0.92
      P1  H  7989  7998       L1    10  0.39
      P1  H  7997  8008       L1     5  0.13

> <Gold.Chemscore.Hbond.Weighted>
-7.0058

> <Gold.Chemscore.Metal.Weighted>
-0.0000

> <Gold.Chemscore.Lipo.Weighted>
-13.7184

> <Gold.Chemscore.Internal_Hbond.Weighted>
0.0000

> <Gold.Chemscore.DEClash.Weighted>
0.6656

> <Gold.Chemscore.DEInternal.Weighted>
0.6618

> <Gold.Chemscore.Rot.Weighted>
5.5127

> <Gold.Chemscore.Internal.Correction.Weighted>
   9.000000E+99

> <Gold.Protein.RotatedTorsions>
[ 6907 6896 6895 6894 ] final    5.31 input  -60.11 | X-H torsion
[ 7974 7965 7964 7962 ] final   58.57 input  175.53 | X-H torsion
[ 8008 7997 7996 7995 ] final  -81.08 input   59.86 | X-H torsion
[ 10167 10162 10161 10158 ] final -123.99 input  -65.29 | X-H torsion
[ 10718 10713 10712 10709 ] final -162.66 input   66.30 | X-H torsion
[ 10763 10752 10751 10750 ] final  -21.04 input  -60.55 | X-H torsion
[ 11005 11000 10999 10996 ] final  171.85 input  -57.11 | X-H torsion

> <Gold.Protein.ActiveResidues>
 VAL166  LYS551  ARG553  GLY616  TRP617  ASP618  TYR619  PRO620  LYS621  CYS622 
 ASP623  PHE694  ASN695  SER759  ASP760  ASP761  ALA762  ILE779  LEU786  VAL792 
 PHE793  MET794  SER795  GLU796  ALA797  LYS798  CYS799  TRP800  GLU811  SER814 

> <Gold.Protein.RotatedAtoms>
  151.6554  135.0996  160.0168 H   0  0  0  0  0  0  0  0  0  0  0  0  # atno 6907 bound_to 6896
  152.3977  133.6767  159.6298 H   0  0  0  0  0  0  0  0  0  0  0  0  # atno 6908 bound_to 6896
  150.7881  133.8762  159.3314 H   0  0  0  0  0  0  0  0  0  0  0  0  # atno 6909 bound_to 6896
  145.9168  139.3697  143.0502 H   0  0  0  0  0  0  0  0  0  0  0  0  # atno 7974 bound_to 7965
  154.5948  140.0653  156.9288 H   0  0  0  0  0  0  0  0  0  0  0  0  # atno 8008 bound_to 7997
  155.2234  140.3332  155.4294 H   0  0  0  0  0  0  0  0  0  0  0  0  # atno 8009 bound_to 7997
  156.2279  140.1828  156.7300 H   0  0  0  0  0  0  0  0  0  0  0  0  # atno 8010 bound_to 7997
  139.9976  143.5574  152.2316 H   0  0  0  0  0  0  0  0  0  0  0  0  # atno 10167 bound_to 10162
  156.6136  130.8861  151.2942 H   0  0  0  0  0  0  0  0  0  0  0  0  # atno 10718 bound_to 10713
  153.6298  135.6989  153.5279 H   0  0  0  0  0  0  0  0  0  0  0  0  # atno 10763 bound_to 10752
  153.2869  135.4169  155.1130 H   0  0  0  0  0  0  0  0  0  0  0  0  # atno 10764 bound_to 10752
  154.8524  135.3615  154.5840 H   0  0  0  0  0  0  0  0  0  0  0  0  # atno 10765 bound_to 10752
  140.3234  134.7418  157.4081 H   0  0  0  0  0  0  0  0  0  0  0  0  # atno 11005 bound_to 11000
  145.8602  140.9480  143.0704 LP  0  0  0  0  0  0  0  0  0  0  0  0  # atno 17320 bound_to 7965
  144.6748  140.0520  143.7478 LP  0  0  0  0  0  0  0  0  0  0  0  0  # atno 17321 bound_to 7965
  139.6295  144.7642  151.2567 LP  0  0  0  0  0  0  0  0  0  0  0  0  # atno 17342 bound_to 10162
  140.7431  143.6505  150.8253 LP  0  0  0  0  0  0  0  0  0  0  0  0  # atno 17343 bound_to 10162
  157.7247  130.9606  150.1585 LP  0  0  0  0  0  0  0  0  0  0  0  0  # atno 17370 bound_to 10713
  156.2369  130.3687  149.8381 LP  0  0  0  0  0  0  0  0  0  0  0  0  # atno 17371 bound_to 10713
  140.0922  134.5585  155.8433 LP  0  0  0  0  0  0  0  0  0  0  0  0  # atno 17394 bound_to 11000
  141.2081  133.6670  156.6349 LP  0  0  0  0  0  0  0  0  0  0  0  0  # atno 17395 bound_to 11000

$$$$
