AV-unprocessed.smi:1710|AV-procd|sdf|6899|dock10
  -GOLD-   22720 8103D 1   1.00000     0.00000
 Structure written by MMmdl.
 36 37  0  0  0  0  0  0  0  0  1 V2000
  147.7746  135.7740  156.3424 C   0  0  0  0  0  0  0  0  0  0  0  0
  148.6822  134.6911  157.5199 S   0  0  0  0  0  0  0  0  0  0  0  0
  149.6117  135.5305  158.2915 O   0  0  0  0  0  0  0  0  0  0  0  0
  147.6993  133.8541  158.2247 O   0  0  0  0  0  0  0  0  0  0  0  0
  149.6298  133.6513  156.4953 N   0  0  0  0  0  0  0  0  0  0  0  0
  149.2912  132.2180  156.3832 C   0  0  0  0  0  0  0  0  0  0  0  0
  148.5349  131.9102  155.0788 C   0  0  0  0  0  0  0  0  0  0  0  0
  149.3053  132.4221  153.8504 C   0  0  0  0  0  0  0  0  0  0  0  0
  148.5455  132.1847  152.6261 N   0  0  0  0  0  0  0  0  0  0  0  0
  147.3063  132.6381  152.3885 C   0  0  0  0  0  0  0  0  0  0  0  0
  146.6620  133.3116  153.1929 O   0  0  0  0  0  0  0  0  0  0  0  0
  146.8752  132.2690  151.1711 N   0  0  0  0  0  0  0  0  0  0  0  0
  145.6169  132.5527  150.5823 C   0  0  0  0  0  0  0  0  0  0  0  0
  145.2302  132.1642  149.2707 C   0  0  0  0  0  0  0  0  0  0  0  0
  143.9971  132.5624  148.9920 N   0  0  0  0  0  0  0  0  0  0  0  0
  143.5919  133.1989  150.1140 N   0  0  0  0  0  0  0  0  0  0  0  0
  144.5445  133.2168  151.1088 C   0  0  0  0  0  0  0  0  0  0  0  0
  149.5803  133.9235  154.0150 C   0  0  0  0  0  0  0  0  0  0  0  0
  150.3344  134.2125  155.3251 C   0  0  0  0  0  0  0  0  0  0  0  0
  142.6719  133.6098  150.1859 H   0  0  0  0  0  0  0  0  0  0  0  0
  147.1403  136.4577  156.9060 H   0  0  0  0  0  0  0  0  0  0  0  0
  147.1489  135.1694  155.6886 H   0  0  0  0  0  0  0  0  0  0  0  0
  148.4816  136.3543  155.7523 H   0  0  0  0  0  0  0  0  0  0  0  0
  150.2177  131.6433  156.4099 H   0  0  0  0  0  0  0  0  0  0  0  0
  148.7064  131.8968  157.2445 H   0  0  0  0  0  0  0  0  0  0  0  0
  148.3768  130.8340  154.9997 H   0  0  0  0  0  0  0  0  0  0  0  0
  147.5432  132.3606  155.1089 H   0  0  0  0  0  0  0  0  0  0  0  0
  150.2640  131.9034  153.7870 H   0  0  0  0  0  0  0  0  0  0  0  0
  148.9990  131.6398  151.9072 H   0  0  0  0  0  0  0  0  0  0  0  0
  147.5142  131.7307  150.6046 H   0  0  0  0  0  0  0  0  0  0  0  0
  145.7918  131.6184  148.5269 H   0  0  0  0  0  0  0  0  0  0  0  0
  144.3713  133.6844  152.0664 H   0  0  0  0  0  0  0  0  0  0  0  0
  150.1670  134.2889  153.1712 H   0  0  0  0  0  0  0  0  0  0  0  0
  148.6425  134.4779  153.9959 H   0  0  0  0  0  0  0  0  0  0  0  0
  150.4837  135.2847  155.4490 H   0  0  0  0  0  0  0  0  0  0  0  0
  151.3290  133.7677  155.2780 H   0  0  0  0  0  0  0  0  0  0  0  0
  1  2  1  0  0  0  0
  1 21  1  0  0  0  0
  1 22  1  0  0  0  0
  1 23  1  0  0  0  0
  2  3  2  0  0  0  0
  2  4  2  0  0  0  0
  2  5  1  0  0  0  0
  5 19  1  0  0  0  0
  5  6  1  0  0  0  0
  6  7  1  0  0  0  0
  6 24  1  0  0  0  0
  6 25  1  0  0  0  0
  7  8  1  0  0  0  0
  7 26  1  0  0  0  0
  7 27  1  0  0  0  0
  8  9  1  0  0  0  0
  8 18  1  0  0  0  0
  8 28  1  0  0  0  0
  9 10  1  0  0  0  0
  9 29  1  0  0  0  0
 10 11  2  0  0  0  0
 10 12  1  0  0  0  0
 12 13  1  0  0  0  0
 12 30  1  0  0  0  0
 13 17  2  0  0  0  0
 13 14  1  0  0  0  0
 14 15  2  0  0  0  0
 14 31  1  0  0  0  0
 15 16  1  0  0  0  0
 16 20  1  0  0  0  0
 16 17  1  0  0  0  0
 17 32  1  0  0  0  0
 18 19  1  0  0  0  0
 18 33  1  0  0  0  0
 18 34  1  0  0  0  0
 19 35  1  0  0  0  0
 19 36  1  0  0  0  0
M  END
> <s_m_source_file>
AV-unprocessed.smi

> <i_m_source_file_index>
1710

> <i_lp_mmshare_version>
43012

> <i_f3d_flags>
0

> <s_epik_input>
W0NIM11TKD1PKSg9TylOMVtDSDJdW0NIMl1bQ0hdKFtDSDJdW0NIMl0xKVtOSF1DKD1PKVtOSF1jMltjSF1uW25IXVtjSF0y

> <s_epik_cmdline>
J2VwaWtfcHl0aG9uJywgJy1waCcsICc3LjAnLCAnLXRuJywgJzgnLCAnLW1hJywgJzIwMCcsICctbWV0YWxfYmluZGluZycsICctaW1hZScsICc8aW5maWxlLm1hZT4nLCAnLW9tYWUnLCAnPG91dGZpbGUubWFlPic=

> <r_lp_tautomer_probability>
1

> <r_epik_Ionization_Penalty>
5.00334e-05

> <r_epik_Ionization_Penalty_Charging>
0

> <r_epik_Ionization_Penalty_Neutral>
5.00334e-05

> <r_epik_State_Penalty>
-0

> <r_epik_Charging_Adjusted_Penalty>
0

> <i_epik_Tot_Q>
0

> <i_epik_Tot_abs_Q>
0

> <r_epik_Metal_State_Penalty>
-0

> <b_epik_Metal_Only>
0

> <s_lp_Force_Field>
OPLS_2005

> <r_lp_Energy>
2.71919

> <b_lp_Chiralities_Consistent>
1

> <s_lp_Variant>
AV-unprocessed.smi:1710-1

> <Gold.Version>
5.8.1

> <Gold.Id.Protein>
6NUR|6NUR_protein|mol2

> <Gold.PLP.Fitness>
40.2692

> <Gold.PLP.PLP>
-28.3620

> <Gold.PLP.part.hbond>
-4.3137

> <Gold.PLP.part.metal>
0.0000

> <Gold.PLP.part.buried>
-4.8770

> <Gold.PLP.part.nonpolar>
-18.9408

> <Gold.PLP.part.repulsive>
0.4521

> <Gold.PLP.ligand.clash>
0.0000

> <Gold.PLP.ligand.torsion>
1.0974

> <Gold.PLP.Chemscore.Hbond>
4.0171

> <Gold.PLP.Chemscore.CHOScore>
0.0000

> <Gold.PLP.Chemscore.Metal>
0.0000

> <Gold.Chemscore.Hbonds>
donor molecule, donor type, donor heavy atom, donor atom, acceptor molecule, acceptor atom, score
      L1  H     9    29       P1 10747  1.00
      L1  H    12    30       P1 10747  1.00
      L1  H    16    20       P1 10186  1.00
      P1  H  6896  6908       L1     3  0.94

> <Gold.PLP.Chemscore.Internal.Correction>
2.0508

> <Gold.Rescore>
     Score         DG    S(hbond)    S(metal)    S(lipo)     H(rot)  DE(clash)    DE(int)     intcor
     18.82     -22.17       3.87        0.00      54.10       1.00       0.01       3.34       ----

> <Gold.Chemscore.Fitness>
18.8200

> <Gold.Chemscore.DG>
-22.1745

> <Gold.Chemscore.ZeroCoef>
-5.4800

> <Gold.Chemscore.Hbond>
3.8697

> <Gold.Chemscore.Metal>
0.0000

> <Gold.Chemscore.Lipo>
54.1001

> <Gold.Chemscore.Internal_Hbond>
0.0000

> <Gold.Chemscore.DEClash>
0.0141

> <Gold.Chemscore.DEInternal>
3.3404

> <Gold.Chemscore.Rot>
1.0000

> <Gold.Chemscore.Internal.Correction>
   9.000000E+99

> <Gold.Chemscore.Hbonds>
donor molecule, donor type, donor heavy atom, donor atom, acceptor molecule, acceptor atom, score
      L1  H     9    29       P1 10747  0.75
      L1  H    12    30       P1 10747  0.99
      L1  H    16    20       P1 10186  0.97
      P1  H  6896  6908       L1     3  0.50

> <Gold.Chemscore.Hbond.Weighted>
-12.9248

> <Gold.Chemscore.Metal.Weighted>
-0.0000

> <Gold.Chemscore.Lipo.Weighted>
-6.3297

> <Gold.Chemscore.Internal_Hbond.Weighted>
0.0000

> <Gold.Chemscore.DEClash.Weighted>
0.0141

> <Gold.Chemscore.DEInternal.Weighted>
3.3404

> <Gold.Chemscore.Rot.Weighted>
2.5600

> <Gold.Chemscore.Internal.Correction.Weighted>
   9.000000E+99

> <Gold.Protein.RotatedTorsions>
[ 6907 6896 6895 6894 ] final  150.92 input  -60.11 | X-H torsion
[ 7974 7965 7964 7962 ] final   19.08 input  175.53 | X-H torsion
[ 8008 7997 7996 7995 ] final   19.92 input   59.86 | X-H torsion
[ 10167 10162 10161 10158 ] final -100.14 input  -65.29 | X-H torsion
[ 10718 10713 10712 10709 ] final  -76.74 input   66.30 | X-H torsion
[ 10763 10752 10751 10750 ] final  -54.33 input  -60.55 | X-H torsion
[ 11005 11000 10999 10996 ] final  -93.32 input  -57.11 | X-H torsion

> <Gold.Protein.ActiveResidues>
 VAL166  LYS551  ARG553  GLY616  TRP617  ASP618  TYR619  PRO620  LYS621  CYS622 
 ASP623  PHE694  ASN695  SER759  ASP760  ASP761  ALA762  ILE779  LEU786  VAL792 
 PHE793  MET794  SER795  GLU796  ALA797  LYS798  CYS799  TRP800  GLU811  SER814 

> <Gold.Protein.RotatedAtoms>
  152.1078  133.4284  159.4616 H   0  0  0  0  0  0  0  0  0  0  0  0  # atno 6907 bound_to 6896
  150.6866  134.2684  159.4587 H   0  0  0  0  0  0  0  0  0  0  0  0  # atno 6908 bound_to 6896
  152.0550  134.9630  160.0625 H   0  0  0  0  0  0  0  0  0  0  0  0  # atno 6909 bound_to 6896
  146.2162  139.8364  142.8650 H   0  0  0  0  0  0  0  0  0  0  0  0  # atno 7974 bound_to 7965
  154.9279  140.3036  155.5182 H   0  0  0  0  0  0  0  0  0  0  0  0  # atno 8008 bound_to 7997
  156.3005  140.2359  156.4273 H   0  0  0  0  0  0  0  0  0  0  0  0  # atno 8009 bound_to 7997
  154.8266  140.0420  157.1436 H   0  0  0  0  0  0  0  0  0  0  0  0  # atno 8010 bound_to 7997
  140.2551  143.3446  152.0679 H   0  0  0  0  0  0  0  0  0  0  0  0  # atno 10167 bound_to 10162
  156.0166  130.4473  150.3239 H   0  0  0  0  0  0  0  0  0  0  0  0  # atno 10718 bound_to 10713
  154.1731  135.6456  153.5014 H   0  0  0  0  0  0  0  0  0  0  0  0  # atno 10763 bound_to 10752
  153.0079  135.5388  154.6592 H   0  0  0  0  0  0  0  0  0  0  0  0  # atno 10764 bound_to 10752
  154.5936  135.2936  155.0581 H   0  0  0  0  0  0  0  0  0  0  0  0  # atno 10765 bound_to 10752
  141.1500  133.7880  157.0144 H   0  0  0  0  0  0  0  0  0  0  0  0  # atno 11005 bound_to 11000
  145.2944  141.0176  143.3644 LP  0  0  0  0  0  0  0  0  0  0  0  0  # atno 17320 bound_to 7965
  144.9053  139.4597  143.6613 LP  0  0  0  0  0  0  0  0  0  0  0  0  # atno 17321 bound_to 7965
  139.5034  144.6755  151.6140 LP  0  0  0  0  0  0  0  0  0  0  0  0  # atno 17342 bound_to 10162
  140.6010  143.9609  150.6386 LP  0  0  0  0  0  0  0  0  0  0  0  0  # atno 17343 bound_to 10162
  157.1339  131.0279  151.2957 LP  0  0  0  0  0  0  0  0  0  0  0  0  # atno 17370 bound_to 10713
  157.4528  130.7608  149.7166 LP  0  0  0  0  0  0  0  0  0  0  0  0  # atno 17371 bound_to 10713
  140.0857  134.9622  157.1695 LP  0  0  0  0  0  0  0  0  0  0  0  0  # atno 17394 bound_to 11000
  140.3515  134.2593  155.7198 LP  0  0  0  0  0  0  0  0  0  0  0  0  # atno 17395 bound_to 11000

$$$$
