AV-unprocessed.smi:3116|AV-procd|sdf|11871|dock8
  -GOLD-   2272017253D 1   1.00000     0.00000
 Structure written by MMmdl.
 33 33  0  0  0  0  0  0  0  0  1 V2000
  151.6914  137.5582  157.2151 C   0  0  0  0  0  0  0  0  0  0  0  0
  151.5716  139.0423  156.8063 C   0  0  1  0  0  0  0  0  0  0  0  0
  152.5711  139.8698  157.5016 N   0  0  0  0  0  0  0  0  0  0  0  0
  152.0021  140.9411  158.3176 C   0  0  2  0  0  0  0  0  0  0  0  0
  151.1977  141.8778  157.3917 C   0  0  0  0  0  0  0  0  0  0  0  0
  153.1640  141.6557  159.0592 C   0  0  2  0  0  0  0  0  0  0  0  0
  154.0135  140.6797  159.8974 C   0  0  0  0  0  0  0  0  0  0  0  0
  152.6925  142.7526  159.8962 N   0  0  0  0  0  0  0  0  0  0  0  0
  152.8116  142.8935  161.2635 C   0  0  0  0  0  0  0  0  0  0  0  0
  152.2237  144.0775  161.6058 C   0  0  0  0  0  0  0  0  0  0  0  0
  151.7658  144.5986  160.3639 C   0  0  0  0  0  0  0  0  0  0  0  0
  152.0466  143.8050  159.3436 N   0  0  0  0  0  0  0  0  0  0  0  0
  151.7246  139.2227  155.2892 C   0  0  0  0  0  0  0  0  0  0  0  0
  152.8634  138.7840  154.7461 N   0  0  0  0  0  0  0  0  0  0  0  0
  150.8361  139.7333  154.6089 O   0  0  0  0  0  0  0  0  0  0  0  0
  151.0134  136.9322  156.6337 H   0  0  0  0  0  0  0  0  0  0  0  0
  151.4399  137.4017  158.2634 H   0  0  0  0  0  0  0  0  0  0  0  0
  152.7040  137.1822  157.0627 H   0  0  0  0  0  0  0  0  0  0  0  0
  150.5691  139.3895  157.0606 H   0  0  0  0  0  0  0  0  0  0  0  0
  153.2329  140.2743  156.8549 H   0  0  0  0  0  0  0  0  0  0  0  0
  151.3232  140.5353  159.0675 H   0  0  0  0  0  0  0  0  0  0  0  0
  150.6914  142.6612  157.9559 H   0  0  0  0  0  0  0  0  0  0  0  0
  150.4242  141.3403  156.8435 H   0  0  0  0  0  0  0  0  0  0  0  0
  151.8447  142.3631  156.6602 H   0  0  0  0  0  0  0  0  0  0  0  0
  153.8203  142.1029  158.3102 H   0  0  0  0  0  0  0  0  0  0  0  0
  154.4808  139.9189  159.2719 H   0  0  0  0  0  0  0  0  0  0  0  0
  153.4101  140.1640  160.6451 H   0  0  0  0  0  0  0  0  0  0  0  0
  154.8132  141.2050  160.4201 H   0  0  0  0  0  0  0  0  0  0  0  0
  153.3003  142.1480  161.8733 H   0  0  0  0  0  0  0  0  0  0  0  0
  152.1346  144.5061  162.5929 H   0  0  0  0  0  0  0  0  0  0  0  0
  151.2410  145.5233  160.1746 H   0  0  0  0  0  0  0  0  0  0  0  0
  153.0150  138.8722  153.7518 H   0  0  0  0  0  0  0  0  0  0  0  0
  153.5667  138.3600  155.3336 H   0  0  0  0  0  0  0  0  0  0  0  0
  1  2  1  0  0  0  0
  1 16  1  0  0  0  0
  1 17  1  0  0  0  0
  1 18  1  0  0  0  0
  2  3  1  0  0  0  0
  2 13  1  0  0  0  0
  2 19  1  0  0  0  0
  3  4  1  0  0  0  0
  3 20  1  0  0  0  0
  4  5  1  0  0  0  0
  4  6  1  0  0  0  0
  4 21  1  0  0  0  0
  5 22  1  0  0  0  0
  5 23  1  0  0  0  0
  5 24  1  0  0  0  0
  6  7  1  0  0  0  0
  6  8  1  0  0  0  0
  6 25  1  0  0  0  0
  7 26  1  0  0  0  0
  7 27  1  0  0  0  0
  7 28  1  0  0  0  0
  8 12  1  0  0  0  0
  8  9  1  0  0  0  0
  9 10  2  0  0  0  0
  9 29  1  0  0  0  0
 10 11  1  0  0  0  0
 10 30  1  0  0  0  0
 11 12  2  0  0  0  0
 11 31  1  0  0  0  0
 13 14  1  0  0  0  0
 13 15  2  0  0  0  0
 14 32  1  0  0  0  0
 14 33  1  0  0  0  0
M  END
> <s_m_source_file>
AV-unprocessed.smi

> <i_m_source_file_index>
3116

> <i_lp_mmshare_version>
43012

> <i_f3d_flags>
0

> <s_epik_input>
W05IMl1DKD1PKVtDQEhdKFtDSDNdKVtOSF1bQ0BIXShbQ0gzXSlbQ0BIXShbQ0gzXSluMVtjSF1bY0hdW2NIXW4x

> <s_epik_cmdline>
J2VwaWtfcHl0aG9uJywgJy1waCcsICc3LjAnLCAnLXRuJywgJzgnLCAnLW1hJywgJzIwMCcsICctbWV0YWxfYmluZGluZycsICctaW1hZScsICc8aW5maWxlLm1hZT4nLCAnLW9tYWUnLCAnPG91dGZpbGUubWFlPic=

> <r_lp_tautomer_probability>
1

> <r_epik_Ionization_Penalty>
0.865977

> <r_epik_Ionization_Penalty_Charging>
0

> <r_epik_Ionization_Penalty_Neutral>
0.865977

> <r_epik_State_Penalty>
0.901888

> <r_epik_Charging_Adjusted_Penalty>
0.901888

> <i_epik_Tot_Q>
0

> <i_epik_Tot_abs_Q>
0

> <r_epik_Metal_State_Penalty>
0.901181

> <b_epik_Metal_Only>
0

> <s_lp_Force_Field>
OPLS_2005

> <r_lp_Energy>
9.31489

> <b_lp_Chiralities_Consistent>
1

> <s_lp_Variant>
AV-unprocessed.smi:3116-10

> <Gold.Version>
5.8.1

> <Gold.Id.Protein>
6NUR|6NUR_protein|mol2

> <Gold.PLP.Fitness>
35.7136

> <Gold.PLP.PLP>
-34.2927

> <Gold.PLP.part.hbond>
-2.0000

> <Gold.PLP.part.metal>
0.0000

> <Gold.PLP.part.buried>
-6.2053

> <Gold.PLP.part.nonpolar>
-26.0225

> <Gold.PLP.part.repulsive>
0.3354

> <Gold.PLP.ligand.clash>
0.0000

> <Gold.PLP.ligand.torsion>
0.8354

> <Gold.PLP.Chemscore.Hbond>
1.0000

> <Gold.PLP.Chemscore.CHOScore>
0.0000

> <Gold.PLP.Chemscore.Metal>
0.0000

> <Gold.Chemscore.Hbonds>
donor molecule, donor type, donor heavy atom, donor atom, acceptor molecule, acceptor atom, score
      P1  H  7989  7998       L1    15  1.00

> <Gold.PLP.Chemscore.Internal.Correction>
0.0917

> <Gold.Rescore>
     Score         DG    S(hbond)    S(metal)    S(lipo)     H(rot)  DE(clash)    DE(int)     intcor
      9.77     -12.00       1.00        0.00      79.33       2.38       0.08       2.15       ----

> <Gold.Chemscore.Fitness>
9.7654

> <Gold.Chemscore.DG>
-11.9973

> <Gold.Chemscore.ZeroCoef>
-5.4800

> <Gold.Chemscore.Hbond>
0.9994

> <Gold.Chemscore.Metal>
0.0000

> <Gold.Chemscore.Lipo>
79.3280

> <Gold.Chemscore.Internal_Hbond>
0.0000

> <Gold.Chemscore.DEClash>
0.0807

> <Gold.Chemscore.DEInternal>
2.1513

> <Gold.Chemscore.Rot>
2.3836

> <Gold.Chemscore.Internal.Correction>
   9.000000E+99

> <Gold.Chemscore.Hbonds>
donor molecule, donor type, donor heavy atom, donor atom, acceptor molecule, acceptor atom, score
      P1  H  7989  7998       L1    15  0.60

> <Gold.Chemscore.Hbond.Weighted>
-3.3379

> <Gold.Chemscore.Metal.Weighted>
-0.0000

> <Gold.Chemscore.Lipo.Weighted>
-9.2814

> <Gold.Chemscore.Internal_Hbond.Weighted>
0.0000

> <Gold.Chemscore.DEClash.Weighted>
0.0807

> <Gold.Chemscore.DEInternal.Weighted>
2.1513

> <Gold.Chemscore.Rot.Weighted>
6.1020

> <Gold.Chemscore.Internal.Correction.Weighted>
   9.000000E+99

> <Gold.Protein.RotatedTorsions>
[ 6907 6896 6895 6894 ] final  123.34 input  -60.11 | X-H torsion
[ 7974 7965 7964 7962 ] final  -39.05 input  175.53 | X-H torsion
[ 8008 7997 7996 7995 ] final  -81.45 input   59.86 | X-H torsion
[ 10167 10162 10161 10158 ] final -136.16 input  -65.29 | X-H torsion
[ 10718 10713 10712 10709 ] final    8.16 input   66.30 | X-H torsion
[ 10763 10752 10751 10750 ] final   92.13 input  -60.55 | X-H torsion
[ 11005 11000 10999 10996 ] final   16.67 input  -57.11 | X-H torsion

> <Gold.Protein.ActiveResidues>
 VAL166  LYS551  ARG553  GLY616  TRP617  ASP618  TYR619  PRO620  LYS621  CYS622 
 ASP623  PHE694  ASN695  SER759  ASP760  ASP761  ALA762  ILE779  LEU786  VAL792 
 PHE793  MET794  SER795  GLU796  ALA797  LYS798  CYS799  TRP800  GLU811  SER814 

> <Gold.Protein.RotatedAtoms>
  152.4169  133.7053  159.6447 H   0  0  0  0  0  0  0  0  0  0  0  0  # atno 6907 bound_to 6896
  150.8046  133.8523  159.3217 H   0  0  0  0  0  0  0  0  0  0  0  0  # atno 6908 bound_to 6896
  151.6250  135.1030  160.0161 H   0  0  0  0  0  0  0  0  0  0  0  0  # atno 6909 bound_to 6896
  146.0431  140.6581  142.9077 H   0  0  0  0  0  0  0  0  0  0  0  0  # atno 7974 bound_to 7965
  154.5984  140.0648  156.9335 H   0  0  0  0  0  0  0  0  0  0  0  0  # atno 8008 bound_to 7997
  155.2174  140.3327  155.4302 H   0  0  0  0  0  0  0  0  0  0  0  0  # atno 8009 bound_to 7997
  156.2302  140.1837  156.7245 H   0  0  0  0  0  0  0  0  0  0  0  0  # atno 8010 bound_to 7997
  139.8706  143.6962  152.2640 H   0  0  0  0  0  0  0  0  0  0  0  0  # atno 10167 bound_to 10162
  156.9475  130.5884  149.5655 H   0  0  0  0  0  0  0  0  0  0  0  0  # atno 10718 bound_to 10713
  153.2158  135.4372  155.0433 H   0  0  0  0  0  0  0  0  0  0  0  0  # atno 10763 bound_to 10752
  154.8224  135.3344  154.7000 H   0  0  0  0  0  0  0  0  0  0  0  0  # atno 10764 bound_to 10752
  153.7435  135.7003  153.5017 H   0  0  0  0  0  0  0  0  0  0  0  0  # atno 10765 bound_to 10752
  140.4445  134.1287  155.7694 H   0  0  0  0  0  0  0  0  0  0  0  0  # atno 11005 bound_to 11000
  144.7084  140.3945  143.7099 LP  0  0  0  0  0  0  0  0  0  0  0  0  # atno 17320 bound_to 7965
  145.6850  139.1626  143.2679 LP  0  0  0  0  0  0  0  0  0  0  0  0  # atno 17321 bound_to 7965
  139.7288  144.7587  151.0836 LP  0  0  0  0  0  0  0  0  0  0  0  0  # atno 17342 bound_to 10162
  140.7761  143.5115  150.9647 LP  0  0  0  0  0  0  0  0  0  0  0  0  # atno 17343 bound_to 10162
  156.0377  130.5463  150.8695 LP  0  0  0  0  0  0  0  0  0  0  0  0  # atno 17370 bound_to 10713
  157.5744  131.0946  150.9368 LP  0  0  0  0  0  0  0  0  0  0  0  0  # atno 17371 bound_to 10713
  141.1691  133.8645  157.1626 LP  0  0  0  0  0  0  0  0  0  0  0  0  # atno 17394 bound_to 11000
  140.0047  135.0013  157.0267 LP  0  0  0  0  0  0  0  0  0  0  0  0  # atno 17395 bound_to 11000

$$$$
