AV-unprocessed.smi:828|AV-procd|sdf|3862|dock10
  -GOLD-   22720 1313D 1   1.00000     0.00000
 Structure written by MMmdl.
 34 35  0  0  0  0  0  0  0  0  3 V2000
  137.6095  136.9550  154.8222 C   0  0  0  0  0  0  0  0  0  0  0  0
  139.0618  136.9562  154.4883 C   0  0  0  0  0  0  0  0  0  0  0  0
  139.7424  135.8372  154.2300 N   0  0  0  0  0  0  0  0  0  0  0  0
  141.0764  136.0905  153.9458 N   0  0  0  0  0  0  0  0  0  0  0  0
  141.3840  137.3945  153.9850 C   0  0  0  0  0  0  0  0  0  0  0  0
  142.6252  137.8479  153.7434 N   0  5  0  0  0  0  0  0  0  0  0  0
  143.6045  136.9831  153.3974 C   0  0  0  0  0  0  0  0  0  0  0  0
  143.4534  135.8877  152.8518 O   0  0  0  0  0  0  0  0  0  0  0  0
  144.8362  137.4204  153.6953 N   0  0  0  0  0  0  0  0  0  0  0  0
  146.0892  136.7223  153.4259 C   0  0  0  0  0  0  0  0  0  0  0  0
  146.9069  136.4969  154.7127 C   0  0  2  0  0  0  0  0  0  0  0  0
  147.4626  137.7778  155.3451 C   0  0  0  0  0  0  0  0  0  0  0  0
  148.6320  137.2684  156.1744 C   0  0  0  0  0  0  0  0  0  0  0  0
  149.2013  136.1312  155.3233 C   0  0  0  0  0  0  0  0  0  0  0  0
  148.0955  135.6469  154.4622 N   0  3  1  0  0  0  0  0  0  0  0  0
  147.8398  134.1943  154.5784 C   0  0  0  0  0  0  0  0  0  0  0  0
  140.0162  138.4272  154.4017 S   0  0  0  0  0  0  0  0  0  0  0  0
  137.0263  136.6670  153.9474 H   0  0  0  0  0  0  0  0  0  0  0  0
  137.2928  137.9474  155.1434 H   0  0  0  0  0  0  0  0  0  0  0  0
  137.4098  136.2475  155.6272 H   0  0  0  0  0  0  0  0  0  0  0  0
  144.9046  138.3207  154.1475 H   0  0  0  0  0  0  0  0  0  0  0  0
  145.8340  135.7625  152.9770 H   0  0  0  0  0  0  0  0  0  0  0  0
  146.6833  137.2546  152.6811 H   0  0  0  0  0  0  0  0  0  0  0  0
  146.2800  136.0035  155.4582 H   0  0  0  0  0  0  0  0  0  0  0  0
  147.8310  138.4559  154.5738 H   0  0  0  0  0  0  0  0  0  0  0  0
  146.7229  138.3141  155.9405 H   0  0  0  0  0  0  0  0  0  0  0  0
  149.3670  138.0433  156.3950 H   0  0  0  0  0  0  0  0  0  0  0  0
  148.2641  136.8738  157.1224 H   0  0  0  0  0  0  0  0  0  0  0  0
  149.9939  136.5060  154.6749 H   0  0  0  0  0  0  0  0  0  0  0  0
  149.6312  135.3452  155.9459 H   0  0  0  0  0  0  0  0  0  0  0  0
  147.5392  133.9279  155.5925 H   0  0  0  0  0  0  0  0  0  0  0  0
  148.7382  133.6294  154.3280 H   0  0  0  0  0  0  0  0  0  0  0  0
  147.0495  133.8852  153.8941 H   0  0  0  0  0  0  0  0  0  0  0  0
  148.3819  135.8280  153.5106 H   0  0  0  0  0  0  0  0  0  0  0  0
  1  2  1  0  0  0  0
  1 18  1  0  0  0  0
  1 19  1  0  0  0  0
  1 20  1  0  0  0  0
  2 17  1  0  0  0  0
  2  3  2  0  0  0  0
  3  4  1  0  0  0  0
  4  5  2  0  0  0  0
  5  6  1  0  0  0  0
  5 17  1  0  0  0  0
  6  7  1  0  0  0  0
  7  8  2  0  0  0  0
  7  9  1  0  0  0  0
  9 10  1  0  0  0  0
  9 21  1  0  0  0  0
 10 11  1  0  0  0  0
 10 22  1  0  0  0  0
 10 23  1  0  0  0  0
 11 15  1  0  0  0  0
 11 12  1  0  0  0  0
 11 24  1  0  0  0  0
 12 13  1  0  0  0  0
 12 25  1  0  0  0  0
 12 26  1  0  0  0  0
 13 14  1  0  0  0  0
 13 27  1  0  0  0  0
 13 28  1  0  0  0  0
 14 15  1  0  0  0  0
 14 29  1  0  0  0  0
 14 30  1  0  0  0  0
 15 16  1  0  0  0  0
 15 34  1  0  0  0  0
 16 31  1  0  0  0  0
 16 32  1  0  0  0  0
 16 33  1  0  0  0  0
M  CHG  1   6  -1
M  CHG  1  15   1
M  END
> <s_m_source_file>
AV-unprocessed.smi

> <i_m_source_file_index>
828

> <i_lp_mmshare_version>
43012

> <i_f3d_flags>
0

> <s_epik_input>
W0NIM11jMW5uYyhzMSlbTkhdQyg9TylbTkhdW0NIMl1bQ0BASF0yW0NIMl1bQ0gyXVtDSDJdTjJbQ0gzXQ==

> <s_epik_cmdline>
J2VwaWtfcHl0aG9uJywgJy1waCcsICc3LjAnLCAnLXRuJywgJzgnLCAnLW1hJywgJzIwMCcsICctbWV0YWxfYmluZGluZycsICctaW1hZScsICc8aW5maWxlLm1hZT4nLCAnLW9tYWUnLCAnPG91dGZpbGUubWFlPic=

> <r_lp_tautomer_probability>
1

> <r_epik_Ionization_Penalty>
3.94379

> <r_epik_Ionization_Penalty_Charging>
3.83377

> <r_epik_Ionization_Penalty_Neutral>
0.110023

> <r_epik_State_Penalty>
3.83036

> <r_epik_Charging_Adjusted_Penalty>
7.66413

> <i_epik_Tot_Q>
0

> <i_epik_Tot_abs_Q>
2

> <r_epik_Metal_State_Penalty>
0.575095

> <b_epik_Metal_Only>
1

> <s_lp_Force_Field>
OPLS_2005

> <r_lp_Energy>
18.3526

> <b_lp_Chiralities_Consistent>
1

> <s_lp_Variant>
AV-unprocessed.smi:828-5

> <Gold.Version>
5.8.1

> <Gold.Id.Protein>
6NUR|6NUR_protein|mol2

> <Gold.PLP.Fitness>
37.1702

> <Gold.PLP.PLP>
-25.4886

> <Gold.PLP.part.hbond>
-3.7935

> <Gold.PLP.part.metal>
0.0000

> <Gold.PLP.part.buried>
-4.2004

> <Gold.PLP.part.nonpolar>
-18.8775

> <Gold.PLP.part.repulsive>
1.5276

> <Gold.PLP.ligand.clash>
0.0000

> <Gold.PLP.ligand.torsion>
0.1704

> <Gold.PLP.Chemscore.Hbond>
4.0000

> <Gold.PLP.Chemscore.CHOScore>
0.0000

> <Gold.PLP.Chemscore.Metal>
0.0000

> <Gold.Chemscore.Hbonds>
donor molecule, donor type, donor heavy atom, donor atom, acceptor molecule, acceptor atom, score
      L1  H    15    34       P1  7948  2.00
      P1  H 11000 11005       L1     3  0.85

> <Gold.PLP.Chemscore.Internal.Correction>
0.0224

> <Gold.Rescore>
     Score         DG    S(hbond)    S(metal)    S(lipo)     H(rot)  DE(clash)    DE(int)     intcor
     16.05     -18.08       2.96        0.00      52.10       1.31       0.18       1.86       ----

> <Gold.Chemscore.Fitness>
16.0462

> <Gold.Chemscore.DG>
-18.0818

> <Gold.Chemscore.ZeroCoef>
-5.4800

> <Gold.Chemscore.Hbond>
2.9556

> <Gold.Chemscore.Metal>
0.0000

> <Gold.Chemscore.Lipo>
52.1035

> <Gold.Chemscore.Internal_Hbond>
0.0000

> <Gold.Chemscore.DEClash>
0.1760

> <Gold.Chemscore.DEInternal>
1.8595

> <Gold.Chemscore.Rot>
1.3149

> <Gold.Chemscore.Internal.Correction>
   9.000000E+99

> <Gold.Chemscore.Hbonds>
donor molecule, donor type, donor heavy atom, donor atom, acceptor molecule, acceptor atom, score
      L1  H    15    34       P1  7948  1.00
      P1  H 11000 11005       L1     3  0.15

> <Gold.Chemscore.Hbond.Weighted>
-9.8718

> <Gold.Chemscore.Metal.Weighted>
-0.0000

> <Gold.Chemscore.Lipo.Weighted>
-6.0961

> <Gold.Chemscore.Internal_Hbond.Weighted>
0.0000

> <Gold.Chemscore.DEClash.Weighted>
0.1760

> <Gold.Chemscore.DEInternal.Weighted>
1.8595

> <Gold.Chemscore.Rot.Weighted>
3.3662

> <Gold.Chemscore.Internal.Correction.Weighted>
   9.000000E+99

> <Gold.Protein.RotatedTorsions>
[ 6907 6896 6895 6894 ] final   70.83 input  -60.11 | X-H torsion
[ 7974 7965 7964 7962 ] final   58.28 input  175.53 | X-H torsion
[ 8008 7997 7996 7995 ] final -176.29 input   59.86 | X-H torsion
[ 10167 10162 10161 10158 ] final -115.54 input  -65.29 | X-H torsion
[ 10718 10713 10712 10709 ] final -153.04 input   66.30 | X-H torsion
[ 10763 10752 10751 10750 ] final   74.09 input  -60.55 | X-H torsion
[ 11005 11000 10999 10996 ] final   61.87 input  -57.11 | X-H torsion

> <Gold.Protein.ActiveResidues>
 VAL166  LYS551  ARG553  GLY616  TRP617  ASP618  TYR619  PRO620  LYS621  CYS622 
 ASP623  PHE694  ASN695  SER759  ASP760  ASP761  ALA762  ILE779  LEU786  VAL792 
 PHE793  MET794  SER795  GLU796  ALA797  LYS798  CYS799  TRP800  GLU811  SER814 

> <Gold.Protein.RotatedAtoms>
  152.4773  134.4811  159.9665 H   0  0  0  0  0  0  0  0  0  0  0  0  # atno 6907 bound_to 6896
  151.4824  133.3537  159.2848 H   0  0  0  0  0  0  0  0  0  0  0  0  # atno 6908 bound_to 6896
  150.8820  134.8239  159.7293 H   0  0  0  0  0  0  0  0  0  0  0  0  # atno 6909 bound_to 6896
  145.9199  139.3721  143.0485 H   0  0  0  0  0  0  0  0  0  0  0  0  # atno 7974 bound_to 7965
  155.9931  140.1205  157.0619 H   0  0  0  0  0  0  0  0  0  0  0  0  # atno 8008 bound_to 7997
  154.4218  140.1121  156.5661 H   0  0  0  0  0  0  0  0  0  0  0  0  # atno 8009 bound_to 7997
  155.6315  140.3473  155.4687 H   0  0  0  0  0  0  0  0  0  0  0  0  # atno 8010 bound_to 7997
  140.0890  143.4717  152.1881 H   0  0  0  0  0  0  0  0  0  0  0  0  # atno 10167 bound_to 10162
  156.4805  130.8301  151.2528 H   0  0  0  0  0  0  0  0  0  0  0  0  # atno 10718 bound_to 10713
  153.0564  135.5039  154.7990 H   0  0  0  0  0  0  0  0  0  0  0  0  # atno 10763 bound_to 10752
  154.6813  135.2969  154.9611 H   0  0  0  0  0  0  0  0  0  0  0  0  # atno 10764 bound_to 10752
  154.0396  135.6718  153.4841 H   0  0  0  0  0  0  0  0  0  0  0  0  # atno 10765 bound_to 10752
  140.0131  134.6266  155.9751 H   0  0  0  0  0  0  0  0  0  0  0  0  # atno 11005 bound_to 11000
  145.8564  140.9500  143.0723 LP  0  0  0  0  0  0  0  0  0  0  0  0  # atno 17320 bound_to 7965
  144.6752  140.0473  143.7479 LP  0  0  0  0  0  0  0  0  0  0  0  0  # atno 17321 bound_to 7965
  139.5736  144.7475  151.3825 LP  0  0  0  0  0  0  0  0  0  0  0  0  # atno 17342 bound_to 10162
  140.7038  143.7564  150.7448 LP  0  0  0  0  0  0  0  0  0  0  0  0  # atno 17343 bound_to 10162
  157.7483  131.0046  150.3083 LP  0  0  0  0  0  0  0  0  0  0  0  0  # atno 17370 bound_to 10713
  156.3526  130.3833  149.7316 LP  0  0  0  0  0  0  0  0  0  0  0  0  # atno 17371 bound_to 10713
  141.1724  133.6538  156.4702 LP  0  0  0  0  0  0  0  0  0  0  0  0  # atno 17394 bound_to 11000
  140.4519  134.6921  157.5044 LP  0  0  0  0  0  0  0  0  0  0  0  0  # atno 17395 bound_to 11000

$$$$
