AV-unprocessed.smi:3280|AV-procd|sdf|12552|dock4
  -GOLD-   2272018473D 1   1.00000     0.00000
 Structure written by MMmdl.
 39 40  0  0  0  0  0  0  0  0  2 V2000
  151.6829  135.9937  157.2598 C   0  0  0  0  0  0  0  0  0  0  0  0
  150.5296  136.4748  156.3662 C   0  0  0  0  0  0  0  0  0  0  0  0
  150.2395  135.5211  155.1979 C   0  0  0  0  0  0  0  0  0  0  0  0
  150.7407  137.8805  155.8928 C   0  0  0  0  0  0  0  0  0  0  0  0
  151.7568  138.1934  155.0965 N   0  0  0  0  0  0  0  0  0  0  0  0
  151.6136  139.5757  154.9123 O   0  0  0  0  0  0  0  0  0  0  0  0
  150.5099  139.9284  155.6128 C   0  0  0  0  0  0  0  0  0  0  0  0
  150.1143  141.3661  155.6574 C   0  0  0  0  0  0  0  0  0  0  0  0
  150.4031  142.0076  157.0204 C   0  0  0  0  0  0  0  0  0  0  0  0
  151.1054  143.2988  156.8599 N   0  3  0  0  0  0  0  0  0  0  0  0
  151.7733  143.8184  158.0749 C   0  0  2  0  0  0  0  0  0  0  0  0
  152.3129  142.6330  158.9000 C   0  0  0  0  0  0  0  0  0  0  0  0
  153.1060  143.0747  160.1407 C   0  0  0  0  0  0  0  0  0  0  0  0
  152.2539  143.8928  161.1198 C   0  0  0  0  0  0  0  0  0  0  0  0
  151.6598  145.4196  160.3458 S   0  0  0  0  0  0  0  0  0  0  0  0
  150.8170  144.6926  158.9138 C   0  0  0  0  0  0  0  0  0  0  0  0
  149.9379  138.9186  156.2620 N   0  0  0  0  0  0  0  0  0  0  0  0
  151.8179  136.6545  158.1167 H   0  0  0  0  0  0  0  0  0  0  0  0
  152.6246  135.9624  156.7109 H   0  0  0  0  0  0  0  0  0  0  0  0
  151.4893  134.9915  157.6429 H   0  0  0  0  0  0  0  0  0  0  0  0
  149.6363  136.4743  156.9935 H   0  0  0  0  0  0  0  0  0  0  0  0
  149.3700  135.8519  154.6288 H   0  0  0  0  0  0  0  0  0  0  0  0
  150.0344  134.5122  155.5569 H   0  0  0  0  0  0  0  0  0  0  0  0
  151.0854  135.4635  154.5124 H   0  0  0  0  0  0  0  0  0  0  0  0
  150.6496  141.8975  154.8693 H   0  0  0  0  0  0  0  0  0  0  0  0
  149.0517  141.4416  155.4219 H   0  0  0  0  0  0  0  0  0  0  0  0
  149.4661  142.1682  157.5557 H   0  0  0  0  0  0  0  0  0  0  0  0
  151.0081  141.3293  157.6221 H   0  0  0  0  0  0  0  0  0  0  0  0
  151.7875  143.2179  156.1192 H   0  0  0  0  0  0  0  0  0  0  0  0
  152.6233  144.4237  157.7558 H   0  0  0  0  0  0  0  0  0  0  0  0
  151.4882  141.9883  159.2075 H   0  0  0  0  0  0  0  0  0  0  0  0
  152.9605  142.0190  158.2728 H   0  0  0  0  0  0  0  0  0  0  0  0
  153.4912  142.1925  160.6528 H   0  0  0  0  0  0  0  0  0  0  0  0
  153.9780  143.6552  159.8366 H   0  0  0  0  0  0  0  0  0  0  0  0
  151.3984  143.3094  161.4619 H   0  0  0  0  0  0  0  0  0  0  0  0
  152.8376  144.1529  162.0032 H   0  0  0  0  0  0  0  0  0  0  0  0
  150.4148  145.5164  158.3255 H   0  0  0  0  0  0  0  0  0  0  0  0
  149.9669  144.1059  159.2639 H   0  0  0  0  0  0  0  0  0  0  0  0
  150.4137  143.9810  156.5832 H   0  0  0  0  0  0  0  0  0  0  0  0
  1  2  1  0  0  0  0
  1 18  1  0  0  0  0
  1 19  1  0  0  0  0
  1 20  1  0  0  0  0
  2  3  1  0  0  0  0
  2  4  1  0  0  0  0
  2 21  1  0  0  0  0
  3 22  1  0  0  0  0
  3 23  1  0  0  0  0
  3 24  1  0  0  0  0
  4 17  1  0  0  0  0
  4  5  2  0  0  0  0
  5  6  1  0  0  0  0
  6  7  1  0  0  0  0
  7  8  1  0  0  0  0
  7 17  2  0  0  0  0
  8  9  1  0  0  0  0
  8 25  1  0  0  0  0
  8 26  1  0  0  0  0
  9 10  1  0  0  0  0
  9 27  1  0  0  0  0
  9 28  1  0  0  0  0
 10 11  1  0  0  0  0
 10 29  1  0  0  0  0
 10 39  1  0  0  0  0
 11 16  1  0  0  0  0
 11 12  1  0  0  0  0
 11 30  1  0  0  0  0
 12 13  1  0  0  0  0
 12 31  1  0  0  0  0
 12 32  1  0  0  0  0
 13 14  1  0  0  0  0
 13 33  1  0  0  0  0
 13 34  1  0  0  0  0
 14 15  1  0  0  0  0
 14 35  1  0  0  0  0
 14 36  1  0  0  0  0
 15 16  1  0  0  0  0
 16 37  1  0  0  0  0
 16 38  1  0  0  0  0
M  CHG  1  10   1
M  END
> <s_m_source_file>
AV-unprocessed.smi

> <i_m_source_file_index>
3280

> <i_lp_mmshare_version>
43012

> <i_f3d_flags>
0

> <s_epik_input>
W0NIM11bQ0hdKFtDSDNdKWMxbm9jKG4xKVtDSDJdW0NIMl1bTkhdW0NAQEhdMltDSDJdW0NIMl1bQ0gyXVNbQ0gyXTI=

> <s_epik_cmdline>
J2VwaWtfcHl0aG9uJywgJy1waCcsICc3LjAnLCAnLXRuJywgJzgnLCAnLW1hJywgJzIwMCcsICctbWV0YWxfYmluZGluZycsICctaW1hZScsICc8aW5maWxlLm1hZT4nLCAnLW9tYWUnLCAnPG91dGZpbGUubWFlPic=

> <r_lp_tautomer_probability>
1

> <r_epik_Ionization_Penalty>
0.0103043

> <r_epik_Ionization_Penalty_Charging>
0.0103043

> <r_epik_Ionization_Penalty_Neutral>
2.61801e-13

> <r_epik_State_Penalty>
0.0078728

> <r_epik_Charging_Adjusted_Penalty>
0.0181771

> <i_epik_Tot_Q>
1

> <i_epik_Tot_abs_Q>
1

> <r_epik_Metal_State_Penalty>
0.0078728

> <b_epik_Metal_Only>
0

> <s_lp_Force_Field>
OPLS_2005

> <r_lp_Energy>
0.790669

> <b_lp_Chiralities_Consistent>
1

> <s_lp_Variant>
AV-unprocessed.smi:3280-1

> <Gold.Version>
5.8.1

> <Gold.Id.Protein>
6NUR|6NUR_protein|mol2

> <Gold.PLP.Fitness>
44.4842

> <Gold.PLP.PLP>
-37.1530

> <Gold.PLP.part.hbond>
-2.0000

> <Gold.PLP.part.metal>
0.0000

> <Gold.PLP.part.buried>
-4.9875

> <Gold.PLP.part.nonpolar>
-30.9389

> <Gold.PLP.part.repulsive>
0.1789

> <Gold.PLP.ligand.clash>
0.0000

> <Gold.PLP.ligand.torsion>
0.8815

> <Gold.PLP.Chemscore.Hbond>
3.0000

> <Gold.PLP.Chemscore.CHOScore>
0.0000

> <Gold.PLP.Chemscore.Metal>
0.0000

> <Gold.Chemscore.Hbonds>
donor molecule, donor type, donor heavy atom, donor atom, acceptor molecule, acceptor atom, score
      L1  H    10    39       P1  8028  2.00
      P1  H  7989  7998       L1     6  1.00

> <Gold.PLP.Chemscore.Internal.Correction>
0.0943

> <Gold.Rescore>
     Score         DG    S(hbond)    S(metal)    S(lipo)     H(rot)  DE(clash)    DE(int)     intcor
     18.38     -19.09       1.95        0.00      99.13       1.76       0.03       0.68       ----

> <Gold.Chemscore.Fitness>
18.3781

> <Gold.Chemscore.DG>
-19.0918

> <Gold.Chemscore.ZeroCoef>
-5.4800

> <Gold.Chemscore.Hbond>
1.9497

> <Gold.Chemscore.Metal>
0.0000

> <Gold.Chemscore.Lipo>
99.1284

> <Gold.Chemscore.Internal_Hbond>
0.0000

> <Gold.Chemscore.DEClash>
0.0294

> <Gold.Chemscore.DEInternal>
0.6843

> <Gold.Chemscore.Rot>
1.7572

> <Gold.Chemscore.Internal.Correction>
   9.000000E+99

> <Gold.Chemscore.Hbonds>
donor molecule, donor type, donor heavy atom, donor atom, acceptor molecule, acceptor atom, score
      L1  H    10    39       P1  8028  0.99
      P1  H  7989  7998       L1     6  0.39

> <Gold.Chemscore.Hbond.Weighted>
-6.5121

> <Gold.Chemscore.Metal.Weighted>
-0.0000

> <Gold.Chemscore.Lipo.Weighted>
-11.5980

> <Gold.Chemscore.Internal_Hbond.Weighted>
0.0000

> <Gold.Chemscore.DEClash.Weighted>
0.0294

> <Gold.Chemscore.DEInternal.Weighted>
0.6843

> <Gold.Chemscore.Rot.Weighted>
4.4984

> <Gold.Chemscore.Internal.Correction.Weighted>
   9.000000E+99

> <Gold.Protein.RotatedTorsions>
[ 6907 6896 6895 6894 ] final  -29.04 input  -60.11 | X-H torsion
[ 7974 7965 7964 7962 ] final  -74.36 input  175.53 | X-H torsion
[ 8008 7997 7996 7995 ] final -131.35 input   59.86 | X-H torsion
[ 10167 10162 10161 10158 ] final   -2.17 input  -65.29 | X-H torsion
[ 10718 10713 10712 10709 ] final -114.55 input   66.30 | X-H torsion
[ 10763 10752 10751 10750 ] final -112.00 input  -60.55 | X-H torsion
[ 11005 11000 10999 10996 ] final   11.18 input  -57.11 | X-H torsion

> <Gold.Protein.ActiveResidues>
 VAL166  LYS551  ARG553  GLY616  TRP617  ASP618  TYR619  PRO620  LYS621  CYS622 
 ASP623  PHE694  ASN695  SER759  ASP760  ASP761  ALA762  ILE779  LEU786  VAL792 
 PHE793  MET794  SER795  GLU796  ALA797  LYS798  CYS799  TRP800  GLU811  SER814 

> <Gold.Protein.RotatedAtoms>
  151.1247  135.0098  159.8554 H   0  0  0  0  0  0  0  0  0  0  0  0  # atno 6907 bound_to 6896
  152.5449  134.1681  159.8595 H   0  0  0  0  0  0  0  0  0  0  0  0  # atno 6908 bound_to 6896
  151.1742  133.4720  159.2627 H   0  0  0  0  0  0  0  0  0  0  0  0  # atno 6909 bound_to 6896
  145.6401  140.9313  143.1040 H   0  0  0  0  0  0  0  0  0  0  0  0  # atno 7974 bound_to 7965
  155.3109  140.0457  157.3035 H   0  0  0  0  0  0  0  0  0  0  0  0  # atno 8008 bound_to 7997
  154.5433  140.2295  155.8571 H   0  0  0  0  0  0  0  0  0  0  0  0  # atno 8009 bound_to 7997
  156.1901  140.3052  155.9322 H   0  0  0  0  0  0  0  0  0  0  0  0  # atno 8010 bound_to 7997
  140.6840  143.6688  150.8203 H   0  0  0  0  0  0  0  0  0  0  0  0  # atno 10167 bound_to 10162
  156.0837  130.6033  150.8790 H   0  0  0  0  0  0  0  0  0  0  0  0  # atno 10718 bound_to 10713
  154.8328  135.4507  154.1126 H   0  0  0  0  0  0  0  0  0  0  0  0  # atno 10763 bound_to 10752
  153.2384  135.6913  153.7817 H   0  0  0  0  0  0  0  0  0  0  0  0  # atno 10764 bound_to 10752
  153.7173  135.3347  155.3235 H   0  0  0  0  0  0  0  0  0  0  0  0  # atno 10765 bound_to 10752
  140.5061  134.0698  155.7806 H   0  0  0  0  0  0  0  0  0  0  0  0  # atno 11005 bound_to 11000
  144.7161  139.8194  143.7398 LP  0  0  0  0  0  0  0  0  0  0  0  0  # atno 17320 bound_to 7965
  146.1288  139.4319  143.0182 LP  0  0  0  0  0  0  0  0  0  0  0  0  # atno 17321 bound_to 7965
  140.0393  143.5363  152.2725 LP  0  0  0  0  0  0  0  0  0  0  0  0  # atno 17342 bound_to 10162
  139.6184  144.7624  151.2795 LP  0  0  0  0  0  0  0  0  0  0  0  0  # atno 17343 bound_to 10162
  157.5964  131.0943  150.9034 LP  0  0  0  0  0  0  0  0  0  0  0  0  # atno 17370 bound_to 10713
  156.9200  130.5311  149.5279 LP  0  0  0  0  0  0  0  0  0  0  0  0  # atno 17371 bound_to 10713
  141.1410  133.9138  157.2325 LP  0  0  0  0  0  0  0  0  0  0  0  0  # atno 17394 bound_to 11000
  139.9685  135.0135  156.9451 LP  0  0  0  0  0  0  0  0  0  0  0  0  # atno 17395 bound_to 11000

$$$$
