AV-unprocessed.smi:1863|AV-procd|sdf|7550|dock5
  -GOLD-   22720 9263D 1   1.00000     0.00000
 Structure written by MMmdl.
 37 38  0  0  0  0  0  0  0  0  1 V2000
  147.0281  139.7295  151.8018 C   0  0  0  0  0  0  0  0  0  0  0  0
  146.3037  138.7315  152.7160 C   0  0  2  0  0  0  0  0  0  0  0  0
  146.7232  138.9216  154.1901 C   0  0  0  0  0  0  0  0  0  0  0  0
  148.1759  138.9600  154.3525 N   0  0  0  0  0  0  0  0  0  0  0  0
  148.8999  137.7907  154.8221 C   0  0  0  0  0  0  0  0  0  0  0  0
  150.3826  138.1505  154.6559 C   0  0  0  0  0  0  0  0  0  0  0  0
  150.4206  139.6704  154.4666 C   0  0  0  0  0  0  0  0  0  0  0  0
  148.9708  140.0237  154.1820 C   0  0  0  0  0  0  0  0  0  0  0  0
  148.6138  141.1506  153.8407 O   0  0  0  0  0  0  0  0  0  0  0  0
  146.6214  137.3797  152.2590 N   0  0  0  0  0  0  0  0  0  0  0  0
  145.7268  136.4378  151.9252 C   0  0  0  0  0  0  0  0  0  0  0  0
  144.5088  136.6135  151.9551 O   0  0  0  0  0  0  0  0  0  0  0  0
  146.3367  135.2870  151.5947 N   0  0  0  0  0  0  0  0  0  0  0  0
  145.7424  134.0577  151.2030 C   0  0  0  0  0  0  0  0  0  0  0  0
  144.3347  133.9793  151.1815 C   0  0  0  0  0  0  0  0  0  0  0  0
  143.7209  132.7672  150.8130 C   0  0  0  0  0  0  0  0  0  0  0  0
  144.5439  131.6714  150.4888 C   0  0  0  0  0  0  0  0  0  0  0  0
  145.8922  131.7238  150.5197 N   0  0  0  0  0  0  0  0  0  0  0  0
  146.4745  132.8907  150.8714 C   0  0  0  0  0  0  0  0  0  0  0  0
  146.7974  140.7576  152.0825 H   0  0  0  0  0  0  0  0  0  0  0  0
  146.7275  139.5997  150.7615 H   0  0  0  0  0  0  0  0  0  0  0  0
  148.1105  139.6050  151.8546 H   0  0  0  0  0  0  0  0  0  0  0  0
  145.2342  138.9287  152.6220 H   0  0  0  0  0  0  0  0  0  0  0  0
  146.2651  139.8183  154.6115 H   0  0  0  0  0  0  0  0  0  0  0  0
  146.3479  138.0889  154.7868 H   0  0  0  0  0  0  0  0  0  0  0  0
  148.6556  137.6132  155.8703 H   0  0  0  0  0  0  0  0  0  0  0  0
  148.6339  136.8994  154.2522 H   0  0  0  0  0  0  0  0  0  0  0  0
  150.9758  137.8282  155.5122 H   0  0  0  0  0  0  0  0  0  0  0  0
  150.7888  137.6593  153.7705 H   0  0  0  0  0  0  0  0  0  0  0  0
  150.7456  140.1772  155.3756 H   0  0  0  0  0  0  0  0  0  0  0  0
  151.0726  139.9679  153.6448 H   0  0  0  0  0  0  0  0  0  0  0  0
  147.6003  137.1374  152.2137 H   0  0  0  0  0  0  0  0  0  0  0  0
  147.3400  135.2683  151.7057 H   0  0  0  0  0  0  0  0  0  0  0  0
  143.7300  134.8371  151.4380 H   0  0  0  0  0  0  0  0  0  0  0  0
  142.6451  132.6795  150.7796 H   0  0  0  0  0  0  0  0  0  0  0  0
  144.1078  130.7259  150.2022 H   0  0  0  0  0  0  0  0  0  0  0  0
  147.5525  132.8646  150.9034 H   0  0  0  0  0  0  0  0  0  0  0  0
  1  2  1  0  0  0  0
  1 20  1  0  0  0  0
  1 21  1  0  0  0  0
  1 22  1  0  0  0  0
  2  3  1  0  0  0  0
  2 10  1  0  0  0  0
  2 23  1  0  0  0  0
  3  4  1  0  0  0  0
  3 24  1  0  0  0  0
  3 25  1  0  0  0  0
  4  8  1  0  0  0  0
  4  5  1  0  0  0  0
  5  6  1  0  0  0  0
  5 26  1  0  0  0  0
  5 27  1  0  0  0  0
  6  7  1  0  0  0  0
  6 28  1  0  0  0  0
  6 29  1  0  0  0  0
  7  8  1  0  0  0  0
  7 30  1  0  0  0  0
  7 31  1  0  0  0  0
  8  9  2  0  0  0  0
 10 11  1  0  0  0  0
 10 32  1  0  0  0  0
 11 12  2  0  0  0  0
 11 13  1  0  0  0  0
 13 14  1  0  0  0  0
 13 33  1  0  0  0  0
 14 19  1  0  0  0  0
 14 15  2  0  0  0  0
 15 16  1  0  0  0  0
 15 34  1  0  0  0  0
 16 17  2  0  0  0  0
 16 35  1  0  0  0  0
 17 18  1  0  0  0  0
 17 36  1  0  0  0  0
 18 19  2  0  0  0  0
 19 37  1  0  0  0  0
M  END
> <s_m_source_file>
AV-unprocessed.smi

> <i_m_source_file_index>
1863

> <i_lp_mmshare_version>
43012

> <i_f3d_flags>
0

> <s_epik_input>
Tz1DMVtDSDJdW0NIMl1bQ0gyXU4xW0NIMl1bQ0BASF0oW0NIM10pW05IXUMoPU8pW05IXWMyW2NIXVtjSF1bY0hdbltjSF0y

> <s_epik_cmdline>
J2VwaWtfcHl0aG9uJywgJy1waCcsICc3LjAnLCAnLXRuJywgJzgnLCAnLW1hJywgJzIwMCcsICctbWV0YWxfYmluZGluZycsICctaW1hZScsICc8aW5maWxlLm1hZT4nLCAnLW9tYWUnLCAnPG91dGZpbGUubWFlPic=

> <r_epik_Ionization_Penalty>
0.0047799

> <r_epik_Ionization_Penalty_Charging>
0

> <r_epik_Ionization_Penalty_Neutral>
0.0047799

> <r_epik_State_Penalty>
0.0034394

> <r_epik_Charging_Adjusted_Penalty>
0.0034394

> <i_epik_Tot_Q>
0

> <i_epik_Tot_abs_Q>
0

> <r_epik_Metal_State_Penalty>
-0

> <b_epik_Metal_Only>
0

> <s_lp_Force_Field>
OPLS_2005

> <r_lp_Energy>
22.2943

> <b_lp_Chiralities_Consistent>
1

> <s_lp_Variant>
AV-unprocessed.smi:1863-1

> <Gold.Version>
5.8.1

> <Gold.Id.Protein>
6NUR|6NUR_protein|mol2

> <Gold.PLP.Fitness>
39.0284

> <Gold.PLP.PLP>
-30.0047

> <Gold.PLP.part.hbond>
-2.6936

> <Gold.PLP.part.metal>
0.0000

> <Gold.PLP.part.buried>
1.5886

> <Gold.PLP.part.nonpolar>
-30.7463

> <Gold.PLP.part.repulsive>
1.7799

> <Gold.PLP.ligand.clash>
0.0000

> <Gold.PLP.ligand.torsion>
0.3843

> <Gold.PLP.Chemscore.Hbond>
2.3503

> <Gold.PLP.Chemscore.CHOScore>
0.9076

> <Gold.PLP.Chemscore.Metal>
0.0000

> <Gold.Chemscore.Hbonds>
donor molecule, donor type, donor heavy atom, donor atom, acceptor molecule, acceptor atom, score
      L1  H    10    32       P1  7948  1.00
      L1  H    13    33       P1  7948  0.98
      P1  H  8011  8017       L1     9  0.29
      L1  C    19    37       P1 10747  0.91

> <Gold.PLP.Chemscore.Internal.Correction>
0.0188

> <Gold.Rescore>
     Score         DG    S(hbond)    S(metal)    S(lipo)     H(rot)  DE(clash)    DE(int)     intcor
     13.68     -17.24       2.09        0.00      74.69       1.54       1.69       1.87       ----

> <Gold.Chemscore.Fitness>
13.6845

> <Gold.Chemscore.DG>
-17.2355

> <Gold.Chemscore.ZeroCoef>
-5.4800

> <Gold.Chemscore.Hbond>
2.0857

> <Gold.Chemscore.Metal>
0.0000

> <Gold.Chemscore.Lipo>
74.6914

> <Gold.Chemscore.Internal_Hbond>
0.0000

> <Gold.Chemscore.DEClash>
1.6859

> <Gold.Chemscore.DEInternal>
1.8651

> <Gold.Chemscore.Rot>
1.5428

> <Gold.Chemscore.Internal.Correction>
   9.000000E+99

> <Gold.Chemscore.Hbonds>
donor molecule, donor type, donor heavy atom, donor atom, acceptor molecule, acceptor atom, score
      L1  H    10    32       P1  7948  0.99
      L1  H    13    33       P1  7948  0.89
      P1  H  8011  8017       L1     9  0.29

> <Gold.Chemscore.Hbond.Weighted>
-6.9663

> <Gold.Chemscore.Metal.Weighted>
-0.0000

> <Gold.Chemscore.Lipo.Weighted>
-8.7389

> <Gold.Chemscore.Internal_Hbond.Weighted>
0.0000

> <Gold.Chemscore.DEClash.Weighted>
1.6859

> <Gold.Chemscore.DEInternal.Weighted>
1.8651

> <Gold.Chemscore.Rot.Weighted>
3.9497

> <Gold.Chemscore.Internal.Correction.Weighted>
   9.000000E+99

> <Gold.Protein.RotatedTorsions>
[ 6907 6896 6895 6894 ] final  168.17 input  -60.11 | X-H torsion
[ 7974 7965 7964 7962 ] final  -33.58 input  175.53 | X-H torsion
[ 8008 7997 7996 7995 ] final  -29.83 input   59.86 | X-H torsion
[ 10167 10162 10161 10158 ] final -113.58 input  -65.29 | X-H torsion
[ 10718 10713 10712 10709 ] final   93.97 input   66.30 | X-H torsion
[ 10763 10752 10751 10750 ] final -118.04 input  -60.55 | X-H torsion
[ 11005 11000 10999 10996 ] final  -77.81 input  -57.11 | X-H torsion

> <Gold.Protein.ActiveResidues>
 VAL166  LYS551  ARG553  GLY616  TRP617  ASP618  TYR619  PRO620  LYS621  CYS622 
 ASP623  PHE694  ASN695  SER759  ASP760  ASP761  ALA762  ILE779  LEU786  VAL792 
 PHE793  MET794  SER795  GLU796  ALA797  LYS798  CYS799  TRP800  GLU811  SER814 

> <Gold.Protein.RotatedAtoms>
  151.8518  133.3441  159.3675 H   0  0  0  0  0  0  0  0  0  0  0  0  # atno 6907 bound_to 6896
  150.7204  134.5291  159.5701 H   0  0  0  0  0  0  0  0  0  0  0  0  # atno 6908 bound_to 6896
  152.2787  134.7854  160.0452 H   0  0  0  0  0  0  0  0  0  0  0  0  # atno 6909 bound_to 6896
  146.0899  140.5934  142.8869 H   0  0  0  0  0  0  0  0  0  0  0  0  # atno 7974 bound_to 7965
  154.4274  140.1807  156.1311 H   0  0  0  0  0  0  0  0  0  0  0  0  # atno 8008 bound_to 7997
  156.0067  140.3354  155.6874 H   0  0  0  0  0  0  0  0  0  0  0  0  # atno 8009 bound_to 7997
  155.6168  140.0655  157.2681 H   0  0  0  0  0  0  0  0  0  0  0  0  # atno 8010 bound_to 7997
  140.1103  143.4533  152.1756 H   0  0  0  0  0  0  0  0  0  0  0  0  # atno 10167 bound_to 10162
  157.6951  131.0496  150.4114 H   0  0  0  0  0  0  0  0  0  0  0  0  # atno 10718 bound_to 10713
  154.8575  135.4288  154.2076 H   0  0  0  0  0  0  0  0  0  0  0  0  # atno 10763 bound_to 10752
  153.3109  135.6975  153.7123 H   0  0  0  0  0  0  0  0  0  0  0  0  # atno 10764 bound_to 10752
  153.6216  135.3501  155.2986 H   0  0  0  0  0  0  0  0  0  0  0  0  # atno 10765 bound_to 10752
  141.1662  133.7038  156.7877 H   0  0  0  0  0  0  0  0  0  0  0  0  # atno 11005 bound_to 11000
  144.7352  140.4788  143.6909 LP  0  0  0  0  0  0  0  0  0  0  0  0  # atno 17320 bound_to 7965
  145.6059  139.1508  143.3103 LP  0  0  0  0  0  0  0  0  0  0  0  0  # atno 17321 bound_to 7965
  139.5623  144.7413  151.4121 LP  0  0  0  0  0  0  0  0  0  0  0  0  # atno 17342 bound_to 10162
  140.6929  143.7818  150.7282 LP  0  0  0  0  0  0  0  0  0  0  0  0  # atno 17343 bound_to 10162
  156.4498  130.4009  149.6643 LP  0  0  0  0  0  0  0  0  0  0  0  0  # atno 17370 bound_to 10713
  156.3797  130.7572  151.2564 LP  0  0  0  0  0  0  0  0  0  0  0  0  # atno 17371 bound_to 10713
  140.2348  134.8658  157.3513 LP  0  0  0  0  0  0  0  0  0  0  0  0  # atno 17394 bound_to 11000
  140.1855  134.4436  155.7746 LP  0  0  0  0  0  0  0  0  0  0  0  0  # atno 17395 bound_to 11000

$$$$
