AV-unprocessed.smi:794|AV-procd|sdf|3759|dock3
  -GOLD-   22720 1193D 1   1.00000     0.00000
 Structure written by MMmdl.
 41 43  0  0  0  0  0  0  0  0  1 V2000
  149.3340  129.5007  154.5219 C   0  0  0  0  0  0  0  0  0  0  0  0
  148.6578  130.7492  154.0444 C   0  0  0  0  0  0  0  0  0  0  0  0
  149.2585  131.9909  154.2722 N   0  0  0  0  0  0  0  0  0  0  0  0
  148.5317  133.0018  153.7857 C   0  0  0  0  0  0  0  0  0  0  0  0
  148.8986  134.3699  153.8768 N   0  0  0  0  0  0  0  0  0  0  0  0
  149.4217  135.0221  154.9296 C   0  0  0  0  0  0  0  0  0  0  0  0
  149.6892  134.5164  156.0198 O   0  0  0  0  0  0  0  0  0  0  0  0
  149.6118  136.3193  154.6483 N   0  0  0  0  0  0  0  0  0  0  0  0
  150.1631  137.3147  155.5688 C   0  0  1  0  0  0  0  0  0  0  0  0
  151.7006  137.3691  155.4369 C   0  0  2  0  0  0  0  0  0  0  0  0
  152.2841  138.1105  156.6534 C   0  0  0  0  0  0  0  0  0  0  0  0
  151.8714  139.5702  156.3843 C   0  0  0  0  0  0  0  0  0  0  0  0
  151.1100  139.4711  155.0473 C   0  0  1  0  0  0  0  0  0  0  0  0
  151.9057  138.3912  154.3252 C   0  0  0  0  0  0  0  0  0  0  0  0
  149.7399  138.7886  155.2843 C   0  0  1  0  0  0  0  0  0  0  0  0
  148.7415  139.0002  154.1232 C   0  0  0  0  0  0  0  0  0  0  0  0
  149.2408  138.4308  152.9314 O   0  0  0  0  0  0  0  0  0  0  0  0
  147.0453  132.4892  153.0060 S   0  0  0  0  0  0  0  0  0  0  0  0
  147.4578  130.8334  153.3766 C   0  0  0  0  0  0  0  0  0  0  0  0
  146.5577  129.7121  152.9763 C   0  0  0  0  0  0  0  0  0  0  0  0
  149.5391  128.8239  153.6923 H   0  0  0  0  0  0  0  0  0  0  0  0
  148.7097  128.9663  155.2381 H   0  0  0  0  0  0  0  0  0  0  0  0
  150.2840  129.7172  155.0116 H   0  0  0  0  0  0  0  0  0  0  0  0
  148.7326  134.9186  153.0463 H   0  0  0  0  0  0  0  0  0  0  0  0
  149.3610  136.6469  153.7271 H   0  0  0  0  0  0  0  0  0  0  0  0
  149.8962  137.0348  156.5900 H   0  0  0  0  0  0  0  0  0  0  0  0
  152.1668  136.3983  155.2630 H   0  0  0  0  0  0  0  0  0  0  0  0
  151.8950  137.7331  157.5997 H   0  0  0  0  0  0  0  0  0  0  0  0
  153.3706  138.0189  156.6794 H   0  0  0  0  0  0  0  0  0  0  0  0
  151.2567  139.9849  157.1839 H   0  0  0  0  0  0  0  0  0  0  0  0
  152.7536  140.2032  156.2811 H   0  0  0  0  0  0  0  0  0  0  0  0
  151.0500  140.4240  154.5209 H   0  0  0  0  0  0  0  0  0  0  0  0
  152.9529  138.6562  154.1697 H   0  0  0  0  0  0  0  0  0  0  0  0
  151.4706  138.0908  153.3710 H   0  0  0  0  0  0  0  0  0  0  0  0
  149.2794  139.2007  156.1838 H   0  0  0  0  0  0  0  0  0  0  0  0
  147.7671  138.5650  154.3460 H   0  0  0  0  0  0  0  0  0  0  0  0
  148.5891  140.0639  153.9399 H   0  0  0  0  0  0  0  0  0  0  0  0
  149.6654  139.1095  152.4289 H   0  0  0  0  0  0  0  0  0  0  0  0
  146.3453  129.0637  153.8265 H   0  0  0  0  0  0  0  0  0  0  0  0
  147.0197  129.1065  152.1966 H   0  0  0  0  0  0  0  0  0  0  0  0
  145.6069  130.0849  152.5943 H   0  0  0  0  0  0  0  0  0  0  0  0
  1  2  1  0  0  0  0
  1 21  1  0  0  0  0
  1 22  1  0  0  0  0
  1 23  1  0  0  0  0
  2 19  2  0  0  0  0
  2  3  1  0  0  0  0
  3  4  2  0  0  0  0
  4  5  1  0  0  0  0
  4 18  1  0  0  0  0
  5  6  1  0  0  0  0
  5 24  1  0  0  0  0
  6  7  2  0  0  0  0
  6  8  1  0  0  0  0
  8  9  1  0  0  0  0
  8 25  1  0  0  0  0
  9 15  1  0  0  0  0
  9 10  1  0  0  0  0
  9 26  1  0  0  0  0
 10 14  1  0  0  0  0
 10 11  1  0  0  0  0
 10 27  1  0  0  0  0
 11 12  1  0  0  0  0
 11 28  1  0  0  0  0
 11 29  1  0  0  0  0
 12 13  1  0  0  0  0
 12 30  1  0  0  0  0
 12 31  1  0  0  0  0
 13 14  1  0  0  0  0
 13 15  1  0  0  0  0
 13 32  1  0  0  0  0
 14 33  1  0  0  0  0
 14 34  1  0  0  0  0
 15 16  1  0  0  0  0
 15 35  1  0  0  0  0
 16 17  1  0  0  0  0
 16 36  1  0  0  0  0
 16 37  1  0  0  0  0
 17 38  1  0  0  0  0
 18 19  1  0  0  0  0
 19 20  1  0  0  0  0
 20 39  1  0  0  0  0
 20 40  1  0  0  0  0
 20 41  1  0  0  0  0
M  END
> <s_m_source_file>
AV-unprocessed.smi

> <i_m_source_file_index>
794

> <i_lp_mmshare_version>
43012

> <i_f3d_flags>
0

> <s_epik_input>
W0NIM11jMW5jKHNjMVtDSDNdKVtOSF1DKD1PKVtOSF1bQ0BIXShbQ0BASF0yMylbQ0BIXShbQ0gyXVtPSF0pW0NAQEhdKFtDSDJdMylbQ0gyXVtDSDJdMg==

> <s_epik_cmdline>
J2VwaWtfcHl0aG9uJywgJy1waCcsICc3LjAnLCAnLXRuJywgJzgnLCAnLW1hJywgJzIwMCcsICctbWV0YWxfYmluZGluZycsICctaW1hZScsICc8aW5maWxlLm1hZT4nLCAnLW9tYWUnLCAnPG91dGZpbGUubWFlPic=

> <r_lp_tautomer_probability>
0.999

> <r_epik_Ionization_Penalty>
0.000713029

> <r_epik_Ionization_Penalty_Charging>
0

> <r_epik_Ionization_Penalty_Neutral>
0.000713029

> <r_epik_State_Penalty>
0.000177984

> <r_epik_Charging_Adjusted_Penalty>
0.000177984

> <i_epik_Tot_Q>
0

> <i_epik_Tot_abs_Q>
0

> <r_epik_Metal_State_Penalty>
-0

> <b_epik_Metal_Only>
0

> <s_lp_Force_Field>
OPLS_2005

> <r_lp_Energy>
48.0104

> <b_lp_Chiralities_Consistent>
1

> <s_lp_Variant>
AV-unprocessed.smi:794-4

> <Gold.Version>
5.8.1

> <Gold.Id.Protein>
6NUR|6NUR_protein|mol2

> <Gold.PLP.Fitness>
39.3845

> <Gold.PLP.PLP>
-32.0077

> <Gold.PLP.part.hbond>
-3.9249

> <Gold.PLP.part.metal>
0.0000

> <Gold.PLP.part.buried>
-4.3136

> <Gold.PLP.part.nonpolar>
-24.7828

> <Gold.PLP.part.repulsive>
0.1147

> <Gold.PLP.ligand.clash>
0.0000

> <Gold.PLP.ligand.torsion>
0.7101

> <Gold.PLP.Chemscore.Hbond>
2.9280

> <Gold.PLP.Chemscore.CHOScore>
0.0000

> <Gold.PLP.Chemscore.Metal>
0.0000

> <Gold.Chemscore.Hbonds>
donor molecule, donor type, donor heavy atom, donor atom, acceptor molecule, acceptor atom, score
      L1  H     5    24       P1  7948  1.00
      L1  H     8    25       P1  7948  0.96
      L1  H    17    38       P1  7957  0.93

> <Gold.PLP.Chemscore.Internal.Correction>
0.0131

> <Gold.Rescore>
     Score         DG    S(hbond)    S(metal)    S(lipo)     H(rot)  DE(clash)    DE(int)     intcor
     14.59     -17.20       2.45        0.00      69.23       1.78       0.03       2.59       ----

> <Gold.Chemscore.Fitness>
14.5903

> <Gold.Chemscore.DG>
-17.2036

> <Gold.Chemscore.ZeroCoef>
-5.4800

> <Gold.Chemscore.Hbond>
2.4492

> <Gold.Chemscore.Metal>
0.0000

> <Gold.Chemscore.Lipo>
69.2271

> <Gold.Chemscore.Internal_Hbond>
0.0000

> <Gold.Chemscore.DEClash>
0.0270

> <Gold.Chemscore.DEInternal>
2.5863

> <Gold.Chemscore.Rot>
1.7798

> <Gold.Chemscore.Internal.Correction>
   9.000000E+99

> <Gold.Chemscore.Hbonds>
donor molecule, donor type, donor heavy atom, donor atom, acceptor molecule, acceptor atom, score
      L1  H     5    24       P1  7948  0.34
      L1  H     8    25       P1  7948  0.85
      L1  H    17    38       P1  7957  0.77

> <Gold.Chemscore.Hbond.Weighted>
-8.1803

> <Gold.Chemscore.Metal.Weighted>
-0.0000

> <Gold.Chemscore.Lipo.Weighted>
-8.0996

> <Gold.Chemscore.Internal_Hbond.Weighted>
0.0000

> <Gold.Chemscore.DEClash.Weighted>
0.0270

> <Gold.Chemscore.DEInternal.Weighted>
2.5863

> <Gold.Chemscore.Rot.Weighted>
4.5562

> <Gold.Chemscore.Internal.Correction.Weighted>
   9.000000E+99

> <Gold.Protein.RotatedTorsions>
[ 6907 6896 6895 6894 ] final  155.70 input  -60.11 | X-H torsion
[ 7974 7965 7964 7962 ] final -113.24 input  175.53 | X-H torsion
[ 8008 7997 7996 7995 ] final -172.73 input   59.86 | X-H torsion
[ 10167 10162 10161 10158 ] final   52.16 input  -65.29 | X-H torsion
[ 10718 10713 10712 10709 ] final   -4.62 input   66.30 | X-H torsion
[ 10763 10752 10751 10750 ] final   62.29 input  -60.55 | X-H torsion
[ 11005 11000 10999 10996 ] final -104.43 input  -57.11 | X-H torsion

> <Gold.Protein.ActiveResidues>
 VAL166  LYS551  ARG553  GLY616  TRP617  ASP618  TYR619  PRO620  LYS621  CYS622 
 ASP623  PHE694  ASN695  SER759  ASP760  ASP761  ALA762  ILE779  LEU786  VAL792 
 PHE793  MET794  SER795  GLU796  ALA797  LYS798  CYS799  TRP800  GLU811  SER814 

> <Gold.Protein.RotatedAtoms>
  152.0404  133.3975  159.4334 H   0  0  0  0  0  0  0  0  0  0  0  0  # atno 6907 bound_to 6896
  150.6876  134.3421  159.4882 H   0  0  0  0  0  0  0  0  0  0  0  0  # atno 6908 bound_to 6896
  152.1219  134.9199  160.0613 H   0  0  0  0  0  0  0  0  0  0  0  0  # atno 6909 bound_to 6896
  145.1344  140.8742  143.3739 H   0  0  0  0  0  0  0  0  0  0  0  0  # atno 7974 bound_to 7965
  155.9484  140.1121  157.0997 H   0  0  0  0  0  0  0  0  0  0  0  0  # atno 8008 bound_to 7997
  154.4104  140.1205  156.5086 H   0  0  0  0  0  0  0  0  0  0  0  0  # atno 8009 bound_to 7997
  155.6873  140.3473  155.4882 H   0  0  0  0  0  0  0  0  0  0  0  0  # atno 8010 bound_to 7997
  140.2543  144.3444  150.6338 H   0  0  0  0  0  0  0  0  0  0  0  0  # atno 10167 bound_to 10162
  156.7587  130.5262  149.5789 H   0  0  0  0  0  0  0  0  0  0  0  0  # atno 10718 bound_to 10713
  152.9978  135.5470  154.6170 H   0  0  0  0  0  0  0  0  0  0  0  0  # atno 10763 bound_to 10752
  154.5478  135.2824  155.1039 H   0  0  0  0  0  0  0  0  0  0  0  0  # atno 10764 bound_to 10752
  154.2290  135.6437  153.5222 H   0  0  0  0  0  0  0  0  0  0  0  0  # atno 10765 bound_to 10752
  141.1100  133.8723  157.1610 H   0  0  0  0  0  0  0  0  0  0  0  0  # atno 11005 bound_to 11000
  145.0600  139.3113  143.5885 LP  0  0  0  0  0  0  0  0  0  0  0  0  # atno 17320 bound_to 7965
  146.3511  140.0039  142.8673 LP  0  0  0  0  0  0  0  0  0  0  0  0  # atno 17321 bound_to 7965
  140.6016  143.2167  151.7062 LP  0  0  0  0  0  0  0  0  0  0  0  0  # atno 17342 bound_to 10162
  139.5036  144.3784  152.0400 LP  0  0  0  0  0  0  0  0  0  0  0  0  # atno 17343 bound_to 10162
  156.1353  130.6207  151.0392 LP  0  0  0  0  0  0  0  0  0  0  0  0  # atno 17370 bound_to 10713
  157.6744  131.0854  150.7531 LP  0  0  0  0  0  0  0  0  0  0  0  0  # atno 17371 bound_to 10713
  139.9990  135.0035  157.0146 LP  0  0  0  0  0  0  0  0  0  0  0  0  # atno 17394 bound_to 11000
  140.4799  134.1300  155.7215 LP  0  0  0  0  0  0  0  0  0  0  0  0  # atno 17395 bound_to 11000

$$$$
