AV-unprocessed.smi:1194|AV-procd|sdf|4992|dock6
  -GOLD-   22720 3593D 1   1.00000     0.00000
 Structure written by MMmdl.
 48 49  0  0  0  0  0  0  0  0  2 V2000
  152.7344  143.1724  160.4379 C   0  0  0  0  0  0  0  0  0  0  0  0
  153.1804  142.0875  159.4515 C   0  0  0  0  0  0  0  0  0  0  0  0
  152.1003  141.0097  159.2364 C   0  0  0  0  0  0  0  0  0  0  0  0
  152.4840  139.9348  158.2020 C   0  0  0  0  0  0  0  0  0  0  0  0
  153.5689  139.3637  158.3299 O   0  0  0  0  0  0  0  0  0  0  0  0
  151.6365  139.6579  157.1729 N   0  0  0  0  0  0  0  0  0  0  0  0
  151.9008  138.5993  156.1690 C   0  0  0  0  0  0  0  0  0  0  0  0
  151.5754  139.0580  154.7396 C   0  0  0  0  0  0  0  0  0  0  0  0
  150.1531  139.6112  154.6452 C   0  0  0  0  0  0  0  0  0  0  0  0
  149.9875  140.7456  155.6599 C   0  0  0  0  0  0  0  0  0  0  0  0
  150.2978  140.3090  157.1130 C   0  0  1  0  0  0  0  0  0  0  0  0
  149.1565  139.4418  157.6963 C   0  0  0  0  0  0  0  0  0  0  0  0
  148.0612  139.9533  157.9282 O   0  0  0  0  0  0  0  0  0  0  0  0
  149.4234  138.1583  157.9882 N   0  0  0  0  0  0  0  0  0  0  0  0
  148.5273  137.2393  158.6802 C   0  0  0  0  0  0  0  0  0  0  0  0
  149.1756  136.6373  159.9434 C   0  0  0  0  0  0  0  0  0  0  0  0
  148.2219  135.7803  160.7609 C   0  0  0  0  0  0  0  0  0  0  0  0
  147.8932  136.1342  162.0880 C   0  0  0  0  0  0  0  0  0  0  0  0
  146.9800  135.3377  162.8102 C   0  0  0  0  0  0  0  0  0  0  0  0
  146.4176  134.2036  162.1895 C   0  0  0  0  0  0  0  0  0  0  0  0
  146.7581  133.8942  160.9195 N   0  3  0  0  0  0  0  0  0  0  0  0
  147.6280  134.6307  160.1948 C   0  0  0  0  0  0  0  0  0  0  0  0
  153.5153  143.9214  160.5709 H   0  0  0  0  0  0  0  0  0  0  0  0
  152.5114  142.7471  161.4168 H   0  0  0  0  0  0  0  0  0  0  0  0
  151.8398  143.6842  160.0823 H   0  0  0  0  0  0  0  0  0  0  0  0
  153.4303  142.5579  158.4998 H   0  0  0  0  0  0  0  0  0  0  0  0
  154.0973  141.6275  159.8222 H   0  0  0  0  0  0  0  0  0  0  0  0
  151.8887  140.5207  160.1881 H   0  0  0  0  0  0  0  0  0  0  0  0
  151.1836  141.5017  158.9088 H   0  0  0  0  0  0  0  0  0  0  0  0
  152.9332  138.2564  156.1575 H   0  0  0  0  0  0  0  0  0  0  0  0
  151.3049  137.7200  156.4127 H   0  0  0  0  0  0  0  0  0  0  0  0
  152.2877  139.8252  154.4324 H   0  0  0  0  0  0  0  0  0  0  0  0
  151.6980  138.2268  154.0445 H   0  0  0  0  0  0  0  0  0  0  0  0
  149.9593  139.9779  153.6369 H   0  0  0  0  0  0  0  0  0  0  0  0
  149.4271  138.8197  154.8356 H   0  0  0  0  0  0  0  0  0  0  0  0
  150.6590  141.5613  155.3882 H   0  0  0  0  0  0  0  0  0  0  0  0
  148.9823  141.1624  155.5851 H   0  0  0  0  0  0  0  0  0  0  0  0
  150.2854  141.2294  157.6985 H   0  0  0  0  0  0  0  0  0  0  0  0
  150.3441  137.8095  157.7635 H   0  0  0  0  0  0  0  0  0  0  0  0
  147.5819  137.7263  158.9241 H   0  0  0  0  0  0  0  0  0  0  0  0
  148.2899  136.4382  157.9799 H   0  0  0  0  0  0  0  0  0  0  0  0
  150.0342  136.0291  159.6551 H   0  0  0  0  0  0  0  0  0  0  0  0
  149.5701  137.4352  160.5735 H   0  0  0  0  0  0  0  0  0  0  0  0
  148.3287  137.0107  162.5454 H   0  0  0  0  0  0  0  0  0  0  0  0
  146.7128  135.5945  163.8249 H   0  0  0  0  0  0  0  0  0  0  0  0
  145.7088  133.5417  162.6654 H   0  0  0  0  0  0  0  0  0  0  0  0
  147.8092  134.2887  159.1860 H   0  0  0  0  0  0  0  0  0  0  0  0
  146.3351  133.0728  160.4862 H   0  0  0  0  0  0  0  0  0  0  0  0
  1  2  1  0  0  0  0
  1 23  1  0  0  0  0
  1 24  1  0  0  0  0
  1 25  1  0  0  0  0
  2  3  1  0  0  0  0
  2 26  1  0  0  0  0
  2 27  1  0  0  0  0
  3  4  1  0  0  0  0
  3 28  1  0  0  0  0
  3 29  1  0  0  0  0
  4  5  2  0  0  0  0
  4  6  1  0  0  0  0
  6 11  1  0  0  0  0
  6  7  1  0  0  0  0
  7  8  1  0  0  0  0
  7 30  1  0  0  0  0
  7 31  1  0  0  0  0
  8  9  1  0  0  0  0
  8 32  1  0  0  0  0
  8 33  1  0  0  0  0
  9 10  1  0  0  0  0
  9 34  1  0  0  0  0
  9 35  1  0  0  0  0
 10 11  1  0  0  0  0
 10 36  1  0  0  0  0
 10 37  1  0  0  0  0
 11 12  1  0  0  0  0
 11 38  1  0  0  0  0
 12 13  2  0  0  0  0
 12 14  1  0  0  0  0
 14 15  1  0  0  0  0
 14 39  1  0  0  0  0
 15 16  1  0  0  0  0
 15 40  1  0  0  0  0
 15 41  1  0  0  0  0
 16 17  1  0  0  0  0
 16 42  1  0  0  0  0
 16 43  1  0  0  0  0
 17 22  1  0  0  0  0
 17 18  2  0  0  0  0
 18 19  1  0  0  0  0
 18 44  1  0  0  0  0
 19 20  2  0  0  0  0
 19 45  1  0  0  0  0
 20 21  1  0  0  0  0
 20 46  1  0  0  0  0
 21 22  2  0  0  0  0
 21 48  1  0  0  0  0
 22 47  1  0  0  0  0
M  CHG  1  21   1
M  END
> <s_m_source_file>
AV-unprocessed.smi

> <i_m_source_file_index>
1194

> <i_lp_mmshare_version>
43012

> <i_f3d_flags>
0

> <s_epik_input>
W0NIM11bQ0gyXVtDSDJdQyg9TylOMVtDSDJdW0NIMl1bQ0gyXVtDSDJdW0NASF0xQyg9TylbTkhdW0NIMl1bQ0gyXWMyW2NIXVtjSF1bY0hdbltjSF0y

> <s_epik_cmdline>
J2VwaWtfcHl0aG9uJywgJy1waCcsICc3LjAnLCAnLXRuJywgJzgnLCAnLW1hJywgJzIwMCcsICctbWV0YWxfYmluZGluZycsICctaW1hZScsICc8aW5maWxlLm1hZT4nLCAnLW9tYWUnLCAnPG91dGZpbGUubWFlPic=

> <r_epik_Ionization_Penalty>
2.26523

> <r_epik_Ionization_Penalty_Charging>
2.26523

> <r_epik_Ionization_Penalty_Neutral>
5.33649e-08

> <r_epik_State_Penalty>
2.41338

> <r_epik_Charging_Adjusted_Penalty>
4.67861

> <i_epik_Tot_Q>
1

> <i_epik_Tot_abs_Q>
1

> <r_epik_Metal_State_Penalty>
2.42628

> <b_epik_Metal_Only>
0

> <s_lp_Force_Field>
OPLS_2005

> <r_lp_Energy>
32.0414

> <b_lp_Chiralities_Consistent>
1

> <s_lp_Variant>
AV-unprocessed.smi:1194-3

> <Gold.Version>
5.8.1

> <Gold.Id.Protein>
6NUR|6NUR_protein|mol2

> <Gold.PLP.Fitness>
46.3245

> <Gold.PLP.PLP>
-43.7608

> <Gold.PLP.part.hbond>
-1.8907

> <Gold.PLP.part.metal>
0.0000

> <Gold.PLP.part.buried>
-4.1678

> <Gold.PLP.part.nonpolar>
-37.9089

> <Gold.PLP.part.repulsive>
0.1060

> <Gold.PLP.ligand.clash>
0.0000

> <Gold.PLP.ligand.torsion>
0.2621

> <Gold.PLP.Chemscore.Hbond>
1.0000

> <Gold.PLP.Chemscore.CHOScore>
0.0000

> <Gold.PLP.Chemscore.Metal>
0.0000

> <Gold.Chemscore.Hbonds>
donor molecule, donor type, donor heavy atom, donor atom, acceptor molecule, acceptor atom, score
      P1  H  7997  8010       L1     5  1.00

> <Gold.PLP.Chemscore.Internal.Correction>
0.0880

> <Gold.Rescore>
     Score         DG    S(hbond)    S(metal)    S(lipo)     H(rot)  DE(clash)    DE(int)     intcor
     17.09     -17.44       0.98        0.00     113.57       1.80       0.08       0.27       ----

> <Gold.Chemscore.Fitness>
17.0876

> <Gold.Chemscore.DG>
-17.4378

> <Gold.Chemscore.ZeroCoef>
-5.4800

> <Gold.Chemscore.Hbond>
0.9802

> <Gold.Chemscore.Metal>
0.0000

> <Gold.Chemscore.Lipo>
113.5740

> <Gold.Chemscore.Internal_Hbond>
0.0000

> <Gold.Chemscore.DEClash>
0.0758

> <Gold.Chemscore.DEInternal>
0.2744

> <Gold.Chemscore.Rot>
1.7985

> <Gold.Chemscore.Internal.Correction>
   9.000000E+99

> <Gold.Chemscore.Hbonds>
donor molecule, donor type, donor heavy atom, donor atom, acceptor molecule, acceptor atom, score
      P1  H  7997  8010       L1     5  0.55

> <Gold.Chemscore.Hbond.Weighted>
-3.2738

> <Gold.Chemscore.Metal.Weighted>
-0.0000

> <Gold.Chemscore.Lipo.Weighted>
-13.2882

> <Gold.Chemscore.Internal_Hbond.Weighted>
0.0000

> <Gold.Chemscore.DEClash.Weighted>
0.0758

> <Gold.Chemscore.DEInternal.Weighted>
0.2744

> <Gold.Chemscore.Rot.Weighted>
4.6041

> <Gold.Chemscore.Internal.Correction.Weighted>
   9.000000E+99

> <Gold.Protein.RotatedTorsions>
[ 6907 6896 6895 6894 ] final -177.24 input  -60.11 | X-H torsion
[ 7974 7965 7964 7962 ] final  108.41 input  175.53 | X-H torsion
[ 8008 7997 7996 7995 ] final   32.18 input   59.86 | X-H torsion
[ 10167 10162 10161 10158 ] final   74.58 input  -65.29 | X-H torsion
[ 10718 10713 10712 10709 ] final  -45.78 input   66.30 | X-H torsion
[ 10763 10752 10751 10750 ] final   94.38 input  -60.55 | X-H torsion
[ 11005 11000 10999 10996 ] final  -97.42 input  -57.11 | X-H torsion

> <Gold.Protein.ActiveResidues>
 VAL166  LYS551  ARG553  GLY616  TRP617  ASP618  TYR619  PRO620  LYS621  CYS622 
 ASP623  PHE694  ASN695  SER759  ASP760  ASP761  ALA762  ILE779  LEU786  VAL792 
 PHE793  MET794  SER795  GLU796  ALA797  LYS798  CYS799  TRP800  GLU811  SER814 

> <Gold.Protein.RotatedAtoms>
  151.6177  133.3341  159.3080 H   0  0  0  0  0  0  0  0  0  0  0  0  # atno 6907 bound_to 6896
  150.8122  134.7288  159.6710 H   0  0  0  0  0  0  0  0  0  0  0  0  # atno 6908 bound_to 6896
  152.4219  134.5945  160.0034 H   0  0  0  0  0  0  0  0  0  0  0  0  # atno 6909 bound_to 6896
  145.2811  139.2632  143.3915 H   0  0  0  0  0  0  0  0  0  0  0  0  # atno 7974 bound_to 7965
  155.1183  140.3245  155.4504 H   0  0  0  0  0  0  0  0  0  0  0  0  # atno 8008 bound_to 7997
  156.2670  140.2032  156.6254 H   0  0  0  0  0  0  0  0  0  0  0  0  # atno 8009 bound_to 7997
  154.6703  140.0537  157.0145 H   0  0  0  0  0  0  0  0  0  0  0  0  # atno 8010 bound_to 7997
  140.0121  144.5606  150.7650 H   0  0  0  0  0  0  0  0  0  0  0  0  # atno 10167 bound_to 10162
  156.2249  130.4168  149.8946 H   0  0  0  0  0  0  0  0  0  0  0  0  # atno 10718 bound_to 10713
  153.2409  135.4292  155.0697 H   0  0  0  0  0  0  0  0  0  0  0  0  # atno 10763 bound_to 10752
  154.8340  135.3402  154.6650 H   0  0  0  0  0  0  0  0  0  0  0  0  # atno 10764 bound_to 10752
  153.7074  135.7025  153.5103 H   0  0  0  0  0  0  0  0  0  0  0  0  # atno 10765 bound_to 10752
  141.1379  133.8169  157.0703 H   0  0  0  0  0  0  0  0  0  0  0  0  # atno 11005 bound_to 11000
  146.3216  140.3278  142.8638 LP  0  0  0  0  0  0  0  0  0  0  0  0  # atno 17320 bound_to 7965
  144.9252  140.7913  143.5723 LP  0  0  0  0  0  0  0  0  0  0  0  0  # atno 17321 bound_to 7965
  140.7377  143.2769  151.3716 LP  0  0  0  0  0  0  0  0  0  0  0  0  # atno 17342 bound_to 10162
  139.6197  144.0931  152.2380 LP  0  0  0  0  0  0  0  0  0  0  0  0  # atno 17343 bound_to 10162
  156.6580  130.8770  151.3542 LP  0  0  0  0  0  0  0  0  0  0  0  0  # atno 17370 bound_to 10713
  157.7105  130.9435  150.1075 LP  0  0  0  0  0  0  0  0  0  0  0  0  # atno 17371 bound_to 10713
  140.0515  134.9803  157.1145 LP  0  0  0  0  0  0  0  0  0  0  0  0  # atno 17394 bound_to 11000
  140.3982  134.2111  155.7164 LP  0  0  0  0  0  0  0  0  0  0  0  0  # atno 17395 bound_to 11000

$$$$
