AV-unprocessed.smi:793|AV-procd|sdf|3754|dock9
  -GOLD-   22720 1183D 1   1.00000     0.00000
 Structure written by MMmdl.
 38 39  0  0  0  0  0  0  0  0  2 V2000
  149.4943  136.6462  155.6243 C   0  0  0  0  0  0  0  0  0  0  0  0
  150.5625  137.1942  156.5788 C   0  0  0  0  0  0  0  0  0  0  0  0
  150.0070  137.4927  157.9844 C   0  0  2  0  0  0  0  0  0  0  0  0
  151.0936  137.9427  158.7962 O   0  0  0  0  0  0  0  0  0  0  0  0
  151.7947  139.1061  158.3595 C   0  0  0  0  0  0  0  0  0  0  0  0
  152.8379  139.6085  159.3622 C   0  0  0  0  0  0  0  0  0  0  0  0
  153.0017  141.0996  159.0483 C   0  0  0  0  0  0  0  0  0  0  0  0
  151.7189  141.5305  158.3193 C   0  0  0  0  0  0  0  0  0  0  0  0
  150.8299  140.2845  158.2442 C   0  0  0  0  0  0  0  0  0  0  0  0
  149.3470  136.2518  158.6092 C   0  0  0  0  0  0  0  0  0  0  0  0
  149.4530  135.1561  158.0575 O   0  0  0  0  0  0  0  0  0  0  0  0
  148.7031  136.4652  159.7707 N   0  0  0  0  0  0  0  0  0  0  0  0
  148.0432  135.5268  160.6100 C   0  0  0  0  0  0  0  0  0  0  0  0
  148.0125  134.1335  160.3526 C   0  0  0  0  0  0  0  0  0  0  0  0
  147.3690  133.2434  161.1387 N   0  0  0  0  0  0  0  0  0  0  0  0
  146.7177  133.7140  162.2230 C   0  0  0  0  0  0  0  0  0  0  0  0
  146.6691  135.0792  162.5651 C   0  0  0  0  0  0  0  0  0  0  0  0
  147.3398  136.0036  161.7412 C   0  0  0  0  0  0  0  0  0  0  0  0
  147.3035  137.3357  162.0509 O   0  5  0  0  0  0  0  0  0  0  0  0
  149.9205  136.4399  154.6425 H   0  0  0  0  0  0  0  0  0  0  0  0
  148.6806  137.3595  155.4906 H   0  0  0  0  0  0  0  0  0  0  0  0
  149.0669  135.7175  156.0033 H   0  0  0  0  0  0  0  0  0  0  0  0
  151.3721  136.4663  156.6489 H   0  0  0  0  0  0  0  0  0  0  0  0
  150.9983  138.0976  156.1501 H   0  0  0  0  0  0  0  0  0  0  0  0
  149.2606  138.2829  157.8899 H   0  0  0  0  0  0  0  0  0  0  0  0
  152.2618  138.9519  157.3859 H   0  0  0  0  0  0  0  0  0  0  0  0
  152.4567  139.4906  160.3775 H   0  0  0  0  0  0  0  0  0  0  0  0
  153.7813  139.0656  159.2955 H   0  0  0  0  0  0  0  0  0  0  0  0
  153.1700  141.6797  159.9561 H   0  0  0  0  0  0  0  0  0  0  0  0
  153.8641  141.2534  158.3983 H   0  0  0  0  0  0  0  0  0  0  0  0
  151.2136  142.3504  158.8306 H   0  0  0  0  0  0  0  0  0  0  0  0
  151.9658  141.8753  157.3145 H   0  0  0  0  0  0  0  0  0  0  0  0
  150.2316  140.2486  157.3334 H   0  0  0  0  0  0  0  0  0  0  0  0
  150.1424  140.2797  159.0912 H   0  0  0  0  0  0  0  0  0  0  0  0
  148.7773  137.3966  160.1543 H   0  0  0  0  0  0  0  0  0  0  0  0
  148.4916  133.7050  159.4861 H   0  0  0  0  0  0  0  0  0  0  0  0
  146.2140  132.9801  162.8345 H   0  0  0  0  0  0  0  0  0  0  0  0
  146.1276  135.4068  163.4407 H   0  0  0  0  0  0  0  0  0  0  0  0
  1  2  1  0  0  0  0
  1 20  1  0  0  0  0
  1 21  1  0  0  0  0
  1 22  1  0  0  0  0
  2  3  1  0  0  0  0
  2 23  1  0  0  0  0
  2 24  1  0  0  0  0
  3  4  1  0  0  0  0
  3 10  1  0  0  0  0
  3 25  1  0  0  0  0
  4  5  1  0  0  0  0
  5  9  1  0  0  0  0
  5  6  1  0  0  0  0
  5 26  1  0  0  0  0
  6  7  1  0  0  0  0
  6 27  1  0  0  0  0
  6 28  1  0  0  0  0
  7  8  1  0  0  0  0
  7 29  1  0  0  0  0
  7 30  1  0  0  0  0
  8  9  1  0  0  0  0
  8 31  1  0  0  0  0
  8 32  1  0  0  0  0
  9 33  1  0  0  0  0
  9 34  1  0  0  0  0
 10 11  2  0  0  0  0
 10 12  1  0  0  0  0
 12 35  1  0  0  0  0
 12 13  1  0  0  0  0
 13 18  1  0  0  0  0
 13 14  2  0  0  0  0
 14 36  1  0  0  0  0
 14 15  1  0  0  0  0
 15 16  2  0  0  0  0
 16 37  1  0  0  0  0
 16 17  1  0  0  0  0
 17 18  2  0  0  0  0
 17 38  1  0  0  0  0
 18 19  1  0  0  0  0
M  CHG  1  19  -1
M  END
> <s_m_source_file>
AV-unprocessed.smi

> <i_m_source_file_index>
793

> <i_lp_mmshare_version>
43012

> <i_f3d_flags>
0

> <s_epik_input>
W0NIMl0xW0NIMl1bQ0gyXVtDSDJdW0NIXTFPW0NAQEhdKFtDSDJdW0NIM10pQyg9TylbTkhdYzJbY0hdbltjSF1bY0hdYzJbT0hd

> <s_epik_cmdline>
J2VwaWtfcHl0aG9uJywgJy1waCcsICc3LjAnLCAnLXRuJywgJzgnLCAnLW1hJywgJzIwMCcsICctbWV0YWxfYmluZGluZycsICctaW1hZScsICc8aW5maWxlLm1hZT4nLCAnLW9tYWUnLCAnPG91dGZpbGUubWFlPic=

> <r_lp_tautomer_probability>
1

> <r_epik_Ionization_Penalty>
5.91611

> <r_epik_Ionization_Penalty_Charging>
1.01889

> <r_epik_Ionization_Penalty_Neutral>
4.89722

> <r_epik_State_Penalty>
4.89706

> <r_epik_Charging_Adjusted_Penalty>
5.91595

> <i_epik_Tot_Q>
-1

> <i_epik_Tot_abs_Q>
1

> <r_epik_Metal_State_Penalty>
1.05012

> <b_epik_Metal_Only>
1

> <s_lp_Force_Field>
OPLS_2005

> <r_lp_Energy>
28.2146

> <b_lp_Chiralities_Consistent>
1

> <s_lp_Variant>
AV-unprocessed.smi:793-3

> <Gold.Version>
5.8.1

> <Gold.Id.Protein>
6NUR|6NUR_protein|mol2

> <Gold.PLP.Fitness>
41.6895

> <Gold.PLP.PLP>
-30.0900

> <Gold.PLP.part.hbond>
-3.0000

> <Gold.PLP.part.metal>
0.0000

> <Gold.PLP.part.buried>
-5.1547

> <Gold.PLP.part.nonpolar>
-22.5218

> <Gold.PLP.part.repulsive>
0.2078

> <Gold.PLP.ligand.clash>
0.0000

> <Gold.PLP.ligand.torsion>
0.1419

> <Gold.PLP.Chemscore.Hbond>
3.9440

> <Gold.PLP.Chemscore.CHOScore>
0.0000

> <Gold.PLP.Chemscore.Metal>
0.0000

> <Gold.Chemscore.Hbonds>
donor molecule, donor type, donor heavy atom, donor atom, acceptor molecule, acceptor atom, score
      P1  H  6896  6907       L1    11  0.95
      P1  H  6931  6943       L1    19  1.60
      P1  H  6934  6947       L1    19  1.38

> <Gold.PLP.Chemscore.Internal.Correction>
0.0513

> <Gold.Rescore>
     Score         DG    S(hbond)    S(metal)    S(lipo)     H(rot)  DE(clash)    DE(int)     intcor
     15.70     -17.28       1.93        0.00      78.47       1.49       0.04       1.54       ----

> <Gold.Chemscore.Fitness>
15.7009

> <Gold.Chemscore.DG>
-17.2768

> <Gold.Chemscore.ZeroCoef>
-5.4800

> <Gold.Chemscore.Hbond>
1.9278

> <Gold.Chemscore.Metal>
0.0000

> <Gold.Chemscore.Lipo>
78.4679

> <Gold.Chemscore.Internal_Hbond>
0.0000

> <Gold.Chemscore.DEClash>
0.0359

> <Gold.Chemscore.DEInternal>
1.5401

> <Gold.Chemscore.Rot>
1.4932

> <Gold.Chemscore.Internal.Correction>
   9.000000E+99

> <Gold.Chemscore.Hbonds>
donor molecule, donor type, donor heavy atom, donor atom, acceptor molecule, acceptor atom, score
      P1  H  6896  6907       L1    11  0.20
      P1  H  6931  6943       L1    19  0.71
      P1  H  6934  6947       L1    19  0.64

> <Gold.Chemscore.Hbond.Weighted>
-6.4387

> <Gold.Chemscore.Metal.Weighted>
-0.0000

> <Gold.Chemscore.Lipo.Weighted>
-9.1807

> <Gold.Chemscore.Internal_Hbond.Weighted>
0.0000

> <Gold.Chemscore.DEClash.Weighted>
0.0359

> <Gold.Chemscore.DEInternal.Weighted>
1.5401

> <Gold.Chemscore.Rot.Weighted>
3.8226

> <Gold.Chemscore.Internal.Correction.Weighted>
   9.000000E+99

> <Gold.Protein.RotatedTorsions>
[ 6907 6896 6895 6894 ] final  -92.21 input  -60.11 | X-H torsion
[ 7974 7965 7964 7962 ] final  -90.87 input  175.53 | X-H torsion
[ 8008 7997 7996 7995 ] final   87.57 input   59.86 | X-H torsion
[ 10167 10162 10161 10158 ] final  -49.40 input  -65.29 | X-H torsion
[ 10718 10713 10712 10709 ] final -121.93 input   66.30 | X-H torsion
[ 10763 10752 10751 10750 ] final   79.86 input  -60.55 | X-H torsion
[ 11005 11000 10999 10996 ] final -153.58 input  -57.11 | X-H torsion

> <Gold.Protein.ActiveResidues>
 VAL166  LYS551  ARG553  GLY616  TRP617  ASP618  TYR619  PRO620  LYS621  CYS622 
 ASP623  PHE694  ASN695  SER759  ASP760  ASP761  ALA762  ILE779  LEU786  VAL792 
 PHE793  MET794  SER795  GLU796  ALA797  LYS798  CYS799  TRP800  GLU811  SER814 

> <Gold.Protein.RotatedAtoms>
  150.6903  134.2157  159.4376 H   0  0  0  0  0  0  0  0  0  0  0  0  # atno 6907 bound_to 6896
  152.0116  134.9870  160.0577 H   0  0  0  0  0  0  0  0  0  0  0  0  # atno 6908 bound_to 6896
  152.1483  133.4471  159.4837 H   0  0  0  0  0  0  0  0  0  0  0  0  # atno 6909 bound_to 6896
  145.4208  140.9551  143.2182 H   0  0  0  0  0  0  0  0  0  0  0  0  # atno 7974 bound_to 7965
  155.9770  140.3380  155.6628 H   0  0  0  0  0  0  0  0  0  0  0  0  # atno 8008 bound_to 7997
  155.6599  140.0715  157.2576 H   0  0  0  0  0  0  0  0  0  0  0  0  # atno 8009 bound_to 7997
  154.4181  140.1710  156.1753 H   0  0  0  0  0  0  0  0  0  0  0  0  # atno 8010 bound_to 7997
  140.6687  143.2699  151.4210 H   0  0  0  0  0  0  0  0  0  0  0  0  # atno 10167 bound_to 10162
  156.1377  130.6443  150.9722 H   0  0  0  0  0  0  0  0  0  0  0  0  # atno 10718 bound_to 10713
  153.0986  135.4824  154.8825 H   0  0  0  0  0  0  0  0  0  0  0  0  # atno 10763 bound_to 10752
  154.7353  135.3069  154.8824 H   0  0  0  0  0  0  0  0  0  0  0  0  # atno 10764 bound_to 10752
  153.9447  135.6830  153.4797 H   0  0  0  0  0  0  0  0  0  0  0  0  # atno 10765 bound_to 10752
  140.7066  134.3878  157.5203 H   0  0  0  0  0  0  0  0  0  0  0  0  # atno 11005 bound_to 11000
  144.8247  139.5731  143.6971 LP  0  0  0  0  0  0  0  0  0  0  0  0  # atno 17320 bound_to 7965
  146.2658  139.6516  142.9331 LP  0  0  0  0  0  0  0  0  0  0  0  0  # atno 17321 bound_to 7965
  139.5946  144.1426  152.2128 LP  0  0  0  0  0  0  0  0  0  0  0  0  # atno 17342 bound_to 10162
  140.0791  144.5716  150.7135 LP  0  0  0  0  0  0  0  0  0  0  0  0  # atno 17343 bound_to 10162
  157.6547  131.0891  150.7973 LP  0  0  0  0  0  0  0  0  0  0  0  0  # atno 17370 bound_to 10713
  156.8051  130.4934  149.5364 LP  0  0  0  0  0  0  0  0  0  0  0  0  # atno 17371 bound_to 10713
  139.8882  134.8861  156.2484 LP  0  0  0  0  0  0  0  0  0  0  0  0  # atno 17394 bound_to 11000
  141.0119  133.7090  156.1126 LP  0  0  0  0  0  0  0  0  0  0  0  0  # atno 17395 bound_to 11000

$$$$
