AV-unprocessed.smi:313|AV-procd|sdf|2310|dock7
  -GOLD-   2262022213D 1   1.00000     0.00000
 Structure written by MMmdl.
 50 51  0  0  0  0  0  0  0  0  1 V2000
  145.0577  134.4667  151.0617 C   0  0  0  0  0  0  0  0  0  0  0  0
  146.2150  133.7867  151.8085 C   0  0  0  0  0  0  0  0  0  0  0  0
  146.5510  134.4311  153.1683 C   0  0  1  0  0  0  0  0  0  0  0  0
  147.6378  133.6433  153.9130 C   0  0  0  0  0  0  0  0  0  0  0  0
  146.9998  135.8105  152.9899 N   0  0  0  0  0  0  0  0  0  0  0  0
  146.3809  136.9084  153.4522 C   0  0  0  0  0  0  0  0  0  0  0  0
  145.3437  136.8755  154.1162 O   0  0  0  0  0  0  0  0  0  0  0  0
  147.0464  138.2507  153.1105 C   0  0  2  0  0  0  0  0  0  0  0  0
  147.0567  138.4097  151.5813 C   0  0  0  0  0  0  0  0  0  0  0  0
  148.4312  138.2707  153.5783 N   0  0  0  0  0  0  0  0  0  0  0  0
  148.9942  139.2606  154.2920 C   0  0  0  0  0  0  0  0  0  0  0  0
  148.3867  140.2697  154.6509 O   0  0  0  0  0  0  0  0  0  0  0  0
  150.4234  139.0390  154.6947 C   0  0  0  0  0  0  0  0  0  0  0  0
  151.1553  140.0148  155.4058 C   0  0  0  0  0  0  0  0  0  0  0  0
  152.4828  139.7365  155.7831 C   0  0  0  0  0  0  0  0  0  0  0  0
  153.0482  138.4828  155.4502 C   0  0  0  0  0  0  0  0  0  0  0  0
  154.3746  138.1791  155.8271 N   0  0  0  0  0  0  0  0  0  0  0  0
  154.6848  138.1271  157.2549 C   0  0  0  0  0  0  0  0  0  0  0  0
  156.0794  137.5193  157.4796 C   0  0  0  0  0  0  0  0  0  0  0  0
  157.0462  138.2524  156.7353 O   0  0  0  0  0  0  0  0  0  0  0  0
  156.7900  138.1953  155.3363 C   0  0  0  0  0  0  0  0  0  0  0  0
  155.4181  138.8212  155.0309 C   0  0  0  0  0  0  0  0  0  0  0  0
  152.3428  137.5473  154.7678 N   0  0  0  0  0  0  0  0  0  0  0  0
  151.0699  137.8178  154.4089 C   0  0  0  0  0  0  0  0  0  0  0  0
  144.8215  133.9281  150.1439 H   0  0  0  0  0  0  0  0  0  0  0  0
  145.3041  135.4920  150.7850 H   0  0  0  0  0  0  0  0  0  0  0  0
  144.1559  134.4917  151.6736 H   0  0  0  0  0  0  0  0  0  0  0  0
  145.9546  132.7395  151.9663 H   0  0  0  0  0  0  0  0  0  0  0  0
  147.1009  133.7841  151.1719 H   0  0  0  0  0  0  0  0  0  0  0  0
  145.6529  134.4062  153.7880 H   0  0  0  0  0  0  0  0  0  0  0  0
  147.3254  132.6136  154.0880 H   0  0  0  0  0  0  0  0  0  0  0  0
  147.8512  134.0907  154.8844 H   0  0  0  0  0  0  0  0  0  0  0  0
  148.5692  133.6162  153.3464 H   0  0  0  0  0  0  0  0  0  0  0  0
  147.8454  135.9422  152.4542 H   0  0  0  0  0  0  0  0  0  0  0  0
  146.4910  139.0764  153.5604 H   0  0  0  0  0  0  0  0  0  0  0  0
  146.0442  138.4018  151.1756 H   0  0  0  0  0  0  0  0  0  0  0  0
  147.6173  137.6113  151.0929 H   0  0  0  0  0  0  0  0  0  0  0  0
  147.5137  139.3567  151.2924 H   0  0  0  0  0  0  0  0  0  0  0  0
  148.9969  137.4643  153.3573 H   0  0  0  0  0  0  0  0  0  0  0  0
  150.7155  140.9667  155.6665 H   0  0  0  0  0  0  0  0  0  0  0  0
  153.0511  140.4872  156.3116 H   0  0  0  0  0  0  0  0  0  0  0  0
  154.6462  139.1350  157.6706 H   0  0  0  0  0  0  0  0  0  0  0  0
  153.9407  137.5277  157.7813 H   0  0  0  0  0  0  0  0  0  0  0  0
  156.3405  137.5591  158.5372 H   0  0  0  0  0  0  0  0  0  0  0  0
  156.0982  136.4682  157.1863 H   0  0  0  0  0  0  0  0  0  0  0  0
  157.5749  138.7375  154.8091 H   0  0  0  0  0  0  0  0  0  0  0  0
  156.8308  137.1611  154.9905 H   0  0  0  0  0  0  0  0  0  0  0  0
  155.2216  138.7349  153.9635 H   0  0  0  0  0  0  0  0  0  0  0  0
  155.4341  139.8863  155.2652 H   0  0  0  0  0  0  0  0  0  0  0  0
  150.5582  137.0307  153.8741 H   0  0  0  0  0  0  0  0  0  0  0  0
  1  2  1  0  0  0  0
  1 25  1  0  0  0  0
  1 26  1  0  0  0  0
  1 27  1  0  0  0  0
  2  3  1  0  0  0  0
  2 28  1  0  0  0  0
  2 29  1  0  0  0  0
  3  4  1  0  0  0  0
  3  5  1  0  0  0  0
  3 30  1  0  0  0  0
  4 31  1  0  0  0  0
  4 32  1  0  0  0  0
  4 33  1  0  0  0  0
  5  6  1  0  0  0  0
  5 34  1  0  0  0  0
  6  7  2  0  0  0  0
  6  8  1  0  0  0  0
  8  9  1  0  0  0  0
  8 10  1  0  0  0  0
  8 35  1  0  0  0  0
  9 36  1  0  0  0  0
  9 37  1  0  0  0  0
  9 38  1  0  0  0  0
 10 11  1  0  0  0  0
 10 39  1  0  0  0  0
 11 12  2  0  0  0  0
 11 13  1  0  0  0  0
 13 24  1  0  0  0  0
 13 14  2  0  0  0  0
 14 15  1  0  0  0  0
 14 40  1  0  0  0  0
 15 16  2  0  0  0  0
 15 41  1  0  0  0  0
 16 17  1  0  0  0  0
 16 23  1  0  0  0  0
 17 22  1  0  0  0  0
 17 18  1  0  0  0  0
 18 19  1  0  0  0  0
 18 42  1  0  0  0  0
 18 43  1  0  0  0  0
 19 20  1  0  0  0  0
 19 44  1  0  0  0  0
 19 45  1  0  0  0  0
 20 21  1  0  0  0  0
 21 22  1  0  0  0  0
 21 46  1  0  0  0  0
 21 47  1  0  0  0  0
 22 48  1  0  0  0  0
 22 49  1  0  0  0  0
 23 24  2  0  0  0  0
 24 50  1  0  0  0  0
M  END
> <s_m_source_file>
AV-unprocessed.smi

> <i_m_source_file_index>
313

> <i_lp_mmshare_version>
43012

> <i_f3d_flags>
0

> <s_epik_input>
W0NIM11bQ0gyXVtDQEhdKFtDSDNdKVtOSF1DKD1PKVtDQEhdKFtDSDNdKVtOSF1DKD1PKWMxW2NIXVtjSF1jKG5bY0hdMSlOMltDSDJdW0NIMl1PW0NIMl1bQ0gyXTI=

> <s_epik_cmdline>
J2VwaWtfcHl0aG9uJywgJy1waCcsICc3LjAnLCAnLXRuJywgJzgnLCAnLW1hJywgJzIwMCcsICctbWV0YWxfYmluZGluZycsICctaW1hZScsICc8aW5maWxlLm1hZT4nLCAnLW9tYWUnLCAnPG91dGZpbGUubWFlPic=

> <r_lp_tautomer_probability>
1

> <r_epik_Ionization_Penalty>
9.96442e-06

> <r_epik_Ionization_Penalty_Charging>
0

> <r_epik_Ionization_Penalty_Neutral>
9.96442e-06

> <r_epik_State_Penalty>
-0

> <r_epik_Charging_Adjusted_Penalty>
0

> <i_epik_Tot_Q>
0

> <i_epik_Tot_abs_Q>
0

> <r_epik_Metal_State_Penalty>
-0

> <b_epik_Metal_Only>
0

> <s_lp_Force_Field>
OPLS_2005

> <r_lp_Energy>
19.2481

> <b_lp_Chiralities_Consistent>
1

> <s_lp_Variant>
AV-unprocessed.smi:313-2

> <Gold.Version>
5.8.1

> <Gold.Id.Protein>
6NUR|6NUR_protein|mol2

> <Gold.PLP.Fitness>
48.5975

> <Gold.PLP.PLP>
-37.2904

> <Gold.PLP.part.hbond>
-6.3631

> <Gold.PLP.part.metal>
0.0000

> <Gold.PLP.part.buried>
7.3438

> <Gold.PLP.part.nonpolar>
-38.9433

> <Gold.PLP.part.repulsive>
0.5155

> <Gold.PLP.ligand.clash>
0.0000

> <Gold.PLP.ligand.torsion>
0.3564

> <Gold.PLP.Chemscore.Hbond>
2.8800

> <Gold.PLP.Chemscore.CHOScore>
1.0099

> <Gold.PLP.Chemscore.Metal>
0.0000

> <Gold.Chemscore.Hbonds>
donor molecule, donor type, donor heavy atom, donor atom, acceptor molecule, acceptor atom, score
      L1  H     5    34       P1  7948  0.37
      L1  H    10    39       P1  7948  0.64
      P1  H  7997  8010       L1    20  0.28
      P1  H 10752 10765       L1    23  0.66
      L1  C    24    50       P1  7948  0.48
      L1  C    24    50       P1  7949  0.38

> <Gold.PLP.Chemscore.Internal.Correction>
0.3500

> <Gold.Rescore>
     Score         DG    S(hbond)    S(metal)    S(lipo)     H(rot)  DE(clash)    DE(int)     intcor
     16.47     -19.03       2.47        0.00      84.52       1.79       1.81       0.75       ----

> <Gold.Chemscore.Fitness>
16.4712

> <Gold.Chemscore.DG>
-19.0276

> <Gold.Chemscore.ZeroCoef>
-5.4800

> <Gold.Chemscore.Hbond>
2.4666

> <Gold.Chemscore.Metal>
0.0000

> <Gold.Chemscore.Lipo>
84.5169

> <Gold.Chemscore.Internal_Hbond>
0.0000

> <Gold.Chemscore.DEClash>
1.8101

> <Gold.Chemscore.DEInternal>
0.7463

> <Gold.Chemscore.Rot>
1.7888

> <Gold.Chemscore.Internal.Correction>
   9.000000E+99

> <Gold.Chemscore.Hbonds>
donor molecule, donor type, donor heavy atom, donor atom, acceptor molecule, acceptor atom, score
      L1  H     5    34       P1  7948  0.37
      L1  H    10    39       P1  7948  0.64
      P1  H 10752 10765       L1    23  0.53

> <Gold.Chemscore.Hbond.Weighted>
-8.2384

> <Gold.Chemscore.Metal.Weighted>
-0.0000

> <Gold.Chemscore.Lipo.Weighted>
-9.8885

> <Gold.Chemscore.Internal_Hbond.Weighted>
0.0000

> <Gold.Chemscore.DEClash.Weighted>
1.8101

> <Gold.Chemscore.DEInternal.Weighted>
0.7463

> <Gold.Chemscore.Rot.Weighted>
4.5793

> <Gold.Chemscore.Internal.Correction.Weighted>
   9.000000E+99

> <Gold.Protein.RotatedTorsions>
[ 6907 6896 6895 6894 ] final  -37.96 input  -60.11 | X-H torsion
[ 7974 7965 7964 7962 ] final -168.36 input  175.53 | X-H torsion
[ 8008 7997 7996 7995 ] final  -76.95 input   59.86 | X-H torsion
[ 10167 10162 10161 10158 ] final  149.67 input  -65.29 | X-H torsion
[ 10718 10713 10712 10709 ] final -169.63 input   66.30 | X-H torsion
[ 10763 10752 10751 10750 ] final  159.12 input  -60.55 | X-H torsion
[ 11005 11000 10999 10996 ] final  -43.87 input  -57.11 | X-H torsion

> <Gold.Protein.ActiveResidues>
 VAL166  LYS551  ARG553  GLY616  TRP617  ASP618  TYR619  PRO620  LYS621  CYS622 
 ASP623  PHE694  ASN695  SER759  ASP760  ASP761  ALA762  ILE779  LEU786  VAL792 
 PHE793  MET794  SER795  GLU796  ALA797  LYS798  CYS799  TRP800  GLU811  SER814 

> <Gold.Protein.RotatedAtoms>
  151.0083  134.9377  159.7992 H   0  0  0  0  0  0  0  0  0  0  0  0  # atno 6907 bound_to 6896
  152.5296  134.3062  159.9106 H   0  0  0  0  0  0  0  0  0  0  0  0  # atno 6908 bound_to 6896
  151.3068  133.4056  159.2678 H   0  0  0  0  0  0  0  0  0  0  0  0  # atno 6909 bound_to 6896
  144.7204  140.2381  143.6295 H   0  0  0  0  0  0  0  0  0  0  0  0  # atno 7974 bound_to 7965
  154.5551  140.0718  156.8730 H   0  0  0  0  0  0  0  0  0  0  0  0  # atno 8008 bound_to 7997
  155.2918  140.3378  155.4234 H   0  0  0  0  0  0  0  0  0  0  0  0  # atno 8009 bound_to 7997
  156.1995  140.1716  156.7915 H   0  0  0  0  0  0  0  0  0  0  0  0  # atno 8010 bound_to 7997
  139.4859  144.5583  151.7277 H   0  0  0  0  0  0  0  0  0  0  0  0  # atno 10167 bound_to 10162
  156.7143  130.9246  151.3092 H   0  0  0  0  0  0  0  0  0  0  0  0  # atno 10718 bound_to 10713
  154.2268  135.2780  155.2905 H   0  0  0  0  0  0  0  0  0  0  0  0  # atno 10763 bound_to 10752
  154.5657  135.5634  153.7051 H   0  0  0  0  0  0  0  0  0  0  0  0  # atno 10764 bound_to 10752
  153.0029  135.6309  154.2409 H   0  0  0  0  0  0  0  0  0  0  0  0  # atno 10765 bound_to 10752
  141.0413  133.6779  156.2793 H   0  0  0  0  0  0  0  0  0  0  0  0  # atno 11005 bound_to 11000
  145.8346  139.2101  143.1863 LP  0  0  0  0  0  0  0  0  0  0  0  0  # atno 17320 bound_to 7965
  146.0400  140.8174  142.9833 LP  0  0  0  0  0  0  0  0  0  0  0  0  # atno 17321 bound_to 7965
  140.5148  144.0969  150.6005 LP  0  0  0  0  0  0  0  0  0  0  0  0  # atno 17342 bound_to 10162
  140.3907  143.2754  152.0063 LP  0  0  0  0  0  0  0  0  0  0  0  0  # atno 17343 bound_to 10162
  157.6923  130.9246  150.0548 LP  0  0  0  0  0  0  0  0  0  0  0  0  # atno 17370 bound_to 10713
  156.1639  130.3644  149.9260 LP  0  0  0  0  0  0  0  0  0  0  0  0  # atno 17371 bound_to 10713
  140.6229  134.5342  157.5550 LP  0  0  0  0  0  0  0  0  0  0  0  0  # atno 17394 bound_to 11000
  139.9278  134.8023  156.1019 LP  0  0  0  0  0  0  0  0  0  0  0  0  # atno 17395 bound_to 11000

$$$$
