AV-unprocessed.smi:2518|AV-procd|sdf|9901|dock7
  -GOLD-   2272013543D 1   1.00000     0.00000
 Structure written by MMmdl.
 41 43  0  0  0  0  0  0  0  0  1 V2000
  151.9968  145.7147  160.2082 C   0  0  0  0  0  0  0  0  0  0  0  0
  151.9663  144.3628  159.5258 C   0  0  0  0  0  0  0  0  0  0  0  0
  150.9837  144.0709  158.5591 C   0  0  0  0  0  0  0  0  0  0  0  0
  150.9635  142.8105  157.9317 C   0  0  0  0  0  0  0  0  0  0  0  0
  151.9176  141.8249  158.2576 C   0  0  0  0  0  0  0  0  0  0  0  0
  151.8213  140.6192  157.5970 O   0  0  0  0  0  0  0  0  0  0  0  0
  151.2093  140.6003  156.3137 C   0  0  0  0  0  0  0  0  0  0  0  0
  151.4862  139.2407  155.6540 C   0  0  2  0  0  0  0  0  0  0  0  0
  150.9913  139.2808  154.3292 O   0  0  0  0  0  0  0  0  0  0  0  0
  150.8091  138.0841  156.4162 C   0  0  0  0  0  0  0  0  0  0  0  0
  149.3918  138.3207  156.6467 N   0  0  0  0  0  0  0  0  0  0  0  0
  148.6818  139.0456  155.7438 N   0  0  0  0  0  0  0  0  0  0  0  0
  147.4403  139.1033  156.2211 C   0  0  0  0  0  0  0  0  0  0  0  0
  147.3125  138.4132  157.4575 C   0  0  0  0  0  0  0  0  0  0  0  0
  146.2225  138.1665  158.3951 C   0  0  0  0  0  0  0  0  0  0  0  0
  146.4769  137.4788  159.4637 N   0  0  0  0  0  0  0  0  0  0  0  0
  147.7582  136.9798  159.7237 N   0  0  0  0  0  0  0  0  0  0  0  0
  147.8496  136.2326  160.9775 C   0  0  0  0  0  0  0  0  0  0  0  0
  148.8434  137.1462  158.9055 C   0  0  0  0  0  0  0  0  0  0  0  0
  149.9635  136.6913  159.1370 O   0  0  0  0  0  0  0  0  0  0  0  0
  148.5619  137.9372  157.6825 C   0  0  0  0  0  0  0  0  0  0  0  0
  152.9050  142.1262  159.2294 C   0  0  0  0  0  0  0  0  0  0  0  0
  152.9259  143.3865  159.8581 C   0  0  0  0  0  0  0  0  0  0  0  0
  151.2110  146.3697  159.8302 H   0  0  0  0  0  0  0  0  0  0  0  0
  152.9570  146.2022  160.0382 H   0  0  0  0  0  0  0  0  0  0  0  0
  151.8560  145.5982  161.2830 H   0  0  0  0  0  0  0  0  0  0  0  0
  150.2418  144.8102  158.2951 H   0  0  0  0  0  0  0  0  0  0  0  0
  150.2050  142.5967  157.1930 H   0  0  0  0  0  0  0  0  0  0  0  0
  150.1332  140.7264  156.4445 H   0  0  0  0  0  0  0  0  0  0  0  0
  151.5677  141.4158  155.6823 H   0  0  0  0  0  0  0  0  0  0  0  0
  152.5617  139.0612  155.6234 H   0  0  0  0  0  0  0  0  0  0  0  0
  150.1091  138.9413  154.3305 H   0  0  0  0  0  0  0  0  0  0  0  0
  150.9090  137.1585  155.8475 H   0  0  0  0  0  0  0  0  0  0  0  0
  151.3057  137.9040  157.3690 H   0  0  0  0  0  0  0  0  0  0  0  0
  146.6867  139.6383  155.6624 H   0  0  0  0  0  0  0  0  0  0  0  0
  145.2231  138.5535  158.1967 H   0  0  0  0  0  0  0  0  0  0  0  0
  148.8625  135.9162  161.2292 H   0  0  0  0  0  0  0  0  0  0  0  0
  147.2286  135.3376  160.9250 H   0  0  0  0  0  0  0  0  0  0  0  0
  147.4873  136.8432  161.8055 H   0  0  0  0  0  0  0  0  0  0  0  0
  153.6594  141.4074  159.5108 H   0  0  0  0  0  0  0  0  0  0  0  0
  153.6827  143.6022  160.5982 H   0  0  0  0  0  0  0  0  0  0  0  0
  1  2  1  0  0  0  0
  1 24  1  0  0  0  0
  1 25  1  0  0  0  0
  1 26  1  0  0  0  0
  2 23  1  0  0  0  0
  2  3  2  0  0  0  0
  3  4  1  0  0  0  0
  3 27  1  0  0  0  0
  4  5  2  0  0  0  0
  4 28  1  0  0  0  0
  5  6  1  0  0  0  0
  5 22  1  0  0  0  0
  6  7  1  0  0  0  0
  7  8  1  0  0  0  0
  7 29  1  0  0  0  0
  7 30  1  0  0  0  0
  8  9  1  0  0  0  0
  8 10  1  0  0  0  0
  8 31  1  0  0  0  0
  9 32  1  0  0  0  0
 10 11  1  0  0  0  0
 10 33  1  0  0  0  0
 10 34  1  0  0  0  0
 11 21  1  0  0  0  0
 11 12  1  0  0  0  0
 12 13  2  0  0  0  0
 13 14  1  0  0  0  0
 13 35  1  0  0  0  0
 14 21  2  0  0  0  0
 14 15  1  0  0  0  0
 15 16  2  0  0  0  0
 15 36  1  0  0  0  0
 16 17  1  0  0  0  0
 17 18  1  0  0  0  0
 17 19  1  0  0  0  0
 18 37  1  0  0  0  0
 18 38  1  0  0  0  0
 18 39  1  0  0  0  0
 19 20  2  0  0  0  0
 19 21  1  0  0  0  0
 22 23  2  0  0  0  0
 22 40  1  0  0  0  0
 23 41  1  0  0  0  0
M  END
> <s_m_source_file>
AV-unprocessed.smi

> <i_m_source_file_index>
2518

> <i_lp_mmshare_version>
43012

> <i_f3d_flags>
0

> <s_epik_input>
W0NIM11jMVtjSF1bY0hdYyhbY0hdW2NIXTEpT1tDSDJdW0NASF0oW09IXSlbQ0gyXW4obltjSF0yKWMoYzIzKWMoPU8pbihbQ0gzXSluW2NIXTM=

> <s_epik_cmdline>
J2VwaWtfcHl0aG9uJywgJy1waCcsICc3LjAnLCAnLXRuJywgJzgnLCAnLW1hJywgJzIwMCcsICctbWV0YWxfYmluZGluZycsICctaW1hZScsICc8aW5maWxlLm1hZT4nLCAnLW9tYWUnLCAnPG91dGZpbGUubWFlPic=

> <r_lp_tautomer_probability>
1

> <r_epik_Ionization_Penalty>
2.246e-06

> <r_epik_Ionization_Penalty_Charging>
1.41975e-10

> <r_epik_Ionization_Penalty_Neutral>
2.24586e-06

> <r_epik_State_Penalty>
-0

> <r_epik_Charging_Adjusted_Penalty>
1.41975e-10

> <i_epik_Tot_Q>
0

> <i_epik_Tot_abs_Q>
0

> <r_epik_Metal_State_Penalty>
-0

> <b_epik_Metal_Only>
0

> <s_lp_Force_Field>
OPLS_2005

> <r_lp_Energy>
32.1328

> <b_lp_Chiralities_Consistent>
1

> <s_lp_Variant>
AV-unprocessed.smi:2518-1

> <Gold.Version>
5.8.1

> <Gold.Id.Protein>
6NUR|6NUR_protein|mol2

> <Gold.PLP.Fitness>
44.0637

> <Gold.PLP.PLP>
-38.8942

> <Gold.PLP.part.hbond>
-2.9865

> <Gold.PLP.part.metal>
0.0000

> <Gold.PLP.part.buried>
-4.7756

> <Gold.PLP.part.nonpolar>
-31.8283

> <Gold.PLP.part.repulsive>
0.0057

> <Gold.PLP.ligand.clash>
0.0000

> <Gold.PLP.ligand.torsion>
0.8178

> <Gold.PLP.Chemscore.Hbond>
2.2559

> <Gold.PLP.Chemscore.CHOScore>
0.0000

> <Gold.PLP.Chemscore.Metal>
0.0000

> <Gold.Chemscore.Hbonds>
donor molecule, donor type, donor heavy atom, donor atom, acceptor molecule, acceptor atom, score
      P1  H  6896  6907       L1    20  0.88
      P1  H  6934  6947       L1    16  0.02
      P1  H  7989  7998       L1     9  1.00

> <Gold.PLP.Chemscore.Internal.Correction>
0.0372

> <Gold.Rescore>
     Score         DG    S(hbond)    S(metal)    S(lipo)     H(rot)  DE(clash)    DE(int)     intcor
     15.67     -18.05       1.95        0.00     103.09       2.35       0.02       2.36       ----

> <Gold.Chemscore.Fitness>
15.6709

> <Gold.Chemscore.DG>
-18.0504

> <Gold.Chemscore.ZeroCoef>
-5.4800

> <Gold.Chemscore.Hbond>
1.9527

> <Gold.Chemscore.Metal>
0.0000

> <Gold.Chemscore.Lipo>
103.0927

> <Gold.Chemscore.Internal_Hbond>
0.0000

> <Gold.Chemscore.DEClash>
0.0211

> <Gold.Chemscore.DEInternal>
2.3583

> <Gold.Chemscore.Rot>
2.3490

> <Gold.Chemscore.Internal.Correction>
   9.000000E+99

> <Gold.Chemscore.Hbonds>
donor molecule, donor type, donor heavy atom, donor atom, acceptor molecule, acceptor atom, score
      P1  H  6896  6907       L1    20  0.86
      P1  H  7989  7998       L1     9  0.70

> <Gold.Chemscore.Hbond.Weighted>
-6.5221

> <Gold.Chemscore.Metal.Weighted>
-0.0000

> <Gold.Chemscore.Lipo.Weighted>
-12.0618

> <Gold.Chemscore.Internal_Hbond.Weighted>
0.0000

> <Gold.Chemscore.DEClash.Weighted>
0.0211

> <Gold.Chemscore.DEInternal.Weighted>
2.3583

> <Gold.Chemscore.Rot.Weighted>
6.0136

> <Gold.Chemscore.Internal.Correction.Weighted>
   9.000000E+99

> <Gold.Protein.RotatedTorsions>
[ 6907 6896 6895 6894 ] final  -43.99 input  -60.11 | X-H torsion
[ 7974 7965 7964 7962 ] final   72.90 input  175.53 | X-H torsion
[ 8008 7997 7996 7995 ] final  -69.18 input   59.86 | X-H torsion
[ 10167 10162 10161 10158 ] final -164.94 input  -65.29 | X-H torsion
[ 10718 10713 10712 10709 ] final  -34.51 input   66.30 | X-H torsion
[ 10763 10752 10751 10750 ] final -159.92 input  -60.55 | X-H torsion
[ 11005 11000 10999 10996 ] final   91.95 input  -57.11 | X-H torsion

> <Gold.Protein.ActiveResidues>
 VAL166  LYS551  ARG553  GLY616  TRP617  ASP618  TYR619  PRO620  LYS621  CYS622 
 ASP623  PHE694  ASN695  SER759  ASP760  ASP761  ALA762  ILE779  LEU786  VAL792 
 PHE793  MET794  SER795  GLU796  ALA797  LYS798  CYS799  TRP800  GLU811  SER814 

> <Gold.Protein.RotatedAtoms>
  150.9378  134.8789  159.7592 H   0  0  0  0  0  0  0  0  0  0  0  0  # atno 6907 bound_to 6896
  152.5067  134.3986  159.9418 H   0  0  0  0  0  0  0  0  0  0  0  0  # atno 6908 bound_to 6896
  151.4008  133.3718  159.2767 H   0  0  0  0  0  0  0  0  0  0  0  0  # atno 6909 bound_to 6896
  145.7475  139.2746  143.1450 H   0  0  0  0  0  0  0  0  0  0  0  0  # atno 7974 bound_to 7965
  154.4920  140.0858  156.7615 H   0  0  0  0  0  0  0  0  0  0  0  0  # atno 8008 bound_to 7997
  155.4207  140.3445  155.4253 H   0  0  0  0  0  0  0  0  0  0  0  0  # atno 8009 bound_to 7997
  156.1343  140.1510  156.9006 H   0  0  0  0  0  0  0  0  0  0  0  0  # atno 8010 bound_to 7997
  139.6216  144.0614  152.1937 H   0  0  0  0  0  0  0  0  0  0  0  0  # atno 10167 bound_to 10162
  156.3497  130.4306  149.7715 H   0  0  0  0  0  0  0  0  0  0  0  0  # atno 10718 bound_to 10713
  154.7434  135.3074  154.8687 H   0  0  0  0  0  0  0  0  0  0  0  0  # atno 10763 bound_to 10752
  153.9495  135.6765  153.4748 H   0  0  0  0  0  0  0  0  0  0  0  0  # atno 10764 bound_to 10752
  153.1032  135.4902  154.8830 H   0  0  0  0  0  0  0  0  0  0  0  0  # atno 10765 bound_to 10752
  139.8831  134.8704  156.3502 H   0  0  0  0  0  0  0  0  0  0  0  0  # atno 11005 bound_to 11000
  146.0388  140.8185  142.9839 LP  0  0  0  0  0  0  0  0  0  0  0  0  # atno 17320 bound_to 7965
  144.6857  140.2879  143.7282 LP  0  0  0  0  0  0  0  0  0  0  0  0  # atno 17321 bound_to 7965
  140.0257  144.6119  150.7529 LP  0  0  0  0  0  0  0  0  0  0  0  0  # atno 17342 bound_to 10162
  140.7385  143.2779  151.3686 LP  0  0  0  0  0  0  0  0  0  0  0  0  # atno 17343 bound_to 10162
  156.4920  130.8089  151.3098 LP  0  0  0  0  0  0  0  0  0  0  0  0  # atno 17370 bound_to 10713
  157.7459  130.9972  150.2808 LP  0  0  0  0  0  0  0  0  0  0  0  0  # atno 17371 bound_to 10713
  140.9599  133.7395  156.0387 LP  0  0  0  0  0  0  0  0  0  0  0  0  # atno 17394 bound_to 11000
  140.8002  134.3517  157.5441 LP  0  0  0  0  0  0  0  0  0  0  0  0  # atno 17395 bound_to 11000

$$$$
