AV-unprocessed.smi:2486|AV-procd|sdf|9790|dock8
  -GOLD-   2272013433D 1   1.00000     0.00000
 Structure written by MMmdl.
 42 43  0  0  0  0  0  0  0  0  1 V2000
  151.6365  139.7752  155.5861 C   0  0  0  0  0  0  0  0  0  0  0  0
  150.3567  139.9812  154.9358 N   0  0  0  0  0  0  0  0  0  0  0  0
  149.8732  139.0807  154.0481 N   0  0  0  0  0  0  0  0  0  0  0  0
  148.7086  139.6204  153.6875 C   0  0  0  0  0  0  0  0  0  0  0  0
  148.3931  140.8122  154.2754 N   0  0  0  0  0  0  0  0  0  0  0  0
  149.4681  140.9735  155.0407 C   0  0  0  0  0  0  0  0  0  0  0  0
  149.7210  142.0685  155.9098 N   0  0  0  0  0  0  0  0  0  0  0  0
  150.0084  142.0289  157.2218 C   0  0  0  0  0  0  0  0  0  0  0  0
  150.1141  141.0043  157.8963 O   0  0  0  0  0  0  0  0  0  0  0  0
  150.1718  143.2609  157.7207 N   0  0  0  0  0  0  0  0  0  0  0  0
  150.4949  143.5511  159.1143 C   0  0  0  0  0  0  0  0  0  0  0  0
  152.0239  143.6106  159.3782 C   0  0  0  0  0  0  0  0  0  0  0  0
  152.6660  144.6003  158.3787 C   0  0  0  0  0  0  0  0  0  0  0  0
  152.2570  144.1677  160.8090 C   0  0  0  0  0  0  0  0  0  0  0  0
  152.1077  143.1647  161.9684 C   0  0  0  0  0  0  0  0  0  0  0  0
  153.4239  142.4451  162.3071 C   0  0  0  0  0  0  0  0  0  0  0  0
  153.8666  141.4000  161.2732 C   0  0  0  0  0  0  0  0  0  0  0  0
  154.0025  141.9348  159.8371 C   0  0  0  0  0  0  0  0  0  0  0  0
  152.6411  142.1987  159.1668 C   0  0  0  0  0  0  0  0  0  0  0  0
  151.5017  139.7786  156.6681 H   0  0  0  0  0  0  0  0  0  0  0  0
  152.3213  140.5771  155.3085 H   0  0  0  0  0  0  0  0  0  0  0  0
  152.0699  138.8196  155.2874 H   0  0  0  0  0  0  0  0  0  0  0  0
  148.0607  139.1361  152.9717 H   0  0  0  0  0  0  0  0  0  0  0  0
  149.6748  142.9825  155.4846 H   0  0  0  0  0  0  0  0  0  0  0  0
  150.0689  144.0507  157.1006 H   0  0  0  0  0  0  0  0  0  0  0  0
  150.0294  144.4991  159.3905 H   0  0  0  0  0  0  0  0  0  0  0  0
  150.0317  142.7870  159.7401 H   0  0  0  0  0  0  0  0  0  0  0  0
  153.7398  144.6943  158.5421 H   0  0  0  0  0  0  0  0  0  0  0  0
  152.2337  145.5968  158.4773 H   0  0  0  0  0  0  0  0  0  0  0  0
  152.5276  144.2872  157.3433 H   0  0  0  0  0  0  0  0  0  0  0  0
  153.2448  144.6256  160.8763 H   0  0  0  0  0  0  0  0  0  0  0  0
  151.5657  144.9946  160.9770 H   0  0  0  0  0  0  0  0  0  0  0  0
  151.8023  143.7216  162.8550 H   0  0  0  0  0  0  0  0  0  0  0  0
  151.3072  142.4493  161.7797 H   0  0  0  0  0  0  0  0  0  0  0  0
  154.2182  143.1790  162.4494 H   0  0  0  0  0  0  0  0  0  0  0  0
  153.3104  141.9451  163.2695 H   0  0  0  0  0  0  0  0  0  0  0  0
  154.8294  140.9965  161.5884 H   0  0  0  0  0  0  0  0  0  0  0  0
  153.1765  140.5556  161.2879 H   0  0  0  0  0  0  0  0  0  0  0  0
  154.6435  142.8158  159.8031 H   0  0  0  0  0  0  0  0  0  0  0  0
  154.5194  141.1726  159.2532 H   0  0  0  0  0  0  0  0  0  0  0  0
  151.9387  141.4335  159.5006 H   0  0  0  0  0  0  0  0  0  0  0  0
  152.7492  142.0204  158.0961 H   0  0  0  0  0  0  0  0  0  0  0  0
  1  2  1  0  0  0  0
  1 20  1  0  0  0  0
  1 21  1  0  0  0  0
  1 22  1  0  0  0  0
  2  6  1  0  0  0  0
  2  3  1  0  0  0  0
  3  4  2  0  0  0  0
  4  5  1  0  0  0  0
  4 23  1  0  0  0  0
  5  6  2  0  0  0  0
  6  7  1  0  0  0  0
  7  8  1  0  0  0  0
  7 24  1  0  0  0  0
  8  9  2  0  0  0  0
  8 10  1  0  0  0  0
 10 11  1  0  0  0  0
 10 25  1  0  0  0  0
 11 12  1  0  0  0  0
 11 26  1  0  0  0  0
 11 27  1  0  0  0  0
 12 19  1  0  0  0  0
 12 13  1  0  0  0  0
 12 14  1  0  0  0  0
 13 28  1  0  0  0  0
 13 29  1  0  0  0  0
 13 30  1  0  0  0  0
 14 15  1  0  0  0  0
 14 31  1  0  0  0  0
 14 32  1  0  0  0  0
 15 16  1  0  0  0  0
 15 33  1  0  0  0  0
 15 34  1  0  0  0  0
 16 17  1  0  0  0  0
 16 35  1  0  0  0  0
 16 36  1  0  0  0  0
 17 18  1  0  0  0  0
 17 37  1  0  0  0  0
 17 38  1  0  0  0  0
 18 19  1  0  0  0  0
 18 39  1  0  0  0  0
 18 40  1  0  0  0  0
 19 41  1  0  0  0  0
 19 42  1  0  0  0  0
M  END
> <s_m_source_file>
AV-unprocessed.smi

> <i_m_source_file_index>
2486

> <i_lp_mmshare_version>
43012

> <i_f3d_flags>
0

> <s_epik_input>
W0NIM11uMW5bY0hdbmMxW05IXUMoPU8pW05IXVtDSDJdQzIoW0NIM10pW0NIMl1bQ0gyXVtDSDJdW0NIMl1bQ0gyXVtDSDJdMg==

> <s_epik_cmdline>
J2VwaWtfcHl0aG9uJywgJy1waCcsICc3LjAnLCAnLXRuJywgJzgnLCAnLW1hJywgJzIwMCcsICctbWV0YWxfYmluZGluZycsICctaW1hZScsICc8aW5maWxlLm1hZT4nLCAnLW9tYWUnLCAnPG91dGZpbGUubWFlPic=

> <r_lp_tautomer_probability>
1

> <r_epik_Ionization_Penalty>
2.33289e-05

> <r_epik_Ionization_Penalty_Charging>
0

> <r_epik_Ionization_Penalty_Neutral>
2.33289e-05

> <r_epik_State_Penalty>
-0

> <r_epik_Charging_Adjusted_Penalty>
0

> <i_epik_Tot_Q>
0

> <i_epik_Tot_abs_Q>
0

> <r_epik_Metal_State_Penalty>
-0

> <b_epik_Metal_Only>
0

> <s_lp_Force_Field>
OPLS_2005

> <r_lp_Energy>
21.4414

> <b_lp_Chiralities_Consistent>
1

> <s_lp_Variant>
AV-unprocessed.smi:2486-1

> <Gold.Version>
5.8.1

> <Gold.Id.Protein>
6NUR|6NUR_protein|mol2

> <Gold.PLP.Fitness>
49.0141

> <Gold.PLP.PLP>
-44.6680

> <Gold.PLP.part.hbond>
-2.0000

> <Gold.PLP.part.metal>
0.0000

> <Gold.PLP.part.buried>
-0.6544

> <Gold.PLP.part.nonpolar>
-42.3044

> <Gold.PLP.part.repulsive>
0.5024

> <Gold.PLP.ligand.clash>
0.0000

> <Gold.PLP.ligand.torsion>
0.7325

> <Gold.PLP.Chemscore.Hbond>
1.7440

> <Gold.PLP.Chemscore.CHOScore>
0.1910

> <Gold.PLP.Chemscore.Metal>
0.0000

> <Gold.Chemscore.Hbonds>
donor molecule, donor type, donor heavy atom, donor atom, acceptor molecule, acceptor atom, score
      L1  H     7    24       P1  8028  0.88
      L1  H    10    25       P1  8028  0.83
      L1  C     4    23       P1  7957  0.15

> <Gold.PLP.Chemscore.Internal.Correction>
0.0062

> <Gold.Rescore>
     Score         DG    S(hbond)    S(metal)    S(lipo)     H(rot)  DE(clash)    DE(int)     intcor
     18.89     -19.73       1.49        0.00     108.60       1.35       0.11       0.72       ----

> <Gold.Chemscore.Fitness>
18.8931

> <Gold.Chemscore.DG>
-19.7274

> <Gold.Chemscore.ZeroCoef>
-5.4800

> <Gold.Chemscore.Hbond>
1.4928

> <Gold.Chemscore.Metal>
0.0000

> <Gold.Chemscore.Lipo>
108.5958

> <Gold.Chemscore.Internal_Hbond>
0.0000

> <Gold.Chemscore.DEClash>
0.1100

> <Gold.Chemscore.DEInternal>
0.7244

> <Gold.Chemscore.Rot>
1.3454

> <Gold.Chemscore.Internal.Correction>
   9.000000E+99

> <Gold.Chemscore.Hbonds>
donor molecule, donor type, donor heavy atom, donor atom, acceptor molecule, acceptor atom, score
      L1  H     7    24       P1  8028  0.86
      L1  H    10    25       P1  8028  0.72

> <Gold.Chemscore.Hbond.Weighted>
-4.9859

> <Gold.Chemscore.Metal.Weighted>
-0.0000

> <Gold.Chemscore.Lipo.Weighted>
-12.7057

> <Gold.Chemscore.Internal_Hbond.Weighted>
0.0000

> <Gold.Chemscore.DEClash.Weighted>
0.1100

> <Gold.Chemscore.DEInternal.Weighted>
0.7244

> <Gold.Chemscore.Rot.Weighted>
3.4442

> <Gold.Chemscore.Internal.Correction.Weighted>
   9.000000E+99

> <Gold.Protein.RotatedTorsions>
[ 6907 6896 6895 6894 ] final  -51.05 input  -60.11 | X-H torsion
[ 7974 7965 7964 7962 ] final   -0.62 input  175.53 | X-H torsion
[ 8008 7997 7996 7995 ] final  128.02 input   59.86 | X-H torsion
[ 10167 10162 10161 10158 ] final -152.09 input  -65.29 | X-H torsion
[ 10718 10713 10712 10709 ] final  127.08 input   66.30 | X-H torsion
[ 10763 10752 10751 10750 ] final  125.72 input  -60.55 | X-H torsion
[ 11005 11000 10999 10996 ] final  124.73 input  -57.11 | X-H torsion

> <Gold.Protein.ActiveResidues>
 VAL166  LYS551  ARG553  GLY616  TRP617  ASP618  TYR619  PRO620  LYS621  CYS622 
 ASP623  PHE694  ASN695  SER759  ASP760  ASP761  ALA762  ILE779  LEU786  VAL792 
 PHE793  MET794  SER795  GLU796  ALA797  LYS798  CYS799  TRP800  GLU811  SER814 

> <Gold.Protein.RotatedAtoms>
  150.8648  134.8009  159.7110 H   0  0  0  0  0  0  0  0  0  0  0  0  # atno 6907 bound_to 6896
  152.4673  134.5041  159.9743 H   0  0  0  0  0  0  0  0  0  0  0  0  # atno 6908 bound_to 6896
  151.5139  133.3441  159.2925 H   0  0  0  0  0  0  0  0  0  0  0  0  # atno 6909 bound_to 6896
  146.2425  140.1297  142.8338 H   0  0  0  0  0  0  0  0  0  0  0  0  # atno 7974 bound_to 7965
  156.2905  140.2655  156.2368 H   0  0  0  0  0  0  0  0  0  0  0  0  # atno 8008 bound_to 7997
  155.0017  140.0388  157.2381 H   0  0  0  0  0  0  0  0  0  0  0  0  # atno 8009 bound_to 7997
  154.7596  140.2758  155.6230 H   0  0  0  0  0  0  0  0  0  0  0  0  # atno 8010 bound_to 7997
  139.7211  143.8955  152.2503 H   0  0  0  0  0  0  0  0  0  0  0  0  # atno 10167 bound_to 10162
  157.5364  131.1097  150.8928 H   0  0  0  0  0  0  0  0  0  0  0  0  # atno 10718 bound_to 10713
  153.6818  135.3313  155.3180 H   0  0  0  0  0  0  0  0  0  0  0  0  # atno 10763 bound_to 10752
  154.8464  135.4411  154.1599 H   0  0  0  0  0  0  0  0  0  0  0  0  # atno 10764 bound_to 10752
  153.2617  135.6992  153.7649 H   0  0  0  0  0  0  0  0  0  0  0  0  # atno 10765 bound_to 10752
  139.9373  134.9638  156.8453 H   0  0  0  0  0  0  0  0  0  0  0  0  # atno 11005 bound_to 11000
  145.0337  140.8891  143.5094 LP  0  0  0  0  0  0  0  0  0  0  0  0  # atno 17320 bound_to 7965
  145.1365  139.2599  143.5512 LP  0  0  0  0  0  0  0  0  0  0  0  0  # atno 17321 bound_to 7965
  139.8852  144.6996  150.8833 LP  0  0  0  0  0  0  0  0  0  0  0  0  # atno 17342 bound_to 10162
  140.7754  143.3630  151.1792 LP  0  0  0  0  0  0  0  0  0  0  0  0  # atno 17343 bound_to 10162
  156.9494  130.5414  149.5282 LP  0  0  0  0  0  0  0  0  0  0  0  0  # atno 17370 bound_to 10713
  156.0462  130.5538  150.8886 LP  0  0  0  0  0  0  0  0  0  0  0  0  # atno 17371 bound_to 10713
  140.6044  134.0142  155.7550 LP  0  0  0  0  0  0  0  0  0  0  0  0  # atno 17394 bound_to 11000
  141.0992  133.9795  157.3108 LP  0  0  0  0  0  0  0  0  0  0  0  0  # atno 17395 bound_to 11000

$$$$
