AV-unprocessed.smi:73|AV-procd|sdf|759|dock8
  -GOLD-   2262017 93D 1   1.00000     0.00000
 Structure written by MMmdl.
 35 36  0  0  0  0  0  0  0  0  2 V2000
  149.7332  141.6835  155.4662 C   0  0  0  0  0  0  0  0  0  0  0  0
  148.8609  140.9326  154.4495 C   0  0  0  0  0  0  0  0  0  0  0  0
  148.5439  139.5096  154.7114 N   0  0  0  0  0  0  0  0  0  0  0  0
  149.6526  138.6891  154.1885 C   0  0  0  0  0  0  0  0  0  0  0  0
  150.9342  138.8297  154.9483 C   0  0  0  0  0  0  0  0  0  0  0  0
  151.7552  139.8826  154.9647 N   0  0  0  0  0  0  0  0  0  0  0  0
  152.7967  139.5313  155.7947 N   0  0  0  0  0  0  0  0  0  0  0  0
  152.5240  138.2941  156.2165 C   0  0  0  0  0  0  0  0  0  0  0  0
  153.3368  137.4513  157.1384 C   0  0  0  0  0  0  0  0  0  0  0  0
  151.3613  137.7974  155.7207 O   0  0  0  0  0  0  0  0  0  0  0  0
  147.2455  139.1057  154.1142 C   0  0  2  0  0  0  0  0  0  0  0  0
  146.8248  137.6448  154.4360 C   0  0  0  0  0  0  0  0  0  0  0  0
  146.5420  136.9453  153.1723 N   0  3  0  0  0  0  0  0  0  0  0  0
  146.2738  137.9705  152.1668 C   0  0  0  0  0  0  0  0  0  0  0  0
  147.1876  139.1245  152.5631 C   0  0  1  0  0  0  0  0  0  0  0  0
  146.6398  140.3311  152.0697 O   0  0  0  0  0  0  0  0  0  0  0  0
  148.1742  138.9476  152.1316 H   0  0  0  0  0  0  0  0  0  0  0  0
  150.0907  142.6178  155.0329 H   0  0  0  0  0  0  0  0  0  0  0  0
  150.6109  141.1006  155.7468 H   0  0  0  0  0  0  0  0  0  0  0  0
  149.1830  141.9546  156.3657 H   0  0  0  0  0  0  0  0  0  0  0  0
  147.9384  141.4919  154.2864 H   0  0  0  0  0  0  0  0  0  0  0  0
  149.4091  141.0138  153.5116 H   0  0  0  0  0  0  0  0  0  0  0  0
  149.4135  137.6290  154.2326 H   0  0  0  0  0  0  0  0  0  0  0  0
  149.8319  138.9209  153.1375 H   0  0  0  0  0  0  0  0  0  0  0  0
  154.3784  137.7726  157.1242 H   0  0  0  0  0  0  0  0  0  0  0  0
  153.2896  136.4057  156.8334 H   0  0  0  0  0  0  0  0  0  0  0  0
  152.9554  137.5387  158.1556 H   0  0  0  0  0  0  0  0  0  0  0  0
  146.4608  139.7666  154.4871 H   0  0  0  0  0  0  0  0  0  0  0  0
  147.6065  137.0702  154.9292 H   0  0  0  0  0  0  0  0  0  0  0  0
  145.9358  137.6313  155.0672 H   0  0  0  0  0  0  0  0  0  0  0  0
  147.3746  136.4441  152.8963 H   0  0  0  0  0  0  0  0  0  0  0  0
  146.4557  137.6085  151.1545 H   0  0  0  0  0  0  0  0  0  0  0  0
  145.2235  138.2576  152.2449 H   0  0  0  0  0  0  0  0  0  0  0  0
  145.7097  140.3328  152.2377 H   0  0  0  0  0  0  0  0  0  0  0  0
  145.7693  136.3017  153.2662 H   0  0  0  0  0  0  0  0  0  0  0  0
  1  2  1  0  0  0  0
  1 18  1  0  0  0  0
  1 19  1  0  0  0  0
  1 20  1  0  0  0  0
  2  3  1  0  0  0  0
  2 21  1  0  0  0  0
  2 22  1  0  0  0  0
  3  4  1  0  0  0  0
  3 11  1  0  0  0  0
  4  5  1  0  0  0  0
  4 23  1  0  0  0  0
  4 24  1  0  0  0  0
  5 10  1  0  0  0  0
  5  6  2  0  0  0  0
  6  7  1  0  0  0  0
  7  8  2  0  0  0  0
  8  9  1  0  0  0  0
  8 10  1  0  0  0  0
  9 25  1  0  0  0  0
  9 26  1  0  0  0  0
  9 27  1  0  0  0  0
 11 15  1  0  0  0  0
 11 12  1  0  0  0  0
 11 28  1  0  0  0  0
 12 13  1  0  0  0  0
 12 29  1  0  0  0  0
 12 30  1  0  0  0  0
 13 14  1  0  0  0  0
 13 31  1  0  0  0  0
 13 35  1  0  0  0  0
 14 15  1  0  0  0  0
 14 32  1  0  0  0  0
 14 33  1  0  0  0  0
 15 17  1  0  0  0  0
 15 16  1  0  0  0  0
 16 34  1  0  0  0  0
M  CHG  1  13   1
M  END
> <s_m_source_file>
AV-unprocessed.smi

> <i_m_source_file_index>
73

> <i_lp_mmshare_version>
43012

> <i_f3d_flags>
0

> <s_epik_input>
W09IXVtDQEBIXTFbQ0gyXVtOSF1bQ0gyXVtDQEhdMU4oW0NIMl1bQ0gzXSlbQ0gyXWMybm5jKG8yKVtDSDNd

> <s_epik_cmdline>
J2VwaWtfcHl0aG9uJywgJy1waCcsICc3LjAnLCAnLXRuJywgJzgnLCAnLW1hJywgJzIwMCcsICctbWV0YWxfYmluZGluZycsICctaW1hZScsICc8aW5maWxlLm1hZT4nLCAnLW9tYWUnLCAnPG91dGZpbGUubWFlPic=

> <r_lp_tautomer_probability>
1

> <r_epik_Ionization_Penalty>
0.00160433

> <r_epik_Ionization_Penalty_Charging>
0.000122314

> <r_epik_Ionization_Penalty_Neutral>
0.00148202

> <r_epik_State_Penalty>
-0

> <r_epik_Charging_Adjusted_Penalty>
0.000122314

> <i_epik_Tot_Q>
1

> <i_epik_Tot_abs_Q>
1

> <r_epik_Metal_State_Penalty>
-0

> <b_epik_Metal_Only>
0

> <s_lp_Force_Field>
OPLS_2005

> <r_lp_Energy>
42.0904

> <b_lp_Chiralities_Consistent>
1

> <s_lp_Variant>
AV-unprocessed.smi:73-1

> <Gold.Version>
5.8.1

> <Gold.Id.Protein>
6NUR|6NUR_protein|mol2

> <Gold.PLP.Fitness>
39.7553

> <Gold.PLP.PLP>
-25.7814

> <Gold.PLP.part.hbond>
-4.1729

> <Gold.PLP.part.metal>
0.0000

> <Gold.PLP.part.buried>
-1.6310

> <Gold.PLP.part.nonpolar>
-19.9671

> <Gold.PLP.part.repulsive>
0.2121

> <Gold.PLP.ligand.clash>
0.0000

> <Gold.PLP.ligand.torsion>
0.5086

> <Gold.PLP.Chemscore.Hbond>
4.9920

> <Gold.PLP.Chemscore.CHOScore>
0.0000

> <Gold.PLP.Chemscore.Metal>
0.0000

> <Gold.Chemscore.Hbonds>
donor molecule, donor type, donor heavy atom, donor atom, acceptor molecule, acceptor atom, score
      L1  H    13    31       P1  7948  2.00
      L1  H    16    34       P1 10175  0.99
      P1  H  7989  7998       L1     6  1.00
      P1  H  7997  8008       L1     7  1.00

> <Gold.PLP.Chemscore.Internal.Correction>
0.0152

> <Gold.Rescore>
     Score         DG    S(hbond)    S(metal)    S(lipo)     H(rot)  DE(clash)    DE(int)     intcor
     15.98     -16.89       3.79        0.00      44.05       2.51       0.01       0.90       ----

> <Gold.Chemscore.Fitness>
15.9794

> <Gold.Chemscore.DG>
-16.8904

> <Gold.Chemscore.ZeroCoef>
-5.4800

> <Gold.Chemscore.Hbond>
3.7934

> <Gold.Chemscore.Metal>
0.0000

> <Gold.Chemscore.Lipo>
44.0470

> <Gold.Chemscore.Internal_Hbond>
0.0000

> <Gold.Chemscore.DEClash>
0.0120

> <Gold.Chemscore.DEInternal>
0.8990

> <Gold.Chemscore.Rot>
2.5051

> <Gold.Chemscore.Internal.Correction>
   9.000000E+99

> <Gold.Chemscore.Hbonds>
donor molecule, donor type, donor heavy atom, donor atom, acceptor molecule, acceptor atom, score
      L1  H    13    31       P1  7948  0.97
      L1  H    16    34       P1 10175  0.41
      P1  H  7989  7998       L1     6  0.84
      P1  H  7997  8008       L1     7  0.85

> <Gold.Chemscore.Hbond.Weighted>
-12.6700

> <Gold.Chemscore.Metal.Weighted>
-0.0000

> <Gold.Chemscore.Lipo.Weighted>
-5.1535

> <Gold.Chemscore.Internal_Hbond.Weighted>
0.0000

> <Gold.Chemscore.DEClash.Weighted>
0.0120

> <Gold.Chemscore.DEInternal.Weighted>
0.8990

> <Gold.Chemscore.Rot.Weighted>
6.4131

> <Gold.Chemscore.Internal.Correction.Weighted>
   9.000000E+99

> <Gold.Protein.RotatedTorsions>
[ 6907 6896 6895 6894 ] final   44.66 input  -60.11 | X-H torsion
[ 7974 7965 7964 7962 ] final -145.43 input  175.53 | X-H torsion
[ 8008 7997 7996 7995 ] final  -43.68 input   59.86 | X-H torsion
[ 10167 10162 10161 10158 ] final -139.46 input  -65.29 | X-H torsion
[ 10718 10713 10712 10709 ] final  143.68 input   66.30 | X-H torsion
[ 10763 10752 10751 10750 ] final -159.17 input  -60.55 | X-H torsion
[ 11005 11000 10999 10996 ] final -119.38 input  -57.11 | X-H torsion

> <Gold.Protein.ActiveResidues>
 VAL166  LYS551  ARG553  GLY616  TRP617  ASP618  TYR619  PRO620  LYS621  CYS622 
 ASP623  PHE694  ASN695  SER759  ASP760  ASP761  ALA762  ILE779  LEU786  VAL792 
 PHE793  MET794  SER795  GLU796  ALA797  LYS798  CYS799  TRP800  GLU811  SER814 

> <Gold.Protein.RotatedAtoms>
  152.2352  134.8283  160.0467 H   0  0  0  0  0  0  0  0  0  0  0  0  # atno 6907 bound_to 6896
  151.9018  133.3534  159.3841 H   0  0  0  0  0  0  0  0  0  0  0  0  # atno 6908 bound_to 6896
  150.7037  134.4747  159.5486 H   0  0  0  0  0  0  0  0  0  0  0  0  # atno 6909 bound_to 6896
  144.8228  140.5585  143.5567 H   0  0  0  0  0  0  0  0  0  0  0  0  # atno 7974 bound_to 7965
  154.3997  140.1441  156.3559 H   0  0  0  0  0  0  0  0  0  0  0  0  # atno 8008 bound_to 7997
  155.8226  140.3469  155.5502 H   0  0  0  0  0  0  0  0  0  0  0  0  # atno 8009 bound_to 7997
  155.8272  140.0907  157.1804 H   0  0  0  0  0  0  0  0  0  0  0  0  # atno 8010 bound_to 7997
  139.8377  143.7362  152.2664 H   0  0  0  0  0  0  0  0  0  0  0  0  # atno 10167 bound_to 10162
  157.3661  131.0972  151.0871 H   0  0  0  0  0  0  0  0  0  0  0  0  # atno 10718 bound_to 10713
  154.7497  135.3089  154.8581 H   0  0  0  0  0  0  0  0  0  0  0  0  # atno 10763 bound_to 10752
  153.9371  135.6779  153.4749 H   0  0  0  0  0  0  0  0  0  0  0  0  # atno 10764 bound_to 10752
  153.1093  135.4874  154.8934 H   0  0  0  0  0  0  0  0  0  0  0  0  # atno 10765 bound_to 10752
  141.0219  134.0111  157.3270 H   0  0  0  0  0  0  0  0  0  0  0  0  # atno 11005 bound_to 11000
  145.5066  139.1481  143.3628 LP  0  0  0  0  0  0  0  0  0  0  0  0  # atno 17320 bound_to 7965
  146.2534  140.5207  142.8884 LP  0  0  0  0  0  0  0  0  0  0  0  0  # atno 17321 bound_to 7965
  139.7590  144.7512  151.0392 LP  0  0  0  0  0  0  0  0  0  0  0  0  # atno 17342 bound_to 10162
  140.7801  143.4773  151.0065 LP  0  0  0  0  0  0  0  0  0  0  0  0  # atno 17343 bound_to 10162
  157.1992  130.6387  149.5732 LP  0  0  0  0  0  0  0  0  0  0  0  0  # atno 17370 bound_to 10713
  155.9746  130.4696  150.6402 LP  0  0  0  0  0  0  0  0  0  0  0  0  # atno 17371 bound_to 10713
  139.9151  135.0196  156.7850 LP  0  0  0  0  0  0  0  0  0  0  0  0  # atno 17394 bound_to 11000
  140.6558  133.9690  155.7779 LP  0  0  0  0  0  0  0  0  0  0  0  0  # atno 17395 bound_to 11000

$$$$
