AV-unprocessed.smi:1224|AV-procd|sdf|5131|dock3
  -GOLD-   22720 4193D 1   1.00000     0.00000
 Structure written by MMmdl.
 45 47  0  0  0  0  0  0  0  0  3 V2000
  152.5471  143.8089  160.5437 C   0  0  0  0  0  0  0  0  0  0  0  0
  152.2221  142.8761  159.3894 C   0  0  0  0  0  0  0  0  0  0  0  0
  151.2701  143.2939  158.4319 C   0  0  0  0  0  0  0  0  0  0  0  0
  150.9954  142.4193  157.3873 C   0  0  0  0  0  0  0  0  0  0  0  0
  150.1250  142.5347  156.3011 N   0  3  0  0  0  0  0  0  0  0  0  0
  150.2014  141.4107  155.5357 C   0  0  0  0  0  0  0  0  0  0  0  0
  151.1061  140.5778  156.1194 N   0  0  0  0  0  0  0  0  0  0  0  0
  151.5650  139.2428  155.7121 C   0  0  0  0  0  0  0  0  0  0  0  0
  150.9051  138.7558  154.4067 C   0  0  1  0  0  0  0  0  0  0  0  0
  151.4253  137.4837  154.0702 O   0  0  0  0  0  0  0  0  0  0  0  0
  149.3772  138.6521  154.5389 C   0  0  0  0  0  0  0  0  0  0  0  0
  148.7425  138.3734  153.2326 N   0  3  0  0  0  0  0  0  0  0  0  0
  147.2925  138.6503  153.1714 C   0  0  0  0  0  0  0  0  0  0  0  0
  146.9343  139.9661  153.7824 C   0  0  0  0  0  0  0  0  0  0  0  0
  147.3080  141.2171  153.3609 C   0  0  0  0  0  0  0  0  0  0  0  0
  146.7950  142.2620  154.1841 C   0  0  0  0  0  0  0  0  0  0  0  0
  146.0350  141.7945  155.2230 C   0  0  0  0  0  0  0  0  0  0  0  0
  145.9361  140.0552  155.2119 S   0  0  0  0  0  0  0  0  0  0  0  0
  151.6286  141.1663  157.2760 C   0  0  0  0  0  0  0  0  0  0  0  0
  152.5673  140.7381  158.2113 C   0  0  0  0  0  0  0  0  0  0  0  0
  152.8631  141.6148  159.2796 C   0  0  0  0  0  0  0  0  0  0  0  0
  153.8883  141.1779  160.3122 C   0  0  0  0  0  0  0  0  0  0  0  0
  151.9785  144.7372  160.4789 H   0  0  0  0  0  0  0  0  0  0  0  0
  153.6063  144.0668  160.5419 H   0  0  0  0  0  0  0  0  0  0  0  0
  152.3068  143.3368  161.4967 H   0  0  0  0  0  0  0  0  0  0  0  0
  150.7786  144.2530  158.5084 H   0  0  0  0  0  0  0  0  0  0  0  0
  149.6428  141.2156  154.6316 H   0  0  0  0  0  0  0  0  0  0  0  0
  152.6489  139.2892  155.5967 H   0  0  0  0  0  0  0  0  0  0  0  0
  151.3723  138.5487  156.5310 H   0  0  0  0  0  0  0  0  0  0  0  0
  151.1505  139.4486  153.6007 H   0  0  0  0  0  0  0  0  0  0  0  0
  151.1619  137.2713  153.1873 H   0  0  0  0  0  0  0  0  0  0  0  0
  149.1134  137.8790  155.2618 H   0  0  0  0  0  0  0  0  0  0  0  0
  148.9787  139.5934  154.9195 H   0  0  0  0  0  0  0  0  0  0  0  0
  149.1994  138.9425  152.5345 H   0  0  0  0  0  0  0  0  0  0  0  0
  146.9560  138.6067  152.1347 H   0  0  0  0  0  0  0  0  0  0  0  0
  146.7713  137.8512  153.6990 H   0  0  0  0  0  0  0  0  0  0  0  0
  147.9274  141.4176  152.4990 H   0  0  0  0  0  0  0  0  0  0  0  0
  146.9976  143.3046  153.9873 H   0  0  0  0  0  0  0  0  0  0  0  0
  145.5288  142.3627  155.9897 H   0  0  0  0  0  0  0  0  0  0  0  0
  153.0547  139.7781  158.1285 H   0  0  0  0  0  0  0  0  0  0  0  0
  154.2883  140.1893  160.0846 H   0  0  0  0  0  0  0  0  0  0  0  0
  153.4393  141.1354  161.3047 H   0  0  0  0  0  0  0  0  0  0  0  0
  154.7251  141.8761  160.3397 H   0  0  0  0  0  0  0  0  0  0  0  0
  148.8947  137.4016  153.0016 H   0  0  0  0  0  0  0  0  0  0  0  0
  149.5234  143.3219  156.0943 H   0  0  0  0  0  0  0  0  0  0  0  0
  1  2  1  0  0  0  0
  1 23  1  0  0  0  0
  1 24  1  0  0  0  0
  1 25  1  0  0  0  0
  2 21  1  0  0  0  0
  2  3  2  0  0  0  0
  3  4  1  0  0  0  0
  3 26  1  0  0  0  0
  4 19  2  0  0  0  0
  4  5  1  0  0  0  0
  5  6  2  0  0  0  0
  5 45  1  0  0  0  0
  6  7  1  0  0  0  0
  6 27  1  0  0  0  0
  7  8  1  0  0  0  0
  7 19  1  0  0  0  0
  8  9  1  0  0  0  0
  8 28  1  0  0  0  0
  8 29  1  0  0  0  0
  9 10  1  0  0  0  0
  9 11  1  0  0  0  0
  9 30  1  0  0  0  0
 10 31  1  0  0  0  0
 11 12  1  0  0  0  0
 11 32  1  0  0  0  0
 11 33  1  0  0  0  0
 12 13  1  0  0  0  0
 12 34  1  0  0  0  0
 12 44  1  0  0  0  0
 13 14  1  0  0  0  0
 13 35  1  0  0  0  0
 13 36  1  0  0  0  0
 14 18  1  0  0  0  0
 14 15  2  0  0  0  0
 15 16  1  0  0  0  0
 15 37  1  0  0  0  0
 16 17  2  0  0  0  0
 16 38  1  0  0  0  0
 17 18  1  0  0  0  0
 17 39  1  0  0  0  0
 19 20  1  0  0  0  0
 20 21  2  0  0  0  0
 20 40  1  0  0  0  0
 21 22  1  0  0  0  0
 22 41  1  0  0  0  0
 22 42  1  0  0  0  0
 22 43  1  0  0  0  0
M  CHG  1   5   1
M  CHG  1  12   1
M  END
> <s_m_source_file>
AV-unprocessed.smi

> <i_m_source_file_index>
1224

> <i_lp_mmshare_version>
43012

> <i_f3d_flags>
0

> <s_epik_input>
W0NIM11jKFtjSF0xKWMoW0NIM10pW2NIXWMoYzEyKW4oW2NIXW4yKVtDSDJdW0NASF0oW09IXSlbQ0gyXVtOSF1bQ0gyXWMzW2NIXVtjSF1bY0hdczM=

> <s_epik_cmdline>
J2VwaWtfcHl0aG9uJywgJy1waCcsICc3LjAnLCAnLXRuJywgJzgnLCAnLW1hJywgJzIwMCcsICctbWV0YWxfYmluZGluZycsICctaW1hZScsICc8aW5maWxlLm1hZT4nLCAnLW9tYWUnLCAnPG91dGZpbGUubWFlPic=

> <r_epik_Ionization_Penalty>
1.2222

> <r_epik_Ionization_Penalty_Charging>
1.2222

> <r_epik_Ionization_Penalty_Neutral>
3.40394e-06

> <r_epik_State_Penalty>
1.23781

> <r_epik_Charging_Adjusted_Penalty>
2.46001

> <i_epik_Tot_Q>
2

> <i_epik_Tot_abs_Q>
2

> <r_epik_Metal_State_Penalty>
5.24642

> <b_epik_Metal_Only>
0

> <s_lp_Force_Field>
OPLS_2005

> <r_lp_Energy>
17.2404

> <b_lp_Chiralities_Consistent>
1

> <s_lp_Variant>
AV-unprocessed.smi:1224-4

> <Gold.Version>
5.8.1

> <Gold.Id.Protein>
6NUR|6NUR_protein|mol2

> <Gold.PLP.Fitness>
68.0172

> <Gold.PLP.PLP>
-51.2987

> <Gold.PLP.part.hbond>
-4.0000

> <Gold.PLP.part.metal>
0.0000

> <Gold.PLP.part.buried>
-8.0327

> <Gold.PLP.part.nonpolar>
-40.4833

> <Gold.PLP.part.repulsive>
0.1631

> <Gold.PLP.ligand.clash>
0.0000

> <Gold.PLP.ligand.torsion>
0.1753

> <Gold.PLP.Chemscore.Hbond>
5.6448

> <Gold.PLP.Chemscore.CHOScore>
0.0000

> <Gold.PLP.Chemscore.Metal>
0.0000

> <Gold.Chemscore.Hbonds>
donor molecule, donor type, donor heavy atom, donor atom, acceptor molecule, acceptor atom, score
      L1  H     5    45       P1  8028  2.00
      L1  H    10    31       P1  7949  0.76
      L1  H    12    34       P1  7957  1.00
      L1  H    12    44       P1  7948  1.92

> <Gold.PLP.Chemscore.Internal.Correction>
0.1346

> <Gold.Rescore>
     Score         DG    S(hbond)    S(metal)    S(lipo)     H(rot)  DE(clash)    DE(int)     intcor
     24.08     -24.34       3.20        0.00     124.63       2.50       0.03       0.23       ----

> <Gold.Chemscore.Fitness>
24.0767

> <Gold.Chemscore.DG>
-24.3374

> <Gold.Chemscore.ZeroCoef>
-5.4800

> <Gold.Chemscore.Hbond>
3.1995

> <Gold.Chemscore.Metal>
0.0000

> <Gold.Chemscore.Lipo>
124.6318

> <Gold.Chemscore.Internal_Hbond>
0.0000

> <Gold.Chemscore.DEClash>
0.0298

> <Gold.Chemscore.DEInternal>
0.2309

> <Gold.Chemscore.Rot>
2.5042

> <Gold.Chemscore.Internal.Correction>
   9.000000E+99

> <Gold.Chemscore.Hbonds>
donor molecule, donor type, donor heavy atom, donor atom, acceptor molecule, acceptor atom, score
      L1  H     5    45       P1  8028  0.98
      L1  H    10    31       P1  7949  0.36
      L1  H    12    34       P1  7957  0.97
      L1  H    12    44       P1  7948  0.91

> <Gold.Chemscore.Hbond.Weighted>
-10.6863

> <Gold.Chemscore.Metal.Weighted>
-0.0000

> <Gold.Chemscore.Lipo.Weighted>
-14.5819

> <Gold.Chemscore.Internal_Hbond.Weighted>
0.0000

> <Gold.Chemscore.DEClash.Weighted>
0.0298

> <Gold.Chemscore.DEInternal.Weighted>
0.2309

> <Gold.Chemscore.Rot.Weighted>
6.4108

> <Gold.Chemscore.Internal.Correction.Weighted>
   9.000000E+99

> <Gold.Protein.RotatedTorsions>
[ 6907 6896 6895 6894 ] final  147.96 input  -60.11 | X-H torsion
[ 7974 7965 7964 7962 ] final  162.07 input  175.53 | X-H torsion
[ 8008 7997 7996 7995 ] final   51.87 input   59.86 | X-H torsion
[ 10167 10162 10161 10158 ] final  -75.41 input  -65.29 | X-H torsion
[ 10718 10713 10712 10709 ] final  -77.17 input   66.30 | X-H torsion
[ 10763 10752 10751 10750 ] final -107.05 input  -60.55 | X-H torsion
[ 11005 11000 10999 10996 ] final    9.99 input  -57.11 | X-H torsion

> <Gold.Protein.ActiveResidues>
 VAL166  LYS551  ARG553  GLY616  TRP617  ASP618  TYR619  PRO620  LYS621  CYS622 
 ASP623  PHE694  ASN695  SER759  ASP760  ASP761  ALA762  ILE779  LEU786  VAL792 
 PHE793  MET794  SER795  GLU796  ALA797  LYS798  CYS799  TRP800  GLU811  SER814 

> <Gold.Protein.RotatedAtoms>
  152.1479  133.4503  159.4798 H   0  0  0  0  0  0  0  0  0  0  0  0  # atno 6907 bound_to 6896
  150.6892  134.2226  159.4411 H   0  0  0  0  0  0  0  0  0  0  0  0  # atno 6908 bound_to 6896
  152.0120  134.9870  160.0619 H   0  0  0  0  0  0  0  0  0  0  0  0  # atno 6909 bound_to 6896
  144.7655  139.7987  143.6317 H   0  0  0  0  0  0  0  0  0  0  0  0  # atno 7974 bound_to 7965
  155.4424  140.3455  155.4291 H   0  0  0  0  0  0  0  0  0  0  0  0  # atno 8008 bound_to 7997
  156.1270  140.1503  156.9151 H   0  0  0  0  0  0  0  0  0  0  0  0  # atno 8009 bound_to 7997
  154.4866  140.0853  156.7480 H   0  0  0  0  0  0  0  0  0  0  0  0  # atno 8010 bound_to 7997
  140.4945  143.2373  151.7853 H   0  0  0  0  0  0  0  0  0  0  0  0  # atno 10167 bound_to 10162
  156.0153  130.4484  150.3305 H   0  0  0  0  0  0  0  0  0  0  0  0  # atno 10718 bound_to 10713
  154.8051  135.4689  154.0372 H   0  0  0  0  0  0  0  0  0  0  0  0  # atno 10763 bound_to 10752
  153.1847  135.6846  153.8437 H   0  0  0  0  0  0  0  0  0  0  0  0  # atno 10764 bound_to 10752
  153.7976  135.3234  155.3363 H   0  0  0  0  0  0  0  0  0  0  0  0  # atno 10765 bound_to 10752
  140.5195  134.0573  155.7841 H   0  0  0  0  0  0  0  0  0  0  0  0  # atno 11005 bound_to 11000
  146.1757  139.4927  142.9898 LP  0  0  0  0  0  0  0  0  0  0  0  0  # atno 17320 bound_to 7965
  145.6485  141.0268  143.1773 LP  0  0  0  0  0  0  0  0  0  0  0  0  # atno 17321 bound_to 7965
  139.4858  144.4605  151.9546 LP  0  0  0  0  0  0  0  0  0  0  0  0  # atno 17342 bound_to 10162
  140.3693  144.2876  150.5922 LP  0  0  0  0  0  0  0  0  0  0  0  0  # atno 17343 bound_to 10162
  157.1403  131.0295  151.2931 LP  0  0  0  0  0  0  0  0  0  0  0  0  # atno 17370 bound_to 10713
  157.4477  130.7580  149.7124 LP  0  0  0  0  0  0  0  0  0  0  0  0  # atno 17371 bound_to 10713
  141.1342  133.9250  157.2470 LP  0  0  0  0  0  0  0  0  0  0  0  0  # atno 17394 bound_to 11000
  139.9614  135.0153  156.9270 LP  0  0  0  0  0  0  0  0  0  0  0  0  # atno 17395 bound_to 11000

$$$$
