AV-unprocessed.smi:60|AV-procd|sdf|593|dock1
  -GOLD-   2262016483D 1   1.00000     0.00000
 Structure written by MMmdl.
 36 37  0  0  0  0  0  0  0  0  1 V2000
  152.9386  140.2947  157.9960 O   0  0  0  0  0  0  0  0  0  0  0  0
  151.8083  140.6832  157.7056 C   0  0  0  0  0  0  0  0  0  0  0  0
  150.8691  139.7681  157.2204 N   0  0  0  0  0  0  0  0  0  0  0  0
  149.5557  140.0667  156.8603 C   0  0  0  0  0  0  0  0  0  0  0  0
  148.8132  139.1811  156.4358 O   0  0  0  0  0  0  0  0  0  0  0  0
  149.1474  141.4079  157.0133 N   0  0  0  0  0  0  0  0  0  0  0  0
  147.7947  141.7439  156.6063 C   0  0  0  0  0  0  0  0  0  0  0  0
  147.5110  141.1064  155.4030 O   0  0  0  0  0  0  0  0  0  0  0  0
  147.9168  141.8536  154.2669 C   0  0  0  0  0  0  0  0  0  0  0  0
  147.1637  141.3409  153.0336 C   0  0  0  0  0  0  0  0  0  0  0  0
  147.5043  139.9944  152.7819 O   0  0  0  0  0  0  0  0  0  0  0  0
  150.0486  142.3545  157.4710 C   0  0  0  0  0  0  0  0  0  0  0  0
  151.3273  142.0645  157.8224 C   0  0  0  0  0  0  0  0  0  0  0  0
  152.2857  143.1330  158.3277 C   0  0  0  0  0  0  0  0  0  0  0  0
  152.6318  142.9816  159.7982 C   0  0  0  0  0  0  0  0  0  0  0  0
  152.1909  143.9425  160.7330 C   0  0  0  0  0  0  0  0  0  0  0  0
  152.5062  143.7997  162.0982 C   0  0  0  0  0  0  0  0  0  0  0  0
  153.2656  142.6971  162.5344 C   0  0  0  0  0  0  0  0  0  0  0  0
  153.7095  141.7371  161.6043 C   0  0  0  0  0  0  0  0  0  0  0  0
  153.3930  141.8783  160.2390 C   0  0  0  0  0  0  0  0  0  0  0  0
  151.1683  138.8090  157.1208 H   0  0  0  0  0  0  0  0  0  0  0  0
  147.0999  141.4445  157.3949 H   0  0  0  0  0  0  0  0  0  0  0  0
  147.7201  142.8257  156.4806 H   0  0  0  0  0  0  0  0  0  0  0  0
  147.6601  142.9015  154.4308 H   0  0  0  0  0  0  0  0  0  0  0  0
  148.9969  141.8047  154.1166 H   0  0  0  0  0  0  0  0  0  0  0  0
  146.0851  141.4480  153.1528 H   0  0  0  0  0  0  0  0  0  0  0  0
  147.4520  141.9225  152.1578 H   0  0  0  0  0  0  0  0  0  0  0  0
  148.1404  139.9709  152.0832 H   0  0  0  0  0  0  0  0  0  0  0  0
  149.7136  143.3784  157.5586 H   0  0  0  0  0  0  0  0  0  0  0  0
  153.1929  143.1367  157.7216 H   0  0  0  0  0  0  0  0  0  0  0  0
  151.8347  144.1160  158.1863 H   0  0  0  0  0  0  0  0  0  0  0  0
  151.6073  144.7905  160.4059 H   0  0  0  0  0  0  0  0  0  0  0  0
  152.1648  144.5358  162.8109 H   0  0  0  0  0  0  0  0  0  0  0  0
  153.5074  142.5876  163.5813 H   0  0  0  0  0  0  0  0  0  0  0  0
  154.2915  140.8908  161.9385 H   0  0  0  0  0  0  0  0  0  0  0  0
  153.7339  141.1353  159.5328 H   0  0  0  0  0  0  0  0  0  0  0  0
  1  2  2  0  0  0  0
  2 13  1  0  0  0  0
  2  3  1  0  0  0  0
  3 21  1  0  0  0  0
  3  4  1  0  0  0  0
  4  5  2  0  0  0  0
  4  6  1  0  0  0  0
  6  7  1  0  0  0  0
  6 12  1  0  0  0  0
  7  8  1  0  0  0  0
  7 22  1  0  0  0  0
  7 23  1  0  0  0  0
  8  9  1  0  0  0  0
  9 10  1  0  0  0  0
  9 24  1  0  0  0  0
  9 25  1  0  0  0  0
 10 11  1  0  0  0  0
 10 26  1  0  0  0  0
 10 27  1  0  0  0  0
 11 28  1  0  0  0  0
 12 13  2  0  0  0  0
 12 29  1  0  0  0  0
 13 14  1  0  0  0  0
 14 15  1  0  0  0  0
 14 30  1  0  0  0  0
 14 31  1  0  0  0  0
 15 20  1  0  0  0  0
 15 16  2  0  0  0  0
 16 17  1  0  0  0  0
 16 32  1  0  0  0  0
 17 18  2  0  0  0  0
 17 33  1  0  0  0  0
 18 19  1  0  0  0  0
 18 34  1  0  0  0  0
 19 20  2  0  0  0  0
 19 35  1  0  0  0  0
 20 36  1  0  0  0  0
M  END
> <s_m_source_file>
AV-unprocessed.smi

> <i_m_source_file_index>
60

> <i_lp_mmshare_version>
43012

> <i_f3d_flags>
0

> <s_epik_input>
W09IXVtDSDJdW0NIMl1PW0NIMl1uKGMoPU8pW25IXWMxPU8pW2NIXWMxW0NIMl1jMltjSF1bY0hdW2NIXVtjSF1bY0hdMg==

> <s_epik_cmdline>
J2VwaWtfcHl0aG9uJywgJy1waCcsICc3LjAnLCAnLXRuJywgJzgnLCAnLW1hJywgJzIwMCcsICctbWV0YWxfYmluZGluZycsICctaW1hZScsICc8aW5maWxlLm1hZT4nLCAnLW9tYWUnLCAnPG91dGZpbGUubWFlPic=

> <r_lp_tautomer_probability>
0.999537

> <r_epik_Ionization_Penalty>
0.00298861

> <r_epik_Ionization_Penalty_Charging>
0.00298856

> <r_epik_Ionization_Penalty_Neutral>
5.3532e-08

> <r_epik_State_Penalty>
0.00209779

> <r_epik_Charging_Adjusted_Penalty>
0.00508635

> <i_epik_Tot_Q>
0

> <i_epik_Tot_abs_Q>
0

> <r_epik_Metal_State_Penalty>
1.06718

> <b_epik_Metal_Only>
0

> <s_epik_Chemistry_Notes>
This compound contains an acetal/aminal-like group ( X-CH(R)-Y where X, Y are N, S, or O) that may be acid/base labile, releasing an aldehyde.

> <s_lp_Force_Field>
OPLS_2005

> <r_lp_Energy>
6.34754

> <b_lp_Chiralities_Consistent>
1

> <s_lp_Variant>
AV-unprocessed.smi:60-1

> <Gold.Version>
5.8.1

> <Gold.Id.Protein>
6NUR|6NUR_protein|mol2

> <Gold.PLP.Fitness>
50.5595

> <Gold.PLP.PLP>
-42.6734

> <Gold.PLP.part.hbond>
-2.0000

> <Gold.PLP.part.metal>
0.0000

> <Gold.PLP.part.buried>
-5.9887

> <Gold.PLP.part.nonpolar>
-33.5650

> <Gold.PLP.part.repulsive>
0.0781

> <Gold.PLP.ligand.clash>
0.0000

> <Gold.PLP.ligand.torsion>
0.5880

> <Gold.PLP.Chemscore.Hbond>
2.0000

> <Gold.PLP.Chemscore.CHOScore>
1.0000

> <Gold.PLP.Chemscore.Metal>
0.0000

> <Gold.Chemscore.Hbonds>
donor molecule, donor type, donor heavy atom, donor atom, acceptor molecule, acceptor atom, score
      L1  H    11    28       P1  7957  1.00
      P1  H  7997  8009       L1     1  0.93
      L1  C    12    29       P1  8028  0.90

> <Gold.PLP.Chemscore.Internal.Correction>
0.0620

> <Gold.Rescore>
     Score         DG    S(hbond)    S(metal)    S(lipo)     H(rot)  DE(clash)    DE(int)     intcor
     12.72     -16.19       1.97        0.00     107.10       3.28       0.04       3.43       ----

> <Gold.Chemscore.Fitness>
12.7206

> <Gold.Chemscore.DG>
-16.1863

> <Gold.Chemscore.ZeroCoef>
-5.4800

> <Gold.Chemscore.Hbond>
1.9703

> <Gold.Chemscore.Metal>
0.0000

> <Gold.Chemscore.Lipo>
107.0975

> <Gold.Chemscore.Internal_Hbond>
0.0000

> <Gold.Chemscore.DEClash>
0.0363

> <Gold.Chemscore.DEInternal>
3.4293

> <Gold.Chemscore.Rot>
3.2832

> <Gold.Chemscore.Internal.Correction>
   9.000000E+99

> <Gold.Chemscore.Hbonds>
donor molecule, donor type, donor heavy atom, donor atom, acceptor molecule, acceptor atom, score
      L1  H    11    28       P1  7957  1.00
      P1  H  7997  8009       L1     1  0.89

> <Gold.Chemscore.Hbond.Weighted>
-6.5809

> <Gold.Chemscore.Metal.Weighted>
-0.0000

> <Gold.Chemscore.Lipo.Weighted>
-12.5304

> <Gold.Chemscore.Internal_Hbond.Weighted>
0.0000

> <Gold.Chemscore.DEClash.Weighted>
0.0363

> <Gold.Chemscore.DEInternal.Weighted>
3.4293

> <Gold.Chemscore.Rot.Weighted>
8.4050

> <Gold.Chemscore.Internal.Correction.Weighted>
   9.000000E+99

> <Gold.Protein.RotatedTorsions>
[ 6907 6896 6895 6894 ] final -103.07 input  -60.11 | X-H torsion
[ 7974 7965 7964 7962 ] final   26.69 input  175.53 | X-H torsion
[ 8008 7997 7996 7995 ] final  166.16 input   59.86 | X-H torsion
[ 10167 10162 10161 10158 ] final  -51.73 input  -65.29 | X-H torsion
[ 10718 10713 10712 10709 ] final  -96.27 input   66.30 | X-H torsion
[ 10763 10752 10751 10750 ] final    3.66 input  -60.55 | X-H torsion
[ 11005 11000 10999 10996 ] final  -62.43 input  -57.11 | X-H torsion

> <Gold.Protein.ActiveResidues>
 VAL166  LYS551  ARG553  GLY616  TRP617  ASP618  TYR619  PRO620  LYS621  CYS622 
 ASP623  PHE694  ASN695  SER759  ASP760  ASP761  ALA762  ILE779  LEU786  VAL792 
 PHE793  MET794  SER795  GLU796  ALA797  LYS798  CYS799  TRP800  GLU811  SER814 

> <Gold.Protein.RotatedAtoms>
  150.7224  134.0485  159.3789 H   0  0  0  0  0  0  0  0  0  0  0  0  # atno 6907 bound_to 6896
  151.8461  135.0571  160.0463 H   0  0  0  0  0  0  0  0  0  0  0  0  # atno 6908 bound_to 6896
  152.2826  133.5448  159.5543 H   0  0  0  0  0  0  0  0  0  0  0  0  # atno 6909 bound_to 6896
  146.1824  139.7293  142.8891 H   0  0  0  0  0  0  0  0  0  0  0  0  # atno 7974 bound_to 7965
  156.1742  140.1651  156.8393 H   0  0  0  0  0  0  0  0  0  0  0  0  # atno 8008 bound_to 7997
  154.5289  140.0761  156.8342 H   0  0  0  0  0  0  0  0  0  0  0  0  # atno 8009 bound_to 7997
  155.3449  140.3387  155.4241 H   0  0  0  0  0  0  0  0  0  0  0  0  # atno 8010 bound_to 7997
  140.6573  143.2609  151.4546 H   0  0  0  0  0  0  0  0  0  0  0  0  # atno 10167 bound_to 10162
  156.0059  130.5144  150.6201 H   0  0  0  0  0  0  0  0  0  0  0  0  # atno 10718 bound_to 10713
  153.2806  135.6940  153.7389 H   0  0  0  0  0  0  0  0  0  0  0  0  # atno 10763 bound_to 10752
  153.6378  135.3399  155.3062 H   0  0  0  0  0  0  0  0  0  0  0  0  # atno 10764 bound_to 10752
  154.8494  135.4424  154.1858 H   0  0  0  0  0  0  0  0  0  0  0  0  # atno 10765 bound_to 10752
  141.1359  133.6640  156.5527 H   0  0  0  0  0  0  0  0  0  0  0  0  # atno 11005 bound_to 11000
  145.4038  141.0388  143.3056 LP  0  0  0  0  0  0  0  0  0  0  0  0  # atno 17320 bound_to 7965
  144.8338  139.5584  143.6932 LP  0  0  0  0  0  0  0  0  0  0  0  0  # atno 17321 bound_to 7965
  139.5799  144.1734  152.1954 LP  0  0  0  0  0  0  0  0  0  0  0  0  # atno 17342 bound_to 10162
  140.1056  144.5502  150.6959 LP  0  0  0  0  0  0  0  0  0  0  0  0  # atno 17343 bound_to 10162
  157.4018  131.0811  151.1302 LP  0  0  0  0  0  0  0  0  0  0  0  0  # atno 17370 bound_to 10713
  157.1961  130.6373  149.5721 LP  0  0  0  0  0  0  0  0  0  0  0  0  # atno 17371 bound_to 10713
  140.4051  134.7322  157.4803 LP  0  0  0  0  0  0  0  0  0  0  0  0  # atno 17394 bound_to 11000
  140.0468  134.6188  155.8911 LP  0  0  0  0  0  0  0  0  0  0  0  0  # atno 17395 bound_to 11000

$$$$
