AV-unprocessed.smi:1312|AV-procd|sdf|5449|dock4
  -GOLD-   22720 5 23D 1   1.00000     0.00000
 Structure written by MMmdl.
 50 51  0  0  0  0  0  0  0  0  2 V2000
  143.2539  136.0620  152.6010 C   0  0  0  0  0  0  0  0  0  0  0  0
  144.3697  136.1168  153.6566 C   0  0  0  0  0  0  0  0  0  0  0  0
  145.7762  136.4860  153.1053 C   0  0  1  0  0  0  0  0  0  0  0  0
  146.7382  136.8045  154.2873 C   0  0  0  0  0  0  0  0  0  0  0  0
  147.9570  137.5087  153.9047 N   0  0  0  0  0  0  0  0  0  0  0  0
  148.4690  138.5702  154.5492 C   0  0  0  0  0  0  0  0  0  0  0  0
  147.9421  139.0697  155.5424 O   0  0  0  0  0  0  0  0  0  0  0  0
  149.7493  139.1857  153.9759 C   0  0  0  0  0  0  0  0  0  0  0  0
  150.5986  139.7927  155.0672 C   0  0  0  0  0  0  0  0  0  0  0  0
  151.9513  139.4736  155.3885 C   0  0  0  0  0  0  0  0  0  0  0  0
  152.8540  138.4679  154.7323 C   0  0  0  0  0  0  0  0  0  0  0  0
  152.4114  140.1885  156.4011 N   0  0  0  0  0  0  0  0  0  0  0  0
  151.3831  140.9831  156.7581 N   0  0  0  0  0  0  0  0  0  0  0  0
  151.5522  141.9110  157.8596 C   0  0  0  0  0  0  0  0  0  0  0  0
  150.2681  140.7681  155.9710 C   0  0  0  0  0  0  0  0  0  0  0  0
  148.9983  141.5334  156.1663 C   0  0  0  0  0  0  0  0  0  0  0  0
  146.3365  135.4044  152.2281 N   0  3  0  0  0  0  0  0  0  0  0  0
  146.5478  134.0799  152.8555 C   0  0  0  0  0  0  0  0  0  0  0  0
  146.6921  133.1060  151.6930 C   0  0  0  0  0  0  0  0  0  0  0  0
  145.6857  133.6352  150.6803 C   0  0  0  0  0  0  0  0  0  0  0  0
  145.5979  135.1407  150.9646 C   0  0  0  0  0  0  0  0  0  0  0  0
  142.3462  135.6346  153.0277 H   0  0  0  0  0  0  0  0  0  0  0  0
  143.5421  135.4405  151.7529 H   0  0  0  0  0  0  0  0  0  0  0  0
  142.9899  137.0497  152.2253 H   0  0  0  0  0  0  0  0  0  0  0  0
  144.0854  136.8081  154.4508 H   0  0  0  0  0  0  0  0  0  0  0  0
  144.3871  135.1262  154.1087 H   0  0  0  0  0  0  0  0  0  0  0  0
  145.6507  137.3790  152.4910 H   0  0  0  0  0  0  0  0  0  0  0  0
  146.2468  137.4104  155.0473 H   0  0  0  0  0  0  0  0  0  0  0  0
  147.0265  135.8789  154.7865 H   0  0  0  0  0  0  0  0  0  0  0  0
  148.4614  137.1549  153.1044 H   0  0  0  0  0  0  0  0  0  0  0  0
  150.2862  138.4107  153.4290 H   0  0  0  0  0  0  0  0  0  0  0  0
  149.4771  139.9378  153.2342 H   0  0  0  0  0  0  0  0  0  0  0  0
  152.5741  138.3034  153.6918 H   0  0  0  0  0  0  0  0  0  0  0  0
  152.8043  137.5072  155.2448 H   0  0  0  0  0  0  0  0  0  0  0  0
  153.8932  138.7982  154.7421 H   0  0  0  0  0  0  0  0  0  0  0  0
  151.2075  142.9019  157.5641 H   0  0  0  0  0  0  0  0  0  0  0  0
  152.6015  141.9772  158.1497 H   0  0  0  0  0  0  0  0  0  0  0  0
  150.9689  141.5710  158.7155 H   0  0  0  0  0  0  0  0  0  0  0  0
  148.1791  141.1006  155.5935 H   0  0  0  0  0  0  0  0  0  0  0  0
  149.1198  142.5683  155.8456 H   0  0  0  0  0  0  0  0  0  0  0  0
  148.7025  141.5365  157.2156 H   0  0  0  0  0  0  0  0  0  0  0  0
  147.4258  134.0661  153.5023 H   0  0  0  0  0  0  0  0  0  0  0  0
  145.6733  133.8086  153.4497 H   0  0  0  0  0  0  0  0  0  0  0  0
  147.7009  133.1647  151.2818 H   0  0  0  0  0  0  0  0  0  0  0  0
  146.5030  132.0708  151.9790 H   0  0  0  0  0  0  0  0  0  0  0  0
  145.9792  133.4189  149.6524 H   0  0  0  0  0  0  0  0  0  0  0  0
  144.7130  133.1718  150.8512 H   0  0  0  0  0  0  0  0  0  0  0  0
  144.5496  135.4309  151.0440 H   0  0  0  0  0  0  0  0  0  0  0  0
  146.0454  135.7166  150.1538 H   0  0  0  0  0  0  0  0  0  0  0  0
  147.2587  135.7097  151.9518 H   0  0  0  0  0  0  0  0  0  0  0  0
  1  2  1  0  0  0  0
  1 22  1  0  0  0  0
  1 23  1  0  0  0  0
  1 24  1  0  0  0  0
  2  3  1  0  0  0  0
  2 25  1  0  0  0  0
  2 26  1  0  0  0  0
  3  4  1  0  0  0  0
  3 17  1  0  0  0  0
  3 27  1  0  0  0  0
  4  5  1  0  0  0  0
  4 28  1  0  0  0  0
  4 29  1  0  0  0  0
  5  6  1  0  0  0  0
  5 30  1  0  0  0  0
  6  7  2  0  0  0  0
  6  8  1  0  0  0  0
  8  9  1  0  0  0  0
  8 31  1  0  0  0  0
  8 32  1  0  0  0  0
  9 15  2  0  0  0  0
  9 10  1  0  0  0  0
 10 11  1  0  0  0  0
 10 12  2  0  0  0  0
 11 33  1  0  0  0  0
 11 34  1  0  0  0  0
 11 35  1  0  0  0  0
 12 13  1  0  0  0  0
 13 14  1  0  0  0  0
 13 15  1  0  0  0  0
 14 36  1  0  0  0  0
 14 37  1  0  0  0  0
 14 38  1  0  0  0  0
 15 16  1  0  0  0  0
 16 39  1  0  0  0  0
 16 40  1  0  0  0  0
 16 41  1  0  0  0  0
 17 21  1  0  0  0  0
 17 18  1  0  0  0  0
 17 50  1  0  0  0  0
 18 19  1  0  0  0  0
 18 42  1  0  0  0  0
 18 43  1  0  0  0  0
 19 20  1  0  0  0  0
 19 44  1  0  0  0  0
 19 45  1  0  0  0  0
 20 21  1  0  0  0  0
 20 46  1  0  0  0  0
 20 47  1  0  0  0  0
 21 48  1  0  0  0  0
 21 49  1  0  0  0  0
M  CHG  1  17   1
M  END
> <s_m_source_file>
AV-unprocessed.smi

> <i_m_source_file_index>
1312

> <i_lp_mmshare_version>
43012

> <i_f3d_flags>
0

> <s_epik_input>
W0NIMl0xW0NIMl1bQ0gyXVtDSDJdTjFbQ0BIXShbQ0gyXVtDSDNdKVtDSDJdW05IXUMoPU8pW0NIMl1jMmMoW0NIM10pbm4oW0NIM10pYzJbQ0gzXQ==

> <s_epik_cmdline>
J2VwaWtfcHl0aG9uJywgJy1waCcsICc3LjAnLCAnLXRuJywgJzgnLCAnLW1hJywgJzIwMCcsICctbWV0YWxfYmluZGluZycsICctaW1hZScsICc8aW5maWxlLm1hZT4nLCAnLW9tYWUnLCAnPG91dGZpbGUubWFlPic=

> <r_lp_tautomer_probability>
1

> <r_epik_Ionization_Penalty>
0.00585463

> <r_epik_Ionization_Penalty_Charging>
0.00366302

> <r_epik_Ionization_Penalty_Neutral>
0.00219161

> <r_epik_State_Penalty>
-0

> <r_epik_Charging_Adjusted_Penalty>
0.00366302

> <i_epik_Tot_Q>
1

> <i_epik_Tot_abs_Q>
1

> <r_epik_Metal_State_Penalty>
-0

> <b_epik_Metal_Only>
0

> <s_lp_Force_Field>
OPLS_2005

> <r_lp_Energy>
35.2401

> <b_lp_Chiralities_Consistent>
1

> <s_lp_Variant>
AV-unprocessed.smi:1312-2

> <Gold.Version>
5.8.1

> <Gold.Id.Protein>
6NUR|6NUR_protein|mol2

> <Gold.PLP.Fitness>
45.2262

> <Gold.PLP.PLP>
-34.2380

> <Gold.PLP.part.hbond>
-3.0000

> <Gold.PLP.part.metal>
0.0000

> <Gold.PLP.part.buried>
-1.0338

> <Gold.PLP.part.nonpolar>
-29.8030

> <Gold.PLP.part.repulsive>
0.0446

> <Gold.PLP.ligand.clash>
0.0000

> <Gold.PLP.ligand.torsion>
0.6414

> <Gold.PLP.Chemscore.Hbond>
4.0000

> <Gold.PLP.Chemscore.CHOScore>
0.0000

> <Gold.PLP.Chemscore.Metal>
0.0000

> <Gold.Chemscore.Hbonds>
donor molecule, donor type, donor heavy atom, donor atom, acceptor molecule, acceptor atom, score
      L1  H     5    30       P1  7948  1.00
      L1  H    17    50       P1  7948  2.00
      P1  H  7997  8009       L1    12  1.00

> <Gold.PLP.Chemscore.Internal.Correction>
0.2710

> <Gold.Rescore>
     Score         DG    S(hbond)    S(metal)    S(lipo)     H(rot)  DE(clash)    DE(int)     intcor
     16.88     -20.78       2.91        0.00      85.20       1.72       0.61       3.28       ----

> <Gold.Chemscore.Fitness>
16.8847

> <Gold.Chemscore.DG>
-20.7775

> <Gold.Chemscore.ZeroCoef>
-5.4800

> <Gold.Chemscore.Hbond>
2.9148

> <Gold.Chemscore.Metal>
0.0000

> <Gold.Chemscore.Lipo>
85.2014

> <Gold.Chemscore.Internal_Hbond>
0.0000

> <Gold.Chemscore.DEClash>
0.6099

> <Gold.Chemscore.DEInternal>
3.2829

> <Gold.Chemscore.Rot>
1.7213

> <Gold.Chemscore.Internal.Correction>
   9.000000E+99

> <Gold.Chemscore.Hbonds>
donor molecule, donor type, donor heavy atom, donor atom, acceptor molecule, acceptor atom, score
      L1  H     5    30       P1  7948  0.99
      L1  H    17    50       P1  7948  1.00
      P1  H  7997  8009       L1    12  0.79

> <Gold.Chemscore.Hbond.Weighted>
-9.7355

> <Gold.Chemscore.Metal.Weighted>
-0.0000

> <Gold.Chemscore.Lipo.Weighted>
-9.9686

> <Gold.Chemscore.Internal_Hbond.Weighted>
0.0000

> <Gold.Chemscore.DEClash.Weighted>
0.6099

> <Gold.Chemscore.DEInternal.Weighted>
3.2829

> <Gold.Chemscore.Rot.Weighted>
4.4065

> <Gold.Chemscore.Internal.Correction.Weighted>
   9.000000E+99

> <Gold.Protein.RotatedTorsions>
[ 6907 6896 6895 6894 ] final  -49.57 input  -60.11 | X-H torsion
[ 7974 7965 7964 7962 ] final   -0.87 input  175.53 | X-H torsion
[ 8008 7997 7996 7995 ] final -173.04 input   59.86 | X-H torsion
[ 10167 10162 10161 10158 ] final  -43.93 input  -65.29 | X-H torsion
[ 10718 10713 10712 10709 ] final -134.26 input   66.30 | X-H torsion
[ 10763 10752 10751 10750 ] final  129.38 input  -60.55 | X-H torsion
[ 11005 11000 10999 10996 ] final -171.33 input  -57.11 | X-H torsion

> <Gold.Protein.ActiveResidues>
 VAL166  LYS551  ARG553  GLY616  TRP617  ASP618  TYR619  PRO620  LYS621  CYS622 
 ASP623  PHE694  ASN695  SER759  ASP760  ASP761  ALA762  ILE779  LEU786  VAL792 
 PHE793  MET794  SER795  GLU796  ALA797  LYS798  CYS799  TRP800  GLU811  SER814 

> <Gold.Protein.RotatedAtoms>
  150.8792  134.8180  159.7211 H   0  0  0  0  0  0  0  0  0  0  0  0  # atno 6907 bound_to 6896
  152.4766  134.4824  159.9679 H   0  0  0  0  0  0  0  0  0  0  0  0  # atno 6908 bound_to 6896
  151.4901  133.3488  159.2887 H   0  0  0  0  0  0  0  0  0  0  0  0  # atno 6909 bound_to 6896
  146.2423  140.1334  142.8337 H   0  0  0  0  0  0  0  0  0  0  0  0  # atno 7974 bound_to 7965
  155.9523  140.1128  157.0966 H   0  0  0  0  0  0  0  0  0  0  0  0  # atno 8008 bound_to 7997
  154.4112  140.1198  156.5135 H   0  0  0  0  0  0  0  0  0  0  0  0  # atno 8009 bound_to 7997
  155.6826  140.3473  155.4864 H   0  0  0  0  0  0  0  0  0  0  0  0  # atno 8010 bound_to 7997
  140.6916  143.2957  151.3422 H   0  0  0  0  0  0  0  0  0  0  0  0  # atno 10167 bound_to 10162
  156.2536  130.7168  151.1076 H   0  0  0  0  0  0  0  0  0  0  0  0  # atno 10718 bound_to 10713
  153.7408  135.3224  155.3304 H   0  0  0  0  0  0  0  0  0  0  0  0  # atno 10763 bound_to 10752
  154.8295  135.4544  154.1028 H   0  0  0  0  0  0  0  0  0  0  0  0  # atno 10764 bound_to 10752
  153.2202  135.6947  153.8090 H   0  0  0  0  0  0  0  0  0  0  0  0  # atno 10765 bound_to 10752
  140.5094  134.5816  157.5014 H   0  0  0  0  0  0  0  0  0  0  0  0  # atno 11005 bound_to 11000
  145.0307  140.8868  143.5111 LP  0  0  0  0  0  0  0  0  0  0  0  0  # atno 17320 bound_to 7965
  145.1398  139.2579  143.5496 LP  0  0  0  0  0  0  0  0  0  0  0  0  # atno 17321 bound_to 7965
  139.6325  144.0694  152.2488 LP  0  0  0  0  0  0  0  0  0  0  0  0  # atno 17342 bound_to 10162
  140.0173  144.6179  150.7596 LP  0  0  0  0  0  0  0  0  0  0  0  0  # atno 17343 bound_to 10162
  157.7224  131.0673  150.6079 LP  0  0  0  0  0  0  0  0  0  0  0  0  # atno 17370 bound_to 10713
  156.6161  130.4393  149.5840 LP  0  0  0  0  0  0  0  0  0  0  0  0  # atno 17371 bound_to 10713
  139.9667  134.7360  156.0123 LP  0  0  0  0  0  0  0  0  0  0  0  0  # atno 17394 bound_to 11000
  141.1393  133.6568  156.3685 LP  0  0  0  0  0  0  0  0  0  0  0  0  # atno 17395 bound_to 11000

$$$$
