AV-unprocessed.smi:849|AV-procd|sdf|3946|dock2
  -GOLD-   22720 1413D 1   1.00000     0.00000
 Structure written by MMmdl.
 37 39  0  0  0  0  0  0  0  0  2 V2000
  151.2092  136.2617  153.9700 O   0  0  0  0  0  0  0  0  0  0  0  0
  151.5844  137.4659  154.6002 C   0  0  0  0  0  0  0  0  0  0  0  0
  150.5540  138.5347  154.4391 C   0  0  0  0  0  0  0  0  0  0  0  0
  149.4785  138.4751  153.6040 N   0  3  0  0  0  0  0  0  0  0  0  0
  148.7229  139.6421  153.7205 C   0  0  0  0  0  0  0  0  0  0  0  0
  147.5524  140.0382  153.0808 C   0  0  0  0  0  0  0  0  0  0  0  0
  147.0359  141.3028  153.4323 C   0  0  0  0  0  0  0  0  0  0  0  0
  147.6787  142.1194  154.3852 C   0  0  0  0  0  0  0  0  0  0  0  0
  148.8645  141.7063  155.0275 C   0  0  0  0  0  0  0  0  0  0  0  0
  149.3681  140.4545  154.6748 C   0  0  0  0  0  0  0  0  0  0  0  0
  150.4898  139.7310  155.0948 N   0  0  0  0  0  0  0  0  0  0  0  0
  151.3734  140.3173  156.1161 C   0  0  0  0  0  0  0  0  0  0  0  0
  150.6040  140.8783  157.3293 C   0  0  1  0  0  0  0  0  0  0  0  0
  149.7911  139.8629  157.8873 O   0  0  0  0  0  0  0  0  0  0  0  0
  151.5598  141.4894  158.3508 C   0  0  0  0  0  0  0  0  0  0  0  0
  151.6170  142.8947  158.4978 C   0  0  0  0  0  0  0  0  0  0  0  0
  152.4853  143.4845  159.4357 C   0  0  0  0  0  0  0  0  0  0  0  0
  153.3041  142.6738  160.2419 C   0  0  0  0  0  0  0  0  0  0  0  0
  153.2478  141.2740  160.1125 C   0  0  0  0  0  0  0  0  0  0  0  0
  152.3792  140.6774  159.1765 C   0  0  0  0  0  0  0  0  0  0  0  0
  152.3398  138.9511  159.0802 Cl  0  0  0  0  0  0  0  0  0  0  0  0
  151.0982  136.4303  153.0458 H   0  0  0  0  0  0  0  0  0  0  0  0
  151.7684  137.2778  155.6577 H   0  0  0  0  0  0  0  0  0  0  0  0
  152.5266  137.8082  154.1712 H   0  0  0  0  0  0  0  0  0  0  0  0
  147.0579  139.4142  152.3507 H   0  0  0  0  0  0  0  0  0  0  0  0
  146.1288  141.6533  152.9615 H   0  0  0  0  0  0  0  0  0  0  0  0
  147.2542  143.0824  154.6293 H   0  0  0  0  0  0  0  0  0  0  0  0
  149.3483  142.3395  155.7559 H   0  0  0  0  0  0  0  0  0  0  0  0
  152.0765  139.5486  156.4364 H   0  0  0  0  0  0  0  0  0  0  0  0
  151.9741  141.0957  155.6439 H   0  0  0  0  0  0  0  0  0  0  0  0
  149.9066  141.6415  156.9874 H   0  0  0  0  0  0  0  0  0  0  0  0
  149.1927  139.5598  157.2211 H   0  0  0  0  0  0  0  0  0  0  0  0
  150.9900  143.5323  157.8918 H   0  0  0  0  0  0  0  0  0  0  0  0
  152.5214  144.5592  159.5370 H   0  0  0  0  0  0  0  0  0  0  0  0
  153.9709  143.1244  160.9622 H   0  0  0  0  0  0  0  0  0  0  0  0
  153.8736  140.6546  160.7384 H   0  0  0  0  0  0  0  0  0  0  0  0
  149.2768  137.6870  153.0023 H   0  0  0  0  0  0  0  0  0  0  0  0
  1  2  1  0  0  0  0
  1 22  1  0  0  0  0
  2  3  1  0  0  0  0
  2 23  1  0  0  0  0
  2 24  1  0  0  0  0
  3 11  1  0  0  0  0
  3  4  2  0  0  0  0
  4  5  1  0  0  0  0
  4 37  1  0  0  0  0
  5 10  2  0  0  0  0
  5  6  1  0  0  0  0
  6  7  2  0  0  0  0
  6 25  1  0  0  0  0
  7  8  1  0  0  0  0
  7 26  1  0  0  0  0
  8  9  2  0  0  0  0
  8 27  1  0  0  0  0
  9 10  1  0  0  0  0
  9 28  1  0  0  0  0
 10 11  1  0  0  0  0
 11 12  1  0  0  0  0
 12 13  1  0  0  0  0
 12 29  1  0  0  0  0
 12 30  1  0  0  0  0
 13 14  1  0  0  0  0
 13 15  1  0  0  0  0
 13 31  1  0  0  0  0
 14 32  1  0  0  0  0
 15 20  1  0  0  0  0
 15 16  2  0  0  0  0
 16 17  1  0  0  0  0
 16 33  1  0  0  0  0
 17 18  2  0  0  0  0
 17 34  1  0  0  0  0
 18 19  1  0  0  0  0
 18 35  1  0  0  0  0
 19 20  2  0  0  0  0
 19 36  1  0  0  0  0
 20 21  1  0  0  0  0
M  CHG  1   4   1
M  END
> <s_m_source_file>
AV-unprocessed.smi

> <i_m_source_file_index>
849

> <i_lp_mmshare_version>
43012

> <i_f3d_flags>
0

> <s_epik_input>
W2NIXTFbY0hdW2NIXVtjSF1jKGMxMiluKGMobjIpW0NIMl1bT0hdKVtDSDJdW0NASF0oW09IXSljM1tjSF1bY0hdW2NIXVtjSF1jM0Ns

> <s_epik_cmdline>
J2VwaWtfcHl0aG9uJywgJy1waCcsICc3LjAnLCAnLXRuJywgJzgnLCAnLW1hJywgJzIwMCcsICctbWV0YWxfYmluZGluZycsICctaW1hZScsICc8aW5maWxlLm1hZT4nLCAnLW9tYWUnLCAnPG91dGZpbGUubWFlPic=

> <r_epik_Ionization_Penalty>
1.35643

> <r_epik_Ionization_Penalty_Charging>
1.35557

> <r_epik_Ionization_Penalty_Neutral>
0.000861512

> <r_epik_State_Penalty>
1.43401

> <r_epik_Charging_Adjusted_Penalty>
2.78958

> <i_epik_Tot_Q>
1

> <i_epik_Tot_abs_Q>
1

> <r_epik_Metal_State_Penalty>
5.47166

> <b_epik_Metal_Only>
0

> <s_lp_Force_Field>
OPLS_2005

> <r_lp_Energy>
14.7031

> <b_lp_Chiralities_Consistent>
1

> <s_lp_Variant>
AV-unprocessed.smi:849-4

> <Gold.Version>
5.8.1

> <Gold.Id.Protein>
6NUR|6NUR_protein|mol2

> <Gold.PLP.Fitness>
61.3697

> <Gold.PLP.PLP>
-50.2954

> <Gold.PLP.part.hbond>
-4.3270

> <Gold.PLP.part.metal>
0.0000

> <Gold.PLP.part.buried>
2.0928

> <Gold.PLP.part.nonpolar>
-48.0896

> <Gold.PLP.part.repulsive>
0.0699

> <Gold.PLP.ligand.clash>
0.0000

> <Gold.PLP.ligand.torsion>
0.4873

> <Gold.PLP.Chemscore.Hbond>
4.0000

> <Gold.PLP.Chemscore.CHOScore>
0.0000

> <Gold.PLP.Chemscore.Metal>
0.0000

> <Gold.Chemscore.Hbonds>
donor molecule, donor type, donor heavy atom, donor atom, acceptor molecule, acceptor atom, score
      L1  H     1    22       P1  7949  1.00
      L1  H     4    37       P1  7948  2.00
      P1  H 10752 10765       L1     1  0.45

> <Gold.PLP.Chemscore.Internal.Correction>
0.0490

> <Gold.Rescore>
     Score         DG    S(hbond)    S(metal)    S(lipo)     H(rot)  DE(clash)    DE(int)     intcor
     20.13     -21.87       2.66        0.00     123.10       2.70       0.12       1.62       ----

> <Gold.Chemscore.Fitness>
20.1307

> <Gold.Chemscore.DG>
-21.8682

> <Gold.Chemscore.ZeroCoef>
-5.4800

> <Gold.Chemscore.Hbond>
2.6610

> <Gold.Chemscore.Metal>
0.0000

> <Gold.Chemscore.Lipo>
123.1020

> <Gold.Chemscore.Internal_Hbond>
0.0000

> <Gold.Chemscore.DEClash>
0.1176

> <Gold.Chemscore.DEInternal>
1.6199

> <Gold.Chemscore.Rot>
2.6963

> <Gold.Chemscore.Internal.Correction>
   9.000000E+99

> <Gold.Chemscore.Hbonds>
donor molecule, donor type, donor heavy atom, donor atom, acceptor molecule, acceptor atom, score
      L1  H     1    22       P1  7949  0.33
      L1  H     4    37       P1  7948  0.97
      P1  H 10752 10765       L1     1  0.01

> <Gold.Chemscore.Hbond.Weighted>
-8.8876

> <Gold.Chemscore.Metal.Weighted>
-0.0000

> <Gold.Chemscore.Lipo.Weighted>
-14.4029

> <Gold.Chemscore.Internal_Hbond.Weighted>
0.0000

> <Gold.Chemscore.DEClash.Weighted>
0.1176

> <Gold.Chemscore.DEInternal.Weighted>
1.6199

> <Gold.Chemscore.Rot.Weighted>
6.9024

> <Gold.Chemscore.Internal.Correction.Weighted>
   9.000000E+99

> <Gold.Protein.RotatedTorsions>
[ 6907 6896 6895 6894 ] final   69.36 input  -60.11 | X-H torsion
[ 7974 7965 7964 7962 ] final   34.93 input  175.53 | X-H torsion
[ 8008 7997 7996 7995 ] final  -89.20 input   59.86 | X-H torsion
[ 10167 10162 10161 10158 ] final  141.81 input  -65.29 | X-H torsion
[ 10718 10713 10712 10709 ] final -114.41 input   66.30 | X-H torsion
[ 10763 10752 10751 10750 ] final  146.68 input  -60.55 | X-H torsion
[ 11005 11000 10999 10996 ] final  -93.18 input  -57.11 | X-H torsion

> <Gold.Protein.ActiveResidues>
 VAL166  LYS551  ARG553  GLY616  TRP617  ASP618  TYR619  PRO620  LYS621  CYS622 
 ASP623  PHE694  ASN695  SER759  ASP760  ASP761  ALA762  ILE779  LEU786  VAL792 
 PHE793  MET794  SER795  GLU796  ALA797  LYS798  CYS799  TRP800  GLU811  SER814 

> <Gold.Protein.RotatedAtoms>
  152.4681  134.5027  159.9729 H   0  0  0  0  0  0  0  0  0  0  0  0  # atno 6907 bound_to 6896
  151.5059  133.3489  159.2884 H   0  0  0  0  0  0  0  0  0  0  0  0  # atno 6908 bound_to 6896
  150.8676  134.8071  159.7192 H   0  0  0  0  0  0  0  0  0  0  0  0  # atno 6909 bound_to 6896
  146.1318  139.6206  142.9221 H   0  0  0  0  0  0  0  0  0  0  0  0  # atno 7974 bound_to 7965
  154.6838  140.0544  157.0293 H   0  0  0  0  0  0  0  0  0  0  0  0  # atno 8008 bound_to 7997
  155.0914  140.3219  155.4554 H   0  0  0  0  0  0  0  0  0  0  0  0  # atno 8009 bound_to 7997
  156.2704  140.2047  156.6041 H   0  0  0  0  0  0  0  0  0  0  0  0  # atno 8010 bound_to 7997
  139.5010  144.6147  151.6191 H   0  0  0  0  0  0  0  0  0  0  0  0  # atno 10167 bound_to 10162
  156.0828  130.6025  150.8771 H   0  0  0  0  0  0  0  0  0  0  0  0  # atno 10718 bound_to 10713
  154.0258  135.2902  155.3375 H   0  0  0  0  0  0  0  0  0  0  0  0  # atno 10763 bound_to 10752
  154.7018  135.5185  153.8541 H   0  0  0  0  0  0  0  0  0  0  0  0  # atno 10764 bound_to 10752
  153.0661  135.6631  154.0475 H   0  0  0  0  0  0  0  0  0  0  0  0  # atno 10765 bound_to 10752
  141.1504  133.7870  157.0123 H   0  0  0  0  0  0  0  0  0  0  0  0  # atno 11005 bound_to 11000
  145.5243  141.0430  143.2418 LP  0  0  0  0  0  0  0  0  0  0  0  0  # atno 17320 bound_to 7965
  144.7699  139.6760  143.7199 LP  0  0  0  0  0  0  0  0  0  0  0  0  # atno 17321 bound_to 7965
  140.5832  143.9910  150.6280 LP  0  0  0  0  0  0  0  0  0  0  0  0  # atno 17342 bound_to 10162
  140.3066  143.3225  152.0920 LP  0  0  0  0  0  0  0  0  0  0  0  0  # atno 17343 bound_to 10162
  157.5951  131.0943  150.9054 LP  0  0  0  0  0  0  0  0  0  0  0  0  # atno 17370 bound_to 10713
  156.9222  130.5319  149.5279 LP  0  0  0  0  0  0  0  0  0  0  0  0  # atno 17371 bound_to 10713
  140.0870  134.9615  157.1715 LP  0  0  0  0  0  0  0  0  0  0  0  0  # atno 17394 bound_to 11000
  140.3498  134.2611  155.7200 LP  0  0  0  0  0  0  0  0  0  0  0  0  # atno 17395 bound_to 11000

$$$$
