AV-unprocessed.smi:3265|AV-procd|sdf|12499|dock5
  -GOLD-   2272018403D 1   1.00000     0.00000
 Structure written by MMmdl.
 41 42  0  0  0  0  0  0  0  0  2 V2000
  154.1232  141.2744  160.7618 C   0  0  0  0  0  0  0  0  0  0  0  0
  152.8471  142.0882  160.5028 C   0  0  1  0  0  0  0  0  0  0  0  0
  152.8087  143.3625  161.3628 C   0  0  0  0  0  0  0  0  0  0  0  0
  151.5375  144.1668  161.0641 C   0  0  0  0  0  0  0  0  0  0  0  0
  151.4213  144.4731  159.5626 C   0  0  0  0  0  0  0  0  0  0  0  0
  151.4571  143.2256  158.7558 N   0  3  1  0  0  0  0  0  0  0  0  0
  151.2129  143.4853  157.3144 C   0  0  0  0  0  0  0  0  0  0  0  0
  150.9823  142.1892  156.5136 C   0  0  0  0  0  0  0  0  0  0  0  0
  149.7248  142.2311  155.7777 N   0  0  0  0  0  0  0  0  0  0  0  0
  149.3424  141.3366  154.8528 C   0  0  0  0  0  0  0  0  0  0  0  0
  150.0186  140.3575  154.5386 O   0  0  0  0  0  0  0  0  0  0  0  0
  147.9887  141.5799  154.1836 C   0  0  0  0  0  0  0  0  0  0  0  0
  147.4554  140.3543  153.6161 N   0  0  0  0  0  0  0  0  0  0  0  0
  147.1923  140.0663  152.2928 C   0  0  0  0  0  0  0  0  0  0  0  0
  146.6938  138.7960  152.2447 C   0  0  0  0  0  0  0  0  0  0  0  0
  146.6902  138.3822  153.6062 C   0  0  0  0  0  0  0  0  0  0  0  0
  147.1453  139.3170  154.4249 N   0  0  0  0  0  0  0  0  0  0  0  0
  152.6991  142.4462  159.0101 C   0  0  0  0  0  0  0  0  0  0  0  0
  155.0168  141.8397  160.4947 H   0  0  0  0  0  0  0  0  0  0  0  0
  154.1269  140.3523  160.1796 H   0  0  0  0  0  0  0  0  0  0  0  0
  154.2061  140.9990  161.8136 H   0  0  0  0  0  0  0  0  0  0  0  0
  151.9977  141.4642  160.7853 H   0  0  0  0  0  0  0  0  0  0  0  0
  152.8451  143.1067  162.4222 H   0  0  0  0  0  0  0  0  0  0  0  0
  153.6873  143.9768  161.1597 H   0  0  0  0  0  0  0  0  0  0  0  0
  150.6617  143.6062  161.3939 H   0  0  0  0  0  0  0  0  0  0  0  0
  151.5426  145.0960  161.6346 H   0  0  0  0  0  0  0  0  0  0  0  0
  150.4870  145.0056  159.3803 H   0  0  0  0  0  0  0  0  0  0  0  0
  152.2305  145.1345  159.2485 H   0  0  0  0  0  0  0  0  0  0  0  0
  150.3250  144.1109  157.2144 H   0  0  0  0  0  0  0  0  0  0  0  0
  152.0406  144.0597  156.8954 H   0  0  0  0  0  0  0  0  0  0  0  0
  151.7759  142.0352  155.7836 H   0  0  0  0  0  0  0  0  0  0  0  0
  150.9970  141.3220  157.1761 H   0  0  0  0  0  0  0  0  0  0  0  0
  149.1062  143.0070  155.9683 H   0  0  0  0  0  0  0  0  0  0  0  0
  147.2757  141.9671  154.9127 H   0  0  0  0  0  0  0  0  0  0  0  0
  148.0882  142.3334  153.4006 H   0  0  0  0  0  0  0  0  0  0  0  0
  147.3782  140.7821  151.5055 H   0  0  0  0  0  0  0  0  0  0  0  0
  146.3795  138.2458  151.3703 H   0  0  0  0  0  0  0  0  0  0  0  0
  146.3719  137.4371  154.0207 H   0  0  0  0  0  0  0  0  0  0  0  0
  153.5632  143.0212  158.6726 H   0  0  0  0  0  0  0  0  0  0  0  0
  152.6883  141.5256  158.4281 H   0  0  0  0  0  0  0  0  0  0  0  0
  150.6833  142.6623  159.0788 H   0  0  0  0  0  0  0  0  0  0  0  0
  1  2  1  0  0  0  0
  1 19  1  0  0  0  0
  1 20  1  0  0  0  0
  1 21  1  0  0  0  0
  2 18  1  0  0  0  0
  2  3  1  0  0  0  0
  2 22  1  0  0  0  0
  3  4  1  0  0  0  0
  3 23  1  0  0  0  0
  3 24  1  0  0  0  0
  4  5  1  0  0  0  0
  4 25  1  0  0  0  0
  4 26  1  0  0  0  0
  5  6  1  0  0  0  0
  5 27  1  0  0  0  0
  5 28  1  0  0  0  0
  6  7  1  0  0  0  0
  6 18  1  0  0  0  0
  6 41  1  0  0  0  0
  7  8  1  0  0  0  0
  7 29  1  0  0  0  0
  7 30  1  0  0  0  0
  8  9  1  0  0  0  0
  8 31  1  0  0  0  0
  8 32  1  0  0  0  0
  9 10  1  0  0  0  0
  9 33  1  0  0  0  0
 10 11  2  0  0  0  0
 10 12  1  0  0  0  0
 12 13  1  0  0  0  0
 12 34  1  0  0  0  0
 12 35  1  0  0  0  0
 13 17  1  0  0  0  0
 13 14  1  0  0  0  0
 14 15  2  0  0  0  0
 14 36  1  0  0  0  0
 15 16  1  0  0  0  0
 15 37  1  0  0  0  0
 16 17  2  0  0  0  0
 16 38  1  0  0  0  0
 18 39  1  0  0  0  0
 18 40  1  0  0  0  0
M  CHG  1   6   1
M  END
> <s_m_source_file>
AV-unprocessed.smi

> <i_m_source_file_index>
3265

> <i_lp_mmshare_version>
43012

> <i_f3d_flags>
0

> <s_epik_input>
W0NIM11bQ0BASF0xW0NIMl1bQ0gyXVtDSDJdTihbQ0gyXTEpW0NIMl1bQ0gyXVtOSF1DKD1PKVtDSDJdbjJbY0hdW2NIXVtjSF1uMg==

> <s_epik_cmdline>
J2VwaWtfcHl0aG9uJywgJy1waCcsICc3LjAnLCAnLXRuJywgJzgnLCAnLW1hJywgJzIwMCcsICctbWV0YWxfYmluZGluZycsICctaW1hZScsICc8aW5maWxlLm1hZT4nLCAnLW9tYWUnLCAnPG91dGZpbGUubWFlPic=

> <r_lp_tautomer_probability>
1

> <r_epik_Ionization_Penalty>
0.00231455

> <r_epik_Ionization_Penalty_Charging>
0.00230623

> <r_epik_Ionization_Penalty_Neutral>
8.31727e-06

> <r_epik_State_Penalty>
0.00159065

> <r_epik_Charging_Adjusted_Penalty>
0.00389688

> <i_epik_Tot_Q>
1

> <i_epik_Tot_abs_Q>
1

> <r_epik_Metal_State_Penalty>
-0

> <b_epik_Metal_Only>
0

> <s_lp_Force_Field>
OPLS_2005

> <r_lp_Energy>
15.6905

> <b_lp_Chiralities_Consistent>
1

> <s_lp_Variant>
AV-unprocessed.smi:3265-4

> <Gold.Version>
5.8.1

> <Gold.Id.Protein>
6NUR|6NUR_protein|mol2

> <Gold.PLP.Fitness>
48.5491

> <Gold.PLP.PLP>
-43.3150

> <Gold.PLP.part.hbond>
-2.0000

> <Gold.PLP.part.metal>
0.0000

> <Gold.PLP.part.buried>
-1.5079

> <Gold.PLP.part.nonpolar>
-40.1954

> <Gold.PLP.part.repulsive>
0.4223

> <Gold.PLP.ligand.clash>
0.0000

> <Gold.PLP.ligand.torsion>
0.7631

> <Gold.PLP.Chemscore.Hbond>
1.9440

> <Gold.PLP.Chemscore.CHOScore>
0.3018

> <Gold.PLP.Chemscore.Metal>
0.0000

> <Gold.Chemscore.Hbonds>
donor molecule, donor type, donor heavy atom, donor atom, acceptor molecule, acceptor atom, score
      L1  H     9    33       P1  8028  0.86
      P1  H  7989  7998       L1    11  0.94
      L1  C    14    36       P1  7957  0.29

> <Gold.PLP.Chemscore.Internal.Correction>
0.0229

> <Gold.Rescore>
     Score         DG    S(hbond)    S(metal)    S(lipo)     H(rot)  DE(clash)    DE(int)     intcor
     17.76     -20.13       1.63        0.00     119.03       1.84       1.58       0.79       ----

> <Gold.Chemscore.Fitness>
17.7596

> <Gold.Chemscore.DG>
-20.1329

> <Gold.Chemscore.ZeroCoef>
-5.4800

> <Gold.Chemscore.Hbond>
1.6267

> <Gold.Chemscore.Metal>
0.0000

> <Gold.Chemscore.Lipo>
119.0313

> <Gold.Chemscore.Internal_Hbond>
0.0000

> <Gold.Chemscore.DEClash>
1.5831

> <Gold.Chemscore.DEInternal>
0.7902

> <Gold.Chemscore.Rot>
1.8386

> <Gold.Chemscore.Internal.Correction>
   9.000000E+99

> <Gold.Chemscore.Hbonds>
donor molecule, donor type, donor heavy atom, donor atom, acceptor molecule, acceptor atom, score
      L1  H     9    33       P1  8028  0.85
      P1  H  7989  7998       L1    11  0.70

> <Gold.Chemscore.Hbond.Weighted>
-5.4331

> <Gold.Chemscore.Metal.Weighted>
-0.0000

> <Gold.Chemscore.Lipo.Weighted>
-13.9267

> <Gold.Chemscore.Internal_Hbond.Weighted>
0.0000

> <Gold.Chemscore.DEClash.Weighted>
1.5831

> <Gold.Chemscore.DEInternal.Weighted>
0.7902

> <Gold.Chemscore.Rot.Weighted>
4.7069

> <Gold.Chemscore.Internal.Correction.Weighted>
   9.000000E+99

> <Gold.Protein.RotatedTorsions>
[ 6907 6896 6895 6894 ] final  151.24 input  -60.11 | X-H torsion
[ 7974 7965 7964 7962 ] final   58.20 input  175.53 | X-H torsion
[ 8008 7997 7996 7995 ] final    8.39 input   59.86 | X-H torsion
[ 10167 10162 10161 10158 ] final    2.28 input  -65.29 | X-H torsion
[ 10718 10713 10712 10709 ] final   13.09 input   66.30 | X-H torsion
[ 10763 10752 10751 10750 ] final  125.00 input  -60.55 | X-H torsion
[ 11005 11000 10999 10996 ] final -106.09 input  -57.11 | X-H torsion

> <Gold.Protein.ActiveResidues>
 VAL166  LYS551  ARG553  GLY616  TRP617  ASP618  TYR619  PRO620  LYS621  CYS622 
 ASP623  PHE694  ASN695  SER759  ASP760  ASP761  ALA762  ILE779  LEU786  VAL792 
 PHE793  MET794  SER795  GLU796  ALA797  LYS798  CYS799  TRP800  GLU811  SER814 

> <Gold.Protein.RotatedAtoms>
  152.1033  133.4261  159.4597 H   0  0  0  0  0  0  0  0  0  0  0  0  # atno 6907 bound_to 6896
  150.6865  134.2734  159.4607 H   0  0  0  0  0  0  0  0  0  0  0  0  # atno 6908 bound_to 6896
  152.0596  134.9602  160.0625 H   0  0  0  0  0  0  0  0  0  0  0  0  # atno 6909 bound_to 6896
  145.9207  139.3727  143.0480 H   0  0  0  0  0  0  0  0  0  0  0  0  # atno 7974 bound_to 7965
  154.7662  140.2793  155.6174 H   0  0  0  0  0  0  0  0  0  0  0  0  # atno 8008 bound_to 7997
  156.2925  140.2650  156.2380 H   0  0  0  0  0  0  0  0  0  0  0  0  # atno 8009 bound_to 7997
  154.9956  140.0373  157.2328 H   0  0  0  0  0  0  0  0  0  0  0  0  # atno 8010 bound_to 7997
  140.6642  143.7223  150.7796 H   0  0  0  0  0  0  0  0  0  0  0  0  # atno 10167 bound_to 10162
  157.0197  130.6150  149.5719 H   0  0  0  0  0  0  0  0  0  0  0  0  # atno 10718 bound_to 10713
  153.6704  135.3331  155.3151 H   0  0  0  0  0  0  0  0  0  0  0  0  # atno 10763 bound_to 10752
  154.8492  135.4385  154.1711 H   0  0  0  0  0  0  0  0  0  0  0  0  # atno 10764 bound_to 10752
  153.2701  135.6999  153.7565 H   0  0  0  0  0  0  0  0  0  0  0  0  # atno 10765 bound_to 10752
  141.1022  133.8864  157.1814 H   0  0  0  0  0  0  0  0  0  0  0  0  # atno 11005 bound_to 11000
  145.8553  140.9506  143.0728 LP  0  0  0  0  0  0  0  0  0  0  0  0  # atno 17320 bound_to 7965
  144.6752  140.0460  143.7480 LP  0  0  0  0  0  0  0  0  0  0  0  0  # atno 17321 bound_to 7965
  140.0897  143.4889  152.2485 LP  0  0  0  0  0  0  0  0  0  0  0  0  # atno 17342 bound_to 10162
  139.5886  144.7541  151.3458 LP  0  0  0  0  0  0  0  0  0  0  0  0  # atno 17343 bound_to 10162
  156.0107  130.5198  150.7977 LP  0  0  0  0  0  0  0  0  0  0  0  0  # atno 17370 bound_to 10713
  157.5259  131.0934  151.0018 LP  0  0  0  0  0  0  0  0  0  0  0  0  # atno 17371 bound_to 10713
  139.9877  135.0076  156.9902 LP  0  0  0  0  0  0  0  0  0  0  0  0  # atno 17394 bound_to 11000
  140.4994  134.1112  155.7247 LP  0  0  0  0  0  0  0  0  0  0  0  0  # atno 17395 bound_to 11000

$$$$
