AV-unprocessed.smi:1211|AV-procd|sdf|5079|dock8
  -GOLD-   22720 4133D 1   1.00000     0.00000
 Structure written by MMmdl.
 47 49  0  0  0  0  0  0  0  0  1 V2000
  147.6432  133.0861  152.0337 C   0  0  0  0  0  0  0  0  0  0  0  0
  146.2243  133.2679  151.5197 C   0  0  0  0  0  0  0  0  0  0  0  0
  145.5435  132.1627  150.9662 C   0  0  0  0  0  0  0  0  0  0  0  0
  144.2324  132.3329  150.4900 C   0  0  0  0  0  0  0  0  0  0  0  0
  143.6536  133.6096  150.5891 C   0  0  0  0  0  0  0  0  0  0  0  0
  144.2966  134.6711  151.1172 N   0  0  0  0  0  0  0  0  0  0  0  0
  145.5633  134.5242  151.5803 C   0  0  0  0  0  0  0  0  0  0  0  0
  146.3017  135.5988  152.1510 N   0  0  0  0  0  0  0  0  0  0  0  0
  145.9096  136.4790  153.0889 C   0  0  0  0  0  0  0  0  0  0  0  0
  144.8021  136.5021  153.6268 O   0  0  0  0  0  0  0  0  0  0  0  0
  146.8908  137.3464  153.3754 N   0  0  0  0  0  0  0  0  0  0  0  0
  146.8127  138.4360  154.3480 C   0  0  0  0  0  0  0  0  0  0  0  0
  148.1660  139.2058  154.5094 C   0  0  2  0  0  0  0  0  0  0  0  0
  149.3185  138.2563  154.4214 N   0  0  0  0  0  0  0  0  0  0  0  0
  149.2274  137.0497  155.2566 C   0  0  0  0  0  0  0  0  0  0  0  0
  150.4153  136.0958  155.0421 C   0  0  0  0  0  0  0  0  0  0  0  0
  151.6353  136.7808  155.2895 O   0  0  0  0  0  0  0  0  0  0  0  0
  151.7964  137.9102  154.4424 C   0  0  0  0  0  0  0  0  0  0  0  0
  150.6261  138.8852  154.6532 C   0  0  0  0  0  0  0  0  0  0  0  0
  148.1158  139.9939  155.8508 C   0  0  0  0  0  0  0  0  0  0  0  0
  147.1175  141.1493  155.7212 C   0  0  0  0  0  0  0  0  0  0  0  0
  147.1717  141.7153  154.0045 S   0  0  0  0  0  0  0  0  0  0  0  0
  148.2082  140.3340  153.4470 C   0  0  0  0  0  0  0  0  0  0  0  0
  147.9876  132.0610  151.8947 H   0  0  0  0  0  0  0  0  0  0  0  0
  147.6959  133.3168  153.0983 H   0  0  0  0  0  0  0  0  0  0  0  0
  148.3294  133.7451  151.5012 H   0  0  0  0  0  0  0  0  0  0  0  0
  146.0177  131.1942  150.9055 H   0  0  0  0  0  0  0  0  0  0  0  0
  143.6852  131.5071  150.0601 H   0  0  0  0  0  0  0  0  0  0  0  0
  142.6483  133.7843  150.2356 H   0  0  0  0  0  0  0  0  0  0  0  0
  147.2399  135.7124  151.7974 H   0  0  0  0  0  0  0  0  0  0  0  0
  147.7700  137.2420  152.8907 H   0  0  0  0  0  0  0  0  0  0  0  0
  146.0194  139.1071  154.0221 H   0  0  0  0  0  0  0  0  0  0  0  0
  146.4432  138.0609  155.3020 H   0  0  0  0  0  0  0  0  0  0  0  0
  149.1793  137.3149  156.3121 H   0  0  0  0  0  0  0  0  0  0  0  0
  148.3304  136.4800  155.0261 H   0  0  0  0  0  0  0  0  0  0  0  0
  150.3429  135.2442  155.7187 H   0  0  0  0  0  0  0  0  0  0  0  0
  150.4118  135.6978  154.0262 H   0  0  0  0  0  0  0  0  0  0  0  0
  152.7422  138.3983  154.6773 H   0  0  0  0  0  0  0  0  0  0  0  0
  151.8506  137.5902  153.4006 H   0  0  0  0  0  0  0  0  0  0  0  0
  150.7829  139.7251  153.9802 H   0  0  0  0  0  0  0  0  0  0  0  0
  150.6739  139.2815  155.6680 H   0  0  0  0  0  0  0  0  0  0  0  0
  147.8923  139.3608  156.7092 H   0  0  0  0  0  0  0  0  0  0  0  0
  149.0704  140.4693  156.0641 H   0  0  0  0  0  0  0  0  0  0  0  0
  146.1054  140.8169  155.9517 H   0  0  0  0  0  0  0  0  0  0  0  0
  147.3524  141.9660  156.4040 H   0  0  0  0  0  0  0  0  0  0  0  0
  149.2131  140.7360  153.3304 H   0  0  0  0  0  0  0  0  0  0  0  0
  147.8873  139.9951  152.4616 H   0  0  0  0  0  0  0  0  0  0  0  0
  1  2  1  0  0  0  0
  1 24  1  0  0  0  0
  1 25  1  0  0  0  0
  1 26  1  0  0  0  0
  2  7  1  0  0  0  0
  2  3  2  0  0  0  0
  3  4  1  0  0  0  0
  3 27  1  0  0  0  0
  4  5  2  0  0  0  0
  4 28  1  0  0  0  0
  5  6  1  0  0  0  0
  5 29  1  0  0  0  0
  6  7  2  0  0  0  0
  7  8  1  0  0  0  0
  8  9  1  0  0  0  0
  8 30  1  0  0  0  0
  9 10  2  0  0  0  0
  9 11  1  0  0  0  0
 11 12  1  0  0  0  0
 11 31  1  0  0  0  0
 12 13  1  0  0  0  0
 12 32  1  0  0  0  0
 12 33  1  0  0  0  0
 13 23  1  0  0  0  0
 13 14  1  0  0  0  0
 13 20  1  0  0  0  0
 14 19  1  0  0  0  0
 14 15  1  0  0  0  0
 15 16  1  0  0  0  0
 15 34  1  0  0  0  0
 15 35  1  0  0  0  0
 16 17  1  0  0  0  0
 16 36  1  0  0  0  0
 16 37  1  0  0  0  0
 17 18  1  0  0  0  0
 18 19  1  0  0  0  0
 18 38  1  0  0  0  0
 18 39  1  0  0  0  0
 19 40  1  0  0  0  0
 19 41  1  0  0  0  0
 20 21  1  0  0  0  0
 20 42  1  0  0  0  0
 20 43  1  0  0  0  0
 21 22  1  0  0  0  0
 21 44  1  0  0  0  0
 21 45  1  0  0  0  0
 22 23  1  0  0  0  0
 23 46  1  0  0  0  0
 23 47  1  0  0  0  0
M  END
> <s_m_source_file>
AV-unprocessed.smi

> <i_m_source_file_index>
1211

> <i_lp_mmshare_version>
43012

> <i_f3d_flags>
0

> <s_epik_input>
W0NIM11jMVtjSF1bY0hdW2NIXW5jMVtOSF1DKD1PKVtOSF1bQ0gyXVtDQF0yKFtDSDJdW0NIMl1TW0NIMl0yKU4zW0NIMl1bQ0gyXU9bQ0gyXVtDSDJdMw==

> <s_epik_cmdline>
J2VwaWtfcHl0aG9uJywgJy1waCcsICc3LjAnLCAnLXRuJywgJzgnLCAnLW1hJywgJzIwMCcsICctbWV0YWxfYmluZGluZycsICctaW1hZScsICc8aW5maWxlLm1hZT4nLCAnLW9tYWUnLCAnPG91dGZpbGUubWFlPic=

> <r_epik_Ionization_Penalty>
0.0195636

> <r_epik_Ionization_Penalty_Charging>
0

> <r_epik_Ionization_Penalty_Neutral>
0.0195636

> <r_epik_State_Penalty>
0.0155843

> <r_epik_Charging_Adjusted_Penalty>
0.0155843

> <i_epik_Tot_Q>
0

> <i_epik_Tot_abs_Q>
0

> <r_epik_Metal_State_Penalty>
0.0155842

> <b_epik_Metal_Only>
0

> <s_lp_Force_Field>
OPLS_2005

> <r_lp_Energy>
55.6776

> <b_lp_Chiralities_Consistent>
1

> <s_lp_Variant>
AV-unprocessed.smi:1211-2

> <Gold.Version>
5.8.1

> <Gold.Id.Protein>
6NUR|6NUR_protein|mol2

> <Gold.PLP.Fitness>
43.4648

> <Gold.PLP.PLP>
-33.4616

> <Gold.PLP.part.hbond>
-3.0000

> <Gold.PLP.part.metal>
0.0000

> <Gold.PLP.part.buried>
-3.0033

> <Gold.PLP.part.nonpolar>
-28.8829

> <Gold.PLP.part.repulsive>
0.5194

> <Gold.PLP.ligand.clash>
0.0000

> <Gold.PLP.ligand.torsion>
0.8885

> <Gold.PLP.Chemscore.Hbond>
2.9000

> <Gold.PLP.Chemscore.CHOScore>
1.0000

> <Gold.PLP.Chemscore.Metal>
0.0000

> <Gold.Chemscore.Hbonds>
donor molecule, donor type, donor heavy atom, donor atom, acceptor molecule, acceptor atom, score
      L1  H     8    30       P1  7948  1.00
      L1  H    11    31       P1  7948  1.00
      P1  H 10752 10764       L1    17  1.00
      L1  C     5    29       P1 10186  0.64

> <Gold.PLP.Chemscore.Internal.Correction>
0.0800

> <Gold.Rescore>
     Score         DG    S(hbond)    S(metal)    S(lipo)     H(rot)  DE(clash)    DE(int)     intcor
     16.26     -18.89       2.00        0.00      88.87       1.44       1.89       0.74       ----

> <Gold.Chemscore.Fitness>
16.2643

> <Gold.Chemscore.DG>
-18.8868

> <Gold.Chemscore.ZeroCoef>
-5.4800

> <Gold.Chemscore.Hbond>
2.0050

> <Gold.Chemscore.Metal>
0.0000

> <Gold.Chemscore.Lipo>
88.8698

> <Gold.Chemscore.Internal_Hbond>
0.0000

> <Gold.Chemscore.DEClash>
1.8872

> <Gold.Chemscore.DEInternal>
0.7353

> <Gold.Chemscore.Rot>
1.4405

> <Gold.Chemscore.Internal.Correction>
   9.000000E+99

> <Gold.Chemscore.Hbonds>
donor molecule, donor type, donor heavy atom, donor atom, acceptor molecule, acceptor atom, score
      L1  H     8    30       P1  7948  0.99
      L1  H    11    31       P1  7948  0.95
      P1  H 10752 10764       L1    17  0.33

> <Gold.Chemscore.Hbond.Weighted>
-6.6966

> <Gold.Chemscore.Metal.Weighted>
-0.0000

> <Gold.Chemscore.Lipo.Weighted>
-10.3978

> <Gold.Chemscore.Internal_Hbond.Weighted>
0.0000

> <Gold.Chemscore.DEClash.Weighted>
1.8872

> <Gold.Chemscore.DEInternal.Weighted>
0.7353

> <Gold.Chemscore.Rot.Weighted>
3.6876

> <Gold.Chemscore.Internal.Correction.Weighted>
   9.000000E+99

> <Gold.Protein.RotatedTorsions>
[ 6907 6896 6895 6894 ] final   53.93 input  -60.11 | X-H torsion
[ 7974 7965 7964 7962 ] final -118.90 input  175.53 | X-H torsion
[ 8008 7997 7996 7995 ] final   96.22 input   59.86 | X-H torsion
[ 10167 10162 10161 10158 ] final -155.75 input  -65.29 | X-H torsion
[ 10718 10713 10712 10709 ] final  102.16 input   66.30 | X-H torsion
[ 10763 10752 10751 10750 ] final  -42.26 input  -60.55 | X-H torsion
[ 11005 11000 10999 10996 ] final -152.81 input  -57.11 | X-H torsion

> <Gold.Protein.ActiveResidues>
 VAL166  LYS551  ARG553  GLY616  TRP617  ASP618  TYR619  PRO620  LYS621  CYS622 
 ASP623  PHE694  ASN695  SER759  ASP760  ASP761  ALA762  ILE779  LEU786  VAL792 
 PHE793  MET794  SER795  GLU796  ALA797  LYS798  CYS799  TRP800  GLU811  SER814 

> <Gold.Protein.RotatedAtoms>
  152.3387  134.7163  160.0269 H   0  0  0  0  0  0  0  0  0  0  0  0  # atno 6907 bound_to 6896
  151.7556  133.3325  159.3411 H   0  0  0  0  0  0  0  0  0  0  0  0  # atno 6908 bound_to 6896
  150.7466  134.6085  159.6118 H   0  0  0  0  0  0  0  0  0  0  0  0  # atno 6909 bound_to 6896
  145.0686  140.8342  143.4109 H   0  0  0  0  0  0  0  0  0  0  0  0  # atno 7974 bound_to 7965
  156.0773  140.3275  155.7649 H   0  0  0  0  0  0  0  0  0  0  0  0  # atno 8008 bound_to 7997
  155.5210  140.0585  157.2924 H   0  0  0  0  0  0  0  0  0  0  0  0  # atno 8009 bound_to 7997
  154.4562  140.1944  156.0390 H   0  0  0  0  0  0  0  0  0  0  0  0  # atno 8010 bound_to 7997
  139.6906  143.9427  152.2383 H   0  0  0  0  0  0  0  0  0  0  0  0  # atno 10167 bound_to 10162
  157.6810  131.0745  150.5362 H   0  0  0  0  0  0  0  0  0  0  0  0  # atno 10718 bound_to 10713
  153.9761  135.6722  153.4748 H   0  0  0  0  0  0  0  0  0  0  0  0  # atno 10763 bound_to 10752
  153.0770  135.4943  154.8422 H   0  0  0  0  0  0  0  0  0  0  0  0  # atno 10764 bound_to 10752
  154.7191  135.3113  154.9037 H   0  0  0  0  0  0  0  0  0  0  0  0  # atno 10765 bound_to 10752
  140.7149  134.3792  157.5192 H   0  0  0  0  0  0  0  0  0  0  0  0  # atno 11005 bound_to 11000
  145.1320  139.2626  143.5534 LP  0  0  0  0  0  0  0  0  0  0  0  0  # atno 17320 bound_to 7965
  146.3528  140.0974  142.8609 LP  0  0  0  0  0  0  0  0  0  0  0  0  # atno 17321 bound_to 7965
  139.9242  144.6781  150.8430 LP  0  0  0  0  0  0  0  0  0  0  0  0  # atno 17342 bound_to 10162
  140.7681  143.3353  151.2321 LP  0  0  0  0  0  0  0  0  0  0  0  0  # atno 17343 bound_to 10162
  156.5670  130.4270  149.6037 LP  0  0  0  0  0  0  0  0  0  0  0  0  # atno 17370 bound_to 10713
  156.2773  130.7051  151.1865 LP  0  0  0  0  0  0  0  0  0  0  0  0  # atno 17371 bound_to 10713
  139.8862  134.8915  156.2597 LP  0  0  0  0  0  0  0  0  0  0  0  0  # atno 17394 bound_to 11000
  141.0053  133.7127  156.1025 LP  0  0  0  0  0  0  0  0  0  0  0  0  # atno 17395 bound_to 11000

$$$$
