AV-unprocessed.smi:249|AV-procd|sdf|1917|dock10
  -GOLD-   2262021 13D 1   1.00000     0.00000
 Structure written by MMmdl.
 64 67  0  0  0  0  0  0  0  0  2 V2000
  147.7091  127.1270  152.7313 C   0  0  0  0  0  0  0  0  0  0  0  0
  147.4496  128.3500  153.6266 C   0  0  0  0  0  0  0  0  0  0  0  0
  146.9690  129.5460  152.8752 N   0  3  1  0  0  0  0  0  0  0  0  0
  145.7000  129.2658  152.1424 C   0  0  0  0  0  0  0  0  0  0  0  0
  145.2665  130.4452  151.2613 C   0  0  0  0  0  0  0  0  0  0  0  0
  145.1030  131.7149  152.1082 C   0  0  2  0  0  0  0  0  0  0  0  0
  144.6549  132.8696  151.3177 N   0  0  0  0  0  0  0  0  0  0  0  0
  143.8362  132.6708  150.1235 C   0  0  0  0  0  0  0  0  0  0  0  0
  144.6212  134.1092  151.8833 C   0  0  0  0  0  0  0  0  0  0  0  0
  145.7634  134.8459  151.9461 N   0  0  0  0  0  0  0  0  0  0  0  0
  145.7637  136.0591  152.5049 C   0  0  0  0  0  0  0  0  0  0  0  0
  144.7463  136.7248  153.0515 N   0  0  0  0  0  0  0  0  0  0  0  0
  143.5923  136.0032  152.9839 C   0  0  0  0  0  0  0  0  0  0  0  0
  143.4411  134.7005  152.4264 C   0  0  0  0  0  0  0  0  0  0  0  0
  142.1139  134.2985  152.5373 N   0  0  0  0  0  0  0  0  0  0  0  0
  141.5209  135.2963  153.1330 C   0  0  0  0  0  0  0  0  0  0  0  0
  142.3309  136.3710  153.4187 N   0  0  0  0  0  0  0  0  0  0  0  0
  141.9359  137.6048  154.0756 C   0  0  0  0  0  0  0  0  0  0  0  0
  140.6159  138.2353  153.5485 C   0  0  2  0  0  0  0  0  0  0  0  0
  140.5085  139.6910  154.0645 C   0  0  0  0  0  0  0  0  0  0  0  0
  141.7159  140.3985  153.8695 O   0  0  0  0  0  0  0  0  0  0  0  0
  139.3502  137.4046  153.9191 C   0  0  2  0  0  0  0  0  0  0  0  0
  138.0212  137.9398  153.3809 C   0  0  0  0  0  0  0  0  0  0  0  0
  136.9889  137.6243  154.4669 C   0  0  0  0  0  0  0  0  0  0  0  0
  137.6934  136.8898  155.4544 O   0  0  0  0  0  0  0  0  0  0  0  0
  139.0410  137.3202  155.4173 C   0  0  0  0  0  0  0  0  0  0  0  0
  146.4192  131.9915  152.8503 C   0  0  0  0  0  0  0  0  0  0  0  0
  146.8575  130.7868  153.7119 C   0  0  2  0  0  0  0  0  0  0  0  0
  148.1676  131.1543  154.4396 C   0  0  0  0  0  0  0  0  0  0  0  0
  148.2080  126.3413  153.2994 H   0  0  0  0  0  0  0  0  0  0  0  0
  148.3533  127.3820  151.8892 H   0  0  0  0  0  0  0  0  0  0  0  0
  146.7892  126.6936  152.3402 H   0  0  0  0  0  0  0  0  0  0  0  0
  146.7433  128.0987  154.4192 H   0  0  0  0  0  0  0  0  0  0  0  0
  148.3988  128.5627  154.1128 H   0  0  0  0  0  0  0  0  0  0  0  0
  145.8102  128.3973  151.4956 H   0  0  0  0  0  0  0  0  0  0  0  0
  144.9123  129.0260  152.8586 H   0  0  0  0  0  0  0  0  0  0  0  0
  146.0043  130.5990  150.4734 H   0  0  0  0  0  0  0  0  0  0  0  0
  144.3287  130.2004  150.7619 H   0  0  0  0  0  0  0  0  0  0  0  0
  144.3599  131.5163  152.8817 H   0  0  0  0  0  0  0  0  0  0  0  0
  144.4140  132.9040  149.2292 H   0  0  0  0  0  0  0  0  0  0  0  0
  142.9506  133.3074  150.1385 H   0  0  0  0  0  0  0  0  0  0  0  0
  143.4904  131.6417  150.0358 H   0  0  0  0  0  0  0  0  0  0  0  0
  146.7152  136.5701  152.5153 H   0  0  0  0  0  0  0  0  0  0  0  0
  140.4664  135.2807  153.3678 H   0  0  0  0  0  0  0  0  0  0  0  0
  141.8528  137.4149  155.1464 H   0  0  0  0  0  0  0  0  0  0  0  0
  142.7671  138.3006  153.9564 H   0  0  0  0  0  0  0  0  0  0  0  0
  140.6662  138.2898  152.4603 H   0  0  0  0  0  0  0  0  0  0  0  0
  139.7394  140.2492  153.5323 H   0  0  0  0  0  0  0  0  0  0  0  0
  140.2447  139.7096  155.1225 H   0  0  0  0  0  0  0  0  0  0  0  0
  141.6573  140.8750  153.0553 H   0  0  0  0  0  0  0  0  0  0  0  0
  139.4786  136.3831  153.5569 H   0  0  0  0  0  0  0  0  0  0  0  0
  138.0565  139.0171  153.2171 H   0  0  0  0  0  0  0  0  0  0  0  0
  137.7528  137.4658  152.4372 H   0  0  0  0  0  0  0  0  0  0  0  0
  136.6012  138.5441  154.9070 H   0  0  0  0  0  0  0  0  0  0  0  0
  136.1460  137.0466  154.0866 H   0  0  0  0  0  0  0  0  0  0  0  0
  139.6829  136.6138  155.9445 H   0  0  0  0  0  0  0  0  0  0  0  0
  139.1274  138.2960  155.8987 H   0  0  0  0  0  0  0  0  0  0  0  0
  147.2142  132.2316  152.1432 H   0  0  0  0  0  0  0  0  0  0  0  0
  146.2947  132.8719  153.4824 H   0  0  0  0  0  0  0  0  0  0  0  0
  146.0903  130.6125  154.4684 H   0  0  0  0  0  0  0  0  0  0  0  0
  148.0949  132.1418  154.8966 H   0  0  0  0  0  0  0  0  0  0  0  0
  149.0144  131.1737  153.7527 H   0  0  0  0  0  0  0  0  0  0  0  0
  148.3990  130.4666  155.2521 H   0  0  0  0  0  0  0  0  0  0  0  0
  147.6707  129.7417  152.1755 H   0  0  0  0  0  0  0  0  0  0  0  0
  1  2  1  0  0  0  0
  1 30  1  0  0  0  0
  1 31  1  0  0  0  0
  1 32  1  0  0  0  0
  2  3  1  0  0  0  0
  2 33  1  0  0  0  0
  2 34  1  0  0  0  0
  3 28  1  0  0  0  0
  3  4  1  0  0  0  0
  3 64  1  0  0  0  0
  4  5  1  0  0  0  0
  4 35  1  0  0  0  0
  4 36  1  0  0  0  0
  5  6  1  0  0  0  0
  5 37  1  0  0  0  0
  5 38  1  0  0  0  0
  6  7  1  0  0  0  0
  6 27  1  0  0  0  0
  6 39  1  0  0  0  0
  7  8  1  0  0  0  0
  7  9  1  0  0  0  0
  8 40  1  0  0  0  0
  8 41  1  0  0  0  0
  8 42  1  0  0  0  0
  9 14  1  0  0  0  0
  9 10  2  0  0  0  0
 10 11  1  0  0  0  0
 11 12  2  0  0  0  0
 11 43  1  0  0  0  0
 12 13  1  0  0  0  0
 13 17  1  0  0  0  0
 13 14  2  0  0  0  0
 14 15  1  0  0  0  0
 15 16  2  0  0  0  0
 16 17  1  0  0  0  0
 16 44  1  0  0  0  0
 17 18  1  0  0  0  0
 18 19  1  0  0  0  0
 18 45  1  0  0  0  0
 18 46  1  0  0  0  0
 19 20  1  0  0  0  0
 19 22  1  0  0  0  0
 19 47  1  0  0  0  0
 20 21  1  0  0  0  0
 20 48  1  0  0  0  0
 20 49  1  0  0  0  0
 21 50  1  0  0  0  0
 22 26  1  0  0  0  0
 22 23  1  0  0  0  0
 22 51  1  0  0  0  0
 23 24  1  0  0  0  0
 23 52  1  0  0  0  0
 23 53  1  0  0  0  0
 24 25  1  0  0  0  0
 24 54  1  0  0  0  0
 24 55  1  0  0  0  0
 25 26  1  0  0  0  0
 26 56  1  0  0  0  0
 26 57  1  0  0  0  0
 27 28  1  0  0  0  0
 27 58  1  0  0  0  0
 27 59  1  0  0  0  0
 28 29  1  0  0  0  0
 28 60  1  0  0  0  0
 29 61  1  0  0  0  0
 29 62  1  0  0  0  0
 29 63  1  0  0  0  0
M  CHG  1   3   1
M  END
> <s_m_source_file>
AV-unprocessed.smi

> <i_m_source_file_index>
249

> <i_lp_mmshare_version>
43012

> <i_f3d_flags>
0

> <s_epik_input>
W0NIM11bQ0gyXU4xW0NIMl1bQ0gyXVtDQEhdKFtDSDJdW0NASF0xW0NIM10pTihbQ0gzXSljKG5bY0hdbjIpYyhjMjMpbltjSF1uM1tDSDJdW0NASF0oW0NIMl1bT0hdKVtDQEBIXTRbQ0gyXVtDSDJdT1tDSDJdNA==

> <s_epik_cmdline>
J2VwaWtfcHl0aG9uJywgJy1waCcsICc3LjAnLCAnLXRuJywgJzgnLCAnLW1hJywgJzIwMCcsICctbWV0YWxfYmluZGluZycsICctaW1hZScsICc8aW5maWxlLm1hZT4nLCAnLW9tYWUnLCAnPG91dGZpbGUubWFlPic=

> <r_lp_tautomer_probability>
1

> <r_epik_Ionization_Penalty>
0.00294688

> <r_epik_Ionization_Penalty_Charging>
0.00169971

> <r_epik_Ionization_Penalty_Neutral>
0.00124717

> <r_epik_State_Penalty>
-0

> <r_epik_Charging_Adjusted_Penalty>
0.00169971

> <i_epik_Tot_Q>
1

> <i_epik_Tot_abs_Q>
1

> <r_epik_Metal_State_Penalty>
-0

> <b_epik_Metal_Only>
0

> <s_lp_Force_Field>
OPLS_2005

> <r_lp_Energy>
53.9477

> <b_lp_Chiralities_Consistent>
1

> <s_lp_Variant>
AV-unprocessed.smi:249-20

> <Gold.Version>
5.8.1

> <Gold.Id.Protein>
6NUR|6NUR_protein|mol2

> <Gold.PLP.Fitness>
59.6407

> <Gold.PLP.PLP>
-54.5041

> <Gold.PLP.part.hbond>
-3.5667

> <Gold.PLP.part.metal>
0.0000

> <Gold.PLP.part.buried>
-7.2861

> <Gold.PLP.part.nonpolar>
-44.1353

> <Gold.PLP.part.repulsive>
0.7500

> <Gold.PLP.ligand.clash>
0.0000

> <Gold.PLP.ligand.torsion>
2.1237

> <Gold.PLP.Chemscore.Hbond>
1.9920

> <Gold.PLP.Chemscore.CHOScore>
0.9065

> <Gold.PLP.Chemscore.Metal>
0.0000

> <Gold.Chemscore.Hbonds>
donor molecule, donor type, donor heavy atom, donor atom, acceptor molecule, acceptor atom, score
      L1  C    11    43       P1  7948  1.00
      L1  C    16    44       P1 10187  0.03

> <Gold.PLP.Chemscore.Internal.Correction>
0.6886

> <Gold.Rescore>
     Score         DG    S(hbond)    S(metal)    S(lipo)     H(rot)  DE(clash)    DE(int)     intcor
     14.89     -18.76       2.00        0.00     114.55       2.65       1.77       2.10       ----

> <Gold.Chemscore.Fitness>
14.8895

> <Gold.Chemscore.DG>
-18.7633

> <Gold.Chemscore.ZeroCoef>
-5.4800

> <Gold.Chemscore.Hbond>
1.9968

> <Gold.Chemscore.Metal>
0.0000

> <Gold.Chemscore.Lipo>
114.5464

> <Gold.Chemscore.Internal_Hbond>
0.0000

> <Gold.Chemscore.DEClash>
1.7692

> <Gold.Chemscore.DEInternal>
2.1045

> <Gold.Chemscore.Rot>
2.6515

> <Gold.Chemscore.Internal.Correction>
   9.000000E+99

> <Gold.Chemscore.Hbonds>
donor molecule, donor type, donor heavy atom, donor atom, acceptor molecule, acceptor atom, score
      L1  H    21    50       P1 10160  0.01

> <Gold.Chemscore.Hbond.Weighted>
-6.6693

> <Gold.Chemscore.Metal.Weighted>
-0.0000

> <Gold.Chemscore.Lipo.Weighted>
-13.4019

> <Gold.Chemscore.Internal_Hbond.Weighted>
0.0000

> <Gold.Chemscore.DEClash.Weighted>
1.7692

> <Gold.Chemscore.DEInternal.Weighted>
2.1045

> <Gold.Chemscore.Rot.Weighted>
6.7880

> <Gold.Chemscore.Internal.Correction.Weighted>
   9.000000E+99

> <Gold.Protein.RotatedTorsions>
[ 6907 6896 6895 6894 ] final  -85.31 input  -60.11 | X-H torsion
[ 7974 7965 7964 7962 ] final  -14.03 input  175.53 | X-H torsion
[ 8008 7997 7996 7995 ] final   40.15 input   59.86 | X-H torsion
[ 10167 10162 10161 10158 ] final -119.67 input  -65.29 | X-H torsion
[ 10718 10713 10712 10709 ] final   14.90 input   66.30 | X-H torsion
[ 10763 10752 10751 10750 ] final   18.54 input  -60.55 | X-H torsion
[ 11005 11000 10999 10996 ] final  157.35 input  -57.11 | X-H torsion

> <Gold.Protein.ActiveResidues>
 VAL166  LYS551  ARG553  GLY616  TRP617  ASP618  TYR619  PRO620  LYS621  CYS622 
 ASP623  PHE694  ASN695  SER759  ASP760  ASP761  ALA762  ILE779  LEU786  VAL792 
 PHE793  MET794  SER795  GLU796  ALA797  LYS798  CYS799  TRP800  GLU811  SER814 

> <Gold.Protein.RotatedAtoms>
  150.6871  134.3224  159.4791 H   0  0  0  0  0  0  0  0  0  0  0  0  # atno 6907 bound_to 6896
  152.1098  134.9280  160.0576 H   0  0  0  0  0  0  0  0  0  0  0  0  # atno 6908 bound_to 6896
  152.0527  133.3991  159.4421 H   0  0  0  0  0  0  0  0  0  0  0  0  # atno 6909 bound_to 6896
  146.2091  140.3289  142.8397 H   0  0  0  0  0  0  0  0  0  0  0  0  # atno 7974 bound_to 7965
  155.2484  140.3350  155.4284 H   0  0  0  0  0  0  0  0  0  0  0  0  # atno 8008 bound_to 7997
  156.2226  140.1815  156.7485 H   0  0  0  0  0  0  0  0  0  0  0  0  # atno 8009 bound_to 7997
  154.5848  140.0647  156.9141 H   0  0  0  0  0  0  0  0  0  0  0  0  # atno 8010 bound_to 7997
  140.0441  143.5124  152.2115 H   0  0  0  0  0  0  0  0  0  0  0  0  # atno 10167 bound_to 10162
  157.0457  130.6249  149.5759 H   0  0  0  0  0  0  0  0  0  0  0  0  # atno 10718 bound_to 10713
  153.1241  135.6725  153.9287 H   0  0  0  0  0  0  0  0  0  0  0  0  # atno 10763 bound_to 10752
  153.8793  135.3060  155.3446 H   0  0  0  0  0  0  0  0  0  0  0  0  # atno 10764 bound_to 10752
  154.7648  135.4969  153.9613 H   0  0  0  0  0  0  0  0  0  0  0  0  # atno 10765 bound_to 10752
  140.1761  134.8509  157.2748 H   0  0  0  0  0  0  0  0  0  0  0  0  # atno 11005 bound_to 11000
  144.8866  140.7470  143.5953 LP  0  0  0  0  0  0  0  0  0  0  0  0  # atno 17320 bound_to 7965
  145.3210  139.1788  143.4588 LP  0  0  0  0  0  0  0  0  0  0  0  0  # atno 17321 bound_to 7965
  139.5994  144.7578  151.3207 LP  0  0  0  0  0  0  0  0  0  0  0  0  # atno 17342 bound_to 10162
  140.7246  143.7039  150.7823 LP  0  0  0  0  0  0  0  0  0  0  0  0  # atno 17343 bound_to 10162
  156.0023  130.5105  150.7709 LP  0  0  0  0  0  0  0  0  0  0  0  0  # atno 17370 bound_to 10713
  157.5069  131.0923  151.0246 LP  0  0  0  0  0  0  0  0  0  0  0  0  # atno 17371 bound_to 10713
  140.2321  134.3897  155.7517 LP  0  0  0  0  0  0  0  0  0  0  0  0  # atno 17394 bound_to 11000
  141.2220  133.7220  156.8657 LP  0  0  0  0  0  0  0  0  0  0  0  0  # atno 17395 bound_to 11000

$$$$
