AV-unprocessed.smi:101|AV-procd|sdf|934|dock1
  -GOLD-   2262017453D 1   1.00000     0.00000
 Structure written by MMmdl.
 43 45  0  0  0  0  0  0  0  0  2 V2000
  143.9103  144.9031  154.6180 C   0  0  0  0  0  0  0  0  0  0  0  0
  144.7364  143.7137  155.0757 C   0  0  0  0  0  0  0  0  0  0  0  0
  145.7847  143.2471  154.3623 C   0  0  0  0  0  0  0  0  0  0  0  0
  146.5351  142.1631  154.7826 N   0  0  0  0  0  0  0  0  0  0  0  0
  147.6972  141.6776  153.9408 C   0  0  1  0  0  0  0  0  0  0  0  0
  148.8147  141.5849  154.7702 O   0  0  0  0  0  0  0  0  0  0  0  0
  149.5179  140.3823  154.4988 C   0  0  1  0  0  0  0  0  0  0  0  0
  150.2831  139.9412  155.7517 C   0  0  0  0  0  0  0  0  0  0  0  0
  150.6043  141.0822  156.5299 O   0  0  0  0  0  0  0  0  0  0  0  0
  151.6775  141.0622  157.3441 C   0  0  0  0  0  0  0  0  0  0  0  0
  152.4625  140.1142  157.4150 O   0  0  0  0  0  0  0  0  0  0  0  0
  151.8162  142.3075  158.1528 C   0  0  0  0  0  0  0  0  0  0  0  0
  151.2103  143.5015  157.6958 C   0  0  0  0  0  0  0  0  0  0  0  0
  151.3255  144.6935  158.4370 C   0  0  0  0  0  0  0  0  0  0  0  0
  152.0477  144.7064  159.6445 C   0  0  0  0  0  0  0  0  0  0  0  0
  152.6552  143.5256  160.1101 C   0  0  0  0  0  0  0  0  0  0  0  0
  152.5413  142.3324  159.3701 C   0  0  0  0  0  0  0  0  0  0  0  0
  148.4187  139.4031  154.0829 C   0  0  2  0  0  0  0  0  0  0  0  0
  148.9499  138.3906  153.2513 O   0  0  0  0  0  0  0  0  0  0  0  0
  147.4484  140.2879  153.3112 C   0  0  1  0  0  0  0  0  0  0  0  0
  146.1211  139.8103  153.4389 O   0  0  0  0  0  0  0  0  0  0  0  0
  146.2176  141.5204  156.0081 C   0  0  0  0  0  0  0  0  0  0  0  0
  146.9203  140.5775  156.3720 O   0  0  0  0  0  0  0  0  0  0  0  0
  145.1575  141.9814  156.7318 N   0  5  0  0  0  0  0  0  0  0  0  0
  144.3953  143.0413  156.3351 C   0  0  0  0  0  0  0  0  0  0  0  0
  143.4406  143.4450  156.9984 O   0  0  0  0  0  0  0  0  0  0  0  0
  144.2710  145.2934  153.6661 H   0  0  0  0  0  0  0  0  0  0  0  0
  143.9596  145.7065  155.3534 H   0  0  0  0  0  0  0  0  0  0  0  0
  142.8663  144.6155  154.4907 H   0  0  0  0  0  0  0  0  0  0  0  0
  146.0471  143.7383  153.4368 H   0  0  0  0  0  0  0  0  0  0  0  0
  147.8996  142.4466  153.1948 H   0  0  0  0  0  0  0  0  0  0  0  0
  150.1994  140.5599  153.6643 H   0  0  0  0  0  0  0  0  0  0  0  0
  149.6876  139.2331  156.3299 H   0  0  0  0  0  0  0  0  0  0  0  0
  151.2079  139.4386  155.4659 H   0  0  0  0  0  0  0  0  0  0  0  0
  150.6508  143.5165  156.7715 H   0  0  0  0  0  0  0  0  0  0  0  0
  150.8591  145.5991  158.0778 H   0  0  0  0  0  0  0  0  0  0  0  0
  152.1362  145.6208  160.2126 H   0  0  0  0  0  0  0  0  0  0  0  0
  153.2109  143.5343  161.0361 H   0  0  0  0  0  0  0  0  0  0  0  0
  153.0208  141.4443  159.7553 H   0  0  0  0  0  0  0  0  0  0  0  0
  147.9405  138.9714  154.9640 H   0  0  0  0  0  0  0  0  0  0  0  0
  149.0119  138.7279  152.3707 H   0  0  0  0  0  0  0  0  0  0  0  0
  147.7228  140.3462  152.2568 H   0  0  0  0  0  0  0  0  0  0  0  0
  145.5474  140.3930  152.9651 H   0  0  0  0  0  0  0  0  0  0  0  0
  1  2  1  0  0  0  0
  1 27  1  0  0  0  0
  1 28  1  0  0  0  0
  1 29  1  0  0  0  0
  2 25  1  0  0  0  0
  2  3  2  0  0  0  0
  3  4  1  0  0  0  0
  3 30  1  0  0  0  0
  4  5  1  0  0  0  0
  4 22  1  0  0  0  0
  5 20  1  0  0  0  0
  5  6  1  0  0  0  0
  5 31  1  0  0  0  0
  6  7  1  0  0  0  0
  7  8  1  0  0  0  0
  7 18  1  0  0  0  0
  7 32  1  0  0  0  0
  8  9  1  0  0  0  0
  8 33  1  0  0  0  0
  8 34  1  0  0  0  0
  9 10  1  0  0  0  0
 10 11  2  0  0  0  0
 10 12  1  0  0  0  0
 12 17  1  0  0  0  0
 12 13  2  0  0  0  0
 13 14  1  0  0  0  0
 13 35  1  0  0  0  0
 14 15  2  0  0  0  0
 14 36  1  0  0  0  0
 15 16  1  0  0  0  0
 15 37  1  0  0  0  0
 16 17  2  0  0  0  0
 16 38  1  0  0  0  0
 17 39  1  0  0  0  0
 18 19  1  0  0  0  0
 18 20  1  0  0  0  0
 18 40  1  0  0  0  0
 19 41  1  0  0  0  0
 20 21  1  0  0  0  0
 20 42  1  0  0  0  0
 21 43  1  0  0  0  0
 22 23  2  0  0  0  0
 22 24  1  0  0  0  0
 24 25  1  0  0  0  0
 25 26  2  0  0  0  0
M  CHG  1  24  -1
M  END
> <s_m_source_file>
AV-unprocessed.smi

> <i_m_source_file_index>
101

> <i_lp_mmshare_version>
43012

> <i_f3d_flags>
0

> <s_epik_input>
Tz1jMVtuSF1jKD1PKW4oW2NIXWMxW0NIM10pW0NAQEhdMk9bQ0BIXShbQ0BASF0oW09IXSlbQ0BIXTJbT0hdKVtDSDJdT0MoPU8pYzNbY0hdW2NIXVtjSF1bY0hdW2NIXTM=

> <s_epik_cmdline>
J2VwaWtfcHl0aG9uJywgJy1waCcsICc3LjAnLCAnLXRuJywgJzgnLCAnLW1hJywgJzIwMCcsICctbWV0YWxfYmluZGluZycsICctaW1hZScsICc8aW5maWxlLm1hZT4nLCAnLW9tYWUnLCAnPG91dGZpbGUubWFlPic=

> <r_lp_tautomer_probability>
0.999537

> <r_epik_Ionization_Penalty>
3.21006

> <r_epik_Ionization_Penalty_Charging>
5.75142e-08

> <r_epik_Ionization_Penalty_Neutral>
3.21006

> <r_epik_State_Penalty>
3.20925

> <r_epik_Charging_Adjusted_Penalty>
3.20925

> <i_epik_Tot_Q>
-1

> <i_epik_Tot_abs_Q>
1

> <r_epik_Metal_State_Penalty>
0.119957

> <b_epik_Metal_Only>
1

> <s_epik_Chemistry_Notes>
This compound has an ester and may undergo hydrolysis at high or low pH. This compound contains an acetal/aminal-like group ( X-CH(R)-Y where X, Y are N, S, or O) that may be acid/base labile, releasing an aldehyde.

> <s_lp_Force_Field>
OPLS_2005

> <r_lp_Energy>
44.7852

> <b_lp_Chiralities_Consistent>
1

> <s_lp_Variant>
AV-unprocessed.smi:101-22

> <Gold.Version>
5.8.1

> <Gold.Id.Protein>
6NUR|6NUR_protein|mol2

> <Gold.PLP.Fitness>
57.7951

> <Gold.PLP.PLP>
-51.3953

> <Gold.PLP.part.hbond>
-4.0000

> <Gold.PLP.part.metal>
0.0000

> <Gold.PLP.part.buried>
-6.1015

> <Gold.PLP.part.nonpolar>
-41.6851

> <Gold.PLP.part.repulsive>
0.2581

> <Gold.PLP.ligand.clash>
0.0000

> <Gold.PLP.ligand.torsion>
0.9962

> <Gold.PLP.Chemscore.Hbond>
2.7360

> <Gold.PLP.Chemscore.CHOScore>
0.0000

> <Gold.PLP.Chemscore.Metal>
0.0000

> <Gold.Chemscore.Hbonds>
donor molecule, donor type, donor heavy atom, donor atom, acceptor molecule, acceptor atom, score
      L1  H    19    41       P1  7957  1.00
      L1  H    21    43       P1 10175  0.77
      P1  H  7997  8010       L1    11  0.93

> <Gold.PLP.Chemscore.Internal.Correction>
0.1841

> <Gold.Rescore>
     Score         DG    S(hbond)    S(metal)    S(lipo)     H(rot)  DE(clash)    DE(int)     intcor
     16.19     -19.35       2.67        0.00     113.92       3.27       0.05       3.10       ----

> <Gold.Chemscore.Fitness>
16.1929

> <Gold.Chemscore.DG>
-19.3505

> <Gold.Chemscore.ZeroCoef>
-5.4800

> <Gold.Chemscore.Hbond>
2.6653

> <Gold.Chemscore.Metal>
0.0000

> <Gold.Chemscore.Lipo>
113.9174

> <Gold.Chemscore.Internal_Hbond>
0.0000

> <Gold.Chemscore.DEClash>
0.0547

> <Gold.Chemscore.DEInternal>
3.1029

> <Gold.Chemscore.Rot>
3.2656

> <Gold.Chemscore.Internal.Correction>
   9.000000E+99

> <Gold.Chemscore.Hbonds>
donor molecule, donor type, donor heavy atom, donor atom, acceptor molecule, acceptor atom, score
      L1  H    19    41       P1  7957  0.85
      L1  H    21    43       P1 10175  0.70
      P1  H  7997  8010       L1    11  0.86

> <Gold.Chemscore.Hbond.Weighted>
-8.9020

> <Gold.Chemscore.Metal.Weighted>
-0.0000

> <Gold.Chemscore.Lipo.Weighted>
-13.3283

> <Gold.Chemscore.Internal_Hbond.Weighted>
0.0000

> <Gold.Chemscore.DEClash.Weighted>
0.0547

> <Gold.Chemscore.DEInternal.Weighted>
3.1029

> <Gold.Chemscore.Rot.Weighted>
8.3598

> <Gold.Chemscore.Internal.Correction.Weighted>
   9.000000E+99

> <Gold.Protein.RotatedTorsions>
[ 6907 6896 6895 6894 ] final  178.44 input  -60.11 | X-H torsion
[ 7974 7965 7964 7962 ] final  -27.54 input  175.53 | X-H torsion
[ 8008 7997 7996 7995 ] final   58.48 input   59.86 | X-H torsion
[ 10167 10162 10161 10158 ] final   54.66 input  -65.29 | X-H torsion
[ 10718 10713 10712 10709 ] final   12.40 input   66.30 | X-H torsion
[ 10763 10752 10751 10750 ] final  122.04 input  -60.55 | X-H torsion
[ 11005 11000 10999 10996 ] final   58.98 input  -57.11 | X-H torsion

> <Gold.Protein.ActiveResidues>
 VAL166  LYS551  ARG553  GLY616  TRP617  ASP618  TYR619  PRO620  LYS621  CYS622 
 ASP623  PHE694  ASN695  SER759  ASP760  ASP761  ALA762  ILE779  LEU786  VAL792 
 PHE793  MET794  SER795  GLU796  ALA797  LYS798  CYS799  TRP800  GLU811  SER814 

> <Gold.Protein.RotatedAtoms>
  151.6878  133.3311  159.3235 H   0  0  0  0  0  0  0  0  0  0  0  0  # atno 6907 bound_to 6896
  150.7793  134.6725  159.6409 H   0  0  0  0  0  0  0  0  0  0  0  0  # atno 6908 bound_to 6896
  152.3845  134.6542  160.0182 H   0  0  0  0  0  0  0  0  0  0  0  0  # atno 6909 bound_to 6896
  146.1351  140.5165  142.8676 H   0  0  0  0  0  0  0  0  0  0  0  0  # atno 7974 bound_to 7965
  155.5508  140.3486  155.4468 H   0  0  0  0  0  0  0  0  0  0  0  0  # atno 8008 bound_to 7997
  156.0585  140.1334  156.9995 H   0  0  0  0  0  0  0  0  0  0  0  0  # atno 8009 bound_to 7997
  154.4468  140.0990  156.6466 H   0  0  0  0  0  0  0  0  0  0  0  0  # atno 8010 bound_to 7997
  140.2277  144.3720  150.6426 H   0  0  0  0  0  0  0  0  0  0  0  0  # atno 10167 bound_to 10162
  157.0096  130.6112  149.5706 H   0  0  0  0  0  0  0  0  0  0  0  0  # atno 10718 bound_to 10713
  153.6234  135.3409  155.3018 H   0  0  0  0  0  0  0  0  0  0  0  0  # atno 10763 bound_to 10752
  154.8595  135.4278  154.2182 H   0  0  0  0  0  0  0  0  0  0  0  0  # atno 10764 bound_to 10752
  153.3061  135.7028  153.7231 H   0  0  0  0  0  0  0  0  0  0  0  0  # atno 10765 bound_to 10752
  140.0337  134.5974  155.9472 H   0  0  0  0  0  0  0  0  0  0  0  0  # atno 11005 bound_to 11000
  144.7731  140.5680  143.6657 LP  0  0  0  0  0  0  0  0  0  0  0  0  # atno 17320 bound_to 7965
  145.5175  139.1477  143.3571 LP  0  0  0  0  0  0  0  0  0  0  0  0  # atno 17321 bound_to 7965
  140.6208  143.2176  151.6698 LP  0  0  0  0  0  0  0  0  0  0  0  0  # atno 17342 bound_to 10162
  139.5121  144.3487  152.0673 LP  0  0  0  0  0  0  0  0  0  0  0  0  # atno 17343 bound_to 10162
  156.0141  130.5234  150.8080 LP  0  0  0  0  0  0  0  0  0  0  0  0  # atno 17370 bound_to 10713
  157.5330  131.0937  150.9930 LP  0  0  0  0  0  0  0  0  0  0  0  0  # atno 17371 bound_to 10713
  141.1845  133.6553  156.5161 LP  0  0  0  0  0  0  0  0  0  0  0  0  # atno 17394 bound_to 11000
  140.4182  134.7211  157.4875 LP  0  0  0  0  0  0  0  0  0  0  0  0  # atno 17395 bound_to 11000

$$$$
