AV-unprocessed.smi:136|AV-procd|sdf|1171|dock2
  -GOLD-   2262018313D 1   1.00000     0.00000
 Structure written by MMmdl.
 54 58  0  0  0  0  0  0  0  0  1 V2000
  149.3071  138.5171  159.4729 O   0  0  0  0  0  0  0  0  0  0  0  0
  149.9353  137.6225  158.9035 C   0  0  0  0  0  0  0  0  0  0  0  0
  151.4119  137.8501  158.5154 C   0  0  0  0  0  0  0  0  0  0  0  0
  151.9675  139.1172  159.0405 N   0  0  0  0  0  0  0  0  0  0  0  0
  153.1023  139.0595  159.8876 C   0  0  0  0  0  0  0  0  0  0  0  0
  153.6329  137.9848  160.1721 O   0  0  0  0  0  0  0  0  0  0  0  0
  153.5764  140.3427  160.3936 C   0  0  0  0  0  0  0  0  0  0  0  0
  154.6487  140.3834  161.2028 F   0  0  0  0  0  0  0  0  0  0  0  0
  152.9538  141.4931  160.0643 C   0  0  0  0  0  0  0  0  0  0  0  0
  151.8440  141.5339  159.2390 N   0  0  0  0  0  0  0  0  0  0  0  0
  151.1522  142.8330  158.8854 C   0  0  2  0  0  0  0  0  0  0  0  0
  152.1127  143.7669  158.1264 C   0  0  0  0  0  0  0  0  0  0  0  0
  151.9727  145.0726  158.8826 C   0  0  0  0  0  0  0  0  0  0  0  0
  151.6498  144.5880  160.2880 C   0  0  0  0  0  0  0  0  0  0  0  0
  150.7652  143.5001  160.0535 O   0  0  0  0  0  0  0  0  0  0  0  0
  151.3222  140.3328  158.7118 C   0  0  0  0  0  0  0  0  0  0  0  0
  150.3255  140.3475  157.9857 O   0  0  0  0  0  0  0  0  0  0  0  0
  149.3658  136.4360  158.5957 N   0  0  0  0  0  0  0  0  0  0  0  0
  149.9885  135.4763  157.8656 N   0  0  0  0  0  0  0  0  0  0  0  0
  149.1768  134.5103  157.6399 C   0  0  0  0  0  0  0  0  0  0  0  0
  149.5188  133.2854  156.8832 C   0  0  0  0  0  0  0  0  0  0  0  0
  150.8405  133.1028  156.4166 C   0  0  0  0  0  0  0  0  0  0  0  0
  151.1678  131.9334  155.7026 C   0  0  0  0  0  0  0  0  0  0  0  0
  150.1834  130.9556  155.4551 C   0  0  0  0  0  0  0  0  0  0  0  0
  150.5911  129.5246  154.5817 Cl  0  0  0  0  0  0  0  0  0  0  0  0
  148.8663  131.1442  155.9203 C   0  0  0  0  0  0  0  0  0  0  0  0
  148.5272  132.3090  156.6362 C   0  0  0  0  0  0  0  0  0  0  0  0
  147.8207  134.7134  158.2266 C   0  0  0  0  0  0  0  0  0  0  0  0
  147.9856  136.0627  158.9295 C   0  0  1  0  0  0  0  0  0  0  0  0
  147.7361  135.9884  160.4075 C   0  0  0  0  0  0  0  0  0  0  0  0
  147.5819  134.9484  161.2817 C   0  0  0  0  0  0  0  0  0  0  0  0
  147.3780  135.5286  162.5641 C   0  0  0  0  0  0  0  0  0  0  0  0
  147.4297  136.8807  162.3786 C   0  0  0  0  0  0  0  0  0  0  0  0
  147.6526  137.1781  161.0703 O   0  0  0  0  0  0  0  0  0  0  0  0
  152.0054  137.0038  158.8659 H   0  0  0  0  0  0  0  0  0  0  0  0
  151.4970  137.8046  157.4287 H   0  0  0  0  0  0  0  0  0  0  0  0
  153.3527  142.4076  160.4752 H   0  0  0  0  0  0  0  0  0  0  0  0
  150.2604  142.5536  158.3214 H   0  0  0  0  0  0  0  0  0  0  0  0
  153.1360  143.3947  158.1982 H   0  0  0  0  0  0  0  0  0  0  0  0
  151.8360  143.8443  157.0746 H   0  0  0  0  0  0  0  0  0  0  0  0
  152.8699  145.6905  158.8393 H   0  0  0  0  0  0  0  0  0  0  0  0
  151.1373  145.6502  158.4849 H   0  0  0  0  0  0  0  0  0  0  0  0
  152.5511  144.2389  160.7936 H   0  0  0  0  0  0  0  0  0  0  0  0
  151.1847  145.3575  160.9043 H   0  0  0  0  0  0  0  0  0  0  0  0
  151.6098  133.8397  156.5976 H   0  0  0  0  0  0  0  0  0  0  0  0
  152.1768  131.7868  155.3462 H   0  0  0  0  0  0  0  0  0  0  0  0
  148.1132  130.3937  155.7294 H   0  0  0  0  0  0  0  0  0  0  0  0
  147.5114  132.4289  156.9819 H   0  0  0  0  0  0  0  0  0  0  0  0
  147.0557  134.7573  157.4507 H   0  0  0  0  0  0  0  0  0  0  0  0
  147.5695  133.9115  158.9225 H   0  0  0  0  0  0  0  0  0  0  0  0
  147.3077  136.7915  158.4817 H   0  0  0  0  0  0  0  0  0  0  0  0
  147.6082  133.8991  161.0276 H   0  0  0  0  0  0  0  0  0  0  0  0
  147.2146  135.0214  163.5035 H   0  0  0  0  0  0  0  0  0  0  0  0
  147.3340  137.7329  163.0351 H   0  0  0  0  0  0  0  0  0  0  0  0
  1  2  2  0  0  0  0
  2  3  1  0  0  0  0
  2 18  1  0  0  0  0
  3  4  1  0  0  0  0
  3 35  1  0  0  0  0
  3 36  1  0  0  0  0
  4 16  1  0  0  0  0
  4  5  1  0  0  0  0
  5  6  2  0  0  0  0
  5  7  1  0  0  0  0
  7  8  1  0  0  0  0
  7  9  2  0  0  0  0
  9 10  1  0  0  0  0
  9 37  1  0  0  0  0
 10 11  1  0  0  0  0
 10 16  1  0  0  0  0
 11 15  1  0  0  0  0
 11 12  1  0  0  0  0
 11 38  1  0  0  0  0
 12 13  1  0  0  0  0
 12 39  1  0  0  0  0
 12 40  1  0  0  0  0
 13 14  1  0  0  0  0
 13 41  1  0  0  0  0
 13 42  1  0  0  0  0
 14 15  1  0  0  0  0
 14 43  1  0  0  0  0
 14 44  1  0  0  0  0
 16 17  2  0  0  0  0
 18 29  1  0  0  0  0
 18 19  1  0  0  0  0
 19 20  2  0  0  0  0
 20 21  1  0  0  0  0
 20 28  1  0  0  0  0
 21 27  1  0  0  0  0
 21 22  2  0  0  0  0
 22 23  1  0  0  0  0
 22 45  1  0  0  0  0
 23 24  2  0  0  0  0
 23 46  1  0  0  0  0
 24 25  1  0  0  0  0
 24 26  1  0  0  0  0
 26 27  2  0  0  0  0
 26 47  1  0  0  0  0
 27 48  1  0  0  0  0
 28 29  1  0  0  0  0
 28 49  1  0  0  0  0
 28 50  1  0  0  0  0
 29 30  1  0  0  0  0
 29 51  1  0  0  0  0
 30 34  1  0  0  0  0
 30 31  2  0  0  0  0
 31 32  1  0  0  0  0
 31 52  1  0  0  0  0
 32 33  2  0  0  0  0
 32 53  1  0  0  0  0
 33 34  1  0  0  0  0
 33 54  1  0  0  0  0
M  END
> <s_m_source_file>
AV-unprocessed.smi

> <i_m_source_file_index>
136

> <i_lp_mmshare_version>
43012

> <i_f3d_flags>
0

> <s_epik_input>
bzFbY0hdW2NIXVtjSF1jMVtDQEBIXTJbQ0gyXUMoYzNbY0hdW2NIXWMoQ2wpW2NIXVtjSF0zKT1OTjJDKD1PKVtDSDJdbjRjKD1PKWMoRilbY0hdbihjND1PKVtDQEBIXTVbQ0gyXVtDSDJdW0NIMl1PNQ==

> <s_epik_cmdline>
J2VwaWtfcHl0aG9uJywgJy1waCcsICc3LjAnLCAnLXRuJywgJzgnLCAnLW1hJywgJzIwMCcsICctbWV0YWxfYmluZGluZycsICctaW1hZScsICc8aW5maWxlLm1hZT4nLCAnLW9tYWUnLCAnPG91dGZpbGUubWFlPic=

> <r_lp_tautomer_probability>
1

> <r_epik_Ionization_Penalty>
2.55467e-08

> <r_epik_Ionization_Penalty_Charging>
4.85705e-09

> <r_epik_Ionization_Penalty_Neutral>
2.06897e-08

> <r_epik_State_Penalty>
-0

> <r_epik_Charging_Adjusted_Penalty>
4.85705e-09

> <i_epik_Tot_Q>
0

> <i_epik_Tot_abs_Q>
0

> <r_epik_Metal_State_Penalty>
-0

> <b_epik_Metal_Only>
0

> <s_epik_Chemistry_Notes>
This compound has an imine and may undergo hydrolysis. This compound contains an acetal/aminal-like group ( X-CH(R)-Y where X, Y are N, S, or O) that may be acid/base labile, releasing an aldehyde.

> <s_lp_Force_Field>
OPLS_2005

> <r_lp_Energy>
40.8333

> <b_lp_Chiralities_Consistent>
1

> <s_lp_Variant>
AV-unprocessed.smi:136-1

> <Gold.Version>
5.8.1

> <Gold.Id.Protein>
6NUR|6NUR_protein|mol2

> <Gold.PLP.Fitness>
62.5072

> <Gold.PLP.PLP>
-59.5842

> <Gold.PLP.part.hbond>
-5.9838

> <Gold.PLP.part.metal>
0.0000

> <Gold.PLP.part.buried>
-3.5923

> <Gold.PLP.part.nonpolar>
-50.8940

> <Gold.PLP.part.repulsive>
0.0734

> <Gold.PLP.ligand.clash>
0.0000

> <Gold.PLP.ligand.torsion>
0.3573

> <Gold.PLP.Chemscore.Hbond>
1.1688

> <Gold.PLP.Chemscore.CHOScore>
0.0000

> <Gold.PLP.Chemscore.Metal>
0.0000

> <Gold.Chemscore.Hbonds>
donor molecule, donor type, donor heavy atom, donor atom, acceptor molecule, acceptor atom, score
      P1  H  6896  6909       L1    19  0.31
      P1  H  6934  6947       L1    34  0.90

> <Gold.PLP.Chemscore.Internal.Correction>
0.1310

> <Gold.Rescore>
     Score         DG    S(hbond)    S(metal)    S(lipo)     H(rot)  DE(clash)    DE(int)     intcor
     14.49     -18.96       0.71        0.00     134.36       1.81       2.10       2.36       ----

> <Gold.Chemscore.Fitness>
14.4938

> <Gold.Chemscore.DG>
-18.9589

> <Gold.Chemscore.ZeroCoef>
-5.4800

> <Gold.Chemscore.Hbond>
0.7128

> <Gold.Chemscore.Metal>
0.0000

> <Gold.Chemscore.Lipo>
134.3621

> <Gold.Chemscore.Internal_Hbond>
0.0000

> <Gold.Chemscore.DEClash>
2.1028

> <Gold.Chemscore.DEInternal>
2.3624

> <Gold.Chemscore.Rot>
1.8056

> <Gold.Chemscore.Internal.Correction>
   9.000000E+99

> <Gold.Chemscore.Hbonds>
donor molecule, donor type, donor heavy atom, donor atom, acceptor molecule, acceptor atom, score
      P1  H  6934  6947       L1    34  0.39

> <Gold.Chemscore.Hbond.Weighted>
-2.3809

> <Gold.Chemscore.Metal.Weighted>
-0.0000

> <Gold.Chemscore.Lipo.Weighted>
-15.7204

> <Gold.Chemscore.Internal_Hbond.Weighted>
0.0000

> <Gold.Chemscore.DEClash.Weighted>
2.1028

> <Gold.Chemscore.DEInternal.Weighted>
2.3624

> <Gold.Chemscore.Rot.Weighted>
4.6223

> <Gold.Chemscore.Internal.Correction.Weighted>
   9.000000E+99

> <Gold.Protein.RotatedTorsions>
[ 6907 6896 6895 6894 ] final   47.43 input  -60.11 | X-H torsion
[ 7974 7965 7964 7962 ] final   45.88 input  175.53 | X-H torsion
[ 8008 7997 7996 7995 ] final  -16.21 input   59.86 | X-H torsion
[ 10167 10162 10161 10158 ] final   81.93 input  -65.29 | X-H torsion
[ 10718 10713 10712 10709 ] final  172.32 input   66.30 | X-H torsion
[ 10763 10752 10751 10750 ] final  -79.17 input  -60.55 | X-H torsion
[ 11005 11000 10999 10996 ] final  -97.23 input  -57.11 | X-H torsion

> <Gold.Protein.ActiveResidues>
 VAL166  LYS551  ARG553  GLY616  TRP617  ASP618  TYR619  PRO620  LYS621  CYS622 
 ASP623  PHE694  ASN695  SER759  ASP760  ASP761  ALA762  ILE779  LEU786  VAL792 
 PHE793  MET794  SER795  GLU796  ALA797  LYS798  CYS799  TRP800  GLU811  SER814 

> <Gold.Protein.RotatedAtoms>
  152.2680  134.7964  160.0419 H   0  0  0  0  0  0  0  0  0  0  0  0  # atno 6907 bound_to 6896
  151.8587  133.3448  159.3705 H   0  0  0  0  0  0  0  0  0  0  0  0  # atno 6908 bound_to 6896
  150.7141  134.5156  159.5672 H   0  0  0  0  0  0  0  0  0  0  0  0  # atno 6909 bound_to 6896
  146.0441  139.4917  142.9760 H   0  0  0  0  0  0  0  0  0  0  0  0  # atno 7974 bound_to 7965
  154.5071  140.2175  155.9230 H   0  0  0  0  0  0  0  0  0  0  0  0  # atno 8008 bound_to 7997
  156.1506  140.3162  155.8609 H   0  0  0  0  0  0  0  0  0  0  0  0  # atno 8009 bound_to 7997
  155.3945  140.0480  157.3030 H   0  0  0  0  0  0  0  0  0  0  0  0  # atno 8010 bound_to 7997
  139.9341  144.6133  150.8316 H   0  0  0  0  0  0  0  0  0  0  0  0  # atno 10167 bound_to 10162
  156.9806  131.0118  151.2882 H   0  0  0  0  0  0  0  0  0  0  0  0  # atno 10718 bound_to 10713
  154.5353  135.5704  153.6793 H   0  0  0  0  0  0  0  0  0  0  0  0  # atno 10763 bound_to 10752
  152.9949  135.6214  154.2575 H   0  0  0  0  0  0  0  0  0  0  0  0  # atno 10764 bound_to 10752
  154.2503  135.2859  155.2799 H   0  0  0  0  0  0  0  0  0  0  0  0  # atno 10765 bound_to 10752
  141.1386  133.8156  157.0678 H   0  0  0  0  0  0  0  0  0  0  0  0  # atno 11005 bound_to 11000
  145.6836  141.0184  143.1593 LP  0  0  0  0  0  0  0  0  0  0  0  0  # atno 17320 bound_to 7965
  144.7089  139.8450  143.7421 LP  0  0  0  0  0  0  0  0  0  0  0  0  # atno 17321 bound_to 7965
  140.7629  143.3210  151.2622 LP  0  0  0  0  0  0  0  0  0  0  0  0  # atno 17342 bound_to 10162
  139.6758  143.9941  152.2780 LP  0  0  0  0  0  0  0  0  0  0  0  0  # atno 17343 bound_to 10162
  157.5528  130.8194  149.8167 LP  0  0  0  0  0  0  0  0  0  0  0  0  # atno 17370 bound_to 10713
  156.0246  130.3784  150.1862 LP  0  0  0  0  0  0  0  0  0  0  0  0  # atno 17371 bound_to 10713
  140.0530  134.9795  157.1170 LP  0  0  0  0  0  0  0  0  0  0  0  0  # atno 17394 bound_to 11000
  140.3961  134.2132  155.7164 LP  0  0  0  0  0  0  0  0  0  0  0  0  # atno 17395 bound_to 11000

$$$$
