AV-unprocessed.smi:148|AV-procd|sdf|1221|dock1
  -GOLD-   2262018413D 1   1.00000     0.00000
 Structure written by MMmdl.
 63 67  0  0  0  0  0  0  0  0  1 V2000
  148.9518  136.5860  154.7294 O   0  0  0  0  0  0  0  0  0  0  0  0
  149.1102  135.1949  154.9147 C   0  0  0  0  0  0  0  0  0  0  0  0
  150.2260  134.8863  155.9439 C   0  0  1  0  0  0  0  0  0  0  0  0
  149.8090  135.2535  157.3930 C   0  0  0  0  0  0  0  0  0  0  0  0
  150.2691  136.5682  157.8041 N   0  0  0  0  0  0  0  0  0  0  0  0
  149.6847  137.3878  158.7422 C   0  0  0  0  0  0  0  0  0  0  0  0
  150.2941  138.5244  158.9426 N   0  0  0  0  0  0  0  0  0  0  0  0
  151.3823  138.4841  158.0783 C   0  0  0  0  0  0  0  0  0  0  0  0
  152.4603  139.3688  157.7870 C   0  0  0  0  0  0  0  0  0  0  0  0
  152.6600  140.5736  158.3704 N   0  0  0  0  0  0  0  0  0  0  0  0
  151.6127  141.4997  157.9355 C   0  0  0  0  0  0  0  0  0  0  0  0
  151.9170  142.9415  158.3628 C   0  0  0  0  0  0  0  0  0  0  0  0
  152.1556  143.0108  159.8744 C   0  0  0  0  0  0  0  0  0  0  0  0
  153.2806  142.0434  160.2616 C   0  0  0  0  0  0  0  0  0  0  0  0
  152.9626  140.5920  159.8144 C   0  0  2  0  0  0  0  0  0  0  0  0
  154.0597  139.5646  160.2458 C   0  0  2  0  0  0  0  0  0  0  0  0
  153.5776  138.0975  160.2659 C   0  0  0  0  0  0  0  0  0  0  0  0
  154.1681  137.4542  161.5282 C   0  0  0  0  0  0  0  0  0  0  0  0
  155.2666  138.4065  161.9950 C   0  0  0  0  0  0  0  0  0  0  0  0
  154.7304  139.7860  161.6176 C   0  0  1  0  0  0  0  0  0  0  0  0
  155.7775  140.7319  161.5674 O   0  0  0  0  0  0  0  0  0  0  0  0
  153.3493  138.9943  156.8341 N   0  0  0  0  0  0  0  0  0  0  0  0
  153.2170  137.8138  156.2220 C   0  0  0  0  0  0  0  0  0  0  0  0
  152.2807  136.8802  156.4029 N   0  0  0  0  0  0  0  0  0  0  0  0
  151.3731  137.2643  157.3456 C   0  0  0  0  0  0  0  0  0  0  0  0
  150.7470  133.4281  155.7984 C   0  0  1  0  0  0  0  0  0  0  0  0
  151.9430  133.0396  156.6494 C   0  0  0  0  0  0  0  0  0  0  0  0
  151.9294  131.5221  156.5038 C   0  0  0  0  0  0  0  0  0  0  0  0
  150.5522  131.1631  156.4495 O   0  0  0  0  0  0  0  0  0  0  0  0
  149.7581  132.3028  156.1252 C   0  0  0  0  0  0  0  0  0  0  0  0
  148.9882  136.7721  153.8034 H   0  0  0  0  0  0  0  0  0  0  0  0
  148.1451  134.8137  155.2470 H   0  0  0  0  0  0  0  0  0  0  0  0
  149.3234  134.7230  153.9552 H   0  0  0  0  0  0  0  0  0  0  0  0
  151.0644  135.5397  155.6964 H   0  0  0  0  0  0  0  0  0  0  0  0
  148.7262  135.2248  157.5068 H   0  0  0  0  0  0  0  0  0  0  0  0
  150.2139  134.5371  158.1066 H   0  0  0  0  0  0  0  0  0  0  0  0
  148.7889  137.1114  159.2795 H   0  0  0  0  0  0  0  0  0  0  0  0
  151.5036  141.4621  156.8503 H   0  0  0  0  0  0  0  0  0  0  0  0
  150.6578  141.1850  158.3599 H   0  0  0  0  0  0  0  0  0  0  0  0
  152.7986  143.3033  157.8319 H   0  0  0  0  0  0  0  0  0  0  0  0
  151.0923  143.5966  158.0813 H   0  0  0  0  0  0  0  0  0  0  0  0
  152.4152  144.0282  160.1679 H   0  0  0  0  0  0  0  0  0  0  0  0
  151.2411  142.7517  160.4095 H   0  0  0  0  0  0  0  0  0  0  0  0
  154.1997  142.3960  159.7954 H   0  0  0  0  0  0  0  0  0  0  0  0
  153.4406  142.0994  161.3372 H   0  0  0  0  0  0  0  0  0  0  0  0
  152.0439  140.3070  160.3272 H   0  0  0  0  0  0  0  0  0  0  0  0
  154.8591  139.5670  159.5045 H   0  0  0  0  0  0  0  0  0  0  0  0
  152.4931  137.9998  160.2621 H   0  0  0  0  0  0  0  0  0  0  0  0
  153.9348  137.5815  159.3737 H   0  0  0  0  0  0  0  0  0  0  0  0
  153.3964  137.3883  162.2964 H   0  0  0  0  0  0  0  0  0  0  0  0
  154.5406  136.4453  161.3488 H   0  0  0  0  0  0  0  0  0  0  0  0
  155.4797  138.3135  163.0604 H   0  0  0  0  0  0  0  0  0  0  0  0
  156.1878  138.1947  161.4495 H   0  0  0  0  0  0  0  0  0  0  0  0
  154.0103  140.0920  162.3739 H   0  0  0  0  0  0  0  0  0  0  0  0
  156.2155  140.7400  162.4052 H   0  0  0  0  0  0  0  0  0  0  0  0
  153.9704  137.5832  155.4834 H   0  0  0  0  0  0  0  0  0  0  0  0
  151.0591  133.2871  154.7621 H   0  0  0  0  0  0  0  0  0  0  0  0
  152.8765  133.4900  156.3112 H   0  0  0  0  0  0  0  0  0  0  0  0
  151.7963  133.2960  157.6977 H   0  0  0  0  0  0  0  0  0  0  0  0
  152.4060  131.2246  155.5688 H   0  0  0  0  0  0  0  0  0  0  0  0
  152.4428  131.0168  157.3221 H   0  0  0  0  0  0  0  0  0  0  0  0
  149.1419  132.5378  156.9917 H   0  0  0  0  0  0  0  0  0  0  0  0
  149.0908  132.0883  155.2901 H   0  0  0  0  0  0  0  0  0  0  0  0
  1  2  1  0  0  0  0
  1 31  1  0  0  0  0
  2  3  1  0  0  0  0
  2 32  1  0  0  0  0
  2 33  1  0  0  0  0
  3  4  1  0  0  0  0
  3 26  1  0  0  0  0
  3 34  1  0  0  0  0
  4  5  1  0  0  0  0
  4 35  1  0  0  0  0
  4 36  1  0  0  0  0
  5 25  1  0  0  0  0
  5  6  1  0  0  0  0
  6  7  2  0  0  0  0
  6 37  1  0  0  0  0
  7  8  1  0  0  0  0
  8 25  2  0  0  0  0
  8  9  1  0  0  0  0
  9 10  1  0  0  0  0
  9 22  2  0  0  0  0
 10 15  1  0  0  0  0
 10 11  1  0  0  0  0
 11 12  1  0  0  0  0
 11 38  1  0  0  0  0
 11 39  1  0  0  0  0
 12 13  1  0  0  0  0
 12 40  1  0  0  0  0
 12 41  1  0  0  0  0
 13 14  1  0  0  0  0
 13 42  1  0  0  0  0
 13 43  1  0  0  0  0
 14 15  1  0  0  0  0
 14 44  1  0  0  0  0
 14 45  1  0  0  0  0
 15 16  1  0  0  0  0
 15 46  1  0  0  0  0
 16 20  1  0  0  0  0
 16 17  1  0  0  0  0
 16 47  1  0  0  0  0
 17 18  1  0  0  0  0
 17 48  1  0  0  0  0
 17 49  1  0  0  0  0
 18 19  1  0  0  0  0
 18 50  1  0  0  0  0
 18 51  1  0  0  0  0
 19 20  1  0  0  0  0
 19 52  1  0  0  0  0
 19 53  1  0  0  0  0
 20 21  1  0  0  0  0
 20 54  1  0  0  0  0
 21 55  1  0  0  0  0
 22 23  1  0  0  0  0
 23 24  2  0  0  0  0
 23 56  1  0  0  0  0
 24 25  1  0  0  0  0
 26 30  1  0  0  0  0
 26 27  1  0  0  0  0
 26 57  1  0  0  0  0
 27 28  1  0  0  0  0
 27 58  1  0  0  0  0
 27 59  1  0  0  0  0
 28 29  1  0  0  0  0
 28 60  1  0  0  0  0
 28 61  1  0  0  0  0
 29 30  1  0  0  0  0
 30 62  1  0  0  0  0
 30 63  1  0  0  0  0
M  END
> <s_m_source_file>
AV-unprocessed.smi

> <i_m_source_file_index>
148

> <i_lp_mmshare_version>
43012

> <i_f3d_flags>
0

> <s_epik_input>
W0NIMl0xT1tDSDJdW0NIMl1bQ0BIXTFbQ0BIXShbQ0gyXVtPSF0pW0NIMl1uKFtjSF1uMiljKGMyMyluW2NIXW5jM040W0NIMl1bQ0gyXVtDSDJdW0NIMl1bQ0BIXTRbQ0BASF01W0NIMl1bQ0gyXVtDSDJdW0NASF01W09IXQ==

> <s_epik_cmdline>
J2VwaWtfcHl0aG9uJywgJy1waCcsICc3LjAnLCAnLXRuJywgJzgnLCAnLW1hJywgJzIwMCcsICctbWV0YWxfYmluZGluZycsICctaW1hZScsICc8aW5maWxlLm1hZT4nLCAnLW9tYWUnLCAnPG91dGZpbGUubWFlPic=

> <r_lp_tautomer_probability>
1

> <r_epik_Ionization_Penalty>
0.00556303

> <r_epik_Ionization_Penalty_Charging>
0

> <r_epik_Ionization_Penalty_Neutral>
0.00556303

> <r_epik_State_Penalty>
0.00401767

> <r_epik_Charging_Adjusted_Penalty>
0.00401767

> <i_epik_Tot_Q>
0

> <i_epik_Tot_abs_Q>
0

> <r_epik_Metal_State_Penalty>
-0

> <b_epik_Metal_Only>
0

> <s_lp_Force_Field>
OPLS_2005

> <r_lp_Energy>
68.4806

> <b_lp_Chiralities_Consistent>
1

> <s_lp_Variant>
AV-unprocessed.smi:148-20

> <Gold.Version>
5.8.1

> <Gold.Id.Protein>
6NUR|6NUR_protein|mol2

> <Gold.PLP.Fitness>
47.9014

> <Gold.PLP.PLP>
-42.4623

> <Gold.PLP.part.hbond>
-4.2506

> <Gold.PLP.part.metal>
0.0000

> <Gold.PLP.part.buried>
-4.5912

> <Gold.PLP.part.nonpolar>
-33.5940

> <Gold.PLP.part.repulsive>
0.0000

> <Gold.PLP.ligand.clash>
0.0000

> <Gold.PLP.ligand.torsion>
1.5109

> <Gold.PLP.Chemscore.Hbond>
2.5641

> <Gold.PLP.Chemscore.CHOScore>
0.0000

> <Gold.PLP.Chemscore.Metal>
0.0000

> <Gold.Chemscore.Hbonds>
donor molecule, donor type, donor heavy atom, donor atom, acceptor molecule, acceptor atom, score
      L1  H     1    31       P1  7948  1.00
      P1  H  7997  8009       L1    22  0.99
      P1  H 10752 10763       L1    24  0.57

> <Gold.PLP.Chemscore.Internal.Correction>
0.7688

> <Gold.Rescore>
     Score         DG    S(hbond)    S(metal)    S(lipo)     H(rot)  DE(clash)    DE(int)     intcor
     11.82     -17.02       1.99        0.00     114.60       3.32       1.53       3.68       ----

> <Gold.Chemscore.Fitness>
11.8181

> <Gold.Chemscore.DG>
-17.0242

> <Gold.Chemscore.ZeroCoef>
-5.4800

> <Gold.Chemscore.Hbond>
1.9870

> <Gold.Chemscore.Metal>
0.0000

> <Gold.Chemscore.Lipo>
114.5961

> <Gold.Chemscore.Internal_Hbond>
0.0000

> <Gold.Chemscore.DEClash>
1.5285

> <Gold.Chemscore.DEInternal>
3.6776

> <Gold.Chemscore.Rot>
3.3203

> <Gold.Chemscore.Internal.Correction>
   9.000000E+99

> <Gold.Chemscore.Hbonds>
donor molecule, donor type, donor heavy atom, donor atom, acceptor molecule, acceptor atom, score
      L1  H     1    31       P1  7948  0.93
      P1  H  7997  8009       L1    22  0.54
      P1  H 10752 10763       L1    24  0.07

> <Gold.Chemscore.Hbond.Weighted>
-6.6365

> <Gold.Chemscore.Metal.Weighted>
-0.0000

> <Gold.Chemscore.Lipo.Weighted>
-13.4077

> <Gold.Chemscore.Internal_Hbond.Weighted>
0.0000

> <Gold.Chemscore.DEClash.Weighted>
1.5285

> <Gold.Chemscore.DEInternal.Weighted>
3.6776

> <Gold.Chemscore.Rot.Weighted>
8.5000

> <Gold.Chemscore.Internal.Correction.Weighted>
   9.000000E+99

> <Gold.Protein.RotatedTorsions>
[ 6907 6896 6895 6894 ] final   89.42 input  -60.11 | X-H torsion
[ 7974 7965 7964 7962 ] final -170.27 input  175.53 | X-H torsion
[ 8008 7997 7996 7995 ] final  166.67 input   59.86 | X-H torsion
[ 10167 10162 10161 10158 ] final    1.38 input  -65.29 | X-H torsion
[ 10718 10713 10712 10709 ] final  -92.35 input   66.30 | X-H torsion
[ 10763 10752 10751 10750 ] final   87.58 input  -60.55 | X-H torsion
[ 11005 11000 10999 10996 ] final  117.85 input  -57.11 | X-H torsion

> <Gold.Protein.ActiveResidues>
 VAL166  LYS551  ARG553  GLY616  TRP617  ASP618  TYR619  PRO620  LYS621  CYS622 
 ASP623  PHE694  ASN695  SER759  ASP760  ASP761  ALA762  ILE779  LEU786  VAL792 
 PHE793  MET794  SER795  GLU796  ALA797  LYS798  CYS799  TRP800  GLU811  SER814 

> <Gold.Protein.RotatedAtoms>
  152.5436  134.1970  159.8696 H   0  0  0  0  0  0  0  0  0  0  0  0  # atno 6907 bound_to 6896
  151.1961  133.4631  159.2603 H   0  0  0  0  0  0  0  0  0  0  0  0  # atno 6908 bound_to 6896
  151.1035  134.9998  159.8515 H   0  0  0  0  0  0  0  0  0  0  0  0  # atno 6909 bound_to 6896
  144.7172  140.2096  143.6329 H   0  0  0  0  0  0  0  0  0  0  0  0  # atno 7974 bound_to 7965
  156.1699  140.1637  156.8466 H   0  0  0  0  0  0  0  0  0  0  0  0  # atno 8008 bound_to 7997
  154.5245  140.0770  156.8268 H   0  0  0  0  0  0  0  0  0  0  0  0  # atno 8009 bound_to 7997
  155.3535  140.3391  155.4242 H   0  0  0  0  0  0  0  0  0  0  0  0  # atno 8010 bound_to 7997
  140.6685  143.7113  150.7875 H   0  0  0  0  0  0  0  0  0  0  0  0  # atno 10167 bound_to 10162
  156.0001  130.4983  150.5611 H   0  0  0  0  0  0  0  0  0  0  0  0  # atno 10718 bound_to 10713
  153.1682  135.4538  154.9866 H   0  0  0  0  0  0  0  0  0  0  0  0  # atno 10763 bound_to 10752
  154.7947  135.3233  154.7697 H   0  0  0  0  0  0  0  0  0  0  0  0  # atno 10764 bound_to 10752
  153.8177  135.6949  153.4886 H   0  0  0  0  0  0  0  0  0  0  0  0  # atno 10765 bound_to 10752
  139.9089  134.9614  156.7414 H   0  0  0  0  0  0  0  0  0  0  0  0  # atno 11005 bound_to 11000
  145.8603  139.2219  143.1720 LP  0  0  0  0  0  0  0  0  0  0  0  0  # atno 17320 bound_to 7965
  146.0180  140.8375  142.9938 LP  0  0  0  0  0  0  0  0  0  0  0  0  # atno 17321 bound_to 7965
  140.0795  143.4983  152.2538 LP  0  0  0  0  0  0  0  0  0  0  0  0  # atno 17342 bound_to 10162
  139.5943  144.7561  151.3323 LP  0  0  0  0  0  0  0  0  0  0  0  0  # atno 17343 bound_to 10162
  157.3520  131.0735  151.1705 LP  0  0  0  0  0  0  0  0  0  0  0  0  # atno 17370 bound_to 10713
  157.2518  130.6617  149.5935 LP  0  0  0  0  0  0  0  0  0  0  0  0  # atno 17371 bound_to 10713
  140.6846  133.9444  155.7930 LP  0  0  0  0  0  0  0  0  0  0  0  0  # atno 17394 bound_to 11000
  141.0485  134.0519  157.3813 LP  0  0  0  0  0  0  0  0  0  0  0  0  # atno 17395 bound_to 11000

$$$$
