AV-unprocessed.smi:3279|AV-procd|sdf|12550|dock1
  -GOLD-   2272018463D 1   1.00000     0.00000
 Structure written by MMmdl.
 36 36  0  0  0  0  0  0  0  0  1 V2000
  148.5293  138.9641  153.8007 C   0  0  0  0  0  0  0  0  0  0  0  0
  149.3126  139.7301  154.8815 C   0  0  2  0  0  0  0  0  0  0  0  0
  149.0713  141.2550  154.8601 C   0  0  0  0  0  0  0  0  0  0  0  0
  150.0469  141.9911  155.6593 N   0  0  0  0  0  0  0  0  0  0  0  0
  150.3165  141.7771  156.9567 C   0  0  0  0  0  0  0  0  0  0  0  0
  149.7787  140.8969  157.6280 O   0  0  0  0  0  0  0  0  0  0  0  0
  151.3663  142.6878  157.5875 C   0  0  0  0  0  0  0  0  0  0  0  0
  150.7519  143.4133  158.6484 O   0  0  0  0  0  0  0  0  0  0  0  0
  151.5685  144.2903  159.4287 C   0  0  0  0  0  0  0  0  0  0  0  0
  152.4364  145.1755  158.5130 C   0  0  0  0  0  0  0  0  0  0  0  0
  152.4367  143.5102  160.4366 C   0  0  0  0  0  0  0  0  0  0  0  0
  150.5636  145.1694  160.1902 C   0  0  0  0  0  0  0  0  0  0  0  0
  150.7756  139.4192  154.8006 C   0  0  0  0  0  0  0  0  0  0  0  0
  151.7717  140.2970  154.8277 N   0  0  0  0  0  0  0  0  0  0  0  0
  152.9071  139.5103  154.7220 N   0  0  0  0  0  0  0  0  0  0  0  0
  152.6033  138.2460  154.6361 N   0  0  0  0  0  0  0  0  0  0  0  0
  151.2539  138.1782  154.6847 N   0  0  0  0  0  0  0  0  0  0  0  0
  150.7376  137.3117  154.6367 H   0  0  0  0  0  0  0  0  0  0  0  0
  148.7264  137.8933  153.8621 H   0  0  0  0  0  0  0  0  0  0  0  0
  148.8084  139.2963  152.8004 H   0  0  0  0  0  0  0  0  0  0  0  0
  147.4537  139.0998  153.9086 H   0  0  0  0  0  0  0  0  0  0  0  0
  148.9638  139.3616  155.8476 H   0  0  0  0  0  0  0  0  0  0  0  0
  149.1592  141.6204  153.8363 H   0  0  0  0  0  0  0  0  0  0  0  0
  148.0522  141.4861  155.1754 H   0  0  0  0  0  0  0  0  0  0  0  0
  150.5423  142.7396  155.1964 H   0  0  0  0  0  0  0  0  0  0  0  0
  152.1917  142.0774  157.9542 H   0  0  0  0  0  0  0  0  0  0  0  0
  151.7545  143.3507  156.8148 H   0  0  0  0  0  0  0  0  0  0  0  0
  152.9513  145.9457  159.0886 H   0  0  0  0  0  0  0  0  0  0  0  0
  151.8291  145.6786  157.7600 H   0  0  0  0  0  0  0  0  0  0  0  0
  153.2043  144.6027  157.9937 H   0  0  0  0  0  0  0  0  0  0  0  0
  153.2090  142.9210  159.9420 H   0  0  0  0  0  0  0  0  0  0  0  0
  151.8306  142.8311  161.0372 H   0  0  0  0  0  0  0  0  0  0  0  0
  152.9461  144.1891  161.1212 H   0  0  0  0  0  0  0  0  0  0  0  0
  151.0709  145.8977  160.8238 H   0  0  0  0  0  0  0  0  0  0  0  0
  149.9196  144.5667  160.8316 H   0  0  0  0  0  0  0  0  0  0  0  0
  149.9196  145.7205  159.5037 H   0  0  0  0  0  0  0  0  0  0  0  0
  1  2  1  0  0  0  0
  1 19  1  0  0  0  0
  1 20  1  0  0  0  0
  1 21  1  0  0  0  0
  2  3  1  0  0  0  0
  2 13  1  0  0  0  0
  2 22  1  0  0  0  0
  3  4  1  0  0  0  0
  3 23  1  0  0  0  0
  3 24  1  0  0  0  0
  4  5  1  0  0  0  0
  4 25  1  0  0  0  0
  5  6  2  0  0  0  0
  5  7  1  0  0  0  0
  7  8  1  0  0  0  0
  7 26  1  0  0  0  0
  7 27  1  0  0  0  0
  8  9  1  0  0  0  0
  9 10  1  0  0  0  0
  9 11  1  0  0  0  0
  9 12  1  0  0  0  0
 10 28  1  0  0  0  0
 10 29  1  0  0  0  0
 10 30  1  0  0  0  0
 11 31  1  0  0  0  0
 11 32  1  0  0  0  0
 11 33  1  0  0  0  0
 12 34  1  0  0  0  0
 12 35  1  0  0  0  0
 12 36  1  0  0  0  0
 13 17  1  0  0  0  0
 13 14  2  0  0  0  0
 14 15  1  0  0  0  0
 15 16  2  0  0  0  0
 16 17  1  0  0  0  0
 17 18  1  0  0  0  0
M  END
> <s_m_source_file>
AV-unprocessed.smi

> <i_m_source_file_index>
3279

> <i_lp_mmshare_version>
43012

> <i_f3d_flags>
0

> <s_epik_input>
W25IXTFubm5jMVtDQEhdKFtDSDNdKVtDSDJdW05IXUMoPU8pW0NIMl1PQyhbQ0gzXSkoW0NIM10pW0NIM10=

> <s_epik_cmdline>
J2VwaWtfcHl0aG9uJywgJy1waCcsICc3LjAnLCAnLXRuJywgJzgnLCAnLW1hJywgJzIwMCcsICctbWV0YWxfYmluZGluZycsICctaW1hZScsICc8aW5maWxlLm1hZT4nLCAnLW9tYWUnLCAnPG91dGZpbGUubWFlPic=

> <r_lp_tautomer_probability>
0.3

> <r_epik_Ionization_Penalty>
1.45055

> <r_epik_Ionization_Penalty_Charging>
0

> <r_epik_Ionization_Penalty_Neutral>
1.45055

> <r_epik_State_Penalty>
2.31845

> <r_epik_Charging_Adjusted_Penalty>
2.31845

> <i_epik_Tot_Q>
0

> <i_epik_Tot_abs_Q>
0

> <r_epik_Metal_State_Penalty>
2.36898

> <b_epik_Metal_Only>
0

> <s_lp_Force_Field>
OPLS_2005

> <r_lp_Energy>
6.97201

> <b_lp_Chiralities_Consistent>
1

> <s_lp_Variant>
AV-unprocessed.smi:3279-3

> <Gold.Version>
5.8.1

> <Gold.Id.Protein>
6NUR|6NUR_protein|mol2

> <Gold.PLP.Fitness>
39.2154

> <Gold.PLP.PLP>
-34.3591

> <Gold.PLP.part.hbond>
-4.0559

> <Gold.PLP.part.metal>
0.0000

> <Gold.PLP.part.buried>
-4.5313

> <Gold.PLP.part.nonpolar>
-25.3766

> <Gold.PLP.part.repulsive>
0.5250

> <Gold.PLP.ligand.clash>
0.0000

> <Gold.PLP.ligand.torsion>
0.4996

> <Gold.PLP.Chemscore.Hbond>
1.9120

> <Gold.PLP.Chemscore.CHOScore>
0.0000

> <Gold.PLP.Chemscore.Metal>
0.0000

> <Gold.Chemscore.Hbonds>
donor molecule, donor type, donor heavy atom, donor atom, acceptor molecule, acceptor atom, score
      P1  H  7989  7998       L1    14  0.69
      P1  H  7997  8009       L1    15  0.96

> <Gold.PLP.Chemscore.Internal.Correction>
0.1194

> <Gold.Rescore>
     Score         DG    S(hbond)    S(metal)    S(lipo)     H(rot)  DE(clash)    DE(int)     intcor
      8.91     -11.74       1.30        0.00      75.65       2.71       0.03       2.79       ----

> <Gold.Chemscore.Fitness>
8.9142

> <Gold.Chemscore.DG>
-11.7415

> <Gold.Chemscore.ZeroCoef>
-5.4800

> <Gold.Chemscore.Hbond>
1.3013

> <Gold.Chemscore.Metal>
0.0000

> <Gold.Chemscore.Lipo>
75.6518

> <Gold.Chemscore.Internal_Hbond>
0.0000

> <Gold.Chemscore.DEClash>
0.0350

> <Gold.Chemscore.DEInternal>
2.7923

> <Gold.Chemscore.Rot>
2.7094

> <Gold.Chemscore.Internal.Correction>
   9.000000E+99

> <Gold.Chemscore.Hbonds>
donor molecule, donor type, donor heavy atom, donor atom, acceptor molecule, acceptor atom, score
      P1  H  7989  7998       L1    14  0.08
      P1  H  7997  8009       L1    15  0.77

> <Gold.Chemscore.Hbond.Weighted>
-4.3462

> <Gold.Chemscore.Metal.Weighted>
-0.0000

> <Gold.Chemscore.Lipo.Weighted>
-8.8513

> <Gold.Chemscore.Internal_Hbond.Weighted>
0.0000

> <Gold.Chemscore.DEClash.Weighted>
0.0350

> <Gold.Chemscore.DEInternal.Weighted>
2.7923

> <Gold.Chemscore.Rot.Weighted>
6.9360

> <Gold.Chemscore.Internal.Correction.Weighted>
   9.000000E+99

> <Gold.Protein.RotatedTorsions>
[ 6907 6896 6895 6894 ] final -113.01 input  -60.11 | X-H torsion
[ 7974 7965 7964 7962 ] final  -65.01 input  175.53 | X-H torsion
[ 8008 7997 7996 7995 ] final -133.53 input   59.86 | X-H torsion
[ 10167 10162 10161 10158 ] final  -22.78 input  -65.29 | X-H torsion
[ 10718 10713 10712 10709 ] final   24.67 input   66.30 | X-H torsion
[ 10763 10752 10751 10750 ] final  -42.13 input  -60.55 | X-H torsion
[ 11005 11000 10999 10996 ] final -102.11 input  -57.11 | X-H torsion

> <Gold.Protein.ActiveResidues>
 VAL166  LYS551  ARG553  GLY616  TRP617  ASP618  TYR619  PRO620  LYS621  CYS622 
 ASP623  PHE694  ASN695  SER759  ASP760  ASP761  ALA762  ILE779  LEU786  VAL792 
 PHE793  MET794  SER795  GLU796  ALA797  LYS798  CYS799  TRP800  GLU811  SER814 

> <Gold.Protein.RotatedAtoms>
  150.7798  133.9007  159.3340 H   0  0  0  0  0  0  0  0  0  0  0  0  # atno 6907 bound_to 6896
  151.6872  135.0950  160.0236 H   0  0  0  0  0  0  0  0  0  0  0  0  # atno 6908 bound_to 6896
  152.3846  133.6555  159.6224 H   0  0  0  0  0  0  0  0  0  0  0  0  # atno 6909 bound_to 6896
  145.7596  140.8868  143.0437 H   0  0  0  0  0  0  0  0  0  0  0  0  # atno 7974 bound_to 7965
  155.3470  140.0475  157.3045 H   0  0  0  0  0  0  0  0  0  0  0  0  # atno 8008 bound_to 7997
  154.5247  140.2237  155.8876 H   0  0  0  0  0  0  0  0  0  0  0  0  # atno 8009 bound_to 7997
  156.1727  140.3092  155.9009 H   0  0  0  0  0  0  0  0  0  0  0  0  # atno 8010 bound_to 7997
  140.7287  143.4503  151.0526 H   0  0  0  0  0  0  0  0  0  0  0  0  # atno 10167 bound_to 10162
  157.1830  130.6811  149.6120 H   0  0  0  0  0  0  0  0  0  0  0  0  # atno 10718 bound_to 10713
  153.9739  135.6725  153.4748 H   0  0  0  0  0  0  0  0  0  0  0  0  # atno 10763 bound_to 10752
  153.0780  135.4938  154.8441 H   0  0  0  0  0  0  0  0  0  0  0  0  # atno 10764 bound_to 10752
  154.7203  135.3116  154.9019 H   0  0  0  0  0  0  0  0  0  0  0  0  # atno 10765 bound_to 10752
  141.1203  133.8532  157.1318 H   0  0  0  0  0  0  0  0  0  0  0  0  # atno 11005 bound_to 11000
  144.6833  139.9704  143.7482 LP  0  0  0  0  0  0  0  0  0  0  0  0  # atno 17320 bound_to 7965
  146.0277  139.3307  143.0774 LP  0  0  0  0  0  0  0  0  0  0  0  0  # atno 17321 bound_to 7965
  139.8179  143.7861  152.3175 LP  0  0  0  0  0  0  0  0  0  0  0  0  # atno 17342 bound_to 10162
  139.7933  144.7402  150.9925 LP  0  0  0  0  0  0  0  0  0  0  0  0  # atno 17343 bound_to 10162
  155.9722  130.4640  150.6203 LP  0  0  0  0  0  0  0  0  0  0  0  0  # atno 17370 bound_to 10713
  157.3934  131.0799  151.1373 LP  0  0  0  0  0  0  0  0  0  0  0  0  # atno 17371 bound_to 10713
  140.0155  134.9969  157.0484 LP  0  0  0  0  0  0  0  0  0  0  0  0  # atno 17394 bound_to 11000
  140.4527  134.1565  155.7183 LP  0  0  0  0  0  0  0  0  0  0  0  0  # atno 17395 bound_to 11000

$$$$
