AV-unprocessed.smi:1419|AV-procd|sdf|5782|dock9
  -GOLD-   22720 5423D 1   1.00000     0.00000
 Structure written by MMmdl.
 41 42  0  0  0  0  0  0  0  0  1 V2000
  145.6924  134.0485  153.2431 C   0  0  0  0  0  0  0  0  0  0  0  0
  146.9007  133.8201  152.3253 C   0  0  2  0  0  0  0  0  0  0  0  0
  146.7789  132.4934  151.5481 C   0  0  0  0  0  0  0  0  0  0  0  0
  145.5195  132.3794  150.8339 N   0  0  0  0  0  0  0  0  0  0  0  0
  145.0005  133.2648  149.8985 C   0  0  0  0  0  0  0  0  0  0  0  0
  143.7962  132.7401  149.4867 C   0  0  0  0  0  0  0  0  0  0  0  0
  143.5521  131.5435  150.1567 N   0  0  0  0  0  0  0  0  0  0  0  0
  144.6142  131.3965  150.9378 C   0  0  0  0  0  0  0  0  0  0  0  0
  148.1221  133.8235  153.1287 N   0  0  0  0  0  0  0  0  0  0  0  0
  148.5542  132.8222  153.9149 C   0  0  0  0  0  0  0  0  0  0  0  0
  148.0047  131.7202  153.9437 O   0  0  0  0  0  0  0  0  0  0  0  0
  149.6478  133.1231  154.6574 N   0  0  0  0  0  0  0  0  0  0  0  0
  150.1151  134.4673  155.0202 C   0  0  0  0  0  0  0  0  0  0  0  0
  149.7587  134.7135  156.4993 C   0  0  2  0  0  0  0  0  0  0  0  0
  150.2556  136.0763  156.9934 C   0  0  0  0  0  0  0  0  0  0  0  0
  150.3652  133.7020  157.3079 O   0  0  0  0  0  0  0  0  0  0  0  0
  150.0528  132.3509  156.9520 C   0  0  1  0  0  0  0  0  0  0  0  0
  148.6166  131.9801  157.3651 C   0  0  0  0  0  0  0  0  0  0  0  0
  150.3572  132.1201  155.4556 C   0  0  0  0  0  0  0  0  0  0  0  0
  144.7643  134.0644  152.6712 H   0  0  0  0  0  0  0  0  0  0  0  0
  145.7718  135.0017  153.7671 H   0  0  0  0  0  0  0  0  0  0  0  0
  145.6072  133.2612  153.9932 H   0  0  0  0  0  0  0  0  0  0  0  0
  146.9189  134.6393  151.6043 H   0  0  0  0  0  0  0  0  0  0  0  0
  147.5975  132.3923  150.8336 H   0  0  0  0  0  0  0  0  0  0  0  0
  146.8557  131.6478  152.2327 H   0  0  0  0  0  0  0  0  0  0  0  0
  145.5202  134.1656  149.6065 H   0  0  0  0  0  0  0  0  0  0  0  0
  143.0925  133.1287  148.7656 H   0  0  0  0  0  0  0  0  0  0  0  0
  144.7403  130.5487  151.5950 H   0  0  0  0  0  0  0  0  0  0  0  0
  148.6486  134.6848  153.1432 H   0  0  0  0  0  0  0  0  0  0  0  0
  151.1955  134.5227  154.8786 H   0  0  0  0  0  0  0  0  0  0  0  0
  149.6995  135.2615  154.4000 H   0  0  0  0  0  0  0  0  0  0  0  0
  148.6762  134.6813  156.6260 H   0  0  0  0  0  0  0  0  0  0  0  0
  149.8059  136.8885  156.4218 H   0  0  0  0  0  0  0  0  0  0  0  0
  151.3387  136.1593  156.8994 H   0  0  0  0  0  0  0  0  0  0  0  0
  149.9994  136.2269  158.0425 H   0  0  0  0  0  0  0  0  0  0  0  0
  150.7252  131.7179  157.5316 H   0  0  0  0  0  0  0  0  0  0  0  0
  148.4189  130.9257  157.1709 H   0  0  0  0  0  0  0  0  0  0  0  0
  147.8669  132.5544  156.8233 H   0  0  0  0  0  0  0  0  0  0  0  0
  148.4613  132.1549  158.4298 H   0  0  0  0  0  0  0  0  0  0  0  0
  150.1070  131.0971  155.1704 H   0  0  0  0  0  0  0  0  0  0  0  0
  151.4289  132.2197  155.2772 H   0  0  0  0  0  0  0  0  0  0  0  0
  1  2  1  0  0  0  0
  1 20  1  0  0  0  0
  1 21  1  0  0  0  0
  1 22  1  0  0  0  0
  2  3  1  0  0  0  0
  2  9  1  0  0  0  0
  2 23  1  0  0  0  0
  3  4  1  0  0  0  0
  3 24  1  0  0  0  0
  3 25  1  0  0  0  0
  4  8  1  0  0  0  0
  4  5  1  0  0  0  0
  5  6  2  0  0  0  0
  5 26  1  0  0  0  0
  6  7  1  0  0  0  0
  6 27  1  0  0  0  0
  7  8  2  0  0  0  0
  8 28  1  0  0  0  0
  9 10  1  0  0  0  0
  9 29  1  0  0  0  0
 10 11  2  0  0  0  0
 10 12  1  0  0  0  0
 12 19  1  0  0  0  0
 12 13  1  0  0  0  0
 13 14  1  0  0  0  0
 13 30  1  0  0  0  0
 13 31  1  0  0  0  0
 14 15  1  0  0  0  0
 14 16  1  0  0  0  0
 14 32  1  0  0  0  0
 15 33  1  0  0  0  0
 15 34  1  0  0  0  0
 15 35  1  0  0  0  0
 16 17  1  0  0  0  0
 17 18  1  0  0  0  0
 17 19  1  0  0  0  0
 17 36  1  0  0  0  0
 18 37  1  0  0  0  0
 18 38  1  0  0  0  0
 18 39  1  0  0  0  0
 19 40  1  0  0  0  0
 19 41  1  0  0  0  0
M  END
> <s_m_source_file>
AV-unprocessed.smi

> <i_m_source_file_index>
1419

> <i_lp_mmshare_version>
43012

> <i_f3d_flags>
0

> <s_epik_input>
W2NIXTFuW2NIXVtjSF1uMVtDSDJdW0NAQEhdKFtDSDNdKVtOSF1DKD1PKU4yW0NIMl1bQ0BASF0oW0NIM10pT1tDQEBIXShbQ0gzXSlbQ0gyXTI=

> <s_epik_cmdline>
J2VwaWtfcHl0aG9uJywgJy1waCcsICc3LjAnLCAnLXRuJywgJzgnLCAnLW1hJywgJzIwMCcsICctbWV0YWxfYmluZGluZycsICctaW1hZScsICc8aW5maWxlLm1hZT4nLCAnLW9tYWUnLCAnPG91dGZpbGUubWFlPic=

> <r_lp_tautomer_probability>
1

> <r_epik_Ionization_Penalty>
0.625124

> <r_epik_Ionization_Penalty_Charging>
0.625093

> <r_epik_Ionization_Penalty_Neutral>
3.17415e-05

> <r_epik_State_Penalty>
0.641455

> <r_epik_Charging_Adjusted_Penalty>
1.26655

> <i_epik_Tot_Q>
0

> <i_epik_Tot_abs_Q>
0

> <r_epik_Metal_State_Penalty>
0.307717

> <b_epik_Metal_Only>
0

> <s_lp_Force_Field>
OPLS_2005

> <r_lp_Energy>
29.9288

> <b_lp_Chiralities_Consistent>
1

> <s_lp_Variant>
AV-unprocessed.smi:1419-9

> <Gold.Version>
5.8.1

> <Gold.Id.Protein>
6NUR|6NUR_protein|mol2

> <Gold.PLP.Fitness>
42.3066

> <Gold.PLP.PLP>
-29.8193

> <Gold.PLP.part.hbond>
-3.0000

> <Gold.PLP.part.metal>
0.0000

> <Gold.PLP.part.buried>
-1.6095

> <Gold.PLP.part.nonpolar>
-26.3743

> <Gold.PLP.part.repulsive>
0.9348

> <Gold.PLP.ligand.clash>
0.0000

> <Gold.PLP.ligand.torsion>
0.3324

> <Gold.PLP.Chemscore.Hbond>
2.5120

> <Gold.PLP.Chemscore.CHOScore>
1.8542

> <Gold.PLP.Chemscore.Metal>
0.0000

> <Gold.Chemscore.Hbonds>
donor molecule, donor type, donor heavy atom, donor atom, acceptor molecule, acceptor atom, score
      L1  H     9    29       P1  7948  0.70
      P1  H  6896  6907       L1    16  0.86
      P1  H 10785 10796       L1     7  0.91
      L1  C     5    26       P1  7921  0.98
      L1  C     6    27       P1 10186  0.75

> <Gold.PLP.Chemscore.Internal.Correction>
0.0536

> <Gold.Rescore>
     Score         DG    S(hbond)    S(metal)    S(lipo)     H(rot)  DE(clash)    DE(int)     intcor
     11.89     -13.86       1.79        0.00      55.12       1.58       0.19       1.77       ----

> <Gold.Chemscore.Fitness>
11.8898

> <Gold.Chemscore.DG>
-13.8565

> <Gold.Chemscore.ZeroCoef>
-5.4800

> <Gold.Chemscore.Hbond>
1.7856

> <Gold.Chemscore.Metal>
0.0000

> <Gold.Chemscore.Lipo>
55.1237

> <Gold.Chemscore.Internal_Hbond>
0.0000

> <Gold.Chemscore.DEClash>
0.1939

> <Gold.Chemscore.DEInternal>
1.7729

> <Gold.Chemscore.Rot>
1.5769

> <Gold.Chemscore.Internal.Correction>
   9.000000E+99

> <Gold.Chemscore.Hbonds>
donor molecule, donor type, donor heavy atom, donor atom, acceptor molecule, acceptor atom, score
      L1  H     9    29       P1  7948  0.20
      P1  H  6896  6907       L1    16  0.46
      P1  H 10785 10796       L1     7  0.49

> <Gold.Chemscore.Hbond.Weighted>
-5.9639

> <Gold.Chemscore.Metal.Weighted>
-0.0000

> <Gold.Chemscore.Lipo.Weighted>
-6.4495

> <Gold.Chemscore.Internal_Hbond.Weighted>
0.0000

> <Gold.Chemscore.DEClash.Weighted>
0.1939

> <Gold.Chemscore.DEInternal.Weighted>
1.7729

> <Gold.Chemscore.Rot.Weighted>
4.0369

> <Gold.Chemscore.Internal.Correction.Weighted>
   9.000000E+99

> <Gold.Protein.RotatedTorsions>
[ 6907 6896 6895 6894 ] final -133.90 input  -60.11 | X-H torsion
[ 7974 7965 7964 7962 ] final   14.17 input  175.53 | X-H torsion
[ 8008 7997 7996 7995 ] final  164.55 input   59.86 | X-H torsion
[ 10167 10162 10161 10158 ] final  135.83 input  -65.29 | X-H torsion
[ 10718 10713 10712 10709 ] final  -29.53 input   66.30 | X-H torsion
[ 10763 10752 10751 10750 ] final  -93.92 input  -60.55 | X-H torsion
[ 11005 11000 10999 10996 ] final  -59.95 input  -57.11 | X-H torsion

> <Gold.Protein.ActiveResidues>
 VAL166  LYS551  ARG553  GLY616  TRP617  ASP618  TYR619  PRO620  LYS621  CYS622 
 ASP623  PHE694  ASN695  SER759  ASP760  ASP761  ALA762  ILE779  LEU786  VAL792 
 PHE793  MET794  SER795  GLU796  ALA797  LYS798  CYS799  TRP800  GLU811  SER814 

> <Gold.Protein.RotatedAtoms>
  150.9795  133.6260  159.2724 H   0  0  0  0  0  0  0  0  0  0  0  0  # atno 6907 bound_to 6896
  151.3520  135.0885  159.9416 H   0  0  0  0  0  0  0  0  0  0  0  0  # atno 6908 bound_to 6896
  152.5211  133.9386  159.7669 H   0  0  0  0  0  0  0  0  0  0  0  0  # atno 6909 bound_to 6896
  146.2311  139.9081  142.8529 H   0  0  0  0  0  0  0  0  0  0  0  0  # atno 7974 bound_to 7965
  156.1871  140.1694  156.8164 H   0  0  0  0  0  0  0  0  0  0  0  0  # atno 8008 bound_to 7997
  154.5427  140.0733  156.8569 H   0  0  0  0  0  0  0  0  0  0  0  0  # atno 8009 bound_to 7997
  155.3183  140.3372  155.4244 H   0  0  0  0  0  0  0  0  0  0  0  0  # atno 8010 bound_to 7997
  139.5202  144.6496  151.5339 H   0  0  0  0  0  0  0  0  0  0  0  0  # atno 10167 bound_to 10162
  156.4113  130.4408  149.7250 H   0  0  0  0  0  0  0  0  0  0  0  0  # atno 10718 bound_to 10713
  154.7005  135.5176  153.8520 H   0  0  0  0  0  0  0  0  0  0  0  0  # atno 10763 bound_to 10752
  153.0701  135.6598  154.0277 H   0  0  0  0  0  0  0  0  0  0  0  0  # atno 10764 bound_to 10752
  154.0136  135.3000  155.3369 H   0  0  0  0  0  0  0  0  0  0  0  0  # atno 10765 bound_to 10752
  141.1268  133.6619  156.5149 H   0  0  0  0  0  0  0  0  0  0  0  0  # atno 11005 bound_to 11000
  145.2257  140.9953  143.4020 LP  0  0  0  0  0  0  0  0  0  0  0  0  # atno 17320 bound_to 7965
  144.9572  139.4018  143.6373 LP  0  0  0  0  0  0  0  0  0  0  0  0  # atno 17321 bound_to 7965
  140.6296  143.9102  150.6594 LP  0  0  0  0  0  0  0  0  0  0  0  0  # atno 17342 bound_to 10162
  140.2402  143.3669  152.1493 LP  0  0  0  0  0  0  0  0  0  0  0  0  # atno 17343 bound_to 10162
  156.4227  130.7777  151.2794 LP  0  0  0  0  0  0  0  0  0  0  0  0  # atno 17370 bound_to 10713
  157.7507  131.0178  150.3599 LP  0  0  0  0  0  0  0  0  0  0  0  0  # atno 17371 bound_to 10713
  140.4339  134.7077  157.4956 LP  0  0  0  0  0  0  0  0  0  0  0  0  # atno 17394 bound_to 11000
  140.0275  134.6455  155.9152 LP  0  0  0  0  0  0  0  0  0  0  0  0  # atno 17395 bound_to 11000

$$$$
