AV-unprocessed.smi:3181|AV-procd|sdf|12150|dock9
  -GOLD-   2272017593D 1   1.00000     0.00000
 Structure written by MMmdl.
 42 43  0  0  0  0  0  0  0  0  2 V2000
  146.7646  140.3843  152.7325 C   0  0  0  0  0  0  0  0  0  0  0  0
  147.0290  138.8737  152.8426 C   0  0  1  0  0  0  0  0  0  0  0  0
  146.4758  138.0782  151.6409 C   0  0  0  0  0  0  0  0  0  0  0  0
  145.4468  137.1275  152.0193 N   0  0  0  0  0  0  0  0  0  0  0  0
  144.3360  137.2935  152.7391 C   0  0  0  0  0  0  0  0  0  0  0  0
  143.6214  136.1864  152.8826 N   0  0  0  0  0  0  0  0  0  0  0  0
  144.4068  135.3147  152.1825 C   0  0  0  0  0  0  0  0  0  0  0  0
  145.5137  135.8284  151.6455 N   0  0  0  0  0  0  0  0  0  0  0  0
  148.4850  138.6382  152.9732 N   0  3  0  0  0  0  0  0  0  0  0  0
  149.0866  138.9646  154.2867 C   0  0  1  0  0  0  0  0  0  0  0  0
  150.4448  138.2617  154.4893 C   0  0  0  0  0  0  0  0  0  0  0  0
  151.0966  138.6618  155.8224 C   0  0  0  0  0  0  0  0  0  0  0  0
  151.2523  140.1905  155.9423 C   0  0  2  0  0  0  0  0  0  0  0  0
  151.9797  140.5913  157.2363 C   0  0  0  0  0  0  0  0  0  0  0  0
  149.8975  140.9184  155.7476 C   0  0  2  0  0  0  0  0  0  0  0  0
  148.9174  140.7611  156.9276 C   0  0  0  0  0  0  0  0  0  0  0  0
  149.2534  140.4923  154.4114 C   0  0  0  0  0  0  0  0  0  0  0  0
  145.6970  140.6055  152.7214 H   0  0  0  0  0  0  0  0  0  0  0  0
  147.2002  140.7984  151.8227 H   0  0  0  0  0  0  0  0  0  0  0  0
  147.1936  140.9191  153.5806 H   0  0  0  0  0  0  0  0  0  0  0  0
  146.5268  138.5274  153.7472 H   0  0  0  0  0  0  0  0  0  0  0  0
  146.0652  138.7595  150.8935 H   0  0  0  0  0  0  0  0  0  0  0  0
  147.2745  137.5250  151.1462 H   0  0  0  0  0  0  0  0  0  0  0  0
  144.0434  138.2423  153.1643 H   0  0  0  0  0  0  0  0  0  0  0  0
  144.1558  134.2707  152.0656 H   0  0  0  0  0  0  0  0  0  0  0  0
  148.6856  137.6751  152.7449 H   0  0  0  0  0  0  0  0  0  0  0  0
  148.3925  138.6297  155.0585 H   0  0  0  0  0  0  0  0  0  0  0  0
  150.3242  137.1785  154.4686 H   0  0  0  0  0  0  0  0  0  0  0  0
  151.1168  138.5137  153.6679 H   0  0  0  0  0  0  0  0  0  0  0  0
  150.5017  138.2781  156.6518 H   0  0  0  0  0  0  0  0  0  0  0  0
  152.0731  138.1830  155.9034 H   0  0  0  0  0  0  0  0  0  0  0  0
  151.8984  140.5073  155.1220 H   0  0  0  0  0  0  0  0  0  0  0  0
  151.4541  140.2363  158.1230 H   0  0  0  0  0  0  0  0  0  0  0  0
  152.0762  141.6744  157.3141 H   0  0  0  0  0  0  0  0  0  0  0  0
  152.9850  140.1699  157.2643 H   0  0  0  0  0  0  0  0  0  0  0  0
  150.1105  141.9857  155.6695 H   0  0  0  0  0  0  0  0  0  0  0  0
  148.6864  139.7172  157.1370 H   0  0  0  0  0  0  0  0  0  0  0  0
  147.9758  141.2705  156.7205 H   0  0  0  0  0  0  0  0  0  0  0  0
  149.3185  141.2004  157.8407 H   0  0  0  0  0  0  0  0  0  0  0  0
  149.8761  140.8522  153.5907 H   0  0  0  0  0  0  0  0  0  0  0  0
  148.2878  140.9858  154.2921 H   0  0  0  0  0  0  0  0  0  0  0  0
  148.9403  139.2241  152.2879 H   0  0  0  0  0  0  0  0  0  0  0  0
  1  2  1  0  0  0  0
  1 18  1  0  0  0  0
  1 19  1  0  0  0  0
  1 20  1  0  0  0  0
  2  3  1  0  0  0  0
  2  9  1  0  0  0  0
  2 21  1  0  0  0  0
  3  4  1  0  0  0  0
  3 22  1  0  0  0  0
  3 23  1  0  0  0  0
  4  8  1  0  0  0  0
  4  5  1  0  0  0  0
  5  6  2  0  0  0  0
  5 24  1  0  0  0  0
  6  7  1  0  0  0  0
  7  8  2  0  0  0  0
  7 25  1  0  0  0  0
  9 10  1  0  0  0  0
  9 26  1  0  0  0  0
  9 42  1  0  0  0  0
 10 17  1  0  0  0  0
 10 11  1  0  0  0  0
 10 27  1  0  0  0  0
 11 12  1  0  0  0  0
 11 28  1  0  0  0  0
 11 29  1  0  0  0  0
 12 13  1  0  0  0  0
 12 30  1  0  0  0  0
 12 31  1  0  0  0  0
 13 14  1  0  0  0  0
 13 15  1  0  0  0  0
 13 32  1  0  0  0  0
 14 33  1  0  0  0  0
 14 34  1  0  0  0  0
 14 35  1  0  0  0  0
 15 16  1  0  0  0  0
 15 17  1  0  0  0  0
 15 36  1  0  0  0  0
 16 37  1  0  0  0  0
 16 38  1  0  0  0  0
 16 39  1  0  0  0  0
 17 40  1  0  0  0  0
 17 41  1  0  0  0  0
M  CHG  1   9   1
M  END
> <s_m_source_file>
AV-unprocessed.smi

> <i_m_source_file_index>
3181

> <i_lp_mmshare_version>
43012

> <i_f3d_flags>
0

> <s_epik_input>
bjFbY0hdbltjSF1uMVtDSDJdW0NAQEhdKFtDSDNdKVtOSF1bQ0BASF0yW0NIMl1bQ0gyXVtDQEBIXShbQ0gzXSlbQ0BASF0oW0NIM10pW0NIMl0y

> <s_epik_cmdline>
J2VwaWtfcHl0aG9uJywgJy1waCcsICc3LjAnLCAnLXRuJywgJzgnLCAnLW1hJywgJzIwMCcsICctbWV0YWxfYmluZGluZycsICctaW1hZScsICc8aW5maWxlLm1hZT4nLCAnLW9tYWUnLCAnPG91dGZpbGUubWFlPic=

> <r_lp_tautomer_probability>
1

> <r_epik_Ionization_Penalty>
0.000617007

> <r_epik_Ionization_Penalty_Charging>
0.000616215

> <r_epik_Ionization_Penalty_Neutral>
7.92544e-07

> <r_epik_State_Penalty>
0.000388807

> <r_epik_Charging_Adjusted_Penalty>
0.00100502

> <i_epik_Tot_Q>
1

> <i_epik_Tot_abs_Q>
1

> <r_epik_Metal_State_Penalty>
-0

> <b_epik_Metal_Only>
0

> <s_lp_Force_Field>
OPLS_2005

> <r_lp_Energy>
21.8546

> <b_lp_Chiralities_Consistent>
1

> <s_lp_Variant>
AV-unprocessed.smi:3181-16

> <Gold.Version>
5.8.1

> <Gold.Id.Protein>
6NUR|6NUR_protein|mol2

> <Gold.PLP.Fitness>
39.2909

> <Gold.PLP.PLP>
-29.5086

> <Gold.PLP.part.hbond>
-1.9979

> <Gold.PLP.part.metal>
0.0000

> <Gold.PLP.part.buried>
-0.7220

> <Gold.PLP.part.nonpolar>
-29.0247

> <Gold.PLP.part.repulsive>
0.3696

> <Gold.PLP.ligand.clash>
0.0000

> <Gold.PLP.ligand.torsion>
1.1097

> <Gold.PLP.Chemscore.Hbond>
2.9913

> <Gold.PLP.Chemscore.CHOScore>
1.0000

> <Gold.PLP.Chemscore.Metal>
0.0000

> <Gold.Chemscore.Hbonds>
donor molecule, donor type, donor heavy atom, donor atom, acceptor molecule, acceptor atom, score
      L1  H     9    26       P1  7948  2.00
      L1  H     9    42       P1  7957  1.00
      L1  C     5    24       P1 10175  1.00

> <Gold.PLP.Chemscore.Internal.Correction>
0.0280

> <Gold.Rescore>
     Score         DG    S(hbond)    S(metal)    S(lipo)     H(rot)  DE(clash)    DE(int)     intcor
     12.93     -15.21       1.95        0.00      73.65       2.11       0.14       2.15       ----

> <Gold.Chemscore.Fitness>
12.9330

> <Gold.Chemscore.DG>
-15.2146

> <Gold.Chemscore.ZeroCoef>
-5.4800

> <Gold.Chemscore.Hbond>
1.9515

> <Gold.Chemscore.Metal>
0.0000

> <Gold.Chemscore.Lipo>
73.6473

> <Gold.Chemscore.Internal_Hbond>
0.0000

> <Gold.Chemscore.DEClash>
0.1354

> <Gold.Chemscore.DEInternal>
2.1462

> <Gold.Chemscore.Rot>
2.1095

> <Gold.Chemscore.Internal.Correction>
   9.000000E+99

> <Gold.Chemscore.Hbonds>
donor molecule, donor type, donor heavy atom, donor atom, acceptor molecule, acceptor atom, score
      L1  H     9    26       P1  7948  1.00
      L1  H     9    42       P1  7957  0.93

> <Gold.Chemscore.Hbond.Weighted>
-6.5182

> <Gold.Chemscore.Metal.Weighted>
-0.0000

> <Gold.Chemscore.Lipo.Weighted>
-8.6167

> <Gold.Chemscore.Internal_Hbond.Weighted>
0.0000

> <Gold.Chemscore.DEClash.Weighted>
0.1354

> <Gold.Chemscore.DEInternal.Weighted>
2.1462

> <Gold.Chemscore.Rot.Weighted>
5.4003

> <Gold.Chemscore.Internal.Correction.Weighted>
   9.000000E+99

> <Gold.Protein.RotatedTorsions>
[ 6907 6896 6895 6894 ] final   -2.33 input  -60.11 | X-H torsion
[ 7974 7965 7964 7962 ] final   81.72 input  175.53 | X-H torsion
[ 8008 7997 7996 7995 ] final  -49.27 input   59.86 | X-H torsion
[ 10167 10162 10161 10158 ] final   -6.51 input  -65.29 | X-H torsion
[ 10718 10713 10712 10709 ] final -128.65 input   66.30 | X-H torsion
[ 10763 10752 10751 10750 ] final -150.22 input  -60.55 | X-H torsion
[ 11005 11000 10999 10996 ] final  -35.73 input  -57.11 | X-H torsion

> <Gold.Protein.ActiveResidues>
 VAL166  LYS551  ARG553  GLY616  TRP617  ASP618  TYR619  PRO620  LYS621  CYS622 
 ASP623  PHE694  ASN695  SER759  ASP760  ASP761  ALA762  ILE779  LEU786  VAL792 
 PHE793  MET794  SER795  GLU796  ALA797  LYS798  CYS799  TRP800  GLU811  SER814 

> <Gold.Protein.RotatedAtoms>
  151.5316  135.1068  159.9903 H   0  0  0  0  0  0  0  0  0  0  0  0  # atno 6907 bound_to 6896
  152.4576  133.7750  159.6830 H   0  0  0  0  0  0  0  0  0  0  0  0  # atno 6908 bound_to 6896
  150.8525  133.7700  159.3045 H   0  0  0  0  0  0  0  0  0  0  0  0  # atno 6909 bound_to 6896
  145.6344  139.2412  143.2066 H   0  0  0  0  0  0  0  0  0  0  0  0  # atno 7974 bound_to 7965
  154.4041  140.1301  156.4476 H   0  0  0  0  0  0  0  0  0  0  0  0  # atno 8008 bound_to 7997
  155.7398  140.3490  155.5079 H   0  0  0  0  0  0  0  0  0  0  0  0  # atno 8009 bound_to 7997
  155.9050  140.1026  157.1312 H   0  0  0  0  0  0  0  0  0  0  0  0  # atno 8010 bound_to 7997
  140.6999  143.6186  150.8634 H   0  0  0  0  0  0  0  0  0  0  0  0  # atno 10167 bound_to 10162
  156.1971  130.6833  151.0495 H   0  0  0  0  0  0  0  0  0  0  0  0  # atno 10718 bound_to 10713
  154.8132  135.3290  154.7249 H   0  0  0  0  0  0  0  0  0  0  0  0  # atno 10763 bound_to 10752
  153.7895  135.6912  153.4878 H   0  0  0  0  0  0  0  0  0  0  0  0  # atno 10764 bound_to 10752
  153.1926  135.4545  155.0115 H   0  0  0  0  0  0  0  0  0  0  0  0  # atno 10765 bound_to 10752
  140.9819  133.7051  156.1699 H   0  0  0  0  0  0  0  0  0  0  0  0  # atno 11005 bound_to 11000
  146.1331  140.7159  142.9403 LP  0  0  0  0  0  0  0  0  0  0  0  0  # atno 17320 bound_to 7965
  144.7181  140.4280  143.7029 LP  0  0  0  0  0  0  0  0  0  0  0  0  # atno 17321 bound_to 7965
  139.9907  143.5850  152.2911 LP  0  0  0  0  0  0  0  0  0  0  0  0  # atno 17342 bound_to 10162
  139.6504  144.7660  151.2160 LP  0  0  0  0  0  0  0  0  0  0  0  0  # atno 17343 bound_to 10162
  157.6964  131.0792  150.6956 LP  0  0  0  0  0  0  0  0  0  0  0  0  # atno 17370 bound_to 10713
  156.7013  130.4624  149.5572 LP  0  0  0  0  0  0  0  0  0  0  0  0  # atno 17371 bound_to 10713
  140.7173  134.4396  157.5577 LP  0  0  0  0  0  0  0  0  0  0  0  0  # atno 17394 bound_to 11000
  139.8954  134.8684  156.2134 LP  0  0  0  0  0  0  0  0  0  0  0  0  # atno 17395 bound_to 11000

$$$$
