AV-unprocessed.smi:39|AV-procd|sdf|354|dock4
  -GOLD-   2262016193D 1   1.00000     0.00000
 Structure written by MMmdl.
 32 33  0  0  0  0  0  0  0  0  3 V2000
  152.9653  143.7566  160.2103 C   0  0  0  0  0  0  0  0  0  0  0  0
  152.2607  143.0070  159.0914 C   0  0  0  0  0  0  0  0  0  0  0  0
  152.4045  141.6690  158.9082 C   0  0  0  0  0  0  0  0  0  0  0  0
  151.7727  140.9570  157.8943 N   0  0  0  0  0  0  0  0  0  0  0  0
  151.9572  139.4642  157.6986 C   0  0  2  0  0  0  0  0  0  0  0  0
  151.4331  138.6829  158.9198 C   0  0  0  0  0  0  0  0  0  0  0  0
  152.6042  137.7776  159.2758 C   0  0  1  0  0  0  0  0  0  0  0  0
  152.5391  136.5082  158.5376 N   0  0  0  0  0  0  0  0  0  0  0  0
  152.4975  136.5861  157.3026 N   0  3  0  0  0  0  0  0  0  0  0  0
  152.5074  136.7730  156.1801 N   0  5  0  0  0  0  0  0  0  0  0  0
  153.7839  138.6472  158.8267 C   0  0  1  0  0  0  0  0  0  0  0  0
  155.1196  137.9052  158.6502 C   0  0  0  0  0  0  0  0  0  0  0  0
  156.1197  138.8087  158.2305 O   0  0  0  0  0  0  0  0  0  0  0  0
  153.3166  139.1590  157.5844 O   0  0  0  0  0  0  0  0  0  0  0  0
  150.9493  141.6473  156.9808 C   0  0  0  0  0  0  0  0  0  0  0  0
  150.3747  141.0863  156.0484 O   0  0  0  0  0  0  0  0  0  0  0  0
  150.7995  143.0195  157.1700 N   0  0  0  0  0  0  0  0  0  0  0  0
  151.4030  143.7704  158.1810 C   0  0  0  0  0  0  0  0  0  0  0  0
  151.1920  144.9804  158.2469 O   0  0  0  0  0  0  0  0  0  0  0  0
  151.4521  139.2229  156.7613 H   0  0  0  0  0  0  0  0  0  0  0  0
  152.6545  137.5993  160.3519 H   0  0  0  0  0  0  0  0  0  0  0  0
  153.9015  139.4646  159.5411 H   0  0  0  0  0  0  0  0  0  0  0  0
  150.2068  143.5138  156.5192 H   0  0  0  0  0  0  0  0  0  0  0  0
  153.5685  143.0906  160.8280 H   0  0  0  0  0  0  0  0  0  0  0  0
  152.2377  144.2457  160.8590 H   0  0  0  0  0  0  0  0  0  0  0  0
  153.6263  144.5204  159.7994 H   0  0  0  0  0  0  0  0  0  0  0  0
  153.0514  141.1479  159.5975 H   0  0  0  0  0  0  0  0  0  0  0  0
  151.2297  139.3692  159.7435 H   0  0  0  0  0  0  0  0  0  0  0  0
  150.5125  138.1495  158.6790 H   0  0  0  0  0  0  0  0  0  0  0  0
  155.4407  137.4794  159.6013 H   0  0  0  0  0  0  0  0  0  0  0  0
  155.0299  137.0837  157.9390 H   0  0  0  0  0  0  0  0  0  0  0  0
  156.5360  139.1729  158.9966 H   0  0  0  0  0  0  0  0  0  0  0  0
  1  2  1  0  0  0  0
  1 24  1  0  0  0  0
  1 25  1  0  0  0  0
  1 26  1  0  0  0  0
  2 18  1  0  0  0  0
  2  3  2  0  0  0  0
  3  4  1  0  0  0  0
  3 27  1  0  0  0  0
  4  5  1  0  0  0  0
  4 15  1  0  0  0  0
  5 20  1  0  0  0  0
  5 14  1  0  0  0  0
  5  6  1  0  0  0  0
  6  7  1  0  0  0  0
  6 28  1  0  0  0  0
  6 29  1  0  0  0  0
  7 21  1  0  0  0  0
  7  8  1  0  0  0  0
  7 11  1  0  0  0  0
  8  9  2  0  0  0  0
  9 10  2  0  0  0  0
 11 22  1  0  0  0  0
 11 12  1  0  0  0  0
 11 14  1  0  0  0  0
 12 13  1  0  0  0  0
 12 30  1  0  0  0  0
 12 31  1  0  0  0  0
 13 32  1  0  0  0  0
 15 16  2  0  0  0  0
 15 17  1  0  0  0  0
 17 23  1  0  0  0  0
 17 18  1  0  0  0  0
 18 19  2  0  0  0  0
M  CHG  1   9   1
M  CHG  1  10  -1
M  END
> <s_m_source_file>
AV-unprocessed.smi

> <i_m_source_file_index>
39

> <i_lp_mmshare_version>
43012

> <i_f3d_flags>
0

> <s_epik_input>
Tz1jMVtuSF1jKD1PKW4oW2NIXWMxW0NIM10pW0NASF0yW0NIMl1bQ0BIXShOPVtOK109W04tXSlbQ0BIXShPMilbQ0gyXVtPSF0=

> <s_epik_cmdline>
J2VwaWtfcHl0aG9uJywgJy1waCcsICc3LjAnLCAnLXRuJywgJzgnLCAnLW1hJywgJzIwMCcsICctbWV0YWxfYmluZGluZycsICctaW1hZScsICc8aW5maWxlLm1hZT4nLCAnLW9tYWUnLCAnPG91dGZpbGUubWFlPic=

> <r_lp_tautomer_probability>
0.999537

> <r_epik_Ionization_Penalty>
0.00127512

> <r_epik_Ionization_Penalty_Charging>
0.00127507

> <r_epik_Ionization_Penalty_Neutral>
5.43433e-08

> <r_epik_State_Penalty>
0.000844892

> <r_epik_Charging_Adjusted_Penalty>
0.00211996

> <i_epik_Tot_Q>
0

> <i_epik_Tot_abs_Q>
2

> <r_epik_Metal_State_Penalty>
0.680636

> <b_epik_Metal_Only>
0

> <s_epik_Chemistry_Notes>
This compound contains an acetal/aminal-like group ( X-CH(R)-Y where X, Y are N, S, or O) that may be acid/base labile, releasing an aldehyde.

> <s_lp_Force_Field>
OPLS_2005

> <r_lp_Energy>
25.8418

> <b_lp_Chiralities_Consistent>
1

> <s_lp_Variant>
AV-unprocessed.smi:39-4

> <Gold.Version>
5.8.1

> <Gold.Id.Protein>
6NUR|6NUR_protein|mol2

> <Gold.PLP.Fitness>
41.8393

> <Gold.PLP.PLP>
-28.7832

> <Gold.PLP.part.hbond>
-5.0000

> <Gold.PLP.part.metal>
0.0000

> <Gold.PLP.part.buried>
-4.8524

> <Gold.PLP.part.nonpolar>
-18.8391

> <Gold.PLP.part.repulsive>
0.2363

> <Gold.PLP.ligand.clash>
0.0000

> <Gold.PLP.ligand.torsion>
0.0489

> <Gold.PLP.Chemscore.Hbond>
4.3680

> <Gold.PLP.Chemscore.CHOScore>
0.0000

> <Gold.PLP.Chemscore.Metal>
0.0000

> <Gold.Chemscore.Hbonds>
donor molecule, donor type, donor heavy atom, donor atom, acceptor molecule, acceptor atom, score
      L1  H    17    23       P1  8028  1.00
      P1  H  6896  6907       L1     8  0.45
      P1  H  7997  8008       L1    14  0.93
      P1  H  7997  8010       L1    13  0.85
      P1  H 10752 10765       L1    10  0.99

> <Gold.PLP.Chemscore.Internal.Correction>
0.0499

> <Gold.Rescore>
     Score         DG    S(hbond)    S(metal)    S(lipo)     H(rot)  DE(clash)    DE(int)     intcor
     14.36     -18.57       4.24        0.00      51.03       2.75       0.13       4.08       ----

> <Gold.Chemscore.Fitness>
14.3621

> <Gold.Chemscore.DG>
-18.5692

> <Gold.Chemscore.ZeroCoef>
-5.4800

> <Gold.Chemscore.Hbond>
4.2410

> <Gold.Chemscore.Metal>
0.0000

> <Gold.Chemscore.Lipo>
51.0278

> <Gold.Chemscore.Internal_Hbond>
0.0000

> <Gold.Chemscore.DEClash>
0.1274

> <Gold.Chemscore.DEInternal>
4.0797

> <Gold.Chemscore.Rot>
2.7524

> <Gold.Chemscore.Internal.Correction>
   9.000000E+99

> <Gold.Chemscore.Hbonds>
donor molecule, donor type, donor heavy atom, donor atom, acceptor molecule, acceptor atom, score
      L1  H    17    23       P1  8028  0.98
      P1  H  6896  6907       L1     8  0.17
      P1  H  7997  8008       L1    14  0.87
      P1  H  7997  8010       L1    13  0.47
      P1  H 10752 10765       L1    10  0.90

> <Gold.Chemscore.Hbond.Weighted>
-14.1651

> <Gold.Chemscore.Metal.Weighted>
-0.0000

> <Gold.Chemscore.Lipo.Weighted>
-5.9703

> <Gold.Chemscore.Internal_Hbond.Weighted>
0.0000

> <Gold.Chemscore.DEClash.Weighted>
0.1274

> <Gold.Chemscore.DEInternal.Weighted>
4.0797

> <Gold.Chemscore.Rot.Weighted>
7.0461

> <Gold.Chemscore.Internal.Correction.Weighted>
   9.000000E+99

> <Gold.Protein.RotatedTorsions>
[ 6907 6896 6895 6894 ] final   10.87 input  -60.11 | X-H torsion
[ 7974 7965 7964 7962 ] final  -89.29 input  175.53 | X-H torsion
[ 8008 7997 7996 7995 ] final  -54.04 input   59.86 | X-H torsion
[ 10167 10162 10161 10158 ] final   54.61 input  -65.29 | X-H torsion
[ 10718 10713 10712 10709 ] final -161.22 input   66.30 | X-H torsion
[ 10763 10752 10751 10750 ] final -146.37 input  -60.55 | X-H torsion
[ 11005 11000 10999 10996 ] final -116.52 input  -57.11 | X-H torsion

> <Gold.Protein.ActiveResidues>
 VAL166  LYS551  ARG553  GLY616  TRP617  ASP618  TYR619  PRO620  LYS621  CYS622 
 ASP623  PHE694  ASN695  SER759  ASP760  ASP761  ALA762  ILE779  LEU786  VAL792 
 PHE793  MET794  SER795  GLU796  ALA797  LYS798  CYS799  TRP800  GLU811  SER814 

> <Gold.Protein.RotatedAtoms>
  151.7451  135.0845  160.0321 H   0  0  0  0  0  0  0  0  0  0  0  0  # atno 6907 bound_to 6896
  152.3454  133.6111  159.5914 H   0  0  0  0  0  0  0  0  0  0  0  0  # atno 6908 bound_to 6896
  150.7505  133.9574  159.3546 H   0  0  0  0  0  0  0  0  0  0  0  0  # atno 6909 bound_to 6896
  145.4418  140.9559  143.2071 H   0  0  0  0  0  0  0  0  0  0  0  0  # atno 7974 bound_to 7965
  154.4151  140.1185  156.5252 H   0  0  0  0  0  0  0  0  0  0  0  0  # atno 8008 bound_to 7997
  155.6662  140.3496  155.4782 H   0  0  0  0  0  0  0  0  0  0  0  0  # atno 8009 bound_to 7997
  155.9671  140.1134  157.0834 H   0  0  0  0  0  0  0  0  0  0  0  0  # atno 8010 bound_to 7997
  140.2283  144.3714  150.6424 H   0  0  0  0  0  0  0  0  0  0  0  0  # atno 10167 bound_to 10162
  156.5932  130.8779  151.2895 H   0  0  0  0  0  0  0  0  0  0  0  0  # atno 10718 bound_to 10713
  154.8339  135.3388  154.6651 H   0  0  0  0  0  0  0  0  0  0  0  0  # atno 10763 bound_to 10752
  153.7268  135.6954  153.5003 H   0  0  0  0  0  0  0  0  0  0  0  0  # atno 10764 bound_to 10752
  153.2341  135.4406  155.0580 H   0  0  0  0  0  0  0  0  0  0  0  0  # atno 10765 bound_to 10752
  141.0416  133.9826  157.2985 H   0  0  0  0  0  0  0  0  0  0  0  0  # atno 11005 bound_to 11000
  144.8117  139.5950  143.7026 LP  0  0  0  0  0  0  0  0  0  0  0  0  # atno 17320 bound_to 7965
  146.2552  139.6287  142.9400 LP  0  0  0  0  0  0  0  0  0  0  0  0  # atno 17321 bound_to 7965
  140.6204  143.2176  151.6706 LP  0  0  0  0  0  0  0  0  0  0  0  0  # atno 17342 bound_to 10162
  139.5119  144.3494  152.0666 LP  0  0  0  0  0  0  0  0  0  0  0  0  # atno 17343 bound_to 10162
  157.7298  130.9677  150.1805 LP  0  0  0  0  0  0  0  0  0  0  0  0  # atno 17370 bound_to 10713
  156.2532  130.3703  149.8210 LP  0  0  0  0  0  0  0  0  0  0  0  0  # atno 17371 bound_to 10713
  139.9280  135.0201  156.8303 LP  0  0  0  0  0  0  0  0  0  0  0  0  # atno 17394 bound_to 11000
  140.6223  133.9982  155.7624 LP  0  0  0  0  0  0  0  0  0  0  0  0  # atno 17395 bound_to 11000

$$$$
