AV-unprocessed.smi:2510|AV-procd|sdf|9872|dock6
  -GOLD-   2272013503D 1   1.00000     0.00000
 Structure written by MMmdl.
 48 49  0  0  0  0  0  0  0  0  1 V2000
  152.8092  143.4832  161.8910 C   0  0  0  0  0  0  0  0  0  0  0  0
  151.7963  142.8346  160.9305 C   0  0  0  0  0  0  0  0  0  0  0  0
  152.2867  142.5779  159.4760 C   0  0  0  0  0  0  0  0  0  0  0  0
  152.9830  143.8397  158.9303 C   0  0  0  0  0  0  0  0  0  0  0  0
  152.1541  145.1285  159.0494 C   0  0  0  0  0  0  0  0  0  0  0  0
  153.0346  141.2425  159.1972 C   0  0  1  0  0  0  0  0  0  0  0  0
  153.6896  140.6307  160.3483 N   0  0  0  0  0  0  0  0  0  0  0  0
  154.8966  140.0452  160.3239 C   0  0  0  0  0  0  0  0  0  0  0  0
  155.6008  139.9852  159.3161 O   0  0  0  0  0  0  0  0  0  0  0  0
  155.3811  139.4246  161.6360 C   0  0  0  0  0  0  0  0  0  0  0  0
  155.3154  140.4327  162.7525 C   0  0  0  0  0  0  0  0  0  0  0  0
  155.7860  140.2909  164.0916 C   0  0  0  0  0  0  0  0  0  0  0  0
  155.5002  141.4907  164.6796 C   0  0  0  0  0  0  0  0  0  0  0  0
  155.7414  141.9953  166.0612 C   0  0  0  0  0  0  0  0  0  0  0  0
  154.8921  142.2575  163.7128 N   0  0  0  0  0  0  0  0  0  0  0  0
  154.7704  141.6222  162.5328 N   0  0  0  0  0  0  0  0  0  0  0  0
  151.6966  140.5682  158.8742 C   0  0  2  0  0  0  0  0  0  0  0  0
  151.6672  139.4671  157.8221 C   0  0  0  0  0  0  0  0  0  0  0  0
  151.2180  141.9828  158.5192 C   0  0  1  0  0  0  0  0  0  0  0  0
  149.8880  142.2855  158.9155 O   0  0  0  0  0  0  0  0  0  0  0  0
  149.5558  143.6540  158.7630 C   0  0  0  0  0  0  0  0  0  0  0  0
  154.5591  143.2023  163.8428 H   0  0  0  0  0  0  0  0  0  0  0  0
  152.4397  143.4504  162.9159 H   0  0  0  0  0  0  0  0  0  0  0  0
  152.9816  144.5310  161.6474 H   0  0  0  0  0  0  0  0  0  0  0  0
  153.7718  142.9783  161.8741 H   0  0  0  0  0  0  0  0  0  0  0  0
  151.4691  141.8983  161.3826 H   0  0  0  0  0  0  0  0  0  0  0  0
  150.9025  143.4585  160.9209 H   0  0  0  0  0  0  0  0  0  0  0  0
  153.9565  143.9825  159.3986 H   0  0  0  0  0  0  0  0  0  0  0  0
  153.2113  143.6973  157.8736 H   0  0  0  0  0  0  0  0  0  0  0  0
  152.6767  145.9642  158.5841 H   0  0  0  0  0  0  0  0  0  0  0  0
  151.9705  145.3991  160.0888 H   0  0  0  0  0  0  0  0  0  0  0  0
  151.1886  145.0267  158.5537 H   0  0  0  0  0  0  0  0  0  0  0  0
  153.6666  141.2982  158.3070 H   0  0  0  0  0  0  0  0  0  0  0  0
  153.1858  140.6444  161.2238 H   0  0  0  0  0  0  0  0  0  0  0  0
  154.7739  138.5476  161.8642 H   0  0  0  0  0  0  0  0  0  0  0  0
  156.4041  139.0676  161.5111 H   0  0  0  0  0  0  0  0  0  0  0  0
  156.2691  139.4387  164.5463 H   0  0  0  0  0  0  0  0  0  0  0  0
  156.2940  141.2644  166.6521 H   0  0  0  0  0  0  0  0  0  0  0  0
  154.7986  142.1963  166.5700 H   0  0  0  0  0  0  0  0  0  0  0  0
  156.3207  142.9186  166.0411 H   0  0  0  0  0  0  0  0  0  0  0  0
  151.2080  140.2366  159.7925 H   0  0  0  0  0  0  0  0  0  0  0  0
  152.0781  139.8116  156.8728 H   0  0  0  0  0  0  0  0  0  0  0  0
  150.6517  139.1192  157.6354 H   0  0  0  0  0  0  0  0  0  0  0  0
  152.2544  138.6056  158.1407 H   0  0  0  0  0  0  0  0  0  0  0  0
  151.4160  142.2416  157.4760 H   0  0  0  0  0  0  0  0  0  0  0  0
  148.5425  143.8251  159.1263 H   0  0  0  0  0  0  0  0  0  0  0  0
  149.5892  143.9575  157.7171 H   0  0  0  0  0  0  0  0  0  0  0  0
  150.2304  144.2909  159.3366 H   0  0  0  0  0  0  0  0  0  0  0  0
  1  2  1  0  0  0  0
  1 23  1  0  0  0  0
  1 24  1  0  0  0  0
  1 25  1  0  0  0  0
  2  3  1  0  0  0  0
  2 26  1  0  0  0  0
  2 27  1  0  0  0  0
  3 19  1  0  0  0  0
  3  4  1  0  0  0  0
  3  6  1  0  0  0  0
  4  5  1  0  0  0  0
  4 28  1  0  0  0  0
  4 29  1  0  0  0  0
  5 30  1  0  0  0  0
  5 31  1  0  0  0  0
  5 32  1  0  0  0  0
  6  7  1  0  0  0  0
  6 17  1  0  0  0  0
  6 33  1  0  0  0  0
  7  8  1  0  0  0  0
  7 34  1  0  0  0  0
  8  9  2  0  0  0  0
  8 10  1  0  0  0  0
 10 11  1  0  0  0  0
 10 35  1  0  0  0  0
 10 36  1  0  0  0  0
 11 16  2  0  0  0  0
 11 12  1  0  0  0  0
 12 13  2  0  0  0  0
 12 37  1  0  0  0  0
 13 14  1  0  0  0  0
 13 15  1  0  0  0  0
 14 38  1  0  0  0  0
 14 39  1  0  0  0  0
 14 40  1  0  0  0  0
 15 22  1  0  0  0  0
 15 16  1  0  0  0  0
 17 18  1  0  0  0  0
 17 19  1  0  0  0  0
 17 41  1  0  0  0  0
 18 42  1  0  0  0  0
 18 43  1  0  0  0  0
 18 44  1  0  0  0  0
 19 20  1  0  0  0  0
 19 45  1  0  0  0  0
 20 21  1  0  0  0  0
 21 46  1  0  0  0  0
 21 47  1  0  0  0  0
 21 48  1  0  0  0  0
M  END
> <s_m_source_file>
AV-unprocessed.smi

> <i_m_source_file_index>
2510

> <i_lp_mmshare_version>
43012

> <i_f3d_flags>
0

> <s_epik_input>
W0NIM11PW0NAQEhdMVtDQEhdKFtDSDNdKVtDQEBIXShDMShbQ0gyXVtDSDNdKVtDSDJdW0NIM10pW05IXUMoPU8pW0NIMl1jMltjSF1jKFtDSDNdKVtuSF1uMg==

> <s_epik_cmdline>
J2VwaWtfcHl0aG9uJywgJy1waCcsICc3LjAnLCAnLXRuJywgJzgnLCAnLW1hJywgJzIwMCcsICctbWV0YWxfYmluZGluZycsICctaW1hZScsICc8aW5maWxlLm1hZT4nLCAnLW9tYWUnLCAnPG91dGZpbGUubWFlPic=

> <r_lp_tautomer_probability>
0.5

> <r_epik_Ionization_Penalty>
9.73156e-05

> <r_epik_Ionization_Penalty_Charging>
0

> <r_epik_Ionization_Penalty_Neutral>
9.73156e-05

> <r_epik_State_Penalty>
0.41068

> <r_epik_Charging_Adjusted_Penalty>
0.41068

> <i_epik_Tot_Q>
0

> <i_epik_Tot_abs_Q>
0

> <r_epik_Metal_State_Penalty>
0.410699

> <b_epik_Metal_Only>
0

> <s_lp_Force_Field>
OPLS_2005

> <r_lp_Energy>
23.9763

> <b_lp_Chiralities_Consistent>
1

> <s_lp_Variant>
AV-unprocessed.smi:2510-3

> <Gold.Version>
5.8.1

> <Gold.Id.Protein>
6NUR|6NUR_protein|mol2

> <Gold.PLP.Fitness>
44.2672

> <Gold.PLP.PLP>
-41.7916

> <Gold.PLP.part.hbond>
-4.0000

> <Gold.PLP.part.metal>
0.0000

> <Gold.PLP.part.buried>
-3.3183

> <Gold.PLP.part.nonpolar>
-33.6878

> <Gold.PLP.part.repulsive>
0.1634

> <Gold.PLP.ligand.clash>
0.0000

> <Gold.PLP.ligand.torsion>
0.5655

> <Gold.PLP.Chemscore.Hbond>
1.0000

> <Gold.PLP.Chemscore.CHOScore>
0.0000

> <Gold.PLP.Chemscore.Metal>
0.0000

> <Gold.Chemscore.Hbonds>
donor molecule, donor type, donor heavy atom, donor atom, acceptor molecule, acceptor atom, score
      P1  H  7997  8008       L1     9  1.00

> <Gold.PLP.Chemscore.Internal.Correction>
0.6067

> <Gold.Rescore>
     Score         DG    S(hbond)    S(metal)    S(lipo)     H(rot)  DE(clash)    DE(int)     intcor
     13.76     -18.03       0.99        0.00     118.60       1.81       1.57       2.71       ----

> <Gold.Chemscore.Fitness>
13.7611

> <Gold.Chemscore.DG>
-18.0337

> <Gold.Chemscore.ZeroCoef>
-5.4800

> <Gold.Chemscore.Hbond>
0.9915

> <Gold.Chemscore.Metal>
0.0000

> <Gold.Chemscore.Lipo>
118.6005

> <Gold.Chemscore.Internal_Hbond>
0.0000

> <Gold.Chemscore.DEClash>
1.5675

> <Gold.Chemscore.DEInternal>
2.7051

> <Gold.Chemscore.Rot>
1.8102

> <Gold.Chemscore.Internal.Correction>
   9.000000E+99

> <Gold.Chemscore.Hbonds>
donor molecule, donor type, donor heavy atom, donor atom, acceptor molecule, acceptor atom, score
      P1  H  7997  8008       L1     9  0.97

> <Gold.Chemscore.Hbond.Weighted>
-3.3115

> <Gold.Chemscore.Metal.Weighted>
-0.0000

> <Gold.Chemscore.Lipo.Weighted>
-13.8763

> <Gold.Chemscore.Internal_Hbond.Weighted>
0.0000

> <Gold.Chemscore.DEClash.Weighted>
1.5675

> <Gold.Chemscore.DEInternal.Weighted>
2.7051

> <Gold.Chemscore.Rot.Weighted>
4.6341

> <Gold.Chemscore.Internal.Correction.Weighted>
   9.000000E+99

> <Gold.Protein.RotatedTorsions>
[ 6907 6896 6895 6894 ] final  126.70 input  -60.11 | X-H torsion
[ 7974 7965 7964 7962 ] final   85.42 input  175.53 | X-H torsion
[ 8008 7997 7996 7995 ] final -141.19 input   59.86 | X-H torsion
[ 10167 10162 10161 10158 ] final  165.85 input  -65.29 | X-H torsion
[ 10718 10713 10712 10709 ] final  126.09 input   66.30 | X-H torsion
[ 10763 10752 10751 10750 ] final -106.43 input  -60.55 | X-H torsion
[ 11005 11000 10999 10996 ] final -159.88 input  -57.11 | X-H torsion

> <Gold.Protein.ActiveResidues>
 VAL166  LYS551  ARG553  GLY616  TRP617  ASP618  TYR619  PRO620  LYS621  CYS622 
 ASP623  PHE694  ASN695  SER759  ASP760  ASP761  ALA762  ILE779  LEU786  VAL792 
 PHE793  MET794  SER795  GLU796  ALA797  LYS798  CYS799  TRP800  GLU811  SER814 

> <Gold.Protein.RotatedAtoms>
  152.3880  133.6638  159.6213 H   0  0  0  0  0  0  0  0  0  0  0  0  # atno 6907 bound_to 6896
  150.7794  133.9003  159.3348 H   0  0  0  0  0  0  0  0  0  0  0  0  # atno 6908 bound_to 6896
  151.6795  135.0965  160.0264 H   0  0  0  0  0  0  0  0  0  0  0  0  # atno 6909 bound_to 6896
  145.5857  139.2331  143.2327 H   0  0  0  0  0  0  0  0  0  0  0  0  # atno 7974 bound_to 7965
  155.4738  140.0555  157.2976 H   0  0  0  0  0  0  0  0  0  0  0  0  # atno 8008 bound_to 7997
  154.4688  140.2031  156.0002 H   0  0  0  0  0  0  0  0  0  0  0  0  # atno 8009 bound_to 7997
  156.1020  140.3217  155.7959 H   0  0  0  0  0  0  0  0  0  0  0  0  # atno 8010 bound_to 7997
  139.4913  144.4089  151.9323 H   0  0  0  0  0  0  0  0  0  0  0  0  # atno 10167 bound_to 10162
  157.5449  131.1096  150.8799 H   0  0  0  0  0  0  0  0  0  0  0  0  # atno 10718 bound_to 10713
  154.8012  135.4712  154.0279 H   0  0  0  0  0  0  0  0  0  0  0  0  # atno 10763 bound_to 10752
  153.1784  135.6836  153.8518 H   0  0  0  0  0  0  0  0  0  0  0  0  # atno 10764 bound_to 10752
  153.8077  135.3221  155.3375 H   0  0  0  0  0  0  0  0  0  0  0  0  # atno 10765 bound_to 10752
  140.6376  134.4585  157.5232 H   0  0  0  0  0  0  0  0  0  0  0  0  # atno 11005 bound_to 11000
  146.1683  140.6684  142.9245 LP  0  0  0  0  0  0  0  0  0  0  0  0  # atno 17320 bound_to 7965
  144.7373  140.4846  143.6894 LP  0  0  0  0  0  0  0  0  0  0  0  0  # atno 17321 bound_to 7965
  140.3529  144.3066  150.5946 LP  0  0  0  0  0  0  0  0  0  0  0  0  # atno 17342 bound_to 10162
  140.5469  143.2213  151.7992 LP  0  0  0  0  0  0  0  0  0  0  0  0  # atno 17343 bound_to 10162
  156.9341  130.5360  149.5279 LP  0  0  0  0  0  0  0  0  0  0  0  0  # atno 17370 bound_to 10713
  156.0527  130.5594  150.9024 LP  0  0  0  0  0  0  0  0  0  0  0  0  # atno 17371 bound_to 10713
  139.9092  134.8382  156.1591 LP  0  0  0  0  0  0  0  0  0  0  0  0  # atno 17394 bound_to 11000
  141.0630  133.6833  156.1989 LP  0  0  0  0  0  0  0  0  0  0  0  0  # atno 17395 bound_to 11000

$$$$
