AV-unprocessed.smi:224|AV-procd|sdf|1716|dock3
  -GOLD-   2262020193D 1   1.00000     0.00000
 Structure written by MMmdl.
 56 59  0  0  0  0  0  0  0  0  2 V2000
  145.4658  132.2936  149.2005 C   0  0  0  0  0  0  0  0  0  0  0  0
  144.2527  132.8719  149.9407 C   0  0  1  0  0  0  0  0  0  0  0  0
  143.1263  132.7336  149.0980 O   0  0  0  0  0  0  0  0  0  0  0  0
  143.9920  132.1367  151.2707 C   0  0  0  0  0  0  0  0  0  0  0  0
  144.0331  133.0429  152.4485 N   0  3  2  0  0  0  0  0  0  0  0  0
  143.4176  134.3754  152.2033 C   0  0  0  0  0  0  0  0  0  0  0  0
  143.3641  135.2050  153.4989 C   0  0  0  0  0  0  0  0  0  0  0  0
  144.6802  135.2878  154.1294 N   0  0  0  0  0  0  0  0  0  0  0  0
  145.5025  136.3288  153.8266 C   0  0  0  0  0  0  0  0  0  0  0  0
  145.2695  137.0649  152.7067 N   0  0  0  0  0  0  0  0  0  0  0  0
  146.0794  138.0745  152.3767 C   0  0  0  0  0  0  0  0  0  0  0  0
  147.1611  138.5179  153.0178 N   0  0  0  0  0  0  0  0  0  0  0  0
  147.3917  137.8005  154.1538 C   0  0  0  0  0  0  0  0  0  0  0  0
  146.6209  136.7007  154.6278 C   0  0  0  0  0  0  0  0  0  0  0  0
  147.1585  136.2318  155.8214 N   0  0  0  0  0  0  0  0  0  0  0  0
  148.1910  137.0009  156.0335 C   0  0  0  0  0  0  0  0  0  0  0  0
  148.4012  137.9747  155.0839 N   0  0  0  0  0  0  0  0  0  0  0  0
  149.4664  138.9653  155.0715 C   0  0  0  0  0  0  0  0  0  0  0  0
  150.8019  138.4264  154.5077 C   0  0  1  0  0  0  0  0  0  0  0  0
  150.7110  138.3447  153.0959 O   0  0  0  0  0  0  0  0  0  0  0  0
  152.0179  139.2773  154.8649 C   0  0  0  0  0  0  0  0  0  0  0  0
  153.1324  138.2470  154.9801 C   0  0  0  0  0  0  0  0  0  0  0  0
  152.4796  137.1599  155.6122 O   0  0  0  0  0  0  0  0  0  0  0  0
  151.1758  137.0337  155.0540 C   0  0  0  0  0  0  0  0  0  0  0  0
  145.3082  133.9909  154.3782 C   0  0  0  0  0  0  0  0  0  0  0  0
  145.3755  133.1282  153.0977 C   0  0  2  0  0  0  0  0  0  0  0  0
  146.4919  133.5932  152.1371 C   0  0  0  0  0  0  0  0  0  0  0  0
  146.3722  132.3916  149.7984 H   0  0  0  0  0  0  0  0  0  0  0  0
  145.6368  132.8143  148.2575 H   0  0  0  0  0  0  0  0  0  0  0  0
  145.3288  131.2351  148.9761 H   0  0  0  0  0  0  0  0  0  0  0  0
  144.4299  133.9336  150.1075 H   0  0  0  0  0  0  0  0  0  0  0  0
  142.6105  133.5240  149.1391 H   0  0  0  0  0  0  0  0  0  0  0  0
  143.0166  131.6511  151.2096 H   0  0  0  0  0  0  0  0  0  0  0  0
  144.7218  131.3378  151.4116 H   0  0  0  0  0  0  0  0  0  0  0  0
  143.9799  134.9058  151.4341 H   0  0  0  0  0  0  0  0  0  0  0  0
  142.4052  134.2620  151.8187 H   0  0  0  0  0  0  0  0  0  0  0  0
  142.9520  136.1967  153.3079 H   0  0  0  0  0  0  0  0  0  0  0  0
  142.6828  134.7306  154.2063 H   0  0  0  0  0  0  0  0  0  0  0  0
  145.8258  138.6023  151.4692 H   0  0  0  0  0  0  0  0  0  0  0  0
  148.8284  136.8813  156.8973 H   0  0  0  0  0  0  0  0  0  0  0  0
  149.1279  139.8172  154.4801 H   0  0  0  0  0  0  0  0  0  0  0  0
  149.6062  139.3366  156.0876 H   0  0  0  0  0  0  0  0  0  0  0  0
  150.3600  139.1593  152.7700 H   0  0  0  0  0  0  0  0  0  0  0  0
  152.2324  140.0668  154.1430 H   0  0  0  0  0  0  0  0  0  0  0  0
  151.8770  139.7472  155.8389 H   0  0  0  0  0  0  0  0  0  0  0  0
  153.4906  137.9422  153.9957 H   0  0  0  0  0  0  0  0  0  0  0  0
  153.9806  138.6042  155.5642 H   0  0  0  0  0  0  0  0  0  0  0  0
  150.4872  136.6904  155.8268 H   0  0  0  0  0  0  0  0  0  0  0  0
  151.1879  136.2749  154.2697 H   0  0  0  0  0  0  0  0  0  0  0  0
  146.3034  134.0859  154.8091 H   0  0  0  0  0  0  0  0  0  0  0  0
  144.7082  133.4758  155.1292 H   0  0  0  0  0  0  0  0  0  0  0  0
  145.6380  132.1186  153.4170 H   0  0  0  0  0  0  0  0  0  0  0  0
  147.4451  133.6657  152.6614 H   0  0  0  0  0  0  0  0  0  0  0  0
  146.2859  134.5709  151.7039 H   0  0  0  0  0  0  0  0  0  0  0  0
  146.6356  132.8934  151.3141 H   0  0  0  0  0  0  0  0  0  0  0  0
  143.4476  132.6003  153.1420 H   0  0  0  0  0  0  0  0  0  0  0  0
  1  2  1  0  0  0  0
  1 28  1  0  0  0  0
  1 29  1  0  0  0  0
  1 30  1  0  0  0  0
  2  3  1  0  0  0  0
  2  4  1  0  0  0  0
  2 31  1  0  0  0  0
  3 32  1  0  0  0  0
  4  5  1  0  0  0  0
  4 33  1  0  0  0  0
  4 34  1  0  0  0  0
  5 26  1  0  0  0  0
  5  6  1  0  0  0  0
  5 56  1  0  0  0  0
  6  7  1  0  0  0  0
  6 35  1  0  0  0  0
  6 36  1  0  0  0  0
  7  8  1  0  0  0  0
  7 37  1  0  0  0  0
  7 38  1  0  0  0  0
  8  9  1  0  0  0  0
  8 25  1  0  0  0  0
  9 14  1  0  0  0  0
  9 10  2  0  0  0  0
 10 11  1  0  0  0  0
 11 12  2  0  0  0  0
 11 39  1  0  0  0  0
 12 13  1  0  0  0  0
 13 17  1  0  0  0  0
 13 14  2  0  0  0  0
 14 15  1  0  0  0  0
 15 16  2  0  0  0  0
 16 17  1  0  0  0  0
 16 40  1  0  0  0  0
 17 18  1  0  0  0  0
 18 19  1  0  0  0  0
 18 41  1  0  0  0  0
 18 42  1  0  0  0  0
 19 24  1  0  0  0  0
 19 20  1  0  0  0  0
 19 21  1  0  0  0  0
 20 43  1  0  0  0  0
 21 22  1  0  0  0  0
 21 44  1  0  0  0  0
 21 45  1  0  0  0  0
 22 23  1  0  0  0  0
 22 46  1  0  0  0  0
 22 47  1  0  0  0  0
 23 24  1  0  0  0  0
 24 48  1  0  0  0  0
 24 49  1  0  0  0  0
 25 26  1  0  0  0  0
 25 50  1  0  0  0  0
 25 51  1  0  0  0  0
 26 27  1  0  0  0  0
 26 52  1  0  0  0  0
 27 53  1  0  0  0  0
 27 54  1  0  0  0  0
 27 55  1  0  0  0  0
M  CHG  1   5   1
M  END
> <s_m_source_file>
AV-unprocessed.smi

> <i_m_source_file_index>
224

> <i_lp_mmshare_version>
43012

> <i_f3d_flags>
0

> <s_epik_input>
W0NIM11bQ0BIXShbT0hdKVtDSDJdTjFbQ0gyXVtDSDJdTihbQ0gyXVtDQEhdMVtDSDNdKWMobltjSF1uMiljKGMyMyluW2NIXW4zW0NIMl1bQ0BAXTQoW09IXSlbQ0gyXVtDSDJdT1tDSDJdNA==

> <s_epik_cmdline>
J2VwaWtfcHl0aG9uJywgJy1waCcsICc3LjAnLCAnLXRuJywgJzgnLCAnLW1hJywgJzIwMCcsICctbWV0YWxfYmluZGluZycsICctaW1hZScsICc8aW5maWxlLm1hZT4nLCAnLW9tYWUnLCAnPG91dGZpbGUubWFlPic=

> <r_lp_tautomer_probability>
1

> <r_epik_Ionization_Penalty>
0.00516958

> <r_epik_Ionization_Penalty_Charging>
0.00509693

> <r_epik_Ionization_Penalty_Neutral>
7.26542e-05

> <r_epik_State_Penalty>
-0

> <r_epik_Charging_Adjusted_Penalty>
0.00509693

> <i_epik_Tot_Q>
1

> <i_epik_Tot_abs_Q>
1

> <r_epik_Metal_State_Penalty>
-0

> <b_epik_Metal_Only>
0

> <s_lp_Force_Field>
OPLS_2005

> <r_lp_Energy>
50.5155

> <b_lp_Chiralities_Consistent>
1

> <s_lp_Variant>
AV-unprocessed.smi:224-10

> <Gold.Version>
5.8.1

> <Gold.Id.Protein>
6NUR|6NUR_protein|mol2

> <Gold.PLP.Fitness>
46.9600

> <Gold.PLP.PLP>
-35.1154

> <Gold.PLP.part.hbond>
-6.0000

> <Gold.PLP.part.metal>
0.0000

> <Gold.PLP.part.buried>
-0.1665

> <Gold.PLP.part.nonpolar>
-28.8437

> <Gold.PLP.part.repulsive>
0.5002

> <Gold.PLP.ligand.clash>
0.0000

> <Gold.PLP.ligand.torsion>
2.1127

> <Gold.PLP.Chemscore.Hbond>
4.2889

> <Gold.PLP.Chemscore.CHOScore>
0.9371

> <Gold.PLP.Chemscore.Metal>
0.0000

> <Gold.Chemscore.Hbonds>
donor molecule, donor type, donor heavy atom, donor atom, acceptor molecule, acceptor atom, score
      L1  H     3    32       P1 10186  1.00
      L1  H     5    56       P1 10957  1.90
      L1  H    20    43       P1  7957  0.85
      P1  H 10752 10763       L1    23  0.64
      L1  C    11    39       P1 10171  0.95

> <Gold.PLP.Chemscore.Internal.Correction>
0.3918

> <Gold.Rescore>
     Score         DG    S(hbond)    S(metal)    S(lipo)     H(rot)  DE(clash)    DE(int)     intcor
     10.71     -15.43       2.40        0.00      82.66       3.02       2.65       2.07       ----

> <Gold.Chemscore.Fitness>
10.7059

> <Gold.Chemscore.DG>
-15.4254

> <Gold.Chemscore.ZeroCoef>
-5.4800

> <Gold.Chemscore.Hbond>
2.3994

> <Gold.Chemscore.Metal>
0.0000

> <Gold.Chemscore.Lipo>
82.6552

> <Gold.Chemscore.Internal_Hbond>
0.0000

> <Gold.Chemscore.DEClash>
2.6470

> <Gold.Chemscore.DEInternal>
2.0724

> <Gold.Chemscore.Rot>
3.0231

> <Gold.Chemscore.Internal.Correction>
   9.000000E+99

> <Gold.Chemscore.Hbonds>
donor molecule, donor type, donor heavy atom, donor atom, acceptor molecule, acceptor atom, score
      L1  H     3    32       P1 10186  0.95
      L1  H     5    56       P1 10957  0.21
      L1  H    20    43       P1  7957  0.49
      P1  H 10752 10763       L1    23  0.12

> <Gold.Chemscore.Hbond.Weighted>
-8.0138

> <Gold.Chemscore.Metal.Weighted>
-0.0000

> <Gold.Chemscore.Lipo.Weighted>
-9.6707

> <Gold.Chemscore.Internal_Hbond.Weighted>
0.0000

> <Gold.Chemscore.DEClash.Weighted>
2.6470

> <Gold.Chemscore.DEInternal.Weighted>
2.0724

> <Gold.Chemscore.Rot.Weighted>
7.7391

> <Gold.Chemscore.Internal.Correction.Weighted>
   9.000000E+99

> <Gold.Protein.RotatedTorsions>
[ 6907 6896 6895 6894 ] final   53.80 input  -60.11 | X-H torsion
[ 7974 7965 7964 7962 ] final   78.90 input  175.53 | X-H torsion
[ 8008 7997 7996 7995 ] final   24.86 input   59.86 | X-H torsion
[ 10167 10162 10161 10158 ] final  105.21 input  -65.29 | X-H torsion
[ 10718 10713 10712 10709 ] final  134.74 input   66.30 | X-H torsion
[ 10763 10752 10751 10750 ] final   92.68 input  -60.55 | X-H torsion
[ 11005 11000 10999 10996 ] final  -76.05 input  -57.11 | X-H torsion

> <Gold.Protein.ActiveResidues>
 VAL166  LYS551  ARG553  GLY616  TRP617  ASP618  TYR619  PRO620  LYS621  CYS622 
 ASP623  PHE694  ASN695  SER759  ASP760  ASP761  ALA762  ILE779  LEU786  VAL792 
 PHE793  MET794  SER795  GLU796  ALA797  LYS798  CYS799  TRP800  GLU811  SER814 

> <Gold.Protein.RotatedAtoms>
  152.3374  134.7180  160.0273 H   0  0  0  0  0  0  0  0  0  0  0  0  # atno 6907 bound_to 6896
  151.7577  133.3326  159.3417 H   0  0  0  0  0  0  0  0  0  0  0  0  # atno 6908 bound_to 6896
  150.7458  134.6067  159.6109 H   0  0  0  0  0  0  0  0  0  0  0  0  # atno 6909 bound_to 6896
  145.6712  139.2497  143.1867 H   0  0  0  0  0  0  0  0  0  0  0  0  # atno 7974 bound_to 7965
  155.0027  140.3127  155.4861 H   0  0  0  0  0  0  0  0  0  0  0  0  # atno 8008 bound_to 7997
  156.2922  140.2229  156.5079 H   0  0  0  0  0  0  0  0  0  0  0  0  # atno 8009 bound_to 7997
  154.7604  140.0459  157.0956 H   0  0  0  0  0  0  0  0  0  0  0  0  # atno 8010 bound_to 7997
  139.7112  144.7077  151.1024 H   0  0  0  0  0  0  0  0  0  0  0  0  # atno 10167 bound_to 10162
  157.4642  131.1075  150.9883 H   0  0  0  0  0  0  0  0  0  0  0  0  # atno 10718 bound_to 10713
  153.2219  135.4352  155.0499 H   0  0  0  0  0  0  0  0  0  0  0  0  # atno 10763 bound_to 10752
  154.8254  135.3358  154.6915 H   0  0  0  0  0  0  0  0  0  0  0  0  # atno 10764 bound_to 10752
  153.7346  135.7009  153.5037 H   0  0  0  0  0  0  0  0  0  0  0  0  # atno 10765 bound_to 10752
  141.1651  133.6969  156.7610 H   0  0  0  0  0  0  0  0  0  0  0  0  # atno 11005 bound_to 11000
  146.1044  140.7505  142.9533 LP  0  0  0  0  0  0  0  0  0  0  0  0  # atno 17320 bound_to 7965
  144.7056  140.3838  143.7121 LP  0  0  0  0  0  0  0  0  0  0  0  0  # atno 17321 bound_to 7965
  140.7733  143.5291  150.9445 LP  0  0  0  0  0  0  0  0  0  0  0  0  # atno 17342 bound_to 10162
  139.8975  143.6876  152.3136 LP  0  0  0  0  0  0  0  0  0  0  0  0  # atno 17343 bound_to 10162
  157.0670  130.5848  149.5396 LP  0  0  0  0  0  0  0  0  0  0  0  0  # atno 17370 bound_to 10713
  156.0042  130.5126  150.7773 LP  0  0  0  0  0  0  0  0  0  0  0  0  # atno 17371 bound_to 10713
  140.2534  134.8523  157.3689 LP  0  0  0  0  0  0  0  0  0  0  0  0  # atno 17394 bound_to 11000
  140.1681  134.4643  155.7850 LP  0  0  0  0  0  0  0  0  0  0  0  0  # atno 17395 bound_to 11000

$$$$
