AV-unprocessed.smi:561|AV-procd|sdf|2938|dock3
  -GOLD-   2262023433D 1   1.00000     0.00000
 Structure written by MMmdl.
 36 37  0  0  0  0  0  0  0  0  1 V2000
  152.5151  141.9219  160.7825 C   0  0  0  0  0  0  0  0  0  0  0  0
  153.1755  142.1472  159.4160 C   0  0  2  0  0  0  0  0  0  0  0  0
  153.4220  143.6466  159.1494 C   0  0  0  0  0  0  0  0  0  0  0  0
  152.2404  144.4576  159.3805 N   0  0  0  0  0  0  0  0  0  0  0  0
  150.9740  144.2650  158.8432 C   0  0  0  0  0  0  0  0  0  0  0  0
  150.1817  145.2788  159.3322 C   0  0  0  0  0  0  0  0  0  0  0  0
  150.9332  146.0980  160.1716 N   0  0  0  0  0  0  0  0  0  0  0  0
  152.1408  145.5486  160.1521 C   0  0  0  0  0  0  0  0  0  0  0  0
  152.3242  141.5729  158.3750 N   0  0  0  0  0  0  0  0  0  0  0  0
  152.5477  140.4168  157.7221 C   0  0  0  0  0  0  0  0  0  0  0  0
  153.5026  139.6792  157.9675 O   0  0  0  0  0  0  0  0  0  0  0  0
  151.5730  140.0763  156.6525 C   0  0  0  0  0  0  0  0  0  0  0  0
  151.7254  138.9931  155.9565 N   0  0  0  0  0  0  0  0  0  0  0  0
  150.8352  138.6266  154.9679 N   0  0  0  0  0  0  0  0  0  0  0  0
  150.9925  137.2590  154.4769 C   0  0  0  0  0  0  0  0  0  0  0  0
  149.8873  139.4422  154.4426 C   0  0  0  0  0  0  0  0  0  0  0  0
  149.0895  139.0929  153.5726 O   0  0  0  0  0  0  0  0  0  0  0  0
  149.8596  140.8813  154.9656 C   0  0  0  0  0  0  0  0  0  0  0  0
  150.3856  140.9867  156.4108 C   0  0  0  0  0  0  0  0  0  0  0  0
  153.1345  142.3190  161.5873 H   0  0  0  0  0  0  0  0  0  0  0  0
  152.3667  140.8591  160.9766 H   0  0  0  0  0  0  0  0  0  0  0  0
  151.5419  142.4108  160.8397 H   0  0  0  0  0  0  0  0  0  0  0  0
  154.1390  141.6348  159.4363 H   0  0  0  0  0  0  0  0  0  0  0  0
  154.2318  144.0200  159.7779 H   0  0  0  0  0  0  0  0  0  0  0  0
  153.7347  143.7976  158.1153 H   0  0  0  0  0  0  0  0  0  0  0  0
  150.7499  143.4498  158.1712 H   0  0  0  0  0  0  0  0  0  0  0  0
  149.1370  145.4796  159.1462 H   0  0  0  0  0  0  0  0  0  0  0  0
  152.9744  145.9529  160.7074 H   0  0  0  0  0  0  0  0  0  0  0  0
  151.5134  142.1114  158.1051 H   0  0  0  0  0  0  0  0  0  0  0  0
  151.1945  137.2548  153.4046 H   0  0  0  0  0  0  0  0  0  0  0  0
  150.0840  136.6820  154.6553 H   0  0  0  0  0  0  0  0  0  0  0  0
  151.8158  136.7384  154.9692 H   0  0  0  0  0  0  0  0  0  0  0  0
  150.4838  141.4822  154.3033 H   0  0  0  0  0  0  0  0  0  0  0  0
  148.8494  141.2865  154.8990 H   0  0  0  0  0  0  0  0  0  0  0  0
  149.5916  140.7356  157.1151 H   0  0  0  0  0  0  0  0  0  0  0  0
  150.6516  142.0265  156.6055 H   0  0  0  0  0  0  0  0  0  0  0  0
  1  2  1  0  0  0  0
  1 20  1  0  0  0  0
  1 21  1  0  0  0  0
  1 22  1  0  0  0  0
  2  3  1  0  0  0  0
  2  9  1  0  0  0  0
  2 23  1  0  0  0  0
  3  4  1  0  0  0  0
  3 24  1  0  0  0  0
  3 25  1  0  0  0  0
  4  8  1  0  0  0  0
  4  5  1  0  0  0  0
  5  6  2  0  0  0  0
  5 26  1  0  0  0  0
  6  7  1  0  0  0  0
  6 27  1  0  0  0  0
  7  8  2  0  0  0  0
  8 28  1  0  0  0  0
  9 10  1  0  0  0  0
  9 29  1  0  0  0  0
 10 11  2  0  0  0  0
 10 12  1  0  0  0  0
 12 19  1  0  0  0  0
 12 13  2  0  0  0  0
 13 14  1  0  0  0  0
 14 15  1  0  0  0  0
 14 16  1  0  0  0  0
 15 30  1  0  0  0  0
 15 31  1  0  0  0  0
 15 32  1  0  0  0  0
 16 17  2  0  0  0  0
 16 18  1  0  0  0  0
 18 19  1  0  0  0  0
 18 33  1  0  0  0  0
 18 34  1  0  0  0  0
 19 35  1  0  0  0  0
 19 36  1  0  0  0  0
M  END
> <s_m_source_file>
AV-unprocessed.smi

> <i_m_source_file_index>
561

> <i_lp_mmshare_version>
43012

> <i_f3d_flags>
0

> <s_epik_input>
W2NIXTFuW2NIXVtjSF1uMVtDSDJdW0NAQEhdKFtDSDNdKVtOSF1DKD1PKUMyPU5OKFtDSDNdKUMoPU8pW0NIMl1bQ0gyXTI=

> <s_epik_cmdline>
J2VwaWtfcHl0aG9uJywgJy1waCcsICc3LjAnLCAnLXRuJywgJzgnLCAnLW1hJywgJzIwMCcsICctbWV0YWxfYmluZGluZycsICctaW1hZScsICc8aW5maWxlLm1hZT4nLCAnLW9tYWUnLCAnPG91dGZpbGUubWFlPic=

> <r_lp_tautomer_probability>
1

> <r_epik_Ionization_Penalty>
0.46798

> <r_epik_Ionization_Penalty_Charging>
0.467902

> <r_epik_Ionization_Penalty_Neutral>
7.78263e-05

> <r_epik_State_Penalty>
0.47192

> <r_epik_Charging_Adjusted_Penalty>
0.939822

> <i_epik_Tot_Q>
0

> <i_epik_Tot_abs_Q>
0

> <r_epik_Metal_State_Penalty>
0.280825

> <b_epik_Metal_Only>
0

> <s_epik_Chemistry_Notes>
This compound has an imine and may undergo hydrolysis.

> <s_lp_Force_Field>
OPLS_2005

> <r_lp_Energy>
18.1828

> <b_lp_Chiralities_Consistent>
1

> <s_lp_Variant>
AV-unprocessed.smi:561-3

> <Gold.Version>
5.8.1

> <Gold.Id.Protein>
6NUR|6NUR_protein|mol2

> <Gold.PLP.Fitness>
41.8989

> <Gold.PLP.PLP>
-36.3892

> <Gold.PLP.part.hbond>
-3.0000

> <Gold.PLP.part.metal>
0.0000

> <Gold.PLP.part.buried>
-1.9530

> <Gold.PLP.part.nonpolar>
-31.7157

> <Gold.PLP.part.repulsive>
1.6827

> <Gold.PLP.ligand.clash>
0.0000

> <Gold.PLP.ligand.torsion>
0.2896

> <Gold.PLP.Chemscore.Hbond>
1.0000

> <Gold.PLP.Chemscore.CHOScore>
1.0000

> <Gold.PLP.Chemscore.Metal>
0.0000

> <Gold.Chemscore.Hbonds>
donor molecule, donor type, donor heavy atom, donor atom, acceptor molecule, acceptor atom, score
      P1  H  7997  8008       L1    11  0.89
      L1  C     6    27       P1  8029  1.00

> <Gold.PLP.Chemscore.Internal.Correction>
0.0889

> <Gold.Rescore>
     Score         DG    S(hbond)    S(metal)    S(lipo)     H(rot)  DE(clash)    DE(int)     intcor
      9.97     -12.85       0.94        0.00      73.62       1.71       2.01       0.87       ----

> <Gold.Chemscore.Fitness>
9.9656

> <Gold.Chemscore.DG>
-12.8509

> <Gold.Chemscore.ZeroCoef>
-5.4800

> <Gold.Chemscore.Hbond>
0.9373

> <Gold.Chemscore.Metal>
0.0000

> <Gold.Chemscore.Lipo>
73.6244

> <Gold.Chemscore.Internal_Hbond>
0.0000

> <Gold.Chemscore.DEClash>
2.0134

> <Gold.Chemscore.DEInternal>
0.8719

> <Gold.Chemscore.Rot>
1.7086

> <Gold.Chemscore.Internal.Correction>
   9.000000E+99

> <Gold.Chemscore.Hbonds>
donor molecule, donor type, donor heavy atom, donor atom, acceptor molecule, acceptor atom, score
      P1  H  7997  8008       L1    11  0.65

> <Gold.Chemscore.Hbond.Weighted>
-3.1307

> <Gold.Chemscore.Metal.Weighted>
-0.0000

> <Gold.Chemscore.Lipo.Weighted>
-8.6141

> <Gold.Chemscore.Internal_Hbond.Weighted>
0.0000

> <Gold.Chemscore.DEClash.Weighted>
2.0134

> <Gold.Chemscore.DEInternal.Weighted>
0.8719

> <Gold.Chemscore.Rot.Weighted>
4.3739

> <Gold.Chemscore.Internal.Correction.Weighted>
   9.000000E+99

> <Gold.Protein.RotatedTorsions>
[ 6907 6896 6895 6894 ] final  138.39 input  -60.11 | X-H torsion
[ 7974 7965 7964 7962 ] final -146.63 input  175.53 | X-H torsion
[ 8008 7997 7996 7995 ] final  -90.56 input   59.86 | X-H torsion
[ 10167 10162 10161 10158 ] final  -27.99 input  -65.29 | X-H torsion
[ 10718 10713 10712 10709 ] final   -5.07 input   66.30 | X-H torsion
[ 10763 10752 10751 10750 ] final -167.07 input  -60.55 | X-H torsion
[ 11005 11000 10999 10996 ] final  -66.72 input  -57.11 | X-H torsion

> <Gold.Protein.ActiveResidues>
 VAL166  LYS551  ARG553  GLY616  TRP617  ASP618  TYR619  PRO620  LYS621  CYS622 
 ASP623  PHE694  ASN695  SER759  ASP760  ASP761  ALA762  ILE779  LEU786  VAL792 
 PHE793  MET794  SER795  GLU796  ALA797  LYS798  CYS799  TRP800  GLU811  SER814 

> <Gold.Protein.RotatedAtoms>
  152.2671  133.5349  159.5416 H   0  0  0  0  0  0  0  0  0  0  0  0  # atno 6907 bound_to 6896
  150.7146  134.0749  159.3886 H   0  0  0  0  0  0  0  0  0  0  0  0  # atno 6908 bound_to 6896
  151.8665  135.0505  160.0525 H   0  0  0  0  0  0  0  0  0  0  0  0  # atno 6909 bound_to 6896
  144.8146  140.5431  143.5619 H   0  0  0  0  0  0  0  0  0  0  0  0  # atno 7974 bound_to 7965
  154.7001  140.0529  157.0449 H   0  0  0  0  0  0  0  0  0  0  0  0  # atno 8008 bound_to 7997
  155.0697  140.3198  155.4615 H   0  0  0  0  0  0  0  0  0  0  0  0  # atno 8009 bound_to 7997
  156.2757  140.2084  156.5825 H   0  0  0  0  0  0  0  0  0  0  0  0  # atno 8010 bound_to 7997
  140.7273  143.4047  151.1205 H   0  0  0  0  0  0  0  0  0  0  0  0  # atno 10167 bound_to 10162
  156.7519  130.5242  149.5802 H   0  0  0  0  0  0  0  0  0  0  0  0  # atno 10718 bound_to 10713
  154.6769  135.2948  154.9666 H   0  0  0  0  0  0  0  0  0  0  0  0  # atno 10763 bound_to 10752
  154.0675  135.6623  153.4824 H   0  0  0  0  0  0  0  0  0  0  0  0  # atno 10764 bound_to 10752
  153.0522  135.5167  154.7792 H   0  0  0  0  0  0  0  0  0  0  0  0  # atno 10765 bound_to 10752
  141.1489  133.6705  156.6183 H   0  0  0  0  0  0  0  0  0  0  0  0  # atno 11005 bound_to 11000
  145.5243  139.1476  143.3535 LP  0  0  0  0  0  0  0  0  0  0  0  0  # atno 17320 bound_to 7965
  146.2448  140.5384  142.8918 LP  0  0  0  0  0  0  0  0  0  0  0  0  # atno 17321 bound_to 7965
  139.7672  143.8548  152.3113 LP  0  0  0  0  0  0  0  0  0  0  0  0  # atno 17342 bound_to 10162
  139.8454  144.7190  150.9279 LP  0  0  0  0  0  0  0  0  0  0  0  0  # atno 17343 bound_to 10162
  156.1395  130.6235  151.0448 LP  0  0  0  0  0  0  0  0  0  0  0  0  # atno 17370 bound_to 10713
  157.6773  131.0847  150.7461 LP  0  0  0  0  0  0  0  0  0  0  0  0  # atno 17371 bound_to 10713
  140.3560  134.7728  157.4501 LP  0  0  0  0  0  0  0  0  0  0  0  0  # atno 17394 bound_to 11000
  140.0822  134.5715  155.8528 LP  0  0  0  0  0  0  0  0  0  0  0  0  # atno 17395 bound_to 11000

$$$$
