AV-unprocessed.smi:252|AV-procd|sdf|1937|dock4
  -GOLD-   2262021 63D 1   1.00000     0.00000
 Structure written by MMmdl.
 56 59  0  0  0  0  0  0  0  0  1 V2000
  147.5131  128.7018  151.8145 C   0  0  0  0  0  0  0  0  0  0  0  0
  147.8553  129.8470  152.7803 C   0  0  0  0  0  0  0  0  0  0  0  0
  146.9180  131.0521  152.6528 C   0  0  0  0  0  0  0  0  0  0  0  0
  146.0504  131.2693  153.4998 O   0  0  0  0  0  0  0  0  0  0  0  0
  147.1024  131.8282  151.5736 N   0  0  0  0  0  0  0  0  0  0  0  0
  146.3233  133.0185  151.2479 C   0  0  1  0  0  0  0  0  0  0  0  0
  144.9821  132.6062  150.6142 C   0  0  0  0  0  0  0  0  0  0  0  0
  144.1095  133.8422  150.3447 C   0  0  0  0  0  0  0  0  0  0  0  0
  143.9253  134.6795  151.6208 C   0  0  0  0  0  0  0  0  0  0  0  0
  145.2218  135.0169  152.2099 N   0  0  0  0  0  0  0  0  0  0  0  0
  145.2635  136.0134  153.1303 C   0  0  0  0  0  0  0  0  0  0  0  0
  144.6832  135.8389  154.3479 N   0  0  0  0  0  0  0  0  0  0  0  0
  144.7346  136.8096  155.2649 C   0  0  0  0  0  0  0  0  0  0  0  0
  145.3038  138.0129  155.1759 N   0  0  0  0  0  0  0  0  0  0  0  0
  145.8812  138.1977  153.9544 C   0  0  0  0  0  0  0  0  0  0  0  0
  145.9029  137.2610  152.8826 C   0  0  0  0  0  0  0  0  0  0  0  0
  146.5634  137.8091  151.7893 N   0  0  0  0  0  0  0  0  0  0  0  0
  146.9230  138.9956  152.1959 C   0  0  0  0  0  0  0  0  0  0  0  0
  146.5636  139.3080  153.4877 N   0  0  0  0  0  0  0  0  0  0  0  0
  146.8412  140.5504  154.1928 C   0  0  0  0  0  0  0  0  0  0  0  0
  148.3559  140.8158  154.3993 C   0  0  1  0  0  0  0  0  0  0  0  0
  148.9296  141.0830  153.1307 O   0  0  0  0  0  0  0  0  0  0  0  0
  148.6487  142.0104  155.3031 C   0  0  0  0  0  0  0  0  0  0  0  0
  149.9980  141.6578  155.9093 C   0  0  0  0  0  0  0  0  0  0  0  0
  149.8697  140.2677  156.1490 O   0  0  0  0  0  0  0  0  0  0  0  0
  149.1769  139.6696  155.0559 C   0  0  1  0  0  0  0  0  0  0  0  0
  148.3816  138.4766  155.6086 C   0  0  0  0  0  0  0  0  0  0  0  0
  146.0811  133.8723  152.5092 C   0  0  0  0  0  0  0  0  0  0  0  0
  148.1794  127.8536  151.9726 H   0  0  0  0  0  0  0  0  0  0  0  0
  147.6188  129.0117  150.7742 H   0  0  0  0  0  0  0  0  0  0  0  0
  146.4911  128.3498  151.9605 H   0  0  0  0  0  0  0  0  0  0  0  0
  147.8189  129.4750  153.8052 H   0  0  0  0  0  0  0  0  0  0  0  0
  148.8774  130.1832  152.6047 H   0  0  0  0  0  0  0  0  0  0  0  0
  147.8366  131.5750  150.9283 H   0  0  0  0  0  0  0  0  0  0  0  0
  146.8770  133.6138  150.5189 H   0  0  0  0  0  0  0  0  0  0  0  0
  145.1536  132.0627  149.6843 H   0  0  0  0  0  0  0  0  0  0  0  0
  144.4493  131.9262  151.2807 H   0  0  0  0  0  0  0  0  0  0  0  0
  144.5750  134.4557  149.5723 H   0  0  0  0  0  0  0  0  0  0  0  0
  143.1378  133.5376  149.9551 H   0  0  0  0  0  0  0  0  0  0  0  0
  143.3728  135.5888  151.3801 H   0  0  0  0  0  0  0  0  0  0  0  0
  143.3331  134.1240  152.3494 H   0  0  0  0  0  0  0  0  0  0  0  0
  144.2522  136.5896  156.2060 H   0  0  0  0  0  0  0  0  0  0  0  0
  147.4679  139.6782  151.5604 H   0  0  0  0  0  0  0  0  0  0  0  0
  146.3863  141.3586  153.6197 H   0  0  0  0  0  0  0  0  0  0  0  0
  146.3241  140.5227  155.1527 H   0  0  0  0  0  0  0  0  0  0  0  0
  148.6369  140.4207  152.5237 H   0  0  0  0  0  0  0  0  0  0  0  0
  148.6473  142.9698  154.7835 H   0  0  0  0  0  0  0  0  0  0  0  0
  147.9099  142.0649  156.1037 H   0  0  0  0  0  0  0  0  0  0  0  0
  150.8085  141.8392  155.2017 H   0  0  0  0  0  0  0  0  0  0  0  0
  150.2069  142.2081  156.8267 H   0  0  0  0  0  0  0  0  0  0  0  0
  149.9254  139.2888  154.3583 H   0  0  0  0  0  0  0  0  0  0  0  0
  147.8387  137.9587  154.8180 H   0  0  0  0  0  0  0  0  0  0  0  0
  147.6650  138.7893  156.3683 H   0  0  0  0  0  0  0  0  0  0  0  0
  149.0508  137.7516  156.0721 H   0  0  0  0  0  0  0  0  0  0  0  0
  145.5965  133.2703  153.2791 H   0  0  0  0  0  0  0  0  0  0  0  0
  147.0364  134.1915  152.9241 H   0  0  0  0  0  0  0  0  0  0  0  0
  1  2  1  0  0  0  0
  1 29  1  0  0  0  0
  1 30  1  0  0  0  0
  1 31  1  0  0  0  0
  2  3  1  0  0  0  0
  2 32  1  0  0  0  0
  2 33  1  0  0  0  0
  3  4  2  0  0  0  0
  3  5  1  0  0  0  0
  5  6  1  0  0  0  0
  5 34  1  0  0  0  0
  6 28  1  0  0  0  0
  6  7  1  0  0  0  0
  6 35  1  0  0  0  0
  7  8  1  0  0  0  0
  7 36  1  0  0  0  0
  7 37  1  0  0  0  0
  8  9  1  0  0  0  0
  8 38  1  0  0  0  0
  8 39  1  0  0  0  0
  9 10  1  0  0  0  0
  9 40  1  0  0  0  0
  9 41  1  0  0  0  0
 10 11  1  0  0  0  0
 10 28  1  0  0  0  0
 11 16  1  0  0  0  0
 11 12  2  0  0  0  0
 12 13  1  0  0  0  0
 13 14  2  0  0  0  0
 13 42  1  0  0  0  0
 14 15  1  0  0  0  0
 15 19  1  0  0  0  0
 15 16  2  0  0  0  0
 16 17  1  0  0  0  0
 17 18  2  0  0  0  0
 18 19  1  0  0  0  0
 18 43  1  0  0  0  0
 19 20  1  0  0  0  0
 20 21  1  0  0  0  0
 20 44  1  0  0  0  0
 20 45  1  0  0  0  0
 21 26  1  0  0  0  0
 21 22  1  0  0  0  0
 21 23  1  0  0  0  0
 22 46  1  0  0  0  0
 23 24  1  0  0  0  0
 23 47  1  0  0  0  0
 23 48  1  0  0  0  0
 24 25  1  0  0  0  0
 24 49  1  0  0  0  0
 24 50  1  0  0  0  0
 25 26  1  0  0  0  0
 26 27  1  0  0  0  0
 26 51  1  0  0  0  0
 27 52  1  0  0  0  0
 27 53  1  0  0  0  0
 27 54  1  0  0  0  0
 28 55  1  0  0  0  0
 28 56  1  0  0  0  0
M  END
> <s_m_source_file>
AV-unprocessed.smi

> <i_m_source_file_index>
252

> <i_lp_mmshare_version>
43012

> <i_f3d_flags>
0

> <s_epik_input>
W0NIM11bQ0gyXUMoPU8pW05IXVtDQEBIXTFbQ0gyXVtDSDJdW0NIMl1OKFtDSDJdMSljKG5bY0hdbjIpYyhjMjMpbltjSF1uM1tDSDJdW0NAQF00KFtPSF0pW0NIMl1bQ0gyXU9bQ0BIXTRbQ0gzXQ==

> <s_epik_cmdline>
J2VwaWtfcHl0aG9uJywgJy1waCcsICc3LjAnLCAnLXRuJywgJzgnLCAnLW1hJywgJzIwMCcsICctbWV0YWxfYmluZGluZycsICctaW1hZScsICc8aW5maWxlLm1hZT4nLCAnLW9tYWUnLCAnPG91dGZpbGUubWFlPic=

> <r_lp_tautomer_probability>
1

> <r_epik_Ionization_Penalty>
0.00182575

> <r_epik_Ionization_Penalty_Charging>
0

> <r_epik_Ionization_Penalty_Neutral>
0.00182575

> <r_epik_State_Penalty>
0.00104524

> <r_epik_Charging_Adjusted_Penalty>
0.00104524

> <i_epik_Tot_Q>
0

> <i_epik_Tot_abs_Q>
0

> <r_epik_Metal_State_Penalty>
-0

> <b_epik_Metal_Only>
0

> <s_lp_Force_Field>
OPLS_2005

> <r_lp_Energy>
35.3243

> <b_lp_Chiralities_Consistent>
1

> <s_lp_Variant>
AV-unprocessed.smi:252-2

> <Gold.Version>
5.8.1

> <Gold.Id.Protein>
6NUR|6NUR_protein|mol2

> <Gold.PLP.Fitness>
41.3604

> <Gold.PLP.PLP>
-31.8884

> <Gold.PLP.part.hbond>
-2.3239

> <Gold.PLP.part.metal>
0.0000

> <Gold.PLP.part.buried>
-0.1108

> <Gold.PLP.part.nonpolar>
-32.8111

> <Gold.PLP.part.repulsive>
2.9638

> <Gold.PLP.ligand.clash>
0.0000

> <Gold.PLP.ligand.torsion>
0.6964

> <Gold.PLP.Chemscore.Hbond>
2.4653

> <Gold.PLP.Chemscore.CHOScore>
1.0000

> <Gold.PLP.Chemscore.Metal>
0.0000

> <Gold.Chemscore.Hbonds>
donor molecule, donor type, donor heavy atom, donor atom, acceptor molecule, acceptor atom, score
      L1  H     5    34       P1 10747  0.91
      L1  H    22    46       P1  7957  0.40
      P1  H  8011  8017       L1    22  1.00
      L1  C    18    43       P1  7957  1.00

> <Gold.PLP.Chemscore.Internal.Correction>
0.4691

> <Gold.Rescore>
     Score         DG    S(hbond)    S(metal)    S(lipo)     H(rot)  DE(clash)    DE(int)     intcor
      7.86     -15.71       2.23        0.00      82.91       2.70       2.87       4.98       ----

> <Gold.Chemscore.Fitness>
7.8575

> <Gold.Chemscore.DG>
-15.7051

> <Gold.Chemscore.ZeroCoef>
-5.4800

> <Gold.Chemscore.Hbond>
2.2297

> <Gold.Chemscore.Metal>
0.0000

> <Gold.Chemscore.Lipo>
82.9103

> <Gold.Chemscore.Internal_Hbond>
0.0000

> <Gold.Chemscore.DEClash>
2.8672

> <Gold.Chemscore.DEInternal>
4.9804

> <Gold.Chemscore.Rot>
2.7041

> <Gold.Chemscore.Internal.Correction>
   9.000000E+99

> <Gold.Chemscore.Hbonds>
donor molecule, donor type, donor heavy atom, donor atom, acceptor molecule, acceptor atom, score
      L1  H     5    34       P1 10747  0.88
      L1  H    22    46       P1  7957  0.40
      P1  H  8011  8017       L1    22  0.81

> <Gold.Chemscore.Hbond.Weighted>
-7.4471

> <Gold.Chemscore.Metal.Weighted>
-0.0000

> <Gold.Chemscore.Lipo.Weighted>
-9.7005

> <Gold.Chemscore.Internal_Hbond.Weighted>
0.0000

> <Gold.Chemscore.DEClash.Weighted>
2.8672

> <Gold.Chemscore.DEInternal.Weighted>
4.9804

> <Gold.Chemscore.Rot.Weighted>
6.9225

> <Gold.Chemscore.Internal.Correction.Weighted>
   9.000000E+99

> <Gold.Protein.RotatedTorsions>
[ 6907 6896 6895 6894 ] final   27.60 input  -60.11 | X-H torsion
[ 7974 7965 7964 7962 ] final  -30.85 input  175.53 | X-H torsion
[ 8008 7997 7996 7995 ] final   -6.26 input   59.86 | X-H torsion
[ 10167 10162 10161 10158 ] final  -28.21 input  -65.29 | X-H torsion
[ 10718 10713 10712 10709 ] final   17.45 input   66.30 | X-H torsion
[ 10763 10752 10751 10750 ] final  155.69 input  -60.55 | X-H torsion
[ 11005 11000 10999 10996 ] final  -30.79 input  -57.11 | X-H torsion

> <Gold.Protein.ActiveResidues>
 VAL166  LYS551  ARG553  GLY616  TRP617  ASP618  TYR619  PRO620  LYS621  CYS622 
 ASP623  PHE694  ASN695  SER759  ASP760  ASP761  ALA762  ILE779  LEU786  VAL792 
 PHE793  MET794  SER795  GLU796  ALA797  LYS798  CYS799  TRP800  GLU811  SER814 

> <Gold.Protein.RotatedAtoms>
  152.0046  134.9909  160.0565 H   0  0  0  0  0  0  0  0  0  0  0  0  # atno 6907 bound_to 6896
  152.1486  133.4503  159.4810 H   0  0  0  0  0  0  0  0  0  0  0  0  # atno 6908 bound_to 6896
  150.6873  134.2135  159.4411 H   0  0  0  0  0  0  0  0  0  0  0  0  # atno 6909 bound_to 6896
  146.1112  140.5593  142.8777 H   0  0  0  0  0  0  0  0  0  0  0  0  # atno 7974 bound_to 7965
  154.5955  140.2437  155.7862 H   0  0  0  0  0  0  0  0  0  0  0  0  # atno 8008 bound_to 7997
  156.2276  140.2977  156.0060 H   0  0  0  0  0  0  0  0  0  0  0  0  # atno 8009 bound_to 7997
  155.2300  140.0403  157.2951 H   0  0  0  0  0  0  0  0  0  0  0  0  # atno 8010 bound_to 7997
  140.7271  143.4028  151.1235 H   0  0  0  0  0  0  0  0  0  0  0  0  # atno 10167 bound_to 10162
  157.0823  130.6393  149.5829 H   0  0  0  0  0  0  0  0  0  0  0  0  # atno 10718 bound_to 10713
  154.1723  135.2804  155.3077 H   0  0  0  0  0  0  0  0  0  0  0  0  # atno 10763 bound_to 10752
  154.6065  135.5512  153.7432 H   0  0  0  0  0  0  0  0  0  0  0  0  # atno 10764 bound_to 10752
  153.0161  135.6405  154.1863 H   0  0  0  0  0  0  0  0  0  0  0  0  # atno 10765 bound_to 10752
  140.9413  133.7277  156.1080 H   0  0  0  0  0  0  0  0  0  0  0  0  # atno 11005 bound_to 11000
  144.7513  140.5198  143.6800 LP  0  0  0  0  0  0  0  0  0  0  0  0  # atno 17320 bound_to 7965
  145.5660  139.1481  143.3315 LP  0  0  0  0  0  0  0  0  0  0  0  0  # atno 17321 bound_to 7965
  139.7651  143.8578  152.3109 LP  0  0  0  0  0  0  0  0  0  0  0  0  # atno 17342 bound_to 10162
  139.8477  144.7180  150.9253 LP  0  0  0  0  0  0  0  0  0  0  0  0  # atno 17343 bound_to 10162
  155.9920  130.4977  150.7323 LP  0  0  0  0  0  0  0  0  0  0  0  0  # atno 17370 bound_to 10713
  157.4790  131.0900  151.0558 LP  0  0  0  0  0  0  0  0  0  0  0  0  # atno 17371 bound_to 10713
  140.7730  134.3811  157.5504 LP  0  0  0  0  0  0  0  0  0  0  0  0  # atno 17394 bound_to 11000
  139.8821  134.9034  156.2854 LP  0  0  0  0  0  0  0  0  0  0  0  0  # atno 17395 bound_to 11000

$$$$
