AV-unprocessed.smi:3250|AV-procd|sdf|12427|dock2
  -GOLD-   2272018313D 1   1.00000     0.00000
 Structure written by MMmdl.
 39 40  0  0  0  0  0  0  0  0  2 V2000
  147.8791  136.8829  155.2078 C   0  0  0  0  0  0  0  0  0  0  0  0
  147.2840  138.0979  154.4828 C   0  0  0  0  0  0  0  0  0  0  0  0
  148.2320  138.6868  153.5004 N   0  3  1  0  0  0  0  0  0  0  0  0
  147.6540  139.7523  152.6422 C   0  0  0  0  0  0  0  0  0  0  0  0
  147.5559  141.0935  153.3942 C   0  0  0  0  0  0  0  0  0  0  0  0
  148.8312  141.4473  153.9164 O   0  0  0  0  0  0  0  0  0  0  0  0
  149.3253  140.4890  154.8456 C   0  0  2  0  0  0  0  0  0  0  0  0
  150.6465  141.0326  155.4162 C   0  0  0  0  0  0  0  0  0  0  0  0
  150.4744  142.2904  156.1321 N   0  0  0  0  0  0  0  0  0  0  0  0
  151.2040  142.6722  157.2436 C   0  0  0  0  0  0  0  0  0  0  0  0
  151.3261  143.9886  157.4252 N   0  0  0  0  0  0  0  0  0  0  0  0
  152.0276  144.3967  158.5054 C   0  0  0  0  0  0  0  0  0  0  0  0
  152.6092  143.4792  159.4029 C   0  0  0  0  0  0  0  0  0  0  0  0
  152.4207  142.1124  159.1152 C   0  0  0  0  0  0  0  0  0  0  0  0
  152.9628  141.1603  159.9530 O   0  0  0  0  0  0  0  0  0  0  0  0
  153.7400  141.6046  161.0596 C   0  0  0  0  0  0  0  0  0  0  0  0
  151.7154  141.7157  158.0265 N   0  0  0  0  0  0  0  0  0  0  0  0
  149.5058  139.1444  154.1067 C   0  0  0  0  0  0  0  0  0  0  0  0
  147.1978  136.5269  155.9806 H   0  0  0  0  0  0  0  0  0  0  0  0
  148.8221  137.1370  155.6928 H   0  0  0  0  0  0  0  0  0  0  0  0
  148.0624  136.0495  154.5303 H   0  0  0  0  0  0  0  0  0  0  0  0
  146.3407  137.8330  154.0051 H   0  0  0  0  0  0  0  0  0  0  0  0
  147.0428  138.8463  155.2387 H   0  0  0  0  0  0  0  0  0  0  0  0
  148.3048  139.8778  151.7759 H   0  0  0  0  0  0  0  0  0  0  0  0
  146.6809  139.4600  152.2495 H   0  0  0  0  0  0  0  0  0  0  0  0
  147.2280  141.8782  152.7124 H   0  0  0  0  0  0  0  0  0  0  0  0
  146.8191  141.0493  154.1972 H   0  0  0  0  0  0  0  0  0  0  0  0
  148.6021  140.3826  155.6557 H   0  0  0  0  0  0  0  0  0  0  0  0
  151.0894  140.3034  156.0949 H   0  0  0  0  0  0  0  0  0  0  0  0
  151.3682  141.1785  154.6114 H   0  0  0  0  0  0  0  0  0  0  0  0
  149.7914  142.9478  155.7840 H   0  0  0  0  0  0  0  0  0  0  0  0
  152.1258  145.4617  158.6545 H   0  0  0  0  0  0  0  0  0  0  0  0
  153.1682  143.8072  160.2669 H   0  0  0  0  0  0  0  0  0  0  0  0
  154.1062  140.7406  161.6142 H   0  0  0  0  0  0  0  0  0  0  0  0
  153.1460  142.2112  161.7449 H   0  0  0  0  0  0  0  0  0  0  0  0
  154.6077  142.1801  160.7336 H   0  0  0  0  0  0  0  0  0  0  0  0
  149.9024  138.3776  154.7734 H   0  0  0  0  0  0  0  0  0  0  0  0
  150.2406  139.2640  153.3092 H   0  0  0  0  0  0  0  0  0  0  0  0
  148.4785  137.9240  152.8858 H   0  0  0  0  0  0  0  0  0  0  0  0
  1  2  1  0  0  0  0
  1 19  1  0  0  0  0
  1 20  1  0  0  0  0
  1 21  1  0  0  0  0
  2  3  1  0  0  0  0
  2 22  1  0  0  0  0
  2 23  1  0  0  0  0
  3 18  1  0  0  0  0
  3  4  1  0  0  0  0
  3 39  1  0  0  0  0
  4  5  1  0  0  0  0
  4 24  1  0  0  0  0
  4 25  1  0  0  0  0
  5  6  1  0  0  0  0
  5 26  1  0  0  0  0
  5 27  1  0  0  0  0
  6  7  1  0  0  0  0
  7  8  1  0  0  0  0
  7 18  1  0  0  0  0
  7 28  1  0  0  0  0
  8  9  1  0  0  0  0
  8 29  1  0  0  0  0
  8 30  1  0  0  0  0
  9 10  1  0  0  0  0
  9 31  1  0  0  0  0
 10 17  1  0  0  0  0
 10 11  2  0  0  0  0
 11 12  1  0  0  0  0
 12 13  2  0  0  0  0
 12 32  1  0  0  0  0
 13 14  1  0  0  0  0
 13 33  1  0  0  0  0
 14 15  1  0  0  0  0
 14 17  2  0  0  0  0
 15 16  1  0  0  0  0
 16 34  1  0  0  0  0
 16 35  1  0  0  0  0
 16 36  1  0  0  0  0
 18 37  1  0  0  0  0
 18 38  1  0  0  0  0
M  CHG  1   3   1
M  END
> <s_m_source_file>
AV-unprocessed.smi

> <i_m_source_file_index>
3250

> <i_lp_mmshare_version>
43012

> <i_f3d_flags>
0

> <s_epik_input>
W0NIM11bQ0gyXU4xW0NIMl1bQ0gyXU9bQ0BIXShbQ0gyXTEpW0NIMl1bTkhdYzJuW2NIXVtjSF1jKG4yKU9bQ0gzXQ==

> <s_epik_cmdline>
J2VwaWtfcHl0aG9uJywgJy1waCcsICc3LjAnLCAnLXRuJywgJzgnLCAnLW1hJywgJzIwMCcsICctbWV0YWxfYmluZGluZycsICctaW1hZScsICc8aW5maWxlLm1hZT4nLCAnLW9tYWUnLCAnPG91dGZpbGUubWFlPic=

> <r_lp_tautomer_probability>
1

> <r_epik_Ionization_Penalty>
0.19684

> <r_epik_Ionization_Penalty_Charging>
0.178504

> <r_epik_Ionization_Penalty_Neutral>
0.0183356

> <r_epik_State_Penalty>
0.162939

> <r_epik_Charging_Adjusted_Penalty>
0.341443

> <i_epik_Tot_Q>
1

> <i_epik_Tot_abs_Q>
1

> <r_epik_Metal_State_Penalty>
0.1608

> <b_epik_Metal_Only>
0

> <s_lp_Force_Field>
OPLS_2005

> <r_lp_Energy>
9.61167

> <b_lp_Chiralities_Consistent>
1

> <s_lp_Variant>
AV-unprocessed.smi:3250-3

> <Gold.Version>
5.8.1

> <Gold.Id.Protein>
6NUR|6NUR_protein|mol2

> <Gold.PLP.Fitness>
42.5032

> <Gold.PLP.PLP>
-32.5026

> <Gold.PLP.part.hbond>
-3.9757

> <Gold.PLP.part.metal>
0.0000

> <Gold.PLP.part.buried>
1.3321

> <Gold.PLP.part.nonpolar>
-29.9262

> <Gold.PLP.part.repulsive>
1.0782

> <Gold.PLP.ligand.clash>
0.1674

> <Gold.PLP.ligand.torsion>
0.3523

> <Gold.PLP.Chemscore.Hbond>
3.6084

> <Gold.PLP.Chemscore.CHOScore>
0.0000

> <Gold.PLP.Chemscore.Metal>
0.0000

> <Gold.Chemscore.Hbonds>
donor molecule, donor type, donor heavy atom, donor atom, acceptor molecule, acceptor atom, score
      L1  H     3    39       P1  7948  2.00
      L1  H     9    31       P1  8028  1.00
      P1  H  8011  8017       L1     6  0.62

> <Gold.PLP.Chemscore.Internal.Correction>
0.0474

> <Gold.Rescore>
     Score         DG    S(hbond)    S(metal)    S(lipo)     H(rot)  DE(clash)    DE(int)     intcor
     14.76     -17.93       2.21        0.00      80.74       1.71       2.82       0.35       ----

> <Gold.Chemscore.Fitness>
14.7611

> <Gold.Chemscore.DG>
-17.9327

> <Gold.Chemscore.ZeroCoef>
-5.4800

> <Gold.Chemscore.Hbond>
2.2126

> <Gold.Chemscore.Metal>
0.0000

> <Gold.Chemscore.Lipo>
80.7450

> <Gold.Chemscore.Internal_Hbond>
0.0000

> <Gold.Chemscore.DEClash>
2.8222

> <Gold.Chemscore.DEInternal>
0.3494

> <Gold.Chemscore.Rot>
1.7127

> <Gold.Chemscore.Internal.Correction>
   9.000000E+99

> <Gold.Chemscore.Hbonds>
donor molecule, donor type, donor heavy atom, donor atom, acceptor molecule, acceptor atom, score
      L1  H     3    39       P1  7948  0.94
      L1  H     9    31       P1  8028  0.95
      P1  H  8011  8017       L1     6  0.27

> <Gold.Chemscore.Hbond.Weighted>
-7.3901

> <Gold.Chemscore.Metal.Weighted>
-0.0000

> <Gold.Chemscore.Lipo.Weighted>
-9.4472

> <Gold.Chemscore.Internal_Hbond.Weighted>
0.0000

> <Gold.Chemscore.DEClash.Weighted>
2.8222

> <Gold.Chemscore.DEInternal.Weighted>
0.3494

> <Gold.Chemscore.Rot.Weighted>
4.3846

> <Gold.Chemscore.Internal.Correction.Weighted>
   9.000000E+99

> <Gold.Protein.RotatedTorsions>
[ 6907 6896 6895 6894 ] final   -3.01 input  -60.11 | X-H torsion
[ 7974 7965 7964 7962 ] final   56.52 input  175.53 | X-H torsion
[ 8008 7997 7996 7995 ] final   92.34 input   59.86 | X-H torsion
[ 10167 10162 10161 10158 ] final -108.85 input  -65.29 | X-H torsion
[ 10718 10713 10712 10709 ] final  107.15 input   66.30 | X-H torsion
[ 10763 10752 10751 10750 ] final  -58.42 input  -60.55 | X-H torsion
[ 11005 11000 10999 10996 ] final  128.11 input  -57.11 | X-H torsion

> <Gold.Protein.ActiveResidues>
 VAL166  LYS551  ARG553  GLY616  TRP617  ASP618  TYR619  PRO620  LYS621  CYS622 
 ASP623  PHE694  ASN695  SER759  ASP760  ASP761  ALA762  ILE779  LEU786  VAL792 
 PHE793  MET794  SER795  GLU796  ALA797  LYS798  CYS799  TRP800  GLU811  SER814 

> <Gold.Protein.RotatedAtoms>
  151.5206  135.1067  159.9877 H   0  0  0  0  0  0  0  0  0  0  0  0  # atno 6907 bound_to 6896
  152.4622  133.7842  159.6878 H   0  0  0  0  0  0  0  0  0  0  0  0  # atno 6908 bound_to 6896
  150.8589  133.7609  159.3024 H   0  0  0  0  0  0  0  0  0  0  0  0  # atno 6909 bound_to 6896
  145.9389  139.3871  143.0375 H   0  0  0  0  0  0  0  0  0  0  0  0  # atno 7974 bound_to 7965
  156.0342  140.3326  155.7173 H   0  0  0  0  0  0  0  0  0  0  0  0  # atno 8008 bound_to 7997
  155.5840  140.0639  157.2793 H   0  0  0  0  0  0  0  0  0  0  0  0  # atno 8009 bound_to 7997
  154.4366  140.1839  156.0994 H   0  0  0  0  0  0  0  0  0  0  0  0  # atno 8010 bound_to 7997
  140.1616  143.4115  152.1421 H   0  0  0  0  0  0  0  0  0  0  0  0  # atno 10167 bound_to 10162
  157.6640  131.0866  150.6113 H   0  0  0  0  0  0  0  0  0  0  0  0  # atno 10718 bound_to 10713
  154.2379  135.6349  153.5197 H   0  0  0  0  0  0  0  0  0  0  0  0  # atno 10763 bound_to 10752
  152.9936  135.5535  154.5942 H   0  0  0  0  0  0  0  0  0  0  0  0  # atno 10764 bound_to 10752
  154.5440  135.2897  155.1044 H   0  0  0  0  0  0  0  0  0  0  0  0  # atno 10765 bound_to 10752
  139.9543  134.9616  156.8954 H   0  0  0  0  0  0  0  0  0  0  0  0  # atno 11005 bound_to 11000
  145.8326  140.9623  143.0841 LP  0  0  0  0  0  0  0  0  0  0  0  0  # atno 17320 bound_to 7965
  144.6776  140.0182  143.7484 LP  0  0  0  0  0  0  0  0  0  0  0  0  # atno 17321 bound_to 7965
  139.5378  144.7227  151.4834 LP  0  0  0  0  0  0  0  0  0  0  0  0  # atno 17342 bound_to 10162
  140.6639  143.8440  150.6919 LP  0  0  0  0  0  0  0  0  0  0  0  0  # atno 17343 bound_to 10162
  156.6414  130.4459  149.5751 LP  0  0  0  0  0  0  0  0  0  0  0  0  # atno 17370 bound_to 10713
  156.2206  130.6735  151.1364 LP  0  0  0  0  0  0  0  0  0  0  0  0  # atno 17371 bound_to 10713
  140.5645  134.0503  155.7410 LP  0  0  0  0  0  0  0  0  0  0  0  0  # atno 17394 bound_to 11000
  141.1212  133.9458  157.2726 LP  0  0  0  0  0  0  0  0  0  0  0  0  # atno 17395 bound_to 11000

$$$$
