AV-unprocessed.smi:2560|AV-procd|sdf|10038|dock6
  -GOLD-   2272014 83D 1   1.00000     0.00000
 Structure written by MMmdl.
 31 32  0  0  0  0  0  0  0  0  1 V2000
  153.9775  142.8292  163.6383 C   0  0  0  0  0  0  0  0  0  0  0  0
  152.6938  143.7297  162.7264 S   0  0  0  0  0  0  0  0  0  0  0  0
  152.6517  143.0129  161.1156 C   0  0  0  0  0  0  0  0  0  0  0  0
  153.5897  142.1270  160.7342 N   0  0  0  0  0  0  0  0  0  0  0  0
  153.2579  141.6410  159.1489 S   0  0  0  0  0  0  0  0  0  0  0  0
  151.8588  142.6727  159.0929 C   0  0  0  0  0  0  0  0  0  0  0  0
  151.0238  142.7701  157.9418 N   0  0  0  0  0  0  0  0  0  0  0  0
  150.9803  142.0330  156.8110 C   0  0  0  0  0  0  0  0  0  0  0  0
  151.7495  141.0893  156.6379 O   0  0  0  0  0  0  0  0  0  0  0  0
  150.0571  142.3946  155.9047 N   0  0  0  0  0  0  0  0  0  0  0  0
  149.8155  141.7495  154.6201 C   0  0  2  0  0  0  0  0  0  0  0  0
  148.4818  142.2308  154.0699 C   0  0  0  0  0  0  0  0  0  0  0  0
  147.5577  141.4194  153.5278 C   0  0  0  0  0  0  0  0  0  0  0  0
  147.7426  139.9209  153.3826 C   0  0  0  0  0  0  0  0  0  0  0  0
  149.2114  139.5007  153.5644 C   0  0  0  0  0  0  0  0  0  0  0  0
  149.8602  140.2097  154.7629 C   0  0  0  0  0  0  0  0  0  0  0  0
  151.6861  143.3343  160.2370 N   0  0  0  0  0  0  0  0  0  0  0  0
  154.0615  143.2185  164.6526 H   0  0  0  0  0  0  0  0  0  0  0  0
  154.9435  142.9384  163.1449 H   0  0  0  0  0  0  0  0  0  0  0  0
  153.7334  141.7682  163.6941 H   0  0  0  0  0  0  0  0  0  0  0  0
  150.3476  143.5191  157.9789 H   0  0  0  0  0  0  0  0  0  0  0  0
  149.4675  143.1829  156.1315 H   0  0  0  0  0  0  0  0  0  0  0  0
  150.5784  142.0719  153.9095 H   0  0  0  0  0  0  0  0  0  0  0  0
  148.2838  143.2911  154.1331 H   0  0  0  0  0  0  0  0  0  0  0  0
  146.6216  141.8301  153.1793 H   0  0  0  0  0  0  0  0  0  0  0  0
  147.1133  139.4284  154.1245 H   0  0  0  0  0  0  0  0  0  0  0  0
  147.3851  139.6070  152.4018 H   0  0  0  0  0  0  0  0  0  0  0  0
  149.2765  138.4189  153.6830 H   0  0  0  0  0  0  0  0  0  0  0  0
  149.7723  139.7456  152.6614 H   0  0  0  0  0  0  0  0  0  0  0  0
  150.8909  139.8741  154.8825 H   0  0  0  0  0  0  0  0  0  0  0  0
  149.3335  139.9081  155.6697 H   0  0  0  0  0  0  0  0  0  0  0  0
  1  2  1  0  0  0  0
  1 18  1  0  0  0  0
  1 19  1  0  0  0  0
  1 20  1  0  0  0  0
  2  3  1  0  0  0  0
  3 17  1  0  0  0  0
  3  4  2  0  0  0  0
  4  5  1  0  0  0  0
  5  6  1  0  0  0  0
  6  7  1  0  0  0  0
  6 17  2  0  0  0  0
  7  8  1  0  0  0  0
  7 21  1  0  0  0  0
  8  9  2  0  0  0  0
  8 10  1  0  0  0  0
 10 11  1  0  0  0  0
 10 22  1  0  0  0  0
 11 16  1  0  0  0  0
 11 12  1  0  0  0  0
 11 23  1  0  0  0  0
 12 13  2  0  0  0  0
 12 24  1  0  0  0  0
 13 14  1  0  0  0  0
 13 25  1  0  0  0  0
 14 15  1  0  0  0  0
 14 26  1  0  0  0  0
 14 27  1  0  0  0  0
 15 16  1  0  0  0  0
 15 28  1  0  0  0  0
 15 29  1  0  0  0  0
 16 30  1  0  0  0  0
 16 31  1  0  0  0  0
M  END
> <s_m_source_file>
AV-unprocessed.smi

> <i_m_source_file_index>
2560

> <i_lp_mmshare_version>
43012

> <i_f3d_flags>
0

> <s_epik_input>
W0NIM11TYzFuc2MobjEpW05IXUMoPU8pW05IXVtDQEBIXTJbQ0hdPVtDSF1bQ0gyXVtDSDJdW0NIMl0y

> <s_epik_cmdline>
J2VwaWtfcHl0aG9uJywgJy1waCcsICc3LjAnLCAnLXRuJywgJzgnLCAnLW1hJywgJzIwMCcsICctbWV0YWxfYmluZGluZycsICctaW1hZScsICc8aW5maWxlLm1hZT4nLCAnLW9tYWUnLCAnPG91dGZpbGUubWFlPic=

> <r_lp_tautomer_probability>
1

> <r_epik_Ionization_Penalty>
2.65559e-05

> <r_epik_Ionization_Penalty_Charging>
0

> <r_epik_Ionization_Penalty_Neutral>
2.65559e-05

> <r_epik_State_Penalty>
-0

> <r_epik_Charging_Adjusted_Penalty>
0

> <i_epik_Tot_Q>
0

> <i_epik_Tot_abs_Q>
0

> <r_epik_Metal_State_Penalty>
-0

> <b_epik_Metal_Only>
0

> <s_lp_Force_Field>
OPLS_2005

> <r_lp_Energy>
8.21818

> <b_lp_Chiralities_Consistent>
1

> <s_lp_Variant>
AV-unprocessed.smi:2560-1

> <Gold.Version>
5.8.1

> <Gold.Id.Protein>
6NUR|6NUR_protein|mol2

> <Gold.PLP.Fitness>
37.1216

> <Gold.PLP.PLP>
-34.7243

> <Gold.PLP.part.hbond>
-1.0000

> <Gold.PLP.part.metal>
0.0000

> <Gold.PLP.part.buried>
-2.4041

> <Gold.PLP.part.nonpolar>
-29.8889

> <Gold.PLP.part.repulsive>
0.1897

> <Gold.PLP.ligand.clash>
0.0000

> <Gold.PLP.ligand.torsion>
0.3046

> <Gold.PLP.Chemscore.Hbond>
1.0000

> <Gold.PLP.Chemscore.CHOScore>
0.0000

> <Gold.PLP.Chemscore.Metal>
0.0000

> <Gold.Chemscore.Hbonds>
donor molecule, donor type, donor heavy atom, donor atom, acceptor molecule, acceptor atom, score
      L1  H    10    22       P1  8028  0.94

> <Gold.PLP.Chemscore.Internal.Correction>
0.0065

> <Gold.Rescore>
     Score         DG    S(hbond)    S(metal)    S(lipo)     H(rot)  DE(clash)    DE(int)     intcor
      9.86     -14.18       0.87        0.00      77.07       1.25       2.46       1.86       ----

> <Gold.Chemscore.Fitness>
9.8597

> <Gold.Chemscore.DG>
-14.1814

> <Gold.Chemscore.ZeroCoef>
-5.4800

> <Gold.Chemscore.Hbond>
0.8655

> <Gold.Chemscore.Metal>
0.0000

> <Gold.Chemscore.Lipo>
77.0668

> <Gold.Chemscore.Internal_Hbond>
0.0000

> <Gold.Chemscore.DEClash>
2.4618

> <Gold.Chemscore.DEInternal>
1.8599

> <Gold.Chemscore.Rot>
1.2524

> <Gold.Chemscore.Internal.Correction>
   9.000000E+99

> <Gold.Chemscore.Hbonds>
donor molecule, donor type, donor heavy atom, donor atom, acceptor molecule, acceptor atom, score
      L1  H    10    22       P1  8028  0.91

> <Gold.Chemscore.Hbond.Weighted>
-2.8907

> <Gold.Chemscore.Metal.Weighted>
-0.0000

> <Gold.Chemscore.Lipo.Weighted>
-9.0168

> <Gold.Chemscore.Internal_Hbond.Weighted>
0.0000

> <Gold.Chemscore.DEClash.Weighted>
2.4618

> <Gold.Chemscore.DEInternal.Weighted>
1.8599

> <Gold.Chemscore.Rot.Weighted>
3.2062

> <Gold.Chemscore.Internal.Correction.Weighted>
   9.000000E+99

> <Gold.Protein.RotatedTorsions>
[ 6907 6896 6895 6894 ] final   40.22 input  -60.11 | X-H torsion
[ 7974 7965 7964 7962 ] final   36.40 input  175.53 | X-H torsion
[ 8008 7997 7996 7995 ] final  -37.59 input   59.86 | X-H torsion
[ 10167 10162 10161 10158 ] final   68.13 input  -65.29 | X-H torsion
[ 10718 10713 10712 10709 ] final   15.65 input   66.30 | X-H torsion
[ 10763 10752 10751 10750 ] final  -90.36 input  -60.55 | X-H torsion
[ 11005 11000 10999 10996 ] final   59.76 input  -57.11 | X-H torsion

> <Gold.Protein.ActiveResidues>
 VAL166  LYS551  ARG553  GLY616  TRP617  ASP618  TYR619  PRO620  LYS621  CYS622 
 ASP623  PHE694  ASN695  SER759  ASP760  ASP761  ALA762  ILE779  LEU786  VAL792 
 PHE793  MET794  SER795  GLU796  ALA797  LYS798  CYS799  TRP800  GLU811  SER814 

> <Gold.Protein.RotatedAtoms>
  152.1797  134.8764  160.0527 H   0  0  0  0  0  0  0  0  0  0  0  0  # atno 6907 bound_to 6896
  151.9693  133.3716  159.4073 H   0  0  0  0  0  0  0  0  0  0  0  0  # atno 6908 bound_to 6896
  150.6915  134.4080  159.5193 H   0  0  0  0  0  0  0  0  0  0  0  0  # atno 6909 bound_to 6896
  146.1213  139.6022  142.9287 H   0  0  0  0  0  0  0  0  0  0  0  0  # atno 7974 bound_to 7965
  154.4051  140.1600  156.2561 H   0  0  0  0  0  0  0  0  0  0  0  0  # atno 8008 bound_to 7997
  155.9077  140.3429  155.6052 H   0  0  0  0  0  0  0  0  0  0  0  0  # atno 8009 bound_to 7997
  155.7373  140.0788  157.2252 H   0  0  0  0  0  0  0  0  0  0  0  0  # atno 8010 bound_to 7997
  140.0820  144.5063  150.7156 H   0  0  0  0  0  0  0  0  0  0  0  0  # atno 10167 bound_to 10162
  157.0565  130.6291  149.5778 H   0  0  0  0  0  0  0  0  0  0  0  0  # atno 10718 bound_to 10713
  154.6650  135.5307  153.8065 H   0  0  0  0  0  0  0  0  0  0  0  0  # atno 10763 bound_to 10752
  153.0465  135.6515  154.0813 H   0  0  0  0  0  0  0  0  0  0  0  0  # atno 10764 bound_to 10752
  154.0718  135.2953  155.3286 H   0  0  0  0  0  0  0  0  0  0  0  0  # atno 10765 bound_to 10752
  140.0280  134.6054  155.9546 H   0  0  0  0  0  0  0  0  0  0  0  0  # atno 11005 bound_to 11000
  145.5459  141.0417  143.2305 LP  0  0  0  0  0  0  0  0  0  0  0  0  # atno 17320 bound_to 7965
  144.7600  139.6979  143.7238 LP  0  0  0  0  0  0  0  0  0  0  0  0  # atno 17321 bound_to 7965
  140.7073  143.2477  151.4688 LP  0  0  0  0  0  0  0  0  0  0  0  0  # atno 17342 bound_to 10162
  139.5774  144.1787  152.1922 LP  0  0  0  0  0  0  0  0  0  0  0  0  # atno 17343 bound_to 10162
  155.9991  130.5067  150.7596 LP  0  0  0  0  0  0  0  0  0  0  0  0  # atno 17370 bound_to 10713
  157.4989  131.0917  151.0338 LP  0  0  0  0  0  0  0  0  0  0  0  0  # atno 17371 bound_to 10713
  141.1814  133.6547  156.5037 LP  0  0  0  0  0  0  0  0  0  0  0  0  # atno 17394 bound_to 11000
  140.4273  134.7133  157.4923 LP  0  0  0  0  0  0  0  0  0  0  0  0  # atno 17395 bound_to 11000

$$$$
