AV-unprocessed.smi:2066|AV-procd|sdf|8422|dock10
  -GOLD-   2272011113D 1   1.00000     0.00000
 Structure written by MMmdl.
 39 40  0  0  0  0  0  0  0  0  3 V2000
  145.7967  141.4380  155.7555 C   0  0  0  0  0  0  0  0  0  0  0  0
  146.8374  141.1482  154.6447 C   0  0  0  0  0  0  0  0  0  0  0  0
  146.9640  142.4583  153.8268 C   0  0  0  0  0  0  0  0  0  0  0  0
  148.2198  140.7828  155.2657 C   0  0  0  0  0  0  0  0  0  0  0  0
  148.8225  141.8771  156.0259 N   0  0  0  0  0  0  0  0  0  0  0  0
  149.7331  141.7618  157.0033 C   0  0  0  0  0  0  0  0  0  0  0  0
  150.1487  140.6482  157.3316 O   0  0  0  0  0  0  0  0  0  0  0  0
  150.0954  142.9447  157.5476 N   0  5  0  0  0  0  0  0  0  0  0  0
  151.1295  143.0000  158.4027 C   0  0  0  0  0  0  0  0  0  0  0  0
  151.7354  141.9107  158.8887 N   0  0  0  0  0  0  0  0  0  0  0  0
  152.7869  142.2027  159.7593 C   0  0  0  0  0  0  0  0  0  0  0  0
  152.9930  143.5458  159.9319 C   0  0  0  0  0  0  0  0  0  0  0  0
  151.8649  144.4897  159.0015 S   0  0  0  0  0  0  0  0  0  0  0  0
  146.3233  140.0390  153.7631 N   0  3  0  0  0  0  0  0  0  0  0  0
  147.1849  139.6757  152.6027 C   0  0  0  0  0  0  0  0  0  0  0  0
  146.4622  138.6744  151.6861 C   0  0  0  0  0  0  0  0  0  0  0  0
  146.1011  137.5171  152.4265 O   0  0  0  0  0  0  0  0  0  0  0  0
  145.2088  137.8301  153.4866 C   0  0  0  0  0  0  0  0  0  0  0  0
  145.8901  138.7985  154.4673 C   0  0  0  0  0  0  0  0  0  0  0  0
  146.0188  142.3645  156.2861 H   0  0  0  0  0  0  0  0  0  0  0  0
  145.7690  140.6556  156.5133 H   0  0  0  0  0  0  0  0  0  0  0  0
  144.7926  141.5433  155.3432 H   0  0  0  0  0  0  0  0  0  0  0  0
  147.1396  143.3207  154.4711 H   0  0  0  0  0  0  0  0  0  0  0  0
  146.0549  142.6633  153.2603 H   0  0  0  0  0  0  0  0  0  0  0  0
  147.7991  142.4313  153.1273 H   0  0  0  0  0  0  0  0  0  0  0  0
  148.1490  139.8971  155.8970 H   0  0  0  0  0  0  0  0  0  0  0  0
  148.9321  140.5300  154.4812 H   0  0  0  0  0  0  0  0  0  0  0  0
  148.5185  142.8113  155.7937 H   0  0  0  0  0  0  0  0  0  0  0  0
  153.3369  141.3909  160.2114 H   0  0  0  0  0  0  0  0  0  0  0  0
  153.7348  144.0352  160.5446 H   0  0  0  0  0  0  0  0  0  0  0  0
  147.4380  140.5463  152.0014 H   0  0  0  0  0  0  0  0  0  0  0  0
  148.1218  139.2393  152.9495 H   0  0  0  0  0  0  0  0  0  0  0  0
  145.5757  139.1261  151.2375 H   0  0  0  0  0  0  0  0  0  0  0  0
  147.1161  138.3775  150.8660 H   0  0  0  0  0  0  0  0  0  0  0  0
  144.2865  138.2587  153.0914 H   0  0  0  0  0  0  0  0  0  0  0  0
  144.9364  136.9077  153.9996 H   0  0  0  0  0  0  0  0  0  0  0  0
  146.7471  138.3004  154.9210 H   0  0  0  0  0  0  0  0  0  0  0  0
  145.1848  139.0159  155.2668 H   0  0  0  0  0  0  0  0  0  0  0  0
  145.4805  140.4164  153.3545 H   0  0  0  0  0  0  0  0  0  0  0  0
  1  2  1  0  0  0  0
  1 20  1  0  0  0  0
  1 21  1  0  0  0  0
  1 22  1  0  0  0  0
  2  3  1  0  0  0  0
  2  4  1  0  0  0  0
  2 14  1  0  0  0  0
  3 23  1  0  0  0  0
  3 24  1  0  0  0  0
  3 25  1  0  0  0  0
  4  5  1  0  0  0  0
  4 26  1  0  0  0  0
  4 27  1  0  0  0  0
  5  6  1  0  0  0  0
  5 28  1  0  0  0  0
  6  7  2  0  0  0  0
  6  8  1  0  0  0  0
  8  9  1  0  0  0  0
  9 13  1  0  0  0  0
  9 10  2  0  0  0  0
 10 11  1  0  0  0  0
 11 12  2  0  0  0  0
 11 29  1  0  0  0  0
 12 13  1  0  0  0  0
 12 30  1  0  0  0  0
 14 19  1  0  0  0  0
 14 15  1  0  0  0  0
 14 39  1  0  0  0  0
 15 16  1  0  0  0  0
 15 31  1  0  0  0  0
 15 32  1  0  0  0  0
 16 17  1  0  0  0  0
 16 33  1  0  0  0  0
 16 34  1  0  0  0  0
 17 18  1  0  0  0  0
 18 19  1  0  0  0  0
 18 35  1  0  0  0  0
 18 36  1  0  0  0  0
 19 37  1  0  0  0  0
 19 38  1  0  0  0  0
M  CHG  1   8  -1
M  CHG  1  14   1
M  END
> <s_m_source_file>
AV-unprocessed.smi

> <i_m_source_file_index>
2066

> <i_lp_mmshare_version>
43012

> <i_f3d_flags>
0

> <s_epik_input>
W0NIMl0xW0NIMl1PW0NIMl1bQ0gyXU4xQyhbQ0gzXSkoW0NIM10pW0NIMl1bTkhdQyg9TylbTkhdYzJuW2NIXVtjSF1zMg==

> <s_epik_cmdline>
J2VwaWtfcHl0aG9uJywgJy1waCcsICc3LjAnLCAnLXRuJywgJzgnLCAnLW1hJywgJzIwMCcsICctbWV0YWxfYmluZGluZycsICctaW1hZScsICc8aW5maWxlLm1hZT4nLCAnLW9tYWUnLCAnPG91dGZpbGUubWFlPic=

> <r_lp_tautomer_probability>
0.999

> <r_epik_Ionization_Penalty>
6.71078

> <r_epik_Ionization_Penalty_Charging>
5.8797

> <r_epik_Ionization_Penalty_Neutral>
0.831074

> <r_epik_State_Penalty>
6.07743

> <r_epik_Charging_Adjusted_Penalty>
11.9571

> <i_epik_Tot_Q>
0

> <i_epik_Tot_abs_Q>
2

> <r_epik_Metal_State_Penalty>
2.08929

> <b_epik_Metal_Only>
1

> <s_lp_Force_Field>
OPLS_2005

> <r_lp_Energy>
15.1529

> <b_lp_Chiralities_Consistent>
1

> <s_lp_Variant>
AV-unprocessed.smi:2066-4

> <Gold.Version>
5.8.1

> <Gold.Id.Protein>
6NUR|6NUR_protein|mol2

> <Gold.PLP.Fitness>
39.1900

> <Gold.PLP.PLP>
-30.7303

> <Gold.PLP.part.hbond>
-2.0000

> <Gold.PLP.part.metal>
0.0000

> <Gold.PLP.part.buried>
-2.5037

> <Gold.PLP.part.nonpolar>
-28.5517

> <Gold.PLP.part.repulsive>
2.1086

> <Gold.PLP.ligand.clash>
0.0000

> <Gold.PLP.ligand.torsion>
0.3113

> <Gold.PLP.Chemscore.Hbond>
2.9825

> <Gold.PLP.Chemscore.CHOScore>
0.0000

> <Gold.PLP.Chemscore.Metal>
0.0000

> <Gold.Chemscore.Hbonds>
donor molecule, donor type, donor heavy atom, donor atom, acceptor molecule, acceptor atom, score
      L1  H     5    28       P1  8028  1.00
      L1  H    14    39       P1 10175  2.00

> <Gold.PLP.Chemscore.Internal.Correction>
0.1349

> <Gold.Rescore>
     Score         DG    S(hbond)    S(metal)    S(lipo)     H(rot)  DE(clash)    DE(int)     intcor
     13.97     -17.15       1.86        0.00      81.35       1.59       1.21       1.97       ----

> <Gold.Chemscore.Fitness>
13.9669

> <Gold.Chemscore.DG>
-17.1468

> <Gold.Chemscore.ZeroCoef>
-5.4800

> <Gold.Chemscore.Hbond>
1.8639

> <Gold.Chemscore.Metal>
0.0000

> <Gold.Chemscore.Lipo>
81.3537

> <Gold.Chemscore.Internal_Hbond>
0.0000

> <Gold.Chemscore.DEClash>
1.2113

> <Gold.Chemscore.DEInternal>
1.9686

> <Gold.Chemscore.Rot>
1.5926

> <Gold.Chemscore.Internal.Correction>
   9.000000E+99

> <Gold.Chemscore.Hbonds>
donor molecule, donor type, donor heavy atom, donor atom, acceptor molecule, acceptor atom, score
      L1  H     5    28       P1  8028  0.94
      L1  H    14    39       P1 10175  0.93

> <Gold.Chemscore.Hbond.Weighted>
-6.2254

> <Gold.Chemscore.Metal.Weighted>
-0.0000

> <Gold.Chemscore.Lipo.Weighted>
-9.5184

> <Gold.Chemscore.Internal_Hbond.Weighted>
0.0000

> <Gold.Chemscore.DEClash.Weighted>
1.2113

> <Gold.Chemscore.DEInternal.Weighted>
1.9686

> <Gold.Chemscore.Rot.Weighted>
4.0770

> <Gold.Chemscore.Internal.Correction.Weighted>
   9.000000E+99

> <Gold.Protein.RotatedTorsions>
[ 6907 6896 6895 6894 ] final   21.65 input  -60.11 | X-H torsion
[ 7974 7965 7964 7962 ] final   56.26 input  175.53 | X-H torsion
[ 8008 7997 7996 7995 ] final -102.07 input   59.86 | X-H torsion
[ 10167 10162 10161 10158 ] final  121.58 input  -65.29 | X-H torsion
[ 10718 10713 10712 10709 ] final -163.35 input   66.30 | X-H torsion
[ 10763 10752 10751 10750 ] final  -13.30 input  -60.55 | X-H torsion
[ 11005 11000 10999 10996 ] final  -81.27 input  -57.11 | X-H torsion

> <Gold.Protein.ActiveResidues>
 VAL166  LYS551  ARG553  GLY616  TRP617  ASP618  TYR619  PRO620  LYS621  CYS622 
 ASP623  PHE694  ASN695  SER759  ASP760  ASP761  ALA762  ILE779  LEU786  VAL792 
 PHE793  MET794  SER795  GLU796  ALA797  LYS798  CYS799  TRP800  GLU811  SER814 

> <Gold.Protein.RotatedAtoms>
  151.9151  135.0322  160.0517 H   0  0  0  0  0  0  0  0  0  0  0  0  # atno 6907 bound_to 6896
  152.2247  133.5006  159.5190 H   0  0  0  0  0  0  0  0  0  0  0  0  # atno 6908 bound_to 6896
  150.7009  134.1213  159.4078 H   0  0  0  0  0  0  0  0  0  0  0  0  # atno 6909 bound_to 6896
  145.9417  139.3894  143.0359 H   0  0  0  0  0  0  0  0  0  0  0  0  # atno 7974 bound_to 7965
  154.8515  140.0430  157.1607 H   0  0  0  0  0  0  0  0  0  0  0  0  # atno 8008 bound_to 7997
  154.8937  140.2990  155.5335 H   0  0  0  0  0  0  0  0  0  0  0  0  # atno 8009 bound_to 7997
  156.2996  140.2388  156.3956 H   0  0  0  0  0  0  0  0  0  0  0  0  # atno 8010 bound_to 7997
  139.5911  144.7025  151.3288 H   0  0  0  0  0  0  0  0  0  0  0  0  # atno 10167 bound_to 10162
  156.6235  130.8900  151.2962 H   0  0  0  0  0  0  0  0  0  0  0  0  # atno 10718 bound_to 10713
  153.5112  135.7016  153.5780 H   0  0  0  0  0  0  0  0  0  0  0  0  # atno 10763 bound_to 10752
  153.3869  135.3906  155.1896 H   0  0  0  0  0  0  0  0  0  0  0  0  # atno 10764 bound_to 10752
  154.8703  135.3849  154.4592 H   0  0  0  0  0  0  0  0  0  0  0  0  # atno 10765 bound_to 10752
  141.1667  133.7188  156.8397 H   0  0  0  0  0  0  0  0  0  0  0  0  # atno 11005 bound_to 11000
  145.8290  140.9640  143.0859 LP  0  0  0  0  0  0  0  0  0  0  0  0  # atno 17320 bound_to 7965
  144.6780  140.0138  143.7484 LP  0  0  0  0  0  0  0  0  0  0  0  0  # atno 17321 bound_to 7965
  140.7173  143.7230  150.7681 LP  0  0  0  0  0  0  0  0  0  0  0  0  # atno 17342 bound_to 10162
  140.0786  143.4991  152.2542 LP  0  0  0  0  0  0  0  0  0  0  0  0  # atno 17343 bound_to 10162
  157.7221  130.9572  150.1480 LP  0  0  0  0  0  0  0  0  0  0  0  0  # atno 17370 bound_to 10713
  156.2292  130.3680  149.8464 LP  0  0  0  0  0  0  0  0  0  0  0  0  # atno 17371 bound_to 10713
  140.1992  134.8909  157.3149 LP  0  0  0  0  0  0  0  0  0  0  0  0  # atno 17394 bound_to 11000
  140.2206  134.4028  155.7568 LP  0  0  0  0  0  0  0  0  0  0  0  0  # atno 17395 bound_to 11000

$$$$
