AV-unprocessed.smi:736|AV-procd|sdf|3535|dock1
  -GOLD-   22720 0523D 1   1.00000     0.00000
 Structure written by MMmdl.
 46 47  0  0  0  0  0  0  0  0  1 V2000
  149.4703  141.7953  157.4304 C   0  0  0  0  0  0  0  0  0  0  0  0
  150.6139  141.0579  156.8837 N   0  0  0  0  0  0  0  0  0  0  0  0
  151.7911  141.0144  157.7535 C   0  0  0  0  0  0  0  0  0  0  0  0
  150.6542  140.5151  155.6421 C   0  0  0  0  0  0  0  0  0  0  0  0
  151.6829  140.0487  155.1494 O   0  0  0  0  0  0  0  0  0  0  0  0
  149.3873  140.4906  154.8342 C   0  0  0  0  0  0  0  0  0  0  0  0
  148.9673  139.3054  154.1875 C   0  0  0  0  0  0  0  0  0  0  0  0
  147.7850  139.3198  153.4189 C   0  0  0  0  0  0  0  0  0  0  0  0
  147.3998  138.0987  152.7975 N   0  0  0  0  0  0  0  0  0  0  0  0
  146.1776  137.6630  152.4437 C   0  0  0  0  0  0  0  0  0  0  0  0
  145.1217  138.2716  152.6120 O   0  0  0  0  0  0  0  0  0  0  0  0
  146.2472  136.4532  151.8689 N   0  0  0  0  0  0  0  0  0  0  0  0
  145.1108  135.6880  151.3582 C   0  0  0  0  0  0  0  0  0  0  0  0
  145.2518  134.1621  151.5894 C   0  0  0  0  0  0  0  0  0  0  0  0
  145.4781  133.8523  153.0859 C   0  0  0  0  0  0  0  0  0  0  0  0
  143.9821  133.4225  151.0923 C   0  0  0  0  0  0  0  0  0  0  0  0
  144.4222  132.4626  149.9829 C   0  0  0  0  0  0  0  0  0  0  0  0
  145.9001  132.2112  150.2534 C   0  0  0  0  0  0  0  0  0  0  0  0
  146.4025  133.5658  150.7459 C   0  0  0  0  0  0  0  0  0  0  0  0
  147.0663  140.5363  153.3315 C   0  0  0  0  0  0  0  0  0  0  0  0
  147.5733  141.6677  153.9997 C   0  0  0  0  0  0  0  0  0  0  0  0
  148.7072  141.6541  154.7304 N   0  0  0  0  0  0  0  0  0  0  0  0
  148.7676  141.1095  157.9043 H   0  0  0  0  0  0  0  0  0  0  0  0
  148.9386  142.3609  156.6640 H   0  0  0  0  0  0  0  0  0  0  0  0
  149.7861  142.5192  158.1826 H   0  0  0  0  0  0  0  0  0  0  0  0
  152.2988  140.0501  157.6962 H   0  0  0  0  0  0  0  0  0  0  0  0
  151.5257  141.1684  158.8001 H   0  0  0  0  0  0  0  0  0  0  0  0
  152.5010  141.7913  157.4672 H   0  0  0  0  0  0  0  0  0  0  0  0
  149.5480  138.3982  154.2762 H   0  0  0  0  0  0  0  0  0  0  0  0
  148.1643  137.4812  152.5673 H   0  0  0  0  0  0  0  0  0  0  0  0
  147.1569  136.0267  151.7712 H   0  0  0  0  0  0  0  0  0  0  0  0
  144.1748  136.0476  151.7893 H   0  0  0  0  0  0  0  0  0  0  0  0
  145.0386  135.8924  150.2893 H   0  0  0  0  0  0  0  0  0  0  0  0
  145.5273  132.7781  153.2672 H   0  0  0  0  0  0  0  0  0  0  0  0
  144.6700  134.2531  153.6984 H   0  0  0  0  0  0  0  0  0  0  0  0
  146.4113  134.2798  153.4529 H   0  0  0  0  0  0  0  0  0  0  0  0
  143.5242  132.8514  151.9012 H   0  0  0  0  0  0  0  0  0  0  0  0
  143.2127  134.1045  150.7280 H   0  0  0  0  0  0  0  0  0  0  0  0
  143.8358  131.5435  149.9662 H   0  0  0  0  0  0  0  0  0  0  0  0
  144.3066  132.9481  149.0127 H   0  0  0  0  0  0  0  0  0  0  0  0
  146.0138  131.4624  151.0384 H   0  0  0  0  0  0  0  0  0  0  0  0
  146.4353  131.8582  149.3714 H   0  0  0  0  0  0  0  0  0  0  0  0
  146.6015  134.1955  149.8775 H   0  0  0  0  0  0  0  0  0  0  0  0
  147.3397  133.4826  151.2977 H   0  0  0  0  0  0  0  0  0  0  0  0
  146.1475  140.6347  152.7764 H   0  0  0  0  0  0  0  0  0  0  0  0
  147.0506  142.6112  153.9475 H   0  0  0  0  0  0  0  0  0  0  0  0
  1  2  1  0  0  0  0
  1 23  1  0  0  0  0
  1 24  1  0  0  0  0
  1 25  1  0  0  0  0
  2  3  1  0  0  0  0
  2  4  1  0  0  0  0
  3 26  1  0  0  0  0
  3 27  1  0  0  0  0
  3 28  1  0  0  0  0
  4  5  2  0  0  0  0
  4  6  1  0  0  0  0
  6 22  1  0  0  0  0
  6  7  2  0  0  0  0
  7  8  1  0  0  0  0
  7 29  1  0  0  0  0
  8  9  1  0  0  0  0
  8 20  2  0  0  0  0
  9 10  1  0  0  0  0
  9 30  1  0  0  0  0
 10 11  2  0  0  0  0
 10 12  1  0  0  0  0
 12 13  1  0  0  0  0
 12 31  1  0  0  0  0
 13 14  1  0  0  0  0
 13 32  1  0  0  0  0
 13 33  1  0  0  0  0
 14 19  1  0  0  0  0
 14 15  1  0  0  0  0
 14 16  1  0  0  0  0
 15 34  1  0  0  0  0
 15 35  1  0  0  0  0
 15 36  1  0  0  0  0
 16 17  1  0  0  0  0
 16 37  1  0  0  0  0
 16 38  1  0  0  0  0
 17 18  1  0  0  0  0
 17 39  1  0  0  0  0
 17 40  1  0  0  0  0
 18 19  1  0  0  0  0
 18 41  1  0  0  0  0
 18 42  1  0  0  0  0
 19 43  1  0  0  0  0
 19 44  1  0  0  0  0
 20 21  1  0  0  0  0
 20 45  1  0  0  0  0
 21 22  2  0  0  0  0
 21 46  1  0  0  0  0
M  END
> <s_m_source_file>
AV-unprocessed.smi

> <i_m_source_file_index>
736

> <i_lp_mmshare_version>
43012

> <i_f3d_flags>
0

> <s_epik_input>
W0NIM11OKFtDSDNdKUMoPU8pYzFbY0hdYyhbY0hdW2NIXW4xKVtOSF1DKD1PKVtOSF1bQ0gyXUMyKFtDSDNdKVtDSDJdW0NIMl1bQ0gyXVtDSDJdMg==

> <s_epik_cmdline>
J2VwaWtfcHl0aG9uJywgJy1waCcsICc3LjAnLCAnLXRuJywgJzgnLCAnLW1hJywgJzIwMCcsICctbWV0YWxfYmluZGluZycsICctaW1hZScsICc8aW5maWxlLm1hZT4nLCAnLW9tYWUnLCAnPG91dGZpbGUubWFlPic=

> <r_lp_tautomer_probability>
1

> <r_epik_Ionization_Penalty>
0.000119665

> <r_epik_Ionization_Penalty_Charging>
0

> <r_epik_Ionization_Penalty_Neutral>
0.000119665

> <r_epik_State_Penalty>
-0

> <r_epik_Charging_Adjusted_Penalty>
0

> <i_epik_Tot_Q>
0

> <i_epik_Tot_abs_Q>
0

> <r_epik_Metal_State_Penalty>
-0

> <b_epik_Metal_Only>
0

> <s_lp_Force_Field>
OPLS_2005

> <r_lp_Energy>
46.6669

> <b_lp_Chiralities_Consistent>
1

> <s_lp_Variant>
AV-unprocessed.smi:736-1

> <Gold.Version>
5.8.1

> <Gold.Id.Protein>
6NUR|6NUR_protein|mol2

> <Gold.PLP.Fitness>
48.1399

> <Gold.PLP.PLP>
-40.4256

> <Gold.PLP.part.hbond>
-3.0788

> <Gold.PLP.part.metal>
0.0000

> <Gold.PLP.part.buried>
-5.0277

> <Gold.PLP.part.nonpolar>
-36.1830

> <Gold.PLP.part.repulsive>
4.0799

> <Gold.PLP.ligand.clash>
0.0000

> <Gold.PLP.ligand.torsion>
1.2276

> <Gold.PLP.Chemscore.Hbond>
2.9360

> <Gold.PLP.Chemscore.CHOScore>
0.0000

> <Gold.PLP.Chemscore.Metal>
0.0000

> <Gold.Chemscore.Hbonds>
donor molecule, donor type, donor heavy atom, donor atom, acceptor molecule, acceptor atom, score
      L1  H     9    30       P1  7948  1.00
      L1  H    12    31       P1  7948  0.96
      P1  H  7989  7998       L1     5  0.98

> <Gold.PLP.Chemscore.Internal.Correction>
1.3616

> <Gold.Rescore>
     Score         DG    S(hbond)    S(metal)    S(lipo)     H(rot)  DE(clash)    DE(int)     intcor
     17.34     -22.25       2.67        0.00      93.08       1.18       1.67       3.25       ----

> <Gold.Chemscore.Fitness>
17.3358

> <Gold.Chemscore.DG>
-22.2541

> <Gold.Chemscore.ZeroCoef>
-5.4800

> <Gold.Chemscore.Hbond>
2.6679

> <Gold.Chemscore.Metal>
0.0000

> <Gold.Chemscore.Lipo>
93.0795

> <Gold.Chemscore.Internal_Hbond>
0.0000

> <Gold.Chemscore.DEClash>
1.6667

> <Gold.Chemscore.DEInternal>
3.2516

> <Gold.Chemscore.Rot>
1.1824

> <Gold.Chemscore.Internal.Correction>
   9.000000E+99

> <Gold.Chemscore.Hbonds>
donor molecule, donor type, donor heavy atom, donor atom, acceptor molecule, acceptor atom, score
      L1  H     9    30       P1  7948  0.99
      L1  H    12    31       P1  7948  0.92
      P1  H  7989  7998       L1     5  0.24

> <Gold.Chemscore.Hbond.Weighted>
-8.9107

> <Gold.Chemscore.Metal.Weighted>
-0.0000

> <Gold.Chemscore.Lipo.Weighted>
-10.8903

> <Gold.Chemscore.Internal_Hbond.Weighted>
0.0000

> <Gold.Chemscore.DEClash.Weighted>
1.6667

> <Gold.Chemscore.DEInternal.Weighted>
3.2516

> <Gold.Chemscore.Rot.Weighted>
3.0268

> <Gold.Chemscore.Internal.Correction.Weighted>
   9.000000E+99

> <Gold.Protein.RotatedTorsions>
[ 6907 6896 6895 6894 ] final  -40.90 input  -60.11 | X-H torsion
[ 7974 7965 7964 7962 ] final  130.06 input  175.53 | X-H torsion
[ 8008 7997 7996 7995 ] final  -57.62 input   59.86 | X-H torsion
[ 10167 10162 10161 10158 ] final   13.54 input  -65.29 | X-H torsion
[ 10718 10713 10712 10709 ] final   22.85 input   66.30 | X-H torsion
[ 10763 10752 10751 10750 ] final -109.22 input  -60.55 | X-H torsion
[ 11005 11000 10999 10996 ] final   -1.50 input  -57.11 | X-H torsion

> <Gold.Protein.ActiveResidues>
 VAL166  LYS551  ARG553  GLY616  TRP617  ASP618  TYR619  PRO620  LYS621  CYS622 
 ASP623  PHE694  ASN695  SER759  ASP760  ASP761  ALA762  ILE779  LEU786  VAL792 
 PHE793  MET794  SER795  GLU796  ALA797  LYS798  CYS799  TRP800  GLU811  SER814 

> <Gold.Protein.RotatedAtoms>
  150.9730  134.9099  159.7798 H   0  0  0  0  0  0  0  0  0  0  0  0  # atno 6907 bound_to 6896
  152.5196  134.3515  159.9262 H   0  0  0  0  0  0  0  0  0  0  0  0  # atno 6908 bound_to 6896
  151.3523  133.3880  159.2716 H   0  0  0  0  0  0  0  0  0  0  0  0  # atno 6909 bound_to 6896
  145.0219  139.4124  143.5193 H   0  0  0  0  0  0  0  0  0  0  0  0  # atno 7974 bound_to 7965
  154.4275  140.1102  156.5827 H   0  0  0  0  0  0  0  0  0  0  0  0  # atno 8008 bound_to 7997
  155.6095  140.3494  155.4599 H   0  0  0  0  0  0  0  0  0  0  0  0  # atno 8009 bound_to 7997
  156.0110  140.1219  157.0443 H   0  0  0  0  0  0  0  0  0  0  0  0  # atno 8010 bound_to 7997
  140.5996  143.8632  150.6951 H   0  0  0  0  0  0  0  0  0  0  0  0  # atno 10167 bound_to 10162
  157.1580  130.6704  149.6034 H   0  0  0  0  0  0  0  0  0  0  0  0  # atno 10718 bound_to 10713
  154.8181  135.4609  154.0699 H   0  0  0  0  0  0  0  0  0  0  0  0  # atno 10763 bound_to 10752
  153.2076  135.6877  153.8160 H   0  0  0  0  0  0  0  0  0  0  0  0  # atno 10764 bound_to 10752
  153.7623  135.3282  155.3316 H   0  0  0  0  0  0  0  0  0  0  0  0  # atno 10765 bound_to 10752
  140.6480  133.9430  155.8364 H   0  0  0  0  0  0  0  0  0  0  0  0  # atno 11005 bound_to 11000
  146.3486  139.9722  142.8705 LP  0  0  0  0  0  0  0  0  0  0  0  0  # atno 17320 bound_to 7965
  145.1884  140.9800  143.4225 LP  0  0  0  0  0  0  0  0  0  0  0  0  # atno 17321 bound_to 7965
  140.2175  143.3835  152.1669 LP  0  0  0  0  0  0  0  0  0  0  0  0  # atno 17342 bound_to 10162
  139.5281  144.7127  151.5154 LP  0  0  0  0  0  0  0  0  0  0  0  0  # atno 17343 bound_to 10162
  155.9758  130.4721  150.6488 LP  0  0  0  0  0  0  0  0  0  0  0  0  # atno 17370 bound_to 10713
  157.4158  131.0830  151.1177 LP  0  0  0  0  0  0  0  0  0  0  0  0  # atno 17371 bound_to 10713
  141.0558  134.0419  157.3724 LP  0  0  0  0  0  0  0  0  0  0  0  0  # atno 17394 bound_to 11000
  139.9056  135.0178  156.7470 LP  0  0  0  0  0  0  0  0  0  0  0  0  # atno 17395 bound_to 11000

$$$$
