AV-unprocessed.smi:2131|AV-procd|sdf|8688|dock1
  -GOLD-   2272011443D 1   1.00000     0.00000
 Structure written by MMmdl.
 40 42  0  0  0  0  0  0  0  0  1 V2000
  154.5337  139.6235  160.8316 N   0  0  0  0  0  0  0  0  0  0  0  0
  154.0053  140.6527  160.8179 C   0  0  0  0  0  0  0  0  0  0  0  0
  153.3333  141.9609  160.8001 C   0  0  0  0  0  0  0  0  0  0  0  0
  152.2534  142.0300  159.7406 C   0  0  0  0  0  0  0  0  0  0  0  0
  151.5415  143.2270  159.5319 C   0  0  0  0  0  0  0  0  0  0  0  0
  150.5369  143.2881  158.5472 C   0  0  0  0  0  0  0  0  0  0  0  0
  150.2297  142.1613  157.7571 C   0  0  0  0  0  0  0  0  0  0  0  0
  149.2337  142.3106  156.8161 O   0  0  0  0  0  0  0  0  0  0  0  0
  148.9685  141.2250  155.9371 C   0  0  0  0  0  0  0  0  0  0  0  0
  148.7065  141.7784  154.5288 C   0  0  1  0  0  0  0  0  0  0  0  0
  149.6435  141.2061  153.6378 O   0  0  0  0  0  0  0  0  0  0  0  0
  147.2748  141.4848  154.0391 C   0  0  0  0  0  0  0  0  0  0  0  0
  146.2729  142.2437  154.7654 N   0  0  0  0  0  0  0  0  0  0  0  0
  145.8242  142.0136  156.0145 C   0  0  0  0  0  0  0  0  0  0  0  0
  144.8972  142.8400  156.4904 N   0  0  0  0  0  0  0  0  0  0  0  0
  144.7268  143.7107  155.4277 C   0  0  0  0  0  0  0  0  0  0  0  0
  143.8764  144.8305  155.2863 C   0  0  0  0  0  0  0  0  0  0  0  0
  143.8730  145.5785  154.0905 C   0  0  0  0  0  0  0  0  0  0  0  0
  144.7192  145.2210  153.0205 C   0  0  0  0  0  0  0  0  0  0  0  0
  145.5767  144.1103  153.1386 C   0  0  0  0  0  0  0  0  0  0  0  0
  145.5752  143.3656  154.3327 C   0  0  0  0  0  0  0  0  0  0  0  0
  150.9506  140.9594  157.9727 C   0  0  0  0  0  0  0  0  0  0  0  0
  151.9537  140.8968  158.9596 C   0  0  0  0  0  0  0  0  0  0  0  0
  152.9042  142.1426  161.7857 H   0  0  0  0  0  0  0  0  0  0  0  0
  154.0829  142.7320  160.6213 H   0  0  0  0  0  0  0  0  0  0  0  0
  151.7630  144.1011  160.1268 H   0  0  0  0  0  0  0  0  0  0  0  0
  149.9956  144.2106  158.3967 H   0  0  0  0  0  0  0  0  0  0  0  0
  149.8337  140.5599  155.9150 H   0  0  0  0  0  0  0  0  0  0  0  0
  148.1067  140.6493  156.2794 H   0  0  0  0  0  0  0  0  0  0  0  0
  148.8784  142.8555  154.5350 H   0  0  0  0  0  0  0  0  0  0  0  0
  150.2861  140.7324  154.1437 H   0  0  0  0  0  0  0  0  0  0  0  0
  147.1814  141.7092  152.9753 H   0  0  0  0  0  0  0  0  0  0  0  0
  147.0449  140.4250  154.1550 H   0  0  0  0  0  0  0  0  0  0  0  0
  146.1971  141.1908  156.6071 H   0  0  0  0  0  0  0  0  0  0  0  0
  143.2250  145.1143  156.0996 H   0  0  0  0  0  0  0  0  0  0  0  0
  143.2176  146.4313  153.9936 H   0  0  0  0  0  0  0  0  0  0  0  0
  144.7091  145.8001  152.1087 H   0  0  0  0  0  0  0  0  0  0  0  0
  146.2267  143.8334  152.3215 H   0  0  0  0  0  0  0  0  0  0  0  0
  150.7533  140.0698  157.3942 H   0  0  0  0  0  0  0  0  0  0  0  0
  152.4935  139.9743  159.1157 H   0  0  0  0  0  0  0  0  0  0  0  0
  1  2  3  0  0  0  0
  2  3  1  0  0  0  0
  3  4  1  0  0  0  0
  3 24  1  0  0  0  0
  3 25  1  0  0  0  0
  4 23  1  0  0  0  0
  4  5  2  0  0  0  0
  5  6  1  0  0  0  0
  5 26  1  0  0  0  0
  6  7  2  0  0  0  0
  6 27  1  0  0  0  0
  7  8  1  0  0  0  0
  7 22  1  0  0  0  0
  8  9  1  0  0  0  0
  9 10  1  0  0  0  0
  9 28  1  0  0  0  0
  9 29  1  0  0  0  0
 10 11  1  0  0  0  0
 10 12  1  0  0  0  0
 10 30  1  0  0  0  0
 11 31  1  0  0  0  0
 12 13  1  0  0  0  0
 12 32  1  0  0  0  0
 12 33  1  0  0  0  0
 13 21  1  0  0  0  0
 13 14  1  0  0  0  0
 14 15  2  0  0  0  0
 14 34  1  0  0  0  0
 15 16  1  0  0  0  0
 16 21  2  0  0  0  0
 16 17  1  0  0  0  0
 17 18  2  0  0  0  0
 17 35  1  0  0  0  0
 18 19  1  0  0  0  0
 18 36  1  0  0  0  0
 19 20  2  0  0  0  0
 19 37  1  0  0  0  0
 20 21  1  0  0  0  0
 20 38  1  0  0  0  0
 22 23  2  0  0  0  0
 22 39  1  0  0  0  0
 23 40  1  0  0  0  0
M  END
> <s_m_source_file>
AV-unprocessed.smi

> <i_m_source_file_index>
2131

> <i_lp_mmshare_version>
43012

> <i_f3d_flags>
0

> <s_epik_input>
TiNDW0NIMl1jMVtjSF1bY0hdYyhbY0hdW2NIXTEpT1tDSDJdW0NASF0oW09IXSlbQ0gyXW4oW2NIXW4yKWMoYzIzKVtjSF1bY0hdW2NIXVtjSF0z

> <s_epik_cmdline>
J2VwaWtfcHl0aG9uJywgJy1waCcsICc3LjAnLCAnLXRuJywgJzgnLCAnLW1hJywgJzIwMCcsICctbWV0YWxfYmluZGluZycsICctaW1hZScsICc8aW5maWxlLm1hZT4nLCAnLW9tYWUnLCAnPG91dGZpbGUubWFlPic=

> <r_lp_tautomer_probability>
1

> <r_epik_Ionization_Penalty>
0.0609831

> <r_epik_Ionization_Penalty_Charging>
0

> <r_epik_Ionization_Penalty_Neutral>
0.0609831

> <r_epik_State_Penalty>
0.0529032

> <r_epik_Charging_Adjusted_Penalty>
0.0529032

> <i_epik_Tot_Q>
0

> <i_epik_Tot_abs_Q>
0

> <r_epik_Metal_State_Penalty>
5.53344e-05

> <b_epik_Metal_Only>
0

> <s_lp_Force_Field>
OPLS_2005

> <r_lp_Energy>
14.7938

> <b_lp_Chiralities_Consistent>
1

> <s_lp_Variant>
AV-unprocessed.smi:2131-2

> <Gold.Version>
5.8.1

> <Gold.Id.Protein>
6NUR|6NUR_protein|mol2

> <Gold.PLP.Fitness>
50.7348

> <Gold.PLP.PLP>
-50.2424

> <Gold.PLP.part.hbond>
-3.0000

> <Gold.PLP.part.metal>
0.0000

> <Gold.PLP.part.buried>
-6.4486

> <Gold.PLP.part.nonpolar>
-43.5607

> <Gold.PLP.part.repulsive>
3.1173

> <Gold.PLP.ligand.clash>
0.0000

> <Gold.PLP.ligand.torsion>
1.3150

> <Gold.PLP.Chemscore.Hbond>
1.0000

> <Gold.PLP.Chemscore.CHOScore>
0.0000

> <Gold.PLP.Chemscore.Metal>
0.0000

> <Gold.Chemscore.Hbonds>
donor molecule, donor type, donor heavy atom, donor atom, acceptor molecule, acceptor atom, score
      P1  H  8011  8017       L1    11  0.93

> <Gold.PLP.Chemscore.Internal.Correction>
0.1224

> <Gold.Rescore>
     Score         DG    S(hbond)    S(metal)    S(lipo)     H(rot)  DE(clash)    DE(int)     intcor
     11.93     -14.91       0.74        0.00     118.96       2.72       1.67       1.31       ----

> <Gold.Chemscore.Fitness>
11.9278

> <Gold.Chemscore.DG>
-14.9058

> <Gold.Chemscore.ZeroCoef>
-5.4800

> <Gold.Chemscore.Hbond>
0.7383

> <Gold.Chemscore.Metal>
0.0000

> <Gold.Chemscore.Lipo>
118.9628

> <Gold.Chemscore.Internal_Hbond>
0.0000

> <Gold.Chemscore.DEClash>
1.6700

> <Gold.Chemscore.DEInternal>
1.3080

> <Gold.Chemscore.Rot>
2.7183

> <Gold.Chemscore.Internal.Correction>
   9.000000E+99

> <Gold.Chemscore.Hbonds>
donor molecule, donor type, donor heavy atom, donor atom, acceptor molecule, acceptor atom, score
      P1  H  8011  8017       L1    11  0.40

> <Gold.Chemscore.Hbond.Weighted>
-2.4660

> <Gold.Chemscore.Metal.Weighted>
-0.0000

> <Gold.Chemscore.Lipo.Weighted>
-13.9186

> <Gold.Chemscore.Internal_Hbond.Weighted>
0.0000

> <Gold.Chemscore.DEClash.Weighted>
1.6700

> <Gold.Chemscore.DEInternal.Weighted>
1.3080

> <Gold.Chemscore.Rot.Weighted>
6.9588

> <Gold.Chemscore.Internal.Correction.Weighted>
   9.000000E+99

> <Gold.Protein.RotatedTorsions>
[ 6907 6896 6895 6894 ] final  -82.71 input  -60.11 | X-H torsion
[ 7974 7965 7964 7962 ] final  151.91 input  175.53 | X-H torsion
[ 8008 7997 7996 7995 ] final  -96.52 input   59.86 | X-H torsion
[ 10167 10162 10161 10158 ] final   31.54 input  -65.29 | X-H torsion
[ 10718 10713 10712 10709 ] final  109.19 input   66.30 | X-H torsion
[ 10763 10752 10751 10750 ] final  -23.75 input  -60.55 | X-H torsion
[ 11005 11000 10999 10996 ] final   70.92 input  -57.11 | X-H torsion

> <Gold.Protein.ActiveResidues>
 VAL166  LYS551  ARG553  GLY616  TRP617  ASP618  TYR619  PRO620  LYS621  CYS622 
 ASP623  PHE694  ASN695  SER759  ASP760  ASP761  ALA762  ILE779  LEU786  VAL792 
 PHE793  MET794  SER795  GLU796  ALA797  LYS798  CYS799  TRP800  GLU811  SER814 

> <Gold.Protein.RotatedAtoms>
  150.6894  134.3623  159.4955 H   0  0  0  0  0  0  0  0  0  0  0  0  # atno 6907 bound_to 6896
  152.1450  134.9030  160.0561 H   0  0  0  0  0  0  0  0  0  0  0  0  # atno 6908 bound_to 6896
  152.0150  133.3841  159.4272 H   0  0  0  0  0  0  0  0  0  0  0  0  # atno 6909 bound_to 6896
  144.8259  139.6599  143.6080 H   0  0  0  0  0  0  0  0  0  0  0  0  # atno 7974 bound_to 7965
  154.7755  140.0470  157.1085 H   0  0  0  0  0  0  0  0  0  0  0  0  # atno 8008 bound_to 7997
  154.9768  140.3096  155.4944 H   0  0  0  0  0  0  0  0  0  0  0  0  # atno 8009 bound_to 7997
  156.2928  140.2243  156.4865 H   0  0  0  0  0  0  0  0  0  0  0  0  # atno 8010 bound_to 7997
  140.4579  144.0951  150.6206 H   0  0  0  0  0  0  0  0  0  0  0  0  # atno 10167 bound_to 10162
  157.6552  131.0909  150.6418 H   0  0  0  0  0  0  0  0  0  0  0  0  # atno 10718 bound_to 10713
  153.6728  135.6971  153.5142 H   0  0  0  0  0  0  0  0  0  0  0  0  # atno 10763 bound_to 10752
  153.2545  135.4264  155.0830 H   0  0  0  0  0  0  0  0  0  0  0  0  # atno 10764 bound_to 10752
  154.8422  135.3539  154.6272 H   0  0  0  0  0  0  0  0  0  0  0  0  # atno 10765 bound_to 10752
  139.9571  134.7125  156.0728 H   0  0  0  0  0  0  0  0  0  0  0  0  # atno 11005 bound_to 11000
  146.2564  139.6312  142.9392 LP  0  0  0  0  0  0  0  0  0  0  0  0  # atno 17320 bound_to 7965
  145.5001  141.0437  143.2545 LP  0  0  0  0  0  0  0  0  0  0  0  0  # atno 17321 bound_to 7965
  140.4129  143.2648  151.9811 LP  0  0  0  0  0  0  0  0  0  0  0  0  # atno 17342 bound_to 10162
  139.4803  144.5899  151.7789 LP  0  0  0  0  0  0  0  0  0  0  0  0  # atno 17343 bound_to 10162
  156.6725  130.4543  149.5653 LP  0  0  0  0  0  0  0  0  0  0  0  0  # atno 17370 bound_to 10713
  156.1987  130.6606  151.1143 LP  0  0  0  0  0  0  0  0  0  0  0  0  # atno 17371 bound_to 10713
  141.1244  133.6603  156.3298 LP  0  0  0  0  0  0  0  0  0  0  0  0  # atno 17394 bound_to 11000
  140.5584  134.5958  157.5427 LP  0  0  0  0  0  0  0  0  0  0  0  0  # atno 17395 bound_to 11000

$$$$
