AV-unprocessed.smi:218|AV-procd|sdf|1671|dock3
  -GOLD-   2262020 83D 1   1.00000     0.00000
 Structure written by MMmdl.
 54 57  0  0  0  0  0  0  0  0  1 V2000
  152.2743  144.5835  158.2858 C   0  0  0  0  0  0  0  0  0  0  0  0
  151.5414  143.6330  159.2402 C   0  0  0  0  0  0  0  0  0  0  0  0
  151.6824  144.0932  160.7014 C   0  0  0  0  0  0  0  0  0  0  0  0
  152.1244  142.3395  159.0688 O   0  0  0  0  0  0  0  0  0  0  0  0
  151.7950  141.5695  157.9697 C   0  0  0  0  0  0  0  0  0  0  0  0
  150.8181  142.0595  157.0788 C   0  0  0  0  0  0  0  0  0  0  0  0
  150.4674  141.2810  155.9575 C   0  0  0  0  0  0  0  0  0  0  0  0
  149.4312  141.7757  154.9716 C   0  0  0  0  0  0  0  0  0  0  0  0
  148.0851  141.7586  155.5201 N   0  0  0  0  0  0  0  0  0  0  0  0
  147.3762  140.6117  155.5824 C   0  0  0  0  0  0  0  0  0  0  0  0
  146.8955  140.2910  156.8075 N   0  0  0  0  0  0  0  0  0  0  0  0
  146.1792  139.1767  156.9777 C   0  0  0  0  0  0  0  0  0  0  0  0
  145.8347  138.2613  156.0712 N   0  0  0  0  0  0  0  0  0  0  0  0
  146.3143  138.5755  154.8333 C   0  0  0  0  0  0  0  0  0  0  0  0
  147.0904  139.7236  154.5024 C   0  0  0  0  0  0  0  0  0  0  0  0
  147.3939  139.6930  153.1447 N   0  0  0  0  0  0  0  0  0  0  0  0
  146.8328  138.5981  152.7092 C   0  0  0  0  0  0  0  0  0  0  0  0
  146.1542  137.8700  153.6586 N   0  0  0  0  0  0  0  0  0  0  0  0
  145.4199  136.5835  153.4725 C   0  0  1  0  0  0  0  0  0  0  0  0
  144.1413  136.8935  153.0163 O   0  0  0  0  0  0  0  0  0  0  0  0
  143.7171  135.9201  152.0747 C   0  0  2  0  0  0  0  0  0  0  0  0
  142.8144  134.8722  152.7601 C   0  0  0  0  0  0  0  0  0  0  0  0
  143.4936  134.1106  153.7372 O   0  0  0  0  0  0  0  0  0  0  0  0
  144.9995  135.3857  151.4193 C   0  0  1  0  0  0  0  0  0  0  0  0
  145.2209  136.0791  150.2067 O   0  0  0  0  0  0  0  0  0  0  0  0
  146.1139  135.6950  152.4211 C   0  0  2  0  0  0  0  0  0  0  0  0
  146.5818  134.4918  152.9968 O   0  0  0  0  0  0  0  0  0  0  0  0
  151.1100  140.0421  155.7660 C   0  0  0  0  0  0  0  0  0  0  0  0
  152.0726  139.6359  156.7100 C   0  0  0  0  0  0  0  0  0  0  0  0
  152.4112  140.3748  157.7878 N   0  0  0  0  0  0  0  0  0  0  0  0
  145.3692  136.1329  154.4650 H   0  0  0  0  0  0  0  0  0  0  0  0
  143.0956  136.4355  151.3405 H   0  0  0  0  0  0  0  0  0  0  0  0
  144.9233  134.3240  151.1795 H   0  0  0  0  0  0  0  0  0  0  0  0
  146.9539  136.2147  151.9569 H   0  0  0  0  0  0  0  0  0  0  0  0
  151.8729  145.5951  158.3537 H   0  0  0  0  0  0  0  0  0  0  0  0
  152.1692  144.2546  157.2516 H   0  0  0  0  0  0  0  0  0  0  0  0
  153.3395  144.6303  158.5136 H   0  0  0  0  0  0  0  0  0  0  0  0
  150.4899  143.6333  158.9493 H   0  0  0  0  0  0  0  0  0  0  0  0
  151.2714  145.0940  160.8360 H   0  0  0  0  0  0  0  0  0  0  0  0
  152.7291  144.1196  161.0056 H   0  0  0  0  0  0  0  0  0  0  0  0
  151.1559  143.4303  161.3876 H   0  0  0  0  0  0  0  0  0  0  0  0
  150.3478  143.0161  157.2546 H   0  0  0  0  0  0  0  0  0  0  0  0
  149.6868  142.7901  154.6627 H   0  0  0  0  0  0  0  0  0  0  0  0
  149.4712  141.1434  154.0840 H   0  0  0  0  0  0  0  0  0  0  0  0
  147.7175  142.6534  155.8093 H   0  0  0  0  0  0  0  0  0  0  0  0
  145.8314  138.9928  157.9836 H   0  0  0  0  0  0  0  0  0  0  0  0
  146.8972  138.2917  151.6752 H   0  0  0  0  0  0  0  0  0  0  0  0
  141.9454  135.3521  153.2112 H   0  0  0  0  0  0  0  0  0  0  0  0
  142.4363  134.1762  152.0110 H   0  0  0  0  0  0  0  0  0  0  0  0
  143.2668  133.2006  153.6203 H   0  0  0  0  0  0  0  0  0  0  0  0
  144.6551  136.8369  150.1898 H   0  0  0  0  0  0  0  0  0  0  0  0
  147.5083  134.5788  153.1609 H   0  0  0  0  0  0  0  0  0  0  0  0
  150.8751  139.4166  154.9173 H   0  0  0  0  0  0  0  0  0  0  0  0
  152.5855  138.6923  156.5965 H   0  0  0  0  0  0  0  0  0  0  0  0
  1  2  1  0  0  0  0
  1 35  1  0  0  0  0
  1 36  1  0  0  0  0
  1 37  1  0  0  0  0
  2  3  1  0  0  0  0
  2  4  1  0  0  0  0
  2 38  1  0  0  0  0
  3 39  1  0  0  0  0
  3 40  1  0  0  0  0
  3 41  1  0  0  0  0
  4  5  1  0  0  0  0
  5 30  1  0  0  0  0
  5  6  2  0  0  0  0
  6  7  1  0  0  0  0
  6 42  1  0  0  0  0
  7  8  1  0  0  0  0
  7 28  2  0  0  0  0
  8  9  1  0  0  0  0
  8 43  1  0  0  0  0
  8 44  1  0  0  0  0
  9 10  1  0  0  0  0
  9 45  1  0  0  0  0
 10 15  1  0  0  0  0
 10 11  2  0  0  0  0
 11 12  1  0  0  0  0
 12 13  2  0  0  0  0
 12 46  1  0  0  0  0
 13 14  1  0  0  0  0
 14 18  1  0  0  0  0
 14 15  2  0  0  0  0
 15 16  1  0  0  0  0
 16 17  2  0  0  0  0
 17 18  1  0  0  0  0
 17 47  1  0  0  0  0
 18 19  1  0  0  0  0
 19 31  1  0  0  0  0
 19 26  1  0  0  0  0
 19 20  1  0  0  0  0
 20 21  1  0  0  0  0
 21 32  1  0  0  0  0
 21 22  1  0  0  0  0
 21 24  1  0  0  0  0
 22 23  1  0  0  0  0
 22 48  1  0  0  0  0
 22 49  1  0  0  0  0
 23 50  1  0  0  0  0
 24 33  1  0  0  0  0
 24 25  1  0  0  0  0
 24 26  1  0  0  0  0
 25 51  1  0  0  0  0
 26 34  1  0  0  0  0
 26 27  1  0  0  0  0
 27 52  1  0  0  0  0
 28 29  1  0  0  0  0
 28 53  1  0  0  0  0
 29 30  2  0  0  0  0
 29 54  1  0  0  0  0
M  END
> <s_m_source_file>
AV-unprocessed.smi

> <i_m_source_file_index>
218

> <i_lp_mmshare_version>
43012

> <i_f3d_flags>
0

> <s_epik_input>
W0NIM11bQ0hdKFtDSDNdKU9jMVtjSF1jKFtjSF1bY0hdbjEpW0NIMl1bTkhdYyhuW2NIXW4yKWMoYzIzKW5bY0hdbjNbQ0BASF00T1tDQEhdKFtDSDJdW09IXSlbQ0BASF0oW09IXSlbQ0BIXTRbT0hd

> <s_epik_cmdline>
J2VwaWtfcHl0aG9uJywgJy1waCcsICc3LjAnLCAnLXRuJywgJzgnLCAnLW1hJywgJzIwMCcsICctbWV0YWxfYmluZGluZycsICctaW1hZScsICc8aW5maWxlLm1hZT4nLCAnLW9tYWUnLCAnPG91dGZpbGUubWFlPic=

> <r_lp_tautomer_probability>
1

> <r_epik_Ionization_Penalty>
0.00457014

> <r_epik_Ionization_Penalty_Charging>
0

> <r_epik_Ionization_Penalty_Neutral>
0.00457014

> <r_epik_State_Penalty>
-0

> <r_epik_Charging_Adjusted_Penalty>
0

> <i_epik_Tot_Q>
0

> <i_epik_Tot_abs_Q>
0

> <r_epik_Metal_State_Penalty>
-0

> <b_epik_Metal_Only>
0

> <s_epik_Chemistry_Notes>
This compound contains an acetal/aminal-like group ( X-CH(R)-Y where X, Y are N, S, or O) that may be acid/base labile, releasing an aldehyde.

> <s_lp_Force_Field>
OPLS_2005

> <r_lp_Energy>
37.7133

> <b_lp_Chiralities_Consistent>
1

> <s_lp_Variant>
AV-unprocessed.smi:218-10

> <Gold.Version>
5.8.1

> <Gold.Id.Protein>
6NUR|6NUR_protein|mol2

> <Gold.PLP.Fitness>
49.2033

> <Gold.PLP.PLP>
-43.9010

> <Gold.PLP.part.hbond>
-3.6324

> <Gold.PLP.part.metal>
0.0000

> <Gold.PLP.part.buried>
-6.5915

> <Gold.PLP.part.nonpolar>
-34.0190

> <Gold.PLP.part.repulsive>
1.6687

> <Gold.PLP.ligand.clash>
0.0000

> <Gold.PLP.ligand.torsion>
1.5956

> <Gold.PLP.Chemscore.Hbond>
2.7040

> <Gold.PLP.Chemscore.CHOScore>
0.0453

> <Gold.PLP.Chemscore.Metal>
0.0000

> <Gold.Chemscore.Hbonds>
donor molecule, donor type, donor heavy atom, donor atom, acceptor molecule, acceptor atom, score
      L1  H     9    45       P1  8028  0.10
      L1  H    23    50       P1 10957  0.72
      L1  H    25    51       P1 10171  1.00
      L1  C    17    47       P1  7948  0.05

> <Gold.PLP.Chemscore.Internal.Correction>
0.2456

> <Gold.Rescore>
     Score         DG    S(hbond)    S(metal)    S(lipo)     H(rot)  DE(clash)    DE(int)     intcor
     10.24     -13.23       2.64        0.00      98.11       4.90       1.09       1.90       ----

> <Gold.Chemscore.Fitness>
10.2386

> <Gold.Chemscore.DG>
-13.2321

> <Gold.Chemscore.ZeroCoef>
-5.4800

> <Gold.Chemscore.Hbond>
2.6423

> <Gold.Chemscore.Metal>
0.0000

> <Gold.Chemscore.Lipo>
98.1067

> <Gold.Chemscore.Internal_Hbond>
0.0000

> <Gold.Chemscore.DEClash>
1.0935

> <Gold.Chemscore.DEInternal>
1.9000

> <Gold.Chemscore.Rot>
4.9029

> <Gold.Chemscore.Internal.Correction>
   9.000000E+99

> <Gold.Chemscore.Hbonds>
donor molecule, donor type, donor heavy atom, donor atom, acceptor molecule, acceptor atom, score
      L1  H     9    45       P1  8028  0.06
      L1  H    23    50       P1 10957  0.70
      L1  H    25    51       P1 10171  0.99

> <Gold.Chemscore.Hbond.Weighted>
-8.8252

> <Gold.Chemscore.Metal.Weighted>
-0.0000

> <Gold.Chemscore.Lipo.Weighted>
-11.4785

> <Gold.Chemscore.Internal_Hbond.Weighted>
0.0000

> <Gold.Chemscore.DEClash.Weighted>
1.0935

> <Gold.Chemscore.DEInternal.Weighted>
1.9000

> <Gold.Chemscore.Rot.Weighted>
12.5515

> <Gold.Chemscore.Internal.Correction.Weighted>
   9.000000E+99

> <Gold.Protein.RotatedTorsions>
[ 6907 6896 6895 6894 ] final  -66.35 input  -60.11 | X-H torsion
[ 7974 7965 7964 7962 ] final   70.81 input  175.53 | X-H torsion
[ 8008 7997 7996 7995 ] final  -52.99 input   59.86 | X-H torsion
[ 10167 10162 10161 10158 ] final  -63.54 input  -65.29 | X-H torsion
[ 10718 10713 10712 10709 ] final  -28.94 input   66.30 | X-H torsion
[ 10763 10752 10751 10750 ] final -178.19 input  -60.55 | X-H torsion
[ 11005 11000 10999 10996 ] final -126.92 input  -57.11 | X-H torsion

> <Gold.Protein.ActiveResidues>
 VAL166  LYS551  ARG553  GLY616  TRP617  ASP618  TYR619  PRO620  LYS621  CYS622 
 ASP623  PHE694  ASN695  SER759  ASP760  ASP761  ALA762  ILE779  LEU786  VAL792 
 PHE793  MET794  SER795  GLU796  ALA797  LYS798  CYS799  TRP800  GLU811  SER814 

> <Gold.Protein.RotatedAtoms>
  150.7470  134.6033  159.6047 H   0  0  0  0  0  0  0  0  0  0  0  0  # atno 6907 bound_to 6896
  152.3388  134.7159  160.0278 H   0  0  0  0  0  0  0  0  0  0  0  0  # atno 6908 bound_to 6896
  151.7619  133.3298  159.3456 H   0  0  0  0  0  0  0  0  0  0  0  0  # atno 6909 bound_to 6896
  145.7736  139.2854  143.1306 H   0  0  0  0  0  0  0  0  0  0  0  0  # atno 7974 bound_to 7965
  154.4121  140.1210  156.5081 H   0  0  0  0  0  0  0  0  0  0  0  0  # atno 8008 bound_to 7997
  155.6827  140.3496  155.4842 H   0  0  0  0  0  0  0  0  0  0  0  0  # atno 8009 bound_to 7997
  155.9538  140.1110  157.0944 H   0  0  0  0  0  0  0  0  0  0  0  0  # atno 8010 bound_to 7997
  140.5863  143.2334  151.6235 H   0  0  0  0  0  0  0  0  0  0  0  0  # atno 10167 bound_to 10162
  156.4187  130.4422  149.7199 H   0  0  0  0  0  0  0  0  0  0  0  0  # atno 10718 bound_to 10713
  154.5508  135.2813  155.1010 H   0  0  0  0  0  0  0  0  0  0  0  0  # atno 10763 bound_to 10752
  154.2456  135.6349  153.5226 H   0  0  0  0  0  0  0  0  0  0  0  0  # atno 10764 bound_to 10752
  153.0002  135.5570  154.6074 H   0  0  0  0  0  0  0  0  0  0  0  0  # atno 10765 bound_to 10752
  140.9642  134.0895  157.3937 H   0  0  0  0  0  0  0  0  0  0  0  0  # atno 11005 bound_to 11000
  146.0145  140.8405  142.9954 LP  0  0  0  0  0  0  0  0  0  0  0  0  # atno 17320 bound_to 7965
  144.6808  140.2538  143.7328 LP  0  0  0  0  0  0  0  0  0  0  0  0  # atno 17321 bound_to 7965
  139.5200  144.3237  152.0888 LP  0  0  0  0  0  0  0  0  0  0  0  0  # atno 17342 bound_to 10162
  140.2395  144.4285  150.6266 LP  0  0  0  0  0  0  0  0  0  0  0  0  # atno 17343 bound_to 10162
  156.4148  130.7740  151.2755 LP  0  0  0  0  0  0  0  0  0  0  0  0  # atno 17370 bound_to 10713
  157.7508  131.0200  150.3692 LP  0  0  0  0  0  0  0  0  0  0  0  0  # atno 17371 bound_to 10713
  139.8888  135.0101  156.6645 LP  0  0  0  0  0  0  0  0  0  0  0  0  # atno 17394 bound_to 11000
  140.7423  133.8967  155.8287 LP  0  0  0  0  0  0  0  0  0  0  0  0  # atno 17395 bound_to 11000

$$$$
