AV-unprocessed.smi:829|AV-procd|sdf|3867|dock4
  -GOLD-   22720 1323D 1   1.00000     0.00000
 Structure written by MMmdl.
 49 51  0  0  0  0  0  0  0  0  2 V2000
  142.6343  136.0745  153.0364 O   0  0  0  0  0  0  0  0  0  0  0  0
  142.8336  137.2879  152.9875 C   0  0  0  0  0  0  0  0  0  0  0  0
  141.9085  138.2401  153.2004 N   0  0  0  0  0  0  0  0  0  0  0  0
  140.5325  138.0846  153.5219 C   0  0  0  0  0  0  0  0  0  0  0  0
  139.7544  139.2528  153.6568 C   0  0  0  0  0  0  0  0  0  0  0  0
  138.3906  139.1263  153.9891 C   0  0  0  0  0  0  0  0  0  0  0  0
  137.7851  137.9383  154.1967 N   0  0  0  0  0  0  0  0  0  0  0  0
  138.5349  136.8217  154.0822 C   0  0  0  0  0  0  0  0  0  0  0  0
  139.9054  136.8366  153.7538 C   0  0  0  0  0  0  0  0  0  0  0  0
  144.0241  137.8267  152.6845 N   0  0  0  0  0  0  0  0  0  0  0  0
  145.2394  137.0708  152.3818 C   0  0  2  0  0  0  0  0  0  0  0  0
  146.1205  136.9380  153.6367 C   0  0  0  0  0  0  0  0  0  0  0  0
  146.7969  138.2685  154.0180 C   0  0  0  0  0  0  0  0  0  0  0  0
  147.5733  138.8236  152.8792 N   0  3  2  0  0  0  0  0  0  0  0  0
  148.3673  140.0242  153.2484 C   0  0  0  0  0  0  0  0  0  0  0  0
  149.2305  139.7823  154.5025 C   0  0  0  0  0  0  0  0  0  0  0  0
  149.7390  141.0765  155.1421 C   0  0  0  0  0  0  0  0  0  0  0  0
  150.8875  140.6361  156.0530 C   0  0  0  0  0  0  0  0  0  0  0  0
  151.4521  139.3522  155.4297 C   0  0  0  0  0  0  0  0  0  0  0  0
  150.5224  138.9914  154.2645 C   0  0  0  0  0  0  0  0  0  0  0  0
  146.7105  139.0367  151.6882 C   0  0  0  0  0  0  0  0  0  0  0  0
  146.0523  137.7199  151.2433 C   0  0  0  0  0  0  0  0  0  0  0  0
  142.2096  139.1920  153.0524 H   0  0  0  0  0  0  0  0  0  0  0  0
  140.1871  140.2306  153.5038 H   0  0  0  0  0  0  0  0  0  0  0  0
  137.7703  140.0043  154.0930 H   0  0  0  0  0  0  0  0  0  0  0  0
  138.0285  135.8855  154.2639 H   0  0  0  0  0  0  0  0  0  0  0  0
  140.4418  135.9020  153.7001 H   0  0  0  0  0  0  0  0  0  0  0  0
  144.0973  138.8335  152.6697 H   0  0  0  0  0  0  0  0  0  0  0  0
  144.9394  136.0679  152.0722 H   0  0  0  0  0  0  0  0  0  0  0  0
  145.5328  136.5612  154.4748 H   0  0  0  0  0  0  0  0  0  0  0  0
  146.8931  136.1904  153.4510 H   0  0  0  0  0  0  0  0  0  0  0  0
  146.0521  138.9970  154.3427 H   0  0  0  0  0  0  0  0  0  0  0  0
  147.4613  138.0956  154.8657 H   0  0  0  0  0  0  0  0  0  0  0  0
  148.9741  140.3637  152.4073 H   0  0  0  0  0  0  0  0  0  0  0  0
  147.6903  140.8501  153.4722 H   0  0  0  0  0  0  0  0  0  0  0  0
  148.6339  139.2558  155.2498 H   0  0  0  0  0  0  0  0  0  0  0  0
  150.1218  141.7485  154.3723 H   0  0  0  0  0  0  0  0  0  0  0  0
  148.9592  141.6091  155.6879 H   0  0  0  0  0  0  0  0  0  0  0  0
  151.6451  141.4134  156.1563 H   0  0  0  0  0  0  0  0  0  0  0  0
  150.5044  140.4184  157.0509 H   0  0  0  0  0  0  0  0  0  0  0  0
  152.4753  139.4930  155.0799 H   0  0  0  0  0  0  0  0  0  0  0  0
  151.4695  138.5524  156.1710 H   0  0  0  0  0  0  0  0  0  0  0  0
  150.3472  137.9169  154.2020 H   0  0  0  0  0  0  0  0  0  0  0  0
  150.9847  139.3068  153.3281 H   0  0  0  0  0  0  0  0  0  0  0  0
  145.9474  139.7824  151.9171 H   0  0  0  0  0  0  0  0  0  0  0  0
  147.2958  139.4367  150.8621 H   0  0  0  0  0  0  0  0  0  0  0  0
  146.8300  137.0268  150.9198 H   0  0  0  0  0  0  0  0  0  0  0  0
  145.4246  137.8930  150.3685 H   0  0  0  0  0  0  0  0  0  0  0  0
  148.2450  138.1115  152.6306 H   0  0  0  0  0  0  0  0  0  0  0  0
  1  2  2  0  0  0  0
  2  3  1  0  0  0  0
  2 10  1  0  0  0  0
  3  4  1  0  0  0  0
  3 23  1  0  0  0  0
  4  9  1  0  0  0  0
  4  5  2  0  0  0  0
  5  6  1  0  0  0  0
  5 24  1  0  0  0  0
  6  7  2  0  0  0  0
  6 25  1  0  0  0  0
  7  8  1  0  0  0  0
  8  9  2  0  0  0  0
  8 26  1  0  0  0  0
  9 27  1  0  0  0  0
 10 11  1  0  0  0  0
 10 28  1  0  0  0  0
 11 22  1  0  0  0  0
 11 12  1  0  0  0  0
 11 29  1  0  0  0  0
 12 13  1  0  0  0  0
 12 30  1  0  0  0  0
 12 31  1  0  0  0  0
 13 14  1  0  0  0  0
 13 32  1  0  0  0  0
 13 33  1  0  0  0  0
 14 15  1  0  0  0  0
 14 21  1  0  0  0  0
 14 49  1  0  0  0  0
 15 16  1  0  0  0  0
 15 34  1  0  0  0  0
 15 35  1  0  0  0  0
 16 20  1  0  0  0  0
 16 17  1  0  0  0  0
 16 36  1  0  0  0  0
 17 18  1  0  0  0  0
 17 37  1  0  0  0  0
 17 38  1  0  0  0  0
 18 19  1  0  0  0  0
 18 39  1  0  0  0  0
 18 40  1  0  0  0  0
 19 20  1  0  0  0  0
 19 41  1  0  0  0  0
 19 42  1  0  0  0  0
 20 43  1  0  0  0  0
 20 44  1  0  0  0  0
 21 22  1  0  0  0  0
 21 45  1  0  0  0  0
 21 46  1  0  0  0  0
 22 47  1  0  0  0  0
 22 48  1  0  0  0  0
M  CHG  1  14   1
M  END
> <s_m_source_file>
AV-unprocessed.smi

> <i_m_source_file_index>
829

> <i_lp_mmshare_version>
43012

> <i_f3d_flags>
0

> <s_epik_input>
W2NIXTFbY0hdbltjSF1bY0hdYzFbTkhdQyg9TylbTkhdW0NIXTJbQ0gyXVtDSDJdTihbQ0gyXVtDSDJdMilbQ0gyXVtDSF0zW0NIMl1bQ0gyXVtDSDJdW0NIMl0z

> <s_epik_cmdline>
J2VwaWtfcHl0aG9uJywgJy1waCcsICc3LjAnLCAnLXRuJywgJzgnLCAnLW1hJywgJzIwMCcsICctbWV0YWxfYmluZGluZycsICctaW1hZScsICc8aW5maWxlLm1hZT4nLCAnLW9tYWUnLCAnPG91dGZpbGUubWFlPic=

> <r_epik_Ionization_Penalty>
0.101981

> <r_epik_Ionization_Penalty_Charging>
0.00207989

> <r_epik_Ionization_Penalty_Neutral>
0.0999008

> <r_epik_State_Penalty>
0.0935668

> <r_epik_Charging_Adjusted_Penalty>
0.0956467

> <i_epik_Tot_Q>
1

> <i_epik_Tot_abs_Q>
1

> <r_epik_Metal_State_Penalty>
0.0787682

> <b_epik_Metal_Only>
0

> <s_lp_Force_Field>
OPLS_2005

> <r_lp_Energy>
43.3749

> <b_lp_Chiralities_Consistent>
1

> <s_lp_Variant>
AV-unprocessed.smi:829-2

> <Gold.Version>
5.8.1

> <Gold.Id.Protein>
6NUR|6NUR_protein|mol2

> <Gold.PLP.Fitness>
52.4620

> <Gold.PLP.PLP>
-41.4059

> <Gold.PLP.part.hbond>
-5.0000

> <Gold.PLP.part.metal>
0.0000

> <Gold.PLP.part.buried>
7.7777

> <Gold.PLP.part.nonpolar>
-43.5507

> <Gold.PLP.part.repulsive>
0.3153

> <Gold.PLP.ligand.clash>
0.0000

> <Gold.PLP.ligand.torsion>
0.4856

> <Gold.PLP.Chemscore.Hbond>
4.0000

> <Gold.PLP.Chemscore.CHOScore>
0.0000

> <Gold.PLP.Chemscore.Metal>
0.0000

> <Gold.Chemscore.Hbonds>
donor molecule, donor type, donor heavy atom, donor atom, acceptor molecule, acceptor atom, score
      L1  H     3    23       P1 10175  0.99
      L1  H    10    28       P1 10175  1.00
      L1  H    14    49       P1  7948  1.50

> <Gold.PLP.Chemscore.Internal.Correction>
0.0272

> <Gold.Rescore>
     Score         DG    S(hbond)    S(metal)    S(lipo)     H(rot)  DE(clash)    DE(int)     intcor
     19.84     -24.87       2.86        0.00     113.63       1.35       3.29       1.74       ----

> <Gold.Chemscore.Fitness>
19.8413

> <Gold.Chemscore.DG>
-24.8735

> <Gold.Chemscore.ZeroCoef>
-5.4800

> <Gold.Chemscore.Hbond>
2.8573

> <Gold.Chemscore.Metal>
0.0000

> <Gold.Chemscore.Lipo>
113.6281

> <Gold.Chemscore.Internal_Hbond>
0.0000

> <Gold.Chemscore.DEClash>
3.2942

> <Gold.Chemscore.DEInternal>
1.7380

> <Gold.Chemscore.Rot>
1.3455

> <Gold.Chemscore.Internal.Correction>
   9.000000E+99

> <Gold.Chemscore.Hbonds>
donor molecule, donor type, donor heavy atom, donor atom, acceptor molecule, acceptor atom, score
      L1  H     3    23       P1 10175  0.92
      L1  H    10    28       P1 10175  0.99
      L1  H    14    49       P1  7948  0.74

> <Gold.Chemscore.Hbond.Weighted>
-9.5435

> <Gold.Chemscore.Metal.Weighted>
-0.0000

> <Gold.Chemscore.Lipo.Weighted>
-13.2945

> <Gold.Chemscore.Internal_Hbond.Weighted>
0.0000

> <Gold.Chemscore.DEClash.Weighted>
3.2942

> <Gold.Chemscore.DEInternal.Weighted>
1.7380

> <Gold.Chemscore.Rot.Weighted>
3.4445

> <Gold.Chemscore.Internal.Correction.Weighted>
   9.000000E+99

> <Gold.Protein.RotatedTorsions>
[ 6907 6896 6895 6894 ] final -123.64 input  -60.11 | X-H torsion
[ 7974 7965 7964 7962 ] final  -79.02 input  175.53 | X-H torsion
[ 8008 7997 7996 7995 ] final -130.71 input   59.86 | X-H torsion
[ 10167 10162 10161 10158 ] final -172.34 input  -65.29 | X-H torsion
[ 10718 10713 10712 10709 ] final -177.17 input   66.30 | X-H torsion
[ 10763 10752 10751 10750 ] final  113.03 input  -60.55 | X-H torsion
[ 11005 11000 10999 10996 ] final -159.69 input  -57.11 | X-H torsion

> <Gold.Protein.ActiveResidues>
 VAL166  LYS551  ARG553  GLY616  TRP617  ASP618  TYR619  PRO620  LYS621  CYS622 
 ASP623  PHE694  ASN695  SER759  ASP760  ASP761  ALA762  ILE779  LEU786  VAL792 
 PHE793  MET794  SER795  GLU796  ALA797  LYS798  CYS799  TRP800  GLU811  SER814 

> <Gold.Protein.RotatedAtoms>
  150.8690  133.7532  159.2967 H   0  0  0  0  0  0  0  0  0  0  0  0  # atno 6907 bound_to 6896
  151.5150  135.1064  159.9873 H   0  0  0  0  0  0  0  0  0  0  0  0  # atno 6908 bound_to 6896
  152.4682  133.7925  159.6965 H   0  0  0  0  0  0  0  0  0  0  0  0  # atno 6909 bound_to 6896
  145.5788  140.9452  143.1355 H   0  0  0  0  0  0  0  0  0  0  0  0  # atno 7974 bound_to 7965
  155.3003  140.0452  157.3029 H   0  0  0  0  0  0  0  0  0  0  0  0  # atno 8008 bound_to 7997
  154.5490  140.2311  155.8482 H   0  0  0  0  0  0  0  0  0  0  0  0  # atno 8009 bound_to 7997
  156.1950  140.3041  155.9416 H   0  0  0  0  0  0  0  0  0  0  0  0  # atno 8010 bound_to 7997
  139.5750  144.1553  152.1438 H   0  0  0  0  0  0  0  0  0  0  0  0  # atno 10167 bound_to 10162
  156.8255  130.9635  151.3109 H   0  0  0  0  0  0  0  0  0  0  0  0  # atno 10718 bound_to 10713
  153.4865  135.3668  155.2469 H   0  0  0  0  0  0  0  0  0  0  0  0  # atno 10763 bound_to 10752
  154.8753  135.3967  154.3639 H   0  0  0  0  0  0  0  0  0  0  0  0  # atno 10764 bound_to 10752
  153.4251  135.7081  153.6333 H   0  0  0  0  0  0  0  0  0  0  0  0  # atno 10765 bound_to 10752
  140.6397  134.4564  157.5233 H   0  0  0  0  0  0  0  0  0  0  0  0  # atno 11005 bound_to 11000
  144.7403  139.7467  143.7313 LP  0  0  0  0  0  0  0  0  0  0  0  0  # atno 17320 bound_to 7965
  146.1731  139.4890  142.9914 LP  0  0  0  0  0  0  0  0  0  0  0  0  # atno 17321 bound_to 7965
  140.1094  144.5470  150.6935 LP  0  0  0  0  0  0  0  0  0  0  0  0  # atno 17342 bound_to 10162
  140.7033  143.2450  151.4800 LP  0  0  0  0  0  0  0  0  0  0  0  0  # atno 17343 bound_to 10162
  157.6434  130.8824  149.9492 LP  0  0  0  0  0  0  0  0  0  0  0  0  # atno 17370 bound_to 10713
  156.0964  130.3659  150.0299 LP  0  0  0  0  0  0  0  0  0  0  0  0  # atno 17371 bound_to 10713
  139.9085  134.8397  156.1617 LP  0  0  0  0  0  0  0  0  0  0  0  0  # atno 17394 bound_to 11000
  141.0615  133.6839  156.1962 LP  0  0  0  0  0  0  0  0  0  0  0  0  # atno 17395 bound_to 11000

$$$$
