AV-unprocessed.smi:1033|AV-procd|sdf|4513|dock9
  -GOLD-   22720 2523D 1   1.00000     0.00000
 Structure written by MMmdl.
 57 59  0  0  0  0  0  0  0  0  3 V2000
  153.9440  142.9239  163.6178 C   0  0  0  0  0  0  0  0  0  0  0  0
  153.3670  142.7246  162.2273 C   0  0  0  0  0  0  0  0  0  0  0  0
  152.5553  143.7376  161.6690 C   0  0  0  0  0  0  0  0  0  0  0  0
  151.9986  143.5910  160.3797 C   0  0  0  0  0  0  0  0  0  0  0  0
  151.1894  144.4432  159.6479 N   0  0  0  0  0  0  0  0  0  0  0  0
  151.0064  143.7459  158.5308 C   0  0  0  0  0  0  0  0  0  0  0  0
  151.6066  142.5429  158.4489 N   0  0  0  0  0  0  0  0  0  0  0  0
  151.5516  141.6135  157.3345 C   0  0  0  0  0  0  0  0  0  0  0  0
  150.2189  141.6935  156.5655 C   0  0  1  0  0  0  0  0  0  0  0  0
  150.2867  142.7394  155.6150 O   0  0  0  0  0  0  0  0  0  0  0  0
  149.9084  140.3786  155.8234 C   0  0  0  0  0  0  0  0  0  0  0  0
  148.5530  140.3732  155.2143 N   0  3  2  0  0  0  0  0  0  0  0  0
  148.5214  140.9148  153.8314 C   0  0  0  0  0  0  0  0  0  0  0  0
  147.1117  140.7896  153.2223 C   0  0  0  0  0  0  0  0  0  0  0  0
  146.0836  141.4508  154.0652 N   0  3  2  0  0  0  0  0  0  0  0  0
  146.0796  142.9341  153.9444 C   0  0  0  0  0  0  0  0  0  0  0  0
  144.9042  143.5916  154.6959 C   0  0  1  0  0  0  0  0  0  0  0  0
  144.4582  144.8961  154.0230 C   0  0  0  0  0  0  0  0  0  0  0  0
  143.7992  142.7103  154.7037 O   0  0  0  0  0  0  0  0  0  0  0  0
  146.1297  140.9410  155.4615 C   0  0  0  0  0  0  0  0  0  0  0  0
  147.5423  141.0372  156.0747 C   0  0  0  0  0  0  0  0  0  0  0  0
  152.2782  142.3937  159.6580 C   0  0  0  0  0  0  0  0  0  0  0  0
  153.0855  141.3792  160.2023 C   0  0  0  0  0  0  0  0  0  0  0  0
  153.6330  141.5415  161.4922 C   0  0  0  0  0  0  0  0  0  0  0  0
  154.5029  140.4399  162.0716 C   0  0  0  0  0  0  0  0  0  0  0  0
  153.6893  143.9057  164.0177 H   0  0  0  0  0  0  0  0  0  0  0  0
  155.0310  142.8442  163.5970 H   0  0  0  0  0  0  0  0  0  0  0  0
  153.5540  142.1712  164.3034 H   0  0  0  0  0  0  0  0  0  0  0  0
  152.3527  144.6389  162.2288 H   0  0  0  0  0  0  0  0  0  0  0  0
  150.4025  144.1334  157.7230 H   0  0  0  0  0  0  0  0  0  0  0  0
  152.3924  141.8155  156.6694 H   0  0  0  0  0  0  0  0  0  0  0  0
  151.7008  140.6061  157.7253 H   0  0  0  0  0  0  0  0  0  0  0  0
  149.4256  141.9288  157.2746 H   0  0  0  0  0  0  0  0  0  0  0  0
  149.7298  143.4470  155.9057 H   0  0  0  0  0  0  0  0  0  0  0  0
  150.6613  140.2384  155.0457 H   0  0  0  0  0  0  0  0  0  0  0  0
  150.0064  139.5247  156.4955 H   0  0  0  0  0  0  0  0  0  0  0  0
  148.8395  141.9585  153.8383 H   0  0  0  0  0  0  0  0  0  0  0  0
  149.2272  140.3778  153.1987 H   0  0  0  0  0  0  0  0  0  0  0  0
  147.0919  141.1928  152.2091 H   0  0  0  0  0  0  0  0  0  0  0  0
  146.8515  139.7342  153.1303 H   0  0  0  0  0  0  0  0  0  0  0  0
  147.0275  143.3361  154.3020 H   0  0  0  0  0  0  0  0  0  0  0  0
  146.0148  143.2189  152.8928 H   0  0  0  0  0  0  0  0  0  0  0  0
  145.1731  143.8155  155.7275 H   0  0  0  0  0  0  0  0  0  0  0  0
  145.2684  145.6255  154.0083 H   0  0  0  0  0  0  0  0  0  0  0  0
  143.6207  145.3475  154.5563 H   0  0  0  0  0  0  0  0  0  0  0  0
  144.1438  144.7274  152.9922 H   0  0  0  0  0  0  0  0  0  0  0  0
  143.3230  142.8018  153.8929 H   0  0  0  0  0  0  0  0  0  0  0  0
  145.4077  141.4581  156.0925 H   0  0  0  0  0  0  0  0  0  0  0  0
  145.8187  139.8954  155.4468 H   0  0  0  0  0  0  0  0  0  0  0  0
  147.5346  140.5649  157.0579 H   0  0  0  0  0  0  0  0  0  0  0  0
  147.8251  142.0788  156.2328 H   0  0  0  0  0  0  0  0  0  0  0  0
  153.2824  140.4835  159.6321 H   0  0  0  0  0  0  0  0  0  0  0  0
  154.5552  139.5807  161.4021 H   0  0  0  0  0  0  0  0  0  0  0  0
  154.1023  140.0953  163.0251 H   0  0  0  0  0  0  0  0  0  0  0  0
  155.5184  140.8019  162.2326 H   0  0  0  0  0  0  0  0  0  0  0  0
  145.1949  141.1602  153.6823 H   0  0  0  0  0  0  0  0  0  0  0  0
  148.2799  139.4017  155.1595 H   0  0  0  0  0  0  0  0  0  0  0  0
  1  2  1  0  0  0  0
  1 26  1  0  0  0  0
  1 27  1  0  0  0  0
  1 28  1  0  0  0  0
  2 24  1  0  0  0  0
  2  3  2  0  0  0  0
  3  4  1  0  0  0  0
  3 29  1  0  0  0  0
  4 22  2  0  0  0  0
  4  5  1  0  0  0  0
  5  6  2  0  0  0  0
  6  7  1  0  0  0  0
  6 30  1  0  0  0  0
  7  8  1  0  0  0  0
  7 22  1  0  0  0  0
  8  9  1  0  0  0  0
  8 31  1  0  0  0  0
  8 32  1  0  0  0  0
  9 10  1  0  0  0  0
  9 11  1  0  0  0  0
  9 33  1  0  0  0  0
 10 34  1  0  0  0  0
 11 12  1  0  0  0  0
 11 35  1  0  0  0  0
 11 36  1  0  0  0  0
 12 21  1  0  0  0  0
 12 13  1  0  0  0  0
 12 57  1  0  0  0  0
 13 14  1  0  0  0  0
 13 37  1  0  0  0  0
 13 38  1  0  0  0  0
 14 15  1  0  0  0  0
 14 39  1  0  0  0  0
 14 40  1  0  0  0  0
 15 16  1  0  0  0  0
 15 20  1  0  0  0  0
 15 56  1  0  0  0  0
 16 17  1  0  0  0  0
 16 41  1  0  0  0  0
 16 42  1  0  0  0  0
 17 18  1  0  0  0  0
 17 19  1  0  0  0  0
 17 43  1  0  0  0  0
 18 44  1  0  0  0  0
 18 45  1  0  0  0  0
 18 46  1  0  0  0  0
 19 47  1  0  0  0  0
 20 21  1  0  0  0  0
 20 48  1  0  0  0  0
 20 49  1  0  0  0  0
 21 50  1  0  0  0  0
 21 51  1  0  0  0  0
 22 23  1  0  0  0  0
 23 24  2  0  0  0  0
 23 52  1  0  0  0  0
 24 25  1  0  0  0  0
 25 53  1  0  0  0  0
 25 54  1  0  0  0  0
 25 55  1  0  0  0  0
M  CHG  1  12   1
M  CHG  1  15   1
M  END
> <s_m_source_file>
AV-unprocessed.smi

> <i_m_source_file_index>
1033

> <i_lp_mmshare_version>
43012

> <i_f3d_flags>
0

> <s_epik_input>
W0NIM11jKFtjSF0xKWMoW0NIM10pW2NIXWMoYzEyKW4oW2NIXW4yKVtDSDJdW0NASF0oW09IXSlbQ0gyXU4zW0NIMl1bQ0gyXU4oW0NIMl1bQ0gyXTMpW0NIMl1bQ0BIXShbQ0gzXSlbT0hd

> <s_epik_cmdline>
J2VwaWtfcHl0aG9uJywgJy1waCcsICc3LjAnLCAnLXRuJywgJzgnLCAnLW1hJywgJzIwMCcsICctbWV0YWxfYmluZGluZycsICctaW1hZScsICc8aW5maWxlLm1hZT4nLCAnLW9tYWUnLCAnPG91dGZpbGUubWFlPic=

> <r_epik_Ionization_Penalty>
3.16016

> <r_epik_Ionization_Penalty_Charging>
3.07679

> <r_epik_Ionization_Penalty_Neutral>
0.083365

> <r_epik_State_Penalty>
2.09701

> <r_epik_Charging_Adjusted_Penalty>
5.1738

> <i_epik_Tot_Q>
2

> <i_epik_Tot_abs_Q>
2

> <r_epik_Metal_State_Penalty>
2.02534

> <b_epik_Metal_Only>
0

> <s_lp_Force_Field>
OPLS_2005

> <r_lp_Energy>
29.7728

> <b_lp_Chiralities_Consistent>
1

> <s_lp_Variant>
AV-unprocessed.smi:1033-24

> <Gold.Version>
5.8.1

> <Gold.Id.Protein>
6NUR|6NUR_protein|mol2

> <Gold.PLP.Fitness>
67.2436

> <Gold.PLP.PLP>
-55.3160

> <Gold.PLP.part.hbond>
-3.4157

> <Gold.PLP.part.metal>
0.0000

> <Gold.PLP.part.buried>
-4.3974

> <Gold.PLP.part.nonpolar>
-45.8975

> <Gold.PLP.part.repulsive>
0.1633

> <Gold.PLP.ligand.clash>
0.0000

> <Gold.PLP.ligand.torsion>
1.3344

> <Gold.PLP.Chemscore.Hbond>
3.9913

> <Gold.PLP.Chemscore.CHOScore>
0.8115

> <Gold.PLP.Chemscore.Metal>
0.0000

> <Gold.Chemscore.Hbonds>
donor molecule, donor type, donor heavy atom, donor atom, acceptor molecule, acceptor atom, score
      L1  H    10    34       P1  8028  1.00
      L1  H    15    56       P1 10175  1.98
      L1  H    19    47       P1 10174  1.00
      L1  C     6    30       P1  8028  0.83

> <Gold.PLP.Chemscore.Internal.Correction>
0.1881

> <Gold.Rescore>
     Score         DG    S(hbond)    S(metal)    S(lipo)     H(rot)  DE(clash)    DE(int)     intcor
     18.48     -20.72       2.15        0.00     137.41       3.14       0.00       2.23       ----

> <Gold.Chemscore.Fitness>
18.4842

> <Gold.Chemscore.DG>
-20.7187

> <Gold.Chemscore.ZeroCoef>
-5.4800

> <Gold.Chemscore.Hbond>
2.1540

> <Gold.Chemscore.Metal>
0.0000

> <Gold.Chemscore.Lipo>
137.4148

> <Gold.Chemscore.Internal_Hbond>
0.0000

> <Gold.Chemscore.DEClash>
0.0029

> <Gold.Chemscore.DEInternal>
2.2316

> <Gold.Chemscore.Rot>
3.1380

> <Gold.Chemscore.Internal.Correction>
   9.000000E+99

> <Gold.Chemscore.Hbonds>
donor molecule, donor type, donor heavy atom, donor atom, acceptor molecule, acceptor atom, score
      L1  H    10    34       P1  8028  0.91
      L1  H    15    56       P1 10175  0.51
      L1  H    19    47       P1 10174  0.35

> <Gold.Chemscore.Hbond.Weighted>
-7.1943

> <Gold.Chemscore.Metal.Weighted>
-0.0000

> <Gold.Chemscore.Lipo.Weighted>
-16.0775

> <Gold.Chemscore.Internal_Hbond.Weighted>
0.0000

> <Gold.Chemscore.DEClash.Weighted>
0.0029

> <Gold.Chemscore.DEInternal.Weighted>
2.2316

> <Gold.Chemscore.Rot.Weighted>
8.0332

> <Gold.Chemscore.Internal.Correction.Weighted>
   9.000000E+99

> <Gold.Protein.RotatedTorsions>
[ 6907 6896 6895 6894 ] final  -96.21 input  -60.11 | X-H torsion
[ 7974 7965 7964 7962 ] final  -85.89 input  175.53 | X-H torsion
[ 8008 7997 7996 7995 ] final  -38.02 input   59.86 | X-H torsion
[ 10167 10162 10161 10158 ] final  139.10 input  -65.29 | X-H torsion
[ 10718 10713 10712 10709 ] final  -41.77 input   66.30 | X-H torsion
[ 10763 10752 10751 10750 ] final  -37.78 input  -60.55 | X-H torsion
[ 11005 11000 10999 10996 ] final  -71.75 input  -57.11 | X-H torsion

> <Gold.Protein.ActiveResidues>
 VAL166  LYS551  ARG553  GLY616  TRP617  ASP618  TYR619  PRO620  LYS621  CYS622 
 ASP623  PHE694  ASN695  SER759  ASP760  ASP761  ALA762  ILE779  LEU786  VAL792 
 PHE793  MET794  SER795  GLU796  ALA797  LYS798  CYS799  TRP800  GLU811  SER814 

> <Gold.Protein.RotatedAtoms>
  150.6983  134.1538  159.4149 H   0  0  0  0  0  0  0  0  0  0  0  0  # atno 6907 bound_to 6896
  151.9520  135.0162  160.0552 H   0  0  0  0  0  0  0  0  0  0  0  0  # atno 6908 bound_to 6896
  152.2003  133.4801  159.5091 H   0  0  0  0  0  0  0  0  0  0  0  0  # atno 6909 bound_to 6896
  145.4872  140.9554  143.1832 H   0  0  0  0  0  0  0  0  0  0  0  0  # atno 7974 bound_to 7965
  154.4043  140.1589  156.2632 H   0  0  0  0  0  0  0  0  0  0  0  0  # atno 8008 bound_to 7997
  155.9018  140.3432  155.6010 H   0  0  0  0  0  0  0  0  0  0  0  0  # atno 8009 bound_to 7997
  155.7439  140.0796  157.2224 H   0  0  0  0  0  0  0  0  0  0  0  0  # atno 8010 bound_to 7997
  139.5089  144.6315  151.5806 H   0  0  0  0  0  0  0  0  0  0  0  0  # atno 10167 bound_to 10162
  156.2668  130.4202  149.8482 H   0  0  0  0  0  0  0  0  0  0  0  0  # atno 10718 bound_to 10713
  153.9020  135.6801  153.4755 H   0  0  0  0  0  0  0  0  0  0  0  0  # atno 10763 bound_to 10752
  153.1124  135.4777  154.9056 H   0  0  0  0  0  0  0  0  0  0  0  0  # atno 10764 bound_to 10752
  154.7570  135.3200  154.8404 H   0  0  0  0  0  0  0  0  0  0  0  0  # atno 10765 bound_to 10752
  141.1597  133.6826  156.6953 H   0  0  0  0  0  0  0  0  0  0  0  0  # atno 11005 bound_to 11000
  144.7854  139.6437  143.7136 LP  0  0  0  0  0  0  0  0  0  0  0  0  # atno 17320 bound_to 7965
  146.2306  139.5806  142.9558 LP  0  0  0  0  0  0  0  0  0  0  0  0  # atno 17321 bound_to 7965
  140.6049  143.9543  150.6412 LP  0  0  0  0  0  0  0  0  0  0  0  0  # atno 17342 bound_to 10162
  140.2766  143.3418  152.1189 LP  0  0  0  0  0  0  0  0  0  0  0  0  # atno 17343 bound_to 10162
  156.5977  130.8533  151.3424 LP  0  0  0  0  0  0  0  0  0  0  0  0  # atno 17370 bound_to 10713
  157.7270  130.9637  150.1680 LP  0  0  0  0  0  0  0  0  0  0  0  0  # atno 17371 bound_to 10713
  140.2999  134.8172  157.4089 LP  0  0  0  0  0  0  0  0  0  0  0  0  # atno 17394 bound_to 11000
  140.1271  134.5144  155.8136 LP  0  0  0  0  0  0  0  0  0  0  0  0  # atno 17395 bound_to 11000

$$$$
