AV-unprocessed.smi:79|AV-procd|sdf|781|dock8
  -GOLD-   2262017143D 1   1.00000     0.00000
 Structure written by MMmdl.
 56 59  0  0  0  0  0  0  0  0  2 V2000
  144.1114  132.5004  149.7314 C   0  0  0  0  0  0  0  0  0  0  0  0
  144.6457  133.5035  150.7622 C   0  0  2  0  0  0  0  0  0  0  0  0
  144.1146  134.7746  150.4448 O   0  0  0  0  0  0  0  0  0  0  0  0
  146.1867  133.5715  150.7455 C   0  0  0  0  0  0  0  0  0  0  0  0
  146.7702  133.9002  152.0720 N   0  3  2  0  0  0  0  0  0  0  0  0
  147.2855  132.6978  152.7714 C   0  0  0  0  0  0  0  0  0  0  0  0
  147.9684  133.0816  154.0922 C   0  0  0  0  0  0  0  0  0  0  0  0
  147.0796  133.8782  154.9331 N   0  0  0  0  0  0  0  0  0  0  0  0
  147.6126  134.0891  156.1578 C   0  0  0  0  0  0  0  0  0  0  0  0
  148.8441  134.6518  156.2757 N   0  0  0  0  0  0  0  0  0  0  0  0
  149.3595  134.8745  157.4890 C   0  0  0  0  0  0  0  0  0  0  0  0
  148.8224  134.6185  158.6843 N   0  0  0  0  0  0  0  0  0  0  0  0
  147.5869  134.0525  158.5637 C   0  0  0  0  0  0  0  0  0  0  0  0
  146.9149  133.7538  157.3467 C   0  0  0  0  0  0  0  0  0  0  0  0
  145.6751  133.1870  157.6099 N   0  0  0  0  0  0  0  0  0  0  0  0
  145.6157  133.1532  158.9140 C   0  0  0  0  0  0  0  0  0  0  0  0
  146.7236  133.6473  159.5671 N   0  0  0  0  0  0  0  0  0  0  0  0
  146.9219  133.7377  161.0057 C   0  0  0  0  0  0  0  0  0  0  0  0
  146.5911  135.1209  161.5959 C   0  0  0  0  0  0  0  0  0  0  0  0
  145.0692  135.2053  161.8304 C   0  0  0  0  0  0  0  0  0  0  0  0
  144.6341  134.3552  162.8730 O   0  0  0  0  0  0  0  0  0  0  0  0
  147.4853  135.5527  162.7670 C   0  0  0  0  0  0  0  0  0  0  0  0
  147.8203  136.8040  162.1271 O   0  0  0  0  0  0  0  0  0  0  0  0
  147.2317  136.3283  160.8963 C   0  0  0  0  0  0  0  0  0  0  0  0
  146.5260  135.0693  154.2783 C   0  0  2  0  0  0  0  0  0  0  0  0
  145.5221  135.8298  155.1690 C   0  0  0  0  0  0  0  0  0  0  0  0
  145.8536  134.6789  152.9451 C   0  0  0  0  0  0  0  0  0  0  0  0
  144.4737  131.4936  149.9421 H   0  0  0  0  0  0  0  0  0  0  0  0
  144.4254  132.7614  148.7200 H   0  0  0  0  0  0  0  0  0  0  0  0
  143.0214  132.4654  149.7434 H   0  0  0  0  0  0  0  0  0  0  0  0
  144.2754  133.2108  151.7438 H   0  0  0  0  0  0  0  0  0  0  0  0
  143.2390  134.6677  150.1062 H   0  0  0  0  0  0  0  0  0  0  0  0
  146.6058  132.6258  150.3981 H   0  0  0  0  0  0  0  0  0  0  0  0
  146.4897  134.3221  150.0134 H   0  0  0  0  0  0  0  0  0  0  0  0
  146.4620  132.0076  152.9625 H   0  0  0  0  0  0  0  0  0  0  0  0
  148.0004  132.1743  152.1356 H   0  0  0  0  0  0  0  0  0  0  0  0
  148.2716  132.1790  154.6249 H   0  0  0  0  0  0  0  0  0  0  0  0
  148.8769  133.6481  153.8819 H   0  0  0  0  0  0  0  0  0  0  0  0
  150.3412  135.3248  157.5049 H   0  0  0  0  0  0  0  0  0  0  0  0
  144.7534  132.7663  159.4371 H   0  0  0  0  0  0  0  0  0  0  0  0
  146.3225  132.9638  161.4869 H   0  0  0  0  0  0  0  0  0  0  0  0
  147.9602  133.4737  161.2111 H   0  0  0  0  0  0  0  0  0  0  0  0
  144.7677  136.2182  162.0968 H   0  0  0  0  0  0  0  0  0  0  0  0
  144.5215  134.9386  160.9261 H   0  0  0  0  0  0  0  0  0  0  0  0
  144.2168  133.5986  162.4902 H   0  0  0  0  0  0  0  0  0  0  0  0
  146.9580  135.6902  163.7116 H   0  0  0  0  0  0  0  0  0  0  0  0
  148.3664  134.9248  162.9075 H   0  0  0  0  0  0  0  0  0  0  0  0
  147.9962  136.0669  160.1640 H   0  0  0  0  0  0  0  0  0  0  0  0
  146.5146  137.0326  160.4733 H   0  0  0  0  0  0  0  0  0  0  0  0
  147.3556  135.7413  154.0521 H   0  0  0  0  0  0  0  0  0  0  0  0
  145.0947  136.6799  154.6363 H   0  0  0  0  0  0  0  0  0  0  0  0
  145.9923  136.2252  156.0697 H   0  0  0  0  0  0  0  0  0  0  0  0
  144.6988  135.1848  155.4778 H   0  0  0  0  0  0  0  0  0  0  0  0
  145.5237  135.5831  152.4354 H   0  0  0  0  0  0  0  0  0  0  0  0
  144.9594  134.0846  153.1414 H   0  0  0  0  0  0  0  0  0  0  0  0
  147.5752  134.4832  151.8942 H   0  0  0  0  0  0  0  0  0  0  0  0
  1  2  1  0  0  0  0
  1 28  1  0  0  0  0
  1 29  1  0  0  0  0
  1 30  1  0  0  0  0
  2  3  1  0  0  0  0
  2  4  1  0  0  0  0
  2 31  1  0  0  0  0
  3 32  1  0  0  0  0
  4  5  1  0  0  0  0
  4 33  1  0  0  0  0
  4 34  1  0  0  0  0
  5 27  1  0  0  0  0
  5  6  1  0  0  0  0
  5 56  1  0  0  0  0
  6  7  1  0  0  0  0
  6 35  1  0  0  0  0
  6 36  1  0  0  0  0
  7  8  1  0  0  0  0
  7 37  1  0  0  0  0
  7 38  1  0  0  0  0
  8  9  1  0  0  0  0
  8 25  1  0  0  0  0
  9 14  1  0  0  0  0
  9 10  2  0  0  0  0
 10 11  1  0  0  0  0
 11 12  2  0  0  0  0
 11 39  1  0  0  0  0
 12 13  1  0  0  0  0
 13 17  1  0  0  0  0
 13 14  2  0  0  0  0
 14 15  1  0  0  0  0
 15 16  2  0  0  0  0
 16 17  1  0  0  0  0
 16 40  1  0  0  0  0
 17 18  1  0  0  0  0
 18 19  1  0  0  0  0
 18 41  1  0  0  0  0
 18 42  1  0  0  0  0
 19 24  1  0  0  0  0
 19 20  1  0  0  0  0
 19 22  1  0  0  0  0
 20 21  1  0  0  0  0
 20 43  1  0  0  0  0
 20 44  1  0  0  0  0
 21 45  1  0  0  0  0
 22 23  1  0  0  0  0
 22 46  1  0  0  0  0
 22 47  1  0  0  0  0
 23 24  1  0  0  0  0
 24 48  1  0  0  0  0
 24 49  1  0  0  0  0
 25 26  1  0  0  0  0
 25 27  1  0  0  0  0
 25 50  1  0  0  0  0
 26 51  1  0  0  0  0
 26 52  1  0  0  0  0
 26 53  1  0  0  0  0
 27 54  1  0  0  0  0
 27 55  1  0  0  0  0
M  CHG  1   5   1
M  END
> <s_m_source_file>
AV-unprocessed.smi

> <i_m_source_file_index>
79

> <i_lp_mmshare_version>
43012

> <i_f3d_flags>
0

> <s_epik_input>
W0NIM11bQ0BIXShbT0hdKVtDSDJdTjFbQ0gyXVtDSDJdTihbQ0BASF0oW0NIM10pW0NIMl0xKWMobltjSF1uMiljKGMyMyluW2NIXW4zW0NIMl1DNChbQ0gyXVtPSF0pW0NIMl1PW0NIMl00

> <s_epik_cmdline>
J2VwaWtfcHl0aG9uJywgJy1waCcsICc3LjAnLCAnLXRuJywgJzgnLCAnLW1hJywgJzIwMCcsICctbWV0YWxfYmluZGluZycsICctaW1hZScsICc8aW5maWxlLm1hZT4nLCAnLW9tYWUnLCAnPG91dGZpbGUubWFlPic=

> <r_lp_tautomer_probability>
1

> <r_epik_Ionization_Penalty>
0.00515943

> <r_epik_Ionization_Penalty_Charging>
0.00509693

> <r_epik_Ionization_Penalty_Neutral>
6.25007e-05

> <r_epik_State_Penalty>
-0

> <r_epik_Charging_Adjusted_Penalty>
0.00509693

> <i_epik_Tot_Q>
1

> <i_epik_Tot_abs_Q>
1

> <r_epik_Metal_State_Penalty>
-0

> <b_epik_Metal_Only>
0

> <s_lp_Force_Field>
OPLS_2005

> <r_lp_Energy>
51.6894

> <b_lp_Chiralities_Consistent>
1

> <s_lp_Variant>
AV-unprocessed.smi:79-5

> <Gold.Version>
5.8.1

> <Gold.Id.Protein>
6NUR|6NUR_protein|mol2

> <Gold.PLP.Fitness>
46.9607

> <Gold.PLP.PLP>
-35.9195

> <Gold.PLP.part.hbond>
-5.1750

> <Gold.PLP.part.metal>
0.0000

> <Gold.PLP.part.buried>
-6.9217

> <Gold.PLP.part.nonpolar>
-24.3326

> <Gold.PLP.part.repulsive>
0.1085

> <Gold.PLP.ligand.clash>
0.0000

> <Gold.PLP.ligand.torsion>
2.0023

> <Gold.PLP.Chemscore.Hbond>
4.7963

> <Gold.PLP.Chemscore.CHOScore>
0.0000

> <Gold.PLP.Chemscore.Metal>
0.0000

> <Gold.Chemscore.Hbonds>
donor molecule, donor type, donor heavy atom, donor atom, acceptor molecule, acceptor atom, score
      L1  H     3    32       P1 10186  0.32
      L1  H     5    56       P1  7948  1.30
      P1  H  6896  6908       L1    12  0.55
      P1  H  6931  6943       L1    23  1.00

> <Gold.PLP.Chemscore.Internal.Correction>
0.6571

> <Gold.Rescore>
     Score         DG    S(hbond)    S(metal)    S(lipo)     H(rot)  DE(clash)    DE(int)     intcor
     12.61     -14.49       2.84        0.00      77.47       3.72       0.01       1.87       ----

> <Gold.Chemscore.Fitness>
12.6122

> <Gold.Chemscore.DG>
-14.4883

> <Gold.Chemscore.ZeroCoef>
-5.4800

> <Gold.Chemscore.Hbond>
2.8366

> <Gold.Chemscore.Metal>
0.0000

> <Gold.Chemscore.Lipo>
77.4696

> <Gold.Chemscore.Internal_Hbond>
0.0000

> <Gold.Chemscore.DEClash>
0.0095

> <Gold.Chemscore.DEInternal>
1.8667

> <Gold.Chemscore.Rot>
3.7226

> <Gold.Chemscore.Internal.Correction>
   9.000000E+99

> <Gold.Chemscore.Hbonds>
donor molecule, donor type, donor heavy atom, donor atom, acceptor molecule, acceptor atom, score
      L1  H     3    32       P1 10186  0.25
      L1  H     5    56       P1  7948  0.26
      P1  H  6896  6908       L1    12  0.03
      P1  H  6931  6943       L1    23  0.90

> <Gold.Chemscore.Hbond.Weighted>
-9.4742

> <Gold.Chemscore.Metal.Weighted>
-0.0000

> <Gold.Chemscore.Lipo.Weighted>
-9.0639

> <Gold.Chemscore.Internal_Hbond.Weighted>
0.0000

> <Gold.Chemscore.DEClash.Weighted>
0.0095

> <Gold.Chemscore.DEInternal.Weighted>
1.8667

> <Gold.Chemscore.Rot.Weighted>
9.5298

> <Gold.Chemscore.Internal.Correction.Weighted>
   9.000000E+99

> <Gold.Protein.RotatedTorsions>
[ 6907 6896 6895 6894 ] final  161.29 input  -60.11 | X-H torsion
[ 7974 7965 7964 7962 ] final -100.20 input  175.53 | X-H torsion
[ 8008 7997 7996 7995 ] final   -7.86 input   59.86 | X-H torsion
[ 10167 10162 10161 10158 ] final -148.64 input  -65.29 | X-H torsion
[ 10718 10713 10712 10709 ] final  -21.07 input   66.30 | X-H torsion
[ 10763 10752 10751 10750 ] final   96.91 input  -60.55 | X-H torsion
[ 11005 11000 10999 10996 ] final   92.67 input  -57.11 | X-H torsion

> <Gold.Protein.ActiveResidues>
 VAL166  LYS551  ARG553  GLY616  TRP617  ASP618  TYR619  PRO620  LYS621  CYS622 
 ASP623  PHE694  ASN695  SER759  ASP760  ASP761  ALA762  ILE779  LEU786  VAL792 
 PHE793  MET794  SER795  GLU796  ALA797  LYS798  CYS799  TRP800  GLU811  SER814 

> <Gold.Protein.RotatedAtoms>
  151.9578  133.3686  159.4023 H   0  0  0  0  0  0  0  0  0  0  0  0  # atno 6907 bound_to 6896
  150.6969  134.4272  159.5241 H   0  0  0  0  0  0  0  0  0  0  0  0  # atno 6908 bound_to 6896
  152.1956  134.8633  160.0564 H   0  0  0  0  0  0  0  0  0  0  0  0  # atno 6909 bound_to 6896
  145.2977  140.9369  143.2841 H   0  0  0  0  0  0  0  0  0  0  0  0  # atno 7974 bound_to 7965
  154.5797  140.2396  155.8071 H   0  0  0  0  0  0  0  0  0  0  0  0  # atno 8008 bound_to 7997
  156.2170  140.3009  155.9818 H   0  0  0  0  0  0  0  0  0  0  0  0  # atno 8009 bound_to 7997
  155.2563  140.0412  157.2983 H   0  0  0  0  0  0  0  0  0  0  0  0  # atno 8010 bound_to 7997
  139.7513  143.8514  152.2587 H   0  0  0  0  0  0  0  0  0  0  0  0  # atno 10167 bound_to 10162
  156.5232  130.4637  149.6586 H   0  0  0  0  0  0  0  0  0  0  0  0  # atno 10718 bound_to 10713
  153.2705  135.4202  155.0983 H   0  0  0  0  0  0  0  0  0  0  0  0  # atno 10763 bound_to 10752
  154.8454  135.3471  154.6250 H   0  0  0  0  0  0  0  0  0  0  0  0  # atno 10764 bound_to 10752
  153.6670  135.7045  153.5216 H   0  0  0  0  0  0  0  0  0  0  0  0  # atno 10765 bound_to 10752
  139.8820  134.8746  156.3606 H   0  0  0  0  0  0  0  0  0  0  0  0  # atno 11005 bound_to 11000
  144.9120  139.4517  143.6582 LP  0  0  0  0  0  0  0  0  0  0  0  0  # atno 17320 bound_to 7965
  146.3163  139.7933  142.8981 LP  0  0  0  0  0  0  0  0  0  0  0  0  # atno 17321 bound_to 7965
  139.8493  144.7172  150.9234 LP  0  0  0  0  0  0  0  0  0  0  0  0  # atno 17342 bound_to 10162
  140.7798  143.3913  151.1305 LP  0  0  0  0  0  0  0  0  0  0  0  0  # atno 17343 bound_to 10162
  156.3130  130.7239  151.2136 LP  0  0  0  0  0  0  0  0  0  0  0  0  # atno 17370 bound_to 10713
  157.7433  131.0476  150.4953 LP  0  0  0  0  0  0  0  0  0  0  0  0  # atno 17371 bound_to 10713
  140.9532  133.7437  156.0300 LP  0  0  0  0  0  0  0  0  0  0  0  0  # atno 17394 bound_to 11000
  140.8080  134.3432  157.5420 LP  0  0  0  0  0  0  0  0  0  0  0  0  # atno 17395 bound_to 11000

$$$$
