AV-unprocessed.smi:3241|AV-procd|sdf|12387|dock7
  -GOLD-   2272018253D 1   1.00000     0.00000
 Structure written by MMmdl.
 44 45  0  0  0  0  0  0  0  0  2 V2000
  151.0188  138.5856  154.5514 C   0  0  0  0  0  0  0  0  0  0  0  0
  150.3570  139.9276  154.9032 C   0  0  2  0  0  0  0  0  0  0  0  0
  149.9092  139.9785  156.3776 C   0  0  0  0  0  0  0  0  0  0  0  0
  149.2769  141.3353  156.7268 C   0  0  0  0  0  0  0  0  0  0  0  0
  148.1078  141.6654  155.7863 C   0  0  0  0  0  0  0  0  0  0  0  0
  148.5460  141.6167  154.3131 C   0  0  0  0  0  0  0  0  0  0  0  0
  149.1863  140.2605  153.9521 C   0  0  2  0  0  0  0  0  0  0  0  0
  148.2147  139.2258  154.0536 O   0  0  0  0  0  0  0  0  0  0  0  0
  147.1688  139.3051  153.0983 C   0  0  0  0  0  0  0  0  0  0  0  0
  146.2753  138.0713  153.2566 C   0  0  0  0  0  0  0  0  0  0  0  0
  146.1724  137.3342  151.9824 N   0  3  0  0  0  0  0  0  0  0  0  0
  145.5186  136.0150  152.0917 C   0  0  0  0  0  0  0  0  0  0  0  0
  145.2212  135.4146  150.7080 C   0  0  0  0  0  0  0  0  0  0  0  0
  145.1396  133.9650  150.7386 N   0  0  0  0  0  0  0  0  0  0  0  0
  144.0297  133.1642  150.5708 C   0  0  0  0  0  0  0  0  0  0  0  0
  144.4450  131.8678  150.6783 C   0  0  0  0  0  0  0  0  0  0  0  0
  145.8435  131.9783  150.9161 C   0  0  0  0  0  0  0  0  0  0  0  0
  146.2569  133.2349  150.9482 N   0  0  0  0  0  0  0  0  0  0  0  0
  150.3286  137.7514  154.6818 H   0  0  0  0  0  0  0  0  0  0  0  0
  151.8862  138.3991  155.1851 H   0  0  0  0  0  0  0  0  0  0  0  0
  151.3599  138.5761  153.5160 H   0  0  0  0  0  0  0  0  0  0  0  0
  151.1159  140.6996  154.7672 H   0  0  0  0  0  0  0  0  0  0  0  0
  149.1932  139.1799  156.5767 H   0  0  0  0  0  0  0  0  0  0  0  0
  150.7621  139.7958  157.0324 H   0  0  0  0  0  0  0  0  0  0  0  0
  148.9319  141.3290  157.7610 H   0  0  0  0  0  0  0  0  0  0  0  0
  150.0329  142.1183  156.6581 H   0  0  0  0  0  0  0  0  0  0  0  0
  147.2946  140.9574  155.9516 H   0  0  0  0  0  0  0  0  0  0  0  0
  147.7092  142.6524  156.0229 H   0  0  0  0  0  0  0  0  0  0  0  0
  147.6951  141.8258  153.6652 H   0  0  0  0  0  0  0  0  0  0  0  0
  149.2676  142.4136  154.1292 H   0  0  0  0  0  0  0  0  0  0  0  0
  149.5794  140.3071  152.9346 H   0  0  0  0  0  0  0  0  0  0  0  0
  146.5813  140.2106  153.2525 H   0  0  0  0  0  0  0  0  0  0  0  0
  147.5777  139.3451  152.0875 H   0  0  0  0  0  0  0  0  0  0  0  0
  146.6732  137.4132  154.0303 H   0  0  0  0  0  0  0  0  0  0  0  0
  145.2785  138.3799  153.5743 H   0  0  0  0  0  0  0  0  0  0  0  0
  145.6503  137.8939  151.3230 H   0  0  0  0  0  0  0  0  0  0  0  0
  146.1731  135.3405  152.6451 H   0  0  0  0  0  0  0  0  0  0  0  0
  144.5974  136.1118  152.6678 H   0  0  0  0  0  0  0  0  0  0  0  0
  144.2894  135.8166  150.3068 H   0  0  0  0  0  0  0  0  0  0  0  0
  146.0077  135.6958  150.0069 H   0  0  0  0  0  0  0  0  0  0  0  0
  143.0482  133.5775  150.3907 H   0  0  0  0  0  0  0  0  0  0  0  0
  143.8416  130.9754  150.6008 H   0  0  0  0  0  0  0  0  0  0  0  0
  146.5656  131.1887  151.0638 H   0  0  0  0  0  0  0  0  0  0  0  0
  147.1054  137.2018  151.6181 H   0  0  0  0  0  0  0  0  0  0  0  0
  1  2  1  0  0  0  0
  1 19  1  0  0  0  0
  1 20  1  0  0  0  0
  1 21  1  0  0  0  0
  2  7  1  0  0  0  0
  2  3  1  0  0  0  0
  2 22  1  0  0  0  0
  3  4  1  0  0  0  0
  3 23  1  0  0  0  0
  3 24  1  0  0  0  0
  4  5  1  0  0  0  0
  4 25  1  0  0  0  0
  4 26  1  0  0  0  0
  5  6  1  0  0  0  0
  5 27  1  0  0  0  0
  5 28  1  0  0  0  0
  6  7  1  0  0  0  0
  6 29  1  0  0  0  0
  6 30  1  0  0  0  0
  7  8  1  0  0  0  0
  7 31  1  0  0  0  0
  8  9  1  0  0  0  0
  9 10  1  0  0  0  0
  9 32  1  0  0  0  0
  9 33  1  0  0  0  0
 10 11  1  0  0  0  0
 10 34  1  0  0  0  0
 10 35  1  0  0  0  0
 11 12  1  0  0  0  0
 11 36  1  0  0  0  0
 11 44  1  0  0  0  0
 12 13  1  0  0  0  0
 12 37  1  0  0  0  0
 12 38  1  0  0  0  0
 13 14  1  0  0  0  0
 13 39  1  0  0  0  0
 13 40  1  0  0  0  0
 14 18  1  0  0  0  0
 14 15  1  0  0  0  0
 15 16  2  0  0  0  0
 15 41  1  0  0  0  0
 16 17  1  0  0  0  0
 16 42  1  0  0  0  0
 17 18  2  0  0  0  0
 17 43  1  0  0  0  0
M  CHG  1  11   1
M  END
> <s_m_source_file>
AV-unprocessed.smi

> <i_m_source_file_index>
3241

> <i_lp_mmshare_version>
43012

> <i_f3d_flags>
0

> <s_epik_input>
W0NIM11bQ0BASF0xW0NIMl1bQ0gyXVtDSDJdW0NIMl1bQ0BIXTFPW0NIMl1bQ0gyXVtOSF1bQ0gyXVtDSDJdbjJbY0hdW2NIXVtjSF1uMg==

> <s_epik_cmdline>
J2VwaWtfcHl0aG9uJywgJy1waCcsICc3LjAnLCAnLXRuJywgJzgnLCAnLW1hJywgJzIwMCcsICctbWV0YWxfYmluZGluZycsICctaW1hZScsICc8aW5maWxlLm1hZT4nLCAnLW9tYWUnLCAnPG91dGZpbGUubWFlPic=

> <r_lp_tautomer_probability>
1

> <r_epik_Ionization_Penalty>
0.00924946

> <r_epik_Ionization_Penalty_Charging>
0.00924645

> <r_epik_Ionization_Penalty_Neutral>
3.00629e-06

> <r_epik_State_Penalty>
0.0070118

> <r_epik_Charging_Adjusted_Penalty>
0.0162583

> <i_epik_Tot_Q>
1

> <i_epik_Tot_abs_Q>
1

> <r_epik_Metal_State_Penalty>
0.00702523

> <b_epik_Metal_Only>
0

> <s_lp_Force_Field>
OPLS_2005

> <r_lp_Energy>
14.6648

> <b_lp_Chiralities_Consistent>
1

> <s_lp_Variant>
AV-unprocessed.smi:3241-3

> <Gold.Version>
5.8.1

> <Gold.Id.Protein>
6NUR|6NUR_protein|mol2

> <Gold.PLP.Fitness>
44.5253

> <Gold.PLP.PLP>
-33.7493

> <Gold.PLP.part.hbond>
-1.0000

> <Gold.PLP.part.metal>
0.0000

> <Gold.PLP.part.buried>
-2.4739

> <Gold.PLP.part.nonpolar>
-30.4038

> <Gold.PLP.part.repulsive>
0.3898

> <Gold.PLP.ligand.clash>
0.0000

> <Gold.PLP.ligand.torsion>
0.6845

> <Gold.PLP.Chemscore.Hbond>
2.0000

> <Gold.PLP.Chemscore.CHOScore>
2.0000

> <Gold.PLP.Chemscore.Metal>
0.0000

> <Gold.Chemscore.Hbonds>
donor molecule, donor type, donor heavy atom, donor atom, acceptor molecule, acceptor atom, score
      L1  H    11    44       P1  7948  1.69
      L1  C    15    41       P1 10186  1.00
      L1  C    17    43       P1 10747  0.94

> <Gold.PLP.Chemscore.Internal.Correction>
0.1449

> <Gold.Rescore>
     Score         DG    S(hbond)    S(metal)    S(lipo)     H(rot)  DE(clash)    DE(int)     intcor
     13.81     -14.60       1.00        0.00      90.83       1.89       0.18       0.60       ----

> <Gold.Chemscore.Fitness>
13.8148

> <Gold.Chemscore.DG>
-14.5967

> <Gold.Chemscore.ZeroCoef>
-5.4800

> <Gold.Chemscore.Hbond>
0.9971

> <Gold.Chemscore.Metal>
0.0000

> <Gold.Chemscore.Lipo>
90.8253

> <Gold.Chemscore.Internal_Hbond>
0.0000

> <Gold.Chemscore.DEClash>
0.1800

> <Gold.Chemscore.DEInternal>
0.6020

> <Gold.Chemscore.Rot>
1.8906

> <Gold.Chemscore.Internal.Correction>
   9.000000E+99

> <Gold.Chemscore.Hbonds>
donor molecule, donor type, donor heavy atom, donor atom, acceptor molecule, acceptor atom, score
      L1  H    11    36       P1 10171  0.06
      L1  H    11    44       P1  7948  0.80

> <Gold.Chemscore.Hbond.Weighted>
-3.3302

> <Gold.Chemscore.Metal.Weighted>
-0.0000

> <Gold.Chemscore.Lipo.Weighted>
-10.6266

> <Gold.Chemscore.Internal_Hbond.Weighted>
0.0000

> <Gold.Chemscore.DEClash.Weighted>
0.1800

> <Gold.Chemscore.DEInternal.Weighted>
0.6020

> <Gold.Chemscore.Rot.Weighted>
4.8400

> <Gold.Chemscore.Internal.Correction.Weighted>
   9.000000E+99

> <Gold.Protein.RotatedTorsions>
[ 6907 6896 6895 6894 ] final   95.64 input  -60.11 | X-H torsion
[ 7974 7965 7964 7962 ] final   -1.17 input  175.53 | X-H torsion
[ 8008 7997 7996 7995 ] final  162.30 input   59.86 | X-H torsion
[ 10167 10162 10161 10158 ] final  174.74 input  -65.29 | X-H torsion
[ 10718 10713 10712 10709 ] final   89.84 input   66.30 | X-H torsion
[ 10763 10752 10751 10750 ] final -116.39 input  -60.55 | X-H torsion
[ 11005 11000 10999 10996 ] final  -14.68 input  -57.11 | X-H torsion

> <Gold.Protein.ActiveResidues>
 VAL166  LYS551  ARG553  GLY616  TRP617  ASP618  TYR619  PRO620  LYS621  CYS622 
 ASP623  PHE694  ASN695  SER759  ASP760  ASP761  ALA762  ILE779  LEU786  VAL792 
 PHE793  MET794  SER795  GLU796  ALA797  LYS798  CYS799  TRP800  GLU811  SER814 

> <Gold.Protein.RotatedAtoms>
  152.5442  134.1008  159.8316 H   0  0  0  0  0  0  0  0  0  0  0  0  # atno 6907 bound_to 6896
  151.1086  133.5182  159.2614 H   0  0  0  0  0  0  0  0  0  0  0  0  # atno 6908 bound_to 6896
  151.1910  135.0411  159.8887 H   0  0  0  0  0  0  0  0  0  0  0  0  # atno 6909 bound_to 6896
  146.2420  140.1380  142.8336 H   0  0  0  0  0  0  0  0  0  0  0  0  # atno 7974 bound_to 7965
  156.2041  140.1754  156.7836 H   0  0  0  0  0  0  0  0  0  0  0  0  # atno 8008 bound_to 7997
  154.5631  140.0696  156.8881 H   0  0  0  0  0  0  0  0  0  0  0  0  # atno 8009 bound_to 7997
  155.2810  140.3349  155.4261 H   0  0  0  0  0  0  0  0  0  0  0  0  # atno 8010 bound_to 7997
  139.5152  144.3112  152.0290 H   0  0  0  0  0  0  0  0  0  0  0  0  # atno 10167 bound_to 10162
  157.6957  131.0348  150.3487 H   0  0  0  0  0  0  0  0  0  0  0  0  # atno 10718 bound_to 10713
  154.8517  135.4347  154.1813 H   0  0  0  0  0  0  0  0  0  0  0  0  # atno 10763 bound_to 10752
  153.2903  135.6961  153.7306 H   0  0  0  0  0  0  0  0  0  0  0  0  # atno 10764 bound_to 10752
  153.6475  135.3457  155.3065 H   0  0  0  0  0  0  0  0  0  0  0  0  # atno 10765 bound_to 10752
  140.7889  133.8303  155.9361 H   0  0  0  0  0  0  0  0  0  0  0  0  # atno 11005 bound_to 11000
  145.0270  140.8840  143.5132 LP  0  0  0  0  0  0  0  0  0  0  0  0  # atno 17320 bound_to 7965
  145.1438  139.2556  143.5476 LP  0  0  0  0  0  0  0  0  0  0  0  0  # atno 17321 bound_to 7965
  140.2556  144.4122  150.6205 LP  0  0  0  0  0  0  0  0  0  0  0  0  # atno 17342 bound_to 10162
  140.6194  143.2175  151.6726 LP  0  0  0  0  0  0  0  0  0  0  0  0  # atno 17343 bound_to 10162
  156.3938  130.3903  149.7010 LP  0  0  0  0  0  0  0  0  0  0  0  0  # atno 17370 bound_to 10713
  156.4350  130.7834  151.2854 LP  0  0  0  0  0  0  0  0  0  0  0  0  # atno 17371 bound_to 10713
  140.9409  134.1902  157.4798 LP  0  0  0  0  0  0  0  0  0  0  0  0  # atno 17394 bound_to 11000
  139.8733  134.9871  156.5354 LP  0  0  0  0  0  0  0  0  0  0  0  0  # atno 17395 bound_to 11000

$$$$
