AV-unprocessed.smi:2858|AV-procd|sdf|11002|dock6
  -GOLD-   2272015463D 1   1.00000     0.00000
 Structure written by MMmdl.
 39 40  0  0  0  0  0  0  0  0  3 V2000
  143.3973  139.6748  157.0317 O   0  0  0  0  0  0  0  0  0  0  0  0
  143.6564  140.6852  156.3819 C   0  0  0  0  0  0  0  0  0  0  0  0
  145.1010  140.8097  155.8260 C   0  0  0  0  0  0  0  0  0  0  0  0
  145.1960  141.7893  154.7048 N   0  3  2  0  0  0  0  0  0  0  0  0
  146.5830  141.9753  154.2093 C   0  0  0  0  0  0  0  0  0  0  0  0
  147.3787  140.6599  154.1903 C   0  0  0  0  0  0  0  0  0  0  0  0
  148.8905  140.8929  154.0409 C   0  0  0  0  0  0  0  0  0  0  0  0
  149.3685  141.8971  154.9839 N   0  0  0  0  0  0  0  0  0  0  0  0
  150.2124  141.6568  155.9978 C   0  0  0  0  0  0  0  0  0  0  0  0
  150.6916  140.5465  156.2310 O   0  0  0  0  0  0  0  0  0  0  0  0
  150.4467  142.7720  156.7114 N   0  0  0  0  0  0  0  0  0  0  0  0
  151.2887  142.9287  157.8445 C   0  0  0  0  0  0  0  0  0  0  0  0
  151.5786  144.2671  158.1931 C   0  0  0  0  0  0  0  0  0  0  0  0
  152.4092  144.5305  159.2994 C   0  0  0  0  0  0  0  0  0  0  0  0
  152.9297  143.4471  160.0295 C   0  0  0  0  0  0  0  0  0  0  0  0
  152.5918  142.1454  159.6159 C   0  0  0  0  0  0  0  0  0  0  0  0
  151.7952  141.8906  158.5562 N   0  0  0  0  0  0  0  0  0  0  0  0
  144.5298  143.0758  155.0340 C   0  0  0  0  0  0  0  0  0  0  0  0
  143.0200  142.8585  155.2497 C   0  0  0  0  0  0  0  0  0  0  0  0
  142.7939  141.7233  156.1511 N   0  5  0  0  0  0  0  0  0  0  0  0
  145.7591  141.1124  156.6417 H   0  0  0  0  0  0  0  0  0  0  0  0
  145.4278  139.8247  155.4933 H   0  0  0  0  0  0  0  0  0  0  0  0
  146.5501  142.3601  153.1890 H   0  0  0  0  0  0  0  0  0  0  0  0
  147.0939  142.7311  154.8075 H   0  0  0  0  0  0  0  0  0  0  0  0
  147.2006  140.0942  155.1047 H   0  0  0  0  0  0  0  0  0  0  0  0
  147.0210  140.0394  153.3674 H   0  0  0  0  0  0  0  0  0  0  0  0
  149.4391  139.9591  154.1764 H   0  0  0  0  0  0  0  0  0  0  0  0
  149.1151  141.2411  153.0324 H   0  0  0  0  0  0  0  0  0  0  0  0
  149.0226  142.8378  154.8630 H   0  0  0  0  0  0  0  0  0  0  0  0
  149.9689  143.6077  156.4086 H   0  0  0  0  0  0  0  0  0  0  0  0
  151.1706  145.0878  157.6209 H   0  0  0  0  0  0  0  0  0  0  0  0
  152.6427  145.5465  159.5816 H   0  0  0  0  0  0  0  0  0  0  0  0
  153.5713  143.6091  160.8832 H   0  0  0  0  0  0  0  0  0  0  0  0
  152.9706  141.2859  160.1487 H   0  0  0  0  0  0  0  0  0  0  0  0
  144.9880  143.5064  155.9261 H   0  0  0  0  0  0  0  0  0  0  0  0
  144.6688  143.7955  154.2266 H   0  0  0  0  0  0  0  0  0  0  0  0
  142.5736  143.7770  155.6299 H   0  0  0  0  0  0  0  0  0  0  0  0
  142.5529  142.6799  154.2808 H   0  0  0  0  0  0  0  0  0  0  0  0
  144.6612  141.4034  153.9402 H   0  0  0  0  0  0  0  0  0  0  0  0
  1  2  2  0  0  0  0
  2 20  1  0  0  0  0
  2  3  1  0  0  0  0
  3  4  1  0  0  0  0
  3 21  1  0  0  0  0
  3 22  1  0  0  0  0
  4  5  1  0  0  0  0
  4 18  1  0  0  0  0
  4 39  1  0  0  0  0
  5  6  1  0  0  0  0
  5 23  1  0  0  0  0
  5 24  1  0  0  0  0
  6  7  1  0  0  0  0
  6 25  1  0  0  0  0
  6 26  1  0  0  0  0
  7  8  1  0  0  0  0
  7 27  1  0  0  0  0
  7 28  1  0  0  0  0
  8  9  1  0  0  0  0
  8 29  1  0  0  0  0
  9 10  2  0  0  0  0
  9 11  1  0  0  0  0
 11 12  1  0  0  0  0
 11 30  1  0  0  0  0
 12 17  1  0  0  0  0
 12 13  2  0  0  0  0
 13 14  1  0  0  0  0
 13 31  1  0  0  0  0
 14 15  2  0  0  0  0
 14 32  1  0  0  0  0
 15 16  1  0  0  0  0
 15 33  1  0  0  0  0
 16 17  2  0  0  0  0
 16 34  1  0  0  0  0
 18 19  1  0  0  0  0
 18 35  1  0  0  0  0
 18 36  1  0  0  0  0
 19 20  1  0  0  0  0
 19 37  1  0  0  0  0
 19 38  1  0  0  0  0
M  CHG  1   4   1
M  CHG  1  20  -1
M  END
> <s_m_source_file>
AV-unprocessed.smi

> <i_m_source_file_index>
2858

> <i_lp_mmshare_version>
43012

> <i_f3d_flags>
0

> <s_epik_input>
Tz1DMVtDSDJdTihbQ0gyXVtDSDJdW05IXTEpW0NIMl1bQ0gyXVtDSDJdW05IXUMoPU8pW05IXWMyW2NIXVtjSF1bY0hdW2NIXW4y

> <s_epik_cmdline>
J2VwaWtfcHl0aG9uJywgJy1waCcsICc3LjAnLCAnLXRuJywgJzgnLCAnLW1hJywgJzIwMCcsICctbWV0YWxfYmluZGluZycsICctaW1hZScsICc8aW5maWxlLm1hZT4nLCAnLW9tYWUnLCAnPG91dGZpbGUubWFlPic=

> <r_epik_Ionization_Penalty>
5.09835

> <r_epik_Ionization_Penalty_Charging>
5.09831

> <r_epik_Ionization_Penalty_Neutral>
4.20822e-05

> <r_epik_State_Penalty>
5.19693

> <r_epik_Charging_Adjusted_Penalty>
10.2952

> <i_epik_Tot_Q>
0

> <i_epik_Tot_abs_Q>
2

> <r_epik_Metal_State_Penalty>
1.27693

> <b_epik_Metal_Only>
1

> <s_lp_Force_Field>
OPLS_2005

> <r_lp_Energy>
13.8629

> <b_lp_Chiralities_Consistent>
1

> <s_lp_Variant>
AV-unprocessed.smi:2858-4

> <Gold.Version>
5.8.1

> <Gold.Id.Protein>
6NUR|6NUR_protein|mol2

> <Gold.PLP.Fitness>
47.9940

> <Gold.PLP.PLP>
-36.7741

> <Gold.PLP.part.hbond>
-3.0000

> <Gold.PLP.part.metal>
0.0000

> <Gold.PLP.part.buried>
-4.0300

> <Gold.PLP.part.nonpolar>
-30.3551

> <Gold.PLP.part.repulsive>
0.4213

> <Gold.PLP.ligand.clash>
0.0000

> <Gold.PLP.ligand.torsion>
0.3044

> <Gold.PLP.Chemscore.Hbond>
3.9280

> <Gold.PLP.Chemscore.CHOScore>
0.0000

> <Gold.PLP.Chemscore.Metal>
0.0000

> <Gold.Chemscore.Hbonds>
donor molecule, donor type, donor heavy atom, donor atom, acceptor molecule, acceptor atom, score
      L1  H     4    39       P1 10175  2.00
      L1  H     8    29       P1  8028  0.94
      L1  H    11    30       P1  8028  1.00

> <Gold.PLP.Chemscore.Internal.Correction>
0.0447

> <Gold.Rescore>
     Score         DG    S(hbond)    S(metal)    S(lipo)     H(rot)  DE(clash)    DE(int)     intcor
     17.05     -18.67       2.80        0.00      77.05       2.02       0.20       1.42       ----

> <Gold.Chemscore.Fitness>
17.0501

> <Gold.Chemscore.DG>
-18.6707

> <Gold.Chemscore.ZeroCoef>
-5.4800

> <Gold.Chemscore.Hbond>
2.7994

> <Gold.Chemscore.Metal>
0.0000

> <Gold.Chemscore.Lipo>
77.0534

> <Gold.Chemscore.Internal_Hbond>
0.0000

> <Gold.Chemscore.DEClash>
0.1978

> <Gold.Chemscore.DEInternal>
1.4228

> <Gold.Chemscore.Rot>
2.0213

> <Gold.Chemscore.Internal.Correction>
   9.000000E+99

> <Gold.Chemscore.Hbonds>
donor molecule, donor type, donor heavy atom, donor atom, acceptor molecule, acceptor atom, score
      L1  H     4    39       P1 10175  0.34
      L1  H     8    29       P1  8028  0.85
      L1  H    11    30       P1  8028  1.00

> <Gold.Chemscore.Hbond.Weighted>
-9.3498

> <Gold.Chemscore.Metal.Weighted>
-0.0000

> <Gold.Chemscore.Lipo.Weighted>
-9.0152

> <Gold.Chemscore.Internal_Hbond.Weighted>
0.0000

> <Gold.Chemscore.DEClash.Weighted>
0.1978

> <Gold.Chemscore.DEInternal.Weighted>
1.4228

> <Gold.Chemscore.Rot.Weighted>
5.1744

> <Gold.Chemscore.Internal.Correction.Weighted>
   9.000000E+99

> <Gold.Protein.RotatedTorsions>
[ 6907 6896 6895 6894 ] final -113.79 input  -60.11 | X-H torsion
[ 7974 7965 7964 7962 ] final -165.09 input  175.53 | X-H torsion
[ 8008 7997 7996 7995 ] final  -59.28 input   59.86 | X-H torsion
[ 10167 10162 10161 10158 ] final  -11.77 input  -65.29 | X-H torsion
[ 10718 10713 10712 10709 ] final  -34.03 input   66.30 | X-H torsion
[ 10763 10752 10751 10750 ] final -110.32 input  -60.55 | X-H torsion
[ 11005 11000 10999 10996 ] final   24.78 input  -57.11 | X-H torsion

> <Gold.Protein.ActiveResidues>
 VAL166  LYS551  ARG553  GLY616  TRP617  ASP618  TYR619  PRO620  LYS621  CYS622 
 ASP623  PHE694  ASN695  SER759  ASP760  ASP761  ALA762  ILE779  LEU786  VAL792 
 PHE793  MET794  SER795  GLU796  ALA797  LYS798  CYS799  TRP800  GLU811  SER814 

> <Gold.Protein.RotatedAtoms>
  150.7855  133.8894  159.3308 H   0  0  0  0  0  0  0  0  0  0  0  0  # atno 6907 bound_to 6896
  151.6746  135.0969  160.0214 H   0  0  0  0  0  0  0  0  0  0  0  0  # atno 6908 bound_to 6896
  152.3917  133.6650  159.6278 H   0  0  0  0  0  0  0  0  0  0  0  0  # atno 6909 bound_to 6896
  144.7279  140.2865  143.6227 H   0  0  0  0  0  0  0  0  0  0  0  0  # atno 7974 bound_to 7965
  154.4345  140.1065  156.6091 H   0  0  0  0  0  0  0  0  0  0  0  0  # atno 8008 bound_to 7997
  155.5829  140.3491  155.4526 H   0  0  0  0  0  0  0  0  0  0  0  0  # atno 8009 bound_to 7997
  156.0305  140.1259  157.0252 H   0  0  0  0  0  0  0  0  0  0  0  0  # atno 8010 bound_to 7997
  140.7146  143.5604  150.9202 H   0  0  0  0  0  0  0  0  0  0  0  0  # atno 10167 bound_to 10162
  156.3555  130.4315  149.7668 H   0  0  0  0  0  0  0  0  0  0  0  0  # atno 10718 bound_to 10713
  154.8242  135.4568  154.0867 H   0  0  0  0  0  0  0  0  0  0  0  0  # atno 10763 bound_to 10752
  153.2196  135.6892  153.8022 H   0  0  0  0  0  0  0  0  0  0  0  0  # atno 10764 bound_to 10752
  153.7444  135.3307  155.3286 H   0  0  0  0  0  0  0  0  0  0  0  0  # atno 10765 bound_to 10752
  140.3550  134.2188  155.7676 H   0  0  0  0  0  0  0  0  0  0  0  0  # atno 11005 bound_to 11000
  145.7897  139.1922  143.2110 LP  0  0  0  0  0  0  0  0  0  0  0  0  # atno 17320 bound_to 7965
  146.0766  140.7811  142.9662 LP  0  0  0  0  0  0  0  0  0  0  0  0  # atno 17321 bound_to 7965
  139.9329  143.6472  152.3072 LP  0  0  0  0  0  0  0  0  0  0  0  0  # atno 17342 bound_to 10162
  139.6929  144.7645  151.1407 LP  0  0  0  0  0  0  0  0  0  0  0  0  # atno 17343 bound_to 10162
  156.4852  130.8059  151.3072 LP  0  0  0  0  0  0  0  0  0  0  0  0  # atno 17370 bound_to 10713
  157.7467  130.9993  150.2884 LP  0  0  0  0  0  0  0  0  0  0  0  0  # atno 17371 bound_to 10713
  141.2001  133.7995  157.0505 LP  0  0  0  0  0  0  0  0  0  0  0  0  # atno 17394 bound_to 11000
  140.0673  134.9722  157.1407 LP  0  0  0  0  0  0  0  0  0  0  0  0  # atno 17395 bound_to 11000

$$$$
