AV-unprocessed.smi:1473|AV-procd|sdf|5971|dock9
  -GOLD-   22720 6 63D 1   1.00000     0.00000
 Structure written by MMmdl.
 32 33  0  0  0  0  0  0  0  0  3 V2000
  153.3855  136.0814  157.2421 N   0  5  0  0  0  0  0  0  0  0  0  0
  154.0193  135.8235  158.7106 S   0  0  0  0  0  0  0  0  0  0  0  0
  153.9258  134.3941  159.0447 O   0  0  0  0  0  0  0  0  0  0  0  0
  155.3679  136.4066  158.8238 O   0  0  0  0  0  0  0  0  0  0  0  0
  152.8940  136.6607  159.5440 N   0  5  0  0  0  0  0  0  0  0  0  0
  152.2732  137.8730  159.0161 C   0  0  0  0  0  0  0  0  0  0  0  0
  152.9051  139.1263  159.6052 C   0  0  0  0  0  0  0  0  0  0  0  0
  154.0452  139.0395  160.4339 C   0  0  0  0  0  0  0  0  0  0  0  0
  154.5831  140.2289  160.9576 C   0  0  0  0  0  0  0  0  0  0  0  0
  154.0707  141.4506  160.7033 N   0  0  0  0  0  0  0  0  0  0  0  0
  152.9790  141.5497  159.9050 C   0  0  0  0  0  0  0  0  0  0  0  0
  152.4565  142.8355  159.6449 N   0  0  0  0  0  0  0  0  0  0  0  0
  152.3073  143.7034  160.8103 C   0  0  0  0  0  0  0  0  0  0  0  0
  152.0282  145.1506  160.3689 C   0  0  0  0  0  0  0  0  0  0  0  0
  150.8971  145.1837  159.5047 O   0  0  0  0  0  0  0  0  0  0  0  0
  151.1131  144.4204  158.3224 C   0  0  0  0  0  0  0  0  0  0  0  0
  151.3525  142.9475  158.6937 C   0  0  0  0  0  0  0  0  0  0  0  0
  152.3645  140.4060  159.3409 C   0  0  0  0  0  0  0  0  0  0  0  0
  152.3668  136.1622  157.3426 H   0  0  0  0  0  0  0  0  0  0  0  0
  152.3614  137.9327  157.9304 H   0  0  0  0  0  0  0  0  0  0  0  0
  151.2025  137.9060  159.2226 H   0  0  0  0  0  0  0  0  0  0  0  0
  154.5023  138.0902  160.6782 H   0  0  0  0  0  0  0  0  0  0  0  0
  155.4518  140.1986  161.5984 H   0  0  0  0  0  0  0  0  0  0  0  0
  151.4814  143.3339  161.4194 H   0  0  0  0  0  0  0  0  0  0  0  0
  153.1950  143.6913  161.4408 H   0  0  0  0  0  0  0  0  0  0  0  0
  151.8277  145.7755  161.2394 H   0  0  0  0  0  0  0  0  0  0  0  0
  152.8970  145.5769  159.8649 H   0  0  0  0  0  0  0  0  0  0  0  0
  150.2380  144.5074  157.6784 H   0  0  0  0  0  0  0  0  0  0  0  0
  151.9600  144.8241  157.7652 H   0  0  0  0  0  0  0  0  0  0  0  0
  151.5736  142.3784  157.7897 H   0  0  0  0  0  0  0  0  0  0  0  0
  150.4501  142.5228  159.1357 H   0  0  0  0  0  0  0  0  0  0  0  0
  151.4789  140.5099  158.7287 H   0  0  0  0  0  0  0  0  0  0  0  0
  1  2  1  0  0  0  0
  1 19  1  0  0  0  0
  2  3  2  0  0  0  0
  2  4  2  0  0  0  0
  2  5  1  0  0  0  0
  5  6  1  0  0  0  0
  6  7  1  0  0  0  0
  6 20  1  0  0  0  0
  6 21  1  0  0  0  0
  7 18  1  0  0  0  0
  7  8  2  0  0  0  0
  8  9  1  0  0  0  0
  8 22  1  0  0  0  0
  9 10  2  0  0  0  0
  9 23  1  0  0  0  0
 10 11  1  0  0  0  0
 11 12  1  0  0  0  0
 11 18  2  0  0  0  0
 12 17  1  0  0  0  0
 12 13  1  0  0  0  0
 13 14  1  0  0  0  0
 13 24  1  0  0  0  0
 13 25  1  0  0  0  0
 14 15  1  0  0  0  0
 14 26  1  0  0  0  0
 14 27  1  0  0  0  0
 15 16  1  0  0  0  0
 16 17  1  0  0  0  0
 16 28  1  0  0  0  0
 16 29  1  0  0  0  0
 17 30  1  0  0  0  0
 17 31  1  0  0  0  0
 18 32  1  0  0  0  0
M  CHG  1   1  -1
M  CHG  1   5  -1
M  END
> <s_m_source_file>
AV-unprocessed.smi

> <i_m_source_file_index>
1473

> <i_lp_mmshare_version>
43012

> <i_f3d_flags>
0

> <s_epik_input>
W05IMl1TKD1PKSg9TylbTkhdW0NIMl1jMVtjSF1bY0hdbmMoW2NIXTEpTjJbQ0gyXVtDSDJdT1tDSDJdW0NIMl0y

> <s_epik_cmdline>
J2VwaWtfcHl0aG9uJywgJy1waCcsICc3LjAnLCAnLXRuJywgJzgnLCAnLW1hJywgJzIwMCcsICctbWV0YWxfYmluZGluZycsICctaW1hZScsICc8aW5maWxlLm1hZT4nLCAnLW9tYWUnLCAnPG91dGZpbGUubWFlPic=

> <r_lp_tautomer_probability>
1

> <r_epik_Ionization_Penalty>
9.31635

> <r_epik_Ionization_Penalty_Charging>
9.0542

> <r_epik_Ionization_Penalty_Neutral>
0.262148

> <r_epik_State_Penalty>
4.75451

> <r_epik_Charging_Adjusted_Penalty>
13.8087

> <i_epik_Tot_Q>
-2

> <i_epik_Tot_abs_Q>
2

> <r_epik_Metal_State_Penalty>
1.32914

> <b_epik_Metal_Only>
1

> <s_lp_Force_Field>
OPLS_2005

> <r_lp_Energy>
19.9679

> <b_lp_Chiralities_Consistent>
1

> <s_lp_Variant>
AV-unprocessed.smi:1473-6

> <Gold.Version>
5.8.1

> <Gold.Id.Protein>
6NUR|6NUR_protein|mol2

> <Gold.PLP.Fitness>
44.3925

> <Gold.PLP.PLP>
-31.6081

> <Gold.PLP.part.hbond>
-3.0000

> <Gold.PLP.part.metal>
0.0000

> <Gold.PLP.part.buried>
-6.8109

> <Gold.PLP.part.nonpolar>
-23.1507

> <Gold.PLP.part.repulsive>
0.1582

> <Gold.PLP.ligand.clash>
0.0000

> <Gold.PLP.ligand.torsion>
0.9633

> <Gold.PLP.Chemscore.Hbond>
4.4524

> <Gold.PLP.Chemscore.CHOScore>
0.0000

> <Gold.PLP.Chemscore.Metal>
0.0000

> <Gold.Chemscore.Hbonds>
donor molecule, donor type, donor heavy atom, donor atom, acceptor molecule, acceptor atom, score
      P1  H  6896  6908       L1     5  1.50
      P1  H  6896  6909       L1     3  0.42
      P1  H 10752 10765       L1     1  1.72

> <Gold.PLP.Chemscore.Internal.Correction>
1.3536

> <Gold.Rescore>
     Score         DG    S(hbond)    S(metal)    S(lipo)     H(rot)  DE(clash)    DE(int)     intcor
     15.18     -16.17       2.04        0.00      73.95       1.86       0.00       0.99       ----

> <Gold.Chemscore.Fitness>
15.1821

> <Gold.Chemscore.DG>
-16.1733

> <Gold.Chemscore.ZeroCoef>
-5.4800

> <Gold.Chemscore.Hbond>
2.0371

> <Gold.Chemscore.Metal>
0.0000

> <Gold.Chemscore.Lipo>
73.9531

> <Gold.Chemscore.Internal_Hbond>
0.0000

> <Gold.Chemscore.DEClash>
0.0029

> <Gold.Chemscore.DEInternal>
0.9884

> <Gold.Chemscore.Rot>
1.8606

> <Gold.Chemscore.Internal.Correction>
   9.000000E+99

> <Gold.Chemscore.Hbonds>
donor molecule, donor type, donor heavy atom, donor atom, acceptor molecule, acceptor atom, score
      P1  H  6896  6908       L1     5  0.09
      P1  H  6896  6909       L1     3  0.42
      P1  H 10752 10765       L1     1  0.71

> <Gold.Chemscore.Hbond.Weighted>
-6.8039

> <Gold.Chemscore.Metal.Weighted>
-0.0000

> <Gold.Chemscore.Lipo.Weighted>
-8.6525

> <Gold.Chemscore.Internal_Hbond.Weighted>
0.0000

> <Gold.Chemscore.DEClash.Weighted>
0.0029

> <Gold.Chemscore.DEInternal.Weighted>
0.9884

> <Gold.Chemscore.Rot.Weighted>
4.7631

> <Gold.Chemscore.Internal.Correction.Weighted>
   9.000000E+99

> <Gold.Protein.RotatedTorsions>
[ 6907 6896 6895 6894 ] final -104.59 input  -60.11 | X-H torsion
[ 7974 7965 7964 7962 ] final -176.43 input  175.53 | X-H torsion
[ 8008 7997 7996 7995 ] final  -66.70 input   59.86 | X-H torsion
[ 10167 10162 10161 10158 ] final -129.69 input  -65.29 | X-H torsion
[ 10718 10713 10712 10709 ] final -179.27 input   66.30 | X-H torsion
[ 10763 10752 10751 10750 ] final  -93.14 input  -60.55 | X-H torsion
[ 11005 11000 10999 10996 ] final   87.47 input  -57.11 | X-H torsion

> <Gold.Protein.ActiveResidues>
 VAL166  LYS551  ARG553  GLY616  TRP617  ASP618  TYR619  PRO620  LYS621  CYS622 
 ASP623  PHE694  ASN695  SER759  ASP760  ASP761  ALA762  ILE779  LEU786  VAL792 
 PHE793  MET794  SER795  GLU796  ALA797  LYS798  CYS799  TRP800  GLU811  SER814 

> <Gold.Protein.RotatedAtoms>
  150.7295  134.0255  159.3715 H   0  0  0  0  0  0  0  0  0  0  0  0  # atno 6907 bound_to 6896
  151.8221  135.0646  160.0436 H   0  0  0  0  0  0  0  0  0  0  0  0  # atno 6908 bound_to 6896
  152.2996  133.5605  159.5646 H   0  0  0  0  0  0  0  0  0  0  0  0  # atno 6909 bound_to 6896
  144.7127  140.1171  143.6407 H   0  0  0  0  0  0  0  0  0  0  0  0  # atno 7974 bound_to 7965
  154.4752  140.0907  156.7243 H   0  0  0  0  0  0  0  0  0  0  0  0  # atno 8008 bound_to 7997
  155.4617  140.3461  155.4295 H   0  0  0  0  0  0  0  0  0  0  0  0  # atno 8009 bound_to 7997
  156.1104  140.1446  156.9335 H   0  0  0  0  0  0  0  0  0  0  0  0  # atno 8010 bound_to 7997
  139.9371  143.6205  152.2514 H   0  0  0  0  0  0  0  0  0  0  0  0  # atno 10167 bound_to 10162
  156.8566  130.9737  151.3087 H   0  0  0  0  0  0  0  0  0  0  0  0  # atno 10718 bound_to 10713
  154.6930  135.5205  153.8418 H   0  0  0  0  0  0  0  0  0  0  0  0  # atno 10763 bound_to 10752
  153.0646  135.6580  154.0393 H   0  0  0  0  0  0  0  0  0  0  0  0  # atno 10764 bound_to 10752
  154.0264  135.2989  155.3354 H   0  0  0  0  0  0  0  0  0  0  0  0  # atno 10765 bound_to 10752
  139.8919  134.8424  156.2864 H   0  0  0  0  0  0  0  0  0  0  0  0  # atno 11005 bound_to 11000
  145.9404  139.2665  143.1272 LP  0  0  0  0  0  0  0  0  0  0  0  0  # atno 17320 bound_to 7965
  145.9430  140.8966  143.0298 LP  0  0  0  0  0  0  0  0  0  0  0  0  # atno 17321 bound_to 7965
  139.6734  144.7660  151.1740 LP  0  0  0  0  0  0  0  0  0  0  0  0  # atno 17342 bound_to 10162
  140.7621  143.5830  150.8875 LP  0  0  0  0  0  0  0  0  0  0  0  0  # atno 17343 bound_to 10162
  157.6273  130.8702  149.9212 LP  0  0  0  0  0  0  0  0  0  0  0  0  # atno 17370 bound_to 10713
  156.0799  130.3674  150.0601 LP  0  0  0  0  0  0  0  0  0  0  0  0  # atno 17371 bound_to 10713
  141.0005  133.7154  156.0953 LP  0  0  0  0  0  0  0  0  0  0  0  0  # atno 17394 bound_to 11000
  140.7504  134.4051  157.5542 LP  0  0  0  0  0  0  0  0  0  0  0  0  # atno 17395 bound_to 11000

$$$$
