AV-unprocessed.smi:365|AV-procd|sdf|2428|dock10
  -GOLD-   2262022373D 1   1.00000     0.00000
 Structure written by MMmdl.
 53 54  0  0  0  0  0  0  0  0  1 V2000
  148.2923  141.7711  155.1967 C   0  0  0  0  0  0  0  0  0  0  0  0
  149.8139  141.5214  155.2026 C   0  0  1  0  0  0  0  0  0  0  0  0
  150.5406  142.3093  156.2041 N   0  0  0  0  0  0  0  0  0  0  0  0
  150.3212  142.4025  157.5299 C   0  0  0  0  0  0  0  0  0  0  0  0
  149.4424  141.7650  158.1110 O   0  0  0  0  0  0  0  0  0  0  0  0
  151.2579  143.3504  158.3162 C   0  0  0  0  0  0  0  0  0  0  0  0
  152.4354  142.5379  158.8941 C   0  0  0  0  0  0  0  0  0  0  0  0
  150.4992  144.0190  159.4851 C   0  0  0  0  0  0  0  0  0  0  0  0
  151.7874  144.4594  157.3812 C   0  0  0  0  0  0  0  0  0  0  0  0
  150.1974  140.0348  155.2146 C   0  0  0  0  0  0  0  0  0  0  0  0
  151.3411  139.6775  154.9307 O   0  0  0  0  0  0  0  0  0  0  0  0
  149.2295  139.1769  155.5724 N   0  0  0  0  0  0  0  0  0  0  0  0
  149.3934  137.7322  155.6954 C   0  0  0  0  0  0  0  0  0  0  0  0
  148.8833  137.1605  157.0104 C   0  0  0  0  0  0  0  0  0  0  0  0
  147.5723  137.4360  157.4434 C   0  0  0  0  0  0  0  0  0  0  0  0
  147.1289  136.9094  158.6719 C   0  0  0  0  0  0  0  0  0  0  0  0
  148.0144  136.1180  159.4481 C   0  0  0  0  0  0  0  0  0  0  0  0
  147.6328  135.5549  160.6889 N   0  0  0  0  0  0  0  0  0  0  0  0
  147.7439  134.1008  160.8140 C   0  0  0  0  0  0  0  0  0  0  0  0
  146.9860  133.6009  162.0555 C   0  0  0  0  0  0  0  0  0  0  0  0
  147.4365  134.2988  163.2105 O   0  0  0  0  0  0  0  0  0  0  0  0
  147.1790  135.6944  163.1112 C   0  0  0  0  0  0  0  0  0  0  0  0
  147.9481  136.2826  161.9161 C   0  0  0  0  0  0  0  0  0  0  0  0
  149.2760  135.8598  159.0246 N   0  0  0  0  0  0  0  0  0  0  0  0
  149.6955  136.3662  157.8467 C   0  0  0  0  0  0  0  0  0  0  0  0
  147.8304  141.3228  154.3164 H   0  0  0  0  0  0  0  0  0  0  0  0
  148.0672  142.8377  155.1749 H   0  0  0  0  0  0  0  0  0  0  0  0
  147.7998  141.3395  156.0680 H   0  0  0  0  0  0  0  0  0  0  0  0
  150.1834  141.9176  154.2555 H   0  0  0  0  0  0  0  0  0  0  0  0
  151.3030  142.8633  155.8422 H   0  0  0  0  0  0  0  0  0  0  0  0
  153.0945  143.1697  159.4904 H   0  0  0  0  0  0  0  0  0  0  0  0
  153.0451  142.0889  158.1089 H   0  0  0  0  0  0  0  0  0  0  0  0
  152.0854  141.7313  159.5402 H   0  0  0  0  0  0  0  0  0  0  0  0
  150.1278  143.2828  160.1998 H   0  0  0  0  0  0  0  0  0  0  0  0
  149.6452  144.5993  159.1323 H   0  0  0  0  0  0  0  0  0  0  0  0
  151.1468  144.7018  160.0360 H   0  0  0  0  0  0  0  0  0  0  0  0
  152.4041  145.1730  157.9285 H   0  0  0  0  0  0  0  0  0  0  0  0
  150.9708  145.0195  156.9238 H   0  0  0  0  0  0  0  0  0  0  0  0
  152.4042  144.0574  156.5764 H   0  0  0  0  0  0  0  0  0  0  0  0
  148.3191  139.5537  155.7928 H   0  0  0  0  0  0  0  0  0  0  0  0
  148.8408  137.2598  154.8831 H   0  0  0  0  0  0  0  0  0  0  0  0
  150.4408  137.4598  155.5527 H   0  0  0  0  0  0  0  0  0  0  0  0
  146.9109  138.0453  156.8450 H   0  0  0  0  0  0  0  0  0  0  0  0
  146.1237  137.1348  158.9928 H   0  0  0  0  0  0  0  0  0  0  0  0
  147.3462  133.5878  159.9384 H   0  0  0  0  0  0  0  0  0  0  0  0
  148.7992  133.8352  160.8879 H   0  0  0  0  0  0  0  0  0  0  0  0
  145.9098  133.7333  161.9328 H   0  0  0  0  0  0  0  0  0  0  0  0
  147.1604  132.5342  162.1962 H   0  0  0  0  0  0  0  0  0  0  0  0
  146.1070  135.8715  163.0094 H   0  0  0  0  0  0  0  0  0  0  0  0
  147.4940  136.1796  164.0350 H   0  0  0  0  0  0  0  0  0  0  0  0
  149.0223  136.2317  162.0986 H   0  0  0  0  0  0  0  0  0  0  0  0
  147.6780  137.3339  161.8159 H   0  0  0  0  0  0  0  0  0  0  0  0
  150.7140  136.1314  157.5738 H   0  0  0  0  0  0  0  0  0  0  0  0
  1  2  1  0  0  0  0
  1 26  1  0  0  0  0
  1 27  1  0  0  0  0
  1 28  1  0  0  0  0
  2  3  1  0  0  0  0
  2 10  1  0  0  0  0
  2 29  1  0  0  0  0
  3  4  1  0  0  0  0
  3 30  1  0  0  0  0
  4  5  2  0  0  0  0
  4  6  1  0  0  0  0
  6  7  1  0  0  0  0
  6  8  1  0  0  0  0
  6  9  1  0  0  0  0
  7 31  1  0  0  0  0
  7 32  1  0  0  0  0
  7 33  1  0  0  0  0
  8 34  1  0  0  0  0
  8 35  1  0  0  0  0
  8 36  1  0  0  0  0
  9 37  1  0  0  0  0
  9 38  1  0  0  0  0
  9 39  1  0  0  0  0
 10 11  2  0  0  0  0
 10 12  1  0  0  0  0
 12 13  1  0  0  0  0
 12 40  1  0  0  0  0
 13 14  1  0  0  0  0
 13 41  1  0  0  0  0
 13 42  1  0  0  0  0
 14 25  1  0  0  0  0
 14 15  2  0  0  0  0
 15 16  1  0  0  0  0
 15 43  1  0  0  0  0
 16 17  2  0  0  0  0
 16 44  1  0  0  0  0
 17 18  1  0  0  0  0
 17 24  1  0  0  0  0
 18 23  1  0  0  0  0
 18 19  1  0  0  0  0
 19 20  1  0  0  0  0
 19 45  1  0  0  0  0
 19 46  1  0  0  0  0
 20 21  1  0  0  0  0
 20 47  1  0  0  0  0
 20 48  1  0  0  0  0
 21 22  1  0  0  0  0
 22 23  1  0  0  0  0
 22 49  1  0  0  0  0
 22 50  1  0  0  0  0
 23 51  1  0  0  0  0
 23 52  1  0  0  0  0
 24 25  2  0  0  0  0
 25 53  1  0  0  0  0
M  END
> <s_m_source_file>
AV-unprocessed.smi

> <i_m_source_file_index>
365

> <i_lp_mmshare_version>
43012

> <i_f3d_flags>
0

> <s_epik_input>
W0NIM11DKFtDSDNdKShbQ0gzXSlDKD1PKVtOSF1bQ0BASF0oW0NIM10pQyg9TylbTkhdW0NIMl1jMVtjSF1bY0hdYyhuW2NIXTEpTjJbQ0gyXVtDSDJdT1tDSDJdW0NIMl0y

> <s_epik_cmdline>
J2VwaWtfcHl0aG9uJywgJy1waCcsICc3LjAnLCAnLXRuJywgJzgnLCAnLW1hJywgJzIwMCcsICctbWV0YWxfYmluZGluZycsICctaW1hZScsICc8aW5maWxlLm1hZT4nLCAnLW9tYWUnLCAnPG91dGZpbGUubWFlPic=

> <r_lp_tautomer_probability>
1

> <r_epik_Ionization_Penalty>
0.00484327

> <r_epik_Ionization_Penalty_Charging>
0

> <r_epik_Ionization_Penalty_Neutral>
0.00484327

> <r_epik_State_Penalty>
0.0035131

> <r_epik_Charging_Adjusted_Penalty>
0.0035131

> <i_epik_Tot_Q>
0

> <i_epik_Tot_abs_Q>
0

> <r_epik_Metal_State_Penalty>
-0

> <b_epik_Metal_Only>
0

> <s_lp_Force_Field>
OPLS_2005

> <r_lp_Energy>
26.0036

> <b_lp_Chiralities_Consistent>
1

> <s_lp_Variant>
AV-unprocessed.smi:365-2

> <Gold.Version>
5.8.1

> <Gold.Id.Protein>
6NUR|6NUR_protein|mol2

> <Gold.PLP.Fitness>
43.5448

> <Gold.PLP.PLP>
-40.7295

> <Gold.PLP.part.hbond>
-4.1376

> <Gold.PLP.part.metal>
0.0000

> <Gold.PLP.part.buried>
-5.3522

> <Gold.PLP.part.nonpolar>
-32.4550

> <Gold.PLP.part.repulsive>
0.2715

> <Gold.PLP.ligand.clash>
0.0000

> <Gold.PLP.ligand.torsion>
1.9016

> <Gold.PLP.Chemscore.Hbond>
1.9500

> <Gold.PLP.Chemscore.CHOScore>
0.0000

> <Gold.PLP.Chemscore.Metal>
0.0000

> <Gold.Chemscore.Hbonds>
donor molecule, donor type, donor heavy atom, donor atom, acceptor molecule, acceptor atom, score
      P1  H  6896  6908       L1    24  1.00
      P1  H  7989  7998       L1    11  0.90

> <Gold.PLP.Chemscore.Internal.Correction>
0.7684

> <Gold.Rescore>
     Score         DG    S(hbond)    S(metal)    S(lipo)     H(rot)  DE(clash)    DE(int)     intcor
     14.36     -16.87       1.65        0.00      94.69       2.04       0.66       1.84       ----

> <Gold.Chemscore.Fitness>
14.3617

> <Gold.Chemscore.DG>
-16.8689

> <Gold.Chemscore.ZeroCoef>
-5.4800

> <Gold.Chemscore.Hbond>
1.6538

> <Gold.Chemscore.Metal>
0.0000

> <Gold.Chemscore.Lipo>
94.6939

> <Gold.Chemscore.Internal_Hbond>
0.0000

> <Gold.Chemscore.DEClash>
0.6632

> <Gold.Chemscore.DEInternal>
1.8440

> <Gold.Chemscore.Rot>
2.0367

> <Gold.Chemscore.Internal.Correction>
   9.000000E+99

> <Gold.Chemscore.Hbonds>
donor molecule, donor type, donor heavy atom, donor atom, acceptor molecule, acceptor atom, score
      P1  H  6896  6908       L1    24  0.48
      P1  H  7989  7998       L1    11  0.18

> <Gold.Chemscore.Hbond.Weighted>
-5.5236

> <Gold.Chemscore.Metal.Weighted>
-0.0000

> <Gold.Chemscore.Lipo.Weighted>
-11.0792

> <Gold.Chemscore.Internal_Hbond.Weighted>
0.0000

> <Gold.Chemscore.DEClash.Weighted>
0.6632

> <Gold.Chemscore.DEInternal.Weighted>
1.8440

> <Gold.Chemscore.Rot.Weighted>
5.2140

> <Gold.Chemscore.Internal.Correction.Weighted>
   9.000000E+99

> <Gold.Protein.RotatedTorsions>
[ 6907 6896 6895 6894 ] final  165.04 input  -60.11 | X-H torsion
[ 7974 7965 7964 7962 ] final   71.42 input  175.53 | X-H torsion
[ 8008 7997 7996 7995 ] final  -68.56 input   59.86 | X-H torsion
[ 10167 10162 10161 10158 ] final  134.56 input  -65.29 | X-H torsion
[ 10718 10713 10712 10709 ] final -134.30 input   66.30 | X-H torsion
[ 10763 10752 10751 10750 ] final -105.97 input  -60.55 | X-H torsion
[ 11005 11000 10999 10996 ] final -110.21 input  -57.11 | X-H torsion

> <Gold.Protein.ActiveResidues>
 VAL166  LYS551  ARG553  GLY616  TRP617  ASP618  TYR619  PRO620  LYS621  CYS622 
 ASP623  PHE694  ASN695  SER759  ASP760  ASP761  ALA762  ILE779  LEU786  VAL792 
 PHE793  MET794  SER795  GLU796  ALA797  LYS798  CYS799  TRP800  GLU811  SER814 

> <Gold.Protein.RotatedAtoms>
  151.9005  133.3537  159.3828 H   0  0  0  0  0  0  0  0  0  0  0  0  # atno 6907 bound_to 6896
  150.7081  134.4833  159.5490 H   0  0  0  0  0  0  0  0  0  0  0  0  # atno 6908 bound_to 6896
  152.2420  134.8219  160.0510 H   0  0  0  0  0  0  0  0  0  0  0  0  # atno 6909 bound_to 6896
  145.7660  139.2822  143.1348 H   0  0  0  0  0  0  0  0  0  0  0  0  # atno 7974 bound_to 7965
  154.4876  140.0870  156.7522 H   0  0  0  0  0  0  0  0  0  0  0  0  # atno 8008 bound_to 7997
  155.4311  140.3450  155.4262 H   0  0  0  0  0  0  0  0  0  0  0  0  # atno 8009 bound_to 7997
  156.1284  140.1494  156.9090 H   0  0  0  0  0  0  0  0  0  0  0  0  # atno 8010 bound_to 7997
  139.5251  144.6561  151.5157 H   0  0  0  0  0  0  0  0  0  0  0  0  # atno 10167 bound_to 10162
  156.2540  130.7170  151.1079 H   0  0  0  0  0  0  0  0  0  0  0  0  # atno 10718 bound_to 10713
  154.7982  135.4729  154.0211 H   0  0  0  0  0  0  0  0  0  0  0  0  # atno 10763 bound_to 10752
  153.1737  135.6829  153.8579 H   0  0  0  0  0  0  0  0  0  0  0  0  # atno 10764 bound_to 10752
  153.8153  135.3211  155.3382 H   0  0  0  0  0  0  0  0  0  0  0  0  # atno 10765 bound_to 10752
  141.0804  133.9229  157.2300 H   0  0  0  0  0  0  0  0  0  0  0  0  # atno 11005 bound_to 11000
  146.0217  140.8342  142.9920 LP  0  0  0  0  0  0  0  0  0  0  0  0  # atno 17320 bound_to 7965
  144.6821  140.2638  143.7315 LP  0  0  0  0  0  0  0  0  0  0  0  0  # atno 17321 bound_to 7965
  140.6387  143.8931  150.6672 LP  0  0  0  0  0  0  0  0  0  0  0  0  # atno 17342 bound_to 10162
  140.2259  143.3773  152.1605 LP  0  0  0  0  0  0  0  0  0  0  0  0  # atno 17343 bound_to 10162
  157.7225  131.0672  150.6074 LP  0  0  0  0  0  0  0  0  0  0  0  0  # atno 17370 bound_to 10713
  156.6156  130.4392  149.5842 LP  0  0  0  0  0  0  0  0  0  0  0  0  # atno 17371 bound_to 10713
  139.9618  135.0152  156.9281 LP  0  0  0  0  0  0  0  0  0  0  0  0  # atno 17394 bound_to 11000
  140.5480  134.0655  155.7361 LP  0  0  0  0  0  0  0  0  0  0  0  0  # atno 17395 bound_to 11000

$$$$
