AV-unprocessed.smi:1489|AV-procd|sdf|6027|dock6
  -GOLD-   22720 6133D 1   1.00000     0.00000
 Structure written by MMmdl.
 47 49  0  0  0  0  0  0  0  0  2 V2000
  146.2405  138.3316  154.6776 O   0  0  0  0  0  0  0  0  0  0  0  0
  147.0892  137.9114  153.8912 C   0  0  0  0  0  0  0  0  0  0  0  0
  148.3971  138.2202  153.9246 N   0  0  0  0  0  0  0  0  0  0  0  0
  149.0702  139.1117  154.8031 C   0  0  0  0  0  0  0  0  0  0  0  0
  150.4404  139.4540  154.6843 C   0  0  0  0  0  0  0  0  0  0  0  0
  151.0191  140.3368  155.6188 C   0  0  0  0  0  0  0  0  0  0  0  0
  150.2260  140.8616  156.6657 C   0  0  0  0  0  0  0  0  0  0  0  0
  150.7064  141.7507  157.6380 N   0  0  0  0  0  0  0  0  0  0  0  0
  151.2093  143.0078  157.1084 C   0  0  0  0  0  0  0  0  0  0  0  0
  152.0664  143.6169  158.2222 C   0  0  0  0  0  0  0  0  0  0  0  0
  152.3978  142.4453  159.1537 C   0  0  0  0  0  0  0  0  0  0  0  0
  151.7608  141.2233  158.4882 C   0  0  0  0  0  0  0  0  0  0  0  0
  148.9277  140.4982  156.7507 N   0  3  0  0  0  0  0  0  0  0  0  0
  148.3351  139.6544  155.8781 C   0  0  0  0  0  0  0  0  0  0  0  0
  146.8153  137.0603  152.8918 N   0  0  0  0  0  0  0  0  0  0  0  0
  145.4953  136.5166  152.5833 C   0  0  2  0  0  0  0  0  0  0  0  0
  144.9613  135.7417  153.8035 C   0  0  0  0  0  0  0  0  0  0  0  0
  143.5971  135.0963  153.5105 C   0  0  0  0  0  0  0  0  0  0  0  0
  143.6706  134.1845  152.2739 C   0  0  1  0  0  0  0  0  0  0  0  0
  142.3890  133.6617  151.9955 O   0  0  0  0  0  0  0  0  0  0  0  0
  144.1899  134.9571  151.0493 C   0  0  0  0  0  0  0  0  0  0  0  0
  145.5540  135.6041  151.3392 C   0  0  0  0  0  0  0  0  0  0  0  0
  148.9877  137.7221  153.2747 H   0  0  0  0  0  0  0  0  0  0  0  0
  151.0632  139.0471  153.9029 H   0  0  0  0  0  0  0  0  0  0  0  0
  152.0619  140.6027  155.5276 H   0  0  0  0  0  0  0  0  0  0  0  0
  151.8179  142.8354  156.2196 H   0  0  0  0  0  0  0  0  0  0  0  0
  150.3885  143.6692  156.8295 H   0  0  0  0  0  0  0  0  0  0  0  0
  152.9623  144.0910  157.8200 H   0  0  0  0  0  0  0  0  0  0  0  0
  151.5046  144.3777  158.7654 H   0  0  0  0  0  0  0  0  0  0  0  0
  153.4712  142.3153  159.2954 H   0  0  0  0  0  0  0  0  0  0  0  0
  151.9521  142.6161  160.1345 H   0  0  0  0  0  0  0  0  0  0  0  0
  151.3589  140.5298  159.2275 H   0  0  0  0  0  0  0  0  0  0  0  0
  152.5051  140.6898  157.8960 H   0  0  0  0  0  0  0  0  0  0  0  0
  147.2911  139.4468  156.0635 H   0  0  0  0  0  0  0  0  0  0  0  0
  147.5759  136.7617  152.2992 H   0  0  0  0  0  0  0  0  0  0  0  0
  144.8121  137.3443  152.3822 H   0  0  0  0  0  0  0  0  0  0  0  0
  145.6722  134.9644  154.0880 H   0  0  0  0  0  0  0  0  0  0  0  0
  144.8734  136.4091  154.6618 H   0  0  0  0  0  0  0  0  0  0  0  0
  143.2655  134.5253  154.3786 H   0  0  0  0  0  0  0  0  0  0  0  0
  142.8537  135.8789  153.3517 H   0  0  0  0  0  0  0  0  0  0  0  0
  144.3361  133.3456  152.4815 H   0  0  0  0  0  0  0  0  0  0  0  0
  142.2087  133.7810  151.0754 H   0  0  0  0  0  0  0  0  0  0  0  0
  144.2740  134.2886  150.1917 H   0  0  0  0  0  0  0  0  0  0  0  0
  143.4752  135.7324  150.7687 H   0  0  0  0  0  0  0  0  0  0  0  0
  145.8769  136.1729  150.4665 H   0  0  0  0  0  0  0  0  0  0  0  0
  146.2993  134.8217  151.4901 H   0  0  0  0  0  0  0  0  0  0  0  0
  148.3664  140.8800  157.5123 H   0  0  0  0  0  0  0  0  0  0  0  0
  1  2  2  0  0  0  0
  2  3  1  0  0  0  0
  2 15  1  0  0  0  0
  3  4  1  0  0  0  0
  3 23  1  0  0  0  0
  4 14  1  0  0  0  0
  4  5  2  0  0  0  0
  5  6  1  0  0  0  0
  5 24  1  0  0  0  0
  6  7  2  0  0  0  0
  6 25  1  0  0  0  0
  7  8  1  0  0  0  0
  7 13  1  0  0  0  0
  8 12  1  0  0  0  0
  8  9  1  0  0  0  0
  9 10  1  0  0  0  0
  9 26  1  0  0  0  0
  9 27  1  0  0  0  0
 10 11  1  0  0  0  0
 10 28  1  0  0  0  0
 10 29  1  0  0  0  0
 11 12  1  0  0  0  0
 11 30  1  0  0  0  0
 11 31  1  0  0  0  0
 12 32  1  0  0  0  0
 12 33  1  0  0  0  0
 13 14  2  0  0  0  0
 13 47  1  0  0  0  0
 14 34  1  0  0  0  0
 15 16  1  0  0  0  0
 15 35  1  0  0  0  0
 16 22  1  0  0  0  0
 16 17  1  0  0  0  0
 16 36  1  0  0  0  0
 17 18  1  0  0  0  0
 17 37  1  0  0  0  0
 17 38  1  0  0  0  0
 18 19  1  0  0  0  0
 18 39  1  0  0  0  0
 18 40  1  0  0  0  0
 19 20  1  0  0  0  0
 19 21  1  0  0  0  0
 19 41  1  0  0  0  0
 20 42  1  0  0  0  0
 21 22  1  0  0  0  0
 21 43  1  0  0  0  0
 21 44  1  0  0  0  0
 22 45  1  0  0  0  0
 22 46  1  0  0  0  0
M  CHG  1  13   1
M  END
> <s_m_source_file>
AV-unprocessed.smi

> <i_m_source_file_index>
1489

> <i_lp_mmshare_version>
43012

> <i_f3d_flags>
0

> <s_epik_input>
W0NIMl0xW0NIMl1bQ0BIXShbT0hdKVtDSDJdW0NIMl1bQ0BIXTFbTkhdQyg9TylbTkhdYzJbY0hdW2NIXWMobltjSF0yKU4zW0NIMl1bQ0gyXVtDSDJdW0NIMl0z

> <s_epik_cmdline>
J2VwaWtfcHl0aG9uJywgJy1waCcsICc3LjAnLCAnLXRuJywgJzgnLCAnLW1hJywgJzIwMCcsICctbWV0YWxfYmluZGluZycsICctaW1hZScsICc8aW5maWxlLm1hZT4nLCAnLW9tYWUnLCAnPG91dGZpbGUubWFlPic=

> <r_lp_tautomer_probability>
0.999994

> <r_epik_Ionization_Penalty>
1.08454

> <r_epik_Ionization_Penalty_Charging>
1.08452

> <r_epik_Ionization_Penalty_Neutral>
2.18252e-05

> <r_epik_State_Penalty>
1.14025

> <r_epik_Charging_Adjusted_Penalty>
2.22477

> <i_epik_Tot_Q>
1

> <i_epik_Tot_abs_Q>
1

> <r_epik_Metal_State_Penalty>
1.22975

> <b_epik_Metal_Only>
0

> <s_lp_Force_Field>
OPLS_2005

> <r_lp_Energy>
44.1541

> <b_lp_Chiralities_Consistent>
1

> <s_lp_Variant>
AV-unprocessed.smi:1489-3

> <Gold.Version>
5.8.1

> <Gold.Id.Protein>
6NUR|6NUR_protein|mol2

> <Gold.PLP.Fitness>
42.3355

> <Gold.PLP.PLP>
-33.7451

> <Gold.PLP.part.hbond>
-2.9218

> <Gold.PLP.part.metal>
0.0000

> <Gold.PLP.part.buried>
-3.8678

> <Gold.PLP.part.nonpolar>
-27.4413

> <Gold.PLP.part.repulsive>
0.1905

> <Gold.PLP.ligand.clash>
0.0000

> <Gold.PLP.ligand.torsion>
0.0193

> <Gold.PLP.Chemscore.Hbond>
2.8713

> <Gold.PLP.Chemscore.CHOScore>
0.0000

> <Gold.PLP.Chemscore.Metal>
0.0000

> <Gold.Chemscore.Hbonds>
donor molecule, donor type, donor heavy atom, donor atom, acceptor molecule, acceptor atom, score
      L1  H     3    23       P1  7948  0.86
      L1  H    15    35       P1  7948  0.99
      L1  H    20    42       P1 10186  0.99

> <Gold.PLP.Chemscore.Internal.Correction>
0.0152

> <Gold.Rescore>
     Score         DG    S(hbond)    S(metal)    S(lipo)     H(rot)  DE(clash)    DE(int)     intcor
     18.10     -19.73       2.52        0.00      86.81       1.69       0.07       1.56       ----

> <Gold.Chemscore.Fitness>
18.1003

> <Gold.Chemscore.DG>
-19.7285

> <Gold.Chemscore.ZeroCoef>
-5.4800

> <Gold.Chemscore.Hbond>
2.5226

> <Gold.Chemscore.Metal>
0.0000

> <Gold.Chemscore.Lipo>
86.8115

> <Gold.Chemscore.Internal_Hbond>
0.0000

> <Gold.Chemscore.DEClash>
0.0719

> <Gold.Chemscore.DEInternal>
1.5563

> <Gold.Chemscore.Rot>
1.6929

> <Gold.Chemscore.Internal.Correction>
   9.000000E+99

> <Gold.Chemscore.Hbonds>
donor molecule, donor type, donor heavy atom, donor atom, acceptor molecule, acceptor atom, score
      L1  H     3    23       P1  7948  0.80
      L1  H    15    35       P1  7948  0.92
      L1  H    20    42       P1 10186  0.40

> <Gold.Chemscore.Hbond.Weighted>
-8.4254

> <Gold.Chemscore.Metal.Weighted>
-0.0000

> <Gold.Chemscore.Lipo.Weighted>
-10.1569

> <Gold.Chemscore.Internal_Hbond.Weighted>
0.0000

> <Gold.Chemscore.DEClash.Weighted>
0.0719

> <Gold.Chemscore.DEInternal.Weighted>
1.5563

> <Gold.Chemscore.Rot.Weighted>
4.3338

> <Gold.Chemscore.Internal.Correction.Weighted>
   9.000000E+99

> <Gold.Protein.RotatedTorsions>
[ 6907 6896 6895 6894 ] final  -80.41 input  -60.11 | X-H torsion
[ 7974 7965 7964 7962 ] final  -17.68 input  175.53 | X-H torsion
[ 8008 7997 7996 7995 ] final  136.68 input   59.86 | X-H torsion
[ 10167 10162 10161 10158 ] final -163.18 input  -65.29 | X-H torsion
[ 10718 10713 10712 10709 ] final   54.14 input   66.30 | X-H torsion
[ 10763 10752 10751 10750 ] final   77.03 input  -60.55 | X-H torsion
[ 11005 11000 10999 10996 ] final  159.22 input  -57.11 | X-H torsion

> <Gold.Protein.ActiveResidues>
 VAL166  LYS551  ARG553  GLY616  TRP617  ASP618  TYR619  PRO620  LYS621  CYS622 
 ASP623  PHE694  ASN695  SER759  ASP760  ASP761  ALA762  ILE779  LEU786  VAL792 
 PHE793  MET794  SER795  GLU796  ALA797  LYS798  CYS799  TRP800  GLU811  SER814 

> <Gold.Protein.RotatedAtoms>
  150.6930  134.3974  159.5103 H   0  0  0  0  0  0  0  0  0  0  0  0  # atno 6907 bound_to 6896
  152.1753  134.8797  160.0540 H   0  0  0  0  0  0  0  0  0  0  0  0  # atno 6908 bound_to 6896
  151.9808  133.3722  159.4143 H   0  0  0  0  0  0  0  0  0  0  0  0  # atno 6909 bound_to 6896
  146.1929  140.3813  142.8451 H   0  0  0  0  0  0  0  0  0  0  0  0  # atno 7974 bound_to 7965
  156.3004  140.2439  156.3785 H   0  0  0  0  0  0  0  0  0  0  0  0  # atno 8008 bound_to 7997
  154.8723  140.0415  157.1751 H   0  0  0  0  0  0  0  0  0  0  0  0  # atno 8009 bound_to 7997
  154.8783  140.2945  155.5444 H   0  0  0  0  0  0  0  0  0  0  0  0  # atno 8010 bound_to 7997
  139.6339  144.0386  152.2038 H   0  0  0  0  0  0  0  0  0  0  0  0  # atno 10167 bound_to 10162
  157.5230  130.8578  149.8584 H   0  0  0  0  0  0  0  0  0  0  0  0  # atno 10718 bound_to 10713
  153.0768  135.4929  154.8421 H   0  0  0  0  0  0  0  0  0  0  0  0  # atno 10763 bound_to 10752
  154.7098  135.3017  154.9217 H   0  0  0  0  0  0  0  0  0  0  0  0  # atno 10764 bound_to 10752
  153.9914  135.6777  153.4807 H   0  0  0  0  0  0  0  0  0  0  0  0  # atno 10765 bound_to 10752
  140.1940  134.8386  157.2944 H   0  0  0  0  0  0  0  0  0  0  0  0  # atno 11005 bound_to 11000
  144.8523  140.7019  143.6160 LP  0  0  0  0  0  0  0  0  0  0  0  0  # atno 17320 bound_to 7965
  145.3735  139.1653  143.4319 LP  0  0  0  0  0  0  0  0  0  0  0  0  # atno 17321 bound_to 7965
  140.0059  144.6259  150.7689 LP  0  0  0  0  0  0  0  0  0  0  0  0  # atno 17342 bound_to 10162
  140.7454  143.2876  151.3420 LP  0  0  0  0  0  0  0  0  0  0  0  0  # atno 17343 bound_to 10162
  156.0367  130.3749  150.1543 LP  0  0  0  0  0  0  0  0  0  0  0  0  # atno 17370 bound_to 10713
  156.9730  130.9840  151.3454 LP  0  0  0  0  0  0  0  0  0  0  0  0  # atno 17371 bound_to 10713
  140.2128  134.4118  155.7604 LP  0  0  0  0  0  0  0  0  0  0  0  0  # atno 17394 bound_to 11000
  141.2227  133.7126  156.8365 LP  0  0  0  0  0  0  0  0  0  0  0  0  # atno 17395 bound_to 11000

$$$$
