AV-unprocessed.smi:658|AV-procd|sdf|3236|dock4
  -GOLD-   22720 0183D 1   1.00000     0.00000
 Structure written by MMmdl.
 37 37  0  0  0  0  0  0  0  0  3 V2000
  145.5957  136.2022  152.1145 C   0  0  0  0  0  0  0  0  0  0  0  0
  146.2710  135.0950  152.9442 C   0  0  2  0  0  0  0  0  0  0  0  0
  147.3572  135.6981  153.7493 N   0  3  0  0  0  0  0  0  0  0  0  0
  146.9529  136.8640  154.5602 C   0  0  0  0  0  0  0  0  0  0  0  0
  148.1684  137.5120  155.2299 C   0  0  0  0  0  0  0  0  0  0  0  0
  149.2222  137.9631  154.2117 C   0  0  0  0  0  0  0  0  0  0  0  0
  150.8646  138.1691  155.0161 S   0  0  0  0  0  0  0  0  0  0  0  0
  151.7452  137.1046  154.1843 N   0  5  0  0  0  0  0  0  0  0  0  0
  151.2629  139.5611  154.7563 O   0  0  0  0  0  0  0  0  0  0  0  0
  150.6779  137.7708  156.4192 O   0  0  0  0  0  0  0  0  0  0  0  0
  146.8165  133.9325  152.0707 C   0  0  1  0  0  0  0  0  0  0  0  0
  147.5580  132.8574  152.8886 C   0  0  0  0  0  0  0  0  0  0  0  0
  145.7657  133.3142  151.2721 N   0  0  0  0  0  0  0  0  0  0  0  0
  145.8819  132.2984  150.3453 C   0  0  0  0  0  0  0  0  0  0  0  0
  144.6331  132.0514  149.8517 C   0  0  0  0  0  0  0  0  0  0  0  0
  143.8052  132.9770  150.5453 C   0  0  0  0  0  0  0  0  0  0  0  0
  144.4852  133.7324  151.3923 N   0  0  0  0  0  0  0  0  0  0  0  0
  144.7139  135.8348  151.5890 H   0  0  0  0  0  0  0  0  0  0  0  0
  146.2792  136.6137  151.3711 H   0  0  0  0  0  0  0  0  0  0  0  0
  145.2666  137.0228  152.7530 H   0  0  0  0  0  0  0  0  0  0  0  0
  145.5105  134.6963  153.6185 H   0  0  0  0  0  0  0  0  0  0  0  0
  147.7357  134.9900  154.3619 H   0  0  0  0  0  0  0  0  0  0  0  0
  146.4493  137.5881  153.9184 H   0  0  0  0  0  0  0  0  0  0  0  0
  146.2352  136.5519  155.3196 H   0  0  0  0  0  0  0  0  0  0  0  0
  147.8446  138.3707  155.8193 H   0  0  0  0  0  0  0  0  0  0  0  0
  148.6197  136.8079  155.9300 H   0  0  0  0  0  0  0  0  0  0  0  0
  149.3282  137.2310  153.4108 H   0  0  0  0  0  0  0  0  0  0  0  0
  148.9465  138.9160  153.7594 H   0  0  0  0  0  0  0  0  0  0  0  0
  151.3130  136.9851  153.2604 H   0  0  0  0  0  0  0  0  0  0  0  0
  147.5337  134.3544  151.3645 H   0  0  0  0  0  0  0  0  0  0  0  0
  148.4502  133.2621  153.3660 H   0  0  0  0  0  0  0  0  0  0  0  0
  147.8826  132.0355  152.2498 H   0  0  0  0  0  0  0  0  0  0  0  0
  146.9235  132.4388  153.6705 H   0  0  0  0  0  0  0  0  0  0  0  0
  146.8329  131.8407  150.1159 H   0  0  0  0  0  0  0  0  0  0  0  0
  144.3524  131.3194  149.1089 H   0  0  0  0  0  0  0  0  0  0  0  0
  142.7384  133.1213  150.4591 H   0  0  0  0  0  0  0  0  0  0  0  0
  148.0883  135.9995  153.1209 H   0  0  0  0  0  0  0  0  0  0  0  0
  1  2  1  0  0  0  0
  1 18  1  0  0  0  0
  1 19  1  0  0  0  0
  1 20  1  0  0  0  0
  2  3  1  0  0  0  0
  2 11  1  0  0  0  0
  2 21  1  0  0  0  0
  3  4  1  0  0  0  0
  3 22  1  0  0  0  0
  3 37  1  0  0  0  0
  4  5  1  0  0  0  0
  4 23  1  0  0  0  0
  4 24  1  0  0  0  0
  5  6  1  0  0  0  0
  5 25  1  0  0  0  0
  5 26  1  0  0  0  0
  6  7  1  0  0  0  0
  6 27  1  0  0  0  0
  6 28  1  0  0  0  0
  7  8  1  0  0  0  0
  7  9  2  0  0  0  0
  7 10  2  0  0  0  0
  8 29  1  0  0  0  0
 11 12  1  0  0  0  0
 11 13  1  0  0  0  0
 11 30  1  0  0  0  0
 12 31  1  0  0  0  0
 12 32  1  0  0  0  0
 12 33  1  0  0  0  0
 13 17  1  0  0  0  0
 13 14  1  0  0  0  0
 14 15  2  0  0  0  0
 14 34  1  0  0  0  0
 15 16  1  0  0  0  0
 15 35  1  0  0  0  0
 16 17  2  0  0  0  0
 16 36  1  0  0  0  0
M  CHG  1   3   1
M  CHG  1   8  -1
M  END
> <s_m_source_file>
AV-unprocessed.smi

> <i_m_source_file_index>
658

> <i_lp_mmshare_version>
43012

> <i_f3d_flags>
0

> <s_epik_input>
bjFbY0hdW2NIXVtjSF1uMVtDQEBIXShbQ0gzXSlbQ0BIXShbQ0gzXSlbTkhdW0NIMl1bQ0gyXVtDSDJdUyg9TykoPU8pW05IMl0=

> <s_epik_cmdline>
J2VwaWtfcHl0aG9uJywgJy1waCcsICc3LjAnLCAnLXRuJywgJzgnLCAnLW1hJywgJzIwMCcsICctbWV0YWxfYmluZGluZycsICctaW1hZScsICc8aW5maWxlLm1hZT4nLCAnLW9tYWUnLCAnPG91dGZpbGUubWFlPic=

> <r_lp_tautomer_probability>
1

> <r_epik_Ionization_Penalty>
4.63642

> <r_epik_Ionization_Penalty_Charging>
4.63641

> <r_epik_Ionization_Penalty_Neutral>
1.08396e-05

> <r_epik_State_Penalty>
4.63466

> <r_epik_Charging_Adjusted_Penalty>
9.27106

> <i_epik_Tot_Q>
0

> <i_epik_Tot_abs_Q>
2

> <r_epik_Metal_State_Penalty>
0.890424

> <b_epik_Metal_Only>
1

> <s_lp_Force_Field>
OPLS_2005

> <r_lp_Energy>
-1.73265

> <b_lp_Chiralities_Consistent>
1

> <s_lp_Variant>
AV-unprocessed.smi:658-7

> <Gold.Version>
5.8.1

> <Gold.Id.Protein>
6NUR|6NUR_protein|mol2

> <Gold.PLP.Fitness>
49.6324

> <Gold.PLP.PLP>
-25.9427

> <Gold.PLP.part.hbond>
-3.9468

> <Gold.PLP.part.metal>
0.0000

> <Gold.PLP.part.buried>
-1.2960

> <Gold.PLP.part.nonpolar>
-21.1116

> <Gold.PLP.part.repulsive>
0.1961

> <Gold.PLP.ligand.clash>
0.0000

> <Gold.PLP.ligand.torsion>
0.1640

> <Gold.PLP.Chemscore.Hbond>
5.9600

> <Gold.PLP.Chemscore.CHOScore>
2.0000

> <Gold.PLP.Chemscore.Metal>
0.0000

> <Gold.Chemscore.Hbonds>
donor molecule, donor type, donor heavy atom, donor atom, acceptor molecule, acceptor atom, score
      L1  H     3    37       P1  7948  2.00
      L1  H     8    29       P1  7949  0.99
      P1  H  7989  7998       L1     9  1.00
      P1  H 10752 10764       L1     8  2.00
      L1  C    14    34       P1 10747  1.00
      L1  C    16    36       P1 10186  1.00

> <Gold.PLP.Chemscore.Internal.Correction>
0.1377

> <Gold.Rescore>
     Score         DG    S(hbond)    S(metal)    S(lipo)     H(rot)  DE(clash)    DE(int)     intcor
     13.44     -16.86       3.78        0.00      55.99       3.04       1.63       1.78       ----

> <Gold.Chemscore.Fitness>
13.4433

> <Gold.Chemscore.DG>
-16.8593

> <Gold.Chemscore.ZeroCoef>
-5.4800

> <Gold.Chemscore.Hbond>
3.7765

> <Gold.Chemscore.Metal>
0.0000

> <Gold.Chemscore.Lipo>
55.9869

> <Gold.Chemscore.Internal_Hbond>
0.0000

> <Gold.Chemscore.DEClash>
1.6331

> <Gold.Chemscore.DEInternal>
1.7829

> <Gold.Chemscore.Rot>
3.0409

> <Gold.Chemscore.Internal.Correction>
   9.000000E+99

> <Gold.Chemscore.Hbonds>
donor molecule, donor type, donor heavy atom, donor atom, acceptor molecule, acceptor atom, score
      L1  H     3    37       P1  7948  0.94
      L1  H     8    29       P1  7949  0.61
      P1  H  7989  7998       L1     9  1.00
      P1  H 10752 10764       L1     8  0.49

> <Gold.Chemscore.Hbond.Weighted>
-12.6137

> <Gold.Chemscore.Metal.Weighted>
-0.0000

> <Gold.Chemscore.Lipo.Weighted>
-6.5505

> <Gold.Chemscore.Internal_Hbond.Weighted>
0.0000

> <Gold.Chemscore.DEClash.Weighted>
1.6331

> <Gold.Chemscore.DEInternal.Weighted>
1.7829

> <Gold.Chemscore.Rot.Weighted>
7.7848

> <Gold.Chemscore.Internal.Correction.Weighted>
   9.000000E+99

> <Gold.Protein.RotatedTorsions>
[ 6907 6896 6895 6894 ] final  -94.61 input  -60.11 | X-H torsion
[ 7974 7965 7964 7962 ] final  -83.55 input  175.53 | X-H torsion
[ 8008 7997 7996 7995 ] final  173.66 input   59.86 | X-H torsion
[ 10167 10162 10161 10158 ] final  141.66 input  -65.29 | X-H torsion
[ 10718 10713 10712 10709 ] final  -19.83 input   66.30 | X-H torsion
[ 10763 10752 10751 10750 ] final  -71.61 input  -60.55 | X-H torsion
[ 11005 11000 10999 10996 ] final   51.14 input  -57.11 | X-H torsion

> <Gold.Protein.ActiveResidues>
 VAL166  LYS551  ARG553  GLY616  TRP617  ASP618  TYR619  PRO620  LYS621  CYS622 
 ASP623  PHE694  ASN695  SER759  ASP760  ASP761  ALA762  ILE779  LEU786  VAL792 
 PHE793  MET794  SER795  GLU796  ALA797  LYS798  CYS799  TRP800  GLU811  SER814 

> <Gold.Protein.RotatedAtoms>
  150.6945  134.1786  159.4239 H   0  0  0  0  0  0  0  0  0  0  0  0  # atno 6907 bound_to 6896
  151.9761  135.0050  160.0564 H   0  0  0  0  0  0  0  0  0  0  0  0  # atno 6908 bound_to 6896
  152.1798  133.4664  159.4989 H   0  0  0  0  0  0  0  0  0  0  0  0  # atno 6909 bound_to 6896
  145.5185  140.9533  143.1668 H   0  0  0  0  0  0  0  0  0  0  0  0  # atno 7974 bound_to 7965
  156.1053  140.1454  156.9413 H   0  0  0  0  0  0  0  0  0  0  0  0  # atno 8008 bound_to 7997
  154.4729  140.0904  156.7235 H   0  0  0  0  0  0  0  0  0  0  0  0  # atno 8009 bound_to 7997
  155.4690  140.3441  155.4325 H   0  0  0  0  0  0  0  0  0  0  0  0  # atno 8010 bound_to 7997
  139.5015  144.6157  151.6168 H   0  0  0  0  0  0  0  0  0  0  0  0  # atno 10167 bound_to 10162
  156.5402  130.4676  149.6503 H   0  0  0  0  0  0  0  0  0  0  0  0  # atno 10718 bound_to 10713
  154.4342  135.5956  153.6088 H   0  0  0  0  0  0  0  0  0  0  0  0  # atno 10763 bound_to 10752
  152.9801  135.5982  154.3802 H   0  0  0  0  0  0  0  0  0  0  0  0  # atno 10764 bound_to 10752
  154.3644  135.2841  155.2281 H   0  0  0  0  0  0  0  0  0  0  0  0  # atno 10765 bound_to 10752
  140.0958  134.5148  155.8809 H   0  0  0  0  0  0  0  0  0  0  0  0  # atno 11005 bound_to 11000
  144.7689  139.6781  143.7203 LP  0  0  0  0  0  0  0  0  0  0  0  0  # atno 17320 bound_to 7965
  146.2121  139.5485  142.9674 LP  0  0  0  0  0  0  0  0  0  0  0  0  # atno 17321 bound_to 7965
  140.5845  143.9889  150.6287 LP  0  0  0  0  0  0  0  0  0  0  0  0  # atno 17342 bound_to 10162
  140.3048  143.3236  152.0936 LP  0  0  0  0  0  0  0  0  0  0  0  0  # atno 17343 bound_to 10162
  156.2979  130.7160  151.2025 LP  0  0  0  0  0  0  0  0  0  0  0  0  # atno 17370 bound_to 10713
  157.7406  131.0514  150.5151 LP  0  0  0  0  0  0  0  0  0  0  0  0  # atno 17371 bound_to 10713
  141.2091  133.6681  156.6419 LP  0  0  0  0  0  0  0  0  0  0  0  0  # atno 17394 bound_to 11000
  140.3289  134.7945  157.4310 LP  0  0  0  0  0  0  0  0  0  0  0  0  # atno 17395 bound_to 11000

$$$$
