AV-unprocessed.smi:2356|AV-procd|sdf|9394|dock10
  -GOLD-   2272013 23D 1   1.00000     0.00000
 Structure written by MMmdl.
 53 56  0  0  0  0  0  0  0  0  1 V2000
  151.7450  138.5466  154.5441 C   0  0  0  0  0  0  0  0  0  0  0  0
  150.8880  139.5480  155.2998 C   0  0  0  0  0  0  0  0  0  0  0  0
  151.5700  140.4704  156.0123 N   0  0  0  0  0  0  0  0  0  0  0  0
  150.8860  141.3985  156.7213 C   0  0  0  0  0  0  0  0  0  0  0  0
  151.6424  142.3386  157.4495 N   0  0  0  0  0  0  0  0  0  0  0  0
  151.2961  143.7503  157.4808 C   0  0  0  0  0  0  0  0  0  0  0  0
  152.2566  144.3655  158.4979 C   0  0  0  0  0  0  0  0  0  0  0  0
  152.4863  143.2276  159.4920 C   0  0  0  0  0  0  0  0  0  0  0  0
  152.4068  141.9614  158.6322 C   0  0  0  0  0  0  0  0  0  0  0  0
  149.4718  141.4305  156.7292 C   0  0  0  0  0  0  0  0  0  0  0  0
  148.7594  140.4709  155.9860 C   0  0  0  0  0  0  0  0  0  0  0  0
  149.4752  139.5052  155.2413 C   0  0  0  0  0  0  0  0  0  0  0  0
  148.8503  138.4795  154.4809 N   0  0  0  0  0  0  0  0  0  0  0  0
  147.5590  138.0956  154.4700 C   0  0  0  0  0  0  0  0  0  0  0  0
  146.6764  138.5828  155.1731 O   0  0  0  0  0  0  0  0  0  0  0  0
  147.2862  137.1200  153.5835 N   0  0  0  0  0  0  0  0  0  0  0  0
  145.9968  136.4771  153.3161 C   0  0  1  0  0  0  0  0  0  0  0  0
  144.9426  137.5327  152.9535 C   0  0  0  0  0  0  0  0  0  0  0  0
  143.6179  136.8575  152.5589 C   0  0  0  0  0  0  0  0  0  0  0  0
  143.8321  135.9388  151.4911 O   0  0  0  0  0  0  0  0  0  0  0  0
  144.7209  134.8789  151.8326 C   0  0  1  0  0  0  0  0  0  0  0  0
  144.7858  133.9079  150.6708 C   0  0  0  0  0  0  0  0  0  0  0  0
  143.8324  132.7389  150.5798 C   0  0  0  0  0  0  0  0  0  0  0  0
  145.2918  132.4990  150.8808 C   0  0  0  0  0  0  0  0  0  0  0  0
  146.1039  135.4671  152.1606 C   0  0  0  0  0  0  0  0  0  0  0  0
  151.6063  138.6665  153.4696 H   0  0  0  0  0  0  0  0  0  0  0  0
  151.4727  137.5264  154.8159 H   0  0  0  0  0  0  0  0  0  0  0  0
  152.8053  138.6802  154.7628 H   0  0  0  0  0  0  0  0  0  0  0  0
  151.4019  144.2146  156.4999 H   0  0  0  0  0  0  0  0  0  0  0  0
  150.2625  143.8634  157.8102 H   0  0  0  0  0  0  0  0  0  0  0  0
  153.1978  144.6228  158.0098 H   0  0  0  0  0  0  0  0  0  0  0  0
  151.8600  145.2678  158.9636 H   0  0  0  0  0  0  0  0  0  0  0  0
  153.4304  143.3150  160.0301 H   0  0  0  0  0  0  0  0  0  0  0  0
  151.6809  143.2201  160.2276 H   0  0  0  0  0  0  0  0  0  0  0  0
  151.9442  141.1438  159.1861 H   0  0  0  0  0  0  0  0  0  0  0  0
  153.4016  141.6425  158.3198 H   0  0  0  0  0  0  0  0  0  0  0  0
  148.9233  142.1683  157.2951 H   0  0  0  0  0  0  0  0  0  0  0  0
  147.6811  140.4861  156.0159 H   0  0  0  0  0  0  0  0  0  0  0  0
  149.4410  138.0362  153.7927 H   0  0  0  0  0  0  0  0  0  0  0  0
  148.0597  136.7996  153.0189 H   0  0  0  0  0  0  0  0  0  0  0  0
  145.6562  135.9612  154.2160 H   0  0  0  0  0  0  0  0  0  0  0  0
  144.7808  138.2123  153.7911 H   0  0  0  0  0  0  0  0  0  0  0  0
  145.2962  138.1414  152.1199 H   0  0  0  0  0  0  0  0  0  0  0  0
  143.1770  136.3402  153.4124 H   0  0  0  0  0  0  0  0  0  0  0  0
  142.8965  137.6087  152.2369 H   0  0  0  0  0  0  0  0  0  0  0  0
  144.3315  134.3491  152.7041 H   0  0  0  0  0  0  0  0  0  0  0  0
  145.0666  134.3712  149.7267 H   0  0  0  0  0  0  0  0  0  0  0  0
  143.1229  132.5968  151.3926 H   0  0  0  0  0  0  0  0  0  0  0  0
  143.4701  132.4626  149.5917 H   0  0  0  0  0  0  0  0  0  0  0  0
  145.9048  132.0644  150.0938 H   0  0  0  0  0  0  0  0  0  0  0  0
  145.5536  132.2001  151.8941 H   0  0  0  0  0  0  0  0  0  0  0  0
  146.5131  135.9580  151.2762 H   0  0  0  0  0  0  0  0  0  0  0  0
  146.7941  134.6631  152.4147 H   0  0  0  0  0  0  0  0  0  0  0  0
  1  2  1  0  0  0  0
  1 26  1  0  0  0  0
  1 27  1  0  0  0  0
  1 28  1  0  0  0  0
  2 12  1  0  0  0  0
  2  3  2  0  0  0  0
  3  4  1  0  0  0  0
  4  5  1  0  0  0  0
  4 10  2  0  0  0  0
  5  9  1  0  0  0  0
  5  6  1  0  0  0  0
  6  7  1  0  0  0  0
  6 29  1  0  0  0  0
  6 30  1  0  0  0  0
  7  8  1  0  0  0  0
  7 31  1  0  0  0  0
  7 32  1  0  0  0  0
  8  9  1  0  0  0  0
  8 33  1  0  0  0  0
  8 34  1  0  0  0  0
  9 35  1  0  0  0  0
  9 36  1  0  0  0  0
 10 11  1  0  0  0  0
 10 37  1  0  0  0  0
 11 12  2  0  0  0  0
 11 38  1  0  0  0  0
 12 13  1  0  0  0  0
 13 14  1  0  0  0  0
 13 39  1  0  0  0  0
 14 15  2  0  0  0  0
 14 16  1  0  0  0  0
 16 17  1  0  0  0  0
 16 40  1  0  0  0  0
 17 25  1  0  0  0  0
 17 18  1  0  0  0  0
 17 41  1  0  0  0  0
 18 19  1  0  0  0  0
 18 42  1  0  0  0  0
 18 43  1  0  0  0  0
 19 20  1  0  0  0  0
 19 44  1  0  0  0  0
 19 45  1  0  0  0  0
 20 21  1  0  0  0  0
 21 22  1  0  0  0  0
 21 25  1  0  0  0  0
 21 46  1  0  0  0  0
 22 24  1  0  0  0  0
 22 23  1  0  0  0  0
 22 47  1  0  0  0  0
 23 24  1  0  0  0  0
 23 48  1  0  0  0  0
 23 49  1  0  0  0  0
 24 50  1  0  0  0  0
 24 51  1  0  0  0  0
 25 52  1  0  0  0  0
 25 53  1  0  0  0  0
M  END
> <s_m_source_file>
AV-unprocessed.smi

> <i_m_source_file_index>
2356

> <i_lp_mmshare_version>
43012

> <i_f3d_flags>
0

> <s_epik_input>
W0NIMl0xW0NIMl1bQ0gyXVtDSDJdTjFjKG5jMltDSDNdKVtjSF1bY0hdYzJbTkhdQyg9TylbTkhdW0NAQEhdM1tDSDJdW0NIMl1PW0NASF0oW0NIMl0zKVtDSF00W0NIMl1bQ0gyXTQ=

> <s_epik_cmdline>
J2VwaWtfcHl0aG9uJywgJy1waCcsICc3LjAnLCAnLXRuJywgJzgnLCAnLW1hJywgJzIwMCcsICctbWV0YWxfYmluZGluZycsICctaW1hZScsICc8aW5maWxlLm1hZT4nLCAnLW9tYWUnLCAnPG91dGZpbGUubWFlPic=

> <r_lp_tautomer_probability>
1

> <r_epik_Ionization_Penalty>
0.308781

> <r_epik_Ionization_Penalty_Charging>
0

> <r_epik_Ionization_Penalty_Neutral>
0.308781

> <r_epik_State_Penalty>
0.302092

> <r_epik_Charging_Adjusted_Penalty>
0.302092

> <i_epik_Tot_Q>
0

> <i_epik_Tot_abs_Q>
0

> <r_epik_Metal_State_Penalty>
0.197467

> <b_epik_Metal_Only>
0

> <s_lp_Force_Field>
OPLS_2005

> <r_lp_Energy>
52.5469

> <b_lp_Chiralities_Consistent>
1

> <s_lp_Variant>
AV-unprocessed.smi:2356-2

> <Gold.Version>
5.8.1

> <Gold.Id.Protein>
6NUR|6NUR_protein|mol2

> <Gold.PLP.Fitness>
43.1295

> <Gold.PLP.PLP>
-42.0730

> <Gold.PLP.part.hbond>
-1.0000

> <Gold.PLP.part.metal>
0.0000

> <Gold.PLP.part.buried>
-4.4491

> <Gold.PLP.part.nonpolar>
-37.1885

> <Gold.PLP.part.repulsive>
0.2691

> <Gold.PLP.ligand.clash>
0.0000

> <Gold.PLP.ligand.torsion>
1.6012

> <Gold.PLP.Chemscore.Hbond>
1.0000

> <Gold.PLP.Chemscore.CHOScore>
0.0000

> <Gold.PLP.Chemscore.Metal>
0.0000

> <Gold.Chemscore.Hbonds>
donor molecule, donor type, donor heavy atom, donor atom, acceptor molecule, acceptor atom, score
      L1  H    16    40       P1  7948  1.00

> <Gold.PLP.Chemscore.Internal.Correction>
1.2588

> <Gold.Rescore>
     Score         DG    S(hbond)    S(metal)    S(lipo)     H(rot)  DE(clash)    DE(int)     intcor
     16.30     -19.38       0.99        0.00     115.35       1.14       0.34       2.74       ----

> <Gold.Chemscore.Fitness>
16.2988

> <Gold.Chemscore.DG>
-19.3819

> <Gold.Chemscore.ZeroCoef>
-5.4800

> <Gold.Chemscore.Hbond>
0.9948

> <Gold.Chemscore.Metal>
0.0000

> <Gold.Chemscore.Lipo>
115.3547

> <Gold.Chemscore.Internal_Hbond>
0.0000

> <Gold.Chemscore.DEClash>
0.3426

> <Gold.Chemscore.DEInternal>
2.7405

> <Gold.Chemscore.Rot>
1.1395

> <Gold.Chemscore.Internal.Correction>
   9.000000E+99

> <Gold.Chemscore.Hbonds>
donor molecule, donor type, donor heavy atom, donor atom, acceptor molecule, acceptor atom, score
      L1  H    16    40       P1  7948  0.97

> <Gold.Chemscore.Hbond.Weighted>
-3.3226

> <Gold.Chemscore.Metal.Weighted>
-0.0000

> <Gold.Chemscore.Lipo.Weighted>
-13.4965

> <Gold.Chemscore.Internal_Hbond.Weighted>
0.0000

> <Gold.Chemscore.DEClash.Weighted>
0.3426

> <Gold.Chemscore.DEInternal.Weighted>
2.7405

> <Gold.Chemscore.Rot.Weighted>
2.9171

> <Gold.Chemscore.Internal.Correction.Weighted>
   9.000000E+99

> <Gold.Protein.RotatedTorsions>
[ 6907 6896 6895 6894 ] final  106.75 input  -60.11 | X-H torsion
[ 7974 7965 7964 7962 ] final -157.32 input  175.53 | X-H torsion
[ 8008 7997 7996 7995 ] final  -34.75 input   59.86 | X-H torsion
[ 10167 10162 10161 10158 ] final  124.04 input  -65.29 | X-H torsion
[ 10718 10713 10712 10709 ] final   69.53 input   66.30 | X-H torsion
[ 10763 10752 10751 10750 ] final  -19.55 input  -60.55 | X-H torsion
[ 11005 11000 10999 10996 ] final -135.84 input  -57.11 | X-H torsion

> <Gold.Protein.ActiveResidues>
 VAL166  LYS551  ARG553  GLY616  TRP617  ASP618  TYR619  PRO620  LYS621  CYS622 
 ASP623  PHE694  ASN695  SER759  ASP760  ASP761  ALA762  ILE779  LEU786  VAL792 
 PHE793  MET794  SER795  GLU796  ALA797  LYS798  CYS799  TRP800  GLU811  SER814 

> <Gold.Protein.RotatedAtoms>
  152.5182  133.9336  159.7592 H   0  0  0  0  0  0  0  0  0  0  0  0  # atno 6907 bound_to 6896
  150.9681  133.6365  159.2749 H   0  0  0  0  0  0  0  0  0  0  0  0  # atno 6908 bound_to 6896
  151.3586  135.0905  159.9480 H   0  0  0  0  0  0  0  0  0  0  0  0  # atno 6909 bound_to 6896
  144.7553  140.3986  143.6017 H   0  0  0  0  0  0  0  0  0  0  0  0  # atno 7974 bound_to 7965
  154.4112  140.1675  156.2101 H   0  0  0  0  0  0  0  0  0  0  0  0  # atno 8008 bound_to 7997
  155.9451  140.3405  155.6337 H   0  0  0  0  0  0  0  0  0  0  0  0  # atno 8009 bound_to 7997
  155.6940  140.0737  157.2427 H   0  0  0  0  0  0  0  0  0  0  0  0  # atno 8010 bound_to 7997
  139.5764  144.6965  151.3642 H   0  0  0  0  0  0  0  0  0  0  0  0  # atno 10167 bound_to 10162
  157.6351  130.9430  150.0526 H   0  0  0  0  0  0  0  0  0  0  0  0  # atno 10718 bound_to 10713
  153.6066  135.6997  153.5363 H   0  0  0  0  0  0  0  0  0  0  0  0  # atno 10763 bound_to 10752
  153.3052  135.4117  155.1287 H   0  0  0  0  0  0  0  0  0  0  0  0  # atno 10764 bound_to 10752
  154.8572  135.3658  154.5603 H   0  0  0  0  0  0  0  0  0  0  0  0  # atno 10765 bound_to 10752
  140.8861  134.1871  157.4559 H   0  0  0  0  0  0  0  0  0  0  0  0  # atno 11005 bound_to 11000
  145.6799  139.1616  143.2706 LP  0  0  0  0  0  0  0  0  0  0  0  0  # atno 17320 bound_to 7965
  146.1556  140.6862  142.9301 LP  0  0  0  0  0  0  0  0  0  0  0  0  # atno 17321 bound_to 7965
  140.7046  143.7545  150.7460 LP  0  0  0  0  0  0  0  0  0  0  0  0  # atno 17342 bound_to 10162
  140.1066  143.4738  152.2394 LP  0  0  0  0  0  0  0  0  0  0  0  0  # atno 17343 bound_to 10162
  156.1583  130.3643  149.9336 LP  0  0  0  0  0  0  0  0  0  0  0  0  # atno 17370 bound_to 10713
  156.7340  130.9054  151.3628 LP  0  0  0  0  0  0  0  0  0  0  0  0  # atno 17371 bound_to 10713
  139.8724  134.9838  156.5214 LP  0  0  0  0  0  0  0  0  0  0  0  0  # atno 17394 bound_to 11000
  140.8403  133.8210  155.9069 LP  0  0  0  0  0  0  0  0  0  0  0  0  # atno 17395 bound_to 11000

$$$$
