AV-unprocessed.smi:2750|AV-procd|sdf|10589|dock3
  -GOLD-   2272015 43D 1   1.00000     0.00000
 Structure written by MMmdl.
 25 26  0  0  0  0  0  0  0  0  2 V2000
  154.0990  138.5089  157.6975 O   0  0  0  0  0  0  0  0  0  0  0  0
  153.8128  137.4205  157.1526 C   0  0  0  0  0  0  0  0  0  0  0  0
  154.6258  136.5107  156.8758 O   0  5  0  0  0  0  0  0  0  0  0  0
  152.3415  137.1793  156.8080 C   0  0  0  0  0  0  0  0  0  0  0  0
  151.7598  138.2863  156.0708 N   0  0  0  0  0  0  0  0  0  0  0  0
  150.4982  138.3840  155.5212 C   0  0  0  0  0  0  0  0  0  0  0  0
  150.5062  139.6131  154.9269 C   0  0  0  0  0  0  0  0  0  0  0  0
  149.4317  140.2787  154.1207 C   0  0  0  0  0  0  0  0  0  0  0  0
  148.0824  139.5355  154.1961 C   0  0  2  0  0  0  0  0  0  0  0  0
  147.8879  138.5855  153.1133 N   0  0  0  0  0  0  0  0  0  0  0  0
  146.8007  138.8605  152.3806 C   0  0  0  0  0  0  0  0  0  0  0  0
  146.4021  138.2205  151.4104 O   0  0  0  0  0  0  0  0  0  0  0  0
  146.2265  139.9559  152.8900 N   0  0  0  0  0  0  0  0  0  0  0  0
  146.8917  140.4394  153.9377 C   0  0  0  0  0  0  0  0  0  0  0  0
  146.6126  141.4404  154.5948 O   0  0  0  0  0  0  0  0  0  0  0  0
  151.7492  140.2077  155.1436 N   0  0  0  0  0  0  0  0  0  0  0  0
  152.4932  139.4003  155.8322 N   0  0  0  0  0  0  0  0  0  0  0  0
  152.2599  136.2756  156.2035 H   0  0  0  0  0  0  0  0  0  0  0  0
  151.7611  137.0081  157.7164 H   0  0  0  0  0  0  0  0  0  0  0  0
  149.7569  137.6011  155.5825 H   0  0  0  0  0  0  0  0  0  0  0  0
  149.2965  141.3032  154.4696 H   0  0  0  0  0  0  0  0  0  0  0  0
  149.7525  140.3623  153.0809 H   0  0  0  0  0  0  0  0  0  0  0  0
  147.9672  139.0251  155.1534 H   0  0  0  0  0  0  0  0  0  0  0  0
  148.5148  137.8118  152.9440 H   0  0  0  0  0  0  0  0  0  0  0  0
  145.3890  140.3758  152.5145 H   0  0  0  0  0  0  0  0  0  0  0  0
  1  2  2  0  0  0  0
  2  3  1  0  0  0  0
  2  4  1  0  0  0  0
  4  5  1  0  0  0  0
  4 18  1  0  0  0  0
  4 19  1  0  0  0  0
  5 17  1  0  0  0  0
  5  6  1  0  0  0  0
  6  7  2  0  0  0  0
  6 20  1  0  0  0  0
  7  8  1  0  0  0  0
  7 16  1  0  0  0  0
  8  9  1  0  0  0  0
  8 21  1  0  0  0  0
  8 22  1  0  0  0  0
  9 14  1  0  0  0  0
  9 10  1  0  0  0  0
  9 23  1  0  0  0  0
 10 11  1  0  0  0  0
 10 24  1  0  0  0  0
 11 12  2  0  0  0  0
 11 13  1  0  0  0  0
 13 14  1  0  0  0  0
 13 25  1  0  0  0  0
 14 15  2  0  0  0  0
 16 17  2  0  0  0  0
M  CHG  1   3  -1
M  END
> <s_m_source_file>
AV-unprocessed.smi

> <i_m_source_file_index>
2750

> <i_lp_mmshare_version>
43012

> <i_f3d_flags>
0

> <s_epik_input>
Tz1DKFtPSF0pW0NIMl1uMVtjSF1jKG5uMSlbQ0gyXVtDQEBIXTJbTkhdQyg9TylbTkhdQzI9Tw==

> <s_epik_cmdline>
J2VwaWtfcHl0aG9uJywgJy1waCcsICc3LjAnLCAnLXRuJywgJzgnLCAnLW1hJywgJzIwMCcsICctbWV0YWxfYmluZGluZycsICctaW1hZScsICc8aW5maWxlLm1hZT4nLCAnLW9tYWUnLCAnPG91dGZpbGUubWFlPic=

> <r_lp_tautomer_probability>
1

> <r_epik_Ionization_Penalty>
0.019671

> <r_epik_Ionization_Penalty_Charging>
2.66176e-05

> <r_epik_Ionization_Penalty_Neutral>
0.0196444

> <r_epik_State_Penalty>
0.0155882

> <r_epik_Charging_Adjusted_Penalty>
0.0156148

> <i_epik_Tot_Q>
-1

> <i_epik_Tot_abs_Q>
1

> <r_epik_Metal_State_Penalty>
0.396229

> <b_epik_Metal_Only>
0

> <s_lp_Force_Field>
OPLS_2005

> <r_lp_Energy>
13.3356

> <b_lp_Chiralities_Consistent>
1

> <s_lp_Variant>
AV-unprocessed.smi:2750-1

> <Gold.Version>
5.8.1

> <Gold.Id.Protein>
6NUR|6NUR_protein|mol2

> <Gold.PLP.Fitness>
43.3427

> <Gold.PLP.PLP>
-23.1474

> <Gold.PLP.part.hbond>
-7.8019

> <Gold.PLP.part.metal>
0.0000

> <Gold.PLP.part.buried>
-2.7529

> <Gold.PLP.part.nonpolar>
-15.3264

> <Gold.PLP.part.repulsive>
1.1863

> <Gold.PLP.ligand.clash>
0.0000

> <Gold.PLP.ligand.torsion>
0.5593

> <Gold.PLP.Chemscore.Hbond>
7.0928

> <Gold.PLP.Chemscore.CHOScore>
0.0000

> <Gold.PLP.Chemscore.Metal>
0.0000

> <Gold.Chemscore.Hbonds>
donor molecule, donor type, donor heavy atom, donor atom, acceptor molecule, acceptor atom, score
      L1  H    10    24       P1  7948  0.96
      L1  H    13    25       P1 10175  1.00
      P1  H  7954  7966       L1    12  0.19
      P1  H  7989  7998       L1    16  0.40
      P1  H  7997  8009       L1     1  1.92
      P1  H 10752 10764       L1     3  1.98

> <Gold.PLP.Chemscore.Internal.Correction>
0.0355

> <Gold.Rescore>
     Score         DG    S(hbond)    S(metal)    S(lipo)     H(rot)  DE(clash)    DE(int)     intcor
     11.07     -14.00       3.66        0.00      30.39       2.84       0.63       2.30       ----

> <Gold.Chemscore.Fitness>
11.0695

> <Gold.Chemscore.DG>
-13.9987

> <Gold.Chemscore.ZeroCoef>
-5.4800

> <Gold.Chemscore.Hbond>
3.6592

> <Gold.Chemscore.Metal>
0.0000

> <Gold.Chemscore.Lipo>
30.3895

> <Gold.Chemscore.Internal_Hbond>
0.0000

> <Gold.Chemscore.DEClash>
0.6333

> <Gold.Chemscore.DEInternal>
2.2959

> <Gold.Chemscore.Rot>
2.8354

> <Gold.Chemscore.Internal.Correction>
   9.000000E+99

> <Gold.Chemscore.Hbonds>
donor molecule, donor type, donor heavy atom, donor atom, acceptor molecule, acceptor atom, score
      L1  H    10    24       P1  7948  0.91
      L1  H    13    25       P1 10175  0.67
      P1  H  7954  7966       L1    12  0.16
      P1  H  7989  7998       L1    16  0.01
      P1  H  7997  8009       L1     1  0.92
      P1  H 10752 10764       L1     3  0.88

> <Gold.Chemscore.Hbond.Weighted>
-12.2217

> <Gold.Chemscore.Metal.Weighted>
-0.0000

> <Gold.Chemscore.Lipo.Weighted>
-3.5556

> <Gold.Chemscore.Internal_Hbond.Weighted>
0.0000

> <Gold.Chemscore.DEClash.Weighted>
0.6333

> <Gold.Chemscore.DEInternal.Weighted>
2.2959

> <Gold.Chemscore.Rot.Weighted>
7.2586

> <Gold.Chemscore.Internal.Correction.Weighted>
   9.000000E+99

> <Gold.Protein.RotatedTorsions>
[ 6907 6896 6895 6894 ] final   90.64 input  -60.11 | X-H torsion
[ 7974 7965 7964 7962 ] final    6.78 input  175.53 | X-H torsion
[ 8008 7997 7996 7995 ] final  149.68 input   59.86 | X-H torsion
[ 10167 10162 10161 10158 ] final  125.83 input  -65.29 | X-H torsion
[ 10718 10713 10712 10709 ] final -175.68 input   66.30 | X-H torsion
[ 10763 10752 10751 10750 ] final   38.15 input  -60.55 | X-H torsion
[ 11005 11000 10999 10996 ] final   53.39 input  -57.11 | X-H torsion

> <Gold.Protein.ActiveResidues>
 VAL166  LYS551  ARG553  GLY616  TRP617  ASP618  TYR619  PRO620  LYS621  CYS622 
 ASP623  PHE694  ASN695  SER759  ASP760  ASP761  ALA762  ILE779  LEU786  VAL792 
 PHE793  MET794  SER795  GLU796  ALA797  LYS798  CYS799  TRP800  GLU811  SER814 

> <Gold.Protein.RotatedAtoms>
  152.5446  134.1781  159.8623 H   0  0  0  0  0  0  0  0  0  0  0  0  # atno 6907 bound_to 6896
  151.1785  133.4732  159.2601 H   0  0  0  0  0  0  0  0  0  0  0  0  # atno 6908 bound_to 6896
  151.1202  135.0086  159.8590 H   0  0  0  0  0  0  0  0  0  0  0  0  # atno 6909 bound_to 6896
  146.2432  140.0181  142.8400 H   0  0  0  0  0  0  0  0  0  0  0  0  # atno 7974 bound_to 7965
  156.2745  140.2095  156.5897 H   0  0  0  0  0  0  0  0  0  0  0  0  # atno 8008 bound_to 7997
  154.6992  140.0522  157.0465 H   0  0  0  0  0  0  0  0  0  0  0  0  # atno 8009 bound_to 7997
  155.0758  140.3181  155.4619 H   0  0  0  0  0  0  0  0  0  0  0  0  # atno 8010 bound_to 7997
  139.5664  144.6914  151.3898 H   0  0  0  0  0  0  0  0  0  0  0  0  # atno 10167 bound_to 10162
  156.8035  130.9560  151.3118 H   0  0  0  0  0  0  0  0  0  0  0  0  # atno 10718 bound_to 10713
  153.0011  135.6257  154.2259 H   0  0  0  0  0  0  0  0  0  0  0  0  # atno 10763 bound_to 10752
  154.2002  135.2804  155.2995 H   0  0  0  0  0  0  0  0  0  0  0  0  # atno 10764 bound_to 10752
  154.5690  135.5682  153.7136 H   0  0  0  0  0  0  0  0  0  0  0  0  # atno 10765 bound_to 10752
  140.0771  134.5389  155.8985 H   0  0  0  0  0  0  0  0  0  0  0  0  # atno 11005 bound_to 11000
  145.1266  140.9493  143.4569 LP  0  0  0  0  0  0  0  0  0  0  0  0  # atno 17320 bound_to 7965
  145.0429  139.3245  143.5967 LP  0  0  0  0  0  0  0  0  0  0  0  0  # atno 17321 bound_to 7965
  140.6948  143.7776  150.7309 LP  0  0  0  0  0  0  0  0  0  0  0  0  # atno 17342 bound_to 10162
  140.1269  143.4561  152.2278 LP  0  0  0  0  0  0  0  0  0  0  0  0  # atno 17343 bound_to 10162
  157.6542  130.8910  149.9694 LP  0  0  0  0  0  0  0  0  0  0  0  0  # atno 17370 bound_to 10713
  156.1087  130.3651  150.0088 LP  0  0  0  0  0  0  0  0  0  0  0  0  # atno 17371 bound_to 10713
  141.2033  133.6631  156.6057 LP  0  0  0  0  0  0  0  0  0  0  0  0  # atno 17394 bound_to 11000
  140.3541  134.7743  157.4488 LP  0  0  0  0  0  0  0  0  0  0  0  0  # atno 17395 bound_to 11000

$$$$
