AV-unprocessed.smi:1662|AV-procd|sdf|6659|dock8
  -GOLD-   22720 7373D 1   1.00000     0.00000
 Structure written by MMmdl.
 47 48  0  0  0  0  0  0  0  0  1 V2000
  146.9674  138.6285  158.0338 C   0  0  0  0  0  0  0  0  0  0  0  0
  147.4566  139.4393  156.8642 C   0  0  0  0  0  0  0  0  0  0  0  0
  148.6148  139.1250  156.3840 N   0  0  0  0  0  0  0  0  0  0  0  0
  149.1601  139.8095  155.3150 N   0  0  0  0  0  0  0  0  0  0  0  0
  150.4890  139.3283  154.9090 C   0  0  0  0  0  0  0  0  0  0  0  0
  151.6159  139.7886  155.8451 C   0  0  0  0  0  0  0  0  0  0  0  0
  152.7660  139.3711  155.7019 O   0  0  0  0  0  0  0  0  0  0  0  0
  151.2655  140.6696  156.7944 N   0  0  0  0  0  0  0  0  0  0  0  0
  152.1661  141.2514  157.7885 C   0  0  2  0  0  0  0  0  0  0  0  0
  152.5021  140.1886  158.8533 C   0  0  0  0  0  0  0  0  0  0  0  0
  153.4071  140.7616  159.9474 C   0  0  0  0  0  0  0  0  0  0  0  0
  152.7550  141.9855  160.5986 C   0  0  0  0  0  0  0  0  0  0  0  0
  152.4285  143.0807  159.5637 C   0  0  2  0  0  0  0  0  0  0  0  0
  151.8081  144.2945  160.2805 C   0  0  0  0  0  0  0  0  0  0  0  0
  151.5348  142.5232  158.4189 C   0  0  1  0  0  0  0  0  0  0  0  0
  151.2459  143.5909  157.3405 C   0  0  0  0  0  0  0  0  0  0  0  0
  148.5572  140.8496  154.6695 C   0  0  0  0  0  0  0  0  0  0  0  0
  149.0806  141.4316  153.7181 O   0  0  0  0  0  0  0  0  0  0  0  0
  147.2444  141.1981  155.2173 C   0  0  0  0  0  0  0  0  0  0  0  0
  146.5794  142.2843  154.5728 C   0  0  0  0  0  0  0  0  0  0  0  0
  146.0293  143.1510  154.0373 N   0  0  0  0  0  0  0  0  0  0  0  0
  146.6984  140.5335  156.2663 C   0  0  0  0  0  0  0  0  0  0  0  0
  145.3395  140.8579  156.8715 C   0  0  0  0  0  0  0  0  0  0  0  0
  146.0879  138.0462  157.7590 H   0  0  0  0  0  0  0  0  0  0  0  0
  146.6979  139.2752  158.8689 H   0  0  0  0  0  0  0  0  0  0  0  0
  147.7265  137.9315  158.3917 H   0  0  0  0  0  0  0  0  0  0  0  0
  150.5025  138.2373  154.8774 H   0  0  0  0  0  0  0  0  0  0  0  0
  150.7058  139.6527  153.8893 H   0  0  0  0  0  0  0  0  0  0  0  0
  150.2994  140.9606  156.8342 H   0  0  0  0  0  0  0  0  0  0  0  0
  153.0932  141.5490  157.2941 H   0  0  0  0  0  0  0  0  0  0  0  0
  151.5827  139.8111  159.3034 H   0  0  0  0  0  0  0  0  0  0  0  0
  152.9929  139.3318  158.3903 H   0  0  0  0  0  0  0  0  0  0  0  0
  153.6064  140.0001  160.7018 H   0  0  0  0  0  0  0  0  0  0  0  0
  154.3725  141.0385  159.5221 H   0  0  0  0  0  0  0  0  0  0  0  0
  151.8431  141.6806  161.1140 H   0  0  0  0  0  0  0  0  0  0  0  0
  153.4226  142.3818  161.3646 H   0  0  0  0  0  0  0  0  0  0  0  0
  153.3722  143.4085  159.1249 H   0  0  0  0  0  0  0  0  0  0  0  0
  150.8168  144.0610  160.6697 H   0  0  0  0  0  0  0  0  0  0  0  0
  151.7170  145.1561  159.6203 H   0  0  0  0  0  0  0  0  0  0  0  0
  152.4267  144.6095  161.1213 H   0  0  0  0  0  0  0  0  0  0  0  0
  150.5777  142.2349  158.8574 H   0  0  0  0  0  0  0  0  0  0  0  0
  152.1700  143.9647  156.8986 H   0  0  0  0  0  0  0  0  0  0  0  0
  150.7017  144.4419  157.7478 H   0  0  0  0  0  0  0  0  0  0  0  0
  150.6304  143.1981  156.5315 H   0  0  0  0  0  0  0  0  0  0  0  0
  144.8011  141.6099  156.2959 H   0  0  0  0  0  0  0  0  0  0  0  0
  145.4572  141.2398  157.8858 H   0  0  0  0  0  0  0  0  0  0  0  0
  144.7105  139.9681  156.9094 H   0  0  0  0  0  0  0  0  0  0  0  0
  1  2  1  0  0  0  0
  1 24  1  0  0  0  0
  1 25  1  0  0  0  0
  1 26  1  0  0  0  0
  2 22  1  0  0  0  0
  2  3  2  0  0  0  0
  3  4  1  0  0  0  0
  4  5  1  0  0  0  0
  4 17  1  0  0  0  0
  5  6  1  0  0  0  0
  5 27  1  0  0  0  0
  5 28  1  0  0  0  0
  6  7  2  0  0  0  0
  6  8  1  0  0  0  0
  8  9  1  0  0  0  0
  8 29  1  0  0  0  0
  9 15  1  0  0  0  0
  9 10  1  0  0  0  0
  9 30  1  0  0  0  0
 10 11  1  0  0  0  0
 10 31  1  0  0  0  0
 10 32  1  0  0  0  0
 11 12  1  0  0  0  0
 11 33  1  0  0  0  0
 11 34  1  0  0  0  0
 12 13  1  0  0  0  0
 12 35  1  0  0  0  0
 12 36  1  0  0  0  0
 13 14  1  0  0  0  0
 13 15  1  0  0  0  0
 13 37  1  0  0  0  0
 14 38  1  0  0  0  0
 14 39  1  0  0  0  0
 14 40  1  0  0  0  0
 15 16  1  0  0  0  0
 15 41  1  0  0  0  0
 16 42  1  0  0  0  0
 16 43  1  0  0  0  0
 16 44  1  0  0  0  0
 17 18  2  0  0  0  0
 17 19  1  0  0  0  0
 19 20  1  0  0  0  0
 19 22  2  0  0  0  0
 20 21  3  0  0  0  0
 22 23  1  0  0  0  0
 23 45  1  0  0  0  0
 23 46  1  0  0  0  0
 23 47  1  0  0  0  0
M  END
> <s_m_source_file>
AV-unprocessed.smi

> <i_m_source_file_index>
1662

> <i_lp_mmshare_version>
43012

> <i_f3d_flags>
0

> <s_epik_input>
TiNDYyhjMVtDSDNdKWMoPU8pbihuYzFbQ0gzXSlbQ0gyXUMoPU8pW05IXVtDQEBIXTJbQ0gyXVtDSDJdW0NIMl1bQ0BASF0oW0NIM10pW0NASF0yW0NIM10=

> <s_epik_cmdline>
J2VwaWtfcHl0aG9uJywgJy1waCcsICc3LjAnLCAnLXRuJywgJzgnLCAnLW1hJywgJzIwMCcsICctbWV0YWxfYmluZGluZycsICctaW1hZScsICc8aW5maWxlLm1hZT4nLCAnLW9tYWUnLCAnPG91dGZpbGUubWFlPic=

> <r_lp_tautomer_probability>
1

> <r_epik_Ionization_Penalty>
1.90709e-08

> <r_epik_Ionization_Penalty_Charging>
2.37982e-11

> <r_epik_Ionization_Penalty_Neutral>
1.90471e-08

> <r_epik_State_Penalty>
-0

> <r_epik_Charging_Adjusted_Penalty>
2.37982e-11

> <i_epik_Tot_Q>
0

> <i_epik_Tot_abs_Q>
0

> <r_epik_Metal_State_Penalty>
-0

> <b_epik_Metal_Only>
0

> <s_lp_Force_Field>
OPLS_2005

> <r_lp_Energy>
27.4579

> <b_lp_Chiralities_Consistent>
1

> <s_lp_Variant>
AV-unprocessed.smi:1662-3

> <Gold.Version>
5.8.1

> <Gold.Id.Protein>
6NUR|6NUR_protein|mol2

> <Gold.PLP.Fitness>
43.8136

> <Gold.PLP.PLP>
-39.3374

> <Gold.PLP.part.hbond>
-3.1065

> <Gold.PLP.part.metal>
0.0000

> <Gold.PLP.part.buried>
-5.0335

> <Gold.PLP.part.nonpolar>
-33.0164

> <Gold.PLP.part.repulsive>
2.0757

> <Gold.PLP.ligand.clash>
0.0000

> <Gold.PLP.ligand.torsion>
0.4654

> <Gold.PLP.Chemscore.Hbond>
1.8000

> <Gold.PLP.Chemscore.CHOScore>
0.0000

> <Gold.PLP.Chemscore.Metal>
0.0000

> <Gold.Chemscore.Hbonds>
donor molecule, donor type, donor heavy atom, donor atom, acceptor molecule, acceptor atom, score
      P1  H  7997  8009       L1     7  1.00
      P1  H  8011  8017       L1    18  0.80

> <Gold.PLP.Chemscore.Internal.Correction>
0.0071

> <Gold.Rescore>
     Score         DG    S(hbond)    S(metal)    S(lipo)     H(rot)  DE(clash)    DE(int)     intcor
     17.68     -18.26       1.76        0.00      90.78       1.45       0.16       0.41       ----

> <Gold.Chemscore.Fitness>
17.6848

> <Gold.Chemscore.DG>
-18.2568

> <Gold.Chemscore.ZeroCoef>
-5.4800

> <Gold.Chemscore.Hbond>
1.7571

> <Gold.Chemscore.Metal>
0.0000

> <Gold.Chemscore.Lipo>
90.7796

> <Gold.Chemscore.Internal_Hbond>
0.0000

> <Gold.Chemscore.DEClash>
0.1648

> <Gold.Chemscore.DEInternal>
0.4071

> <Gold.Chemscore.Rot>
1.4504

> <Gold.Chemscore.Internal.Correction>
   9.000000E+99

> <Gold.Chemscore.Hbonds>
donor molecule, donor type, donor heavy atom, donor atom, acceptor molecule, acceptor atom, score
      P1  H  7997  8009       L1     7  1.00
      P1  H  8011  8017       L1    18  0.80

> <Gold.Chemscore.Hbond.Weighted>
-5.8686

> <Gold.Chemscore.Metal.Weighted>
-0.0000

> <Gold.Chemscore.Lipo.Weighted>
-10.6212

> <Gold.Chemscore.Internal_Hbond.Weighted>
0.0000

> <Gold.Chemscore.DEClash.Weighted>
0.1648

> <Gold.Chemscore.DEInternal.Weighted>
0.4071

> <Gold.Chemscore.Rot.Weighted>
3.7129

> <Gold.Chemscore.Internal.Correction.Weighted>
   9.000000E+99

> <Gold.Protein.RotatedTorsions>
[ 6907 6896 6895 6894 ] final  144.83 input  -60.11 | X-H torsion
[ 7974 7965 7964 7962 ] final  135.42 input  175.53 | X-H torsion
[ 8008 7997 7996 7995 ] final -138.42 input   59.86 | X-H torsion
[ 10167 10162 10161 10158 ] final   66.43 input  -65.29 | X-H torsion
[ 10718 10713 10712 10709 ] final   89.34 input   66.30 | X-H torsion
[ 10763 10752 10751 10750 ] final   -1.73 input  -60.55 | X-H torsion
[ 11005 11000 10999 10996 ] final  -81.04 input  -57.11 | X-H torsion

> <Gold.Protein.ActiveResidues>
 VAL166  LYS551  ARG553  GLY616  TRP617  ASP618  TYR619  PRO620  LYS621  CYS622 
 ASP623  PHE694  ASN695  SER759  ASP760  ASP761  ALA762  ILE779  LEU786  VAL792 
 PHE793  MET794  SER795  GLU796  ALA797  LYS798  CYS799  TRP800  GLU811  SER814 

> <Gold.Protein.RotatedAtoms>
  152.1887  133.4757  159.4995 H   0  0  0  0  0  0  0  0  0  0  0  0  # atno 6907 bound_to 6896
  150.6947  134.1741  159.4232 H   0  0  0  0  0  0  0  0  0  0  0  0  # atno 6908 bound_to 6896
  151.9654  135.0102  160.0600 H   0  0  0  0  0  0  0  0  0  0  0  0  # atno 6909 bound_to 6896
  144.9666  139.4652  143.5454 H   0  0  0  0  0  0  0  0  0  0  0  0  # atno 7974 bound_to 7965
  155.4280  140.0523  157.3021 H   0  0  0  0  0  0  0  0  0  0  0  0  # atno 8008 bound_to 7997
  154.4872  140.2106  155.9586 H   0  0  0  0  0  0  0  0  0  0  0  0  # atno 8009 bound_to 7997
  156.1292  140.3175  155.8328 H   0  0  0  0  0  0  0  0  0  0  0  0  # atno 8010 bound_to 7997
  140.1005  144.4908  150.7040 H   0  0  0  0  0  0  0  0  0  0  0  0  # atno 10167 bound_to 10162
  157.6954  131.0329  150.3411 H   0  0  0  0  0  0  0  0  0  0  0  0  # atno 10718 bound_to 10713
  153.3488  135.6984  153.6806 H   0  0  0  0  0  0  0  0  0  0  0  0  # atno 10763 bound_to 10752
  153.5541  135.3548  155.2772 H   0  0  0  0  0  0  0  0  0  0  0  0  # atno 10764 bound_to 10752
  154.8649  135.4233  154.2718 H   0  0  0  0  0  0  0  0  0  0  0  0  # atno 10765 bound_to 10752
  141.1667  133.7178  156.8363 H   0  0  0  0  0  0  0  0  0  0  0  0  # atno 11005 bound_to 11000
  146.3369  139.8850  142.8818 LP  0  0  0  0  0  0  0  0  0  0  0  0  # atno 17320 bound_to 7965
  145.2621  141.0080  143.3820 LP  0  0  0  0  0  0  0  0  0  0  0  0  # atno 17321 bound_to 7965
  140.6980  143.2416  151.4945 LP  0  0  0  0  0  0  0  0  0  0  0  0  # atno 17342 bound_to 10162
  139.5674  144.2010  152.1785 LP  0  0  0  0  0  0  0  0  0  0  0  0  # atno 17343 bound_to 10162
  156.3872  130.3891  149.7057 LP  0  0  0  0  0  0  0  0  0  0  0  0  # atno 17370 bound_to 10713
  156.4420  130.7865  151.2886 LP  0  0  0  0  0  0  0  0  0  0  0  0  # atno 17371 bound_to 10713
  140.2015  134.8893  157.3174 LP  0  0  0  0  0  0  0  0  0  0  0  0  # atno 17394 bound_to 11000
  140.2182  134.4055  155.7578 LP  0  0  0  0  0  0  0  0  0  0  0  0  # atno 17395 bound_to 11000

$$$$
