AV-unprocessed.smi:1244|AV-procd|sdf|5228|dock4
  -GOLD-   22720 4333D 1   1.00000     0.00000
 Structure written by MMmdl.
 55 57  0  0  0  0  0  0  0  0  2 V2000
  147.1777  141.5213  154.2763 C   0  0  0  0  0  0  0  0  0  0  0  0
  148.6366  141.3525  154.7128 C   0  0  2  0  0  0  0  0  0  0  0  0
  149.1871  139.9585  154.3630 C   0  0  0  0  0  0  0  0  0  0  0  0
  150.5448  139.7697  154.8561 N   0  0  0  0  0  0  0  0  0  0  0  0
  151.0672  138.4585  154.4696 C   0  0  0  0  0  0  0  0  0  0  0  0
  150.3749  137.2476  155.1292 C   0  0  0  0  0  0  0  0  0  0  0  0
  149.1671  136.8414  154.4176 N   0  0  0  0  0  0  0  0  0  0  0  0
  147.9134  137.0660  154.8333 C   0  0  0  0  0  0  0  0  0  0  0  0
  147.6346  137.6148  155.8992 O   0  0  0  0  0  0  0  0  0  0  0  0
  147.0186  136.6367  153.9283 N   0  0  0  0  0  0  0  0  0  0  0  0
  145.6086  136.8242  153.9461 C   0  0  0  0  0  0  0  0  0  0  0  0
  144.9933  137.6400  154.9300 C   0  0  0  0  0  0  0  0  0  0  0  0
  143.5914  137.7563  154.9702 C   0  0  0  0  0  0  0  0  0  0  0  0
  142.8231  137.0407  154.0361 C   0  0  0  0  0  0  0  0  0  0  0  0
  143.4372  136.2624  153.1214 N   0  3  0  0  0  0  0  0  0  0  0  0
  144.7830  136.1215  153.0208 C   0  0  0  0  0  0  0  0  0  0  0  0
  145.2823  135.2775  152.0021 N   0  0  0  0  0  0  0  0  0  0  0  0
  146.1939  134.1868  152.3266 C   0  0  0  0  0  0  0  0  0  0  0  0
  146.2405  133.3228  151.0693 C   0  0  0  0  0  0  0  0  0  0  0  0
  144.8158  133.4407  150.5357 C   0  0  0  0  0  0  0  0  0  0  0  0
  144.4027  134.8680  150.9112 C   0  0  0  0  0  0  0  0  0  0  0  0
  150.5599  139.9769  156.3017 C   0  0  0  0  0  0  0  0  0  0  0  0
  149.9929  141.3521  156.7075 C   0  0  1  0  0  0  0  0  0  0  0  0
  150.9440  142.5181  156.3887 C   0  0  0  0  0  0  0  0  0  0  0  0
  148.7032  141.5477  156.1245 O   0  0  0  0  0  0  0  0  0  0  0  0
  147.0740  141.3961  153.1982 H   0  0  0  0  0  0  0  0  0  0  0  0
  146.8066  142.5139  154.5326 H   0  0  0  0  0  0  0  0  0  0  0  0
  146.5327  140.7887  154.7622 H   0  0  0  0  0  0  0  0  0  0  0  0
  149.2342  142.1155  154.2133 H   0  0  0  0  0  0  0  0  0  0  0  0
  148.5331  139.1917  154.7815 H   0  0  0  0  0  0  0  0  0  0  0  0
  149.1667  139.8271  153.2805 H   0  0  0  0  0  0  0  0  0  0  0  0
  151.0236  138.3494  153.3849 H   0  0  0  0  0  0  0  0  0  0  0  0
  152.1268  138.4152  154.7253 H   0  0  0  0  0  0  0  0  0  0  0  0
  151.0522  136.3948  155.1658 H   0  0  0  0  0  0  0  0  0  0  0  0
  150.1287  137.4801  156.1662 H   0  0  0  0  0  0  0  0  0  0  0  0
  149.3005  136.3848  153.5273 H   0  0  0  0  0  0  0  0  0  0  0  0
  147.3995  136.2746  153.0664 H   0  0  0  0  0  0  0  0  0  0  0  0
  145.5777  138.1631  155.6721 H   0  0  0  0  0  0  0  0  0  0  0  0
  143.1136  138.3752  155.7153 H   0  0  0  0  0  0  0  0  0  0  0  0
  141.7436  137.0619  153.9955 H   0  0  0  0  0  0  0  0  0  0  0  0
  147.1822  134.5594  152.5984 H   0  0  0  0  0  0  0  0  0  0  0  0
  145.8043  133.6009  153.1602 H   0  0  0  0  0  0  0  0  0  0  0  0
  146.9434  133.7461  150.3502 H   0  0  0  0  0  0  0  0  0  0  0  0
  146.5388  132.2936  151.2708 H   0  0  0  0  0  0  0  0  0  0  0  0
  144.7451  133.2470  149.4651 H   0  0  0  0  0  0  0  0  0  0  0  0
  144.1720  132.7251  151.0491 H   0  0  0  0  0  0  0  0  0  0  0  0
  143.3490  134.9153  151.1895 H   0  0  0  0  0  0  0  0  0  0  0  0
  144.5609  135.5351  150.0634 H   0  0  0  0  0  0  0  0  0  0  0  0
  149.9712  139.1955  156.7849 H   0  0  0  0  0  0  0  0  0  0  0  0
  151.5734  139.8828  156.6904 H   0  0  0  0  0  0  0  0  0  0  0  0
  149.8441  141.3483  157.7875 H   0  0  0  0  0  0  0  0  0  0  0  0
  151.8841  142.4118  156.9301 H   0  0  0  0  0  0  0  0  0  0  0  0
  150.5016  143.4716  156.6780 H   0  0  0  0  0  0  0  0  0  0  0  0
  151.1843  142.5696  155.3274 H   0  0  0  0  0  0  0  0  0  0  0  0
  142.8516  135.7541  152.4586 H   0  0  0  0  0  0  0  0  0  0  0  0
  1  2  1  0  0  0  0
  1 26  1  0  0  0  0
  1 27  1  0  0  0  0
  1 28  1  0  0  0  0
  2 25  1  0  0  0  0
  2  3  1  0  0  0  0
  2 29  1  0  0  0  0
  3  4  1  0  0  0  0
  3 30  1  0  0  0  0
  3 31  1  0  0  0  0
  4  5  1  0  0  0  0
  4 22  1  0  0  0  0
  5  6  1  0  0  0  0
  5 32  1  0  0  0  0
  5 33  1  0  0  0  0
  6  7  1  0  0  0  0
  6 34  1  0  0  0  0
  6 35  1  0  0  0  0
  7  8  1  0  0  0  0
  7 36  1  0  0  0  0
  8  9  2  0  0  0  0
  8 10  1  0  0  0  0
 10 11  1  0  0  0  0
 10 37  1  0  0  0  0
 11 16  1  0  0  0  0
 11 12  2  0  0  0  0
 12 13  1  0  0  0  0
 12 38  1  0  0  0  0
 13 14  2  0  0  0  0
 13 39  1  0  0  0  0
 14 15  1  0  0  0  0
 14 40  1  0  0  0  0
 15 16  2  0  0  0  0
 15 55  1  0  0  0  0
 16 17  1  0  0  0  0
 17 21  1  0  0  0  0
 17 18  1  0  0  0  0
 18 19  1  0  0  0  0
 18 41  1  0  0  0  0
 18 42  1  0  0  0  0
 19 20  1  0  0  0  0
 19 43  1  0  0  0  0
 19 44  1  0  0  0  0
 20 21  1  0  0  0  0
 20 45  1  0  0  0  0
 20 46  1  0  0  0  0
 21 47  1  0  0  0  0
 21 48  1  0  0  0  0
 22 23  1  0  0  0  0
 22 49  1  0  0  0  0
 22 50  1  0  0  0  0
 23 24  1  0  0  0  0
 23 25  1  0  0  0  0
 23 51  1  0  0  0  0
 24 52  1  0  0  0  0
 24 53  1  0  0  0  0
 24 54  1  0  0  0  0
M  CHG  1  15   1
M  END
> <s_m_source_file>
AV-unprocessed.smi

> <i_m_source_file_index>
1244

> <i_lp_mmshare_version>
43012

> <i_f3d_flags>
0

> <s_epik_input>
W0NIM11bQ0BASF0xW0NIMl1OKFtDSDJdW0NASF0oTzEpW0NIM10pW0NIMl1bQ0gyXVtOSF1DKD1PKVtOSF1jMltjSF1bY0hdW2NIXW5jMk4zW0NIMl1bQ0gyXVtDSDJdW0NIMl0z

> <s_epik_cmdline>
J2VwaWtfcHl0aG9uJywgJy1waCcsICc3LjAnLCAnLXRuJywgJzgnLCAnLW1hJywgJzIwMCcsICctbWV0YWxfYmluZGluZycsICctaW1hZScsICc8aW5maWxlLm1hZT4nLCAnLW9tYWUnLCAnPG91dGZpbGUubWFlPic=

> <r_epik_Ionization_Penalty>
1.38385

> <r_epik_Ionization_Penalty_Charging>
1.11784

> <r_epik_Ionization_Penalty_Neutral>
0.26601

> <r_epik_State_Penalty>
1.46794

> <r_epik_Charging_Adjusted_Penalty>
2.58578

> <i_epik_Tot_Q>
1

> <i_epik_Tot_abs_Q>
1

> <r_epik_Metal_State_Penalty>
1.54908

> <b_epik_Metal_Only>
0

> <s_lp_Force_Field>
OPLS_2005

> <r_lp_Energy>
60.0137

> <b_lp_Chiralities_Consistent>
1

> <s_lp_Variant>
AV-unprocessed.smi:1244-8

> <Gold.Version>
5.8.1

> <Gold.Id.Protein>
6NUR|6NUR_protein|mol2

> <Gold.PLP.Fitness>
42.4876

> <Gold.PLP.PLP>
-34.5945

> <Gold.PLP.part.hbond>
-3.0000

> <Gold.PLP.part.metal>
0.0000

> <Gold.PLP.part.buried>
-4.0621

> <Gold.PLP.part.nonpolar>
-27.8684

> <Gold.PLP.part.repulsive>
0.4750

> <Gold.PLP.ligand.clash>
0.0000

> <Gold.PLP.ligand.torsion>
0.4819

> <Gold.PLP.Chemscore.Hbond>
2.7940

> <Gold.PLP.Chemscore.CHOScore>
0.0000

> <Gold.PLP.Chemscore.Metal>
0.0000

> <Gold.Chemscore.Hbonds>
donor molecule, donor type, donor heavy atom, donor atom, acceptor molecule, acceptor atom, score
      L1  H     7    36       P1  7948  1.00
      L1  H    10    37       P1  7948  0.93
      P1  H  7989  7998       L1     4  0.79

> <Gold.PLP.Chemscore.Internal.Correction>
0.4748

> <Gold.Rescore>
     Score         DG    S(hbond)    S(metal)    S(lipo)     H(rot)  DE(clash)    DE(int)     intcor
     15.58     -17.57       1.85        0.00      84.96       1.58       0.08       1.91       ----

> <Gold.Chemscore.Fitness>
15.5754

> <Gold.Chemscore.DG>
-17.5663

> <Gold.Chemscore.ZeroCoef>
-5.4800

> <Gold.Chemscore.Hbond>
1.8534

> <Gold.Chemscore.Metal>
0.0000

> <Gold.Chemscore.Lipo>
84.9573

> <Gold.Chemscore.Internal_Hbond>
0.0000

> <Gold.Chemscore.DEClash>
0.0824

> <Gold.Chemscore.DEInternal>
1.9084

> <Gold.Chemscore.Rot>
1.5797

> <Gold.Chemscore.Internal.Correction>
   9.000000E+99

> <Gold.Chemscore.Hbonds>
donor molecule, donor type, donor heavy atom, donor atom, acceptor molecule, acceptor atom, score
      L1  H     7    36       P1  7948  0.85
      L1  H    10    37       P1  7948  0.89
      P1  H  7989  7998       L1     4  0.04

> <Gold.Chemscore.Hbond.Weighted>
-6.1902

> <Gold.Chemscore.Metal.Weighted>
-0.0000

> <Gold.Chemscore.Lipo.Weighted>
-9.9400

> <Gold.Chemscore.Internal_Hbond.Weighted>
0.0000

> <Gold.Chemscore.DEClash.Weighted>
0.0824

> <Gold.Chemscore.DEInternal.Weighted>
1.9084

> <Gold.Chemscore.Rot.Weighted>
4.0439

> <Gold.Chemscore.Internal.Correction.Weighted>
   9.000000E+99

> <Gold.Protein.RotatedTorsions>
[ 6907 6896 6895 6894 ] final   60.01 input  -60.11 | X-H torsion
[ 7974 7965 7964 7962 ] final  -46.25 input  175.53 | X-H torsion
[ 8008 7997 7996 7995 ] final  -59.91 input   59.86 | X-H torsion
[ 10167 10162 10161 10158 ] final  -36.51 input  -65.29 | X-H torsion
[ 10718 10713 10712 10709 ] final  -20.23 input   66.30 | X-H torsion
[ 10763 10752 10751 10750 ] final   30.85 input  -60.55 | X-H torsion
[ 11005 11000 10999 10996 ] final  142.07 input  -57.11 | X-H torsion

> <Gold.Protein.ActiveResidues>
 VAL166  LYS551  ARG553  GLY616  TRP617  ASP618  TYR619  PRO620  LYS621  CYS622 
 ASP623  PHE694  ASN695  SER759  ASP760  ASP761  ALA762  ILE779  LEU786  VAL792 
 PHE793  MET794  SER795  GLU796  ALA797  LYS798  CYS799  TRP800  GLU811  SER814 

> <Gold.Protein.RotatedAtoms>
  152.3966  134.6356  160.0086 H   0  0  0  0  0  0  0  0  0  0  0  0  # atno 6907 bound_to 6896
  151.6574  133.3313  159.3174 H   0  0  0  0  0  0  0  0  0  0  0  0  # atno 6908 bound_to 6896
  150.7872  134.6910  159.6541 H   0  0  0  0  0  0  0  0  0  0  0  0  # atno 6909 bound_to 6896
  145.9738  140.7355  142.9397 H   0  0  0  0  0  0  0  0  0  0  0  0  # atno 7974 bound_to 7965
  154.4374  140.1051  156.6190 H   0  0  0  0  0  0  0  0  0  0  0  0  # atno 8008 bound_to 7997
  155.5727  140.3489  155.4501 H   0  0  0  0  0  0  0  0  0  0  0  0  # atno 8009 bound_to 7997
  156.0377  140.1275  157.0179 H   0  0  0  0  0  0  0  0  0  0  0  0  # atno 8010 bound_to 7997
  140.7141  143.3404  151.2371 H   0  0  0  0  0  0  0  0  0  0  0  0  # atno 10167 bound_to 10162
  156.5347  130.4663  149.6529 H   0  0  0  0  0  0  0  0  0  0  0  0  # atno 10718 bound_to 10713
  153.0348  135.6454  154.1108 H   0  0  0  0  0  0  0  0  0  0  0  0  # atno 10763 bound_to 10752
  154.0824  135.2872  155.3289 H   0  0  0  0  0  0  0  0  0  0  0  0  # atno 10764 bound_to 10752
  154.6521  135.5422  153.7978 H   0  0  0  0  0  0  0  0  0  0  0  0  # atno 10765 bound_to 10752
  140.0449  134.9286  157.0911 H   0  0  0  0  0  0  0  0  0  0  0  0  # atno 11005 bound_to 11000
  144.6843  140.2794  143.7294 LP  0  0  0  0  0  0  0  0  0  0  0  0  # atno 17320 bound_to 7965
  145.7868  139.1912  143.2126 LP  0  0  0  0  0  0  0  0  0  0  0  0  # atno 17321 bound_to 7965
  139.6910  143.9693  152.2859 LP  0  0  0  0  0  0  0  0  0  0  0  0  # atno 17342 bound_to 10162
  139.9354  144.6715  150.8320 LP  0  0  0  0  0  0  0  0  0  0  0  0  # atno 17343 bound_to 10162
  156.3027  130.7186  151.2061 LP  0  0  0  0  0  0  0  0  0  0  0  0  # atno 17370 bound_to 10713
  157.7416  131.0502  150.5087 LP  0  0  0  0  0  0  0  0  0  0  0  0  # atno 17371 bound_to 10713
  140.4010  134.2083  155.7163 LP  0  0  0  0  0  0  0  0  0  0  0  0  # atno 17394 bound_to 11000
  141.1902  133.8222  157.0928 LP  0  0  0  0  0  0  0  0  0  0  0  0  # atno 17395 bound_to 11000

$$$$
