AV-unprocessed.smi:1239|AV-procd|sdf|5187|dock2
  -GOLD-   22720 4273D 1   1.00000     0.00000
 Structure written by MMmdl.
 47 48  0  0  0  0  0  0  0  0  1 V2000
  149.0515  138.4608  154.5168 C   0  0  0  0  0  0  0  0  0  0  0  0
  150.1971  137.9188  155.4017 C   0  0  2  0  0  0  0  0  0  0  0  0
  149.8219  136.4820  155.8445 C   0  0  0  0  0  0  0  0  0  0  0  0
  149.2512  135.7084  154.7439 N   0  0  0  0  0  0  0  0  0  0  0  0
  148.9213  134.4104  154.7923 C   0  0  0  0  0  0  0  0  0  0  0  0
  149.0571  133.7104  155.7954 O   0  0  0  0  0  0  0  0  0  0  0  0
  148.4501  133.9855  153.6072 N   0  0  0  0  0  0  0  0  0  0  0  0
  147.9858  132.6897  153.2514 C   0  0  0  0  0  0  0  0  0  0  0  0
  146.8382  132.5967  152.4414 C   0  0  0  0  0  0  0  0  0  0  0  0
  146.3445  131.3275  152.0847 C   0  0  0  0  0  0  0  0  0  0  0  0
  147.0099  130.1687  152.5561 C   0  0  0  0  0  0  0  0  0  0  0  0
  146.5582  128.8709  152.2235 N   0  0  0  0  0  0  0  0  0  0  0  0
  147.3709  127.7086  152.5679 C   0  0  0  0  0  0  0  0  0  0  0  0
  145.2932  128.6910  151.5226 C   0  0  0  0  0  0  0  0  0  0  0  0
  148.1052  130.2619  153.3489 N   0  0  0  0  0  0  0  0  0  0  0  0
  148.5759  131.4804  153.6882 C   0  0  0  0  0  0  0  0  0  0  0  0
  150.5606  138.8214  156.5165 N   0  0  0  0  0  0  0  0  0  0  0  0
  151.5808  138.2445  157.3975 C   0  0  0  0  0  0  0  0  0  0  0  0
  151.9770  139.1912  158.5439 C   0  0  0  0  0  0  0  0  0  0  0  0
  152.4317  140.4270  158.0089 O   0  0  0  0  0  0  0  0  0  0  0  0
  151.4464  141.0575  157.2015 C   0  0  0  0  0  0  0  0  0  0  0  0
  151.0474  140.1222  156.0470 C   0  0  0  0  0  0  0  0  0  0  0  0
  148.7359  137.7200  153.7816 H   0  0  0  0  0  0  0  0  0  0  0  0
  149.3522  139.3410  153.9496 H   0  0  0  0  0  0  0  0  0  0  0  0
  148.1766  138.7255  155.1118 H   0  0  0  0  0  0  0  0  0  0  0  0
  151.0695  137.8209  154.7536 H   0  0  0  0  0  0  0  0  0  0  0  0
  150.7107  135.9917  156.2452 H   0  0  0  0  0  0  0  0  0  0  0  0
  149.1150  136.4887  156.6731 H   0  0  0  0  0  0  0  0  0  0  0  0
  149.1138  136.2015  153.8737 H   0  0  0  0  0  0  0  0  0  0  0  0
  148.4729  134.6580  152.8547 H   0  0  0  0  0  0  0  0  0  0  0  0
  146.3392  133.4881  152.0901 H   0  0  0  0  0  0  0  0  0  0  0  0
  145.4678  131.2696  151.4577 H   0  0  0  0  0  0  0  0  0  0  0  0
  147.5077  127.6436  153.6478 H   0  0  0  0  0  0  0  0  0  0  0  0
  148.3524  127.7744  152.0975 H   0  0  0  0  0  0  0  0  0  0  0  0
  146.9034  126.7821  152.2348 H   0  0  0  0  0  0  0  0  0  0  0  0
  145.3181  129.1893  150.5532 H   0  0  0  0  0  0  0  0  0  0  0  0
  144.4694  129.1022  152.1065 H   0  0  0  0  0  0  0  0  0  0  0  0
  145.0821  127.6358  151.3488 H   0  0  0  0  0  0  0  0  0  0  0  0
  149.4335  131.4633  154.3418 H   0  0  0  0  0  0  0  0  0  0  0  0
  151.2204  137.3214  157.8482 H   0  0  0  0  0  0  0  0  0  0  0  0
  152.4687  137.9880  156.8174 H   0  0  0  0  0  0  0  0  0  0  0  0
  151.1320  139.3637  159.2122 H   0  0  0  0  0  0  0  0  0  0  0  0
  152.7731  138.7483  159.1423 H   0  0  0  0  0  0  0  0  0  0  0  0
  150.5768  141.3150  157.8080 H   0  0  0  0  0  0  0  0  0  0  0  0
  151.8514  141.9907  156.8099 H   0  0  0  0  0  0  0  0  0  0  0  0
  151.9031  139.9802  155.3853 H   0  0  0  0  0  0  0  0  0  0  0  0
  150.2799  140.6303  155.4652 H   0  0  0  0  0  0  0  0  0  0  0  0
  1  2  1  0  0  0  0
  1 23  1  0  0  0  0
  1 24  1  0  0  0  0
  1 25  1  0  0  0  0
  2  3  1  0  0  0  0
  2 17  1  0  0  0  0
  2 26  1  0  0  0  0
  3  4  1  0  0  0  0
  3 27  1  0  0  0  0
  3 28  1  0  0  0  0
  4  5  1  0  0  0  0
  4 29  1  0  0  0  0
  5  6  2  0  0  0  0
  5  7  1  0  0  0  0
  7  8  1  0  0  0  0
  7 30  1  0  0  0  0
  8 16  1  0  0  0  0
  8  9  2  0  0  0  0
  9 10  1  0  0  0  0
  9 31  1  0  0  0  0
 10 11  2  0  0  0  0
 10 32  1  0  0  0  0
 11 12  1  0  0  0  0
 11 15  1  0  0  0  0
 12 13  1  0  0  0  0
 12 14  1  0  0  0  0
 13 33  1  0  0  0  0
 13 34  1  0  0  0  0
 13 35  1  0  0  0  0
 14 36  1  0  0  0  0
 14 37  1  0  0  0  0
 14 38  1  0  0  0  0
 15 16  2  0  0  0  0
 16 39  1  0  0  0  0
 17 22  1  0  0  0  0
 17 18  1  0  0  0  0
 18 19  1  0  0  0  0
 18 40  1  0  0  0  0
 18 41  1  0  0  0  0
 19 20  1  0  0  0  0
 19 42  1  0  0  0  0
 19 43  1  0  0  0  0
 20 21  1  0  0  0  0
 21 22  1  0  0  0  0
 21 44  1  0  0  0  0
 21 45  1  0  0  0  0
 22 46  1  0  0  0  0
 22 47  1  0  0  0  0
M  END
> <s_m_source_file>
AV-unprocessed.smi

> <i_m_source_file_index>
1239

> <i_lp_mmshare_version>
43012

> <i_f3d_flags>
0

> <s_epik_input>
W0NIMl0xW0NIMl1PW0NIMl1bQ0gyXU4xW0NASF0oW0NIM10pW0NIMl1bTkhdQyg9TylbTkhdYzJbY0hdW2NIXWMoTihbQ0gzXSlbQ0gzXSluW2NIXTI=

> <s_epik_cmdline>
J2VwaWtfcHl0aG9uJywgJy1waCcsICc3LjAnLCAnLXRuJywgJzgnLCAnLW1hJywgJzIwMCcsICctbWV0YWxfYmluZGluZycsICctaW1hZScsICc8aW5maWxlLm1hZT4nLCAnLW9tYWUnLCAnPG91dGZpbGUubWFlPic=

> <r_lp_tautomer_probability>
1

> <r_epik_Ionization_Penalty>
0.87526

> <r_epik_Ionization_Penalty_Charging>
0

> <r_epik_Ionization_Penalty_Neutral>
0.87526

> <r_epik_State_Penalty>
0.859346

> <r_epik_Charging_Adjusted_Penalty>
0.859346

> <i_epik_Tot_Q>
0

> <i_epik_Tot_abs_Q>
0

> <r_epik_Metal_State_Penalty>
0.538105

> <b_epik_Metal_Only>
0

> <s_lp_Force_Field>
OPLS_2005

> <r_lp_Energy>
39.6376

> <b_lp_Chiralities_Consistent>
1

> <s_lp_Variant>
AV-unprocessed.smi:1239-3

> <Gold.Version>
5.8.1

> <Gold.Id.Protein>
6NUR|6NUR_protein|mol2

> <Gold.PLP.Fitness>
39.6503

> <Gold.PLP.PLP>
-31.7787

> <Gold.PLP.part.hbond>
-3.0000

> <Gold.PLP.part.metal>
0.0000

> <Gold.PLP.part.buried>
-2.9420

> <Gold.PLP.part.nonpolar>
-25.7008

> <Gold.PLP.part.repulsive>
0.2189

> <Gold.PLP.ligand.clash>
0.0000

> <Gold.PLP.ligand.torsion>
0.4852

> <Gold.PLP.Chemscore.Hbond>
2.9280

> <Gold.PLP.Chemscore.CHOScore>
0.0000

> <Gold.PLP.Chemscore.Metal>
0.0000

> <Gold.Chemscore.Hbonds>
donor molecule, donor type, donor heavy atom, donor atom, acceptor molecule, acceptor atom, score
      L1  H     4    29       P1  7948  1.00
      L1  H     7    30       P1  7948  1.00
      P1  H  7997  8010       L1    20  0.13

> <Gold.PLP.Chemscore.Internal.Correction>
0.0580

> <Gold.Rescore>
     Score         DG    S(hbond)    S(metal)    S(lipo)     H(rot)  DE(clash)    DE(int)     intcor
     15.83     -17.08       1.89        0.00      76.70       1.44       0.22       1.03       ----

> <Gold.Chemscore.Fitness>
15.8289

> <Gold.Chemscore.DG>
-17.0774

> <Gold.Chemscore.ZeroCoef>
-5.4800

> <Gold.Chemscore.Hbond>
1.8870

> <Gold.Chemscore.Metal>
0.0000

> <Gold.Chemscore.Lipo>
76.6954

> <Gold.Chemscore.Internal_Hbond>
0.0000

> <Gold.Chemscore.DEClash>
0.2174

> <Gold.Chemscore.DEInternal>
1.0312

> <Gold.Chemscore.Rot>
1.4370

> <Gold.Chemscore.Internal.Correction>
   9.000000E+99

> <Gold.Chemscore.Hbonds>
donor molecule, donor type, donor heavy atom, donor atom, acceptor molecule, acceptor atom, score
      L1  H     4    29       P1  7948  0.88
      L1  H     7    30       P1  7948  0.30
      P1  H  7997  8010       L1    20  0.10

> <Gold.Chemscore.Hbond.Weighted>
-6.3027

> <Gold.Chemscore.Metal.Weighted>
-0.0000

> <Gold.Chemscore.Lipo.Weighted>
-8.9734

> <Gold.Chemscore.Internal_Hbond.Weighted>
0.0000

> <Gold.Chemscore.DEClash.Weighted>
0.2174

> <Gold.Chemscore.DEInternal.Weighted>
1.0312

> <Gold.Chemscore.Rot.Weighted>
3.6786

> <Gold.Chemscore.Internal.Correction.Weighted>
   9.000000E+99

> <Gold.Protein.RotatedTorsions>
[ 6907 6896 6895 6894 ] final -114.93 input  -60.11 | X-H torsion
[ 7974 7965 7964 7962 ] final  -40.19 input  175.53 | X-H torsion
[ 8008 7997 7996 7995 ] final   41.22 input   59.86 | X-H torsion
[ 10167 10162 10161 10158 ] final   84.51 input  -65.29 | X-H torsion
[ 10718 10713 10712 10709 ] final   70.55 input   66.30 | X-H torsion
[ 10763 10752 10751 10750 ] final -109.05 input  -60.55 | X-H torsion
[ 11005 11000 10999 10996 ] final  -12.90 input  -57.11 | X-H torsion

> <Gold.Protein.ActiveResidues>
 VAL166  LYS551  ARG553  GLY616  TRP617  ASP618  TYR619  PRO620  LYS621  CYS622 
 ASP623  PHE694  ASN695  SER759  ASP760  ASP761  ALA762  ILE779  LEU786  VAL792 
 PHE793  MET794  SER795  GLU796  ALA797  LYS798  CYS799  TRP800  GLU811  SER814 

> <Gold.Protein.RotatedAtoms>
  150.7939  133.8730  159.3263 H   0  0  0  0  0  0  0  0  0  0  0  0  # atno 6907 bound_to 6896
  151.6560  135.0993  160.0179 H   0  0  0  0  0  0  0  0  0  0  0  0  # atno 6908 bound_to 6896
  152.4018  133.6790  159.6358 H   0  0  0  0  0  0  0  0  0  0  0  0  # atno 6909 bound_to 6896
  146.0327  140.6710  142.9125 H   0  0  0  0  0  0  0  0  0  0  0  0  # atno 7974 bound_to 7965
  155.2661  140.3362  155.4269 H   0  0  0  0  0  0  0  0  0  0  0  0  # atno 8008 bound_to 7997
  156.2153  140.1786  156.7644 H   0  0  0  0  0  0  0  0  0  0  0  0  # atno 8009 bound_to 7997
  154.5745  140.0664  156.8998 H   0  0  0  0  0  0  0  0  0  0  0  0  # atno 8010 bound_to 7997
  139.9073  144.6293  150.8574 H   0  0  0  0  0  0  0  0  0  0  0  0  # atno 10167 bound_to 10162
  157.6406  130.9483  150.0666 H   0  0  0  0  0  0  0  0  0  0  0  0  # atno 10718 bound_to 10713
  154.8171  135.4615  154.0673 H   0  0  0  0  0  0  0  0  0  0  0  0  # atno 10763 bound_to 10752
  153.2057  135.6875  153.8182 H   0  0  0  0  0  0  0  0  0  0  0  0  # atno 10764 bound_to 10752
  153.7650  135.3278  155.3320 H   0  0  0  0  0  0  0  0  0  0  0  0  # atno 10765 bound_to 10752
  140.7705  133.8442  155.9203 H   0  0  0  0  0  0  0  0  0  0  0  0  # atno 11005 bound_to 11000
  144.7038  140.3765  143.7135 LP  0  0  0  0  0  0  0  0  0  0  0  0  # atno 17320 bound_to 7965
  145.7014  139.1662  143.2591 LP  0  0  0  0  0  0  0  0  0  0  0  0  # atno 17321 bound_to 7965
  140.7693  143.3392  151.2244 LP  0  0  0  0  0  0  0  0  0  0  0  0  # atno 17342 bound_to 10162
  139.6973  143.9591  152.2889 LP  0  0  0  0  0  0  0  0  0  0  0  0  # atno 17343 bound_to 10162
  156.1683  130.3645  149.9201 LP  0  0  0  0  0  0  0  0  0  0  0  0  # atno 17370 bound_to 10713
  156.7183  130.8997  151.3616 LP  0  0  0  0  0  0  0  0  0  0  0  0  # atno 17371 bound_to 10713
  140.9578  134.1695  157.4678 LP  0  0  0  0  0  0  0  0  0  0  0  0  # atno 17394 bound_to 11000
  139.8756  134.9933  156.5640 LP  0  0  0  0  0  0  0  0  0  0  0  0  # atno 17395 bound_to 11000

$$$$
