AV-unprocessed.smi:1033|AV-procd|sdf|4507|dock3
  -GOLD-   22720 2513D 1   1.00000     0.00000
 Structure written by MMmdl.
 57 59  0  0  0  0  0  0  0  0  3 V2000
  153.7176  142.8962  163.4284 C   0  0  0  0  0  0  0  0  0  0  0  0
  153.2121  142.8739  161.9964 C   0  0  0  0  0  0  0  0  0  0  0  0
  152.3694  143.9163  161.5492 C   0  0  0  0  0  0  0  0  0  0  0  0
  151.8750  143.9308  160.2269 C   0  0  0  0  0  0  0  0  0  0  0  0
  151.0497  144.8385  159.5856 N   0  0  0  0  0  0  0  0  0  0  0  0
  150.9501  144.3016  158.3736 C   0  0  0  0  0  0  0  0  0  0  0  0
  151.6286  143.1599  158.1476 N   0  0  0  0  0  0  0  0  0  0  0  0
  151.6828  142.4030  156.9103 C   0  0  0  0  0  0  0  0  0  0  0  0
  150.4910  141.4374  156.7541 C   0  0  1  0  0  0  0  0  0  0  0  0
  149.3434  142.2082  156.4619 O   0  0  0  0  0  0  0  0  0  0  0  0
  150.6843  140.3881  155.6371 C   0  0  0  0  0  0  0  0  0  0  0  0
  149.4493  139.6045  155.3781 N   0  3  2  0  0  0  0  0  0  0  0  0
  149.6790  138.1377  155.3232 C   0  0  0  0  0  0  0  0  0  0  0  0
  148.3547  137.3759  155.1387 C   0  0  0  0  0  0  0  0  0  0  0  0
  147.6285  137.8438  153.9323 N   0  3  1  0  0  0  0  0  0  0  0  0
  146.3931  137.0593  153.6746 C   0  0  0  0  0  0  0  0  0  0  0  0
  145.6890  137.4777  152.3689 C   0  0  2  0  0  0  0  0  0  0  0  0
  144.6101  136.4722  151.9465 C   0  0  0  0  0  0  0  0  0  0  0  0
  146.6469  137.5588  151.3330 O   0  0  0  0  0  0  0  0  0  0  0  0
  147.4001  139.3108  153.9862 C   0  0  0  0  0  0  0  0  0  0  0  0
  148.7245  140.0728  154.1714 C   0  0  0  0  0  0  0  0  0  0  0  0
  152.2514  142.8666  159.3561 C   0  0  0  0  0  0  0  0  0  0  0  0
  153.0881  141.8229  159.7897 C   0  0  0  0  0  0  0  0  0  0  0  0
  153.5735  141.8240  161.1141 C   0  0  0  0  0  0  0  0  0  0  0  0
  154.4763  140.6928  161.5734 C   0  0  0  0  0  0  0  0  0  0  0  0
  153.3234  143.7522  163.9770 H   0  0  0  0  0  0  0  0  0  0  0  0
  154.8058  142.9581  163.4482 H   0  0  0  0  0  0  0  0  0  0  0  0
  153.4113  141.9926  163.9563 H   0  0  0  0  0  0  0  0  0  0  0  0
  152.0924  144.7153  162.2215 H   0  0  0  0  0  0  0  0  0  0  0  0
  150.3579  144.7718  157.6019 H   0  0  0  0  0  0  0  0  0  0  0  0
  151.7103  143.1102  156.0800 H   0  0  0  0  0  0  0  0  0  0  0  0
  152.6243  141.8521  156.8831 H   0  0  0  0  0  0  0  0  0  0  0  0
  150.3229  140.9430  157.7097 H   0  0  0  0  0  0  0  0  0  0  0  0
  149.6185  143.0436  156.1146 H   0  0  0  0  0  0  0  0  0  0  0  0
  150.9936  140.9068  154.7281 H   0  0  0  0  0  0  0  0  0  0  0  0
  151.4917  139.6956  155.8787 H   0  0  0  0  0  0  0  0  0  0  0  0
  150.3585  137.9057  154.5013 H   0  0  0  0  0  0  0  0  0  0  0  0
  150.1624  137.7922  156.2364 H   0  0  0  0  0  0  0  0  0  0  0  0
  148.5640  136.3088  155.0520 H   0  0  0  0  0  0  0  0  0  0  0  0
  147.7211  137.5052  156.0179 H   0  0  0  0  0  0  0  0  0  0  0  0
  146.6380  135.9977  153.6091 H   0  0  0  0  0  0  0  0  0  0  0  0
  145.7170  137.1618  154.5250 H   0  0  0  0  0  0  0  0  0  0  0  0
  145.2214  138.4554  152.4784 H   0  0  0  0  0  0  0  0  0  0  0  0
  143.8290  136.3957  152.7035 H   0  0  0  0  0  0  0  0  0  0  0  0
  145.0281  135.4757  151.7986 H   0  0  0  0  0  0  0  0  0  0  0  0
  144.1334  136.7747  151.0133 H   0  0  0  0  0  0  0  0  0  0  0  0
  147.4672  137.2104  151.6493 H   0  0  0  0  0  0  0  0  0  0  0  0
  146.9186  139.6561  153.0720 H   0  0  0  0  0  0  0  0  0  0  0  0
  146.7198  139.5439  154.8070 H   0  0  0  0  0  0  0  0  0  0  0  0
  148.5150  141.1398  154.2586 H   0  0  0  0  0  0  0  0  0  0  0  0
  149.3588  139.9436  153.2928 H   0  0  0  0  0  0  0  0  0  0  0  0
  153.3516  141.0256  159.1105 H   0  0  0  0  0  0  0  0  0  0  0  0
  154.6764  139.9887  160.7651 H   0  0  0  0  0  0  0  0  0  0  0  0
  154.0098  140.1406  162.3897 H   0  0  0  0  0  0  0  0  0  0  0  0
  155.4330  141.0835  161.9206 H   0  0  0  0  0  0  0  0  0  0  0  0
  148.2389  137.6656  153.1468 H   0  0  0  0  0  0  0  0  0  0  0  0
  148.8379  139.7812  156.1633 H   0  0  0  0  0  0  0  0  0  0  0  0
  1  2  1  0  0  0  0
  1 26  1  0  0  0  0
  1 27  1  0  0  0  0
  1 28  1  0  0  0  0
  2 24  1  0  0  0  0
  2  3  2  0  0  0  0
  3  4  1  0  0  0  0
  3 29  1  0  0  0  0
  4 22  2  0  0  0  0
  4  5  1  0  0  0  0
  5  6  2  0  0  0  0
  6  7  1  0  0  0  0
  6 30  1  0  0  0  0
  7  8  1  0  0  0  0
  7 22  1  0  0  0  0
  8  9  1  0  0  0  0
  8 31  1  0  0  0  0
  8 32  1  0  0  0  0
  9 10  1  0  0  0  0
  9 11  1  0  0  0  0
  9 33  1  0  0  0  0
 10 34  1  0  0  0  0
 11 12  1  0  0  0  0
 11 35  1  0  0  0  0
 11 36  1  0  0  0  0
 12 21  1  0  0  0  0
 12 13  1  0  0  0  0
 12 57  1  0  0  0  0
 13 14  1  0  0  0  0
 13 37  1  0  0  0  0
 13 38  1  0  0  0  0
 14 15  1  0  0  0  0
 14 39  1  0  0  0  0
 14 40  1  0  0  0  0
 15 16  1  0  0  0  0
 15 20  1  0  0  0  0
 15 56  1  0  0  0  0
 16 17  1  0  0  0  0
 16 41  1  0  0  0  0
 16 42  1  0  0  0  0
 17 18  1  0  0  0  0
 17 19  1  0  0  0  0
 17 43  1  0  0  0  0
 18 44  1  0  0  0  0
 18 45  1  0  0  0  0
 18 46  1  0  0  0  0
 19 47  1  0  0  0  0
 20 21  1  0  0  0  0
 20 48  1  0  0  0  0
 20 49  1  0  0  0  0
 21 50  1  0  0  0  0
 21 51  1  0  0  0  0
 22 23  1  0  0  0  0
 23 24  2  0  0  0  0
 23 52  1  0  0  0  0
 24 25  1  0  0  0  0
 25 53  1  0  0  0  0
 25 54  1  0  0  0  0
 25 55  1  0  0  0  0
M  CHG  1  12   1
M  CHG  1  15   1
M  END
> <s_m_source_file>
AV-unprocessed.smi

> <i_m_source_file_index>
1033

> <i_lp_mmshare_version>
43012

> <i_f3d_flags>
0

> <s_epik_input>
W0NIM11jKFtjSF0xKWMoW0NIM10pW2NIXWMoYzEyKW4oW2NIXW4yKVtDSDJdW0NASF0oW09IXSlbQ0gyXU4zW0NIMl1bQ0gyXU4oW0NIMl1bQ0gyXTMpW0NIMl1bQ0BIXShbQ0gzXSlbT0hd

> <s_epik_cmdline>
J2VwaWtfcHl0aG9uJywgJy1waCcsICc3LjAnLCAnLXRuJywgJzgnLCAnLW1hJywgJzIwMCcsICctbWV0YWxfYmluZGluZycsICctaW1hZScsICc8aW5maWxlLm1hZT4nLCAnLW9tYWUnLCAnPG91dGZpbGUubWFlPic=

> <r_epik_Ionization_Penalty>
3.16016

> <r_epik_Ionization_Penalty_Charging>
3.07679

> <r_epik_Ionization_Penalty_Neutral>
0.083365

> <r_epik_State_Penalty>
2.09701

> <r_epik_Charging_Adjusted_Penalty>
5.1738

> <i_epik_Tot_Q>
2

> <i_epik_Tot_abs_Q>
2

> <r_epik_Metal_State_Penalty>
2.02534

> <b_epik_Metal_Only>
0

> <s_lp_Force_Field>
OPLS_2005

> <r_lp_Energy>
25.863

> <b_lp_Chiralities_Consistent>
1

> <s_lp_Variant>
AV-unprocessed.smi:1033-18

> <Gold.Version>
5.8.1

> <Gold.Id.Protein>
6NUR|6NUR_protein|mol2

> <Gold.PLP.Fitness>
64.1094

> <Gold.PLP.PLP>
-51.9315

> <Gold.PLP.part.hbond>
-3.9059

> <Gold.PLP.part.metal>
0.0000

> <Gold.PLP.part.buried>
-6.1608

> <Gold.PLP.part.nonpolar>
-43.1476

> <Gold.PLP.part.repulsive>
0.1757

> <Gold.PLP.ligand.clash>
0.0000

> <Gold.PLP.ligand.torsion>
1.1915

> <Gold.PLP.Chemscore.Hbond>
3.6880

> <Gold.PLP.Chemscore.CHOScore>
1.0044

> <Gold.PLP.Chemscore.Metal>
0.0000

> <Gold.Chemscore.Hbonds>
donor molecule, donor type, donor heavy atom, donor atom, acceptor molecule, acceptor atom, score
      L1  H    10    34       P1  8028  0.80
      L1  H    15    56       P1  7948  1.81
      L1  H    19    47       P1  7948  1.00
      L1  C     6    30       P1  8028  0.92
      L1  C     6    30       P1  8029  0.09

> <Gold.PLP.Chemscore.Internal.Correction>
0.4838

> <Gold.Rescore>
     Score         DG    S(hbond)    S(metal)    S(lipo)     H(rot)  DE(clash)    DE(int)     intcor
     18.77     -21.24       2.15        0.00     142.05       3.14       1.36       1.11       ----

> <Gold.Chemscore.Fitness>
18.7668

> <Gold.Chemscore.DG>
-21.2384

> <Gold.Chemscore.ZeroCoef>
-5.4800

> <Gold.Chemscore.Hbond>
2.1473

> <Gold.Chemscore.Metal>
0.0000

> <Gold.Chemscore.Lipo>
142.0466

> <Gold.Chemscore.Internal_Hbond>
0.0000

> <Gold.Chemscore.DEClash>
1.3625

> <Gold.Chemscore.DEInternal>
1.1090

> <Gold.Chemscore.Rot>
3.1380

> <Gold.Chemscore.Internal.Correction>
   9.000000E+99

> <Gold.Chemscore.Hbonds>
donor molecule, donor type, donor heavy atom, donor atom, acceptor molecule, acceptor atom, score
      L1  H    10    34       P1  8028  0.79
      L1  H    15    56       P1  7948  0.82
      L1  H    19    47       P1  7948  1.00

> <Gold.Chemscore.Hbond.Weighted>
-7.1721

> <Gold.Chemscore.Metal.Weighted>
-0.0000

> <Gold.Chemscore.Lipo.Weighted>
-16.6194

> <Gold.Chemscore.Internal_Hbond.Weighted>
0.0000

> <Gold.Chemscore.DEClash.Weighted>
1.3625

> <Gold.Chemscore.DEInternal.Weighted>
1.1090

> <Gold.Chemscore.Rot.Weighted>
8.0332

> <Gold.Chemscore.Internal.Correction.Weighted>
   9.000000E+99

> <Gold.Protein.RotatedTorsions>
[ 6907 6896 6895 6894 ] final -142.87 input  -60.11 | X-H torsion
[ 7974 7965 7964 7962 ] final  -13.25 input  175.53 | X-H torsion
[ 8008 7997 7996 7995 ] final   82.61 input   59.86 | X-H torsion
[ 10167 10162 10161 10158 ] final   97.73 input  -65.29 | X-H torsion
[ 10718 10713 10712 10709 ] final -173.71 input   66.30 | X-H torsion
[ 10763 10752 10751 10750 ] final  -66.57 input  -60.55 | X-H torsion
[ 11005 11000 10999 10996 ] final  148.07 input  -57.11 | X-H torsion

> <Gold.Protein.ActiveResidues>
 VAL166  LYS551  ARG553  GLY616  TRP617  ASP618  TYR619  PRO620  LYS621  CYS622 
 ASP623  PHE694  ASN695  SER759  ASP760  ASP761  ALA762  ILE779  LEU786  VAL792 
 PHE793  MET794  SER795  GLU796  ALA797  LYS798  CYS799  TRP800  GLU811  SER814 

> <Gold.Protein.RotatedAtoms>
  151.0929  133.5302  159.2613 H   0  0  0  0  0  0  0  0  0  0  0  0  # atno 6907 bound_to 6896
  151.2162  135.0500  159.8941 H   0  0  0  0  0  0  0  0  0  0  0  0  # atno 6908 bound_to 6896
  152.5436  134.0737  159.8259 H   0  0  0  0  0  0  0  0  0  0  0  0  # atno 6909 bound_to 6896
  146.2121  140.3175  142.8387 H   0  0  0  0  0  0  0  0  0  0  0  0  # atno 7974 bound_to 7965
  155.9129  140.3426  155.6112 H   0  0  0  0  0  0  0  0  0  0  0  0  # atno 8008 bound_to 7997
  155.7366  140.0802  157.2283 H   0  0  0  0  0  0  0  0  0  0  0  0  # atno 8009 bound_to 7997
  154.4058  140.1578  156.2556 H   0  0  0  0  0  0  0  0  0  0  0  0  # atno 8010 bound_to 7997
  139.7774  144.6901  151.0070 H   0  0  0  0  0  0  0  0  0  0  0  0  # atno 10167 bound_to 10162
  156.7743  130.9460  151.3120 H   0  0  0  0  0  0  0  0  0  0  0  0  # atno 10718 bound_to 10713
  154.3618  135.6114  153.5694 H   0  0  0  0  0  0  0  0  0  0  0  0  # atno 10763 bound_to 10752
  152.9793  135.5817  154.4624 H   0  0  0  0  0  0  0  0  0  0  0  0  # atno 10764 bound_to 10752
  154.4363  135.2849  155.1856 H   0  0  0  0  0  0  0  0  0  0  0  0  # atno 10765 bound_to 10752
  140.0929  134.9030  157.1678 H   0  0  0  0  0  0  0  0  0  0  0  0  # atno 11005 bound_to 11000
  144.8943  140.7564  143.5907 LP  0  0  0  0  0  0  0  0  0  0  0  0  # atno 17320 bound_to 7965
  145.3099  139.1822  143.4644 LP  0  0  0  0  0  0  0  0  0  0  0  0  # atno 17321 bound_to 7965
  140.7817  143.4521  151.0398 LP  0  0  0  0  0  0  0  0  0  0  0  0  # atno 17342 bound_to 10162
  139.8202  143.7830  152.3176 LP  0  0  0  0  0  0  0  0  0  0  0  0  # atno 17343 bound_to 10162
  157.6676  130.9022  149.9968 LP  0  0  0  0  0  0  0  0  0  0  0  0  # atno 17370 bound_to 10713
  156.1258  130.3644  149.9812 LP  0  0  0  0  0  0  0  0  0  0  0  0  # atno 17371 bound_to 10713
  140.3327  134.2791  155.7225 LP  0  0  0  0  0  0  0  0  0  0  0  0  # atno 17394 bound_to 11000
  141.2083  133.7781  157.0066 LP  0  0  0  0  0  0  0  0  0  0  0  0  # atno 17395 bound_to 11000

$$$$
