AV-unprocessed.smi:1269|AV-procd|sdf|5327|dock6
  -GOLD-   22720 4453D 1   1.00000     0.00000
 Structure written by MMmdl.
 43 44  0  0  0  0  0  0  0  0  1 V2000
  151.1869  142.6033  157.5276 C   0  0  0  0  0  0  0  0  0  0  0  0
  151.5679  141.9788  156.3067 O   0  0  0  0  0  0  0  0  0  0  0  0
  150.9563  140.7917  155.9592 C   0  0  0  0  0  0  0  0  0  0  0  0
  150.2778  140.0651  156.9572 C   0  0  0  0  0  0  0  0  0  0  0  0
  149.6468  138.8547  156.6111 C   0  0  0  0  0  0  0  0  0  0  0  0
  149.7156  138.4052  155.2699 C   0  0  0  0  0  0  0  0  0  0  0  0
  149.1256  137.2085  154.7755 N   0  0  0  0  0  0  0  0  0  0  0  0
  148.3870  136.2861  155.4167 C   0  0  0  0  0  0  0  0  0  0  0  0
  148.1035  136.3001  156.6137 O   0  0  0  0  0  0  0  0  0  0  0  0
  147.9825  135.3271  154.5706 N   0  0  0  0  0  0  0  0  0  0  0  0
  147.1259  134.1911  154.9078 C   0  0  2  0  0  0  0  0  0  0  0  0
  147.8408  133.3210  155.9505 C   0  0  0  0  0  0  0  0  0  0  0  0
  146.7952  133.3759  153.6385 C   0  0  0  0  0  0  0  0  0  0  0  0
  145.9216  134.0372  152.6682 N   0  0  0  0  0  0  0  0  0  0  0  0
  144.7562  134.6619  153.2913 C   0  0  0  0  0  0  0  0  0  0  0  0
  143.8467  135.3395  152.2519 C   0  0  0  0  0  0  0  0  0  0  0  0
  143.4478  134.3866  151.2720 O   0  0  0  0  0  0  0  0  0  0  0  0
  144.5550  133.7834  150.6103 C   0  0  0  0  0  0  0  0  0  0  0  0
  145.4659  133.1018  151.6461 C   0  0  0  0  0  0  0  0  0  0  0  0
  150.4227  139.2064  154.3492 C   0  0  0  0  0  0  0  0  0  0  0  0
  151.0285  140.3678  154.6737 N   0  0  0  0  0  0  0  0  0  0  0  0
  151.7562  143.5240  157.6546 H   0  0  0  0  0  0  0  0  0  0  0  0
  151.3976  141.9634  158.3859 H   0  0  0  0  0  0  0  0  0  0  0  0
  150.1282  142.8667  157.5287 H   0  0  0  0  0  0  0  0  0  0  0  0
  150.2398  140.4306  157.9728 H   0  0  0  0  0  0  0  0  0  0  0  0
  149.1304  138.3093  157.3840 H   0  0  0  0  0  0  0  0  0  0  0  0
  149.2672  137.0427  153.7898 H   0  0  0  0  0  0  0  0  0  0  0  0
  148.2687  135.4012  153.6056 H   0  0  0  0  0  0  0  0  0  0  0  0
  146.2038  134.5401  155.3737 H   0  0  0  0  0  0  0  0  0  0  0  0
  147.2222  132.4715  156.2416 H   0  0  0  0  0  0  0  0  0  0  0  0
  148.0610  133.8912  156.8538 H   0  0  0  0  0  0  0  0  0  0  0  0
  148.7830  132.9296  155.5651 H   0  0  0  0  0  0  0  0  0  0  0  0
  147.7391  133.1273  153.1510 H   0  0  0  0  0  0  0  0  0  0  0  0
  146.3534  132.4208  153.9273 H   0  0  0  0  0  0  0  0  0  0  0  0
  144.1825  133.9123  153.8385 H   0  0  0  0  0  0  0  0  0  0  0  0
  145.0666  135.4096  154.0196 H   0  0  0  0  0  0  0  0  0  0  0  0
  142.9585  135.7484  152.7337 H   0  0  0  0  0  0  0  0  0  0  0  0
  144.3638  136.1720  151.7718 H   0  0  0  0  0  0  0  0  0  0  0  0
  144.1859  133.0526  149.8906 H   0  0  0  0  0  0  0  0  0  0  0  0
  145.1067  134.5384  150.0478 H   0  0  0  0  0  0  0  0  0  0  0  0
  146.3243  132.6648  151.1348 H   0  0  0  0  0  0  0  0  0  0  0  0
  144.9272  132.2758  152.1133 H   0  0  0  0  0  0  0  0  0  0  0  0
  150.5059  138.9073  153.3144 H   0  0  0  0  0  0  0  0  0  0  0  0
  1  2  1  0  0  0  0
  1 22  1  0  0  0  0
  1 23  1  0  0  0  0
  1 24  1  0  0  0  0
  2  3  1  0  0  0  0
  3 21  1  0  0  0  0
  3  4  2  0  0  0  0
  4  5  1  0  0  0  0
  4 25  1  0  0  0  0
  5  6  2  0  0  0  0
  5 26  1  0  0  0  0
  6  7  1  0  0  0  0
  6 20  1  0  0  0  0
  7  8  1  0  0  0  0
  7 27  1  0  0  0  0
  8  9  2  0  0  0  0
  8 10  1  0  0  0  0
 10 11  1  0  0  0  0
 10 28  1  0  0  0  0
 11 12  1  0  0  0  0
 11 13  1  0  0  0  0
 11 29  1  0  0  0  0
 12 30  1  0  0  0  0
 12 31  1  0  0  0  0
 12 32  1  0  0  0  0
 13 14  1  0  0  0  0
 13 33  1  0  0  0  0
 13 34  1  0  0  0  0
 14 19  1  0  0  0  0
 14 15  1  0  0  0  0
 15 16  1  0  0  0  0
 15 35  1  0  0  0  0
 15 36  1  0  0  0  0
 16 17  1  0  0  0  0
 16 37  1  0  0  0  0
 16 38  1  0  0  0  0
 17 18  1  0  0  0  0
 18 19  1  0  0  0  0
 18 39  1  0  0  0  0
 18 40  1  0  0  0  0
 19 41  1  0  0  0  0
 19 42  1  0  0  0  0
 20 21  2  0  0  0  0
 20 43  1  0  0  0  0
M  END
> <s_m_source_file>
AV-unprocessed.smi

> <i_m_source_file_index>
1269

> <i_lp_mmshare_version>
43012

> <i_f3d_flags>
0

> <s_epik_input>
W0NIM11PYzFbY0hdW2NIXWMoW2NIXW4xKVtOSF1DKD1PKVtOSF1bQ0BIXShbQ0gzXSlbQ0gyXU4yW0NIMl1bQ0gyXU9bQ0gyXVtDSDJdMg==

> <s_epik_cmdline>
J2VwaWtfcHl0aG9uJywgJy1waCcsICc3LjAnLCAnLXRuJywgJzgnLCAnLW1hJywgJzIwMCcsICctbWV0YWxfYmluZGluZycsICctaW1hZScsICc8aW5maWxlLm1hZT4nLCAnLW9tYWUnLCAnPG91dGZpbGUubWFlPic=

> <r_lp_tautomer_probability>
1

> <r_epik_Ionization_Penalty>
0.266086

> <r_epik_Ionization_Penalty_Charging>
0

> <r_epik_Ionization_Penalty_Neutral>
0.266086

> <r_epik_State_Penalty>
0.257924

> <r_epik_Charging_Adjusted_Penalty>
0.257924

> <i_epik_Tot_Q>
0

> <i_epik_Tot_abs_Q>
0

> <r_epik_Metal_State_Penalty>
0.25792

> <b_epik_Metal_Only>
0

> <s_lp_Force_Field>
OPLS_2005

> <r_lp_Energy>
28.3998

> <b_lp_Chiralities_Consistent>
1

> <s_lp_Variant>
AV-unprocessed.smi:1269-1

> <Gold.Version>
5.8.1

> <Gold.Id.Protein>
6NUR|6NUR_protein|mol2

> <Gold.PLP.Fitness>
27.0781

> <Gold.PLP.PLP>
-17.5085

> <Gold.PLP.part.hbond>
-2.4100

> <Gold.PLP.part.metal>
0.0000

> <Gold.PLP.part.buried>
0.6063

> <Gold.PLP.part.nonpolar>
-15.8586

> <Gold.PLP.part.repulsive>
1.4067

> <Gold.PLP.ligand.clash>
0.0000

> <Gold.PLP.ligand.torsion>
0.3653

> <Gold.PLP.Chemscore.Hbond>
2.5350

> <Gold.PLP.Chemscore.CHOScore>
0.8839

> <Gold.PLP.Chemscore.Metal>
0.0000

> <Gold.Chemscore.Hbonds>
donor molecule, donor type, donor heavy atom, donor atom, acceptor molecule, acceptor atom, score
      L1  H     7    27       P1  7948  0.84
      L1  H    10    28       P1  7948  0.99
      P1  H  7989  7998       L1    21  0.70
      L1  C    20    43       P1  7957  0.88

> <Gold.PLP.Chemscore.Internal.Correction>
0.0434

> <Gold.Rescore>
     Score         DG    S(hbond)    S(metal)    S(lipo)     H(rot)  DE(clash)    DE(int)     intcor
     14.48     -16.01       2.60        0.00      53.40       1.72       0.03       1.49       ----

> <Gold.Chemscore.Fitness>
14.4849

> <Gold.Chemscore.DG>
-16.0064

> <Gold.Chemscore.ZeroCoef>
-5.4800

> <Gold.Chemscore.Hbond>
2.5985

> <Gold.Chemscore.Metal>
0.0000

> <Gold.Chemscore.Lipo>
53.3998

> <Gold.Chemscore.Internal_Hbond>
0.0000

> <Gold.Chemscore.DEClash>
0.0282

> <Gold.Chemscore.DEInternal>
1.4933

> <Gold.Chemscore.Rot>
1.7189

> <Gold.Chemscore.Internal.Correction>
   9.000000E+99

> <Gold.Chemscore.Hbonds>
donor molecule, donor type, donor heavy atom, donor atom, acceptor molecule, acceptor atom, score
      L1  H     7    27       P1  7948  0.81
      L1  H    10    28       P1  7948  0.92
      P1  H  7989  7998       L1    21  0.46

> <Gold.Chemscore.Hbond.Weighted>
-8.6790

> <Gold.Chemscore.Metal.Weighted>
-0.0000

> <Gold.Chemscore.Lipo.Weighted>
-6.2478

> <Gold.Chemscore.Internal_Hbond.Weighted>
0.0000

> <Gold.Chemscore.DEClash.Weighted>
0.0282

> <Gold.Chemscore.DEInternal.Weighted>
1.4933

> <Gold.Chemscore.Rot.Weighted>
4.4004

> <Gold.Chemscore.Internal.Correction.Weighted>
   9.000000E+99

> <Gold.Protein.RotatedTorsions>
[ 6907 6896 6895 6894 ] final -147.30 input  -60.11 | X-H torsion
[ 7974 7965 7964 7962 ] final -150.72 input  175.53 | X-H torsion
[ 8008 7997 7996 7995 ] final  -86.39 input   59.86 | X-H torsion
[ 10167 10162 10161 10158 ] final   99.24 input  -65.29 | X-H torsion
[ 10718 10713 10712 10709 ] final -129.17 input   66.30 | X-H torsion
[ 10763 10752 10751 10750 ] final -160.40 input  -60.55 | X-H torsion
[ 11005 11000 10999 10996 ] final -175.23 input  -57.11 | X-H torsion

> <Gold.Protein.ActiveResidues>
 VAL166  LYS551  ARG553  GLY616  TRP617  ASP618  TYR619  PRO620  LYS621  CYS622 
 ASP623  PHE694  ASN695  SER759  ASP760  ASP761  ALA762  ILE779  LEU786  VAL792 
 PHE793  MET794  SER795  GLU796  ALA797  LYS798  CYS799  TRP800  GLU811  SER814 

> <Gold.Protein.RotatedAtoms>
  151.1537  133.4890  159.2594 H   0  0  0  0  0  0  0  0  0  0  0  0  # atno 6907 bound_to 6896
  151.1526  135.0234  159.8685 H   0  0  0  0  0  0  0  0  0  0  0  0  # atno 6908 bound_to 6896
  152.5463  134.1420  159.8536 H   0  0  0  0  0  0  0  0  0  0  0  0  # atno 6909 bound_to 6896
  144.7891  140.4893  143.5785 H   0  0  0  0  0  0  0  0  0  0  0  0  # atno 7974 bound_to 7965
  154.6514  140.0579  156.9959 H   0  0  0  0  0  0  0  0  0  0  0  0  # atno 8008 bound_to 7997
  155.1366  140.3261  155.4443 H   0  0  0  0  0  0  0  0  0  0  0  0  # atno 8009 bound_to 7997
  156.2577  140.1971  156.6483 H   0  0  0  0  0  0  0  0  0  0  0  0  # atno 8010 bound_to 7997
  139.7635  144.6946  151.0258 H   0  0  0  0  0  0  0  0  0  0  0  0  # atno 10167 bound_to 10162
  156.2021  130.6864  151.0551 H   0  0  0  0  0  0  0  0  0  0  0  0  # atno 10718 bound_to 10713
  154.7394  135.3065  154.8755 H   0  0  0  0  0  0  0  0  0  0  0  0  # atno 10763 bound_to 10752
  153.9575  135.6757  153.4749 H   0  0  0  0  0  0  0  0  0  0  0  0  # atno 10764 bound_to 10752
  153.0993  135.4920  154.8762 H   0  0  0  0  0  0  0  0  0  0  0  0  # atno 10765 bound_to 10752
  140.4656  134.6214  157.4861 H   0  0  0  0  0  0  0  0  0  0  0  0  # atno 11005 bound_to 11000
  145.5842  139.1491  143.3218 LP  0  0  0  0  0  0  0  0  0  0  0  0  # atno 17320 bound_to 7965
  146.2135  140.5971  142.9049 LP  0  0  0  0  0  0  0  0  0  0  0  0  # atno 17321 bound_to 7965
  140.7809  143.4669  151.0199 LP  0  0  0  0  0  0  0  0  0  0  0  0  # atno 17342 bound_to 10162
  139.8355  143.7634  152.3180 LP  0  0  0  0  0  0  0  0  0  0  0  0  # atno 17343 bound_to 10162
  157.6992  131.0782  150.6875 LP  0  0  0  0  0  0  0  0  0  0  0  0  # atno 17370 bound_to 10713
  156.6933  130.4601  149.5593 LP  0  0  0  0  0  0  0  0  0  0  0  0  # atno 17371 bound_to 10713
  139.9918  134.6974  155.9677 LP  0  0  0  0  0  0  0  0  0  0  0  0  # atno 17394 bound_to 11000
  141.1601  133.6539  156.4290 LP  0  0  0  0  0  0  0  0  0  0  0  0  # atno 17395 bound_to 11000

$$$$
