AV-unprocessed.smi:208|AV-procd|sdf|1605|dock1
  -GOLD-   2262019523D 1   1.00000     0.00000
 Structure written by MMmdl.
 50 53  0  0  0  0  0  0  0  0  1 V2000
  152.0143  145.3431  158.7580 C   0  0  0  0  0  0  0  0  0  0  0  0
  152.8234  144.0523  158.5492 C   0  0  0  0  0  0  0  0  0  0  0  0
  152.4511  142.8557  159.4590 C   0  0  2  0  0  0  0  0  0  0  0  0
  152.3790  143.2395  160.9575 C   0  0  0  0  0  0  0  0  0  0  0  0
  151.6559  144.1818  161.2842 O   0  0  0  0  0  0  0  0  0  0  0  0
  153.0936  142.5311  161.8649 N   0  0  0  0  0  0  0  0  0  0  0  0
  153.0218  142.8518  163.2909 C   0  0  0  0  0  0  0  0  0  0  0  0
  153.9590  141.3970  161.5182 C   0  0  0  0  0  0  0  0  0  0  0  0
  154.4436  141.4495  160.0639 C   0  0  0  0  0  0  0  0  0  0  0  0
  153.3220  141.7081  159.1696 N   0  0  0  0  0  0  0  0  0  0  0  0
  152.7473  140.5931  158.6619 C   0  0  0  0  0  0  0  0  0  0  0  0
  153.5103  139.4735  158.6080 N   0  0  0  0  0  0  0  0  0  0  0  0
  152.9969  138.3372  158.1272 C   0  0  0  0  0  0  0  0  0  0  0  0
  151.7663  138.1070  157.6646 N   0  0  0  0  0  0  0  0  0  0  0  0
  150.9927  139.2283  157.7277 C   0  0  0  0  0  0  0  0  0  0  0  0
  151.3987  140.5032  158.2134 C   0  0  0  0  0  0  0  0  0  0  0  0
  150.3360  141.3962  158.1443 N   0  0  0  0  0  0  0  0  0  0  0  0
  149.3603  140.6918  157.6409 C   0  0  0  0  0  0  0  0  0  0  0  0
  149.6702  139.3823  157.3486 N   0  0  0  0  0  0  0  0  0  0  0  0
  148.7739  138.3858  156.7820 C   0  0  0  0  0  0  0  0  0  0  0  0
  149.3062  137.7131  155.4993 C   0  0  0  0  0  0  0  0  0  0  0  0
  149.7343  138.7678  154.4631 C   0  0  0  0  0  0  0  0  0  0  0  0
  150.3719  138.1725  153.3509 O   0  0  0  0  0  0  0  0  0  0  0  0
  150.3250  136.5827  155.7049 C   0  0  0  0  0  0  0  0  0  0  0  0
  149.5846  135.6867  154.8498 O   0  0  0  0  0  0  0  0  0  0  0  0
  148.4476  136.5713  154.9372 C   0  0  0  0  0  0  0  0  0  0  0  0
  152.2890  146.0890  158.0121 H   0  0  0  0  0  0  0  0  0  0  0  0
  152.2091  145.7826  159.7355 H   0  0  0  0  0  0  0  0  0  0  0  0
  150.9418  145.1707  158.6676 H   0  0  0  0  0  0  0  0  0  0  0  0
  152.7159  143.7486  157.5070 H   0  0  0  0  0  0  0  0  0  0  0  0
  153.8833  144.2780  158.6734 H   0  0  0  0  0  0  0  0  0  0  0  0
  151.4263  142.5984  159.1868 H   0  0  0  0  0  0  0  0  0  0  0  0
  153.5114  143.8060  163.4897 H   0  0  0  0  0  0  0  0  0  0  0  0
  153.5058  142.0926  163.9065 H   0  0  0  0  0  0  0  0  0  0  0  0
  151.9855  142.9220  163.6249 H   0  0  0  0  0  0  0  0  0  0  0  0
  154.8251  141.3617  162.1803 H   0  0  0  0  0  0  0  0  0  0  0  0
  153.3978  140.4778  161.6894 H   0  0  0  0  0  0  0  0  0  0  0  0
  155.1804  142.2438  159.9532 H   0  0  0  0  0  0  0  0  0  0  0  0
  154.9591  140.5228  159.8049 H   0  0  0  0  0  0  0  0  0  0  0  0
  153.6681  137.4914  158.1115 H   0  0  0  0  0  0  0  0  0  0  0  0
  148.3818  141.1131  157.4606 H   0  0  0  0  0  0  0  0  0  0  0  0
  148.5774  137.6391  157.5521 H   0  0  0  0  0  0  0  0  0  0  0  0
  147.8124  138.8637  156.5907 H   0  0  0  0  0  0  0  0  0  0  0  0
  148.8878  139.3607  154.1165 H   0  0  0  0  0  0  0  0  0  0  0  0
  150.4347  139.4767  154.9063 H   0  0  0  0  0  0  0  0  0  0  0  0
  149.7193  137.7235  152.8353 H   0  0  0  0  0  0  0  0  0  0  0  0
  151.3219  136.8054  155.3231 H   0  0  0  0  0  0  0  0  0  0  0  0
  150.3748  136.2041  156.7265 H   0  0  0  0  0  0  0  0  0  0  0  0
  147.6961  136.1966  155.6343 H   0  0  0  0  0  0  0  0  0  0  0  0
  148.0037  136.7833  153.9638 H   0  0  0  0  0  0  0  0  0  0  0  0
  1  2  1  0  0  0  0
  1 27  1  0  0  0  0
  1 28  1  0  0  0  0
  1 29  1  0  0  0  0
  2  3  1  0  0  0  0
  2 30  1  0  0  0  0
  2 31  1  0  0  0  0
  3 10  1  0  0  0  0
  3  4  1  0  0  0  0
  3 32  1  0  0  0  0
  4  5  2  0  0  0  0
  4  6  1  0  0  0  0
  6  7  1  0  0  0  0
  6  8  1  0  0  0  0
  7 33  1  0  0  0  0
  7 34  1  0  0  0  0
  7 35  1  0  0  0  0
  8  9  1  0  0  0  0
  8 36  1  0  0  0  0
  8 37  1  0  0  0  0
  9 10  1  0  0  0  0
  9 38  1  0  0  0  0
  9 39  1  0  0  0  0
 10 11  1  0  0  0  0
 11 16  1  0  0  0  0
 11 12  2  0  0  0  0
 12 13  1  0  0  0  0
 13 14  2  0  0  0  0
 13 40  1  0  0  0  0
 14 15  1  0  0  0  0
 15 19  1  0  0  0  0
 15 16  2  0  0  0  0
 16 17  1  0  0  0  0
 17 18  2  0  0  0  0
 18 19  1  0  0  0  0
 18 41  1  0  0  0  0
 19 20  1  0  0  0  0
 20 21  1  0  0  0  0
 20 42  1  0  0  0  0
 20 43  1  0  0  0  0
 21 26  1  0  0  0  0
 21 22  1  0  0  0  0
 21 24  1  0  0  0  0
 22 23  1  0  0  0  0
 22 44  1  0  0  0  0
 22 45  1  0  0  0  0
 23 46  1  0  0  0  0
 24 25  1  0  0  0  0
 24 47  1  0  0  0  0
 24 48  1  0  0  0  0
 25 26  1  0  0  0  0
 26 49  1  0  0  0  0
 26 50  1  0  0  0  0
M  END
> <s_m_source_file>
AV-unprocessed.smi

> <i_m_source_file_index>
208

> <i_lp_mmshare_version>
43012

> <i_f3d_flags>
0

> <s_epik_input>
W0NIM11bQ0gyXVtDQEBIXTFDKD1PKU4oW0NIM10pW0NIMl1bQ0gyXU4xYyhuW2NIXW4yKWMoYzIzKW5bY0hdbjNbQ0gyXUM0KFtDSDJdW09IXSlbQ0gyXU9bQ0gyXTQ=

> <s_epik_cmdline>
J2VwaWtfcHl0aG9uJywgJy1waCcsICc3LjAnLCAnLXRuJywgJzgnLCAnLW1hJywgJzIwMCcsICctbWV0YWxfYmluZGluZycsICctaW1hZScsICc8aW5maWxlLm1hZT4nLCAnLW9tYWUnLCAnPG91dGZpbGUubWFlPic=

> <r_lp_tautomer_probability>
1

> <r_epik_Ionization_Penalty>
0.000581289

> <r_epik_Ionization_Penalty_Charging>
0

> <r_epik_Ionization_Penalty_Neutral>
0.000581289

> <r_epik_State_Penalty>
0.000280365

> <r_epik_Charging_Adjusted_Penalty>
0.000280365

> <i_epik_Tot_Q>
0

> <i_epik_Tot_abs_Q>
0

> <r_epik_Metal_State_Penalty>
-0

> <b_epik_Metal_Only>
0

> <s_lp_Force_Field>
OPLS_2005

> <r_lp_Energy>
41.1811

> <b_lp_Chiralities_Consistent>
1

> <s_lp_Variant>
AV-unprocessed.smi:208-1

> <Gold.Version>
5.8.1

> <Gold.Id.Protein>
6NUR|6NUR_protein|mol2

> <Gold.PLP.Fitness>
54.2729

> <Gold.PLP.PLP>
-48.5093

> <Gold.PLP.part.hbond>
-3.7738

> <Gold.PLP.part.metal>
0.0000

> <Gold.PLP.part.buried>
-5.9166

> <Gold.PLP.part.nonpolar>
-40.3469

> <Gold.PLP.part.repulsive>
0.3542

> <Gold.PLP.ligand.clash>
0.0000

> <Gold.PLP.ligand.torsion>
0.4436

> <Gold.PLP.Chemscore.Hbond>
2.0000

> <Gold.PLP.Chemscore.CHOScore>
0.0000

> <Gold.PLP.Chemscore.Metal>
0.0000

> <Gold.Chemscore.Hbonds>
donor molecule, donor type, donor heavy atom, donor atom, acceptor molecule, acceptor atom, score
      L1  H    23    46       P1  7948  1.00
      P1  H  7997  8010       L1    12  0.90

> <Gold.PLP.Chemscore.Internal.Correction>
0.6508

> <Gold.Rescore>
     Score         DG    S(hbond)    S(metal)    S(lipo)     H(rot)  DE(clash)    DE(int)     intcor
      8.44     -13.71       1.19        0.00      90.28       2.46       0.07       5.20       ----

> <Gold.Chemscore.Fitness>
8.4447

> <Gold.Chemscore.DG>
-13.7125

> <Gold.Chemscore.ZeroCoef>
-5.4800

> <Gold.Chemscore.Hbond>
1.1878

> <Gold.Chemscore.Metal>
0.0000

> <Gold.Chemscore.Lipo>
90.2764

> <Gold.Chemscore.Internal_Hbond>
0.0000

> <Gold.Chemscore.DEClash>
0.0655

> <Gold.Chemscore.DEInternal>
5.2022

> <Gold.Chemscore.Rot>
2.4598

> <Gold.Chemscore.Internal.Correction>
   9.000000E+99

> <Gold.Chemscore.Hbonds>
donor molecule, donor type, donor heavy atom, donor atom, acceptor molecule, acceptor atom, score
      L1  H    23    46       P1  7948  0.49
      P1  H  7997  8010       L1    12  0.06

> <Gold.Chemscore.Hbond.Weighted>
-3.9673

> <Gold.Chemscore.Metal.Weighted>
-0.0000

> <Gold.Chemscore.Lipo.Weighted>
-10.5623

> <Gold.Chemscore.Internal_Hbond.Weighted>
0.0000

> <Gold.Chemscore.DEClash.Weighted>
0.0655

> <Gold.Chemscore.DEInternal.Weighted>
5.2022

> <Gold.Chemscore.Rot.Weighted>
6.2972

> <Gold.Chemscore.Internal.Correction.Weighted>
   9.000000E+99

> <Gold.Protein.RotatedTorsions>
[ 6907 6896 6895 6894 ] final  -80.72 input  -60.11 | X-H torsion
[ 7974 7965 7964 7962 ] final  -39.64 input  175.53 | X-H torsion
[ 8008 7997 7996 7995 ] final   25.06 input   59.86 | X-H torsion
[ 10167 10162 10161 10158 ] final   99.42 input  -65.29 | X-H torsion
[ 10718 10713 10712 10709 ] final  -53.34 input   66.30 | X-H torsion
[ 10763 10752 10751 10750 ] final  153.13 input  -60.55 | X-H torsion
[ 11005 11000 10999 10996 ] final  -67.80 input  -57.11 | X-H torsion

> <Gold.Protein.ActiveResidues>
 VAL166  LYS551  ARG553  GLY616  TRP617  ASP618  TYR619  PRO620  LYS621  CYS622 
 ASP623  PHE694  ASN695  SER759  ASP760  ASP761  ALA762  ILE779  LEU786  VAL792 
 PHE793  MET794  SER795  GLU796  ALA797  LYS798  CYS799  TRP800  GLU811  SER814 

> <Gold.Protein.RotatedAtoms>
  150.6924  134.3927  159.5083 H   0  0  0  0  0  0  0  0  0  0  0  0  # atno 6907 bound_to 6896
  152.1713  134.8829  160.0543 H   0  0  0  0  0  0  0  0  0  0  0  0  # atno 6908 bound_to 6896
  151.9854  133.3737  159.4160 H   0  0  0  0  0  0  0  0  0  0  0  0  # atno 6909 bound_to 6896
  146.0378  140.6649  142.9102 H   0  0  0  0  0  0  0  0  0  0  0  0  # atno 7974 bound_to 7965
  155.0059  140.3131  155.4849 H   0  0  0  0  0  0  0  0  0  0  0  0  # atno 8008 bound_to 7997
  156.2917  140.2223  156.5112 H   0  0  0  0  0  0  0  0  0  0  0  0  # atno 8009 bound_to 7997
  154.7577  140.0461  157.0935 H   0  0  0  0  0  0  0  0  0  0  0  0  # atno 8010 bound_to 7997
  139.7619  144.6951  151.0280 H   0  0  0  0  0  0  0  0  0  0  0  0  # atno 10167 bound_to 10162
  156.1544  130.4150  149.9893 H   0  0  0  0  0  0  0  0  0  0  0  0  # atno 10718 bound_to 10713
  154.1312  135.2826  155.3184 H   0  0  0  0  0  0  0  0  0  0  0  0  # atno 10763 bound_to 10752
  154.6354  135.5421  153.7731 H   0  0  0  0  0  0  0  0  0  0  0  0  # atno 10764 bound_to 10752
  153.0280  135.6473  154.1463 H   0  0  0  0  0  0  0  0  0  0  0  0  # atno 10765 bound_to 10752
  141.1517  133.6727  156.6348 H   0  0  0  0  0  0  0  0  0  0  0  0  # atno 11005 bound_to 11000
  144.7060  140.3852  143.7118 LP  0  0  0  0  0  0  0  0  0  0  0  0  # atno 17320 bound_to 7965
  145.6935  139.1644  143.2633 LP  0  0  0  0  0  0  0  0  0  0  0  0  # atno 17321 bound_to 7965
  140.7808  143.4687  151.0176 LP  0  0  0  0  0  0  0  0  0  0  0  0  # atno 17342 bound_to 10162
  139.8373  143.7611  152.3180 LP  0  0  0  0  0  0  0  0  0  0  0  0  # atno 17343 bound_to 10162
  156.7742  130.9197  151.3645 LP  0  0  0  0  0  0  0  0  0  0  0  0  # atno 17370 bound_to 10713
  157.6683  130.9027  149.9981 LP  0  0  0  0  0  0  0  0  0  0  0  0  # atno 17371 bound_to 10713
  140.3439  134.7826  157.4418 LP  0  0  0  0  0  0  0  0  0  0  0  0  # atno 17394 bound_to 11000
  140.0916  134.5594  155.8439 LP  0  0  0  0  0  0  0  0  0  0  0  0  # atno 17395 bound_to 11000

$$$$
