AV-unprocessed.smi:581|AV-procd|sdf|2993|dock2
  -GOLD-   2262023493D 1   1.00000     0.00000
 Structure written by MMmdl.
 35 36  0  0  0  0  0  0  0  0  2 V2000
  152.2875  138.0869  159.3563 C   0  0  0  0  0  0  0  0  0  0  0  0
  151.9798  139.2684  158.4549 C   0  0  0  0  0  0  0  0  0  0  0  0
  152.0911  140.4882  159.0243 N   0  0  0  0  0  0  0  0  0  0  0  0
  151.8207  141.5610  158.2716 C   0  0  0  0  0  0  0  0  0  0  0  0
  151.9339  142.8208  158.8742 N   0  0  0  0  0  0  0  0  0  0  0  0
  151.8500  144.0656  158.1070 C   0  0  0  0  0  0  0  0  0  0  0  0
  151.1973  145.1780  158.9448 C   0  0  0  0  0  0  0  0  0  0  0  0
  151.9052  145.3398  160.1678 O   0  0  0  0  0  0  0  0  0  0  0  0
  151.8712  144.1547  160.9535 C   0  0  0  0  0  0  0  0  0  0  0  0
  152.5494  143.0045  160.1907 C   0  0  0  0  0  0  0  0  0  0  0  0
  151.4459  141.5179  156.9870 N   0  0  0  0  0  0  0  0  0  0  0  0
  151.3291  140.3105  156.3947 C   0  0  0  0  0  0  0  0  0  0  0  0
  150.9392  140.2754  155.0874 O   0  0  0  0  0  0  0  0  0  0  0  0
  151.5951  139.1144  157.1013 C   0  0  0  0  0  0  0  0  0  0  0  0
  151.4585  137.7472  156.4410 C   0  0  0  0  0  0  0  0  0  0  0  0
  150.0806  137.1095  156.7112 C   0  0  0  0  0  0  0  0  0  0  0  0
  149.7019  137.0916  158.1982 C   0  0  0  0  0  0  0  0  0  0  0  0
  149.4409  138.1997  158.7151 O   0  0  0  0  0  0  0  0  0  0  0  0
  149.6824  135.9955  158.8021 O   0  5  0  0  0  0  0  0  0  0  0  0
  150.0027  140.3424  154.9851 H   0  0  0  0  0  0  0  0  0  0  0  0
  151.4667  137.3698  159.3433 H   0  0  0  0  0  0  0  0  0  0  0  0
  152.4387  138.4030  160.3893 H   0  0  0  0  0  0  0  0  0  0  0  0
  153.1942  137.5821  159.0228 H   0  0  0  0  0  0  0  0  0  0  0  0
  151.2727  143.9461  157.1907 H   0  0  0  0  0  0  0  0  0  0  0  0
  152.8568  144.3613  157.8103 H   0  0  0  0  0  0  0  0  0  0  0  0
  151.2177  146.1200  158.3965 H   0  0  0  0  0  0  0  0  0  0  0  0
  150.1493  144.9493  159.1445 H   0  0  0  0  0  0  0  0  0  0  0  0
  152.3915  144.3382  161.8937 H   0  0  0  0  0  0  0  0  0  0  0  0
  150.8401  143.8998  161.2048 H   0  0  0  0  0  0  0  0  0  0  0  0
  153.6085  143.2230  160.0507 H   0  0  0  0  0  0  0  0  0  0  0  0
  152.4930  142.1063  160.8046 H   0  0  0  0  0  0  0  0  0  0  0  0
  152.2571  137.0924  156.7897 H   0  0  0  0  0  0  0  0  0  0  0  0
  151.6183  137.8529  155.3672 H   0  0  0  0  0  0  0  0  0  0  0  0
  149.3056  137.6507  156.1680 H   0  0  0  0  0  0  0  0  0  0  0  0
  150.0678  136.0841  156.3394 H   0  0  0  0  0  0  0  0  0  0  0  0
  1 21  1  0  0  0  0
  1 22  1  0  0  0  0
  1 23  1  0  0  0  0
  1  2  1  0  0  0  0
  2 14  2  0  0  0  0
  2  3  1  0  0  0  0
  3  4  2  0  0  0  0
  4  5  1  0  0  0  0
  4 11  1  0  0  0  0
  5 10  1  0  0  0  0
  5  6  1  0  0  0  0
  6  7  1  0  0  0  0
  6 24  1  0  0  0  0
  6 25  1  0  0  0  0
  7  8  1  0  0  0  0
  7 26  1  0  0  0  0
  7 27  1  0  0  0  0
  8  9  1  0  0  0  0
  9 10  1  0  0  0  0
  9 28  1  0  0  0  0
  9 29  1  0  0  0  0
 10 30  1  0  0  0  0
 10 31  1  0  0  0  0
 11 12  2  0  0  0  0
 12 13  1  0  0  0  0
 12 14  1  0  0  0  0
 13 20  1  0  0  0  0
 14 15  1  0  0  0  0
 15 16  1  0  0  0  0
 15 32  1  0  0  0  0
 15 33  1  0  0  0  0
 16 17  1  0  0  0  0
 16 34  1  0  0  0  0
 16 35  1  0  0  0  0
 17 18  2  0  0  0  0
 17 19  1  0  0  0  0
M  CHG  1  19  -1
M  END
> <s_m_source_file>
AV-unprocessed.smi

> <i_m_source_file_index>
581

> <i_lp_mmshare_version>
43012

> <i_f3d_flags>
0

> <s_epik_input>
W0NIMl0xW0NIMl1PW0NIMl1bQ0gyXU4xYyhuYzJbQ0gzXSlbbkhdYyg9TyljMltDSDJdW0NIMl1DKD1PKVtPSF0=

> <s_epik_cmdline>
J2VwaWtfcHl0aG9uJywgJy1waCcsICc3LjAnLCAnLXRuJywgJzgnLCAnLW1hJywgJzIwMCcsICctbWV0YWxfYmluZGluZycsICctaW1hZScsICc8aW5maWxlLm1hZT4nLCAnLW9tYWUnLCAnPG91dGZpbGUubWFlPic=

> <r_lp_tautomer_probability>
0.0131408

> <r_epik_Ionization_Penalty>
9.14148

> <r_epik_Ionization_Penalty_Charging>
0.00124504

> <r_epik_Ionization_Penalty_Neutral>
9.14023

> <r_epik_State_Penalty>
2.72329

> <r_epik_Charging_Adjusted_Penalty>
2.72453

> <i_epik_Tot_Q>
-1

> <i_epik_Tot_abs_Q>
1

> <r_epik_Metal_State_Penalty>
2.96989

> <b_epik_Metal_Only>
0

> <s_lp_Force_Field>
OPLS_2005

> <r_lp_Energy>
10.3836

> <b_lp_Chiralities_Consistent>
1

> <s_lp_Variant>
AV-unprocessed.smi:581-3

> <Gold.Version>
5.8.1

> <Gold.Id.Protein>
6NUR|6NUR_protein|mol2

> <Gold.PLP.Fitness>
42.2437

> <Gold.PLP.PLP>
-34.1590

> <Gold.PLP.part.hbond>
-2.4522

> <Gold.PLP.part.metal>
0.0000

> <Gold.PLP.part.buried>
-4.9896

> <Gold.PLP.part.nonpolar>
-26.3071

> <Gold.PLP.part.repulsive>
0.1948

> <Gold.PLP.ligand.clash>
0.0000

> <Gold.PLP.ligand.torsion>
0.5031

> <Gold.PLP.Chemscore.Hbond>
3.0000

> <Gold.PLP.Chemscore.CHOScore>
0.0000

> <Gold.PLP.Chemscore.Metal>
0.0000

> <Gold.Chemscore.Hbonds>
donor molecule, donor type, donor heavy atom, donor atom, acceptor molecule, acceptor atom, score
      P1  H  6896  6908       L1    19  2.00
      P1  H  7989  7998       L1    13  1.00

> <Gold.PLP.Chemscore.Internal.Correction>
0.0909

> <Gold.Rescore>
     Score         DG    S(hbond)    S(metal)    S(lipo)     H(rot)  DE(clash)    DE(int)     intcor
     12.95     -13.75       1.94        0.00      69.65       2.48       0.00       0.80       ----

> <Gold.Chemscore.Fitness>
12.9503

> <Gold.Chemscore.DG>
-13.7545

> <Gold.Chemscore.ZeroCoef>
-5.4800

> <Gold.Chemscore.Hbond>
1.9362

> <Gold.Chemscore.Metal>
0.0000

> <Gold.Chemscore.Lipo>
69.6533

> <Gold.Chemscore.Internal_Hbond>
0.0000

> <Gold.Chemscore.DEClash>
0.0000

> <Gold.Chemscore.DEInternal>
0.8041

> <Gold.Chemscore.Rot>
2.4774

> <Gold.Chemscore.Internal.Correction>
   9.000000E+99

> <Gold.Chemscore.Hbonds>
donor molecule, donor type, donor heavy atom, donor atom, acceptor molecule, acceptor atom, score
      P1  H  6896  6908       L1    19  1.00
      P1  H  7989  7998       L1    13  0.49

> <Gold.Chemscore.Hbond.Weighted>
-6.4670

> <Gold.Chemscore.Metal.Weighted>
-0.0000

> <Gold.Chemscore.Lipo.Weighted>
-8.1494

> <Gold.Chemscore.Internal_Hbond.Weighted>
0.0000

> <Gold.Chemscore.DEClash.Weighted>
0.0000

> <Gold.Chemscore.DEInternal.Weighted>
0.8041

> <Gold.Chemscore.Rot.Weighted>
6.3420

> <Gold.Chemscore.Internal.Correction.Weighted>
   9.000000E+99

> <Gold.Protein.RotatedTorsions>
[ 6907 6896 6895 6894 ] final -178.33 input  -60.11 | X-H torsion
[ 7974 7965 7964 7962 ] final   30.98 input  175.53 | X-H torsion
[ 8008 7997 7996 7995 ] final   95.20 input   59.86 | X-H torsion
[ 10167 10162 10161 10158 ] final -144.89 input  -65.29 | X-H torsion
[ 10718 10713 10712 10709 ] final -111.44 input   66.30 | X-H torsion
[ 10763 10752 10751 10750 ] final -129.73 input  -60.55 | X-H torsion
[ 11005 11000 10999 10996 ] final  169.22 input  -57.11 | X-H torsion

> <Gold.Protein.ActiveResidues>
 VAL166  LYS551  ARG553  GLY616  TRP617  ASP618  TYR619  PRO620  LYS621  CYS622 
 ASP623  PHE694  ASN695  SER759  ASP760  ASP761  ALA762  ILE779  LEU786  VAL792 
 PHE793  MET794  SER795  GLU796  ALA797  LYS798  CYS799  TRP800  GLU811  SER814 

> <Gold.Protein.RotatedAtoms>
  151.6354  133.3329  159.3118 H   0  0  0  0  0  0  0  0  0  0  0  0  # atno 6907 bound_to 6896
  150.8035  134.7148  159.6634 H   0  0  0  0  0  0  0  0  0  0  0  0  # atno 6908 bound_to 6896
  152.4129  134.6098  160.0074 H   0  0  0  0  0  0  0  0  0  0  0  0  # atno 6909 bound_to 6896
  146.1578  139.6717  142.9054 H   0  0  0  0  0  0  0  0  0  0  0  0  # atno 7974 bound_to 7965
  156.0663  140.3289  155.7521 H   0  0  0  0  0  0  0  0  0  0  0  0  # atno 8008 bound_to 7997
  155.5376  140.0599  157.2894 H   0  0  0  0  0  0  0  0  0  0  0  0  # atno 8009 bound_to 7997
  154.4507  140.1916  156.0547 H   0  0  0  0  0  0  0  0  0  0  0  0  # atno 8010 bound_to 7997
  139.7856  143.8038  152.2644 H   0  0  0  0  0  0  0  0  0  0  0  0  # atno 10167 bound_to 10162
  156.0647  130.5867  150.8374 H   0  0  0  0  0  0  0  0  0  0  0  0  # atno 10718 bound_to 10713
  154.8757  135.3885  154.3968 H   0  0  0  0  0  0  0  0  0  0  0  0  # atno 10763 bound_to 10752
  153.4697  135.7030  153.6006 H   0  0  0  0  0  0  0  0  0  0  0  0  # atno 10764 bound_to 10752
  153.4468  135.3843  155.2228 H   0  0  0  0  0  0  0  0  0  0  0  0  # atno 10765 bound_to 10752
  140.2954  134.7639  157.3873 H   0  0  0  0  0  0  0  0  0  0  0  0  # atno 11005 bound_to 11000
  145.4663  141.0434  143.2723 LP  0  0  0  0  0  0  0  0  0  0  0  0  # atno 17320 bound_to 7965
  144.7987  139.6183  143.7081 LP  0  0  0  0  0  0  0  0  0  0  0  0  # atno 17321 bound_to 7965
  139.8114  144.7334  150.9692 LP  0  0  0  0  0  0  0  0  0  0  0  0  # atno 17342 bound_to 10162
  140.7819  143.4247  151.0787 LP  0  0  0  0  0  0  0  0  0  0  0  0  # atno 17343 bound_to 10162
  157.5681  131.0946  150.9459 LP  0  0  0  0  0  0  0  0  0  0  0  0  # atno 17370 bound_to 10713
  156.9682  130.5481  149.5289 LP  0  0  0  0  0  0  0  0  0  0  0  0  # atno 17371 bound_to 10713
  140.1157  134.5286  155.8227 LP  0  0  0  0  0  0  0  0  0  0  0  0  # atno 17394 bound_to 11000
  141.2138  133.6739  156.6772 LP  0  0  0  0  0  0  0  0  0  0  0  0  # atno 17395 bound_to 11000

$$$$
