AV-unprocessed.smi:204|AV-procd|sdf|1598|dock2
  -GOLD-   2262019503D 1   1.00000     0.00000
 Structure written by MMmdl.
 53 56  0  0  0  0  0  0  0  0  1 V2000
  148.6506  141.9689  153.8075 C   0  0  0  0  0  0  0  0  0  0  0  0
  149.9099  141.5109  154.5358 C   0  0  0  0  0  0  0  0  0  0  0  0
  150.5901  140.5931  154.0783 O   0  0  0  0  0  0  0  0  0  0  0  0
  150.2077  142.1598  155.6699 N   0  0  0  0  0  0  0  0  0  0  0  0
  151.3638  141.8690  156.5089 C   0  0  0  0  0  0  0  0  0  0  0  0
  151.2654  142.5768  157.8730 C   0  0  2  0  0  0  0  0  0  0  0  0
  151.2947  144.1159  157.7463 C   0  0  0  0  0  0  0  0  0  0  0  0
  151.2415  144.7784  159.1320 C   0  0  0  0  0  0  0  0  0  0  0  0
  152.3592  144.2437  160.0405 C   0  0  0  0  0  0  0  0  0  0  0  0
  152.3097  142.7869  160.1079 N   0  0  0  0  0  0  0  0  0  0  0  0
  153.1242  142.2711  161.0518 C   0  0  0  0  0  0  0  0  0  0  0  0
  153.0055  142.7645  162.3083 N   0  0  0  0  0  0  0  0  0  0  0  0
  153.7869  142.2942  163.2854 C   0  0  0  0  0  0  0  0  0  0  0  0
  154.7330  141.3546  163.2192 N   0  0  0  0  0  0  0  0  0  0  0  0
  154.8587  140.8622  161.9534 C   0  0  0  0  0  0  0  0  0  0  0  0
  154.0977  141.2595  160.8180 C   0  0  0  0  0  0  0  0  0  0  0  0
  154.5006  140.5391  159.7002 N   0  0  0  0  0  0  0  0  0  0  0  0
  155.4426  139.7565  160.1505 C   0  0  0  0  0  0  0  0  0  0  0  0
  155.7309  139.8922  161.4903 N   0  0  0  0  0  0  0  0  0  0  0  0
  156.7338  139.1501  162.2395 C   0  0  0  0  0  0  0  0  0  0  0  0
  156.1539  138.2088  163.3164 C   0  0  0  0  0  0  0  0  0  0  0  0
  155.1053  137.2589  162.7103 C   0  0  0  0  0  0  0  0  0  0  0  0
  154.3173  136.6502  163.7136 O   0  0  0  0  0  0  0  0  0  0  0  0
  157.1782  137.5177  164.2287 C   0  0  0  0  0  0  0  0  0  0  0  0
  156.4817  137.9373  165.4208 O   0  0  0  0  0  0  0  0  0  0  0  0
  155.7296  138.8811  164.6294 C   0  0  0  0  0  0  0  0  0  0  0  0
  152.3918  142.1094  158.8164 C   0  0  0  0  0  0  0  0  0  0  0  0
  147.7729  141.8270  154.4386 H   0  0  0  0  0  0  0  0  0  0  0  0
  148.5051  141.4011  152.8880 H   0  0  0  0  0  0  0  0  0  0  0  0
  148.7236  143.0253  153.5479 H   0  0  0  0  0  0  0  0  0  0  0  0
  149.5939  142.9022  155.9730 H   0  0  0  0  0  0  0  0  0  0  0  0
  151.4268  140.7894  156.6540 H   0  0  0  0  0  0  0  0  0  0  0  0
  152.2763  142.1746  155.9938 H   0  0  0  0  0  0  0  0  0  0  0  0
  150.3150  142.2936  158.3289 H   0  0  0  0  0  0  0  0  0  0  0  0
  152.2036  144.4264  157.2289 H   0  0  0  0  0  0  0  0  0  0  0  0
  150.4576  144.4704  157.1444 H   0  0  0  0  0  0  0  0  0  0  0  0
  151.3248  145.8609  159.0338 H   0  0  0  0  0  0  0  0  0  0  0  0
  150.2727  144.5814  159.5929 H   0  0  0  0  0  0  0  0  0  0  0  0
  153.3310  144.5585  159.6574 H   0  0  0  0  0  0  0  0  0  0  0  0
  152.2568  144.6655  161.0416 H   0  0  0  0  0  0  0  0  0  0  0  0
  153.6329  142.7344  164.2596 H   0  0  0  0  0  0  0  0  0  0  0  0
  155.9636  139.0586  159.5109 H   0  0  0  0  0  0  0  0  0  0  0  0
  157.3359  138.5888  161.5238 H   0  0  0  0  0  0  0  0  0  0  0  0
  157.4182  139.8681  162.6927 H   0  0  0  0  0  0  0  0  0  0  0  0
  154.4537  137.7741  162.0047 H   0  0  0  0  0  0  0  0  0  0  0  0
  155.5920  136.4647  162.1428 H   0  0  0  0  0  0  0  0  0  0  0  0
  153.4872  137.1005  163.7577 H   0  0  0  0  0  0  0  0  0  0  0  0
  157.2130  136.4331  164.1185 H   0  0  0  0  0  0  0  0  0  0  0  0
  158.1805  137.9454  164.1837 H   0  0  0  0  0  0  0  0  0  0  0  0
  156.1059  139.8985  164.7481 H   0  0  0  0  0  0  0  0  0  0  0  0
  154.6581  138.8371  164.8285 H   0  0  0  0  0  0  0  0  0  0  0  0
  152.3263  141.0307  158.9676 H   0  0  0  0  0  0  0  0  0  0  0  0
  153.3610  142.3090  158.3580 H   0  0  0  0  0  0  0  0  0  0  0  0
  1  2  1  0  0  0  0
  1 28  1  0  0  0  0
  1 29  1  0  0  0  0
  1 30  1  0  0  0  0
  2  3  2  0  0  0  0
  2  4  1  0  0  0  0
  4  5  1  0  0  0  0
  4 31  1  0  0  0  0
  5  6  1  0  0  0  0
  5 32  1  0  0  0  0
  5 33  1  0  0  0  0
  6 27  1  0  0  0  0
  6  7  1  0  0  0  0
  6 34  1  0  0  0  0
  7  8  1  0  0  0  0
  7 35  1  0  0  0  0
  7 36  1  0  0  0  0
  8  9  1  0  0  0  0
  8 37  1  0  0  0  0
  8 38  1  0  0  0  0
  9 10  1  0  0  0  0
  9 39  1  0  0  0  0
  9 40  1  0  0  0  0
 10 11  1  0  0  0  0
 10 27  1  0  0  0  0
 11 16  1  0  0  0  0
 11 12  2  0  0  0  0
 12 13  1  0  0  0  0
 13 14  2  0  0  0  0
 13 41  1  0  0  0  0
 14 15  1  0  0  0  0
 15 19  1  0  0  0  0
 15 16  2  0  0  0  0
 16 17  1  0  0  0  0
 17 18  2  0  0  0  0
 18 19  1  0  0  0  0
 18 42  1  0  0  0  0
 19 20  1  0  0  0  0
 20 21  1  0  0  0  0
 20 43  1  0  0  0  0
 20 44  1  0  0  0  0
 21 26  1  0  0  0  0
 21 22  1  0  0  0  0
 21 24  1  0  0  0  0
 22 23  1  0  0  0  0
 22 45  1  0  0  0  0
 22 46  1  0  0  0  0
 23 47  1  0  0  0  0
 24 25  1  0  0  0  0
 24 48  1  0  0  0  0
 24 49  1  0  0  0  0
 25 26  1  0  0  0  0
 26 50  1  0  0  0  0
 26 51  1  0  0  0  0
 27 52  1  0  0  0  0
 27 53  1  0  0  0  0
M  END
> <s_m_source_file>
AV-unprocessed.smi

> <i_m_source_file_index>
204

> <i_lp_mmshare_version>
43012

> <i_f3d_flags>
0

> <s_epik_input>
W0NIM11DKD1PKVtOSF1bQ0gyXVtDQEBIXTFbQ0gyXVtDSDJdW0NIMl1OKFtDSDJdMSljKG5bY0hdbjIpYyhjMjMpbltjSF1uM1tDSDJdQzQoW0NIMl1bT0hdKVtDSDJdT1tDSDJdNA==

> <s_epik_cmdline>
J2VwaWtfcHl0aG9uJywgJy1waCcsICc3LjAnLCAnLXRuJywgJzgnLCAnLW1hJywgJzIwMCcsICctbWV0YWxfYmluZGluZycsICctaW1hZScsICc8aW5maWxlLm1hZT4nLCAnLW9tYWUnLCAnPG91dGZpbGUubWFlPic=

> <r_lp_tautomer_probability>
1

> <r_epik_Ionization_Penalty>
0.00166599

> <r_epik_Ionization_Penalty_Charging>
0

> <r_epik_Ionization_Penalty_Neutral>
0.00166599

> <r_epik_State_Penalty>
0.000989951

> <r_epik_Charging_Adjusted_Penalty>
0.000989951

> <i_epik_Tot_Q>
0

> <i_epik_Tot_abs_Q>
0

> <r_epik_Metal_State_Penalty>
-0

> <b_epik_Metal_Only>
0

> <s_lp_Force_Field>
OPLS_2005

> <r_lp_Energy>
36.8691

> <b_lp_Chiralities_Consistent>
1

> <s_lp_Variant>
AV-unprocessed.smi:204-1

> <Gold.Version>
5.8.1

> <Gold.Id.Protein>
6NUR|6NUR_protein|mol2

> <Gold.PLP.Fitness>
58.0972

> <Gold.PLP.PLP>
-52.6860

> <Gold.PLP.part.hbond>
-3.0000

> <Gold.PLP.part.metal>
0.0000

> <Gold.PLP.part.buried>
-4.6708

> <Gold.PLP.part.nonpolar>
-44.3021

> <Gold.PLP.part.repulsive>
0.4126

> <Gold.PLP.ligand.clash>
0.0000

> <Gold.PLP.ligand.torsion>
0.5596

> <Gold.PLP.Chemscore.Hbond>
1.9680

> <Gold.PLP.Chemscore.CHOScore>
0.0000

> <Gold.PLP.Chemscore.Metal>
0.0000

> <Gold.Chemscore.Hbonds>
donor molecule, donor type, donor heavy atom, donor atom, acceptor molecule, acceptor atom, score
      L1  H     4    31       P1  8028  0.96
      P1  H  7989  7998       L1     3  0.19

> <Gold.PLP.Chemscore.Internal.Correction>
0.6264

> <Gold.Rescore>
     Score         DG    S(hbond)    S(metal)    S(lipo)     H(rot)  DE(clash)    DE(int)     intcor
      8.41     -10.89       0.98        0.00      91.06       3.33       0.18       2.30       ----

> <Gold.Chemscore.Fitness>
8.4073

> <Gold.Chemscore.DG>
-10.8853

> <Gold.Chemscore.ZeroCoef>
-5.4800

> <Gold.Chemscore.Hbond>
0.9780

> <Gold.Chemscore.Metal>
0.0000

> <Gold.Chemscore.Lipo>
91.0576

> <Gold.Chemscore.Internal_Hbond>
0.0000

> <Gold.Chemscore.DEClash>
0.1800

> <Gold.Chemscore.DEInternal>
2.2979

> <Gold.Chemscore.Rot>
3.3261

> <Gold.Chemscore.Internal.Correction>
   9.000000E+99

> <Gold.Chemscore.Hbonds>
donor molecule, donor type, donor heavy atom, donor atom, acceptor molecule, acceptor atom, score
      L1  H     4    31       P1  8028  0.90
      P1  H  7989  7998       L1     3  0.18

> <Gold.Chemscore.Hbond.Weighted>
-3.2664

> <Gold.Chemscore.Metal.Weighted>
-0.0000

> <Gold.Chemscore.Lipo.Weighted>
-10.6537

> <Gold.Chemscore.Internal_Hbond.Weighted>
0.0000

> <Gold.Chemscore.DEClash.Weighted>
0.1800

> <Gold.Chemscore.DEInternal.Weighted>
2.2979

> <Gold.Chemscore.Rot.Weighted>
8.5149

> <Gold.Chemscore.Internal.Correction.Weighted>
   9.000000E+99

> <Gold.Protein.RotatedTorsions>
[ 6907 6896 6895 6894 ] final   97.11 input  -60.11 | X-H torsion
[ 7974 7965 7964 7962 ] final  158.04 input  175.53 | X-H torsion
[ 8008 7997 7996 7995 ] final   94.65 input   59.86 | X-H torsion
[ 10167 10162 10161 10158 ] final   27.63 input  -65.29 | X-H torsion
[ 10718 10713 10712 10709 ] final -118.68 input   66.30 | X-H torsion
[ 10763 10752 10751 10750 ] final   32.37 input  -60.55 | X-H torsion
[ 11005 11000 10999 10996 ] final  -76.87 input  -57.11 | X-H torsion

> <Gold.Protein.ActiveResidues>
 VAL166  LYS551  ARG553  GLY616  TRP617  ASP618  TYR619  PRO620  LYS621  CYS622 
 ASP623  PHE694  ASN695  SER759  ASP760  ASP761  ALA762  ILE779  LEU786  VAL792 
 PHE793  MET794  SER795  GLU796  ALA797  LYS798  CYS799  TRP800  GLU811  SER814 

> <Gold.Protein.RotatedAtoms>
  152.5427  134.0783  159.8223 H   0  0  0  0  0  0  0  0  0  0  0  0  # atno 6907 bound_to 6896
  151.0888  133.5324  159.2623 H   0  0  0  0  0  0  0  0  0  0  0  0  # atno 6908 bound_to 6896
  151.2124  135.0495  159.8970 H   0  0  0  0  0  0  0  0  0  0  0  0  # atno 6909 bound_to 6896
  144.7869  139.7423  143.6237 H   0  0  0  0  0  0  0  0  0  0  0  0  # atno 7974 bound_to 7965
  156.0602  140.3297  155.7453 H   0  0  0  0  0  0  0  0  0  0  0  0  # atno 8008 bound_to 7997
  155.5466  140.0606  157.2876 H   0  0  0  0  0  0  0  0  0  0  0  0  # atno 8009 bound_to 7997
  154.4478  140.1901  156.0633 H   0  0  0  0  0  0  0  0  0  0  0  0  # atno 8010 bound_to 7997
  140.4921  144.0450  150.6301 H   0  0  0  0  0  0  0  0  0  0  0  0  # atno 10167 bound_to 10162
  156.1124  130.6259  150.9322 H   0  0  0  0  0  0  0  0  0  0  0  0  # atno 10718 bound_to 10713
  153.0266  135.6415  154.1345 H   0  0  0  0  0  0  0  0  0  0  0  0  # atno 10763 bound_to 10752
  154.1073  135.2855  155.3240 H   0  0  0  0  0  0  0  0  0  0  0  0  # atno 10764 bound_to 10752
  154.6356  135.5477  153.7793 H   0  0  0  0  0  0  0  0  0  0  0  0  # atno 10765 bound_to 10752
  141.1657  133.7000  156.7735 H   0  0  0  0  0  0  0  0  0  0  0  0  # atno 11005 bound_to 11000
  146.2104  139.5456  142.9685 LP  0  0  0  0  0  0  0  0  0  0  0  0  # atno 17320 bound_to 7965
  145.5899  141.0371  143.2076 LP  0  0  0  0  0  0  0  0  0  0  0  0  # atno 17321 bound_to 7965
  140.3722  143.2848  152.0265 LP  0  0  0  0  0  0  0  0  0  0  0  0  # atno 17342 bound_to 10162
  139.4853  144.6221  151.7235 LP  0  0  0  0  0  0  0  0  0  0  0  0  # atno 17343 bound_to 10162
  157.6306  131.0921  150.8448 LP  0  0  0  0  0  0  0  0  0  0  0  0  # atno 17370 bound_to 10713
  156.8557  130.5095  149.5308 LP  0  0  0  0  0  0  0  0  0  0  0  0  # atno 17371 bound_to 10713
  140.2447  134.8587  157.3608 LP  0  0  0  0  0  0  0  0  0  0  0  0  # atno 17394 bound_to 11000
  140.1761  134.4547  155.7800 LP  0  0  0  0  0  0  0  0  0  0  0  0  # atno 17395 bound_to 11000

$$$$
