AV-unprocessed.smi:3314|AV-procd|sdf|12731|dock4
  -GOLD-   2272019 73D 1   1.00000     0.00000
 Structure written by MMmdl.
 38 39  0  0  0  0  0  0  0  0  2 V2000
  152.0267  145.6467  159.4676 C   0  0  0  0  0  0  0  0  0  0  0  0
  152.2140  144.1565  159.2752 C   0  0  0  0  0  0  0  0  0  0  0  0
  153.0302  143.4110  160.1473 C   0  0  0  0  0  0  0  0  0  0  0  0
  153.1634  142.0282  159.9139 C   0  0  0  0  0  0  0  0  0  0  0  0
  154.0249  141.1652  160.8117 C   0  0  0  0  0  0  0  0  0  0  0  0
  152.5459  141.3901  158.8965 N   0  0  0  0  0  0  0  0  0  0  0  0
  151.7573  142.0983  158.0507 C   0  0  0  0  0  0  0  0  0  0  0  0
  151.0666  141.5237  156.9514 N   0  0  0  0  0  0  0  0  0  0  0  0
  151.4475  140.4948  156.1696 C   0  0  0  0  0  0  0  0  0  0  0  0
  152.4908  139.8579  156.3203 O   0  0  0  0  0  0  0  0  0  0  0  0
  150.4710  140.1112  155.0475 C   0  0  2  0  0  0  0  0  0  0  0  0
  149.3901  141.1895  154.7975 C   0  0  0  0  0  0  0  0  0  0  0  0
  148.4302  140.7367  153.7647 N   0  3  2  0  0  0  0  0  0  0  0  0
  147.3971  141.7504  153.4624 C   0  0  0  0  0  0  0  0  0  0  0  0
  147.8524  139.4212  154.1191 C   0  0  0  0  0  0  0  0  0  0  0  0
  148.9728  138.4013  154.3746 C   0  0  0  0  0  0  0  0  0  0  0  0
  149.8307  138.8855  155.4000 O   0  0  0  0  0  0  0  0  0  0  0  0
  151.5703  143.4891  158.2138 C   0  0  0  0  0  0  0  0  0  0  0  0
  152.5942  146.0107  160.3244 H   0  0  0  0  0  0  0  0  0  0  0  0
  150.9740  145.8767  159.6327 H   0  0  0  0  0  0  0  0  0  0  0  0
  152.3625  146.1869  158.5823 H   0  0  0  0  0  0  0  0  0  0  0  0
  153.5408  143.8860  160.9723 H   0  0  0  0  0  0  0  0  0  0  0  0
  154.5116  141.7605  161.5851 H   0  0  0  0  0  0  0  0  0  0  0  0
  154.7996  140.6654  160.2292 H   0  0  0  0  0  0  0  0  0  0  0  0
  153.4171  140.4034  161.3008 H   0  0  0  0  0  0  0  0  0  0  0  0
  150.1809  141.9518  156.7245 H   0  0  0  0  0  0  0  0  0  0  0  0
  151.0585  139.9610  154.1400 H   0  0  0  0  0  0  0  0  0  0  0  0
  148.8513  141.4097  155.7211 H   0  0  0  0  0  0  0  0  0  0  0  0
  149.8545  142.1196  154.4663 H   0  0  0  0  0  0  0  0  0  0  0  0
  146.7731  141.9475  154.3351 H   0  0  0  0  0  0  0  0  0  0  0  0
  146.7530  141.4115  152.6504 H   0  0  0  0  0  0  0  0  0  0  0  0
  147.8579  142.6889  153.1523 H   0  0  0  0  0  0  0  0  0  0  0  0
  147.2292  139.5211  155.0094 H   0  0  0  0  0  0  0  0  0  0  0  0
  147.2073  139.0711  153.3122 H   0  0  0  0  0  0  0  0  0  0  0  0
  148.5483  137.4483  154.6907 H   0  0  0  0  0  0  0  0  0  0  0  0
  149.5436  138.2100  153.4645 H   0  0  0  0  0  0  0  0  0  0  0  0
  150.9394  144.0427  157.5331 H   0  0  0  0  0  0  0  0  0  0  0  0
  148.9606  140.6020  152.9156 H   0  0  0  0  0  0  0  0  0  0  0  0
  1  2  1  0  0  0  0
  1 19  1  0  0  0  0
  1 20  1  0  0  0  0
  1 21  1  0  0  0  0
  2 18  1  0  0  0  0
  2  3  2  0  0  0  0
  3  4  1  0  0  0  0
  3 22  1  0  0  0  0
  4  5  1  0  0  0  0
  4  6  2  0  0  0  0
  5 23  1  0  0  0  0
  5 24  1  0  0  0  0
  5 25  1  0  0  0  0
  6  7  1  0  0  0  0
  7  8  1  0  0  0  0
  7 18  2  0  0  0  0
  8  9  1  0  0  0  0
  8 26  1  0  0  0  0
  9 10  2  0  0  0  0
  9 11  1  0  0  0  0
 11 17  1  0  0  0  0
 11 12  1  0  0  0  0
 11 27  1  0  0  0  0
 12 13  1  0  0  0  0
 12 28  1  0  0  0  0
 12 29  1  0  0  0  0
 13 14  1  0  0  0  0
 13 15  1  0  0  0  0
 13 38  1  0  0  0  0
 14 30  1  0  0  0  0
 14 31  1  0  0  0  0
 14 32  1  0  0  0  0
 15 16  1  0  0  0  0
 15 33  1  0  0  0  0
 15 34  1  0  0  0  0
 16 17  1  0  0  0  0
 16 35  1  0  0  0  0
 16 36  1  0  0  0  0
 18 37  1  0  0  0  0
M  CHG  1  13   1
M  END
> <s_m_source_file>
AV-unprocessed.smi

> <i_m_source_file_index>
3314

> <i_lp_mmshare_version>
43012

> <i_f3d_flags>
0

> <s_epik_input>
W0NIM11jMVtjSF1jKFtDSDNdKW5jKFtjSF0xKVtOSF1DKD1PKVtDQEBIXTJbQ0gyXU4oW0NIM10pW0NIMl1bQ0gyXU8y

> <s_epik_cmdline>
J2VwaWtfcHl0aG9uJywgJy1waCcsICc3LjAnLCAnLXRuJywgJzgnLCAnLW1hJywgJzIwMCcsICctbWV0YWxfYmluZGluZycsICctaW1hZScsICc8aW5maWxlLm1hZT4nLCAnLW9tYWUnLCAnPG91dGZpbGUubWFlPic=

> <r_epik_Ionization_Penalty>
0.32442

> <r_epik_Ionization_Penalty_Charging>
0.314023

> <r_epik_Ionization_Penalty_Neutral>
0.0103972

> <r_epik_State_Penalty>
0.29453

> <r_epik_Charging_Adjusted_Penalty>
0.608553

> <i_epik_Tot_Q>
1

> <i_epik_Tot_abs_Q>
1

> <r_epik_Metal_State_Penalty>
0.286909

> <b_epik_Metal_Only>
0

> <s_lp_Force_Field>
OPLS_2005

> <r_lp_Energy>
16.487

> <b_lp_Chiralities_Consistent>
1

> <s_lp_Variant>
AV-unprocessed.smi:3314-1

> <Gold.Version>
5.8.1

> <Gold.Id.Protein>
6NUR|6NUR_protein|mol2

> <Gold.PLP.Fitness>
45.6671

> <Gold.PLP.PLP>
-40.7193

> <Gold.PLP.part.hbond>
-2.0000

> <Gold.PLP.part.metal>
0.0000

> <Gold.PLP.part.buried>
-3.7537

> <Gold.PLP.part.nonpolar>
-34.5102

> <Gold.PLP.part.repulsive>
0.2658

> <Gold.PLP.ligand.clash>
0.0063

> <Gold.PLP.ligand.torsion>
0.5242

> <Gold.PLP.Chemscore.Hbond>
2.0000

> <Gold.PLP.Chemscore.CHOScore>
0.0000

> <Gold.PLP.Chemscore.Metal>
0.0000

> <Gold.Chemscore.Hbonds>
donor molecule, donor type, donor heavy atom, donor atom, acceptor molecule, acceptor atom, score
      L1  H    13    38       P1  7957  1.00
      P1  H  7997  8008       L1    10  1.00

> <Gold.PLP.Chemscore.Internal.Correction>
0.0024

> <Gold.Rescore>
     Score         DG    S(hbond)    S(metal)    S(lipo)     H(rot)  DE(clash)    DE(int)     intcor
     19.76     -21.46       1.99        0.00     101.60       1.00       0.09       1.61       ----

> <Gold.Chemscore.Fitness>
19.7608

> <Gold.Chemscore.DG>
-21.4588

> <Gold.Chemscore.ZeroCoef>
-5.4800

> <Gold.Chemscore.Hbond>
1.9915

> <Gold.Chemscore.Metal>
0.0000

> <Gold.Chemscore.Lipo>
101.5994

> <Gold.Chemscore.Internal_Hbond>
0.0000

> <Gold.Chemscore.DEClash>
0.0921

> <Gold.Chemscore.DEInternal>
1.6059

> <Gold.Chemscore.Rot>
1.0000

> <Gold.Chemscore.Internal.Correction>
   9.000000E+99

> <Gold.Chemscore.Hbonds>
donor molecule, donor type, donor heavy atom, donor atom, acceptor molecule, acceptor atom, score
      L1  H    13    38       P1  7957  0.99
      P1  H  7997  8008       L1    10  0.98

> <Gold.Chemscore.Hbond.Weighted>
-6.6517

> <Gold.Chemscore.Metal.Weighted>
-0.0000

> <Gold.Chemscore.Lipo.Weighted>
-11.8871

> <Gold.Chemscore.Internal_Hbond.Weighted>
0.0000

> <Gold.Chemscore.DEClash.Weighted>
0.0921

> <Gold.Chemscore.DEInternal.Weighted>
1.6059

> <Gold.Chemscore.Rot.Weighted>
2.5600

> <Gold.Chemscore.Internal.Correction.Weighted>
   9.000000E+99

> <Gold.Protein.RotatedTorsions>
[ 6907 6896 6895 6894 ] final  -89.34 input  -60.11 | X-H torsion
[ 7974 7965 7964 7962 ] final   24.94 input  175.53 | X-H torsion
[ 8008 7997 7996 7995 ] final  -30.07 input   59.86 | X-H torsion
[ 10167 10162 10161 10158 ] final   38.52 input  -65.29 | X-H torsion
[ 10718 10713 10712 10709 ] final -108.37 input   66.30 | X-H torsion
[ 10763 10752 10751 10750 ] final -159.09 input  -60.55 | X-H torsion
[ 11005 11000 10999 10996 ] final  -57.92 input  -57.11 | X-H torsion

> <Gold.Protein.ActiveResidues>
 VAL166  LYS551  ARG553  GLY616  TRP617  ASP618  TYR619  PRO620  LYS621  CYS622 
 ASP623  PHE694  ASN695  SER759  ASP760  ASP761  ALA762  ILE779  LEU786  VAL792 
 PHE793  MET794  SER795  GLU796  ALA797  LYS798  CYS799  TRP800  GLU811  SER814 

> <Gold.Protein.RotatedAtoms>
  150.6873  134.2602  159.4546 H   0  0  0  0  0  0  0  0  0  0  0  0  # atno 6907 bound_to 6896
  152.0533  134.9637  160.0584 H   0  0  0  0  0  0  0  0  0  0  0  0  # atno 6908 bound_to 6896
  152.1093  133.4257  159.4660 H   0  0  0  0  0  0  0  0  0  0  0  0  # atno 6909 bound_to 6896
  146.1913  139.7534  142.8830 H   0  0  0  0  0  0  0  0  0  0  0  0  # atno 7974 bound_to 7965
  154.4264  140.1801  156.1349 H   0  0  0  0  0  0  0  0  0  0  0  0  # atno 8008 bound_to 7997
  156.0038  140.3357  155.6847 H   0  0  0  0  0  0  0  0  0  0  0  0  # atno 8009 bound_to 7997
  155.6206  140.0659  157.2670 H   0  0  0  0  0  0  0  0  0  0  0  0  # atno 8010 bound_to 7997
  140.3928  144.1829  150.6131 H   0  0  0  0  0  0  0  0  0  0  0  0  # atno 10167 bound_to 10162
  156.0482  130.5709  150.7951 H   0  0  0  0  0  0  0  0  0  0  0  0  # atno 10718 bound_to 10713
  154.7503  135.3090  154.8569 H   0  0  0  0  0  0  0  0  0  0  0  0  # atno 10763 bound_to 10752
  153.9358  135.6780  153.4749 H   0  0  0  0  0  0  0  0  0  0  0  0  # atno 10764 bound_to 10752
  153.1099  135.4871  154.8945 H   0  0  0  0  0  0  0  0  0  0  0  0  # atno 10765 bound_to 10752
  141.1185  133.6611  156.4842 H   0  0  0  0  0  0  0  0  0  0  0  0  # atno 11005 bound_to 11000
  145.3784  141.0354  143.3191 LP  0  0  0  0  0  0  0  0  0  0  0  0  # atno 17320 bound_to 7965
  144.8492  139.5349  143.6864 LP  0  0  0  0  0  0  0  0  0  0  0  0  # atno 17321 bound_to 7965
  140.4821  143.2375  151.8940 LP  0  0  0  0  0  0  0  0  0  0  0  0  # atno 17342 bound_to 10162
  139.4788  144.5258  151.8738 LP  0  0  0  0  0  0  0  0  0  0  0  0  # atno 17343 bound_to 10162
  157.5381  131.0939  150.9865 LP  0  0  0  0  0  0  0  0  0  0  0  0  # atno 17370 bound_to 10713
  157.0155  130.5653  149.5325 LP  0  0  0  0  0  0  0  0  0  0  0  0  # atno 17371 bound_to 10713
  140.4576  134.6871  157.5070 LP  0  0  0  0  0  0  0  0  0  0  0  0  # atno 17394 bound_to 11000
  140.0125  134.6669  155.9360 LP  0  0  0  0  0  0  0  0  0  0  0  0  # atno 17395 bound_to 11000

$$$$
