AV-unprocessed.smi:450|AV-procd|sdf|2608|dock8
  -GOLD-   2262023 03D 1   1.00000     0.00000
 Structure written by MMmdl.
 32 32  0  0  0  0  0  0  0  0  1 V2000
  152.2430  141.9923  163.3303 C   0  0  0  0  0  0  0  0  0  0  0  0
  151.6011  142.5268  162.0411 C   0  0  0  0  0  0  0  0  0  0  0  0
  152.2066  141.9345  160.7544 C   0  0  1  0  0  0  0  0  0  0  0  0
  153.0646  140.6942  161.0508 C   0  0  0  0  0  0  0  0  0  0  0  0
  151.1433  141.5995  159.8115 N   0  0  0  0  0  0  0  0  0  0  0  0
  150.9744  142.1441  158.5968 C   0  0  0  0  0  0  0  0  0  0  0  0
  151.7437  142.9705  158.1076 O   0  0  0  0  0  0  0  0  0  0  0  0
  149.7367  141.6967  157.8182 C   0  0  0  0  0  0  0  0  0  0  0  0
  150.1163  140.9468  156.6232 N   0  0  0  0  0  0  0  0  0  0  0  0
  150.0066  141.3197  155.3315 C   0  0  0  0  0  0  0  0  0  0  0  0
  149.4632  142.5476  154.9826 N   0  0  0  0  0  0  0  0  0  0  0  0
  150.4595  140.4230  154.4599 N   0  0  0  0  0  0  0  0  0  0  0  0
  150.9112  139.3580  155.2365 C   0  0  0  0  0  0  0  0  0  0  0  0
  151.4776  138.1883  154.6547 C   0  0  0  0  0  0  0  0  0  0  0  0
  151.9355  137.2364  154.1829 N   0  0  0  0  0  0  0  0  0  0  0  0
  150.6995  139.6830  156.5591 C   0  0  0  0  0  0  0  0  0  0  0  0
  151.0186  138.8850  157.6784 C   0  0  0  0  0  0  0  0  0  0  0  0
  151.2809  138.2314  158.5959 N   0  0  0  0  0  0  0  0  0  0  0  0
  151.7465  142.4053  164.2086 H   0  0  0  0  0  0  0  0  0  0  0  0
  153.2985  142.2580  163.3958 H   0  0  0  0  0  0  0  0  0  0  0  0
  152.1665  140.9061  163.3860 H   0  0  0  0  0  0  0  0  0  0  0  0
  150.5333  142.3067  162.0678 H   0  0  0  0  0  0  0  0  0  0  0  0
  151.6849  143.6142  162.0227 H   0  0  0  0  0  0  0  0  0  0  0  0
  152.8488  142.6956  160.3072 H   0  0  0  0  0  0  0  0  0  0  0  0
  153.8641  140.9305  161.7534 H   0  0  0  0  0  0  0  0  0  0  0  0
  153.5316  140.3090  160.1439 H   0  0  0  0  0  0  0  0  0  0  0  0
  152.4670  139.8917  161.4843 H   0  0  0  0  0  0  0  0  0  0  0  0
  150.4551  140.9321  160.1281 H   0  0  0  0  0  0  0  0  0  0  0  0
  149.1016  141.0736  158.4490 H   0  0  0  0  0  0  0  0  0  0  0  0
  149.1364  142.5630  157.5384 H   0  0  0  0  0  0  0  0  0  0  0  0
  149.1358  143.1938  155.6867 H   0  0  0  0  0  0  0  0  0  0  0  0
  149.4253  142.8583  154.0228 H   0  0  0  0  0  0  0  0  0  0  0  0
  1  2  1  0  0  0  0
  1 19  1  0  0  0  0
  1 20  1  0  0  0  0
  1 21  1  0  0  0  0
  2  3  1  0  0  0  0
  2 22  1  0  0  0  0
  2 23  1  0  0  0  0
  3  4  1  0  0  0  0
  3  5  1  0  0  0  0
  3 24  1  0  0  0  0
  4 25  1  0  0  0  0
  4 26  1  0  0  0  0
  4 27  1  0  0  0  0
  5  6  1  0  0  0  0
  5 28  1  0  0  0  0
  6  7  2  0  0  0  0
  6  8  1  0  0  0  0
  8  9  1  0  0  0  0
  8 29  1  0  0  0  0
  8 30  1  0  0  0  0
  9 16  1  0  0  0  0
  9 10  1  0  0  0  0
 10 11  1  0  0  0  0
 10 12  2  0  0  0  0
 11 31  1  0  0  0  0
 11 32  1  0  0  0  0
 12 13  1  0  0  0  0
 13 14  1  0  0  0  0
 13 16  2  0  0  0  0
 14 15  3  0  0  0  0
 16 17  1  0  0  0  0
 17 18  3  0  0  0  0
M  END
> <s_m_source_file>
AV-unprocessed.smi

> <i_m_source_file_index>
450

> <i_lp_mmshare_version>
43012

> <i_f3d_flags>
0

> <s_epik_input>
W0NIM11bQ0gyXVtDQEhdKFtDSDNdKVtOSF1DKD1PKVtDSDJdbjFjKFtOSDJdKW5jKEMjTiljMUMjTg==

> <s_epik_cmdline>
J2VwaWtfcHl0aG9uJywgJy1waCcsICc3LjAnLCAnLXRuJywgJzgnLCAnLW1hJywgJzIwMCcsICctbWV0YWxfYmluZGluZycsICctaW1hZScsICc8aW5maWxlLm1hZT4nLCAnLW9tYWUnLCAnPG91dGZpbGUubWFlPic=

> <r_epik_Ionization_Penalty>
0.000482749

> <r_epik_Ionization_Penalty_Charging>
7.71074e-10

> <r_epik_Ionization_Penalty_Neutral>
0.000482748

> <r_epik_State_Penalty>
0.000433536

> <r_epik_Charging_Adjusted_Penalty>
0.000433537

> <i_epik_Tot_Q>
0

> <i_epik_Tot_abs_Q>
0

> <r_epik_Metal_State_Penalty>
-0

> <b_epik_Metal_Only>
0

> <s_lp_Force_Field>
OPLS_2005

> <r_lp_Energy>
5.27204

> <b_lp_Chiralities_Consistent>
1

> <s_lp_Variant>
AV-unprocessed.smi:450-2

> <Gold.Version>
5.8.1

> <Gold.Id.Protein>
6NUR|6NUR_protein|mol2

> <Gold.PLP.Fitness>
43.7326

> <Gold.PLP.PLP>
-39.1030

> <Gold.PLP.part.hbond>
-2.9619

> <Gold.PLP.part.metal>
0.0000

> <Gold.PLP.part.buried>
-5.4486

> <Gold.PLP.part.nonpolar>
-30.9799

> <Gold.PLP.part.repulsive>
0.6504

> <Gold.PLP.ligand.clash>
0.0429

> <Gold.PLP.ligand.torsion>
0.7539

> <Gold.PLP.Chemscore.Hbond>
2.0560

> <Gold.PLP.Chemscore.CHOScore>
0.0000

> <Gold.PLP.Chemscore.Metal>
0.0000

> <Gold.Chemscore.Hbonds>
donor molecule, donor type, donor heavy atom, donor atom, acceptor molecule, acceptor atom, score
      L1  H    11    31       P1  8028  0.64
      P1  H  7989  7998       L1    12  1.00
      P1  H 10752 10763       L1    15  0.70

> <Gold.PLP.Chemscore.Internal.Correction>
0.0124

> <Gold.Rescore>
     Score         DG    S(hbond)    S(metal)    S(lipo)     H(rot)  DE(clash)    DE(int)     intcor
     12.02     -13.15       1.82        0.00      61.89       2.21       0.03       1.11       ----

> <Gold.Chemscore.Fitness>
12.0181

> <Gold.Chemscore.DG>
-13.1494

> <Gold.Chemscore.ZeroCoef>
-5.4800

> <Gold.Chemscore.Hbond>
1.8235

> <Gold.Chemscore.Metal>
0.0000

> <Gold.Chemscore.Lipo>
61.8947

> <Gold.Chemscore.Internal_Hbond>
0.0000

> <Gold.Chemscore.DEClash>
0.0255

> <Gold.Chemscore.DEInternal>
1.1058

> <Gold.Chemscore.Rot>
2.2121

> <Gold.Chemscore.Internal.Correction>
   9.000000E+99

> <Gold.Chemscore.Hbonds>
donor molecule, donor type, donor heavy atom, donor atom, acceptor molecule, acceptor atom, score
      L1  H    11    31       P1  8028  0.60
      P1  H  7989  7998       L1    12  0.62
      P1  H 10752 10763       L1    15  0.68

> <Gold.Chemscore.Hbond.Weighted>
-6.0906

> <Gold.Chemscore.Metal.Weighted>
-0.0000

> <Gold.Chemscore.Lipo.Weighted>
-7.2417

> <Gold.Chemscore.Internal_Hbond.Weighted>
0.0000

> <Gold.Chemscore.DEClash.Weighted>
0.0255

> <Gold.Chemscore.DEInternal.Weighted>
1.1058

> <Gold.Chemscore.Rot.Weighted>
5.6629

> <Gold.Chemscore.Internal.Correction.Weighted>
   9.000000E+99

> <Gold.Protein.RotatedTorsions>
[ 6907 6896 6895 6894 ] final -117.40 input  -60.11 | X-H torsion
[ 7974 7965 7964 7962 ] final  -48.01 input  175.53 | X-H torsion
[ 8008 7997 7996 7995 ] final   12.52 input   59.86 | X-H torsion
[ 10167 10162 10161 10158 ] final  174.80 input  -65.29 | X-H torsion
[ 10718 10713 10712 10709 ] final  123.73 input   66.30 | X-H torsion
[ 10763 10752 10751 10750 ] final    9.20 input  -60.55 | X-H torsion
[ 11005 11000 10999 10996 ] final  -70.30 input  -57.11 | X-H torsion

> <Gold.Protein.ActiveResidues>
 VAL166  LYS551  ARG553  GLY616  TRP617  ASP618  TYR619  PRO620  LYS621  CYS622 
 ASP623  PHE694  ASN695  SER759  ASP760  ASP761  ALA762  ILE779  LEU786  VAL792 
 PHE793  MET794  SER795  GLU796  ALA797  LYS798  CYS799  TRP800  GLU811  SER814 

> <Gold.Protein.RotatedAtoms>
  150.8133  133.8382  159.3171 H   0  0  0  0  0  0  0  0  0  0  0  0  # atno 6907 bound_to 6896
  151.6161  135.1034  160.0101 H   0  0  0  0  0  0  0  0  0  0  0  0  # atno 6908 bound_to 6896
  152.4225  133.7099  159.6530 H   0  0  0  0  0  0  0  0  0  0  0  0  # atno 6909 bound_to 6896
  145.9556  140.7529  142.9483 H   0  0  0  0  0  0  0  0  0  0  0  0  # atno 7974 bound_to 7965
  154.8218  140.2885  155.5782 H   0  0  0  0  0  0  0  0  0  0  0  0  # atno 8008 bound_to 7997
  156.2998  140.2548  156.3057 H   0  0  0  0  0  0  0  0  0  0  0  0  # atno 8009 bound_to 7997
  154.9330  140.0383  157.2047 H   0  0  0  0  0  0  0  0  0  0  0  0  # atno 8010 bound_to 7997
  139.5155  144.3104  152.0296 H   0  0  0  0  0  0  0  0  0  0  0  0  # atno 10167 bound_to 10162
  157.5642  131.1087  150.8485 H   0  0  0  0  0  0  0  0  0  0  0  0  # atno 10718 bound_to 10713
  153.2167  135.6876  153.8049 H   0  0  0  0  0  0  0  0  0  0  0  0  # atno 10763 bound_to 10752
  153.7263  135.3259  155.3278 H   0  0  0  0  0  0  0  0  0  0  0  0  # atno 10764 bound_to 10752
  154.8249  135.4625  154.0997 H   0  0  0  0  0  0  0  0  0  0  0  0  # atno 10765 bound_to 10752
  141.1571  133.6786  156.6732 H   0  0  0  0  0  0  0  0  0  0  0  0  # atno 11005 bound_to 11000
  144.6804  140.2507  143.7332 LP  0  0  0  0  0  0  0  0  0  0  0  0  # atno 17320 bound_to 7965
  145.8111  139.2003  143.1992 LP  0  0  0  0  0  0  0  0  0  0  0  0  # atno 17321 bound_to 7965
  140.2549  144.4129  150.6207 LP  0  0  0  0  0  0  0  0  0  0  0  0  # atno 17342 bound_to 10162
  140.6198  143.2175  151.6717 LP  0  0  0  0  0  0  0  0  0  0  0  0  # atno 17343 bound_to 10162
  156.8974  130.5234  149.5284 LP  0  0  0  0  0  0  0  0  0  0  0  0  # atno 17370 bound_to 10713
  156.0691  130.5728  150.9348 LP  0  0  0  0  0  0  0  0  0  0  0  0  # atno 17371 bound_to 10713
  140.3159  134.8048  157.4213 LP  0  0  0  0  0  0  0  0  0  0  0  0  # atno 17394 bound_to 11000
  140.1139  134.5309  155.8242 LP  0  0  0  0  0  0  0  0  0  0  0  0  # atno 17395 bound_to 11000

$$$$
