AV-unprocessed.smi:1005|AV-procd|sdf|4385|dock4
  -GOLD-   22720 2313D 1   1.00000     0.00000
 Structure written by MMmdl.
 58 60  0  0  0  0  0  0  0  0  4 V2000
  151.9602  144.4636  160.4746 C   0  0  0  0  0  0  0  0  0  0  0  0
  151.7430  143.3633  159.4498 C   0  0  0  0  0  0  0  0  0  0  0  0
  150.8500  143.6043  158.3812 C   0  0  0  0  0  0  0  0  0  0  0  0
  150.6701  142.5784  157.4610 C   0  0  0  0  0  0  0  0  0  0  0  0
  149.8749  142.5045  156.3153 N   0  3  0  0  0  0  0  0  0  0  0  0
  150.0295  141.2836  155.7319 C   0  0  0  0  0  0  0  0  0  0  0  0
  150.9079  140.5744  156.4928 N   0  0  0  0  0  0  0  0  0  0  0  0
  151.4233  139.2094  156.3203 C   0  0  0  0  0  0  0  0  0  0  0  0
  150.7267  138.4448  155.1770 C   0  0  1  0  0  0  0  0  0  0  0  0
  151.0699  139.0433  153.9421 O   0  0  0  0  0  0  0  0  0  0  0  0
  151.1458  136.9616  155.1425 C   0  0  0  0  0  0  0  0  0  0  0  0
  150.0732  136.0748  154.6221 N   0  3  2  0  0  0  0  0  0  0  0  0
  148.7892  136.1981  155.3551 C   0  0  0  0  0  0  0  0  0  0  0  0
  147.7268  135.2806  154.7296 C   0  0  0  0  0  0  0  0  0  0  0  0
  148.2013  133.9396  154.7224 O   0  0  0  0  0  0  0  0  0  0  0  0
  149.3789  133.7816  153.9387 C   0  0  2  0  0  0  0  0  0  0  0  0
  149.7296  132.2800  153.9388 C   0  0  0  0  0  0  0  0  0  0  0  0
  148.9421  131.4875  152.9583 N   0  3  0  0  0  0  0  0  0  0  0  0
  149.0083  130.0360  153.2391 C   0  0  0  0  0  0  0  0  0  0  0  0
  147.5406  131.9477  152.8187 C   0  0  0  0  0  0  0  0  0  0  0  0
  150.4946  134.6548  154.5521 C   0  0  0  0  0  0  0  0  0  0  0  0
  151.3405  141.3455  157.5769 C   0  0  0  0  0  0  0  0  0  0  0  0
  152.2269  141.0925  158.6209 C   0  0  0  0  0  0  0  0  0  0  0  0
  152.4249  142.1241  159.5664 C   0  0  0  0  0  0  0  0  0  0  0  0
  153.3869  141.8778  160.7163 C   0  0  0  0  0  0  0  0  0  0  0  0
  151.3435  145.3367  160.2594 H   0  0  0  0  0  0  0  0  0  0  0  0
  153.0024  144.7838  160.4768 H   0  0  0  0  0  0  0  0  0  0  0  0
  151.7024  144.1135  161.4745 H   0  0  0  0  0  0  0  0  0  0  0  0
  150.3299  144.5463  158.2849 H   0  0  0  0  0  0  0  0  0  0  0  0
  149.5406  140.9403  154.8311 H   0  0  0  0  0  0  0  0  0  0  0  0
  152.4948  139.2861  156.1296 H   0  0  0  0  0  0  0  0  0  0  0  0
  151.3152  138.6797  157.2677 H   0  0  0  0  0  0  0  0  0  0  0  0
  149.6485  138.5301  155.3064 H   0  0  0  0  0  0  0  0  0  0  0  0
  151.8098  138.5793  153.5794 H   0  0  0  0  0  0  0  0  0  0  0  0
  152.0336  136.8690  154.5145 H   0  0  0  0  0  0  0  0  0  0  0  0
  151.4416  136.6242  156.1373 H   0  0  0  0  0  0  0  0  0  0  0  0
  148.9374  135.9339  156.4035 H   0  0  0  0  0  0  0  0  0  0  0  0
  148.4307  137.2266  155.3333 H   0  0  0  0  0  0  0  0  0  0  0  0
  146.8042  135.3254  155.3088 H   0  0  0  0  0  0  0  0  0  0  0  0
  147.4815  135.6006  153.7157 H   0  0  0  0  0  0  0  0  0  0  0  0
  149.1602  134.1134  152.9233 H   0  0  0  0  0  0  0  0  0  0  0  0
  150.7935  132.1780  153.7183 H   0  0  0  0  0  0  0  0  0  0  0  0
  149.5863  131.8587  154.9352 H   0  0  0  0  0  0  0  0  0  0  0  0
  148.5626  129.8047  154.2075 H   0  0  0  0  0  0  0  0  0  0  0  0
  150.0419  129.6878  153.2452 H   0  0  0  0  0  0  0  0  0  0  0  0
  148.4768  129.4689  152.4738 H   0  0  0  0  0  0  0  0  0  0  0  0
  147.0068  131.8703  153.7671 H   0  0  0  0  0  0  0  0  0  0  0  0
  147.0105  131.3423  152.0827 H   0  0  0  0  0  0  0  0  0  0  0  0
  147.4890  132.9815  152.4796 H   0  0  0  0  0  0  0  0  0  0  0  0
  151.3992  134.5751  153.9480 H   0  0  0  0  0  0  0  0  0  0  0  0
  150.7454  134.3014  155.5538 H   0  0  0  0  0  0  0  0  0  0  0  0
  152.7461  140.1498  158.7095 H   0  0  0  0  0  0  0  0  0  0  0  0
  153.8469  140.8915  160.6481 H   0  0  0  0  0  0  0  0  0  0  0  0
  152.8645  141.9367  161.6715 H   0  0  0  0  0  0  0  0  0  0  0  0
  154.1871  142.6182  160.7126 H   0  0  0  0  0  0  0  0  0  0  0  0
  149.3834  131.6132  152.0583 H   0  0  0  0  0  0  0  0  0  0  0  0
  149.9024  136.3682  153.6704 H   0  0  0  0  0  0  0  0  0  0  0  0
  149.2726  143.2334  155.9539 H   0  0  0  0  0  0  0  0  0  0  0  0
  1  2  1  0  0  0  0
  1 26  1  0  0  0  0
  1 27  1  0  0  0  0
  1 28  1  0  0  0  0
  2 24  1  0  0  0  0
  2  3  2  0  0  0  0
  3  4  1  0  0  0  0
  3 29  1  0  0  0  0
  4 22  2  0  0  0  0
  4  5  1  0  0  0  0
  5  6  2  0  0  0  0
  5 58  1  0  0  0  0
  6  7  1  0  0  0  0
  6 30  1  0  0  0  0
  7  8  1  0  0  0  0
  7 22  1  0  0  0  0
  8  9  1  0  0  0  0
  8 31  1  0  0  0  0
  8 32  1  0  0  0  0
  9 10  1  0  0  0  0
  9 11  1  0  0  0  0
  9 33  1  0  0  0  0
 10 34  1  0  0  0  0
 11 12  1  0  0  0  0
 11 35  1  0  0  0  0
 11 36  1  0  0  0  0
 12 21  1  0  0  0  0
 12 13  1  0  0  0  0
 12 57  1  0  0  0  0
 13 14  1  0  0  0  0
 13 37  1  0  0  0  0
 13 38  1  0  0  0  0
 14 15  1  0  0  0  0
 14 39  1  0  0  0  0
 14 40  1  0  0  0  0
 15 16  1  0  0  0  0
 16 17  1  0  0  0  0
 16 21  1  0  0  0  0
 16 41  1  0  0  0  0
 17 18  1  0  0  0  0
 17 42  1  0  0  0  0
 17 43  1  0  0  0  0
 18 19  1  0  0  0  0
 18 20  1  0  0  0  0
 18 56  1  0  0  0  0
 19 44  1  0  0  0  0
 19 45  1  0  0  0  0
 19 46  1  0  0  0  0
 20 47  1  0  0  0  0
 20 48  1  0  0  0  0
 20 49  1  0  0  0  0
 21 50  1  0  0  0  0
 21 51  1  0  0  0  0
 22 23  1  0  0  0  0
 23 24  2  0  0  0  0
 23 52  1  0  0  0  0
 24 25  1  0  0  0  0
 25 53  1  0  0  0  0
 25 54  1  0  0  0  0
 25 55  1  0  0  0  0
M  CHG  1   5   1
M  CHG  1  12   1
M  CHG  1  18   1
M  END
> <s_m_source_file>
AV-unprocessed.smi

> <i_m_source_file_index>
1005

> <i_lp_mmshare_version>
43012

> <i_f3d_flags>
0

> <s_epik_input>
W0NIM11jKFtjSF0xKWMoW0NIM10pW2NIXWMoYzEyKW4oW2NIXW4yKVtDSDJdW0NASF0oW09IXSlbQ0gyXU4zW0NIMl1bQ0gyXU9bQ0BIXShbQ0gyXTMpW0NIMl1OKFtDSDNdKVtDSDNd

> <s_epik_cmdline>
J2VwaWtfcHl0aG9uJywgJy1waCcsICc3LjAnLCAnLXRuJywgJzgnLCAnLW1hJywgJzIwMCcsICctbWV0YWxfYmluZGluZycsICctaW1hZScsICc8aW5maWxlLm1hZT4nLCAnLW9tYWUnLCAnPG91dGZpbGUubWFlPic=

> <r_epik_Ionization_Penalty>
2.30802

> <r_epik_Ionization_Penalty_Charging>
2.30798

> <r_epik_Ionization_Penalty_Neutral>
3.4851e-05

> <r_epik_State_Penalty>
2.52618

> <r_epik_Charging_Adjusted_Penalty>
4.83416

> <i_epik_Tot_Q>
3

> <i_epik_Tot_abs_Q>
3

> <r_epik_Metal_State_Penalty>
6.53149

> <b_epik_Metal_Only>
0

> <s_lp_Force_Field>
OPLS_2005

> <r_lp_Energy>
43.2019

> <b_lp_Chiralities_Consistent>
1

> <s_lp_Variant>
AV-unprocessed.smi:1005-24

> <Gold.Version>
5.8.1

> <Gold.Id.Protein>
6NUR|6NUR_protein|mol2

> <Gold.PLP.Fitness>
64.0914

> <Gold.PLP.PLP>
-48.4223

> <Gold.PLP.part.hbond>
-3.9439

> <Gold.PLP.part.metal>
0.0000

> <Gold.PLP.part.buried>
-3.9142

> <Gold.PLP.part.nonpolar>
-41.4275

> <Gold.PLP.part.repulsive>
0.2373

> <Gold.PLP.ligand.clash>
0.0000

> <Gold.PLP.ligand.torsion>
0.8493

> <Gold.PLP.Chemscore.Hbond>
5.7160

> <Gold.PLP.Chemscore.CHOScore>
0.0000

> <Gold.PLP.Chemscore.Metal>
0.0000

> <Gold.Chemscore.Hbonds>
donor molecule, donor type, donor heavy atom, donor atom, acceptor molecule, acceptor atom, score
      L1  H     5    58       P1  8028  2.00
      L1  H    12    57       P1  7948  1.90
      L1  H    18    56       P1 10747  0.66
      P1  H  7989  7998       L1    10  0.85

> <Gold.PLP.Chemscore.Internal.Correction>
0.2196

> <Gold.Rescore>
     Score         DG    S(hbond)    S(metal)    S(lipo)     H(rot)  DE(clash)    DE(int)     intcor
     20.51     -24.65       3.23        0.00     127.49       2.56       1.80       2.35       ----

> <Gold.Chemscore.Fitness>
20.5063

> <Gold.Chemscore.DG>
-24.6506

> <Gold.Chemscore.ZeroCoef>
-5.4800

> <Gold.Chemscore.Hbond>
3.2331

> <Gold.Chemscore.Metal>
0.0000

> <Gold.Chemscore.Lipo>
127.4947

> <Gold.Chemscore.Internal_Hbond>
0.0000

> <Gold.Chemscore.DEClash>
1.7981

> <Gold.Chemscore.DEInternal>
2.3462

> <Gold.Chemscore.Rot>
2.5566

> <Gold.Chemscore.Internal.Correction>
   9.000000E+99

> <Gold.Chemscore.Hbonds>
donor molecule, donor type, donor heavy atom, donor atom, acceptor molecule, acceptor atom, score
      L1  H     5    58       P1  8028  0.94
      L1  H    12    57       P1  7948  0.20
      L1  H    18    56       P1 10747  0.17
      P1  H  7989  7998       L1    10  0.14

> <Gold.Chemscore.Hbond.Weighted>
-10.7987

> <Gold.Chemscore.Metal.Weighted>
-0.0000

> <Gold.Chemscore.Lipo.Weighted>
-14.9169

> <Gold.Chemscore.Internal_Hbond.Weighted>
0.0000

> <Gold.Chemscore.DEClash.Weighted>
1.7981

> <Gold.Chemscore.DEInternal.Weighted>
2.3462

> <Gold.Chemscore.Rot.Weighted>
6.5450

> <Gold.Chemscore.Internal.Correction.Weighted>
   9.000000E+99

> <Gold.Protein.RotatedTorsions>
[ 6907 6896 6895 6894 ] final  150.77 input  -60.11 | X-H torsion
[ 7974 7965 7964 7962 ] final   37.56 input  175.53 | X-H torsion
[ 8008 7997 7996 7995 ] final   24.26 input   59.86 | X-H torsion
[ 10167 10162 10161 10158 ] final -121.59 input  -65.29 | X-H torsion
[ 10718 10713 10712 10709 ] final  -76.80 input   66.30 | X-H torsion
[ 10763 10752 10751 10750 ] final  132.25 input  -60.55 | X-H torsion
[ 11005 11000 10999 10996 ] final  102.49 input  -57.11 | X-H torsion

> <Gold.Protein.ActiveResidues>
 VAL166  LYS551  ARG553  GLY616  TRP617  ASP618  TYR619  PRO620  LYS621  CYS622 
 ASP623  PHE694  ASN695  SER759  ASP760  ASP761  ALA762  ILE779  LEU786  VAL792 
 PHE793  MET794  SER795  GLU796  ALA797  LYS798  CYS799  TRP800  GLU811  SER814 

> <Gold.Protein.RotatedAtoms>
  152.1098  133.4294  159.4625 H   0  0  0  0  0  0  0  0  0  0  0  0  # atno 6907 bound_to 6896
  150.6867  134.2662  159.4578 H   0  0  0  0  0  0  0  0  0  0  0  0  # atno 6908 bound_to 6896
  152.0529  134.9642  160.0625 H   0  0  0  0  0  0  0  0  0  0  0  0  # atno 6909 bound_to 6896
  146.1128  139.5879  142.9341 H   0  0  0  0  0  0  0  0  0  0  0  0  # atno 7974 bound_to 7965
  154.9935  140.3116  155.4896 H   0  0  0  0  0  0  0  0  0  0  0  0  # atno 8008 bound_to 7997
  156.2936  140.2245  156.4981 H   0  0  0  0  0  0  0  0  0  0  0  0  # atno 8009 bound_to 7997
  154.7682  140.0454  157.1018 H   0  0  0  0  0  0  0  0  0  0  0  0  # atno 8010 bound_to 7997
  140.0234  143.5321  152.2210 H   0  0  0  0  0  0  0  0  0  0  0  0  # atno 10167 bound_to 10162
  156.0164  130.4475  150.3248 H   0  0  0  0  0  0  0  0  0  0  0  0  # atno 10718 bound_to 10713
  153.7876  135.3159  155.3374 H   0  0  0  0  0  0  0  0  0  0  0  0  # atno 10763 bound_to 10752
  154.8138  135.4650  154.0590 H   0  0  0  0  0  0  0  0  0  0  0  0  # atno 10764 bound_to 10752
  153.1898  135.6907  153.8453 H   0  0  0  0  0  0  0  0  0  0  0  0  # atno 10765 bound_to 10752
  139.8778  134.9226  156.5065 H   0  0  0  0  0  0  0  0  0  0  0  0  # atno 11005 bound_to 11000
  145.5629  141.0402  143.2216 LP  0  0  0  0  0  0  0  0  0  0  0  0  # atno 17320 bound_to 7965
  144.7526  139.7154  143.7267 LP  0  0  0  0  0  0  0  0  0  0  0  0  # atno 17321 bound_to 7965
  139.6124  144.7612  151.2921 LP  0  0  0  0  0  0  0  0  0  0  0  0  # atno 17342 bound_to 10162
  140.7333  143.6799  150.8009 LP  0  0  0  0  0  0  0  0  0  0  0  0  # atno 17343 bound_to 10162
  157.1347  131.0281  151.2954 LP  0  0  0  0  0  0  0  0  0  0  0  0  # atno 17370 bound_to 10713
  157.4521  130.7604  149.7161 LP  0  0  0  0  0  0  0  0  0  0  0  0  # atno 17371 bound_to 10713
  140.8551  133.8102  155.9208 LP  0  0  0  0  0  0  0  0  0  0  0  0  # atno 17394 bound_to 11000
  140.9105  134.2266  157.4988 LP  0  0  0  0  0  0  0  0  0  0  0  0  # atno 17395 bound_to 11000

$$$$
