AV-unprocessed.smi:761|AV-procd|sdf|3630|dock6
  -GOLD-   22720 1 23D 1   1.00000     0.00000
 Structure written by MMmdl.
 34 35  0  0  0  0  0  0  0  0  2 V2000
  144.5824  136.0775  152.8113 O   0  0  0  0  0  0  0  0  0  0  0  0
  145.7852  136.0270  152.5542 C   0  0  0  0  0  0  0  0  0  0  0  0
  146.6691  136.9303  153.0020 N   0  0  0  0  0  0  0  0  0  0  0  0
  146.3342  138.0646  153.8550 C   0  0  0  0  0  0  0  0  0  0  0  0
  146.8296  139.3911  153.2498 C   0  0  0  0  0  0  0  0  0  0  0  0
  146.0728  140.5542  153.7673 N   0  3  0  0  0  0  0  0  0  0  0  0
  146.7383  141.8733  153.5623 C   0  0  0  0  0  0  0  0  0  0  0  0
  146.4424  142.6113  154.8372 C   0  0  0  0  0  0  0  0  0  0  0  0
  145.8594  141.8214  155.7316 C   0  0  0  0  0  0  0  0  0  0  0  0
  145.6741  140.4293  155.1977 C   0  0  0  0  0  0  0  0  0  0  0  0
  146.3819  135.0990  151.7862 N   0  0  0  0  0  0  0  0  0  0  0  0
  145.8031  133.9672  151.1499 C   0  0  0  0  0  0  0  0  0  0  0  0
  144.3979  133.9238  151.0391 C   0  0  0  0  0  0  0  0  0  0  0  0
  143.8005  132.8207  150.3969 C   0  0  0  0  0  0  0  0  0  0  0  0
  144.5060  131.7985  149.8692 N   0  0  0  0  0  0  0  0  0  0  0  0
  145.8515  131.8487  149.9627 C   0  0  0  0  0  0  0  0  0  0  0  0
  146.5483  132.9042  150.5846 C   0  0  0  0  0  0  0  0  0  0  0  0
  147.6387  136.8216  152.7415 H   0  0  0  0  0  0  0  0  0  0  0  0
  145.2562  138.0865  154.0236 H   0  0  0  0  0  0  0  0  0  0  0  0
  146.7964  137.9046  154.8295 H   0  0  0  0  0  0  0  0  0  0  0  0
  147.8836  139.5209  153.4999 H   0  0  0  0  0  0  0  0  0  0  0  0
  146.7658  139.3749  152.1607 H   0  0  0  0  0  0  0  0  0  0  0  0
  147.8183  141.7786  153.4395 H   0  0  0  0  0  0  0  0  0  0  0  0
  146.3235  142.3895  152.6962 H   0  0  0  0  0  0  0  0  0  0  0  0
  146.7026  143.6492  154.9862 H   0  0  0  0  0  0  0  0  0  0  0  0
  145.5653  142.1084  156.7307 H   0  0  0  0  0  0  0  0  0  0  0  0
  144.6384  140.1003  155.2866 H   0  0  0  0  0  0  0  0  0  0  0  0
  146.3175  139.7407  155.7475 H   0  0  0  0  0  0  0  0  0  0  0  0
  147.3629  135.2431  151.5974 H   0  0  0  0  0  0  0  0  0  0  0  0
  143.7834  134.7162  151.4410 H   0  0  0  0  0  0  0  0  0  0  0  0
  142.7263  132.7601  150.3032 H   0  0  0  0  0  0  0  0  0  0  0  0
  146.3923  131.0243  149.5221 H   0  0  0  0  0  0  0  0  0  0  0  0
  147.6266  132.8815  150.6022 H   0  0  0  0  0  0  0  0  0  0  0  0
  145.2063  140.5968  153.2501 H   0  0  0  0  0  0  0  0  0  0  0  0
  1  2  2  0  0  0  0
  2  3  1  0  0  0  0
  2 11  1  0  0  0  0
  3  4  1  0  0  0  0
  3 18  1  0  0  0  0
  4  5  1  0  0  0  0
  4 19  1  0  0  0  0
  4 20  1  0  0  0  0
  5  6  1  0  0  0  0
  5 21  1  0  0  0  0
  5 22  1  0  0  0  0
  6 10  1  0  0  0  0
  6  7  1  0  0  0  0
  6 34  1  0  0  0  0
  7  8  1  0  0  0  0
  7 23  1  0  0  0  0
  7 24  1  0  0  0  0
  8  9  2  0  0  0  0
  8 25  1  0  0  0  0
  9 10  1  0  0  0  0
  9 26  1  0  0  0  0
 10 27  1  0  0  0  0
 10 28  1  0  0  0  0
 11 12  1  0  0  0  0
 11 29  1  0  0  0  0
 12 17  1  0  0  0  0
 12 13  2  0  0  0  0
 13 14  1  0  0  0  0
 13 30  1  0  0  0  0
 14 15  2  0  0  0  0
 14 31  1  0  0  0  0
 15 16  1  0  0  0  0
 16 17  2  0  0  0  0
 16 32  1  0  0  0  0
 17 33  1  0  0  0  0
M  CHG  1   6   1
M  END
> <s_m_source_file>
AV-unprocessed.smi

> <i_m_source_file_index>
761

> <i_lp_mmshare_version>
43012

> <i_f3d_flags>
0

> <s_epik_input>
W2NIXTFbY0hdbltjSF1bY0hdYzFbTkhdQyg9TylbTkhdW0NIMl1bQ0gyXU4yW0NIMl1bQ0hdPVtDSF1bQ0gyXTI=

> <s_epik_cmdline>
J2VwaWtfcHl0aG9uJywgJy1waCcsICc3LjAnLCAnLXRuJywgJzgnLCAnLW1hJywgJzIwMCcsICctbWV0YWxfYmluZGluZycsICctaW1hZScsICc8aW5maWxlLm1hZT4nLCAnLW9tYWUnLCAnPG91dGZpbGUubWFlPic=

> <r_epik_Ionization_Penalty>
0.100973

> <r_epik_Ionization_Penalty_Charging>
0.00265978

> <r_epik_Ionization_Penalty_Neutral>
0.098313

> <r_epik_State_Penalty>
0.0959991

> <r_epik_Charging_Adjusted_Penalty>
0.0986589

> <i_epik_Tot_Q>
1

> <i_epik_Tot_abs_Q>
1

> <r_epik_Metal_State_Penalty>
0.0816347

> <b_epik_Metal_Only>
0

> <s_lp_Force_Field>
OPLS_2005

> <r_lp_Energy>
25.6578

> <b_lp_Chiralities_Consistent>
1

> <s_lp_Variant>
AV-unprocessed.smi:761-1

> <Gold.Version>
5.8.1

> <Gold.Id.Protein>
6NUR|6NUR_protein|mol2

> <Gold.PLP.Fitness>
45.0079

> <Gold.PLP.PLP>
-29.3046

> <Gold.PLP.part.hbond>
-3.7325

> <Gold.PLP.part.metal>
0.0000

> <Gold.PLP.part.buried>
-4.6518

> <Gold.PLP.part.nonpolar>
-21.5944

> <Gold.PLP.part.repulsive>
0.3239

> <Gold.PLP.ligand.clash>
0.0000

> <Gold.PLP.ligand.torsion>
0.3913

> <Gold.PLP.Chemscore.Hbond>
4.0530

> <Gold.PLP.Chemscore.CHOScore>
1.4349

> <Gold.PLP.Chemscore.Metal>
0.0000

> <Gold.Chemscore.Hbonds>
donor molecule, donor type, donor heavy atom, donor atom, acceptor molecule, acceptor atom, score
      L1  H     3    18       P1  7948  1.00
      L1  H     6    34       P1 10175  2.00
      L1  H    11    29       P1  7948  1.00
      P1  H 10785 10796       L1    15  0.07
      L1  C    14    31       P1 10186  1.00
      L1  C    16    32       P1 10747  0.46

> <Gold.PLP.Chemscore.Internal.Correction>
0.0221

> <Gold.Rescore>
     Score         DG    S(hbond)    S(metal)    S(lipo)     H(rot)  DE(clash)    DE(int)     intcor
     18.13     -19.88       3.07        0.00      68.42       1.51       0.02       1.73       ----

> <Gold.Chemscore.Fitness>
18.1294

> <Gold.Chemscore.DG>
-19.8832

> <Gold.Chemscore.ZeroCoef>
-5.4800

> <Gold.Chemscore.Hbond>
3.0741

> <Gold.Chemscore.Metal>
0.0000

> <Gold.Chemscore.Lipo>
68.4245

> <Gold.Chemscore.Internal_Hbond>
0.0000

> <Gold.Chemscore.DEClash>
0.0231

> <Gold.Chemscore.DEInternal>
1.7307

> <Gold.Chemscore.Rot>
1.5117

> <Gold.Chemscore.Internal.Correction>
   9.000000E+99

> <Gold.Chemscore.Hbonds>
donor molecule, donor type, donor heavy atom, donor atom, acceptor molecule, acceptor atom, score
      L1  H     3    18       P1  7948  0.98
      L1  H     6    34       P1 10175  0.93
      L1  H    11    29       P1  7948  0.87
      P1  H 10785 10796       L1    15  0.07

> <Gold.Chemscore.Hbond.Weighted>
-10.2676

> <Gold.Chemscore.Metal.Weighted>
-0.0000

> <Gold.Chemscore.Lipo.Weighted>
-8.0057

> <Gold.Chemscore.Internal_Hbond.Weighted>
0.0000

> <Gold.Chemscore.DEClash.Weighted>
0.0231

> <Gold.Chemscore.DEInternal.Weighted>
1.7307

> <Gold.Chemscore.Rot.Weighted>
3.8700

> <Gold.Chemscore.Internal.Correction.Weighted>
   9.000000E+99

> <Gold.Protein.RotatedTorsions>
[ 6907 6896 6895 6894 ] final  121.36 input  -60.11 | X-H torsion
[ 7974 7965 7964 7962 ] final  -61.46 input  175.53 | X-H torsion
[ 8008 7997 7996 7995 ] final -135.84 input   59.86 | X-H torsion
[ 10167 10162 10161 10158 ] final  176.78 input  -65.29 | X-H torsion
[ 10718 10713 10712 10709 ] final -120.63 input   66.30 | X-H torsion
[ 10763 10752 10751 10750 ] final -111.93 input  -60.55 | X-H torsion
[ 11005 11000 10999 10996 ] final   89.64 input  -57.11 | X-H torsion

> <Gold.Protein.ActiveResidues>
 VAL166  LYS551  ARG553  GLY616  TRP617  ASP618  TYR619  PRO620  LYS621  CYS622 
 ASP623  PHE694  ASN695  SER759  ASP760  ASP761  ALA762  ILE779  LEU786  VAL792 
 PHE793  MET794  SER795  GLU796  ALA797  LYS798  CYS799  TRP800  GLU811  SER814 

> <Gold.Protein.RotatedAtoms>
  152.4328  133.7307  159.6585 H   0  0  0  0  0  0  0  0  0  0  0  0  # atno 6907 bound_to 6896
  150.8208  133.8245  159.3145 H   0  0  0  0  0  0  0  0  0  0  0  0  # atno 6908 bound_to 6896
  151.5927  135.1054  160.0094 H   0  0  0  0  0  0  0  0  0  0  0  0  # atno 6909 bound_to 6896
  145.8031  140.8643  143.0221 H   0  0  0  0  0  0  0  0  0  0  0  0  # atno 7974 bound_to 7965
  155.3854  140.0496  157.3042 H   0  0  0  0  0  0  0  0  0  0  0  0  # atno 8008 bound_to 7997
  154.5062  140.2175  155.9208 H   0  0  0  0  0  0  0  0  0  0  0  0  # atno 8009 bound_to 7997
  156.1528  140.3132  155.8682 H   0  0  0  0  0  0  0  0  0  0  0  0  # atno 8010 bound_to 7997
  139.5227  144.2875  152.0492 H   0  0  0  0  0  0  0  0  0  0  0  0  # atno 10167 bound_to 10162
  156.1273  130.6369  150.9564 H   0  0  0  0  0  0  0  0  0  0  0  0  # atno 10718 bound_to 10713
  154.8325  135.4509  154.1115 H   0  0  0  0  0  0  0  0  0  0  0  0  # atno 10763 bound_to 10752
  153.2376  135.6912  153.7825 H   0  0  0  0  0  0  0  0  0  0  0  0  # atno 10764 bound_to 10752
  153.7185  135.3345  155.3238 H   0  0  0  0  0  0  0  0  0  0  0  0  # atno 10765 bound_to 10752
  139.8871  134.8564  156.3171 H   0  0  0  0  0  0  0  0  0  0  0  0  # atno 11005 bound_to 11000
  144.6766  140.0288  143.7483 LP  0  0  0  0  0  0  0  0  0  0  0  0  # atno 17320 bound_to 7965
  145.9856  139.2975  143.1015 LP  0  0  0  0  0  0  0  0  0  0  0  0  # atno 17321 bound_to 7965
  140.2328  144.4351  150.6293 LP  0  0  0  0  0  0  0  0  0  0  0  0  # atno 17342 bound_to 10162
  140.6344  143.2192  151.6427 LP  0  0  0  0  0  0  0  0  0  0  0  0  # atno 17343 bound_to 10162
  157.6454  131.0904  150.8164 LP  0  0  0  0  0  0  0  0  0  0  0  0  # atno 17370 bound_to 10713
  156.8253  130.4998  149.5338 LP  0  0  0  0  0  0  0  0  0  0  0  0  # atno 17371 bound_to 10713
  140.9811  133.7267  156.0674 LP  0  0  0  0  0  0  0  0  0  0  0  0  # atno 17394 bound_to 11000
  140.7748  134.3792  157.5500 LP  0  0  0  0  0  0  0  0  0  0  0  0  # atno 17395 bound_to 11000

$$$$
