AV-unprocessed.smi:3032|AV-procd|sdf|11565|dock9
  -GOLD-   2272016533D 1   1.00000     0.00000
 Structure written by MMmdl.
 37 38  0  0  0  0  0  0  0  0  1 V2000
  151.8467  145.6912  159.8293 C   0  0  0  0  0  0  0  0  0  0  0  0
  151.5823  144.2120  159.5157 C   0  0  2  0  0  0  0  0  0  0  0  0
  152.7442  143.3197  159.9897 C   0  0  0  0  0  0  0  0  0  0  0  0
  152.4738  141.8360  159.6973 C   0  0  0  0  0  0  0  0  0  0  0  0
  152.1577  141.5957  158.2072 C   0  0  0  0  0  0  0  0  0  0  0  0
  151.0459  142.5182  157.6492 C   0  0  1  0  0  0  0  0  0  0  0  0
  149.6216  142.0993  158.0581 C   0  0  0  0  0  0  0  0  0  0  0  0
  149.4180  141.0786  158.7150 O   0  0  0  0  0  0  0  0  0  0  0  0
  148.6347  142.9171  157.6613 N   0  0  0  0  0  0  0  0  0  0  0  0
  147.2223  142.7626  157.9977 C   0  0  0  0  0  0  0  0  0  0  0  0
  146.7011  143.8525  158.9581 C   0  0  0  0  0  0  0  0  0  0  0  0
  145.9185  143.3193  160.1173 C   0  0  0  0  0  0  0  0  0  0  0  0
  145.7138  142.0209  160.3696 N   0  0  0  0  0  0  0  0  0  0  0  0
  144.9307  141.9832  161.5129 N   0  0  0  0  0  0  0  0  0  0  0  0
  144.7416  143.2624  161.8403 C   0  0  0  0  0  0  0  0  0  0  0  0
  145.3318  144.1305  161.0111 N   0  0  0  0  0  0  0  0  0  0  0  0
  151.3313  143.9940  158.0096 C   0  0  0  0  0  0  0  0  0  0  0  0
  145.3301  145.1397  161.0448 H   0  0  0  0  0  0  0  0  0  0  0  0
  152.7386  146.0524  159.3165 H   0  0  0  0  0  0  0  0  0  0  0  0
  151.9917  145.8454  160.8989 H   0  0  0  0  0  0  0  0  0  0  0  0
  151.0082  146.3146  159.5182 H   0  0  0  0  0  0  0  0  0  0  0  0
  150.6849  143.9216  160.0633 H   0  0  0  0  0  0  0  0  0  0  0  0
  153.6678  143.6241  159.4953 H   0  0  0  0  0  0  0  0  0  0  0  0
  152.9079  143.4555  161.0592 H   0  0  0  0  0  0  0  0  0  0  0  0
  153.3403  141.2412  159.9867 H   0  0  0  0  0  0  0  0  0  0  0  0
  151.6531  141.4872  160.3230 H   0  0  0  0  0  0  0  0  0  0  0  0
  153.0673  141.7609  157.6282 H   0  0  0  0  0  0  0  0  0  0  0  0
  151.8956  140.5483  158.0514 H   0  0  0  0  0  0  0  0  0  0  0  0
  151.0821  142.4324  156.5619 H   0  0  0  0  0  0  0  0  0  0  0  0
  148.8852  143.7315  157.1191 H   0  0  0  0  0  0  0  0  0  0  0  0
  146.6658  142.8165  157.0617 H   0  0  0  0  0  0  0  0  0  0  0  0
  147.0379  141.7695  158.4091 H   0  0  0  0  0  0  0  0  0  0  0  0
  147.5397  144.4342  159.3418 H   0  0  0  0  0  0  0  0  0  0  0  0
  146.0732  144.5563  158.4100 H   0  0  0  0  0  0  0  0  0  0  0  0
  144.1620  143.5704  162.6979 H   0  0  0  0  0  0  0  0  0  0  0  0
  150.5065  144.6265  157.6773 H   0  0  0  0  0  0  0  0  0  0  0  0
  152.2033  144.3311  157.4477 H   0  0  0  0  0  0  0  0  0  0  0  0
  1  2  1  0  0  0  0
  1 19  1  0  0  0  0
  1 20  1  0  0  0  0
  1 21  1  0  0  0  0
  2 17  1  0  0  0  0
  2  3  1  0  0  0  0
  2 22  1  0  0  0  0
  3  4  1  0  0  0  0
  3 23  1  0  0  0  0
  3 24  1  0  0  0  0
  4  5  1  0  0  0  0
  4 25  1  0  0  0  0
  4 26  1  0  0  0  0
  5  6  1  0  0  0  0
  5 27  1  0  0  0  0
  5 28  1  0  0  0  0
  6  7  1  0  0  0  0
  6 17  1  0  0  0  0
  6 29  1  0  0  0  0
  7  8  2  0  0  0  0
  7  9  1  0  0  0  0
  9 10  1  0  0  0  0
  9 30  1  0  0  0  0
 10 11  1  0  0  0  0
 10 31  1  0  0  0  0
 10 32  1  0  0  0  0
 11 12  1  0  0  0  0
 11 33  1  0  0  0  0
 11 34  1  0  0  0  0
 12 16  1  0  0  0  0
 12 13  2  0  0  0  0
 13 14  1  0  0  0  0
 14 15  2  0  0  0  0
 15 16  1  0  0  0  0
 15 35  1  0  0  0  0
 16 18  1  0  0  0  0
 17 36  1  0  0  0  0
 17 37  1  0  0  0  0
M  END
> <s_m_source_file>
AV-unprocessed.smi

> <i_m_source_file_index>
3032

> <i_lp_mmshare_version>
43012

> <i_f3d_flags>
0

> <s_epik_input>
W0NIM11bQ0BASF0xW0NIMl1bQ0gyXVtDSDJdW0NASF0oW0NIMl0xKUMoPU8pW05IXVtDSDJdW0NIMl1jMm5uW2NIXVtuSF0y

> <s_epik_cmdline>
J2VwaWtfcHl0aG9uJywgJy1waCcsICc3LjAnLCAnLXRuJywgJzgnLCAnLW1hJywgJzIwMCcsICctbWV0YWxfYmluZGluZycsICctaW1hZScsICc8aW5maWxlLm1hZT4nLCAnLW9tYWUnLCAnPG91dGZpbGUubWFlPic=

> <r_lp_tautomer_probability>
0.0517155

> <r_epik_Ionization_Penalty>
0.00149837

> <r_epik_Ionization_Penalty_Charging>
0

> <r_epik_Ionization_Penalty_Neutral>
0.00149837

> <r_epik_State_Penalty>
2.1109

> <r_epik_Charging_Adjusted_Penalty>
2.1109

> <i_epik_Tot_Q>
0

> <i_epik_Tot_abs_Q>
0

> <r_epik_Metal_State_Penalty>
2.23635

> <b_epik_Metal_Only>
0

> <s_lp_Force_Field>
OPLS_2005

> <r_lp_Energy>
9.22736

> <b_lp_Chiralities_Consistent>
1

> <s_lp_Variant>
AV-unprocessed.smi:3032-9

> <Gold.Version>
5.8.1

> <Gold.Id.Protein>
6NUR|6NUR_protein|mol2

> <Gold.PLP.Fitness>
39.6218

> <Gold.PLP.PLP>
-34.5617

> <Gold.PLP.part.hbond>
-5.9438

> <Gold.PLP.part.metal>
0.0000

> <Gold.PLP.part.buried>
-1.1941

> <Gold.PLP.part.nonpolar>
-27.5161

> <Gold.PLP.part.repulsive>
0.1773

> <Gold.PLP.ligand.clash>
0.0000

> <Gold.PLP.ligand.torsion>
0.4925

> <Gold.PLP.Chemscore.Hbond>
2.0000

> <Gold.PLP.Chemscore.CHOScore>
0.0000

> <Gold.PLP.Chemscore.Metal>
0.0000

> <Gold.Chemscore.Hbonds>
donor molecule, donor type, donor heavy atom, donor atom, acceptor molecule, acceptor atom, score
      L1  H     9    30       P1  8028  0.95
      P1  H  6934  6946       L1    13  1.00

> <Gold.PLP.Chemscore.Internal.Correction>
0.0451

> <Gold.Rescore>
     Score         DG    S(hbond)    S(metal)    S(lipo)     H(rot)  DE(clash)    DE(int)     intcor
     12.32     -14.61       1.71        0.00      78.51       2.25       1.87       0.41       ----

> <Gold.Chemscore.Fitness>
12.3249

> <Gold.Chemscore.DG>
-14.6072

> <Gold.Chemscore.ZeroCoef>
-5.4800

> <Gold.Chemscore.Hbond>
1.7072

> <Gold.Chemscore.Metal>
0.0000

> <Gold.Chemscore.Lipo>
78.5090

> <Gold.Chemscore.Internal_Hbond>
0.0000

> <Gold.Chemscore.DEClash>
1.8703

> <Gold.Chemscore.DEInternal>
0.4120

> <Gold.Chemscore.Rot>
2.2501

> <Gold.Chemscore.Internal.Correction>
   9.000000E+99

> <Gold.Chemscore.Hbonds>
donor molecule, donor type, donor heavy atom, donor atom, acceptor molecule, acceptor atom, score
      L1  H     9    30       P1  8028  0.21
      P1  H  6934  6946       L1    13  0.30

> <Gold.Chemscore.Hbond.Weighted>
-5.7020

> <Gold.Chemscore.Metal.Weighted>
-0.0000

> <Gold.Chemscore.Lipo.Weighted>
-9.1856

> <Gold.Chemscore.Internal_Hbond.Weighted>
0.0000

> <Gold.Chemscore.DEClash.Weighted>
1.8703

> <Gold.Chemscore.DEInternal.Weighted>
0.4120

> <Gold.Chemscore.Rot.Weighted>
5.7603

> <Gold.Chemscore.Internal.Correction.Weighted>
   9.000000E+99

> <Gold.Protein.RotatedTorsions>
[ 6907 6896 6895 6894 ] final  -51.88 input  -60.11 | X-H torsion
[ 7974 7965 7964 7962 ] final  -45.83 input  175.53 | X-H torsion
[ 8008 7997 7996 7995 ] final -169.56 input   59.86 | X-H torsion
[ 10167 10162 10161 10158 ] final  -69.97 input  -65.29 | X-H torsion
[ 10718 10713 10712 10709 ] final  104.56 input   66.30 | X-H torsion
[ 10763 10752 10751 10750 ] final   82.30 input  -60.55 | X-H torsion
[ 11005 11000 10999 10996 ] final   67.29 input  -57.11 | X-H torsion

> <Gold.Protein.ActiveResidues>
 VAL166  LYS551  ARG553  GLY616  TRP617  ASP618  TYR619  PRO620  LYS621  CYS622 
 ASP623  PHE694  ASN695  SER759  ASP760  ASP761  ALA762  ILE779  LEU786  VAL792 
 PHE793  MET794  SER795  GLU796  ALA797  LYS798  CYS799  TRP800  GLU811  SER814 

> <Gold.Protein.RotatedAtoms>
  150.8569  134.7911  159.7052 H   0  0  0  0  0  0  0  0  0  0  0  0  # atno 6907 bound_to 6896
  152.4618  134.5163  159.9779 H   0  0  0  0  0  0  0  0  0  0  0  0  # atno 6908 bound_to 6896
  151.5274  133.3417  159.2947 H   0  0  0  0  0  0  0  0  0  0  0  0  # atno 6909 bound_to 6896
  145.9781  140.7313  142.9377 H   0  0  0  0  0  0  0  0  0  0  0  0  # atno 7974 bound_to 7965
  155.9067  140.1050  157.1310 H   0  0  0  0  0  0  0  0  0  0  0  0  # atno 8008 bound_to 7997
  154.4033  140.1282  156.4569 H   0  0  0  0  0  0  0  0  0  0  0  0  # atno 8009 bound_to 7997
  155.7359  140.3467  155.5083 H   0  0  0  0  0  0  0  0  0  0  0  0  # atno 8010 bound_to 7997
  140.5389  143.2316  151.7126 H   0  0  0  0  0  0  0  0  0  0  0  0  # atno 10167 bound_to 10162
  157.6736  131.0806  150.5724 H   0  0  0  0  0  0  0  0  0  0  0  0  # atno 10718 bound_to 10713
  153.1190  135.4733  154.9164 H   0  0  0  0  0  0  0  0  0  0  0  0  # atno 10763 bound_to 10752
  154.7557  135.3118  154.8476 H   0  0  0  0  0  0  0  0  0  0  0  0  # atno 10764 bound_to 10752
  153.9046  135.6871  153.4807 H   0  0  0  0  0  0  0  0  0  0  0  0  # atno 10765 bound_to 10752
  139.9780  134.6791  156.0317 H   0  0  0  0  0  0  0  0  0  0  0  0  # atno 11005 bound_to 11000
  144.6854  140.2861  143.7285 LP  0  0  0  0  0  0  0  0  0  0  0  0  # atno 17320 bound_to 7965
  145.7810  139.1891  143.2158 LP  0  0  0  0  0  0  0  0  0  0  0  0  # atno 17321 bound_to 7965
  139.4981  144.4000  152.0191 LP  0  0  0  0  0  0  0  0  0  0  0  0  # atno 17342 bound_to 10162
  140.3107  144.3541  150.6034 LP  0  0  0  0  0  0  0  0  0  0  0  0  # atno 17343 bound_to 10162
  156.6026  130.4358  149.5891 LP  0  0  0  0  0  0  0  0  0  0  0  0  # atno 17370 bound_to 10713
  156.2494  130.6898  151.1631 LP  0  0  0  0  0  0  0  0  0  0  0  0  # atno 17371 bound_to 10713
  141.1455  133.6557  156.3855 LP  0  0  0  0  0  0  0  0  0  0  0  0  # atno 17394 bound_to 11000
  140.5155  134.6354  157.5300 LP  0  0  0  0  0  0  0  0  0  0  0  0  # atno 17395 bound_to 11000

$$$$
