AV-unprocessed.smi:1430|AV-procd|sdf|5824|dock10
  -GOLD-   22720 5483D 1   1.00000     0.00000
 Structure written by MMmdl.
 46 47  0  0  0  0  0  0  0  0  1 V2000
  154.1275  140.9254  161.3734 C   0  0  0  0  0  0  0  0  0  0  0  0
  153.6004  142.2293  161.1547 O   0  0  0  0  0  0  0  0  0  0  0  0
  152.7264  142.4145  160.1031 C   0  0  0  0  0  0  0  0  0  0  0  0
  152.2337  143.7112  159.8563 C   0  0  0  0  0  0  0  0  0  0  0  0
  151.3416  143.9097  158.7851 C   0  0  0  0  0  0  0  0  0  0  0  0
  150.9629  142.7978  157.9948 C   0  0  0  0  0  0  0  0  0  0  0  0
  150.0858  142.8618  156.8775 N   0  0  0  0  0  0  0  0  0  0  0  0
  149.6685  141.8699  156.0718 C   0  0  0  0  0  0  0  0  0  0  0  0
  150.0042  140.6891  156.1583 O   0  0  0  0  0  0  0  0  0  0  0  0
  148.8337  142.3327  155.1305 N   0  0  0  0  0  0  0  0  0  0  0  0
  148.2062  141.5217  154.0943 C   0  0  0  0  0  0  0  0  0  0  0  0
  147.0776  142.2943  153.3862 C   0  0  0  0  0  0  0  0  0  0  0  0
  146.1562  142.9959  154.2784 N   0  0  0  0  0  0  0  0  0  0  0  0
  145.3112  142.0824  155.0449 C   0  0  0  0  0  0  0  0  0  0  0  0
  144.3108  142.8182  155.9594 C   0  0  1  0  0  0  0  0  0  0  0  0
  144.9670  143.4418  157.2029 C   0  0  0  0  0  0  0  0  0  0  0  0
  143.5688  143.7832  155.2117 O   0  0  0  0  0  0  0  0  0  0  0  0
  144.3554  144.6989  154.4520 C   0  0  2  0  0  0  0  0  0  0  0  0
  143.4037  145.6031  153.6619 C   0  0  0  0  0  0  0  0  0  0  0  0
  145.3049  143.9126  153.5309 C   0  0  0  0  0  0  0  0  0  0  0  0
  151.5216  141.5441  158.3189 C   0  0  0  0  0  0  0  0  0  0  0  0
  152.3769  141.3470  159.3440 N   0  0  0  0  0  0  0  0  0  0  0  0
  154.7925  140.9458  162.2365 H   0  0  0  0  0  0  0  0  0  0  0  0
  154.7080  140.5806  160.5166 H   0  0  0  0  0  0  0  0  0  0  0  0
  153.3353  140.2051  161.5833 H   0  0  0  0  0  0  0  0  0  0  0  0
  152.5389  144.5416  160.4759 H   0  0  0  0  0  0  0  0  0  0  0  0
  150.9820  144.9073  158.5895 H   0  0  0  0  0  0  0  0  0  0  0  0
  149.7698  143.7890  156.6333 H   0  0  0  0  0  0  0  0  0  0  0  0
  148.6160  143.3183  155.1299 H   0  0  0  0  0  0  0  0  0  0  0  0
  148.9869  141.2420  153.3880 H   0  0  0  0  0  0  0  0  0  0  0  0
  147.8243  140.5931  154.5219 H   0  0  0  0  0  0  0  0  0  0  0  0
  147.5407  143.0252  152.7217 H   0  0  0  0  0  0  0  0  0  0  0  0
  146.5189  141.6155  152.7402 H   0  0  0  0  0  0  0  0  0  0  0  0
  144.7540  141.4439  154.3575 H   0  0  0  0  0  0  0  0  0  0  0  0
  145.9209  141.4179  155.6558 H   0  0  0  0  0  0  0  0  0  0  0  0
  143.5861  142.0866  156.3175 H   0  0  0  0  0  0  0  0  0  0  0  0
  145.4353  142.6747  157.8198 H   0  0  0  0  0  0  0  0  0  0  0  0
  144.2259  143.9525  157.8179 H   0  0  0  0  0  0  0  0  0  0  0  0
  145.7395  144.1644  156.9409 H   0  0  0  0  0  0  0  0  0  0  0  0
  144.9391  145.3244  155.1282 H   0  0  0  0  0  0  0  0  0  0  0  0
  143.9568  146.3316  153.0685 H   0  0  0  0  0  0  0  0  0  0  0  0
  142.7431  146.1536  154.3319 H   0  0  0  0  0  0  0  0  0  0  0  0
  142.7800  145.0217  152.9823 H   0  0  0  0  0  0  0  0  0  0  0  0
  145.9232  144.6155  152.9713 H   0  0  0  0  0  0  0  0  0  0  0  0
  144.7217  143.3570  152.7946 H   0  0  0  0  0  0  0  0  0  0  0  0
  151.2728  140.6673  157.7392 H   0  0  0  0  0  0  0  0  0  0  0  0
  1  2  1  0  0  0  0
  1 23  1  0  0  0  0
  1 24  1  0  0  0  0
  1 25  1  0  0  0  0
  2  3  1  0  0  0  0
  3 22  1  0  0  0  0
  3  4  2  0  0  0  0
  4  5  1  0  0  0  0
  4 26  1  0  0  0  0
  5  6  2  0  0  0  0
  5 27  1  0  0  0  0
  6  7  1  0  0  0  0
  6 21  1  0  0  0  0
  7  8  1  0  0  0  0
  7 28  1  0  0  0  0
  8  9  2  0  0  0  0
  8 10  1  0  0  0  0
 10 11  1  0  0  0  0
 10 29  1  0  0  0  0
 11 12  1  0  0  0  0
 11 30  1  0  0  0  0
 11 31  1  0  0  0  0
 12 13  1  0  0  0  0
 12 32  1  0  0  0  0
 12 33  1  0  0  0  0
 13 20  1  0  0  0  0
 13 14  1  0  0  0  0
 14 15  1  0  0  0  0
 14 34  1  0  0  0  0
 14 35  1  0  0  0  0
 15 16  1  0  0  0  0
 15 17  1  0  0  0  0
 15 36  1  0  0  0  0
 16 37  1  0  0  0  0
 16 38  1  0  0  0  0
 16 39  1  0  0  0  0
 17 18  1  0  0  0  0
 18 19  1  0  0  0  0
 18 20  1  0  0  0  0
 18 40  1  0  0  0  0
 19 41  1  0  0  0  0
 19 42  1  0  0  0  0
 19 43  1  0  0  0  0
 20 44  1  0  0  0  0
 20 45  1  0  0  0  0
 21 22  2  0  0  0  0
 21 46  1  0  0  0  0
M  END
> <s_m_source_file>
AV-unprocessed.smi

> <i_m_source_file_index>
1430

> <i_lp_mmshare_version>
43012

> <i_f3d_flags>
0

> <s_epik_input>
W0NIM11PYzFbY0hdW2NIXWMoW2NIXW4xKVtOSF1DKD1PKVtOSF1bQ0gyXVtDSDJdTjJbQ0gyXVtDQEBIXShbQ0gzXSlPW0NAQEhdKFtDSDNdKVtDSDJdMg==

> <s_epik_cmdline>
J2VwaWtfcHl0aG9uJywgJy1waCcsICc3LjAnLCAnLXRuJywgJzgnLCAnLW1hJywgJzIwMCcsICctbWV0YWxfYmluZGluZycsICctaW1hZScsICc8aW5maWxlLm1hZT4nLCAnLW9tYWUnLCAnPG91dGZpbGUubWFlPic=

> <r_lp_tautomer_probability>
1

> <r_epik_Ionization_Penalty>
0.266083

> <r_epik_Ionization_Penalty_Charging>
0

> <r_epik_Ionization_Penalty_Neutral>
0.266083

> <r_epik_State_Penalty>
0.257924

> <r_epik_Charging_Adjusted_Penalty>
0.257924

> <i_epik_Tot_Q>
0

> <i_epik_Tot_abs_Q>
0

> <r_epik_Metal_State_Penalty>
0.257922

> <b_epik_Metal_Only>
0

> <s_lp_Force_Field>
OPLS_2005

> <r_lp_Energy>
26.0225

> <b_lp_Chiralities_Consistent>
1

> <s_lp_Variant>
AV-unprocessed.smi:1430-3

> <Gold.Version>
5.8.1

> <Gold.Id.Protein>
6NUR|6NUR_protein|mol2

> <Gold.PLP.Fitness>
45.0401

> <Gold.PLP.PLP>
-39.4029

> <Gold.PLP.part.hbond>
-1.7635

> <Gold.PLP.part.metal>
0.0000

> <Gold.PLP.part.buried>
-6.2070

> <Gold.PLP.part.nonpolar>
-31.7367

> <Gold.PLP.part.repulsive>
0.4389

> <Gold.PLP.ligand.clash>
0.0000

> <Gold.PLP.ligand.torsion>
0.1782

> <Gold.PLP.Chemscore.Hbond>
1.9920

> <Gold.PLP.Chemscore.CHOScore>
0.0000

> <Gold.PLP.Chemscore.Metal>
0.0000

> <Gold.Chemscore.Hbonds>
donor molecule, donor type, donor heavy atom, donor atom, acceptor molecule, acceptor atom, score
      L1  H     7    28       P1  8028  0.99
      L1  H    10    29       P1  8028  0.93

> <Gold.PLP.Chemscore.Internal.Correction>
0.0177

> <Gold.Rescore>
     Score         DG    S(hbond)    S(metal)    S(lipo)     H(rot)  DE(clash)    DE(int)     intcor
     16.50     -18.09       1.95        0.00      89.65       1.71       0.00       1.58       ----

> <Gold.Chemscore.Fitness>
16.5014

> <Gold.Chemscore.DG>
-18.0908

> <Gold.Chemscore.ZeroCoef>
-5.4800

> <Gold.Chemscore.Hbond>
1.9464

> <Gold.Chemscore.Metal>
0.0000

> <Gold.Chemscore.Lipo>
89.6502

> <Gold.Chemscore.Internal_Hbond>
0.0000

> <Gold.Chemscore.DEClash>
0.0046

> <Gold.Chemscore.DEInternal>
1.5847

> <Gold.Chemscore.Rot>
1.7107

> <Gold.Chemscore.Internal.Correction>
   9.000000E+99

> <Gold.Chemscore.Hbonds>
donor molecule, donor type, donor heavy atom, donor atom, acceptor molecule, acceptor atom, score
      L1  H     7    28       P1  8028  0.92
      L1  H    10    29       P1  8028  0.84

> <Gold.Chemscore.Hbond.Weighted>
-6.5011

> <Gold.Chemscore.Metal.Weighted>
-0.0000

> <Gold.Chemscore.Lipo.Weighted>
-10.4891

> <Gold.Chemscore.Internal_Hbond.Weighted>
0.0000

> <Gold.Chemscore.DEClash.Weighted>
0.0046

> <Gold.Chemscore.DEInternal.Weighted>
1.5847

> <Gold.Chemscore.Rot.Weighted>
4.3794

> <Gold.Chemscore.Internal.Correction.Weighted>
   9.000000E+99

> <Gold.Protein.RotatedTorsions>
[ 6907 6896 6895 6894 ] final  151.64 input  -60.11 | X-H torsion
[ 7974 7965 7964 7962 ] final   53.96 input  175.53 | X-H torsion
[ 8008 7997 7996 7995 ] final   41.26 input   59.86 | X-H torsion
[ 10167 10162 10161 10158 ] final  -36.73 input  -65.29 | X-H torsion
[ 10718 10713 10712 10709 ] final   63.08 input   66.30 | X-H torsion
[ 10763 10752 10751 10750 ] final  141.42 input  -60.55 | X-H torsion
[ 11005 11000 10999 10996 ] final -107.12 input  -57.11 | X-H torsion

> <Gold.Protein.ActiveResidues>
 VAL166  LYS551  ARG553  GLY616  TRP617  ASP618  TYR619  PRO620  LYS621  CYS622 
 ASP623  PHE694  ASN695  SER759  ASP760  ASP761  ALA762  ILE779  LEU786  VAL792 
 PHE793  MET794  SER795  GLU796  ALA797  LYS798  CYS799  TRP800  GLU811  SER814 

> <Gold.Protein.RotatedAtoms>
  152.0979  133.4234  159.4573 H   0  0  0  0  0  0  0  0  0  0  0  0  # atno 6907 bound_to 6896
  150.6863  134.2795  159.4631 H   0  0  0  0  0  0  0  0  0  0  0  0  # atno 6908 bound_to 6896
  152.0653  134.9568  160.0625 H   0  0  0  0  0  0  0  0  0  0  0  0  # atno 6909 bound_to 6896
  145.9658  139.4102  143.0220 H   0  0  0  0  0  0  0  0  0  0  0  0  # atno 7974 bound_to 7965
  155.2667  140.3363  155.4268 H   0  0  0  0  0  0  0  0  0  0  0  0  # atno 8008 bound_to 7997
  156.2151  140.1785  156.7650 H   0  0  0  0  0  0  0  0  0  0  0  0  # atno 8009 bound_to 7997
  154.5741  140.0665  156.8993 H   0  0  0  0  0  0  0  0  0  0  0  0  # atno 8010 bound_to 7997
  140.7135  143.3389  151.2402 H   0  0  0  0  0  0  0  0  0  0  0  0  # atno 10167 bound_to 10162
  157.5946  130.9086  149.9671 H   0  0  0  0  0  0  0  0  0  0  0  0  # atno 10718 bound_to 10713
  153.9389  135.2982  155.3443 H   0  0  0  0  0  0  0  0  0  0  0  0  # atno 10763 bound_to 10752
  154.7487  135.4990  153.9253 H   0  0  0  0  0  0  0  0  0  0  0  0  # atno 10764 bound_to 10752
  153.1052  135.6745  153.9705 H   0  0  0  0  0  0  0  0  0  0  0  0  # atno 10765 bound_to 10752
  141.0970  133.8953  157.1938 H   0  0  0  0  0  0  0  0  0  0  0  0  # atno 11005 bound_to 11000
  145.7976  140.9786  143.1016 LP  0  0  0  0  0  0  0  0  0  0  0  0  # atno 17320 bound_to 7965
  144.6825  139.9761  143.7483 LP  0  0  0  0  0  0  0  0  0  0  0  0  # atno 17321 bound_to 7965
  139.6891  143.9723  152.2850 LP  0  0  0  0  0  0  0  0  0  0  0  0  # atno 17342 bound_to 10162
  139.9378  144.6701  150.8297 LP  0  0  0  0  0  0  0  0  0  0  0  0  # atno 17343 bound_to 10162
  156.1007  130.3656  150.0224 LP  0  0  0  0  0  0  0  0  0  0  0  0  # atno 17370 bound_to 10713
  156.8340  130.9402  151.3635 LP  0  0  0  0  0  0  0  0  0  0  0  0  # atno 17371 bound_to 10713
  139.9810  135.0098  156.9748 LP  0  0  0  0  0  0  0  0  0  0  0  0  # atno 17394 bound_to 11000
  140.5115  134.0997  155.7271 LP  0  0  0  0  0  0  0  0  0  0  0  0  # atno 17395 bound_to 11000

$$$$
