AV-unprocessed.smi:1809|AV-procd|sdf|7325|dock6
  -GOLD-   22720 8583D 1   1.00000     0.00000
 Structure written by MMmdl.
 39 41  0  0  0  0  0  0  0  0  3 V2000
  135.4337  139.5713  154.1768 C   0  0  0  0  0  0  0  0  0  0  0  0
  136.7450  138.8638  154.1712 C   0  0  0  0  0  0  0  0  0  0  0  0
  137.8718  139.4344  153.7380 N   0  0  0  0  0  0  0  0  0  0  0  0
  138.9598  138.5785  153.8296 N   0  0  0  0  0  0  0  0  0  0  0  0
  138.6393  137.3714  154.3171 C   0  0  0  0  0  0  0  0  0  0  0  0
  139.5490  136.3973  154.4856 N   0  5  0  0  0  0  0  0  0  0  0  0
  140.8291  136.5949  154.0982 C   0  0  0  0  0  0  0  0  0  0  0  0
  141.2623  137.5571  153.4603 O   0  0  0  0  0  0  0  0  0  0  0  0
  141.6614  135.6156  154.4727 N   0  0  0  0  0  0  0  0  0  0  0  0
  143.0894  135.5769  154.1892 C   0  0  0  0  0  0  0  0  0  0  0  0
  143.3374  135.3637  152.6900 C   0  0  2  0  0  0  0  0  0  0  0  0
  143.1220  133.8987  152.2774 C   0  0  0  0  0  0  0  0  0  0  0  0
  143.4134  133.6911  150.8364 N   0  3  2  0  0  0  0  0  0  0  0  0
  143.5009  132.2575  150.4832 C   0  0  0  0  0  0  0  0  0  0  0  0
  144.9944  131.8858  150.5216 C   0  0  0  0  0  0  0  0  0  0  0  0
  145.7453  133.2042  150.7453 C   0  0  0  0  0  0  0  0  0  0  0  0
  144.7052  134.2764  150.4163 C   0  0  2  0  0  0  0  0  0  0  0  0
  144.9626  135.6748  151.0141 C   0  0  0  0  0  0  0  0  0  0  0  0
  144.6919  135.6932  152.4077 O   0  0  0  0  0  0  0  0  0  0  0  0
  136.9324  137.2101  154.7298 S   0  0  0  0  0  0  0  0  0  0  0  0
  134.9999  139.5589  153.1769 H   0  0  0  0  0  0  0  0  0  0  0  0
  135.5646  140.6071  154.4914 H   0  0  0  0  0  0  0  0  0  0  0  0
  134.7429  139.0829  154.8643 H   0  0  0  0  0  0  0  0  0  0  0  0
  141.2702  134.8425  154.9902 H   0  0  0  0  0  0  0  0  0  0  0  0
  143.5590  136.5035  154.5238 H   0  0  0  0  0  0  0  0  0  0  0  0
  143.5375  134.7623  154.7603 H   0  0  0  0  0  0  0  0  0  0  0  0
  142.6654  136.0111  152.1226 H   0  0  0  0  0  0  0  0  0  0  0  0
  143.7645  133.2558  152.8817 H   0  0  0  0  0  0  0  0  0  0  0  0
  142.0939  133.5955  152.4785 H   0  0  0  0  0  0  0  0  0  0  0  0
  142.8943  131.6265  151.1345 H   0  0  0  0  0  0  0  0  0  0  0  0
  143.1207  132.1338  149.4685 H   0  0  0  0  0  0  0  0  0  0  0  0
  145.2098  131.1778  151.3227 H   0  0  0  0  0  0  0  0  0  0  0  0
  145.2928  131.4193  149.5822 H   0  0  0  0  0  0  0  0  0  0  0  0
  146.0512  133.2825  151.7896 H   0  0  0  0  0  0  0  0  0  0  0  0
  146.6418  133.2872  150.1301 H   0  0  0  0  0  0  0  0  0  0  0  0
  144.6728  134.3743  149.3297 H   0  0  0  0  0  0  0  0  0  0  0  0
  145.9971  135.9743  150.8456 H   0  0  0  0  0  0  0  0  0  0  0  0
  144.3392  136.4197  150.5170 H   0  0  0  0  0  0  0  0  0  0  0  0
  142.6691  134.1267  150.3103 H   0  0  0  0  0  0  0  0  0  0  0  0
  1  2  1  0  0  0  0
  1 21  1  0  0  0  0
  1 22  1  0  0  0  0
  1 23  1  0  0  0  0
  2 20  1  0  0  0  0
  2  3  2  0  0  0  0
  3  4  1  0  0  0  0
  4  5  2  0  0  0  0
  5  6  1  0  0  0  0
  5 20  1  0  0  0  0
  6  7  1  0  0  0  0
  7  8  2  0  0  0  0
  7  9  1  0  0  0  0
  9 10  1  0  0  0  0
  9 24  1  0  0  0  0
 10 11  1  0  0  0  0
 10 25  1  0  0  0  0
 10 26  1  0  0  0  0
 11 19  1  0  0  0  0
 11 12  1  0  0  0  0
 11 27  1  0  0  0  0
 12 13  1  0  0  0  0
 12 28  1  0  0  0  0
 12 29  1  0  0  0  0
 13 17  1  0  0  0  0
 13 14  1  0  0  0  0
 13 39  1  0  0  0  0
 14 15  1  0  0  0  0
 14 30  1  0  0  0  0
 14 31  1  0  0  0  0
 15 16  1  0  0  0  0
 15 32  1  0  0  0  0
 15 33  1  0  0  0  0
 16 17  1  0  0  0  0
 16 34  1  0  0  0  0
 16 35  1  0  0  0  0
 17 18  1  0  0  0  0
 17 36  1  0  0  0  0
 18 19  1  0  0  0  0
 18 37  1  0  0  0  0
 18 38  1  0  0  0  0
M  CHG  1   6  -1
M  CHG  1  13   1
M  END
> <s_m_source_file>
AV-unprocessed.smi

> <i_m_source_file_index>
1809

> <i_lp_mmshare_version>
43012

> <i_f3d_flags>
0

> <s_epik_input>
W0NIM11jMW5uYyhzMSlbTkhdQyg9TylbTkhdW0NIMl1bQ0BIXShbQ0gyXTIpT1tDSDJdW0NAQEhdKE4yMylbQ0gyXVtDSDJdW0NIMl0z

> <s_epik_cmdline>
J2VwaWtfcHl0aG9uJywgJy1waCcsICc3LjAnLCAnLXRuJywgJzgnLCAnLW1hJywgJzIwMCcsICctbWV0YWxfYmluZGluZycsICctaW1hZScsICc8aW5maWxlLm1hZT4nLCAnLW9tYWUnLCAnPG91dGZpbGUubWFlPic=

> <r_lp_tautomer_probability>
1

> <r_epik_Ionization_Penalty>
3.2601

> <r_epik_Ionization_Penalty_Charging>
3.1406

> <r_epik_Ionization_Penalty_Neutral>
0.119497

> <r_epik_State_Penalty>
3.08894

> <r_epik_Charging_Adjusted_Penalty>
6.22954

> <i_epik_Tot_Q>
0

> <i_epik_Tot_abs_Q>
2

> <r_epik_Metal_State_Penalty>
0.510807

> <b_epik_Metal_Only>
1

> <s_lp_Force_Field>
OPLS_2005

> <r_lp_Energy>
31.3106

> <b_lp_Chiralities_Consistent>
1

> <s_lp_Variant>
AV-unprocessed.smi:1809-17

> <Gold.Version>
5.8.1

> <Gold.Id.Protein>
6NUR|6NUR_protein|mol2

> <Gold.PLP.Fitness>
42.7195

> <Gold.PLP.PLP>
-34.0987

> <Gold.PLP.part.hbond>
-2.3932

> <Gold.PLP.part.metal>
0.0000

> <Gold.PLP.part.buried>
-7.3674

> <Gold.PLP.part.nonpolar>
-25.3022

> <Gold.PLP.part.repulsive>
0.5526

> <Gold.PLP.ligand.clash>
0.0000

> <Gold.PLP.ligand.torsion>
0.1851

> <Gold.PLP.Chemscore.Hbond>
2.9920

> <Gold.PLP.Chemscore.CHOScore>
0.0000

> <Gold.PLP.Chemscore.Metal>
0.0000

> <Gold.Chemscore.Hbonds>
donor molecule, donor type, donor heavy atom, donor atom, acceptor molecule, acceptor atom, score
      L1  H     9    24       P1 11000  0.99
      L1  H    13    39       P1 10186  2.00

> <Gold.PLP.Chemscore.Internal.Correction>
0.0149

> <Gold.Rescore>
     Score         DG    S(hbond)    S(metal)    S(lipo)     H(rot)  DE(clash)    DE(int)     intcor
     13.97     -16.10       1.68        0.00      71.82       1.32       0.15       1.98       ----

> <Gold.Chemscore.Fitness>
13.9656

> <Gold.Chemscore.DG>
-16.0977

> <Gold.Chemscore.ZeroCoef>
-5.4800

> <Gold.Chemscore.Hbond>
1.6784

> <Gold.Chemscore.Metal>
0.0000

> <Gold.Chemscore.Lipo>
71.8184

> <Gold.Chemscore.Internal_Hbond>
0.0000

> <Gold.Chemscore.DEClash>
0.1505

> <Gold.Chemscore.DEInternal>
1.9817

> <Gold.Chemscore.Rot>
1.3246

> <Gold.Chemscore.Internal.Correction>
   9.000000E+99

> <Gold.Chemscore.Hbonds>
donor molecule, donor type, donor heavy atom, donor atom, acceptor molecule, acceptor atom, score
      L1  H     9    24       P1 11000  0.80
      L1  H    13    39       P1 10186  0.90

> <Gold.Chemscore.Hbond.Weighted>
-5.6059

> <Gold.Chemscore.Metal.Weighted>
-0.0000

> <Gold.Chemscore.Lipo.Weighted>
-8.4027

> <Gold.Chemscore.Internal_Hbond.Weighted>
0.0000

> <Gold.Chemscore.DEClash.Weighted>
0.1505

> <Gold.Chemscore.DEInternal.Weighted>
1.9817

> <Gold.Chemscore.Rot.Weighted>
3.3910

> <Gold.Chemscore.Internal.Correction.Weighted>
   9.000000E+99

> <Gold.Protein.RotatedTorsions>
[ 6907 6896 6895 6894 ] final   43.11 input  -60.11 | X-H torsion
[ 7974 7965 7964 7962 ] final  143.65 input  175.53 | X-H torsion
[ 8008 7997 7996 7995 ] final    6.70 input   59.86 | X-H torsion
[ 10167 10162 10161 10158 ] final  -90.26 input  -65.29 | X-H torsion
[ 10718 10713 10712 10709 ] final   55.69 input   66.30 | X-H torsion
[ 10763 10752 10751 10750 ] final  -54.55 input  -60.55 | X-H torsion
[ 11005 11000 10999 10996 ] final -165.04 input  -57.11 | X-H torsion

> <Gold.Protein.ActiveResidues>
 VAL166  LYS551  ARG553  GLY616  TRP617  ASP618  TYR619  PRO620  LYS621  CYS622 
 ASP623  PHE694  ASN695  SER759  ASP760  ASP761  ALA762  ILE779  LEU786  VAL792 
 PHE793  MET794  SER795  GLU796  ALA797  LYS798  CYS799  TRP800  GLU811  SER814 

> <Gold.Protein.RotatedAtoms>
  152.2162  134.8455  160.0491 H   0  0  0  0  0  0  0  0  0  0  0  0  # atno 6907 bound_to 6896
  151.9256  133.3592  159.3920 H   0  0  0  0  0  0  0  0  0  0  0  0  # atno 6908 bound_to 6896
  150.6988  134.4516  159.5383 H   0  0  0  0  0  0  0  0  0  0  0  0  # atno 6909 bound_to 6896
  144.8902  139.5569  143.5802 H   0  0  0  0  0  0  0  0  0  0  0  0  # atno 7974 bound_to 7965
  154.7444  140.2755  155.6346 H   0  0  0  0  0  0  0  0  0  0  0  0  # atno 8008 bound_to 7997
  156.2881  140.2691  156.2106 H   0  0  0  0  0  0  0  0  0  0  0  0  # atno 8009 bound_to 7997
  155.0217  140.0371  157.2429 H   0  0  0  0  0  0  0  0  0  0  0  0  # atno 8010 bound_to 7997
  140.3567  143.2863  151.9663 H   0  0  0  0  0  0  0  0  0  0  0  0  # atno 10167 bound_to 10162
  157.5367  130.8668  149.8763 H   0  0  0  0  0  0  0  0  0  0  0  0  # atno 10718 bound_to 10713
  154.1766  135.6450  153.5023 H   0  0  0  0  0  0  0  0  0  0  0  0  # atno 10763 bound_to 10752
  153.0070  135.5396  154.6558 H   0  0  0  0  0  0  0  0  0  0  0  0  # atno 10764 bound_to 10752
  154.5911  135.2934  155.0607 H   0  0  0  0  0  0  0  0  0  0  0  0  # atno 10765 bound_to 10752
  140.5802  134.5149  157.5177 H   0  0  0  0  0  0  0  0  0  0  0  0  # atno 11005 bound_to 11000
  146.3049  139.7547  142.9063 LP  0  0  0  0  0  0  0  0  0  0  0  0  # atno 17320 bound_to 7965
  145.3796  141.0356  143.3185 LP  0  0  0  0  0  0  0  0  0  0  0  0  # atno 17321 bound_to 7965
  139.4819  144.6029  151.7573 LP  0  0  0  0  0  0  0  0  0  0  0  0  # atno 17342 bound_to 10162
  140.5167  144.0942  150.6010 LP  0  0  0  0  0  0  0  0  0  0  0  0  # atno 17343 bound_to 10162
  156.0464  130.3727  150.1307 LP  0  0  0  0  0  0  0  0  0  0  0  0  # atno 17370 bound_to 10713
  156.9489  130.9768  151.3502 LP  0  0  0  0  0  0  0  0  0  0  0  0  # atno 17371 bound_to 10713
  139.9321  134.7945  156.0903 LP  0  0  0  0  0  0  0  0  0  0  0  0  # atno 17394 bound_to 11000
  141.1001  133.6680  156.2734 LP  0  0  0  0  0  0  0  0  0  0  0  0  # atno 17395 bound_to 11000

$$$$
