AV-unprocessed.smi:2526|AV-procd|sdf|9941|dock6
  -GOLD-   2272013583D 1   1.00000     0.00000
 Structure written by MMmdl.
 28 29  0  0  0  0  0  0  0  0  1 V2000
  152.9708  138.1960  157.4314 C   0  0  0  0  0  0  0  0  0  0  0  0
  152.1594  138.3258  156.2401 N   0  0  0  0  0  0  0  0  0  0  0  0
  151.2549  139.3150  155.9211 C   0  0  0  0  0  0  0  0  0  0  0  0
  150.7253  139.0130  154.6963 C   0  0  0  0  0  0  0  0  0  0  0  0
  149.6960  139.7650  153.8849 C   0  0  1  0  0  0  0  0  0  0  0  0
  148.7011  138.8428  153.3276 N   0  0  0  0  0  0  0  0  0  0  0  0
  147.3788  139.0535  153.1988 C   0  0  0  0  0  0  0  0  0  0  0  0
  146.6456  138.2214  152.6697 O   0  0  0  0  0  0  0  0  0  0  0  0
  146.7710  140.3494  153.7545 C   0  0  0  0  0  0  0  0  0  0  0  0
  147.8113  141.4535  153.9931 C   0  0  0  0  0  0  0  0  0  0  0  0
  149.0371  140.8890  154.7200 C   0  0  2  0  0  0  0  0  0  0  0  0
  149.9804  141.9588  154.9917 N   0  0  0  0  0  0  0  0  0  0  0  0
  151.3875  137.8002  154.3477 C   0  0  0  0  0  0  0  0  0  0  0  0
  152.2404  137.3908  155.2723 N   0  0  0  0  0  0  0  0  0  0  0  0
  153.0679  139.1645  157.9230 H   0  0  0  0  0  0  0  0  0  0  0  0
  153.9654  137.8321  157.1706 H   0  0  0  0  0  0  0  0  0  0  0  0
  152.5005  137.4930  158.1193 H   0  0  0  0  0  0  0  0  0  0  0  0
  151.0643  140.1452  156.5854 H   0  0  0  0  0  0  0  0  0  0  0  0
  150.1774  140.2214  153.0184 H   0  0  0  0  0  0  0  0  0  0  0  0
  149.0608  137.9700  152.9690 H   0  0  0  0  0  0  0  0  0  0  0  0
  145.9944  140.7077  153.0780 H   0  0  0  0  0  0  0  0  0  0  0  0
  146.2774  140.1050  154.6956 H   0  0  0  0  0  0  0  0  0  0  0  0
  148.1077  141.8918  153.0386 H   0  0  0  0  0  0  0  0  0  0  0  0
  147.3597  142.2564  154.5770 H   0  0  0  0  0  0  0  0  0  0  0  0
  148.7116  140.4816  155.6783 H   0  0  0  0  0  0  0  0  0  0  0  0
  150.3922  142.2768  154.1261 H   0  0  0  0  0  0  0  0  0  0  0  0
  149.4907  142.7507  155.3833 H   0  0  0  0  0  0  0  0  0  0  0  0
  151.2713  137.2074  153.4524 H   0  0  0  0  0  0  0  0  0  0  0  0
  1  2  1  0  0  0  0
  1 15  1  0  0  0  0
  1 16  1  0  0  0  0
  1 17  1  0  0  0  0
  2 14  1  0  0  0  0
  2  3  1  0  0  0  0
  3  4  2  0  0  0  0
  3 18  1  0  0  0  0
  4  5  1  0  0  0  0
  4 13  1  0  0  0  0
  5 11  1  0  0  0  0
  5  6  1  0  0  0  0
  5 19  1  0  0  0  0
  6  7  1  0  0  0  0
  6 20  1  0  0  0  0
  7  8  2  0  0  0  0
  7  9  1  0  0  0  0
  9 10  1  0  0  0  0
  9 21  1  0  0  0  0
  9 22  1  0  0  0  0
 10 11  1  0  0  0  0
 10 23  1  0  0  0  0
 10 24  1  0  0  0  0
 11 12  1  0  0  0  0
 11 25  1  0  0  0  0
 12 26  1  0  0  0  0
 12 27  1  0  0  0  0
 13 14  2  0  0  0  0
 13 28  1  0  0  0  0
M  END
> <s_m_source_file>
AV-unprocessed.smi

> <i_m_source_file_index>
2526

> <i_lp_mmshare_version>
43012

> <i_f3d_flags>
0

> <s_epik_input>
W0NIM11uMVtjSF1jKFtjSF1uMSlbQ0BASF0yW05IXUMoPU8pW0NIMl1bQ0gyXVtDQEhdMltOSDJd

> <s_epik_cmdline>
J2VwaWtfcHl0aG9uJywgJy1waCcsICc3LjAnLCAnLXRuJywgJzgnLCAnLW1hJywgJzIwMCcsICctbWV0YWxfYmluZGluZycsICctaW1hZScsICc8aW5maWxlLm1hZT4nLCAnLW9tYWUnLCAnPG91dGZpbGUubWFlPic=

> <r_lp_tautomer_probability>
1

> <r_epik_Ionization_Penalty>
2.50279

> <r_epik_Ionization_Penalty_Charging>
0

> <r_epik_Ionization_Penalty_Neutral>
2.50279

> <r_epik_State_Penalty>
2.66754

> <r_epik_Charging_Adjusted_Penalty>
2.66754

> <i_epik_Tot_Q>
0

> <i_epik_Tot_abs_Q>
0

> <r_epik_Metal_State_Penalty>
2.66721

> <b_epik_Metal_Only>
0

> <s_lp_Force_Field>
OPLS_2005

> <r_lp_Energy>
8.34042

> <b_lp_Chiralities_Consistent>
1

> <s_lp_Variant>
AV-unprocessed.smi:2526-8

> <Gold.Version>
5.8.1

> <Gold.Id.Protein>
6NUR|6NUR_protein|mol2

> <Gold.PLP.Fitness>
34.2479

> <Gold.PLP.PLP>
-23.8338

> <Gold.PLP.part.hbond>
-5.6611

> <Gold.PLP.part.metal>
0.0000

> <Gold.PLP.part.buried>
3.5456

> <Gold.PLP.part.nonpolar>
-22.7527

> <Gold.PLP.part.repulsive>
0.4034

> <Gold.PLP.ligand.clash>
0.0000

> <Gold.PLP.ligand.torsion>
0.2959

> <Gold.PLP.Chemscore.Hbond>
2.6599

> <Gold.PLP.Chemscore.CHOScore>
1.0000

> <Gold.PLP.Chemscore.Metal>
0.0000

> <Gold.Chemscore.Hbonds>
donor molecule, donor type, donor heavy atom, donor atom, acceptor molecule, acceptor atom, score
      L1  H     6    20       P1  7948  0.99
      L1  H    12    27       P1  8028  0.89
      P1  H 10752 10765       L1    14  0.77
      L1  C    13    28       P1  7949  1.00

> <Gold.PLP.Chemscore.Internal.Correction>
0.0260

> <Gold.Rescore>
     Score         DG    S(hbond)    S(metal)    S(lipo)     H(rot)  DE(clash)    DE(int)     intcor
     15.15     -17.22       2.38        0.00      54.35       1.00       1.26       0.82       ----

> <Gold.Chemscore.Fitness>
15.1480

> <Gold.Chemscore.DG>
-17.2241

> <Gold.Chemscore.ZeroCoef>
-5.4800

> <Gold.Chemscore.Hbond>
2.3789

> <Gold.Chemscore.Metal>
0.0000

> <Gold.Chemscore.Lipo>
54.3478

> <Gold.Chemscore.Internal_Hbond>
0.0000

> <Gold.Chemscore.DEClash>
1.2566

> <Gold.Chemscore.DEInternal>
0.8195

> <Gold.Chemscore.Rot>
1.0000

> <Gold.Chemscore.Internal.Correction>
   9.000000E+99

> <Gold.Chemscore.Hbonds>
donor molecule, donor type, donor heavy atom, donor atom, acceptor molecule, acceptor atom, score
      L1  H     6    20       P1  7948  0.90
      L1  H    12    27       P1  8028  0.85
      P1  H 10752 10765       L1    14  0.39

> <Gold.Chemscore.Hbond.Weighted>
-7.9454

> <Gold.Chemscore.Metal.Weighted>
-0.0000

> <Gold.Chemscore.Lipo.Weighted>
-6.3587

> <Gold.Chemscore.Internal_Hbond.Weighted>
0.0000

> <Gold.Chemscore.DEClash.Weighted>
1.2566

> <Gold.Chemscore.DEInternal.Weighted>
0.8195

> <Gold.Chemscore.Rot.Weighted>
2.5600

> <Gold.Chemscore.Internal.Correction.Weighted>
   9.000000E+99

> <Gold.Protein.RotatedTorsions>
[ 6907 6896 6895 6894 ] final  113.94 input  -60.11 | X-H torsion
[ 7974 7965 7964 7962 ] final   30.00 input  175.53 | X-H torsion
[ 8008 7997 7996 7995 ] final   78.79 input   59.86 | X-H torsion
[ 10167 10162 10161 10158 ] final -147.61 input  -65.29 | X-H torsion
[ 10718 10713 10712 10709 ] final   63.62 input   66.30 | X-H torsion
[ 10763 10752 10751 10750 ] final -178.10 input  -60.55 | X-H torsion
[ 11005 11000 10999 10996 ] final  -42.87 input  -57.11 | X-H torsion

> <Gold.Protein.ActiveResidues>
 VAL166  LYS551  ARG553  GLY616  TRP617  ASP618  TYR619  PRO620  LYS621  CYS622 
 ASP623  PHE694  ASN695  SER759  ASP760  ASP761  ALA762  ILE779  LEU786  VAL792 
 PHE793  MET794  SER795  GLU796  ALA797  LYS798  CYS799  TRP800  GLU811  SER814 

> <Gold.Protein.RotatedAtoms>
  152.4831  133.8305  159.7100 H   0  0  0  0  0  0  0  0  0  0  0  0  # atno 6907 bound_to 6896
  150.8897  133.7251  159.2915 H   0  0  0  0  0  0  0  0  0  0  0  0  # atno 6908 bound_to 6896
  151.4728  135.1050  159.9808 H   0  0  0  0  0  0  0  0  0  0  0  0  # atno 6909 bound_to 6896
  146.1638  139.6847  142.9015 H   0  0  0  0  0  0  0  0  0  0  0  0  # atno 7974 bound_to 7965
  155.8606  140.3454  155.5754 H   0  0  0  0  0  0  0  0  0  0  0  0  # atno 8008 bound_to 7997
  155.7937  140.0875  157.2014 H   0  0  0  0  0  0  0  0  0  0  0  0  # atno 8009 bound_to 7997
  154.4011  140.1478  156.3181 H   0  0  0  0  0  0  0  0  0  0  0  0  # atno 8010 bound_to 7997
  139.7606  143.8382  152.2606 H   0  0  0  0  0  0  0  0  0  0  0  0  # atno 10167 bound_to 10162
  157.5984  130.9115  149.9740 H   0  0  0  0  0  0  0  0  0  0  0  0  # atno 10718 bound_to 10713
  154.5520  135.2813  155.1000 H   0  0  0  0  0  0  0  0  0  0  0  0  # atno 10763 bound_to 10752
  154.2442  135.6351  153.5221 H   0  0  0  0  0  0  0  0  0  0  0  0  # atno 10764 bound_to 10752
  153.0005  135.5567  154.6088 H   0  0  0  0  0  0  0  0  0  0  0  0  # atno 10765 bound_to 10752
  141.0345  133.6805  156.2655 H   0  0  0  0  0  0  0  0  0  0  0  0  # atno 11005 bound_to 11000
  145.4520  141.0429  143.2799 LP  0  0  0  0  0  0  0  0  0  0  0  0  # atno 17320 bound_to 7965
  144.8064  139.6044  143.7049 LP  0  0  0  0  0  0  0  0  0  0  0  0  # atno 17321 bound_to 7965
  139.8387  144.7220  150.9358 LP  0  0  0  0  0  0  0  0  0  0  0  0  # atno 17342 bound_to 10162
  140.7807  143.4003  151.1160 LP  0  0  0  0  0  0  0  0  0  0  0  0  # atno 17343 bound_to 10162
  156.1051  130.3653  150.0148 LP  0  0  0  0  0  0  0  0  0  0  0  0  # atno 17370 bound_to 10713
  156.8256  130.9374  151.3639 LP  0  0  0  0  0  0  0  0  0  0  0  0  # atno 17371 bound_to 10713
  140.6346  134.5228  157.5563 LP  0  0  0  0  0  0  0  0  0  0  0  0  # atno 17394 bound_to 11000
  139.9231  134.8109  156.1150 LP  0  0  0  0  0  0  0  0  0  0  0  0  # atno 17395 bound_to 11000

$$$$
