AV-unprocessed.smi:1697|AV-procd|sdf|6811|dock3
  -GOLD-   22720 7583D 1   1.00000     0.00000
 Structure written by MMmdl.
 53 55  0  0  0  0  0  0  0  0  1 V2000
  145.3047  135.5745  151.0197 C   0  0  0  0  0  0  0  0  0  0  0  0
  144.4111  136.2815  152.0412 C   0  0  0  0  0  0  0  0  0  0  0  0
  144.9799  136.1233  153.3326 O   0  0  0  0  0  0  0  0  0  0  0  0
  146.1075  136.9526  153.5856 C   0  0  0  0  0  0  0  0  0  0  0  0
  146.9311  136.4424  154.7838 C   0  0  0  0  0  0  0  0  0  0  0  0
  148.0307  137.4534  155.1506 C   0  0  0  0  0  0  0  0  0  0  0  0
  147.5011  138.7832  155.4551 N   0  0  0  0  0  0  0  0  0  0  0  0
  148.5803  139.6845  155.8650 C   0  0  0  0  0  0  0  0  0  0  0  0
  149.1846  140.5541  154.7448 C   0  0  2  0  0  0  0  0  0  0  0  0
  149.9660  139.7166  153.9170 O   0  0  0  0  0  0  0  0  0  0  0  0
  150.0681  141.6956  155.2859 C   0  0  0  0  0  0  0  0  0  0  0  0
  150.9137  141.2599  156.3819 N   0  0  0  0  0  0  0  0  0  0  0  0
  151.5980  140.1038  156.4795 C   0  0  0  0  0  0  0  0  0  0  0  0
  152.3199  139.9162  157.5809 N   0  0  0  0  0  0  0  0  0  0  0  0
  152.0705  141.0846  158.2810 C   0  0  0  0  0  0  0  0  0  0  0  0
  152.5394  141.5184  159.5405 C   0  0  0  0  0  0  0  0  0  0  0  0
  152.1466  142.7694  160.0683 C   0  0  0  0  0  0  0  0  0  0  0  0
  152.6739  143.1956  161.4270 C   0  0  0  0  0  0  0  0  0  0  0  0
  151.2700  143.6077  159.3332 C   0  0  0  0  0  0  0  0  0  0  0  0
  150.8303  144.9537  159.8817 C   0  0  0  0  0  0  0  0  0  0  0  0
  150.7953  143.1912  158.0721 C   0  0  0  0  0  0  0  0  0  0  0  0
  151.1932  141.9447  157.5585 C   0  0  0  0  0  0  0  0  0  0  0  0
  146.7524  139.2924  154.3018 C   0  0  0  0  0  0  0  0  0  0  0  0
  145.5936  138.3672  153.8946 C   0  0  0  0  0  0  0  0  0  0  0  0
  144.8956  135.6691  150.0138 H   0  0  0  0  0  0  0  0  0  0  0  0
  145.3934  134.5117  151.2461 H   0  0  0  0  0  0  0  0  0  0  0  0
  146.3078  136.0019  151.0148 H   0  0  0  0  0  0  0  0  0  0  0  0
  144.3241  137.3364  151.7819 H   0  0  0  0  0  0  0  0  0  0  0  0
  143.4095  135.8503  152.0144 H   0  0  0  0  0  0  0  0  0  0  0  0
  146.7389  137.0040  152.6965 H   0  0  0  0  0  0  0  0  0  0  0  0
  146.2768  136.2866  155.6426 H   0  0  0  0  0  0  0  0  0  0  0  0
  147.3873  135.4789  154.5591 H   0  0  0  0  0  0  0  0  0  0  0  0
  148.5817  137.0724  156.0112 H   0  0  0  0  0  0  0  0  0  0  0  0
  148.7487  137.5205  154.3318 H   0  0  0  0  0  0  0  0  0  0  0  0
  148.2073  140.3547  156.6409 H   0  0  0  0  0  0  0  0  0  0  0  0
  149.3740  139.1007  156.3344 H   0  0  0  0  0  0  0  0  0  0  0  0
  148.3953  140.9636  154.1153 H   0  0  0  0  0  0  0  0  0  0  0  0
  149.6247  139.7648  153.0370 H   0  0  0  0  0  0  0  0  0  0  0  0
  150.7162  142.0809  154.4976 H   0  0  0  0  0  0  0  0  0  0  0  0
  149.4553  142.5334  155.6220 H   0  0  0  0  0  0  0  0  0  0  0  0
  151.5685  139.3607  155.6958 H   0  0  0  0  0  0  0  0  0  0  0  0
  153.2060  140.8792  160.1004 H   0  0  0  0  0  0  0  0  0  0  0  0
  151.8542  143.2936  162.1389 H   0  0  0  0  0  0  0  0  0  0  0  0
  153.1883  144.1541  161.3560 H   0  0  0  0  0  0  0  0  0  0  0  0
  153.3796  142.4673  161.8272 H   0  0  0  0  0  0  0  0  0  0  0  0
  150.1119  145.4373  159.2191 H   0  0  0  0  0  0  0  0  0  0  0  0
  151.6871  145.6189  159.9907 H   0  0  0  0  0  0  0  0  0  0  0  0
  150.3568  144.8344  160.8563 H   0  0  0  0  0  0  0  0  0  0  0  0
  150.1294  143.8199  157.4994 H   0  0  0  0  0  0  0  0  0  0  0  0
  146.3316  140.2712  154.5265 H   0  0  0  0  0  0  0  0  0  0  0  0
  147.4251  139.4309  153.4540 H   0  0  0  0  0  0  0  0  0  0  0  0
  145.0767  138.7762  153.0260 H   0  0  0  0  0  0  0  0  0  0  0  0
  144.8610  138.3273  154.7019 H   0  0  0  0  0  0  0  0  0  0  0  0
  1  2  1  0  0  0  0
  1 25  1  0  0  0  0
  1 26  1  0  0  0  0
  1 27  1  0  0  0  0
  2  3  1  0  0  0  0
  2 28  1  0  0  0  0
  2 29  1  0  0  0  0
  3  4  1  0  0  0  0
  4 24  1  0  0  0  0
  4  5  1  0  0  0  0
  4 30  1  0  0  0  0
  5  6  1  0  0  0  0
  5 31  1  0  0  0  0
  5 32  1  0  0  0  0
  6  7  1  0  0  0  0
  6 33  1  0  0  0  0
  6 34  1  0  0  0  0
  7  8  1  0  0  0  0
  7 23  1  0  0  0  0
  8  9  1  0  0  0  0
  8 35  1  0  0  0  0
  8 36  1  0  0  0  0
  9 10  1  0  0  0  0
  9 11  1  0  0  0  0
  9 37  1  0  0  0  0
 10 38  1  0  0  0  0
 11 12  1  0  0  0  0
 11 39  1  0  0  0  0
 11 40  1  0  0  0  0
 12 22  1  0  0  0  0
 12 13  1  0  0  0  0
 13 14  2  0  0  0  0
 13 41  1  0  0  0  0
 14 15  1  0  0  0  0
 15 22  2  0  0  0  0
 15 16  1  0  0  0  0
 16 17  2  0  0  0  0
 16 42  1  0  0  0  0
 17 18  1  0  0  0  0
 17 19  1  0  0  0  0
 18 43  1  0  0  0  0
 18 44  1  0  0  0  0
 18 45  1  0  0  0  0
 19 20  1  0  0  0  0
 19 21  2  0  0  0  0
 20 46  1  0  0  0  0
 20 47  1  0  0  0  0
 20 48  1  0  0  0  0
 21 22  1  0  0  0  0
 21 49  1  0  0  0  0
 23 24  1  0  0  0  0
 23 50  1  0  0  0  0
 23 51  1  0  0  0  0
 24 52  1  0  0  0  0
 24 53  1  0  0  0  0
M  END
> <s_m_source_file>
AV-unprocessed.smi

> <i_m_source_file_index>
1697

> <i_lp_mmshare_version>
43012

> <i_f3d_flags>
0

> <s_epik_input>
W0NIM11bQ0gyXU9bQ0hdMVtDSDJdW0NIMl1OKFtDSDJdW0NIMl0xKVtDSDJdW0NASF0oW09IXSlbQ0gyXW4oW2NIXW4yKWMoYzIzKVtjSF1jKFtDSDNdKWMoW2NIXTMpW0NIM10=

> <s_epik_cmdline>
J2VwaWtfcHl0aG9uJywgJy1waCcsICc3LjAnLCAnLXRuJywgJzgnLCAnLW1hJywgJzIwMCcsICctbWV0YWxfYmluZGluZycsICctaW1hZScsICc8aW5maWxlLm1hZT4nLCAnLW9tYWUnLCAnPG91dGZpbGUubWFlPic=

> <r_epik_Ionization_Penalty>
1.9836

> <r_epik_Ionization_Penalty_Charging>
0

> <r_epik_Ionization_Penalty_Neutral>
1.9836

> <r_epik_State_Penalty>
2.07269

> <r_epik_Charging_Adjusted_Penalty>
2.07269

> <i_epik_Tot_Q>
0

> <i_epik_Tot_abs_Q>
0

> <r_epik_Metal_State_Penalty>
2.00215

> <b_epik_Metal_Only>
0

> <s_lp_Force_Field>
OPLS_2005

> <r_lp_Energy>
30.2153

> <b_lp_Chiralities_Consistent>
1

> <s_lp_Variant>
AV-unprocessed.smi:1697-9

> <Gold.Version>
5.8.1

> <Gold.Id.Protein>
6NUR|6NUR_protein|mol2

> <Gold.PLP.Fitness>
48.8195

> <Gold.PLP.PLP>
-42.4865

> <Gold.PLP.part.hbond>
-3.0000

> <Gold.PLP.part.metal>
0.0000

> <Gold.PLP.part.buried>
-5.1782

> <Gold.PLP.part.nonpolar>
-33.8624

> <Gold.PLP.part.repulsive>
0.1079

> <Gold.PLP.ligand.clash>
0.0000

> <Gold.PLP.ligand.torsion>
1.1440

> <Gold.PLP.Chemscore.Hbond>
2.8320

> <Gold.PLP.Chemscore.CHOScore>
0.0000

> <Gold.PLP.Chemscore.Metal>
0.0000

> <Gold.Chemscore.Hbonds>
donor molecule, donor type, donor heavy atom, donor atom, acceptor molecule, acceptor atom, score
      L1  H    10    38       P1  7957  1.00
      P1  H  7989  7998       L1    10  0.57
      P1  H  7997  8008       L1    14  0.44

> <Gold.PLP.Chemscore.Internal.Correction>
0.1250

> <Gold.Rescore>
     Score         DG    S(hbond)    S(metal)    S(lipo)     H(rot)  DE(clash)    DE(int)     intcor
     18.19     -20.01       1.96        0.00     116.16       2.19       0.76       1.05       ----

> <Gold.Chemscore.Fitness>
18.1919

> <Gold.Chemscore.DG>
-20.0092

> <Gold.Chemscore.ZeroCoef>
-5.4800

> <Gold.Chemscore.Hbond>
1.9628

> <Gold.Chemscore.Metal>
0.0000

> <Gold.Chemscore.Lipo>
116.1627

> <Gold.Chemscore.Internal_Hbond>
0.0000

> <Gold.Chemscore.DEClash>
0.7649

> <Gold.Chemscore.DEInternal>
1.0524

> <Gold.Chemscore.Rot>
2.1943

> <Gold.Chemscore.Internal.Correction>
   9.000000E+99

> <Gold.Chemscore.Hbonds>
donor molecule, donor type, donor heavy atom, donor atom, acceptor molecule, acceptor atom, score
      L1  H    10    38       P1  7957  0.99
      P1  H  7989  7998       L1    10  0.02
      P1  H  7997  8008       L1    14  0.09

> <Gold.Chemscore.Hbond.Weighted>
-6.5556

> <Gold.Chemscore.Metal.Weighted>
-0.0000

> <Gold.Chemscore.Lipo.Weighted>
-13.5910

> <Gold.Chemscore.Internal_Hbond.Weighted>
0.0000

> <Gold.Chemscore.DEClash.Weighted>
0.7649

> <Gold.Chemscore.DEInternal.Weighted>
1.0524

> <Gold.Chemscore.Rot.Weighted>
5.6174

> <Gold.Chemscore.Internal.Correction.Weighted>
   9.000000E+99

> <Gold.Protein.RotatedTorsions>
[ 6907 6896 6895 6894 ] final -155.69 input  -60.11 | X-H torsion
[ 7974 7965 7964 7962 ] final  -41.19 input  175.53 | X-H torsion
[ 8008 7997 7996 7995 ] final  -69.00 input   59.86 | X-H torsion
[ 10167 10162 10161 10158 ] final  -76.51 input  -65.29 | X-H torsion
[ 10718 10713 10712 10709 ] final   79.58 input   66.30 | X-H torsion
[ 10763 10752 10751 10750 ] final   80.99 input  -60.55 | X-H torsion
[ 11005 11000 10999 10996 ] final   81.82 input  -57.11 | X-H torsion

> <Gold.Protein.ActiveResidues>
 VAL166  LYS551  ARG553  GLY616  TRP617  ASP618  TYR619  PRO620  LYS621  CYS622 
 ASP623  PHE694  ASN695  SER759  ASP760  ASP761  ALA762  ILE779  LEU786  VAL792 
 PHE793  MET794  SER795  GLU796  ALA797  LYS798  CYS799  TRP800  GLU811  SER814 

> <Gold.Protein.RotatedAtoms>
  151.2764  133.4231  159.2623 H   0  0  0  0  0  0  0  0  0  0  0  0  # atno 6907 bound_to 6896
  151.0400  134.9600  159.8167 H   0  0  0  0  0  0  0  0  0  0  0  0  # atno 6908 bound_to 6896
  152.5363  134.2722  159.9028 H   0  0  0  0  0  0  0  0  0  0  0  0  # atno 6909 bound_to 6896
  146.0234  140.6822  142.9167 H   0  0  0  0  0  0  0  0  0  0  0  0  # atno 7974 bound_to 7965
  154.4907  140.0862  156.7588 H   0  0  0  0  0  0  0  0  0  0  0  0  # atno 8008 bound_to 7997
  155.4237  140.3447  155.4255 H   0  0  0  0  0  0  0  0  0  0  0  0  # atno 8009 bound_to 7997
  156.1326  140.1505  156.9031 H   0  0  0  0  0  0  0  0  0  0  0  0  # atno 8010 bound_to 7997
  140.4851  143.2393  151.7997 H   0  0  0  0  0  0  0  0  0  0  0  0  # atno 10167 bound_to 10162
  157.6781  130.9921  150.1953 H   0  0  0  0  0  0  0  0  0  0  0  0  # atno 10718 bound_to 10713
  153.1080  135.4782  154.8985 H   0  0  0  0  0  0  0  0  0  0  0  0  # atno 10763 bound_to 10752
  154.7450  135.3091  154.8663 H   0  0  0  0  0  0  0  0  0  0  0  0  # atno 10764 bound_to 10752
  153.9260  135.6850  153.4800 H   0  0  0  0  0  0  0  0  0  0  0  0  # atno 10765 bound_to 10752
  139.9084  134.8025  156.2093 H   0  0  0  0  0  0  0  0  0  0  0  0  # atno 11005 bound_to 11000
  144.6999  140.3606  143.7164 LP  0  0  0  0  0  0  0  0  0  0  0  0  # atno 17320 bound_to 7965
  145.7157  139.1696  143.2513 LP  0  0  0  0  0  0  0  0  0  0  0  0  # atno 17321 bound_to 7965
  139.4840  144.4722  151.9411 LP  0  0  0  0  0  0  0  0  0  0  0  0  # atno 17342 bound_to 10162
  140.3808  144.2738  150.5909 LP  0  0  0  0  0  0  0  0  0  0  0  0  # atno 17343 bound_to 10162
  156.2656  130.3716  149.8085 LP  0  0  0  0  0  0  0  0  0  0  0  0  # atno 17370 bound_to 10713
  156.5817  130.8468  151.3385 LP  0  0  0  0  0  0  0  0  0  0  0  0  # atno 17371 bound_to 10713
  141.0476  133.6905  156.1711 LP  0  0  0  0  0  0  0  0  0  0  0  0  # atno 17394 bound_to 11000
  140.6860  134.4716  157.5589 LP  0  0  0  0  0  0  0  0  0  0  0  0  # atno 17395 bound_to 11000

$$$$
