AV-unprocessed.smi:280|AV-procd|sdf|2098|dock4
  -GOLD-   2262021383D 1   1.00000     0.00000
 Structure written by MMmdl.
 59 62  0  0  0  0  0  0  0  0  2 V2000
  150.5689  139.9845  155.9891 C   0  0  0  0  0  0  0  0  0  0  0  0
  150.0642  141.4076  155.6629 C   0  0  1  0  0  0  0  0  0  0  0  0
  148.7479  141.3789  154.8565 C   0  0  0  0  0  0  0  0  0  0  0  0
  147.6171  141.0055  155.7071 N   0  0  0  0  0  0  0  0  0  0  0  0
  147.1704  139.7195  155.6680 C   0  0  0  0  0  0  0  0  0  0  0  0
  147.9748  138.8008  155.0717 N   0  0  0  0  0  0  0  0  0  0  0  0
  147.6090  137.5195  154.9932 C   0  0  0  0  0  0  0  0  0  0  0  0
  146.4936  136.9446  155.4406 N   0  0  0  0  0  0  0  0  0  0  0  0
  145.6743  137.8528  156.0405 C   0  0  0  0  0  0  0  0  0  0  0  0
  145.9305  139.2469  156.2001 C   0  0  0  0  0  0  0  0  0  0  0  0
  144.8696  139.8323  156.8840 N   0  0  0  0  0  0  0  0  0  0  0  0
  144.0389  138.8517  157.1048 C   0  0  0  0  0  0  0  0  0  0  0  0
  144.4383  137.6274  156.6218 N   0  0  0  0  0  0  0  0  0  0  0  0
  143.7093  136.3721  156.7322 C   0  0  0  0  0  0  0  0  0  0  0  0
  143.8832  135.6535  158.0850 C   0  0  0  0  0  0  0  0  0  0  0  0
  143.6292  134.1447  157.8874 C   0  0  0  0  0  0  0  0  0  0  0  0
  142.2712  133.8523  157.6246 O   0  0  0  0  0  0  0  0  0  0  0  0
  145.1348  136.0190  158.8965 C   0  0  0  0  0  0  0  0  0  0  0  0
  144.3517  136.3046  160.0760 O   0  0  0  0  0  0  0  0  0  0  0  0
  143.1563  136.3156  159.2651 C   0  0  0  0  0  0  0  0  0  0  0  0
  147.4539  141.8329  156.8976 C   0  0  0  0  0  0  0  0  0  0  0  0
  148.7534  141.8761  157.7235 C   0  0  0  0  0  0  0  0  0  0  0  0
  149.9081  142.2709  156.8712 N   0  3  1  0  0  0  0  0  0  0  0  0
  151.1700  142.5060  157.6256 C   0  0  0  0  0  0  0  0  0  0  0  0
  151.2435  143.9116  158.2705 C   0  0  0  0  0  0  0  0  0  0  0  0
  150.1128  144.0766  159.3004 C   0  0  0  0  0  0  0  0  0  0  0  0
  152.6083  144.1801  158.9316 C   0  0  0  0  0  0  0  0  0  0  0  0
  151.0260  144.8990  157.2834 O   0  0  0  0  0  0  0  0  0  0  0  0
  150.6781  139.3988  155.0761 H   0  0  0  0  0  0  0  0  0  0  0  0
  149.8835  139.4411  156.6389 H   0  0  0  0  0  0  0  0  0  0  0  0
  151.5428  139.9969  156.4776 H   0  0  0  0  0  0  0  0  0  0  0  0
  150.8150  141.8784  155.0268 H   0  0  0  0  0  0  0  0  0  0  0  0
  148.5461  142.3738  154.4580 H   0  0  0  0  0  0  0  0  0  0  0  0
  148.8576  140.7295  153.9880 H   0  0  0  0  0  0  0  0  0  0  0  0
  148.3104  136.8609  154.5021 H   0  0  0  0  0  0  0  0  0  0  0  0
  143.1031  138.9964  157.6253 H   0  0  0  0  0  0  0  0  0  0  0  0
  142.6558  136.5808  156.5409 H   0  0  0  0  0  0  0  0  0  0  0  0
  144.0312  135.7221  155.9177 H   0  0  0  0  0  0  0  0  0  0  0  0
  144.2237  133.7549  157.0605 H   0  0  0  0  0  0  0  0  0  0  0  0
  143.9116  133.5799  158.7758 H   0  0  0  0  0  0  0  0  0  0  0  0
  142.2308  133.1875  156.9540 H   0  0  0  0  0  0  0  0  0  0  0  0
  145.8324  135.1932  159.0408 H   0  0  0  0  0  0  0  0  0  0  0  0
  145.6547  136.9095  158.5428 H   0  0  0  0  0  0  0  0  0  0  0  0
  142.8181  137.3331  159.0619 H   0  0  0  0  0  0  0  0  0  0  0  0
  142.3487  135.7203  159.6924 H   0  0  0  0  0  0  0  0  0  0  0  0
  147.2095  142.8423  156.5648 H   0  0  0  0  0  0  0  0  0  0  0  0
  146.6051  141.5146  157.5014 H   0  0  0  0  0  0  0  0  0  0  0  0
  148.6262  142.5804  158.5439 H   0  0  0  0  0  0  0  0  0  0  0  0
  148.9518  140.9076  158.1817 H   0  0  0  0  0  0  0  0  0  0  0  0
  151.3121  141.7218  158.3712 H   0  0  0  0  0  0  0  0  0  0  0  0
  152.0185  142.4227  156.9450 H   0  0  0  0  0  0  0  0  0  0  0  0
  150.2123  143.3578  160.1146 H   0  0  0  0  0  0  0  0  0  0  0  0
  149.1334  143.9230  158.8457 H   0  0  0  0  0  0  0  0  0  0  0  0
  150.1162  145.0738  159.7428 H   0  0  0  0  0  0  0  0  0  0  0  0
  152.8257  143.4376  159.7003 H   0  0  0  0  0  0  0  0  0  0  0  0
  152.6311  145.1608  159.4083 H   0  0  0  0  0  0  0  0  0  0  0  0
  153.4238  144.1539  158.2084 H   0  0  0  0  0  0  0  0  0  0  0  0
  150.2310  144.6891  156.8162 H   0  0  0  0  0  0  0  0  0  0  0  0
  149.6617  143.1777  156.5007 H   0  0  0  0  0  0  0  0  0  0  0  0
  1  2  1  0  0  0  0
  1 29  1  0  0  0  0
  1 30  1  0  0  0  0
  1 31  1  0  0  0  0
  2 23  1  0  0  0  0
  2  3  1  0  0  0  0
  2 32  1  0  0  0  0
  3  4  1  0  0  0  0
  3 33  1  0  0  0  0
  3 34  1  0  0  0  0
  4  5  1  0  0  0  0
  4 21  1  0  0  0  0
  5 10  1  0  0  0  0
  5  6  2  0  0  0  0
  6  7  1  0  0  0  0
  7  8  2  0  0  0  0
  7 35  1  0  0  0  0
  8  9  1  0  0  0  0
  9 13  1  0  0  0  0
  9 10  2  0  0  0  0
 10 11  1  0  0  0  0
 11 12  2  0  0  0  0
 12 13  1  0  0  0  0
 12 36  1  0  0  0  0
 13 14  1  0  0  0  0
 14 15  1  0  0  0  0
 14 37  1  0  0  0  0
 14 38  1  0  0  0  0
 15 20  1  0  0  0  0
 15 16  1  0  0  0  0
 15 18  1  0  0  0  0
 16 17  1  0  0  0  0
 16 39  1  0  0  0  0
 16 40  1  0  0  0  0
 17 41  1  0  0  0  0
 18 19  1  0  0  0  0
 18 42  1  0  0  0  0
 18 43  1  0  0  0  0
 19 20  1  0  0  0  0
 20 44  1  0  0  0  0
 20 45  1  0  0  0  0
 21 22  1  0  0  0  0
 21 46  1  0  0  0  0
 21 47  1  0  0  0  0
 22 23  1  0  0  0  0
 22 48  1  0  0  0  0
 22 49  1  0  0  0  0
 23 24  1  0  0  0  0
 23 59  1  0  0  0  0
 24 25  1  0  0  0  0
 24 50  1  0  0  0  0
 24 51  1  0  0  0  0
 25 26  1  0  0  0  0
 25 27  1  0  0  0  0
 25 28  1  0  0  0  0
 26 52  1  0  0  0  0
 26 53  1  0  0  0  0
 26 54  1  0  0  0  0
 27 55  1  0  0  0  0
 27 56  1  0  0  0  0
 27 57  1  0  0  0  0
 28 58  1  0  0  0  0
M  CHG  1  23   1
M  END
> <s_m_source_file>
AV-unprocessed.smi

> <i_m_source_file_index>
280

> <i_lp_mmshare_version>
43012

> <i_f3d_flags>
0

> <s_epik_input>
W0NIM11DKFtDSDNdKShbT0hdKVtDSDJdTjFbQ0gyXVtDSDJdTihbQ0gyXVtDQEhdMVtDSDNdKWMobltjSF1uMiljKGMyMyluW2NIXW4zW0NIMl1DNChbQ0gyXVtPSF0pW0NIMl1PW0NIMl00

> <s_epik_cmdline>
J2VwaWtfcHl0aG9uJywgJy1waCcsICc3LjAnLCAnLXRuJywgJzgnLCAnLW1hJywgJzIwMCcsICctbWV0YWxfYmluZGluZycsICctaW1hZScsICc8aW5maWxlLm1hZT4nLCAnLW9tYWUnLCAnPG91dGZpbGUubWFlPic=

> <r_lp_tautomer_probability>
1

> <r_epik_Ionization_Penalty>
0.00179402

> <r_epik_Ionization_Penalty_Charging>
0.00173996

> <r_epik_Ionization_Penalty_Neutral>
5.40607e-05

> <r_epik_State_Penalty>
-0

> <r_epik_Charging_Adjusted_Penalty>
0.00173996

> <i_epik_Tot_Q>
1

> <i_epik_Tot_abs_Q>
1

> <r_epik_Metal_State_Penalty>
-0

> <b_epik_Metal_Only>
0

> <s_lp_Force_Field>
OPLS_2005

> <r_lp_Energy>
54.8934

> <b_lp_Chiralities_Consistent>
1

> <s_lp_Variant>
AV-unprocessed.smi:280-2

> <Gold.Version>
5.8.1

> <Gold.Id.Protein>
6NUR|6NUR_protein|mol2

> <Gold.PLP.Fitness>
43.4336

> <Gold.PLP.PLP>
-27.6120

> <Gold.PLP.part.hbond>
-4.2320

> <Gold.PLP.part.metal>
0.0000

> <Gold.PLP.part.buried>
-2.5197

> <Gold.PLP.part.nonpolar>
-21.0009

> <Gold.PLP.part.repulsive>
0.2086

> <Gold.PLP.ligand.clash>
0.0000

> <Gold.PLP.ligand.torsion>
1.6259

> <Gold.PLP.Chemscore.Hbond>
5.0000

> <Gold.PLP.Chemscore.CHOScore>
1.0000

> <Gold.PLP.Chemscore.Metal>
0.0000

> <Gold.Chemscore.Hbonds>
donor molecule, donor type, donor heavy atom, donor atom, acceptor molecule, acceptor atom, score
      L1  H    23    59       P1  8028  2.00
      L1  H    28    58       P1  8028  1.00
      L1  C     7    35       P1  7948  0.37

> <Gold.PLP.Chemscore.Internal.Correction>
1.0734

> <Gold.Rescore>
     Score         DG    S(hbond)    S(metal)    S(lipo)     H(rot)  DE(clash)    DE(int)     intcor
     13.17     -17.08       3.45        0.00      72.99       3.30       1.52       2.39       ----

> <Gold.Chemscore.Fitness>
13.1735

> <Gold.Chemscore.DG>
-17.0825

> <Gold.Chemscore.ZeroCoef>
-5.4800

> <Gold.Chemscore.Hbond>
3.4455

> <Gold.Chemscore.Metal>
0.0000

> <Gold.Chemscore.Lipo>
72.9921

> <Gold.Chemscore.Internal_Hbond>
0.0000

> <Gold.Chemscore.DEClash>
1.5207

> <Gold.Chemscore.DEInternal>
2.3882

> <Gold.Chemscore.Rot>
3.2991

> <Gold.Chemscore.Internal.Correction>
   9.000000E+99

> <Gold.Chemscore.Hbonds>
donor molecule, donor type, donor heavy atom, donor atom, acceptor molecule, acceptor atom, score
      L1  H    23    59       P1  8028  1.00
      L1  H    28    58       P1  8028  0.70

> <Gold.Chemscore.Hbond.Weighted>
-11.5080

> <Gold.Chemscore.Metal.Weighted>
-0.0000

> <Gold.Chemscore.Lipo.Weighted>
-8.5401

> <Gold.Chemscore.Internal_Hbond.Weighted>
0.0000

> <Gold.Chemscore.DEClash.Weighted>
1.5207

> <Gold.Chemscore.DEInternal.Weighted>
2.3882

> <Gold.Chemscore.Rot.Weighted>
8.4456

> <Gold.Chemscore.Internal.Correction.Weighted>
   9.000000E+99

> <Gold.Protein.RotatedTorsions>
[ 6907 6896 6895 6894 ] final   21.97 input  -60.11 | X-H torsion
[ 7974 7965 7964 7962 ] final -127.73 input  175.53 | X-H torsion
[ 8008 7997 7996 7995 ] final   62.68 input   59.86 | X-H torsion
[ 10167 10162 10161 10158 ] final  -70.44 input  -65.29 | X-H torsion
[ 10718 10713 10712 10709 ] final   -3.02 input   66.30 | X-H torsion
[ 10763 10752 10751 10750 ] final  172.18 input  -60.55 | X-H torsion
[ 11005 11000 10999 10996 ] final -103.90 input  -57.11 | X-H torsion

> <Gold.Protein.ActiveResidues>
 VAL166  LYS551  ARG553  GLY616  TRP617  ASP618  TYR619  PRO620  LYS621  CYS622 
 ASP623  PHE694  ASN695  SER759  ASP760  ASP761  ALA762  ILE779  LEU786  VAL792 
 PHE793  MET794  SER795  GLU796  ALA797  LYS798  CYS799  TRP800  GLU811  SER814 

> <Gold.Protein.RotatedAtoms>
  151.9200  135.0302  160.0521 H   0  0  0  0  0  0  0  0  0  0  0  0  # atno 6907 bound_to 6896
  152.2207  133.4977  159.5169 H   0  0  0  0  0  0  0  0  0  0  0  0  # atno 6908 bound_to 6896
  150.6999  134.1262  159.4096 H   0  0  0  0  0  0  0  0  0  0  0  0  # atno 6909 bound_to 6896
  144.9741  140.7575  143.4652 H   0  0  0  0  0  0  0  0  0  0  0  0  # atno 7974 bound_to 7965
  155.6181  140.3495  155.4643 H   0  0  0  0  0  0  0  0  0  0  0  0  # atno 8008 bound_to 7997
  156.0101  140.1231  157.0486 H   0  0  0  0  0  0  0  0  0  0  0  0  # atno 8009 bound_to 7997
  154.4278  140.1083  156.5803 H   0  0  0  0  0  0  0  0  0  0  0  0  # atno 8010 bound_to 7997
  140.5352  143.2318  151.7190 H   0  0  0  0  0  0  0  0  0  0  0  0  # atno 10167 bound_to 10162
  156.7823  130.5334  149.5749 H   0  0  0  0  0  0  0  0  0  0  0  0  # atno 10718 bound_to 10713
  154.4225  135.2758  155.1966 H   0  0  0  0  0  0  0  0  0  0  0  0  # atno 10763 bound_to 10752
  154.3906  135.6067  153.5845 H   0  0  0  0  0  0  0  0  0  0  0  0  # atno 10764 bound_to 10752
  152.9833  135.5902  154.4523 H   0  0  0  0  0  0  0  0  0  0  0  0  # atno 10765 bound_to 10752
  141.1125  133.8679  157.1544 H   0  0  0  0  0  0  0  0  0  0  0  0  # atno 11005 bound_to 11000
  145.2515  139.2029  143.4940 LP  0  0  0  0  0  0  0  0  0  0  0  0  # atno 17320 bound_to 7965
  146.3390  140.2429  142.8596 LP  0  0  0  0  0  0  0  0  0  0  0  0  # atno 17321 bound_to 7965
  139.4968  144.4053  152.0138 LP  0  0  0  0  0  0  0  0  0  0  0  0  # atno 17342 bound_to 10162
  140.3158  144.3485  150.6022 LP  0  0  0  0  0  0  0  0  0  0  0  0  # atno 17343 bound_to 10162
  156.1210  130.6110  151.0194 LP  0  0  0  0  0  0  0  0  0  0  0  0  # atno 17370 bound_to 10713
  157.6640  131.0875  150.7771 LP  0  0  0  0  0  0  0  0  0  0  0  0  # atno 17371 bound_to 10713
  140.0027  135.0021  157.0224 LP  0  0  0  0  0  0  0  0  0  0  0  0  # atno 17394 bound_to 11000
  140.4737  134.1360  155.7206 LP  0  0  0  0  0  0  0  0  0  0  0  0  # atno 17395 bound_to 11000

$$$$
