AV-unprocessed.smi:775|AV-procd|sdf|3698|dock2
  -GOLD-   22720 1123D 1   1.00000     0.00000
 Structure written by MMmdl.
 38 39  0  0  0  0  0  0  0  0  1 V2000
  152.3427  140.2463  159.0077 C   0  0  0  0  0  0  0  0  0  0  0  0
  151.8081  141.6097  158.5458 C   0  0  1  0  0  0  0  0  0  0  0  0
  152.7526  142.7465  159.0043 C   0  0  0  0  0  0  0  0  0  0  0  0
  153.0686  142.7117  160.4221 N   0  0  0  0  0  0  0  0  0  0  0  0
  152.5840  143.5197  161.4299 C   0  0  0  0  0  0  0  0  0  0  0  0
  153.1537  143.1005  162.5979 C   0  0  0  0  0  0  0  0  0  0  0  0
  153.9696  142.0046  162.2010 C   0  0  0  0  0  0  0  0  0  0  0  0
  153.9078  141.7681  160.9010 N   0  0  0  0  0  0  0  0  0  0  0  0
  151.7054  141.5483  157.0897 N   0  0  0  0  0  0  0  0  0  0  0  0
  150.3286  141.7210  156.6074 C   0  0  0  0  0  0  0  0  0  0  0  0
  150.0188  140.7925  155.4258 C   0  0  0  0  0  0  0  0  0  0  0  0
  150.9351  140.0831  155.0072 O   0  0  0  0  0  0  0  0  0  0  0  0
  148.7725  140.7568  154.8886 N   0  0  0  0  0  0  0  0  0  0  0  0
  147.6669  141.6075  155.3616 C   0  0  0  0  0  0  0  0  0  0  0  0
  146.7054  141.9842  154.2263 C   0  0  0  0  0  0  0  0  0  0  0  0
  146.2814  140.8184  153.4721 N   0  0  0  0  0  0  0  0  0  0  0  0
  147.0769  139.7710  153.2248 C   0  0  0  0  0  0  0  0  0  0  0  0
  146.7027  138.8246  152.5359 O   0  0  0  0  0  0  0  0  0  0  0  0
  148.4859  139.7542  153.8401 C   0  0  0  0  0  0  0  0  0  0  0  0
  152.4170  140.2034  160.0948 H   0  0  0  0  0  0  0  0  0  0  0  0
  153.3347  140.0460  158.6007 H   0  0  0  0  0  0  0  0  0  0  0  0
  151.6832  139.4354  158.6960 H   0  0  0  0  0  0  0  0  0  0  0  0
  150.8203  141.7332  158.9931 H   0  0  0  0  0  0  0  0  0  0  0  0
  153.7001  142.6740  158.4690 H   0  0  0  0  0  0  0  0  0  0  0  0
  152.3319  143.7205  158.7469 H   0  0  0  0  0  0  0  0  0  0  0  0
  151.8861  144.3202  161.2331 H   0  0  0  0  0  0  0  0  0  0  0  0
  153.0060  143.5107  163.5857 H   0  0  0  0  0  0  0  0  0  0  0  0
  154.5975  141.3757  162.8147 H   0  0  0  0  0  0  0  0  0  0  0  0
  152.0744  140.6593  156.7832 H   0  0  0  0  0  0  0  0  0  0  0  0
  149.6348  141.4887  157.4168 H   0  0  0  0  0  0  0  0  0  0  0  0
  150.1305  142.7539  156.3282 H   0  0  0  0  0  0  0  0  0  0  0  0
  147.1309  141.0743  156.1479 H   0  0  0  0  0  0  0  0  0  0  0  0
  148.0180  142.5411  155.7961 H   0  0  0  0  0  0  0  0  0  0  0  0
  145.8277  142.4918  154.6267 H   0  0  0  0  0  0  0  0  0  0  0  0
  147.1904  142.6810  153.5415 H   0  0  0  0  0  0  0  0  0  0  0  0
  145.3495  140.8231  153.0834 H   0  0  0  0  0  0  0  0  0  0  0  0
  149.1933  139.8825  153.0190 H   0  0  0  0  0  0  0  0  0  0  0  0
  148.6574  138.7570  154.2494 H   0  0  0  0  0  0  0  0  0  0  0  0
  1  2  1  0  0  0  0
  1 20  1  0  0  0  0
  1 21  1  0  0  0  0
  1 22  1  0  0  0  0
  2  3  1  0  0  0  0
  2  9  1  0  0  0  0
  2 23  1  0  0  0  0
  3  4  1  0  0  0  0
  3 24  1  0  0  0  0
  3 25  1  0  0  0  0
  4  8  1  0  0  0  0
  4  5  1  0  0  0  0
  5  6  2  0  0  0  0
  5 26  1  0  0  0  0
  6  7  1  0  0  0  0
  6 27  1  0  0  0  0
  7  8  2  0  0  0  0
  7 28  1  0  0  0  0
  9 10  1  0  0  0  0
  9 29  1  0  0  0  0
 10 11  1  0  0  0  0
 10 30  1  0  0  0  0
 10 31  1  0  0  0  0
 11 12  2  0  0  0  0
 11 13  1  0  0  0  0
 13 19  1  0  0  0  0
 13 14  1  0  0  0  0
 14 15  1  0  0  0  0
 14 32  1  0  0  0  0
 14 33  1  0  0  0  0
 15 16  1  0  0  0  0
 15 34  1  0  0  0  0
 15 35  1  0  0  0  0
 16 17  1  0  0  0  0
 16 36  1  0  0  0  0
 17 18  2  0  0  0  0
 17 19  1  0  0  0  0
 19 37  1  0  0  0  0
 19 38  1  0  0  0  0
M  END
> <s_m_source_file>
AV-unprocessed.smi

> <i_m_source_file_index>
775

> <i_lp_mmshare_version>
43012

> <i_f3d_flags>
0

> <s_epik_input>
bjFbY0hdW2NIXVtjSF1uMVtDSDJdW0NAQEhdKFtDSDNdKVtOSF1bQ0gyXUMoPU8pTjJbQ0gyXVtDSDJdW05IXUMoPU8pW0NIMl0y

> <s_epik_cmdline>
J2VwaWtfcHl0aG9uJywgJy1waCcsICc3LjAnLCAnLXRuJywgJzgnLCAnLW1hJywgJzIwMCcsICctbWV0YWxfYmluZGluZycsICctaW1hZScsICc8aW5maWxlLm1hZT4nLCAnLW9tYWUnLCAnPG91dGZpbGUubWFlPic=

> <r_lp_tautomer_probability>
1

> <r_epik_Ionization_Penalty>
0.836058

> <r_epik_Ionization_Penalty_Charging>
0

> <r_epik_Ionization_Penalty_Neutral>
0.836058

> <r_epik_State_Penalty>
0.870309

> <r_epik_Charging_Adjusted_Penalty>
0.870309

> <i_epik_Tot_Q>
0

> <i_epik_Tot_abs_Q>
0

> <r_epik_Metal_State_Penalty>
0.870266

> <b_epik_Metal_Only>
0

> <s_lp_Force_Field>
OPLS_2005

> <r_lp_Energy>
25.6331

> <b_lp_Chiralities_Consistent>
1

> <s_lp_Variant>
AV-unprocessed.smi:775-4

> <Gold.Version>
5.8.1

> <Gold.Id.Protein>
6NUR|6NUR_protein|mol2

> <Gold.PLP.Fitness>
46.0620

> <Gold.PLP.PLP>
-42.4888

> <Gold.PLP.part.hbond>
-2.0000

> <Gold.PLP.part.metal>
0.0000

> <Gold.PLP.part.buried>
-2.3481

> <Gold.PLP.part.nonpolar>
-38.4352

> <Gold.PLP.part.repulsive>
0.3789

> <Gold.PLP.ligand.clash>
0.0000

> <Gold.PLP.ligand.torsion>
1.2561

> <Gold.PLP.Chemscore.Hbond>
2.0000

> <Gold.PLP.Chemscore.CHOScore>
0.0000

> <Gold.PLP.Chemscore.Metal>
0.0000

> <Gold.Chemscore.Hbonds>
donor molecule, donor type, donor heavy atom, donor atom, acceptor molecule, acceptor atom, score
      L1  H    16    36       P1 10175  1.00
      P1  H  7989  7998       L1    12  1.00

> <Gold.PLP.Chemscore.Internal.Correction>
0.0855

> <Gold.Rescore>
     Score         DG    S(hbond)    S(metal)    S(lipo)     H(rot)  DE(clash)    DE(int)     intcor
     13.51     -16.23       1.96        0.00      82.38       2.12       0.17       2.56       ----

> <Gold.Chemscore.Fitness>
13.5137

> <Gold.Chemscore.DG>
-16.2342

> <Gold.Chemscore.ZeroCoef>
-5.4800

> <Gold.Chemscore.Hbond>
1.9617

> <Gold.Chemscore.Metal>
0.0000

> <Gold.Chemscore.Lipo>
82.3850

> <Gold.Chemscore.Internal_Hbond>
0.0000

> <Gold.Chemscore.DEClash>
0.1654

> <Gold.Chemscore.DEInternal>
2.5551

> <Gold.Chemscore.Rot>
2.1239

> <Gold.Chemscore.Internal.Correction>
   9.000000E+99

> <Gold.Chemscore.Hbonds>
donor molecule, donor type, donor heavy atom, donor atom, acceptor molecule, acceptor atom, score
      L1  H    16    36       P1 10175  0.60
      P1  H  7989  7998       L1    12  0.65

> <Gold.Chemscore.Hbond.Weighted>
-6.5522

> <Gold.Chemscore.Metal.Weighted>
-0.0000

> <Gold.Chemscore.Lipo.Weighted>
-9.6390

> <Gold.Chemscore.Internal_Hbond.Weighted>
0.0000

> <Gold.Chemscore.DEClash.Weighted>
0.1654

> <Gold.Chemscore.DEInternal.Weighted>
2.5551

> <Gold.Chemscore.Rot.Weighted>
5.4371

> <Gold.Chemscore.Internal.Correction.Weighted>
   9.000000E+99

> <Gold.Protein.RotatedTorsions>
[ 6907 6896 6895 6894 ] final -170.79 input  -60.11 | X-H torsion
[ 7974 7965 7964 7962 ] final  164.79 input  175.53 | X-H torsion
[ 8008 7997 7996 7995 ] final  -58.59 input   59.86 | X-H torsion
[ 10167 10162 10161 10158 ] final   42.15 input  -65.29 | X-H torsion
[ 10718 10713 10712 10709 ] final   44.99 input   66.30 | X-H torsion
[ 10763 10752 10751 10750 ] final -110.18 input  -60.55 | X-H torsion
[ 11005 11000 10999 10996 ] final   53.91 input  -57.11 | X-H torsion

> <Gold.Protein.ActiveResidues>
 VAL166  LYS551  ARG553  GLY616  TRP617  ASP618  TYR619  PRO620  LYS621  CYS622 
 ASP623  PHE694  ASN695  SER759  ASP760  ASP761  ALA762  ILE779  LEU786  VAL792 
 PHE793  MET794  SER795  GLU796  ALA797  LYS798  CYS799  TRP800  GLU811  SER814 

> <Gold.Protein.RotatedAtoms>
  151.5133  133.3480  159.2888 H   0  0  0  0  0  0  0  0  0  0  0  0  # atno 6907 bound_to 6896
  150.8698  134.8072  159.7157 H   0  0  0  0  0  0  0  0  0  0  0  0  # atno 6908 bound_to 6896
  152.4690  134.5016  159.9778 H   0  0  0  0  0  0  0  0  0  0  0  0  # atno 6909 bound_to 6896
  144.7530  139.8377  143.6359 H   0  0  0  0  0  0  0  0  0  0  0  0  # atno 7974 bound_to 7965
  154.4315  140.1080  156.5981 H   0  0  0  0  0  0  0  0  0  0  0  0  # atno 8008 bound_to 7997
  155.5940  140.3492  155.4556 H   0  0  0  0  0  0  0  0  0  0  0  0  # atno 8009 bound_to 7997
  156.0225  140.1242  157.0332 H   0  0  0  0  0  0  0  0  0  0  0  0  # atno 8010 bound_to 7997
  140.3572  144.2275  150.6141 H   0  0  0  0  0  0  0  0  0  0  0  0  # atno 10167 bound_to 10162
  157.4328  130.8035  149.7619 H   0  0  0  0  0  0  0  0  0  0  0  0  # atno 10718 bound_to 10713
  154.8234  135.4574  154.0845 H   0  0  0  0  0  0  0  0  0  0  0  0  # atno 10763 bound_to 10752
  153.2180  135.6890  153.8040 H   0  0  0  0  0  0  0  0  0  0  0  0  # atno 10764 bound_to 10752
  153.7468  135.3304  155.3290 H   0  0  0  0  0  0  0  0  0  0  0  0  # atno 10765 bound_to 10752
  140.0729  134.5445  155.9028 H   0  0  0  0  0  0  0  0  0  0  0  0  # atno 11005 bound_to 11000
  146.1505  139.4586  143.0052 LP  0  0  0  0  0  0  0  0  0  0  0  0  # atno 17320 bound_to 7965
  145.6877  141.0173  143.1572 LP  0  0  0  0  0  0  0  0  0  0  0  0  # atno 17321 bound_to 7965
  140.5162  143.2277  151.8459 LP  0  0  0  0  0  0  0  0  0  0  0  0  # atno 17342 bound_to 10162
  139.4818  144.4891  151.9208 LP  0  0  0  0  0  0  0  0  0  0  0  0  # atno 17343 bound_to 10162
  155.9919  130.3934  150.2963 LP  0  0  0  0  0  0  0  0  0  0  0  0  # atno 17370 bound_to 10713
  157.1121  131.0224  151.3043 LP  0  0  0  0  0  0  0  0  0  0  0  0  # atno 17371 bound_to 10713
  141.2018  133.6621  156.5973 LP  0  0  0  0  0  0  0  0  0  0  0  0  # atno 17394 bound_to 11000
  140.3601  134.7695  157.4528 LP  0  0  0  0  0  0  0  0  0  0  0  0  # atno 17395 bound_to 11000

$$$$
