AV-unprocessed.smi:565|AV-procd|sdf|2951|dock5
  -GOLD-   2262023453D 1   1.00000     0.00000
 Structure written by MMmdl.
 50 51  0  0  0  0  0  0  0  0  2 V2000
  153.3079  137.4711  156.7832 C   0  0  0  0  0  0  0  0  0  0  0  0
  152.5158  138.7442  156.6916 C   0  0  0  0  0  0  0  0  0  0  0  0
  152.7230  139.6969  157.5849 N   0  0  0  0  0  0  0  0  0  0  0  0
  151.8794  140.6879  157.2344 N   0  0  0  0  0  0  0  0  0  0  0  0
  151.8490  141.9073  158.0184 C   0  0  0  0  0  0  0  0  0  0  0  0
  151.1366  140.3607  156.1169 C   0  0  0  0  0  0  0  0  0  0  0  0
  150.1271  141.2966  155.5337 C   0  0  0  0  0  0  0  0  0  0  0  0
  151.5206  139.1026  155.7345 C   0  0  0  0  0  0  0  0  0  0  0  0
  151.0192  138.2717  154.5796 C   0  0  0  0  0  0  0  0  0  0  0  0
  150.3278  137.0172  155.1138 C   0  0  0  0  0  0  0  0  0  0  0  0
  149.6895  137.0643  156.1650 O   0  0  0  0  0  0  0  0  0  0  0  0
  150.4488  135.9039  154.3742 N   0  0  0  0  0  0  0  0  0  0  0  0
  149.8129  134.6282  154.6767 C   0  0  0  0  0  0  0  0  0  0  0  0
  148.2817  134.7787  154.7655 C   0  0  0  0  0  0  0  0  0  0  0  0
  147.6220  134.6940  153.4382 N   0  3  1  0  0  0  0  0  0  0  0  0
  147.6917  133.3238  152.8672 C   0  0  0  0  0  0  0  0  0  0  0  0
  147.1320  133.2904  151.4363 C   0  0  0  0  0  0  0  0  0  0  0  0
  145.6945  133.8234  151.3968 C   0  0  0  0  0  0  0  0  0  0  0  0
  145.6303  135.2292  152.0170 C   0  0  1  0  0  0  0  0  0  0  0  0
  144.1963  135.7777  152.0147 C   0  0  0  0  0  0  0  0  0  0  0  0
  146.2278  135.2142  153.4385 C   0  0  0  0  0  0  0  0  0  0  0  0
  152.7444  136.6251  156.3901 H   0  0  0  0  0  0  0  0  0  0  0  0
  153.5712  137.2364  157.8152 H   0  0  0  0  0  0  0  0  0  0  0  0
  154.2336  137.5472  156.2127 H   0  0  0  0  0  0  0  0  0  0  0  0
  150.8429  142.0697  158.4056 H   0  0  0  0  0  0  0  0  0  0  0  0
  152.1307  142.7531  157.3909 H   0  0  0  0  0  0  0  0  0  0  0  0
  152.5428  141.8442  158.8578 H   0  0  0  0  0  0  0  0  0  0  0  0
  149.5908  140.8371  154.7039 H   0  0  0  0  0  0  0  0  0  0  0  0
  150.6093  142.2004  155.1605 H   0  0  0  0  0  0  0  0  0  0  0  0
  149.3912  141.5892  156.2827 H   0  0  0  0  0  0  0  0  0  0  0  0
  150.3198  138.8267  153.9536 H   0  0  0  0  0  0  0  0  0  0  0  0
  151.8377  137.9756  153.9224 H   0  0  0  0  0  0  0  0  0  0  0  0
  150.9958  135.9556  153.5270 H   0  0  0  0  0  0  0  0  0  0  0  0
  150.0926  133.9339  153.8857 H   0  0  0  0  0  0  0  0  0  0  0  0
  150.2138  134.2198  155.6060 H   0  0  0  0  0  0  0  0  0  0  0  0
  147.8971  133.9798  155.4012 H   0  0  0  0  0  0  0  0  0  0  0  0
  148.0116  135.7156  155.2550 H   0  0  0  0  0  0  0  0  0  0  0  0
  148.7270  132.9806  152.8512 H   0  0  0  0  0  0  0  0  0  0  0  0
  147.1380  132.6333  153.5056 H   0  0  0  0  0  0  0  0  0  0  0  0
  147.7647  133.8899  150.7804 H   0  0  0  0  0  0  0  0  0  0  0  0
  147.1622  132.2717  151.0482 H   0  0  0  0  0  0  0  0  0  0  0  0
  145.3357  133.8467  150.3672 H   0  0  0  0  0  0  0  0  0  0  0  0
  145.0364  133.1444  151.9410 H   0  0  0  0  0  0  0  0  0  0  0  0
  146.2371  135.8973  151.4038 H   0  0  0  0  0  0  0  0  0  0  0  0
  143.5317  135.1556  152.6153 H   0  0  0  0  0  0  0  0  0  0  0  0
  143.7923  135.8148  151.0024 H   0  0  0  0  0  0  0  0  0  0  0  0
  144.1616  136.7895  152.4195 H   0  0  0  0  0  0  0  0  0  0  0  0
  145.6124  134.6026  154.1007 H   0  0  0  0  0  0  0  0  0  0  0  0
  146.2066  136.2274  153.8380 H   0  0  0  0  0  0  0  0  0  0  0  0
  148.1572  135.2834  152.8163 H   0  0  0  0  0  0  0  0  0  0  0  0
  1  2  1  0  0  0  0
  1 22  1  0  0  0  0
  1 23  1  0  0  0  0
  1 24  1  0  0  0  0
  2  8  1  0  0  0  0
  2  3  2  0  0  0  0
  3  4  1  0  0  0  0
  4  5  1  0  0  0  0
  4  6  1  0  0  0  0
  5 25  1  0  0  0  0
  5 26  1  0  0  0  0
  5 27  1  0  0  0  0
  6  7  1  0  0  0  0
  6  8  2  0  0  0  0
  7 28  1  0  0  0  0
  7 29  1  0  0  0  0
  7 30  1  0  0  0  0
  8  9  1  0  0  0  0
  9 10  1  0  0  0  0
  9 31  1  0  0  0  0
  9 32  1  0  0  0  0
 10 11  2  0  0  0  0
 10 12  1  0  0  0  0
 12 13  1  0  0  0  0
 12 33  1  0  0  0  0
 13 14  1  0  0  0  0
 13 34  1  0  0  0  0
 13 35  1  0  0  0  0
 14 15  1  0  0  0  0
 14 36  1  0  0  0  0
 14 37  1  0  0  0  0
 15 21  1  0  0  0  0
 15 16  1  0  0  0  0
 15 50  1  0  0  0  0
 16 17  1  0  0  0  0
 16 38  1  0  0  0  0
 16 39  1  0  0  0  0
 17 18  1  0  0  0  0
 17 40  1  0  0  0  0
 17 41  1  0  0  0  0
 18 19  1  0  0  0  0
 18 42  1  0  0  0  0
 18 43  1  0  0  0  0
 19 20  1  0  0  0  0
 19 21  1  0  0  0  0
 19 44  1  0  0  0  0
 20 45  1  0  0  0  0
 20 46  1  0  0  0  0
 20 47  1  0  0  0  0
 21 48  1  0  0  0  0
 21 49  1  0  0  0  0
M  CHG  1  15   1
M  END
> <s_m_source_file>
AV-unprocessed.smi

> <i_m_source_file_index>
565

> <i_lp_mmshare_version>
43012

> <i_f3d_flags>
0

> <s_epik_input>
W0NIM11jMW5uKFtDSDNdKWMoW0NIM10pYzFbQ0gyXUMoPU8pW05IXVtDSDJdW0NIMl1OMltDSDJdW0NIMl1bQ0gyXVtDQEBIXShbQ0gzXSlbQ0gyXTI=

> <s_epik_cmdline>
J2VwaWtfcHl0aG9uJywgJy1waCcsICc3LjAnLCAnLXRuJywgJzgnLCAnLW1hJywgJzIwMCcsICctbWV0YWxfYmluZGluZycsICctaW1hZScsICc8aW5maWxlLm1hZT4nLCAnLW9tYWUnLCAnPG91dGZpbGUubWFlPic=

> <r_lp_tautomer_probability>
1

> <r_epik_Ionization_Penalty>
0.00411138

> <r_epik_Ionization_Penalty_Charging>
0.0019503

> <r_epik_Ionization_Penalty_Neutral>
0.00216107

> <r_epik_State_Penalty>
-0

> <r_epik_Charging_Adjusted_Penalty>
0.0019503

> <i_epik_Tot_Q>
1

> <i_epik_Tot_abs_Q>
1

> <r_epik_Metal_State_Penalty>
-0

> <b_epik_Metal_Only>
0

> <s_lp_Force_Field>
OPLS_2005

> <r_lp_Energy>
10.3148

> <b_lp_Chiralities_Consistent>
1

> <s_lp_Variant>
AV-unprocessed.smi:565-1

> <Gold.Version>
5.8.1

> <Gold.Id.Protein>
6NUR|6NUR_protein|mol2

> <Gold.PLP.Fitness>
44.9900

> <Gold.PLP.PLP>
-35.1252

> <Gold.PLP.part.hbond>
-4.0000

> <Gold.PLP.part.metal>
0.0000

> <Gold.PLP.part.buried>
-3.4025

> <Gold.PLP.part.nonpolar>
-27.7879

> <Gold.PLP.part.repulsive>
0.1104

> <Gold.PLP.ligand.clash>
0.0000

> <Gold.PLP.ligand.torsion>
0.5977

> <Gold.PLP.Chemscore.Hbond>
3.6775

> <Gold.PLP.Chemscore.CHOScore>
0.0000

> <Gold.PLP.Chemscore.Metal>
0.0000

> <Gold.Chemscore.Hbonds>
donor molecule, donor type, donor heavy atom, donor atom, acceptor molecule, acceptor atom, score
      L1  H    12    33       P1  7949  0.89
      L1  H    15    50       P1  7948  2.00
      P1  H  7997  8008       L1     3  0.75

> <Gold.PLP.Chemscore.Internal.Correction>
0.0277

> <Gold.Rescore>
     Score         DG    S(hbond)    S(metal)    S(lipo)     H(rot)  DE(clash)    DE(int)     intcor
     15.16     -15.84       1.34        0.00      85.66       1.61       0.12       0.56       ----

> <Gold.Chemscore.Fitness>
15.1582

> <Gold.Chemscore.DG>
-15.8367

> <Gold.Chemscore.ZeroCoef>
-5.4800

> <Gold.Chemscore.Hbond>
1.3373

> <Gold.Chemscore.Metal>
0.0000

> <Gold.Chemscore.Lipo>
85.6622

> <Gold.Chemscore.Internal_Hbond>
0.0000

> <Gold.Chemscore.DEClash>
0.1157

> <Gold.Chemscore.DEInternal>
0.5628

> <Gold.Chemscore.Rot>
1.6142

> <Gold.Chemscore.Internal.Correction>
   9.000000E+99

> <Gold.Chemscore.Hbonds>
donor molecule, donor type, donor heavy atom, donor atom, acceptor molecule, acceptor atom, score
      L1  H    12    33       P1  7949  0.16
      L1  H    15    50       P1  7948  0.93
      P1  H  7997  8008       L1     3  0.07

> <Gold.Chemscore.Hbond.Weighted>
-4.4667

> <Gold.Chemscore.Metal.Weighted>
-0.0000

> <Gold.Chemscore.Lipo.Weighted>
-10.0225

> <Gold.Chemscore.Internal_Hbond.Weighted>
0.0000

> <Gold.Chemscore.DEClash.Weighted>
0.1157

> <Gold.Chemscore.DEInternal.Weighted>
0.5628

> <Gold.Chemscore.Rot.Weighted>
4.1324

> <Gold.Chemscore.Internal.Correction.Weighted>
   9.000000E+99

> <Gold.Protein.RotatedTorsions>
[ 6907 6896 6895 6894 ] final   26.71 input  -60.11 | X-H torsion
[ 7974 7965 7964 7962 ] final -179.92 input  175.53 | X-H torsion
[ 8008 7997 7996 7995 ] final  -87.93 input   59.86 | X-H torsion
[ 10167 10162 10161 10158 ] final -129.88 input  -65.29 | X-H torsion
[ 10718 10713 10712 10709 ] final -102.87 input   66.30 | X-H torsion
[ 10763 10752 10751 10750 ] final  -76.90 input  -60.55 | X-H torsion
[ 11005 11000 10999 10996 ] final   75.04 input  -57.11 | X-H torsion

> <Gold.Protein.ActiveResidues>
 VAL166  LYS551  ARG553  GLY616  TRP617  ASP618  TYR619  PRO620  LYS621  CYS622 
 ASP623  PHE694  ASN695  SER759  ASP760  ASP761  ALA762  ILE779  LEU786  VAL792 
 PHE793  MET794  SER795  GLU796  ALA797  LYS798  CYS799  TRP800  GLU811  SER814 

> <Gold.Protein.RotatedAtoms>
  151.9915  134.9977  160.0561 H   0  0  0  0  0  0  0  0  0  0  0  0  # atno 6907 bound_to 6896
  152.1604  133.4573  159.4866 H   0  0  0  0  0  0  0  0  0  0  0  0  # atno 6908 bound_to 6896
  150.6887  134.1996  159.4360 H   0  0  0  0  0  0  0  0  0  0  0  0  # atno 6909 bound_to 6896
  144.7140  140.0645  143.6431 H   0  0  0  0  0  0  0  0  0  0  0  0  # atno 7974 bound_to 7965
  154.6690  140.0559  157.0145 H   0  0  0  0  0  0  0  0  0  0  0  0  # atno 8008 bound_to 7997
  155.1117  140.3239  155.4501 H   0  0  0  0  0  0  0  0  0  0  0  0  # atno 8009 bound_to 7997
  156.2649  140.2013  156.6241 H   0  0  0  0  0  0  0  0  0  0  0  0  # atno 8010 bound_to 7997
  139.9351  143.6227  152.2519 H   0  0  0  0  0  0  0  0  0  0  0  0  # atno 10167 bound_to 10162
  156.0244  130.5440  150.7170 H   0  0  0  0  0  0  0  0  0  0  0  0  # atno 10718 bound_to 10713
  154.5060  135.5782  153.6567 H   0  0  0  0  0  0  0  0  0  0  0  0  # atno 10763 bound_to 10752
  152.9887  135.6147  154.2941 H   0  0  0  0  0  0  0  0  0  0  0  0  # atno 10764 bound_to 10752
  154.2852  135.2850  155.2659 H   0  0  0  0  0  0  0  0  0  0  0  0  # atno 10765 bound_to 10752
  139.9362  134.7484  156.1222 H   0  0  0  0  0  0  0  0  0  0  0  0  # atno 11005 bound_to 11000
  145.9836  139.2960  143.1027 LP  0  0  0  0  0  0  0  0  0  0  0  0  # atno 17320 bound_to 7965
  145.8983  140.9259  143.0516 LP  0  0  0  0  0  0  0  0  0  0  0  0  # atno 17321 bound_to 7965
  139.6750  144.7659  151.1713 LP  0  0  0  0  0  0  0  0  0  0  0  0  # atno 17342 bound_to 10162
  140.7626  143.5808  150.8896 LP  0  0  0  0  0  0  0  0  0  0  0  0  # atno 17343 bound_to 10162
  157.4795  131.0901  151.0552 LP  0  0  0  0  0  0  0  0  0  0  0  0  # atno 17370 bound_to 10713
  157.0990  130.5973  149.5456 LP  0  0  0  0  0  0  0  0  0  0  0  0  # atno 17371 bound_to 10713
  141.0977  133.6689  156.2682 LP  0  0  0  0  0  0  0  0  0  0  0  0  # atno 17394 bound_to 11000
  140.6070  134.5497  157.5527 LP  0  0  0  0  0  0  0  0  0  0  0  0  # atno 17395 bound_to 11000

$$$$
