AV-unprocessed.smi:2143|AV-procd|sdf|8723|dock1
  -GOLD-   2272011493D 1   1.00000     0.00000
 Structure written by MMmdl.
 44 45  0  0  0  0  0  0  0  0  1 V2000
  152.1732  145.8683  159.7789 C   0  0  0  0  0  0  0  0  0  0  0  0
  152.2612  144.4932  159.0961 C   0  0  1  0  0  0  0  0  0  0  0  0
  152.3895  143.3519  160.1253 C   0  0  0  0  0  0  0  0  0  0  0  0
  152.5809  141.9920  159.4356 C   0  0  0  0  0  0  0  0  0  0  0  0
  151.4613  141.7111  158.4224 C   0  0  0  0  0  0  0  0  0  0  0  0
  151.3391  142.8523  157.3945 C   0  0  1  0  0  0  0  0  0  0  0  0
  150.2879  142.5374  156.4299 N   0  0  0  0  0  0  0  0  0  0  0  0
  150.2320  141.4306  155.6742 C   0  0  0  0  0  0  0  0  0  0  0  0
  151.0620  140.5230  155.7404 O   0  0  0  0  0  0  0  0  0  0  0  0
  149.0449  141.3353  154.7070 C   0  0  0  0  0  0  0  0  0  0  0  0
  147.7983  141.8549  155.2839 N   0  0  0  0  0  0  0  0  0  0  0  0
  147.4050  141.4485  156.5462 C   0  0  0  0  0  0  0  0  0  0  0  0
  146.2739  141.8768  157.1479 C   0  0  0  0  0  0  0  0  0  0  0  0
  145.3796  142.8127  156.4779 C   0  0  0  0  0  0  0  0  0  0  0  0
  144.3491  143.2482  156.9936 O   0  0  0  0  0  0  0  0  0  0  0  0
  145.7944  143.1984  155.1818 N   0  0  0  0  0  0  0  0  0  0  0  0
  144.9546  144.1391  154.4691 C   0  0  0  0  0  0  0  0  0  0  0  0
  146.9895  142.7621  154.5645 C   0  0  0  0  0  0  0  0  0  0  0  0
  147.3323  143.1513  153.4452 O   0  0  0  0  0  0  0  0  0  0  0  0
  151.1134  144.2261  158.0860 C   0  0  1  0  0  0  0  0  0  0  0  0
  149.7017  144.3752  158.7008 C   0  0  0  0  0  0  0  0  0  0  0  0
  151.3325  145.9250  160.4704 H   0  0  0  0  0  0  0  0  0  0  0  0
  152.0609  146.6665  159.0447 H   0  0  0  0  0  0  0  0  0  0  0  0
  153.0774  146.0748  160.3518 H   0  0  0  0  0  0  0  0  0  0  0  0
  153.1874  144.5042  158.5193 H   0  0  0  0  0  0  0  0  0  0  0  0
  153.2358  143.5422  160.7862 H   0  0  0  0  0  0  0  0  0  0  0  0
  151.5070  143.3199  160.7648 H   0  0  0  0  0  0  0  0  0  0  0  0
  153.5442  141.9769  158.9244 H   0  0  0  0  0  0  0  0  0  0  0  0
  152.6158  141.1978  160.1819 H   0  0  0  0  0  0  0  0  0  0  0  0
  151.6653  140.7697  157.9107 H   0  0  0  0  0  0  0  0  0  0  0  0
  150.5164  141.5731  158.9494 H   0  0  0  0  0  0  0  0  0  0  0  0
  152.2855  142.8963  156.8517 H   0  0  0  0  0  0  0  0  0  0  0  0
  149.5588  143.2262  156.3128 H   0  0  0  0  0  0  0  0  0  0  0  0
  149.2989  141.8886  153.8020 H   0  0  0  0  0  0  0  0  0  0  0  0
  148.9044  140.3002  154.3901 H   0  0  0  0  0  0  0  0  0  0  0  0
  148.0331  140.7522  157.0825 H   0  0  0  0  0  0  0  0  0  0  0  0
  146.0275  141.5231  158.1382 H   0  0  0  0  0  0  0  0  0  0  0  0
  145.1235  144.0588  153.3950 H   0  0  0  0  0  0  0  0  0  0  0  0
  145.2101  145.1335  154.8375 H   0  0  0  0  0  0  0  0  0  0  0  0
  143.9089  143.8961  154.6649 H   0  0  0  0  0  0  0  0  0  0  0  0
  151.1888  144.9920  157.3125 H   0  0  0  0  0  0  0  0  0  0  0  0
  149.5295  143.6667  159.5101 H   0  0  0  0  0  0  0  0  0  0  0  0
  148.9210  144.2189  157.9563 H   0  0  0  0  0  0  0  0  0  0  0  0
  149.5439  145.3764  159.1003 H   0  0  0  0  0  0  0  0  0  0  0  0
  1  2  1  0  0  0  0
  1 22  1  0  0  0  0
  1 23  1  0  0  0  0
  1 24  1  0  0  0  0
  2 20  1  0  0  0  0
  2  3  1  0  0  0  0
  2 25  1  0  0  0  0
  3  4  1  0  0  0  0
  3 26  1  0  0  0  0
  3 27  1  0  0  0  0
  4  5  1  0  0  0  0
  4 28  1  0  0  0  0
  4 29  1  0  0  0  0
  5  6  1  0  0  0  0
  5 30  1  0  0  0  0
  5 31  1  0  0  0  0
  6  7  1  0  0  0  0
  6 20  1  0  0  0  0
  6 32  1  0  0  0  0
  7  8  1  0  0  0  0
  7 33  1  0  0  0  0
  8  9  2  0  0  0  0
  8 10  1  0  0  0  0
 10 11  1  0  0  0  0
 10 34  1  0  0  0  0
 10 35  1  0  0  0  0
 11 18  1  0  0  0  0
 11 12  1  0  0  0  0
 12 13  2  0  0  0  0
 12 36  1  0  0  0  0
 13 14  1  0  0  0  0
 13 37  1  0  0  0  0
 14 15  2  0  0  0  0
 14 16  1  0  0  0  0
 16 17  1  0  0  0  0
 16 18  1  0  0  0  0
 17 38  1  0  0  0  0
 17 39  1  0  0  0  0
 17 40  1  0  0  0  0
 18 19  2  0  0  0  0
 20 21  1  0  0  0  0
 20 41  1  0  0  0  0
 21 42  1  0  0  0  0
 21 43  1  0  0  0  0
 21 44  1  0  0  0  0
M  END
> <s_m_source_file>
AV-unprocessed.smi

> <i_m_source_file_index>
2143

> <i_lp_mmshare_version>
43012

> <i_f3d_flags>
0

> <s_epik_input>
W0NIM11bQ0BASF0xW0NIMl1bQ0gyXVtDSDJdW0NASF0oW0NASF0xW0NIM10pW05IXUMoPU8pW0NIMl1uMltjSF1bY0hdYyg9TyluKFtDSDNdKWMyPU8=

> <s_epik_cmdline>
J2VwaWtfcHl0aG9uJywgJy1waCcsICc3LjAnLCAnLXRuJywgJzgnLCAnLW1hJywgJzIwMCcsICctbWV0YWxfYmluZGluZycsICctaW1hZScsICc8aW5maWxlLm1hZT4nLCAnLW9tYWUnLCAnPG91dGZpbGUubWFlPic=

> <r_lp_tautomer_probability>
1

> <r_epik_Ionization_Penalty>
3.18445e-08

> <r_epik_Ionization_Penalty_Charging>
1.27977e-08

> <r_epik_Ionization_Penalty_Neutral>
1.90469e-08

> <r_epik_State_Penalty>
-0

> <r_epik_Charging_Adjusted_Penalty>
1.27977e-08

> <i_epik_Tot_Q>
0

> <i_epik_Tot_abs_Q>
0

> <r_epik_Metal_State_Penalty>
-0

> <b_epik_Metal_Only>
0

> <s_lp_Force_Field>
OPLS_2005

> <r_lp_Energy>
21.6223

> <b_lp_Chiralities_Consistent>
1

> <s_lp_Variant>
AV-unprocessed.smi:2143-2

> <Gold.Version>
5.8.1

> <Gold.Id.Protein>
6NUR|6NUR_protein|mol2

> <Gold.PLP.Fitness>
45.7375

> <Gold.PLP.PLP>
-41.3743

> <Gold.PLP.part.hbond>
-3.0000

> <Gold.PLP.part.metal>
0.0000

> <Gold.PLP.part.buried>
-2.0524

> <Gold.PLP.part.nonpolar>
-36.2186

> <Gold.PLP.part.repulsive>
0.6378

> <Gold.PLP.ligand.clash>
0.0000

> <Gold.PLP.ligand.torsion>
0.4245

> <Gold.PLP.Chemscore.Hbond>
1.7302

> <Gold.PLP.Chemscore.CHOScore>
0.0000

> <Gold.PLP.Chemscore.Metal>
0.0000

> <Gold.Chemscore.Hbonds>
donor molecule, donor type, donor heavy atom, donor atom, acceptor molecule, acceptor atom, score
      L1  H     7    33       P1  8028  1.00
      P1  H  7989  7998       L1     9  0.11
      P1  H  8022  8030       L1    19  0.37

> <Gold.PLP.Chemscore.Internal.Correction>
0.0215

> <Gold.Rescore>
     Score         DG    S(hbond)    S(metal)    S(lipo)     H(rot)  DE(clash)    DE(int)     intcor
     15.58     -16.79       1.30        0.00      92.66       1.51       0.14       1.07       ----

> <Gold.Chemscore.Fitness>
15.5768

> <Gold.Chemscore.DG>
-16.7863

> <Gold.Chemscore.ZeroCoef>
-5.4800

> <Gold.Chemscore.Hbond>
1.2991

> <Gold.Chemscore.Metal>
0.0000

> <Gold.Chemscore.Lipo>
92.6551

> <Gold.Chemscore.Internal_Hbond>
0.0000

> <Gold.Chemscore.DEClash>
0.1415

> <Gold.Chemscore.DEInternal>
1.0680

> <Gold.Chemscore.Rot>
1.5131

> <Gold.Chemscore.Internal.Correction>
   9.000000E+99

> <Gold.Chemscore.Hbonds>
donor molecule, donor type, donor heavy atom, donor atom, acceptor molecule, acceptor atom, score
      L1  H     7    33       P1  8028  0.98
      P1  H  8022  8030       L1    19  0.26

> <Gold.Chemscore.Hbond.Weighted>
-4.3391

> <Gold.Chemscore.Metal.Weighted>
-0.0000

> <Gold.Chemscore.Lipo.Weighted>
-10.8406

> <Gold.Chemscore.Internal_Hbond.Weighted>
0.0000

> <Gold.Chemscore.DEClash.Weighted>
0.1415

> <Gold.Chemscore.DEInternal.Weighted>
1.0680

> <Gold.Chemscore.Rot.Weighted>
3.8734

> <Gold.Chemscore.Internal.Correction.Weighted>
   9.000000E+99

> <Gold.Protein.RotatedTorsions>
[ 6907 6896 6895 6894 ] final  -59.47 input  -60.11 | X-H torsion
[ 7974 7965 7964 7962 ] final  123.28 input  175.53 | X-H torsion
[ 8008 7997 7996 7995 ] final  -11.63 input   59.86 | X-H torsion
[ 10167 10162 10161 10158 ] final   15.31 input  -65.29 | X-H torsion
[ 10718 10713 10712 10709 ] final -118.96 input   66.30 | X-H torsion
[ 10763 10752 10751 10750 ] final -154.23 input  -60.55 | X-H torsion
[ 11005 11000 10999 10996 ] final -139.17 input  -57.11 | X-H torsion

> <Gold.Protein.ActiveResidues>
 VAL166  LYS551  ARG553  GLY616  TRP617  ASP618  TYR619  PRO620  LYS621  CYS622 
 ASP623  PHE694  ASN695  SER759  ASP760  ASP761  ALA762  ILE779  LEU786  VAL792 
 PHE793  MET794  SER795  GLU796  ALA797  LYS798  CYS799  TRP800  GLU811  SER814 

> <Gold.Protein.RotatedAtoms>
  150.7928  134.6965  159.6525 H   0  0  0  0  0  0  0  0  0  0  0  0  # atno 6907 bound_to 6896
  152.4036  134.6241  160.0068 H   0  0  0  0  0  0  0  0  0  0  0  0  # atno 6908 bound_to 6896
  151.6505  133.3284  159.3187 H   0  0  0  0  0  0  0  0  0  0  0  0  # atno 6909 bound_to 6896
  145.0978  139.3540  143.4827 H   0  0  0  0  0  0  0  0  0  0  0  0  # atno 7974 bound_to 7965
  154.5448  140.2297  155.8582 H   0  0  0  0  0  0  0  0  0  0  0  0  # atno 8008 bound_to 7997
  156.1892  140.3081  155.9260 H   0  0  0  0  0  0  0  0  0  0  0  0  # atno 8009 bound_to 7997
  155.3187  140.0439  157.3029 H   0  0  0  0  0  0  0  0  0  0  0  0  # atno 8010 bound_to 7997
  140.5876  143.8858  150.6844 H   0  0  0  0  0  0  0  0  0  0  0  0  # atno 10167 bound_to 10162
  156.1145  130.6275  150.9357 H   0  0  0  0  0  0  0  0  0  0  0  0  # atno 10718 bound_to 10713
  154.7873  135.3194  154.7858 H   0  0  0  0  0  0  0  0  0  0  0  0  # atno 10763 bound_to 10752
  153.8555  135.6858  153.4792 H   0  0  0  0  0  0  0  0  0  0  0  0  # atno 10764 bound_to 10752
  153.1529  135.4692  154.9602 H   0  0  0  0  0  0  0  0  0  0  0  0  # atno 10765 bound_to 10752
  140.8545  134.2244  157.4742 H   0  0  0  0  0  0  0  0  0  0  0  0  # atno 11005 bound_to 11000
  146.3530  140.0841  142.8616 LP  0  0  0  0  0  0  0  0  0  0  0  0  # atno 17320 bound_to 7965
  145.0991  140.9334  143.4723 LP  0  0  0  0  0  0  0  0  0  0  0  0  # atno 17321 bound_to 7965
  140.2373  143.3690  152.1516 LP  0  0  0  0  0  0  0  0  0  0  0  0  # atno 17342 bound_to 10162
  139.5207  144.7037  151.5419 LP  0  0  0  0  0  0  0  0  0  0  0  0  # atno 17343 bound_to 10162
  157.6328  131.0919  150.8408 LP  0  0  0  0  0  0  0  0  0  0  0  0  # atno 17370 bound_to 10713
  156.8513  130.5081  149.5311 LP  0  0  0  0  0  0  0  0  0  0  0  0  # atno 17371 bound_to 10713
  139.8705  134.9700  156.4685 LP  0  0  0  0  0  0  0  0  0  0  0  0  # atno 17394 bound_to 11000
  140.8752  133.7958  155.9407 LP  0  0  0  0  0  0  0  0  0  0  0  0  # atno 17395 bound_to 11000

$$$$
