AV-unprocessed.smi:1987|AV-procd|sdf|8057|dock1
  -GOLD-   2272010263D 1   1.00000     0.00000
 Structure written by MMmdl.
 37 39  0  0  0  0  0  0  0  0  2 V2000
  151.7109  138.6167  158.6573 O   0  0  0  0  0  0  0  0  0  0  0  0
  151.0810  138.2653  157.6605 C   0  0  0  0  0  0  0  0  0  0  0  0
  150.1652  137.0439  157.7212 C   0  0  0  0  0  0  0  0  0  0  0  0
  149.3599  137.0883  158.9280 N   0  0  0  0  0  0  0  0  0  0  0  0
  148.0691  137.3744  159.1104 C   0  0  0  0  0  0  0  0  0  0  0  0
  147.7145  137.2435  160.3797 N   0  0  0  0  0  0  0  0  0  0  0  0
  148.8911  136.8551  160.9976 N   0  0  0  0  0  0  0  0  0  0  0  0
  149.8708  136.7602  160.1414 N   0  0  0  0  0  0  0  0  0  0  0  0
  151.1023  138.9317  156.4961 N   0  0  0  0  0  0  0  0  0  0  0  0
  151.7256  140.2319  156.2826 C   0  0  0  0  0  0  0  0  0  0  0  0
  150.8097  141.3805  156.7526 C   0  0  1  0  0  0  0  0  0  0  0  0
  150.3926  141.2969  158.2192 C   0  0  0  0  0  0  0  0  0  0  0  0
  150.0086  142.7372  158.5865 C   0  0  0  0  0  0  0  0  0  0  0  0
  150.5994  143.6170  157.5506 N   0  3  1  0  0  0  0  0  0  0  0  0
  151.2970  144.8063  158.0829 C   0  0  0  0  0  0  0  0  0  0  0  0
  152.7940  144.6358  158.1778 C   0  0  0  0  0  0  0  0  0  0  0  0
  151.9428  144.5733  159.4279 C   0  0  0  0  0  0  0  0  0  0  0  0
  151.4358  142.7739  156.6749 C   0  0  0  0  0  0  0  0  0  0  0  0
  149.5132  137.0118  156.8466 H   0  0  0  0  0  0  0  0  0  0  0  0
  150.7562  136.1271  157.7231 H   0  0  0  0  0  0  0  0  0  0  0  0
  147.3917  137.6589  158.3184 H   0  0  0  0  0  0  0  0  0  0  0  0
  150.5678  138.5527  155.7272 H   0  0  0  0  0  0  0  0  0  0  0  0
  152.6882  140.2756  156.7943 H   0  0  0  0  0  0  0  0  0  0  0  0
  151.9349  140.3293  155.2169 H   0  0  0  0  0  0  0  0  0  0  0  0
  149.9023  141.3841  156.1462 H   0  0  0  0  0  0  0  0  0  0  0  0
  149.5797  140.5896  158.3855 H   0  0  0  0  0  0  0  0  0  0  0  0
  151.2384  140.9799  158.8309 H   0  0  0  0  0  0  0  0  0  0  0  0
  148.9261  142.8679  158.5729 H   0  0  0  0  0  0  0  0  0  0  0  0
  150.3582  142.9881  159.5892 H   0  0  0  0  0  0  0  0  0  0  0  0
  150.8626  145.7747  157.8401 H   0  0  0  0  0  0  0  0  0  0  0  0
  153.2307  143.7052  157.8196 H   0  0  0  0  0  0  0  0  0  0  0  0
  153.4102  145.5219  158.0390 H   0  0  0  0  0  0  0  0  0  0  0  0
  151.9978  145.4181  160.1114 H   0  0  0  0  0  0  0  0  0  0  0  0
  151.8135  143.6011  159.9006 H   0  0  0  0  0  0  0  0  0  0  0  0
  152.4585  142.7455  157.0558 H   0  0  0  0  0  0  0  0  0  0  0  0
  151.4648  143.1675  155.6580 H   0  0  0  0  0  0  0  0  0  0  0  0
  149.8297  143.9437  156.9841 H   0  0  0  0  0  0  0  0  0  0  0  0
  1  2  2  0  0  0  0
  2  3  1  0  0  0  0
  2  9  1  0  0  0  0
  3  4  1  0  0  0  0
  3 19  1  0  0  0  0
  3 20  1  0  0  0  0
  4  8  1  0  0  0  0
  4  5  1  0  0  0  0
  5  6  2  0  0  0  0
  5 21  1  0  0  0  0
  6  7  1  0  0  0  0
  7  8  2  0  0  0  0
  9 10  1  0  0  0  0
  9 22  1  0  0  0  0
 10 11  1  0  0  0  0
 10 23  1  0  0  0  0
 10 24  1  0  0  0  0
 11 18  1  0  0  0  0
 11 12  1  0  0  0  0
 11 25  1  0  0  0  0
 12 13  1  0  0  0  0
 12 26  1  0  0  0  0
 12 27  1  0  0  0  0
 13 14  1  0  0  0  0
 13 28  1  0  0  0  0
 13 29  1  0  0  0  0
 14 15  1  0  0  0  0
 14 18  1  0  0  0  0
 14 37  1  0  0  0  0
 15 17  1  0  0  0  0
 15 16  1  0  0  0  0
 15 30  1  0  0  0  0
 16 17  1  0  0  0  0
 16 31  1  0  0  0  0
 16 32  1  0  0  0  0
 17 33  1  0  0  0  0
 17 34  1  0  0  0  0
 18 35  1  0  0  0  0
 18 36  1  0  0  0  0
M  CHG  1  14   1
M  END
> <s_m_source_file>
AV-unprocessed.smi

> <i_m_source_file_index>
1987

> <i_lp_mmshare_version>
43012

> <i_f3d_flags>
0

> <s_epik_input>
bjFubltjSF1uMVtDSDJdQyg9TylbTkhdW0NIMl1bQ0BASF0yW0NIMl1bQ0gyXU4oW0NIMl0yKVtDSF0zW0NIMl1bQ0gyXTM=

> <s_epik_cmdline>
J2VwaWtfcHl0aG9uJywgJy1waCcsICc3LjAnLCAnLXRuJywgJzgnLCAnLW1hJywgJzIwMCcsICctbWV0YWxfYmluZGluZycsICctaW1hZScsICc8aW5maWxlLm1hZT4nLCAnLW9tYWUnLCAnPG91dGZpbGUubWFlPic=

> <r_lp_tautomer_probability>
1

> <r_epik_Ionization_Penalty>
0.000242849

> <r_epik_Ionization_Penalty_Charging>
0.000241326

> <r_epik_Ionization_Penalty_Neutral>
1.52322e-06

> <r_epik_State_Penalty>
-0

> <r_epik_Charging_Adjusted_Penalty>
0.000241326

> <i_epik_Tot_Q>
1

> <i_epik_Tot_abs_Q>
1

> <r_epik_Metal_State_Penalty>
-0

> <b_epik_Metal_Only>
0

> <s_lp_Force_Field>
OPLS_2005

> <r_lp_Energy>
37.5901

> <b_lp_Chiralities_Consistent>
1

> <s_lp_Variant>
AV-unprocessed.smi:1987-4

> <Gold.Version>
5.8.1

> <Gold.Id.Protein>
6NUR|6NUR_protein|mol2

> <Gold.PLP.Fitness>
42.3376

> <Gold.PLP.PLP>
-30.0575

> <Gold.PLP.part.hbond>
-4.5112

> <Gold.PLP.part.metal>
0.0000

> <Gold.PLP.part.buried>
-5.9483

> <Gold.PLP.part.nonpolar>
-20.8203

> <Gold.PLP.part.repulsive>
0.0529

> <Gold.PLP.ligand.clash>
0.0000

> <Gold.PLP.ligand.torsion>
1.3900

> <Gold.PLP.Chemscore.Hbond>
4.5858

> <Gold.PLP.Chemscore.CHOScore>
0.0000

> <Gold.PLP.Chemscore.Metal>
0.0000

> <Gold.Chemscore.Hbonds>
donor molecule, donor type, donor heavy atom, donor atom, acceptor molecule, acceptor atom, score
      L1  H    14    37       P1  8028  2.00
      P1  H  6896  6908       L1     8  0.56
      P1  H  6931  6943       L1     7  0.79
      P1  H  6934  6947       L1     6  0.90

> <Gold.PLP.Chemscore.Internal.Correction>
1.3028

> <Gold.Rescore>
     Score         DG    S(hbond)    S(metal)    S(lipo)     H(rot)  DE(clash)    DE(int)     intcor
     10.72     -13.75       1.78        0.00      77.36       2.62       1.52       1.51       ----

> <Gold.Chemscore.Fitness>
10.7233

> <Gold.Chemscore.DG>
-13.7547

> <Gold.Chemscore.ZeroCoef>
-5.4800

> <Gold.Chemscore.Hbond>
1.7792

> <Gold.Chemscore.Metal>
0.0000

> <Gold.Chemscore.Lipo>
77.3562

> <Gold.Chemscore.Internal_Hbond>
0.0000

> <Gold.Chemscore.DEClash>
1.5203

> <Gold.Chemscore.DEInternal>
1.5110

> <Gold.Chemscore.Rot>
2.6244

> <Gold.Chemscore.Internal.Correction>
   9.000000E+99

> <Gold.Chemscore.Hbonds>
donor molecule, donor type, donor heavy atom, donor atom, acceptor molecule, acceptor atom, score
      L1  H    14    37       P1  8028  0.90
      P1  H  6896  6908       L1     8  0.16
      P1  H  6931  6943       L1     7  0.08
      P1  H  6934  6947       L1     6  0.31

> <Gold.Chemscore.Hbond.Weighted>
-5.9425

> <Gold.Chemscore.Metal.Weighted>
-0.0000

> <Gold.Chemscore.Lipo.Weighted>
-9.0507

> <Gold.Chemscore.Internal_Hbond.Weighted>
0.0000

> <Gold.Chemscore.DEClash.Weighted>
1.5203

> <Gold.Chemscore.DEInternal.Weighted>
1.5110

> <Gold.Chemscore.Rot.Weighted>
6.7186

> <Gold.Chemscore.Internal.Correction.Weighted>
   9.000000E+99

> <Gold.Protein.RotatedTorsions>
[ 6907 6896 6895 6894 ] final -174.15 input  -60.11 | X-H torsion
[ 7974 7965 7964 7962 ] final  141.50 input  175.53 | X-H torsion
[ 8008 7997 7996 7995 ] final   30.40 input   59.86 | X-H torsion
[ 10167 10162 10161 10158 ] final   37.64 input  -65.29 | X-H torsion
[ 10718 10713 10712 10709 ] final  163.59 input   66.30 | X-H torsion
[ 10763 10752 10751 10750 ] final -130.72 input  -60.55 | X-H torsion
[ 11005 11000 10999 10996 ] final  -28.67 input  -57.11 | X-H torsion

> <Gold.Protein.ActiveResidues>
 VAL166  LYS551  ARG553  GLY616  TRP617  ASP618  TYR619  PRO620  LYS621  CYS622 
 ASP623  PHE694  ASN695  SER759  ASP760  ASP761  ALA762  ILE779  LEU786  VAL792 
 PHE793  MET794  SER795  GLU796  ALA797  LYS798  CYS799  TRP800  GLU811  SER814 

> <Gold.Protein.RotatedAtoms>
  151.5677  133.3394  159.2983 H   0  0  0  0  0  0  0  0  0  0  0  0  # atno 6907 bound_to 6896
  150.8385  134.7671  159.6924 H   0  0  0  0  0  0  0  0  0  0  0  0  # atno 6908 bound_to 6896
  152.4457  134.5506  159.9917 H   0  0  0  0  0  0  0  0  0  0  0  0  # atno 6909 bound_to 6896
  144.9091  139.5318  143.5717 H   0  0  0  0  0  0  0  0  0  0  0  0  # atno 7974 bound_to 7965
  155.0898  140.3219  155.4577 H   0  0  0  0  0  0  0  0  0  0  0  0  # atno 8008 bound_to 7997
  156.2745  140.2080  156.5972 H   0  0  0  0  0  0  0  0  0  0  0  0  # atno 8009 bound_to 7997
  154.6912  140.0516  157.0352 H   0  0  0  0  0  0  0  0  0  0  0  0  # atno 8010 bound_to 7997
  140.4013  144.1720  150.6134 H   0  0  0  0  0  0  0  0  0  0  0  0  # atno 10167 bound_to 10162
  157.1063  131.0456  151.2476 H   0  0  0  0  0  0  0  0  0  0  0  0  # atno 10718 bound_to 10713
  154.8754  135.3853  154.4129 H   0  0  0  0  0  0  0  0  0  0  0  0  # atno 10763 bound_to 10752
  153.4841  135.7030  153.5926 H   0  0  0  0  0  0  0  0  0  0  0  0  # atno 10764 bound_to 10752
  153.4329  135.3874  155.2149 H   0  0  0  0  0  0  0  0  0  0  0  0  # atno 10765 bound_to 10752
  140.9229  133.7387  156.0827 H   0  0  0  0  0  0  0  0  0  0  0  0  # atno 11005 bound_to 11000
  146.3149  139.7882  142.8991 LP  0  0  0  0  0  0  0  0  0  0  0  0  # atno 17320 bound_to 7965
  145.3485  141.0302  143.3352 LP  0  0  0  0  0  0  0  0  0  0  0  0  # atno 17321 bound_to 7965
  140.4737  143.2404  151.9053 LP  0  0  0  0  0  0  0  0  0  0  0  0  # atno 17342 bound_to 10162
  139.4784  144.5343  151.8621 LP  0  0  0  0  0  0  0  0  0  0  0  0  # atno 17343 bound_to 10162
  157.4598  130.7646  149.7225 LP  0  0  0  0  0  0  0  0  0  0  0  0  # atno 17370 bound_to 10713
  155.9861  130.3977  150.3228 LP  0  0  0  0  0  0  0  0  0  0  0  0  # atno 17371 bound_to 10713
  140.7964  134.3559  157.5451 LP  0  0  0  0  0  0  0  0  0  0  0  0  # atno 17394 bound_to 11000
  139.8779  134.9171  156.3171 LP  0  0  0  0  0  0  0  0  0  0  0  0  # atno 17395 bound_to 11000

$$$$
