AV-unprocessed.smi:366|AV-procd|sdf|2429|dock2
  -GOLD-   2262022373D 1   1.00000     0.00000
 Structure written by MMmdl.
 50 51  0  0  0  0  0  0  0  0  1 V2000
  145.8133  136.8512  153.1145 C   0  0  0  0  0  0  0  0  0  0  0  0
  146.5871  136.3992  154.3481 C   0  0  0  0  0  0  0  0  0  0  0  0
  146.1498  136.6368  155.4737 O   0  0  0  0  0  0  0  0  0  0  0  0
  147.7394  135.7490  154.1208 N   0  0  0  0  0  0  0  0  0  0  0  0
  148.6457  135.2401  155.1526 C   0  0  2  0  0  0  0  0  0  0  0  0
  149.9956  135.9732  155.0259 C   0  0  0  0  0  0  0  0  0  0  0  0
  151.0292  135.4586  155.4563 O   0  0  0  0  0  0  0  0  0  0  0  0
  149.9613  137.1825  154.4447 N   0  0  0  0  0  0  0  0  0  0  0  0
  151.1117  138.0503  154.2133 C   0  0  0  0  0  0  0  0  0  0  0  0
  151.2575  139.1469  155.2556 C   0  0  0  0  0  0  0  0  0  0  0  0
  150.3743  140.2444  155.2728 C   0  0  0  0  0  0  0  0  0  0  0  0
  150.5458  141.2454  156.2477 C   0  0  0  0  0  0  0  0  0  0  0  0
  151.6021  141.1260  157.1820 C   0  0  0  0  0  0  0  0  0  0  0  0
  151.7942  142.1200  158.1659 N   0  0  0  0  0  0  0  0  0  0  0  0
  152.8026  141.8776  159.1961 C   0  0  0  0  0  0  0  0  0  0  0  0
  152.6735  142.9127  160.3260 C   0  0  0  0  0  0  0  0  0  0  0  0
  152.7490  144.2263  159.7828 O   0  0  0  0  0  0  0  0  0  0  0  0
  151.6919  144.4802  158.8636 C   0  0  0  0  0  0  0  0  0  0  0  0
  151.7802  143.4986  157.6823 C   0  0  0  0  0  0  0  0  0  0  0  0
  152.4482  140.0663  157.1635 N   0  0  0  0  0  0  0  0  0  0  0  0
  152.2812  139.1113  156.2249 C   0  0  0  0  0  0  0  0  0  0  0  0
  148.8445  133.7101  154.9393 C   0  0  0  0  0  0  0  0  0  0  0  0
  149.7194  133.0839  156.0432 C   0  0  0  0  0  0  0  0  0  0  0  0
  149.4514  133.3671  153.5629 C   0  0  0  0  0  0  0  0  0  0  0  0
  146.3255  137.6834  152.6313 H   0  0  0  0  0  0  0  0  0  0  0  0
  144.8089  137.1777  153.3853 H   0  0  0  0  0  0  0  0  0  0  0  0
  145.7238  136.0358  152.3964 H   0  0  0  0  0  0  0  0  0  0  0  0
  148.0210  135.6067  153.1618 H   0  0  0  0  0  0  0  0  0  0  0  0
  148.2145  135.4157  156.1406 H   0  0  0  0  0  0  0  0  0  0  0  0
  149.0660  137.5244  154.1261 H   0  0  0  0  0  0  0  0  0  0  0  0
  152.0379  137.4747  154.1755 H   0  0  0  0  0  0  0  0  0  0  0  0
  150.9949  138.4987  153.2263 H   0  0  0  0  0  0  0  0  0  0  0  0
  149.5721  140.3213  154.5538 H   0  0  0  0  0  0  0  0  0  0  0  0
  149.8615  142.0802  156.2759 H   0  0  0  0  0  0  0  0  0  0  0  0
  152.6861  140.8750  159.6100 H   0  0  0  0  0  0  0  0  0  0  0  0
  153.7966  141.9341  158.7500 H   0  0  0  0  0  0  0  0  0  0  0  0
  151.7342  142.7837  160.8665 H   0  0  0  0  0  0  0  0  0  0  0  0
  153.4778  142.7801  161.0498 H   0  0  0  0  0  0  0  0  0  0  0  0
  150.7283  144.3955  159.3683 H   0  0  0  0  0  0  0  0  0  0  0  0
  151.7735  145.5062  158.5048 H   0  0  0  0  0  0  0  0  0  0  0  0
  152.6934  143.6804  157.1144 H   0  0  0  0  0  0  0  0  0  0  0  0
  150.9459  143.6820  157.0068 H   0  0  0  0  0  0  0  0  0  0  0  0
  152.9911  138.2982  156.2503 H   0  0  0  0  0  0  0  0  0  0  0  0
  147.8690  133.2230  154.9925 H   0  0  0  0  0  0  0  0  0  0  0  0
  150.7050  133.5492  156.0771 H   0  0  0  0  0  0  0  0  0  0  0  0
  149.8633  132.0167  155.8721 H   0  0  0  0  0  0  0  0  0  0  0  0
  149.2688  133.1866  157.0303 H   0  0  0  0  0  0  0  0  0  0  0  0
  150.4086  133.8686  153.4179 H   0  0  0  0  0  0  0  0  0  0  0  0
  148.7967  133.6541  152.7408 H   0  0  0  0  0  0  0  0  0  0  0  0
  149.6224  132.2946  153.4661 H   0  0  0  0  0  0  0  0  0  0  0  0
  1  2  1  0  0  0  0
  1 25  1  0  0  0  0
  1 26  1  0  0  0  0
  1 27  1  0  0  0  0
  2  3  2  0  0  0  0
  2  4  1  0  0  0  0
  4  5  1  0  0  0  0
  4 28  1  0  0  0  0
  5  6  1  0  0  0  0
  5 22  1  0  0  0  0
  5 29  1  0  0  0  0
  6  7  2  0  0  0  0
  6  8  1  0  0  0  0
  8  9  1  0  0  0  0
  8 30  1  0  0  0  0
  9 10  1  0  0  0  0
  9 31  1  0  0  0  0
  9 32  1  0  0  0  0
 10 21  1  0  0  0  0
 10 11  2  0  0  0  0
 11 12  1  0  0  0  0
 11 33  1  0  0  0  0
 12 13  2  0  0  0  0
 12 34  1  0  0  0  0
 13 14  1  0  0  0  0
 13 20  1  0  0  0  0
 14 19  1  0  0  0  0
 14 15  1  0  0  0  0
 15 16  1  0  0  0  0
 15 35  1  0  0  0  0
 15 36  1  0  0  0  0
 16 17  1  0  0  0  0
 16 37  1  0  0  0  0
 16 38  1  0  0  0  0
 17 18  1  0  0  0  0
 18 19  1  0  0  0  0
 18 39  1  0  0  0  0
 18 40  1  0  0  0  0
 19 41  1  0  0  0  0
 19 42  1  0  0  0  0
 20 21  2  0  0  0  0
 21 43  1  0  0  0  0
 22 23  1  0  0  0  0
 22 24  1  0  0  0  0
 22 44  1  0  0  0  0
 23 45  1  0  0  0  0
 23 46  1  0  0  0  0
 23 47  1  0  0  0  0
 24 48  1  0  0  0  0
 24 49  1  0  0  0  0
 24 50  1  0  0  0  0
M  END
> <s_m_source_file>
AV-unprocessed.smi

> <i_m_source_file_index>
366

> <i_lp_mmshare_version>
43012

> <i_f3d_flags>
0

> <s_epik_input>
W0NIM11DKD1PKVtOSF1bQ0BASF0oW0NIXShbQ0gzXSlbQ0gzXSlDKD1PKVtOSF1bQ0gyXWMxW2NIXVtjSF1jKG5bY0hdMSlOMltDSDJdW0NIMl1PW0NIMl1bQ0gyXTI=

> <s_epik_cmdline>
J2VwaWtfcHl0aG9uJywgJy1waCcsICc3LjAnLCAnLXRuJywgJzgnLCAnLW1hJywgJzIwMCcsICctbWV0YWxfYmluZGluZycsICctaW1hZScsICc8aW5maWxlLm1hZT4nLCAnLW9tYWUnLCAnPG91dGZpbGUubWFlPic=

> <r_lp_tautomer_probability>
1

> <r_epik_Ionization_Penalty>
0.00485188

> <r_epik_Ionization_Penalty_Charging>
0

> <r_epik_Ionization_Penalty_Neutral>
0.00485188

> <r_epik_State_Penalty>
0.00351951

> <r_epik_Charging_Adjusted_Penalty>
0.00351951

> <i_epik_Tot_Q>
0

> <i_epik_Tot_abs_Q>
0

> <r_epik_Metal_State_Penalty>
-0

> <b_epik_Metal_Only>
0

> <s_lp_Force_Field>
OPLS_2005

> <r_lp_Energy>
18.3337

> <b_lp_Chiralities_Consistent>
1

> <s_lp_Variant>
AV-unprocessed.smi:366-1

> <Gold.Version>
5.8.1

> <Gold.Id.Protein>
6NUR|6NUR_protein|mol2

> <Gold.PLP.Fitness>
47.6306

> <Gold.PLP.PLP>
-42.4321

> <Gold.PLP.part.hbond>
-4.0000

> <Gold.PLP.part.metal>
0.0000

> <Gold.PLP.part.buried>
-3.7938

> <Gold.PLP.part.nonpolar>
-33.8130

> <Gold.PLP.part.repulsive>
0.1791

> <Gold.PLP.ligand.clash>
0.0000

> <Gold.PLP.ligand.torsion>
1.1465

> <Gold.PLP.Chemscore.Hbond>
2.3643

> <Gold.PLP.Chemscore.CHOScore>
0.0000

> <Gold.PLP.Chemscore.Metal>
0.0000

> <Gold.Chemscore.Hbonds>
donor molecule, donor type, donor heavy atom, donor atom, acceptor molecule, acceptor atom, score
      L1  H     4    28       P1  7948  0.91
      P1  H  7997  8008       L1    20  0.40
      P1  H 10752 10763       L1     7  0.88

> <Gold.PLP.Chemscore.Internal.Correction>
0.3987

> <Gold.Rescore>
     Score         DG    S(hbond)    S(metal)    S(lipo)     H(rot)  DE(clash)    DE(int)     intcor
     16.09     -18.74       1.95        0.00     105.30       2.18       0.17       2.48       ----

> <Gold.Chemscore.Fitness>
16.0911

> <Gold.Chemscore.DG>
-18.7407

> <Gold.Chemscore.ZeroCoef>
-5.4800

> <Gold.Chemscore.Hbond>
1.9535

> <Gold.Chemscore.Metal>
0.0000

> <Gold.Chemscore.Lipo>
105.2997

> <Gold.Chemscore.Internal_Hbond>
0.0000

> <Gold.Chemscore.DEClash>
0.1734

> <Gold.Chemscore.DEInternal>
2.4762

> <Gold.Chemscore.Rot>
2.1813

> <Gold.Chemscore.Internal.Correction>
   9.000000E+99

> <Gold.Chemscore.Hbonds>
donor molecule, donor type, donor heavy atom, donor atom, acceptor molecule, acceptor atom, score
      L1  H     4    28       P1  7948  0.90
      P1  H  7997  8008       L1    20  0.03
      P1  H 10752 10763       L1     7  0.83

> <Gold.Chemscore.Hbond.Weighted>
-6.5249

> <Gold.Chemscore.Metal.Weighted>
-0.0000

> <Gold.Chemscore.Lipo.Weighted>
-12.3201

> <Gold.Chemscore.Internal_Hbond.Weighted>
0.0000

> <Gold.Chemscore.DEClash.Weighted>
0.1734

> <Gold.Chemscore.DEInternal.Weighted>
2.4762

> <Gold.Chemscore.Rot.Weighted>
5.5842

> <Gold.Chemscore.Internal.Correction.Weighted>
   9.000000E+99

> <Gold.Protein.RotatedTorsions>
[ 6907 6896 6895 6894 ] final -159.06 input  -60.11 | X-H torsion
[ 7974 7965 7964 7962 ] final   87.12 input  175.53 | X-H torsion
[ 8008 7997 7996 7995 ] final  -83.64 input   59.86 | X-H torsion
[ 10167 10162 10161 10158 ] final  -29.16 input  -65.29 | X-H torsion
[ 10718 10713 10712 10709 ] final  168.46 input   66.30 | X-H torsion
[ 10763 10752 10751 10750 ] final   79.97 input  -60.55 | X-H torsion
[ 11005 11000 10999 10996 ] final  138.06 input  -57.11 | X-H torsion

> <Gold.Protein.ActiveResidues>
 VAL166  LYS551  ARG553  GLY616  TRP617  ASP618  TYR619  PRO620  LYS621  CYS622 
 ASP623  PHE694  ASN695  SER759  ASP760  ASP761  ALA762  ILE779  LEU786  VAL792 
 PHE793  MET794  SER795  GLU796  ALA797  LYS798  CYS799  TRP800  GLU811  SER814 

> <Gold.Protein.RotatedAtoms>
  151.3278  133.4013  159.2659 H   0  0  0  0  0  0  0  0  0  0  0  0  # atno 6907 bound_to 6896
  150.9981  134.9300  159.7948 H   0  0  0  0  0  0  0  0  0  0  0  0  # atno 6908 bound_to 6896
  152.5267  134.3243  159.9212 H   0  0  0  0  0  0  0  0  0  0  0  0  # atno 6909 bound_to 6896
  145.5632  139.2306  143.2448 H   0  0  0  0  0  0  0  0  0  0  0  0  # atno 7974 bound_to 7965
  154.6213  140.0616  156.9618 H   0  0  0  0  0  0  0  0  0  0  0  0  # atno 8008 bound_to 7997
  155.1814  140.3299  155.4356 H   0  0  0  0  0  0  0  0  0  0  0  0  # atno 8009 bound_to 7997
  156.2433  140.1897  156.6910 H   0  0  0  0  0  0  0  0  0  0  0  0  # atno 8010 bound_to 7997
  140.7263  143.3951  151.1361 H   0  0  0  0  0  0  0  0  0  0  0  0  # atno 10167 bound_to 10162
  157.0367  131.0275  151.2727 H   0  0  0  0  0  0  0  0  0  0  0  0  # atno 10718 bound_to 10713
  153.0995  135.4820  154.8841 H   0  0  0  0  0  0  0  0  0  0  0  0  # atno 10763 bound_to 10752
  154.7363  135.3071  154.8809 H   0  0  0  0  0  0  0  0  0  0  0  0  # atno 10764 bound_to 10752
  153.9430  135.6832  153.4797 H   0  0  0  0  0  0  0  0  0  0  0  0  # atno 10765 bound_to 10752
  140.0157  134.9419  157.0371 H   0  0  0  0  0  0  0  0  0  0  0  0  # atno 11005 bound_to 11000
  146.1836  140.6457  142.9177 LP  0  0  0  0  0  0  0  0  0  0  0  0  # atno 17320 bound_to 7965
  144.7473  140.5100  143.6827 LP  0  0  0  0  0  0  0  0  0  0  0  0  # atno 17321 bound_to 7965
  139.7563  143.8703  152.3089 LP  0  0  0  0  0  0  0  0  0  0  0  0  # atno 17342 bound_to 10162
  139.8574  144.7134  150.9141 LP  0  0  0  0  0  0  0  0  0  0  0  0  # atno 17343 bound_to 10162
  157.5136  130.7954  149.7731 LP  0  0  0  0  0  0  0  0  0  0  0  0  # atno 17370 bound_to 10713
  156.0051  130.3859  150.2460 LP  0  0  0  0  0  0  0  0  0  0  0  0  # atno 17371 bound_to 10713
  140.4475  134.1617  155.7178 LP  0  0  0  0  0  0  0  0  0  0  0  0  # atno 17394 bound_to 11000
  141.1741  133.8549  157.1478 LP  0  0  0  0  0  0  0  0  0  0  0  0  # atno 17395 bound_to 11000

$$$$
