AV-unprocessed.smi:3254|AV-procd|sdf|12456|dock1
  -GOLD-   2272018353D 1   1.00000     0.00000
 Structure written by MMmdl.
 36 37  0  0  0  0  0  0  0  0  1 V2000
  149.6839  141.5082  154.9224 C   0  0  0  0  0  0  0  0  0  0  0  0
  150.4275  140.7011  155.9954 C   0  0  0  0  0  0  0  0  0  0  0  0
  151.0303  139.4912  155.4414 N   0  0  0  0  0  0  0  0  0  0  0  0
  150.2595  138.6023  154.5884 C   0  0  0  0  0  0  0  0  0  0  0  0
  151.1470  137.3570  154.3720 C   0  0  2  0  0  0  0  0  0  0  0  0
  150.5900  136.1142  155.0840 C   0  0  0  0  0  0  0  0  0  0  0  0
  150.9085  135.8718  156.2488 O   0  0  0  0  0  0  0  0  0  0  0  0
  149.7550  135.3400  154.3743 N   0  0  0  0  0  0  0  0  0  0  0  0
  149.1175  134.1263  154.8702 C   0  0  0  0  0  0  0  0  0  0  0  0
  149.2983  132.9522  153.8938 C   0  0  0  0  0  0  0  0  0  0  0  0
  148.0742  132.6683  153.1734 N   0  0  0  0  0  0  0  0  0  0  0  0
  147.3571  131.4792  153.1787 C   0  0  0  0  0  0  0  0  0  0  0  0
  146.2728  131.6713  152.3521 C   0  0  0  0  0  0  0  0  0  0  0  0
  146.3038  132.9624  151.8302 N   0  0  0  0  0  0  0  0  0  0  0  0
  147.3981  133.4924  152.3614 C   0  0  0  0  0  0  0  0  0  0  0  0
  152.5330  137.7512  154.9204 C   0  0  0  0  0  0  0  0  0  0  0  0
  152.2854  139.0703  155.6327 C   0  0  0  0  0  0  0  0  0  0  0  0
  153.1487  139.6404  156.2981 O   0  0  0  0  0  0  0  0  0  0  0  0
  149.2200  142.3935  155.3575 H   0  0  0  0  0  0  0  0  0  0  0  0
  148.8958  140.9138  154.4591 H   0  0  0  0  0  0  0  0  0  0  0  0
  150.3592  141.8433  154.1349 H   0  0  0  0  0  0  0  0  0  0  0  0
  151.2030  141.3154  156.4552 H   0  0  0  0  0  0  0  0  0  0  0  0
  149.7364  140.4312  156.7946 H   0  0  0  0  0  0  0  0  0  0  0  0
  149.2983  138.3660  155.0487 H   0  0  0  0  0  0  0  0  0  0  0  0
  150.0554  139.1016  153.6404 H   0  0  0  0  0  0  0  0  0  0  0  0
  151.2236  137.1489  153.3033 H   0  0  0  0  0  0  0  0  0  0  0  0
  149.5466  135.6105  153.4240 H   0  0  0  0  0  0  0  0  0  0  0  0
  149.5631  133.8804  155.8345 H   0  0  0  0  0  0  0  0  0  0  0  0
  148.0581  134.3120  155.0559 H   0  0  0  0  0  0  0  0  0  0  0  0
  150.0801  133.1700  153.1652 H   0  0  0  0  0  0  0  0  0  0  0  0
  149.6056  132.0532  154.4298 H   0  0  0  0  0  0  0  0  0  0  0  0
  147.6695  130.6191  153.7527 H   0  0  0  0  0  0  0  0  0  0  0  0
  145.4799  130.9845  152.0943 H   0  0  0  0  0  0  0  0  0  0  0  0
  147.7161  134.5035  152.1534 H   0  0  0  0  0  0  0  0  0  0  0  0
  152.9591  137.0196  155.6091 H   0  0  0  0  0  0  0  0  0  0  0  0
  153.2462  137.9051  154.1101 H   0  0  0  0  0  0  0  0  0  0  0  0
  1  2  1  0  0  0  0
  1 19  1  0  0  0  0
  1 20  1  0  0  0  0
  1 21  1  0  0  0  0
  2  3  1  0  0  0  0
  2 22  1  0  0  0  0
  2 23  1  0  0  0  0
  3 17  1  0  0  0  0
  3  4  1  0  0  0  0
  4  5  1  0  0  0  0
  4 24  1  0  0  0  0
  4 25  1  0  0  0  0
  5  6  1  0  0  0  0
  5 16  1  0  0  0  0
  5 26  1  0  0  0  0
  6  7  2  0  0  0  0
  6  8  1  0  0  0  0
  8  9  1  0  0  0  0
  8 27  1  0  0  0  0
  9 10  1  0  0  0  0
  9 28  1  0  0  0  0
  9 29  1  0  0  0  0
 10 11  1  0  0  0  0
 10 30  1  0  0  0  0
 10 31  1  0  0  0  0
 11 15  1  0  0  0  0
 11 12  1  0  0  0  0
 12 13  2  0  0  0  0
 12 32  1  0  0  0  0
 13 14  1  0  0  0  0
 13 33  1  0  0  0  0
 14 15  2  0  0  0  0
 15 34  1  0  0  0  0
 16 17  1  0  0  0  0
 16 35  1  0  0  0  0
 16 36  1  0  0  0  0
 17 18  2  0  0  0  0
M  END
> <s_m_source_file>
AV-unprocessed.smi

> <i_m_source_file_index>
3254

> <i_lp_mmshare_version>
43012

> <i_f3d_flags>
0

> <s_epik_input>
W0NIM11bQ0gyXU4xW0NIMl1bQ0BIXShbQ0gyXUMxPU8pQyg9TylbTkhdW0NIMl1bQ0gyXW4yW2NIXVtjSF1uW2NIXTI=

> <s_epik_cmdline>
J2VwaWtfcHl0aG9uJywgJy1waCcsICc3LjAnLCAnLXRuJywgJzgnLCAnLW1hJywgJzIwMCcsICctbWV0YWxfYmluZGluZycsICctaW1hZScsICc8aW5maWxlLm1hZT4nLCAnLW9tYWUnLCAnPG91dGZpbGUubWFlPic=

> <r_lp_tautomer_probability>
1

> <r_epik_Ionization_Penalty>
0.587394

> <r_epik_Ionization_Penalty_Charging>
0.587394

> <r_epik_Ionization_Penalty_Neutral>
3.11583e-08

> <r_epik_State_Penalty>
0.600671

> <r_epik_Charging_Adjusted_Penalty>
1.18807

> <i_epik_Tot_Q>
0

> <i_epik_Tot_abs_Q>
0

> <r_epik_Metal_State_Penalty>
0.297665

> <b_epik_Metal_Only>
0

> <s_lp_Force_Field>
OPLS_2005

> <r_lp_Energy>
13.3235

> <b_lp_Chiralities_Consistent>
1

> <s_lp_Variant>
AV-unprocessed.smi:3254-4

> <Gold.Version>
5.8.1

> <Gold.Id.Protein>
6NUR|6NUR_protein|mol2

> <Gold.PLP.Fitness>
41.6688

> <Gold.PLP.PLP>
-35.0774

> <Gold.PLP.part.hbond>
-2.0000

> <Gold.PLP.part.metal>
0.0000

> <Gold.PLP.part.buried>
-1.6851

> <Gold.PLP.part.nonpolar>
-32.3806

> <Gold.PLP.part.repulsive>
0.1904

> <Gold.PLP.ligand.clash>
0.0000

> <Gold.PLP.ligand.torsion>
1.2495

> <Gold.PLP.Chemscore.Hbond>
2.0000

> <Gold.PLP.Chemscore.CHOScore>
0.9936

> <Gold.PLP.Chemscore.Metal>
0.0000

> <Gold.Chemscore.Hbonds>
donor molecule, donor type, donor heavy atom, donor atom, acceptor molecule, acceptor atom, score
      L1  H     8    27       P1  7948  0.80
      P1  H  7997  8010       L1    18  0.50
      L1  C    15    34       P1  7948  1.00

> <Gold.PLP.Chemscore.Internal.Correction>
0.1096

> <Gold.Rescore>
     Score         DG    S(hbond)    S(metal)    S(lipo)     H(rot)  DE(clash)    DE(int)     intcor
     10.99     -12.37       1.67        0.00      59.21       2.20       0.63       0.75       ----

> <Gold.Chemscore.Fitness>
10.9899

> <Gold.Chemscore.DG>
-12.3717

> <Gold.Chemscore.ZeroCoef>
-5.4800

> <Gold.Chemscore.Hbond>
1.6717

> <Gold.Chemscore.Metal>
0.0000

> <Gold.Chemscore.Lipo>
59.2136

> <Gold.Chemscore.Internal_Hbond>
0.0000

> <Gold.Chemscore.DEClash>
0.6318

> <Gold.Chemscore.DEInternal>
0.7501

> <Gold.Chemscore.Rot>
2.1952

> <Gold.Chemscore.Internal.Correction>
   9.000000E+99

> <Gold.Chemscore.Hbonds>
donor molecule, donor type, donor heavy atom, donor atom, acceptor molecule, acceptor atom, score
      L1  H     8    27       P1  7948  0.12
      P1  H  7997  8010       L1    18  0.49

> <Gold.Chemscore.Hbond.Weighted>
-5.5834

> <Gold.Chemscore.Metal.Weighted>
-0.0000

> <Gold.Chemscore.Lipo.Weighted>
-6.9280

> <Gold.Chemscore.Internal_Hbond.Weighted>
0.0000

> <Gold.Chemscore.DEClash.Weighted>
0.6318

> <Gold.Chemscore.DEInternal.Weighted>
0.7501

> <Gold.Chemscore.Rot.Weighted>
5.6197

> <Gold.Chemscore.Internal.Correction.Weighted>
   9.000000E+99

> <Gold.Protein.RotatedTorsions>
[ 6907 6896 6895 6894 ] final  168.28 input  -60.11 | X-H torsion
[ 7974 7965 7964 7962 ] final -158.39 input  175.53 | X-H torsion
[ 8008 7997 7996 7995 ] final   90.63 input   59.86 | X-H torsion
[ 10167 10162 10161 10158 ] final -122.96 input  -65.29 | X-H torsion
[ 10718 10713 10712 10709 ] final   80.31 input   66.30 | X-H torsion
[ 10763 10752 10751 10750 ] final  -92.95 input  -60.55 | X-H torsion
[ 11005 11000 10999 10996 ] final    1.40 input  -57.11 | X-H torsion

> <Gold.Protein.ActiveResidues>
 VAL166  LYS551  ARG553  GLY616  TRP617  ASP618  TYR619  PRO620  LYS621  CYS622 
 ASP623  PHE694  ASN695  SER759  ASP760  ASP761  ALA762  ILE779  LEU786  VAL792 
 PHE793  MET794  SER795  GLU796  ALA797  LYS798  CYS799  TRP800  GLU811  SER814 

> <Gold.Protein.RotatedAtoms>
  151.8501  133.3438  159.3670 H   0  0  0  0  0  0  0  0  0  0  0  0  # atno 6907 bound_to 6896
  150.7209  134.5307  159.5708 H   0  0  0  0  0  0  0  0  0  0  0  0  # atno 6908 bound_to 6896
  152.2799  134.7840  160.0449 H   0  0  0  0  0  0  0  0  0  0  0  0  # atno 6909 bound_to 6896
  144.7508  140.3834  143.6050 H   0  0  0  0  0  0  0  0  0  0  0  0  # atno 7974 bound_to 7965
  156.0142  140.3347  155.6972 H   0  0  0  0  0  0  0  0  0  0  0  0  # atno 8008 bound_to 7997
  155.6114  140.0665  157.2722 H   0  0  0  0  0  0  0  0  0  0  0  0  # atno 8009 bound_to 7997
  154.4292  140.1793  156.1264 H   0  0  0  0  0  0  0  0  0  0  0  0  # atno 8010 bound_to 7997
  140.0087  143.5465  152.2272 H   0  0  0  0  0  0  0  0  0  0  0  0  # atno 10167 bound_to 10162
  157.6802  130.9954  150.2061 H   0  0  0  0  0  0  0  0  0  0  0  0  # atno 10718 bound_to 10713
  154.6912  135.5212  153.8394 H   0  0  0  0  0  0  0  0  0  0  0  0  # atno 10763 bound_to 10752
  153.0633  135.6576  154.0421 H   0  0  0  0  0  0  0  0  0  0  0  0  # atno 10764 bound_to 10752
  154.0295  135.2986  155.3350 H   0  0  0  0  0  0  0  0  0  0  0  0  # atno 10765 bound_to 10752
  140.6159  133.9706  155.8200 H   0  0  0  0  0  0  0  0  0  0  0  0  # atno 11005 bound_to 11000
  145.6953  139.1648  143.2623 LP  0  0  0  0  0  0  0  0  0  0  0  0  # atno 17320 bound_to 7965
  146.1454  140.7000  142.9347 LP  0  0  0  0  0  0  0  0  0  0  0  0  # atno 17321 bound_to 7965
  139.6220  144.7631  151.2719 LP  0  0  0  0  0  0  0  0  0  0  0  0  # atno 17342 bound_to 10162
  140.7390  143.6631  150.8147 LP  0  0  0  0  0  0  0  0  0  0  0  0  # atno 17343 bound_to 10162
  156.2741  130.3725  149.8001 LP  0  0  0  0  0  0  0  0  0  0  0  0  # atno 17370 bound_to 10713
  156.5709  130.8424  151.3356 LP  0  0  0  0  0  0  0  0  0  0  0  0  # atno 17371 bound_to 10713
  141.0776  134.0111  157.3434 LP  0  0  0  0  0  0  0  0  0  0  0  0  # atno 17394 bound_to 11000
  139.9173  135.0198  156.7931 LP  0  0  0  0  0  0  0  0  0  0  0  0  # atno 17395 bound_to 11000

$$$$
