AV-unprocessed.smi:69|AV-procd|sdf|653|dock5
  -GOLD-   2262016553D 1   1.00000     0.00000
 Structure written by MMmdl.
 32 34  0  0  0  0  0  0  0  0  1 V2000
  152.6246  142.7133  161.8902 N   0  0  0  0  0  0  0  0  0  0  0  0
  152.7536  142.0196  160.7508 C   0  0  0  0  0  0  0  0  0  0  0  0
  153.7262  141.0813  160.6766 N   0  0  0  0  0  0  0  0  0  0  0  0
  153.8749  140.3765  159.5505 C   0  0  0  0  0  0  0  0  0  0  0  0
  153.1734  140.4560  158.4170 N   0  0  0  0  0  0  0  0  0  0  0  0
  152.1924  141.4024  158.4921 C   0  0  0  0  0  0  0  0  0  0  0  0
  151.9208  142.2239  159.6215 C   0  0  0  0  0  0  0  0  0  0  0  0
  150.8584  143.0731  159.3455 N   0  0  0  0  0  0  0  0  0  0  0  0
  150.5244  142.7684  158.1204 C   0  0  0  0  0  0  0  0  0  0  0  0
  151.2761  141.7769  157.5276 N   0  0  0  0  0  0  0  0  0  0  0  0
  151.1187  141.2309  156.1389 C   0  0  2  0  0  0  0  0  0  0  0  0
  150.0692  141.8894  155.4942 O   0  0  0  0  0  0  0  0  0  0  0  0
  149.0491  140.9658  155.1180 C   0  0  1  0  0  0  0  0  0  0  0  0
  148.3192  141.4380  153.8483 C   0  0  0  0  0  0  0  0  0  0  0  0
  147.6415  140.3557  153.2468 O   0  0  0  0  0  0  0  0  0  0  0  0
  149.7850  139.6234  155.0001 C   0  0  1  0  0  0  0  0  0  0  0  0
  150.4152  139.4886  153.7385 O   0  0  0  0  0  0  0  0  0  0  0  0
  150.8270  139.7167  156.1032 C   0  0  2  0  0  0  0  0  0  0  0  0
  150.3162  139.1976  157.3187 O   0  0  0  0  0  0  0  0  0  0  0  0
  152.0497  141.4895  155.6326 H   0  0  0  0  0  0  0  0  0  0  0  0
  148.3368  140.8777  155.9393 H   0  0  0  0  0  0  0  0  0  0  0  0
  149.1107  138.7759  155.1317 H   0  0  0  0  0  0  0  0  0  0  0  0
  151.7409  139.1717  155.8632 H   0  0  0  0  0  0  0  0  0  0  0  0
  151.9072  143.4195  161.9698 H   0  0  0  0  0  0  0  0  0  0  0  0
  153.2424  142.5259  162.6663 H   0  0  0  0  0  0  0  0  0  0  0  0
  154.6693  139.6451  159.5575 H   0  0  0  0  0  0  0  0  0  0  0  0
  149.7131  143.2656  157.6091 H   0  0  0  0  0  0  0  0  0  0  0  0
  147.6204  142.2460  154.0675 H   0  0  0  0  0  0  0  0  0  0  0  0
  149.0382  141.8157  153.1206 H   0  0  0  0  0  0  0  0  0  0  0  0
  148.0036  140.2149  152.3854 H   0  0  0  0  0  0  0  0  0  0  0  0
  149.7788  139.6707  153.0642 H   0  0  0  0  0  0  0  0  0  0  0  0
  151.0435  138.9152  157.8521 H   0  0  0  0  0  0  0  0  0  0  0  0
  1  2  1  0  0  0  0
  1 24  1  0  0  0  0
  1 25  1  0  0  0  0
  2  7  1  0  0  0  0
  2  3  2  0  0  0  0
  3  4  1  0  0  0  0
  4  5  2  0  0  0  0
  4 26  1  0  0  0  0
  5  6  1  0  0  0  0
  6 10  1  0  0  0  0
  6  7  2  0  0  0  0
  7  8  1  0  0  0  0
  8  9  2  0  0  0  0
  9 10  1  0  0  0  0
  9 27  1  0  0  0  0
 10 11  1  0  0  0  0
 11 20  1  0  0  0  0
 11 18  1  0  0  0  0
 11 12  1  0  0  0  0
 12 13  1  0  0  0  0
 13 21  1  0  0  0  0
 13 14  1  0  0  0  0
 13 16  1  0  0  0  0
 14 15  1  0  0  0  0
 14 28  1  0  0  0  0
 14 29  1  0  0  0  0
 15 30  1  0  0  0  0
 16 22  1  0  0  0  0
 16 17  1  0  0  0  0
 16 18  1  0  0  0  0
 17 31  1  0  0  0  0
 18 23  1  0  0  0  0
 18 19  1  0  0  0  0
 19 32  1  0  0  0  0
M  END
> <s_m_source_file>
AV-unprocessed.smi

> <i_m_source_file_index>
69

> <i_lp_mmshare_version>
43012

> <i_f3d_flags>
0

> <s_epik_input>
bjFbY0hdbmMoW05IMl0pYyhjMTIpbltjSF1uMltDQEBIXTNPW0NASF0oW0NIMl1bT0hdKVtDQEBIXShbT0hdKVtDQEhdM1tPSF0=

> <s_epik_cmdline>
J2VwaWtfcHl0aG9uJywgJy1waCcsICc3LjAnLCAnLXRuJywgJzgnLCAnLW1hJywgJzIwMCcsICctbWV0YWxfYmluZGluZycsICctaW1hZScsICc8aW5maWxlLm1hZT4nLCAnLW9tYWUnLCAnPG91dGZpbGUubWFlPic=

> <r_lp_tautomer_probability>
1

> <r_epik_Ionization_Penalty>
0.000428445

> <r_epik_Ionization_Penalty_Charging>
0

> <r_epik_Ionization_Penalty_Neutral>
0.000428445

> <r_epik_State_Penalty>
-0

> <r_epik_Charging_Adjusted_Penalty>
0

> <i_epik_Tot_Q>
0

> <i_epik_Tot_abs_Q>
0

> <r_epik_Metal_State_Penalty>
-0

> <b_epik_Metal_Only>
0

> <s_epik_Chemistry_Notes>
This compound contains an acetal/aminal-like group ( X-CH(R)-Y where X, Y are N, S, or O) that may be acid/base labile, releasing an aldehyde.

> <s_lp_Force_Field>
OPLS_2005

> <r_lp_Energy>
40.109

> <b_lp_Chiralities_Consistent>
1

> <s_lp_Variant>
AV-unprocessed.smi:69-11

> <Gold.Version>
5.8.1

> <Gold.Id.Protein>
6NUR|6NUR_protein|mol2

> <Gold.PLP.Fitness>
44.5858

> <Gold.PLP.PLP>
-30.9808

> <Gold.PLP.part.hbond>
-4.1558

> <Gold.PLP.part.metal>
0.0000

> <Gold.PLP.part.buried>
-2.1935

> <Gold.PLP.part.nonpolar>
-23.6205

> <Gold.PLP.part.repulsive>
0.4786

> <Gold.PLP.ligand.clash>
0.0000

> <Gold.PLP.ligand.torsion>
0.1584

> <Gold.PLP.Chemscore.Hbond>
3.6400

> <Gold.PLP.Chemscore.CHOScore>
1.0000

> <Gold.PLP.Chemscore.Metal>
0.0000

> <Gold.Chemscore.Hbonds>
donor molecule, donor type, donor heavy atom, donor atom, acceptor molecule, acceptor atom, score
      L1  H    15    30       P1  7957  1.00
      L1  H    17    31       P1  7957  0.83
      P1  H  7989  7998       L1    17  0.96
      P1  H  7997  8010       L1     5  0.82
      L1  C     9    27       P1  8028  0.94

> <Gold.PLP.Chemscore.Internal.Correction>
0.0019

> <Gold.Rescore>
     Score         DG    S(hbond)    S(metal)    S(lipo)     H(rot)  DE(clash)    DE(int)     intcor
      5.50      -6.20       2.09        0.00      34.66       4.03       0.56       0.15       ----

> <Gold.Chemscore.Fitness>
5.5005

> <Gold.Chemscore.DG>
-6.2037

> <Gold.Chemscore.ZeroCoef>
-5.4800

> <Gold.Chemscore.Hbond>
2.0895

> <Gold.Chemscore.Metal>
0.0000

> <Gold.Chemscore.Lipo>
34.6649

> <Gold.Chemscore.Internal_Hbond>
0.0000

> <Gold.Chemscore.DEClash>
0.5563

> <Gold.Chemscore.DEInternal>
0.1469

> <Gold.Chemscore.Rot>
4.0277

> <Gold.Chemscore.Internal.Correction>
   9.000000E+99

> <Gold.Chemscore.Hbonds>
donor molecule, donor type, donor heavy atom, donor atom, acceptor molecule, acceptor atom, score
      L1  H    15    30       P1  7957  0.91
      L1  H    17    31       P1  7957  0.82
      P1  H  7989  7998       L1    17  0.22
      P1  H  7997  8010       L1     5  0.23

> <Gold.Chemscore.Hbond.Weighted>
-6.9789

> <Gold.Chemscore.Metal.Weighted>
-0.0000

> <Gold.Chemscore.Lipo.Weighted>
-4.0558

> <Gold.Chemscore.Internal_Hbond.Weighted>
0.0000

> <Gold.Chemscore.DEClash.Weighted>
0.5563

> <Gold.Chemscore.DEInternal.Weighted>
0.1469

> <Gold.Chemscore.Rot.Weighted>
10.3110

> <Gold.Chemscore.Internal.Correction.Weighted>
   9.000000E+99

> <Gold.Protein.RotatedTorsions>
[ 6907 6896 6895 6894 ] final   12.02 input  -60.11 | X-H torsion
[ 7974 7965 7964 7962 ] final  158.06 input  175.53 | X-H torsion
[ 8008 7997 7996 7995 ] final   33.62 input   59.86 | X-H torsion
[ 10167 10162 10161 10158 ] final -100.88 input  -65.29 | X-H torsion
[ 10718 10713 10712 10709 ] final   26.28 input   66.30 | X-H torsion
[ 10763 10752 10751 10750 ] final  -93.74 input  -60.55 | X-H torsion
[ 11005 11000 10999 10996 ] final  152.30 input  -57.11 | X-H torsion

> <Gold.Protein.ActiveResidues>
 VAL166  LYS551  ARG553  GLY616  TRP617  ASP618  TYR619  PRO620  LYS621  CYS622 
 ASP623  PHE694  ASN695  SER759  ASP760  ASP761  ALA762  ILE779  LEU786  VAL792 
 PHE793  MET794  SER795  GLU796  ALA797  LYS798  CYS799  TRP800  GLU811  SER814 

> <Gold.Protein.RotatedAtoms>
  151.7636  135.0804  160.0349 H   0  0  0  0  0  0  0  0  0  0  0  0  # atno 6907 bound_to 6896
  152.3336  133.5982  159.5835 H   0  0  0  0  0  0  0  0  0  0  0  0  # atno 6908 bound_to 6896
  150.7437  133.9746  159.3598 H   0  0  0  0  0  0  0  0  0  0  0  0  # atno 6909 bound_to 6896
  144.7867  139.7426  143.6238 H   0  0  0  0  0  0  0  0  0  0  0  0  # atno 7974 bound_to 7965
  155.1416  140.3266  155.4451 H   0  0  0  0  0  0  0  0  0  0  0  0  # atno 8008 bound_to 7997
  156.2603  140.1992  156.6481 H   0  0  0  0  0  0  0  0  0  0  0  0  # atno 8009 bound_to 7997
  154.6538  140.0555  156.9972 H   0  0  0  0  0  0  0  0  0  0  0  0  # atno 8010 bound_to 7997
  140.2472  143.3497  152.0748 H   0  0  0  0  0  0  0  0  0  0  0  0  # atno 10167 bound_to 10162
  157.2048  130.6906  149.6203 H   0  0  0  0  0  0  0  0  0  0  0  0  # atno 10718 bound_to 10713
  154.6988  135.5183  153.8497 H   0  0  0  0  0  0  0  0  0  0  0  0  # atno 10763 bound_to 10752
  153.0688  135.6594  154.0303 H   0  0  0  0  0  0  0  0  0  0  0  0  # atno 10764 bound_to 10752
  154.0165  135.2997  155.3366 H   0  0  0  0  0  0  0  0  0  0  0  0  # atno 10765 bound_to 10752
  140.1295  134.8811  157.2184 H   0  0  0  0  0  0  0  0  0  0  0  0  # atno 11005 bound_to 11000
  146.2102  139.5454  142.9686 LP  0  0  0  0  0  0  0  0  0  0  0  0  # atno 17320 bound_to 7965
  145.5902  141.0370  143.2074 LP  0  0  0  0  0  0  0  0  0  0  0  0  # atno 17321 bound_to 7965
  139.5058  144.6801  151.6030 LP  0  0  0  0  0  0  0  0  0  0  0  0  # atno 17342 bound_to 10162
  140.6068  143.9509  150.6424 LP  0  0  0  0  0  0  0  0  0  0  0  0  # atno 17343 bound_to 10162
  155.9696  130.4571  150.5949 LP  0  0  0  0  0  0  0  0  0  0  0  0  # atno 17370 bound_to 10713
  157.3731  131.0769  151.1540 LP  0  0  0  0  0  0  0  0  0  0  0  0  # atno 17371 bound_to 10713
  140.2860  134.3295  155.7329 LP  0  0  0  0  0  0  0  0  0  0  0  0  # atno 17394 bound_to 11000
  141.2167  133.7506  156.9434 LP  0  0  0  0  0  0  0  0  0  0  0  0  # atno 17395 bound_to 11000

$$$$
