AV-unprocessed.smi:1100|AV-procd|sdf|4764|dock2
  -GOLD-   22720 3303D 1   1.00000     0.00000
 Structure written by MMmdl.
 43 44  0  0  0  0  0  0  0  0  3 V2000
  147.1322  139.9621  151.6910 C   0  0  0  0  0  0  0  0  0  0  0  0
  147.1207  139.9011  153.2397 C   0  0  1  0  0  0  0  0  0  0  0  0
  147.4575  141.2473  153.9342 C   0  0  0  0  0  0  0  0  0  0  0  0
  148.8799  141.5569  153.7928 N   0  5  0  0  0  0  0  0  0  0  0  0
  149.8234  141.3084  154.7413 C   0  0  0  0  0  0  0  0  0  0  0  0
  150.5319  140.3007  154.8453 O   0  0  0  0  0  0  0  0  0  0  0  0
  149.9139  142.3160  155.6320 N   0  0  0  0  0  0  0  0  0  0  0  0
  150.7910  142.4908  156.7144 C   0  0  0  0  0  0  0  0  0  0  0  0
  151.3597  141.3036  157.3161 C   0  0  0  0  0  0  0  0  0  0  0  0
  152.1835  141.3845  158.3789 C   0  0  0  0  0  0  0  0  0  0  0  0
  152.5414  142.6743  158.9739 C   0  0  0  0  0  0  0  0  0  0  0  0
  153.2900  142.7635  159.9478 O   0  0  0  0  0  0  0  0  0  0  0  0
  151.9889  143.7709  158.3789 N   0  0  0  0  0  0  0  0  0  0  0  0
  152.2792  145.1077  158.9042 C   0  0  0  0  0  0  0  0  0  0  0  0
  151.1200  143.6758  157.2747 C   0  0  0  0  0  0  0  0  0  0  0  0
  145.8508  139.3312  153.7894 N   0  3  0  0  0  0  0  0  0  0  0  0
  145.5070  137.9420  153.3753 C   0  0  0  0  0  0  0  0  0  0  0  0
  144.1054  137.5725  153.8858 C   0  0  0  0  0  0  0  0  0  0  0  0
  144.0685  137.7022  155.3018 O   0  0  0  0  0  0  0  0  0  0  0  0
  144.3242  139.0369  155.7219 C   0  0  0  0  0  0  0  0  0  0  0  0
  145.7261  139.4715  155.2617 C   0  0  0  0  0  0  0  0  0  0  0  0
  148.1169  140.2282  151.3025 H   0  0  0  0  0  0  0  0  0  0  0  0
  146.4211  140.6873  151.2917 H   0  0  0  0  0  0  0  0  0  0  0  0
  146.8847  138.9909  151.2625 H   0  0  0  0  0  0  0  0  0  0  0  0
  147.9182  139.2150  153.5306 H   0  0  0  0  0  0  0  0  0  0  0  0
  146.8270  142.0337  153.5178 H   0  0  0  0  0  0  0  0  0  0  0  0
  147.1743  141.1701  154.9853 H   0  0  0  0  0  0  0  0  0  0  0  0
  149.2461  143.0623  155.5072 H   0  0  0  0  0  0  0  0  0  0  0  0
  151.1224  140.3321  156.9077 H   0  0  0  0  0  0  0  0  0  0  0  0
  152.5904  140.4786  158.8032 H   0  0  0  0  0  0  0  0  0  0  0  0
  151.8875  145.9037  158.2703 H   0  0  0  0  0  0  0  0  0  0  0  0
  153.3553  145.2676  158.9881 H   0  0  0  0  0  0  0  0  0  0  0  0
  151.8387  145.2287  159.8947 H   0  0  0  0  0  0  0  0  0  0  0  0
  150.7371  144.6284  156.9451 H   0  0  0  0  0  0  0  0  0  0  0  0
  145.5352  137.8444  152.2897 H   0  0  0  0  0  0  0  0  0  0  0  0
  146.2325  137.2358  153.7810 H   0  0  0  0  0  0  0  0  0  0  0  0
  143.3429  138.2044  153.4273 H   0  0  0  0  0  0  0  0  0  0  0  0
  143.8682  136.5423  153.6197 H   0  0  0  0  0  0  0  0  0  0  0  0
  143.5599  139.7068  155.3244 H   0  0  0  0  0  0  0  0  0  0  0  0
  144.2543  139.0847  156.8088 H   0  0  0  0  0  0  0  0  0  0  0  0
  146.4890  138.8679  155.7553 H   0  0  0  0  0  0  0  0  0  0  0  0
  145.8943  140.5078  155.5569 H   0  0  0  0  0  0  0  0  0  0  0  0
  145.1263  139.9225  153.4072 H   0  0  0  0  0  0  0  0  0  0  0  0
  1  2  1  0  0  0  0
  1 22  1  0  0  0  0
  1 23  1  0  0  0  0
  1 24  1  0  0  0  0
  2  3  1  0  0  0  0
  2 16  1  0  0  0  0
  2 25  1  0  0  0  0
  3  4  1  0  0  0  0
  3 26  1  0  0  0  0
  3 27  1  0  0  0  0
  4  5  1  0  0  0  0
  5  6  2  0  0  0  0
  5  7  1  0  0  0  0
  7  8  1  0  0  0  0
  7 28  1  0  0  0  0
  8 15  2  0  0  0  0
  8  9  1  0  0  0  0
  9 10  2  0  0  0  0
  9 29  1  0  0  0  0
 10 11  1  0  0  0  0
 10 30  1  0  0  0  0
 11 12  2  0  0  0  0
 11 13  1  0  0  0  0
 13 14  1  0  0  0  0
 13 15  1  0  0  0  0
 14 31  1  0  0  0  0
 14 32  1  0  0  0  0
 14 33  1  0  0  0  0
 15 34  1  0  0  0  0
 16 21  1  0  0  0  0
 16 17  1  0  0  0  0
 16 43  1  0  0  0  0
 17 18  1  0  0  0  0
 17 35  1  0  0  0  0
 17 36  1  0  0  0  0
 18 19  1  0  0  0  0
 18 37  1  0  0  0  0
 18 38  1  0  0  0  0
 19 20  1  0  0  0  0
 20 21  1  0  0  0  0
 20 39  1  0  0  0  0
 20 40  1  0  0  0  0
 21 41  1  0  0  0  0
 21 42  1  0  0  0  0
M  CHG  1   4  -1
M  CHG  1  16   1
M  END
> <s_m_source_file>
AV-unprocessed.smi

> <i_m_source_file_index>
1100

> <i_lp_mmshare_version>
43012

> <i_f3d_flags>
0

> <s_epik_input>
W0NIMl0xW0NIMl1PW0NIMl1bQ0gyXU4xW0NASF0oW0NIM10pW0NIMl1bTkhdQyg9TylbTkhdYzJbY0hdW2NIXWMoPU8pbihbQ0gzXSlbY0hdMg==

> <s_epik_cmdline>
J2VwaWtfcHl0aG9uJywgJy1waCcsICc3LjAnLCAnLXRuJywgJzgnLCAnLW1hJywgJzIwMCcsICctbWV0YWxfYmluZGluZycsICctaW1hZScsICc8aW5maWxlLm1hZT4nLCAnLW9tYWUnLCAnPG91dGZpbGUubWFlPic=

> <r_lp_tautomer_probability>
1

> <r_epik_Ionization_Penalty>
6.79272

> <r_epik_Ionization_Penalty_Charging>
6.79272

> <r_epik_Ionization_Penalty_Neutral>
3.37009e-06

> <r_epik_State_Penalty>
7.34577

> <r_epik_Charging_Adjusted_Penalty>
14.1385

> <i_epik_Tot_Q>
0

> <i_epik_Tot_abs_Q>
2

> <r_epik_Metal_State_Penalty>
3.26257

> <b_epik_Metal_Only>
1

> <s_lp_Force_Field>
OPLS_2005

> <r_lp_Energy>
32.2868

> <b_lp_Chiralities_Consistent>
1

> <s_lp_Variant>
AV-unprocessed.smi:1100-6

> <Gold.Version>
5.8.1

> <Gold.Id.Protein>
6NUR|6NUR_protein|mol2

> <Gold.PLP.Fitness>
49.4451

> <Gold.PLP.PLP>
-36.1570

> <Gold.PLP.part.hbond>
-4.0000

> <Gold.PLP.part.metal>
0.0000

> <Gold.PLP.part.buried>
0.4640

> <Gold.PLP.part.nonpolar>
-32.9977

> <Gold.PLP.part.repulsive>
0.4457

> <Gold.PLP.ligand.clash>
0.0000

> <Gold.PLP.ligand.torsion>
1.3033

> <Gold.PLP.Chemscore.Hbond>
4.3077

> <Gold.PLP.Chemscore.CHOScore>
0.9279

> <Gold.PLP.Chemscore.Metal>
0.0000

> <Gold.Chemscore.Hbonds>
donor molecule, donor type, donor heavy atom, donor atom, acceptor molecule, acceptor atom, score
      L1  H     7    28       P1  8028  0.98
      L1  H    16    43       P1 10175  2.00
      P1  H  7989  7998       L1     6  0.55
      P1  H  8011  8017       L1     4  0.70
      L1  C    15    34       P1  8028  0.83

> <Gold.PLP.Chemscore.Internal.Correction>
0.1879

> <Gold.Rescore>
     Score         DG    S(hbond)    S(metal)    S(lipo)     H(rot)  DE(clash)    DE(int)     intcor
     15.07     -19.48       2.57        0.00      79.39       1.51       1.60       2.81       ----

> <Gold.Chemscore.Fitness>
15.0679

> <Gold.Chemscore.DG>
-19.4776

> <Gold.Chemscore.ZeroCoef>
-5.4800

> <Gold.Chemscore.Hbond>
2.5694

> <Gold.Chemscore.Metal>
0.0000

> <Gold.Chemscore.Lipo>
79.3885

> <Gold.Chemscore.Internal_Hbond>
0.0000

> <Gold.Chemscore.DEClash>
1.6011

> <Gold.Chemscore.DEInternal>
2.8086

> <Gold.Chemscore.Rot>
1.5128

> <Gold.Chemscore.Internal.Correction>
   9.000000E+99

> <Gold.Chemscore.Hbonds>
donor molecule, donor type, donor heavy atom, donor atom, acceptor molecule, acceptor atom, score
      L1  H     7    28       P1  8028  0.93
      L1  H    16    43       P1 10175  1.00
      P1  H  7989  7998       L1     6  0.03
      P1  H  8011  8017       L1     4  0.42

> <Gold.Chemscore.Hbond.Weighted>
-8.5818

> <Gold.Chemscore.Metal.Weighted>
-0.0000

> <Gold.Chemscore.Lipo.Weighted>
-9.2885

> <Gold.Chemscore.Internal_Hbond.Weighted>
0.0000

> <Gold.Chemscore.DEClash.Weighted>
1.6011

> <Gold.Chemscore.DEInternal.Weighted>
2.8086

> <Gold.Chemscore.Rot.Weighted>
3.8726

> <Gold.Chemscore.Internal.Correction.Weighted>
   9.000000E+99

> <Gold.Protein.RotatedTorsions>
[ 6907 6896 6895 6894 ] final   25.07 input  -60.11 | X-H torsion
[ 7974 7965 7964 7962 ] final -116.02 input  175.53 | X-H torsion
[ 8008 7997 7996 7995 ] final   97.04 input   59.86 | X-H torsion
[ 10167 10162 10161 10158 ] final  -26.70 input  -65.29 | X-H torsion
[ 10718 10713 10712 10709 ] final -109.04 input   66.30 | X-H torsion
[ 10763 10752 10751 10750 ] final -140.26 input  -60.55 | X-H torsion
[ 11005 11000 10999 10996 ] final  -43.71 input  -57.11 | X-H torsion

> <Gold.Protein.ActiveResidues>
 VAL166  LYS551  ARG553  GLY616  TRP617  ASP618  TYR619  PRO620  LYS621  CYS622 
 ASP623  PHE694  ASN695  SER759  ASP760  ASP761  ALA762  ILE779  LEU786  VAL792 
 PHE793  MET794  SER795  GLU796  ALA797  LYS798  CYS799  TRP800  GLU811  SER814 

> <Gold.Protein.RotatedAtoms>
  151.9670  135.0095  160.0550 H   0  0  0  0  0  0  0  0  0  0  0  0  # atno 6907 bound_to 6896
  152.1817  133.4707  159.4970 H   0  0  0  0  0  0  0  0  0  0  0  0  # atno 6908 bound_to 6896
  150.6918  134.1742  159.4267 H   0  0  0  0  0  0  0  0  0  0  0  0  # atno 6909 bound_to 6896
  145.1016  140.8555  143.3923 H   0  0  0  0  0  0  0  0  0  0  0  0  # atno 7974 bound_to 7965
  156.0860  140.3264  155.7754 H   0  0  0  0  0  0  0  0  0  0  0  0  # atno 8008 bound_to 7997
  155.5075  140.0574  157.2946 H   0  0  0  0  0  0  0  0  0  0  0  0  # atno 8009 bound_to 7997
  154.4609  140.1966  156.0263 H   0  0  0  0  0  0  0  0  0  0  0  0  # atno 8010 bound_to 7997
  140.7281  143.4156  151.1034 H   0  0  0  0  0  0  0  0  0  0  0  0  # atno 10167 bound_to 10162
  156.0516  130.5743  150.8044 H   0  0  0  0  0  0  0  0  0  0  0  0  # atno 10718 bound_to 10713
  154.8584  135.3558  154.5679 H   0  0  0  0  0  0  0  0  0  0  0  0  # atno 10763 bound_to 10752
  153.6293  135.7003  153.5286 H   0  0  0  0  0  0  0  0  0  0  0  0  # atno 10764 bound_to 10752
  153.3063  135.4191  155.1256 H   0  0  0  0  0  0  0  0  0  0  0  0  # atno 10765 bound_to 10752
  141.0402  133.6783  156.2771 H   0  0  0  0  0  0  0  0  0  0  0  0  # atno 11005 bound_to 11000
  145.0949  139.2864  143.5716 LP  0  0  0  0  0  0  0  0  0  0  0  0  # atno 17320 bound_to 7965
  146.3529  140.0498  142.8637 LP  0  0  0  0  0  0  0  0  0  0  0  0  # atno 17321 bound_to 7965
  139.7795  143.8376  152.3135 LP  0  0  0  0  0  0  0  0  0  0  0  0  # atno 17342 bound_to 10162
  139.8322  144.7248  150.9436 LP  0  0  0  0  0  0  0  0  0  0  0  0  # atno 17343 bound_to 10162
  157.5448  131.0942  150.9778 LP  0  0  0  0  0  0  0  0  0  0  0  0  # atno 17370 bound_to 10713
  157.0052  130.5615  149.5315 LP  0  0  0  0  0  0  0  0  0  0  0  0  # atno 17371 bound_to 10713
  140.6248  134.5324  157.5552 LP  0  0  0  0  0  0  0  0  0  0  0  0  # atno 17394 bound_to 11000
  139.9270  134.8037  156.1040 LP  0  0  0  0  0  0  0  0  0  0  0  0  # atno 17395 bound_to 11000

$$$$
