AV-unprocessed.smi:87|AV-procd|sdf|822|dock10
  -GOLD-   2262017233D 1   1.00000     0.00000
 Structure written by MMmdl.
 58 60  0  0  0  0  0  0  0  0  1 V2000
  143.5111  136.4932  152.5778 C   0  0  0  0  0  0  0  0  0  0  0  0
  144.9733  136.9351  152.4154 C   0  0  0  0  0  0  0  0  0  0  0  0
  145.4385  137.9749  153.4601 C   0  0  0  0  0  0  0  0  0  0  0  0
  146.7894  138.6130  153.0592 C   0  0  0  0  0  0  0  0  0  0  0  0
  146.8595  139.0779  151.5972 C   0  0  0  0  0  0  0  0  0  0  0  0
  145.5345  137.3339  154.8693 C   0  0  0  0  0  0  0  0  0  0  0  0
  145.7204  138.2947  155.9584 N   0  0  0  0  0  0  0  0  0  0  0  0
  144.9441  139.5302  155.9060 C   0  0  0  0  0  0  0  0  0  0  0  0
  144.6585  140.1101  157.2993 C   0  0  0  0  0  0  0  0  0  0  0  0
  143.9585  139.1553  158.1710 C   0  0  0  0  0  0  0  0  0  0  0  0
  143.4076  138.4041  158.8572 N   0  0  0  0  0  0  0  0  0  0  0  0
  146.9563  138.4494  156.4945 C   0  0  0  0  0  0  0  0  0  0  0  0
  147.6116  137.3207  156.8664 N   0  0  0  0  0  0  0  0  0  0  0  0
  148.8389  137.3952  157.3890 C   0  0  0  0  0  0  0  0  0  0  0  0
  149.5798  138.4790  157.6273 N   0  0  0  0  0  0  0  0  0  0  0  0
  148.9205  139.6176  157.2698 C   0  0  0  0  0  0  0  0  0  0  0  0
  147.6160  139.6962  156.7040 C   0  0  0  0  0  0  0  0  0  0  0  0
  147.2800  141.0281  156.4871 N   0  0  0  0  0  0  0  0  0  0  0  0
  148.3285  141.6949  156.8842 C   0  0  0  0  0  0  0  0  0  0  0  0
  149.3611  140.9256  157.3677 N   0  0  0  0  0  0  0  0  0  0  0  0
  150.6360  141.4053  157.8715 C   0  0  0  0  0  0  0  0  0  0  0  0
  150.7414  142.9427  157.8385 C   0  0  2  0  0  0  0  0  0  0  0  0
  151.0214  143.3667  156.5171 O   0  0  0  0  0  0  0  0  0  0  0  0
  151.8197  143.4673  158.8090 C   0  0  1  0  0  0  0  0  0  0  0  0
  152.0216  144.9927  158.8691 C   0  0  0  0  0  0  0  0  0  0  0  0
  151.9094  145.3158  160.3500 C   0  0  0  0  0  0  0  0  0  0  0  0
  152.1591  143.9698  161.0197 C   0  0  0  0  0  0  0  0  0  0  0  0
  151.5313  143.0528  160.1392 O   0  0  0  0  0  0  0  0  0  0  0  0
  143.2150  135.8389  151.7577 H   0  0  0  0  0  0  0  0  0  0  0  0
  142.8377  137.3508  152.5749 H   0  0  0  0  0  0  0  0  0  0  0  0
  143.3504  135.9420  153.5038 H   0  0  0  0  0  0  0  0  0  0  0  0
  145.6258  136.0616  152.4430 H   0  0  0  0  0  0  0  0  0  0  0  0
  145.0725  137.3493  151.4131 H   0  0  0  0  0  0  0  0  0  0  0  0
  144.6911  138.7681  153.4777 H   0  0  0  0  0  0  0  0  0  0  0  0
  146.9801  139.4877  153.6813 H   0  0  0  0  0  0  0  0  0  0  0  0
  147.6049  137.9190  153.2659 H   0  0  0  0  0  0  0  0  0  0  0  0
  147.7992  139.5964  151.4057 H   0  0  0  0  0  0  0  0  0  0  0  0
  146.0490  139.7693  151.3651 H   0  0  0  0  0  0  0  0  0  0  0  0
  146.8031  138.2445  150.8982 H   0  0  0  0  0  0  0  0  0  0  0  0
  144.6529  136.7354  155.0884 H   0  0  0  0  0  0  0  0  0  0  0  0
  146.3708  136.6339  154.8807 H   0  0  0  0  0  0  0  0  0  0  0  0
  145.4957  140.2604  155.3130 H   0  0  0  0  0  0  0  0  0  0  0  0
  144.0061  139.3612  155.3754 H   0  0  0  0  0  0  0  0  0  0  0  0
  145.5853  140.3944  157.7983 H   0  0  0  0  0  0  0  0  0  0  0  0
  144.0402  141.0049  157.2275 H   0  0  0  0  0  0  0  0  0  0  0  0
  149.2931  136.4512  157.6518 H   0  0  0  0  0  0  0  0  0  0  0  0
  148.3780  142.7730  156.8346 H   0  0  0  0  0  0  0  0  0  0  0  0
  150.7534  141.0414  158.8930 H   0  0  0  0  0  0  0  0  0  0  0  0
  151.4381  140.9517  157.2877 H   0  0  0  0  0  0  0  0  0  0  0  0
  149.7773  143.3625  158.1291 H   0  0  0  0  0  0  0  0  0  0  0  0
  150.2437  143.7662  156.1585 H   0  0  0  0  0  0  0  0  0  0  0  0
  152.7749  143.0045  158.5541 H   0  0  0  0  0  0  0  0  0  0  0  0
  153.0114  145.2518  158.4909 H   0  0  0  0  0  0  0  0  0  0  0  0
  151.2934  145.5563  158.2858 H   0  0  0  0  0  0  0  0  0  0  0  0
  152.6079  146.0878  160.6739 H   0  0  0  0  0  0  0  0  0  0  0  0
  150.8982  145.6562  160.5771 H   0  0  0  0  0  0  0  0  0  0  0  0
  153.2272  143.7528  161.0753 H   0  0  0  0  0  0  0  0  0  0  0  0
  151.7412  143.9149  162.0252 H   0  0  0  0  0  0  0  0  0  0  0  0
  1  2  1  0  0  0  0
  1 29  1  0  0  0  0
  1 30  1  0  0  0  0
  1 31  1  0  0  0  0
  2  3  1  0  0  0  0
  2 32  1  0  0  0  0
  2 33  1  0  0  0  0
  3  4  1  0  0  0  0
  3  6  1  0  0  0  0
  3 34  1  0  0  0  0
  4  5  1  0  0  0  0
  4 35  1  0  0  0  0
  4 36  1  0  0  0  0
  5 37  1  0  0  0  0
  5 38  1  0  0  0  0
  5 39  1  0  0  0  0
  6  7  1  0  0  0  0
  6 40  1  0  0  0  0
  6 41  1  0  0  0  0
  7  8  1  0  0  0  0
  7 12  1  0  0  0  0
  8  9  1  0  0  0  0
  8 42  1  0  0  0  0
  8 43  1  0  0  0  0
  9 10  1  0  0  0  0
  9 44  1  0  0  0  0
  9 45  1  0  0  0  0
 10 11  3  0  0  0  0
 12 17  1  0  0  0  0
 12 13  2  0  0  0  0
 13 14  1  0  0  0  0
 14 15  2  0  0  0  0
 14 46  1  0  0  0  0
 15 16  1  0  0  0  0
 16 20  1  0  0  0  0
 16 17  2  0  0  0  0
 17 18  1  0  0  0  0
 18 19  2  0  0  0  0
 19 20  1  0  0  0  0
 19 47  1  0  0  0  0
 20 21  1  0  0  0  0
 21 22  1  0  0  0  0
 21 48  1  0  0  0  0
 21 49  1  0  0  0  0
 22 23  1  0  0  0  0
 22 24  1  0  0  0  0
 22 50  1  0  0  0  0
 23 51  1  0  0  0  0
 24 28  1  0  0  0  0
 24 25  1  0  0  0  0
 24 52  1  0  0  0  0
 25 26  1  0  0  0  0
 25 53  1  0  0  0  0
 25 54  1  0  0  0  0
 26 27  1  0  0  0  0
 26 55  1  0  0  0  0
 26 56  1  0  0  0  0
 27 28  1  0  0  0  0
 27 57  1  0  0  0  0
 27 58  1  0  0  0  0
M  END
> <s_m_source_file>
AV-unprocessed.smi

> <i_m_source_file_index>
87

> <i_lp_mmshare_version>
43012

> <i_f3d_flags>
0

> <s_epik_input>
W0NIM11bQ0gyXVtDSF0oW0NIMl1bQ0gzXSlbQ0gyXU4oW0NIMl1bQ0gyXUMjTiljKG5bY0hdbjEpYyhjMTIpbltjSF1uMltDSDJdW0NASF0oW09IXSlbQ0BASF0zW0NIMl1bQ0gyXVtDSDJdTzM=

> <s_epik_cmdline>
J2VwaWtfcHl0aG9uJywgJy1waCcsICc3LjAnLCAnLXRuJywgJzgnLCAnLW1hJywgJzIwMCcsICctbWV0YWxfYmluZGluZycsICctaW1hZScsICc8aW5maWxlLm1hZT4nLCAnLW9tYWUnLCAnPG91dGZpbGUubWFlPic=

> <r_lp_tautomer_probability>
1

> <r_epik_Ionization_Penalty>
0.000348566

> <r_epik_Ionization_Penalty_Charging>
0

> <r_epik_Ionization_Penalty_Neutral>
0.000348566

> <r_epik_State_Penalty>
-0

> <r_epik_Charging_Adjusted_Penalty>
0

> <i_epik_Tot_Q>
0

> <i_epik_Tot_abs_Q>
0

> <r_epik_Metal_State_Penalty>
-0

> <b_epik_Metal_Only>
0

> <s_lp_Force_Field>
OPLS_2005

> <r_lp_Energy>
36.8585

> <b_lp_Chiralities_Consistent>
1

> <s_lp_Variant>
AV-unprocessed.smi:87-3

> <Gold.Version>
5.8.1

> <Gold.Id.Protein>
6NUR|6NUR_protein|mol2

> <Gold.PLP.Fitness>
41.8128

> <Gold.PLP.PLP>
-37.0245

> <Gold.PLP.part.hbond>
-1.4324

> <Gold.PLP.part.metal>
0.0000

> <Gold.PLP.part.buried>
-4.8931

> <Gold.PLP.part.nonpolar>
-30.9149

> <Gold.PLP.part.repulsive>
0.0775

> <Gold.PLP.ligand.clash>
0.0000

> <Gold.PLP.ligand.torsion>
1.2793

> <Gold.PLP.Chemscore.Hbond>
1.0000

> <Gold.PLP.Chemscore.CHOScore>
1.0000

> <Gold.PLP.Chemscore.Metal>
0.0000

> <Gold.Chemscore.Hbonds>
donor molecule, donor type, donor heavy atom, donor atom, acceptor molecule, acceptor atom, score
      L1  H    23    51       P1  8028  1.00
      L1  C    19    47       P1  8028  1.00

> <Gold.PLP.Chemscore.Internal.Correction>
1.3470

> <Gold.Rescore>
     Score         DG    S(hbond)    S(metal)    S(lipo)     H(rot)  DE(clash)    DE(int)     intcor
      8.51     -11.13       1.00        0.00      93.49       3.37       0.07       2.55       ----

> <Gold.Chemscore.Fitness>
8.5141

> <Gold.Chemscore.DG>
-11.1346

> <Gold.Chemscore.ZeroCoef>
-5.4800

> <Gold.Chemscore.Hbond>
0.9989

> <Gold.Chemscore.Metal>
0.0000

> <Gold.Chemscore.Lipo>
93.4890

> <Gold.Chemscore.Internal_Hbond>
0.0000

> <Gold.Chemscore.DEClash>
0.0701

> <Gold.Chemscore.DEInternal>
2.5504

> <Gold.Chemscore.Rot>
3.3672

> <Gold.Chemscore.Internal.Correction>
   9.000000E+99

> <Gold.Chemscore.Hbonds>
donor molecule, donor type, donor heavy atom, donor atom, acceptor molecule, acceptor atom, score
      L1  H    23    51       P1  8028  1.00

> <Gold.Chemscore.Hbond.Weighted>
-3.3365

> <Gold.Chemscore.Metal.Weighted>
-0.0000

> <Gold.Chemscore.Lipo.Weighted>
-10.9382

> <Gold.Chemscore.Internal_Hbond.Weighted>
0.0000

> <Gold.Chemscore.DEClash.Weighted>
0.0701

> <Gold.Chemscore.DEInternal.Weighted>
2.5504

> <Gold.Chemscore.Rot.Weighted>
8.6201

> <Gold.Chemscore.Internal.Correction.Weighted>
   9.000000E+99

> <Gold.Protein.RotatedTorsions>
[ 6907 6896 6895 6894 ] final  116.76 input  -60.11 | X-H torsion
[ 7974 7965 7964 7962 ] final  -31.55 input  175.53 | X-H torsion
[ 8008 7997 7996 7995 ] final  176.33 input   59.86 | X-H torsion
[ 10167 10162 10161 10158 ] final -174.17 input  -65.29 | X-H torsion
[ 10718 10713 10712 10709 ] final  -65.38 input   66.30 | X-H torsion
[ 10763 10752 10751 10750 ] final   81.77 input  -60.55 | X-H torsion
[ 11005 11000 10999 10996 ] final -111.22 input  -57.11 | X-H torsion

> <Gold.Protein.ActiveResidues>
 VAL166  LYS551  ARG553  GLY616  TRP617  ASP618  TYR619  PRO620  LYS621  CYS622 
 ASP623  PHE694  ASN695  SER759  ASP760  ASP761  ALA762  ILE779  LEU786  VAL792 
 PHE793  MET794  SER795  GLU796  ALA797  LYS798  CYS799  TRP800  GLU811  SER814 

> <Gold.Protein.RotatedAtoms>
  152.4656  133.7917  159.6905 H   0  0  0  0  0  0  0  0  0  0  0  0  # atno 6907 bound_to 6896
  150.8620  133.7620  159.2995 H   0  0  0  0  0  0  0  0  0  0  0  0  # atno 6908 bound_to 6896
  151.5183  135.1070  159.9923 H   0  0  0  0  0  0  0  0  0  0  0  0  # atno 6909 bound_to 6896
  146.1059  140.5681  142.8800 H   0  0  0  0  0  0  0  0  0  0  0  0  # atno 7974 bound_to 7965
  156.0776  140.1386  156.9752 H   0  0  0  0  0  0  0  0  0  0  0  0  # atno 8008 bound_to 7997
  154.4566  140.0959  156.6825 H   0  0  0  0  0  0  0  0  0  0  0  0  # atno 8009 bound_to 7997
  155.5128  140.3454  155.4394 H   0  0  0  0  0  0  0  0  0  0  0  0  # atno 8010 bound_to 7997
  139.5648  144.1781  152.1296 H   0  0  0  0  0  0  0  0  0  0  0  0  # atno 10167 bound_to 10162
  156.0673  130.4246  150.1556 H   0  0  0  0  0  0  0  0  0  0  0  0  # atno 10718 bound_to 10713
  153.1145  135.4753  154.9091 H   0  0  0  0  0  0  0  0  0  0  0  0  # atno 10763 bound_to 10752
  154.7514  135.3107  154.8552 H   0  0  0  0  0  0  0  0  0  0  0  0  # atno 10764 bound_to 10752
  153.9133  135.6863  153.4804 H   0  0  0  0  0  0  0  0  0  0  0  0  # atno 10765 bound_to 10752
  141.0747  133.9321  157.2414 H   0  0  0  0  0  0  0  0  0  0  0  0  # atno 11005 bound_to 11000
  144.7470  140.5094  143.6828 LP  0  0  0  0  0  0  0  0  0  0  0  0  # atno 17320 bound_to 7965
  145.5762  139.1486  143.3260 LP  0  0  0  0  0  0  0  0  0  0  0  0  # atno 17321 bound_to 7965
  140.1302  144.5295  150.6807 LP  0  0  0  0  0  0  0  0  0  0  0  0  # atno 17342 bound_to 10162
  140.6931  143.2388  151.5076 LP  0  0  0  0  0  0  0  0  0  0  0  0  # atno 17343 bound_to 10162
  156.9614  130.9806  151.3478 LP  0  0  0  0  0  0  0  0  0  0  0  0  # atno 17370 bound_to 10713
  157.5722  130.8318  149.8407 LP  0  0  0  0  0  0  0  0  0  0  0  0  # atno 17371 bound_to 10713
  139.9559  135.0165  156.9127 LP  0  0  0  0  0  0  0  0  0  0  0  0  # atno 17394 bound_to 11000
  140.5599  134.0545  155.7395 LP  0  0  0  0  0  0  0  0  0  0  0  0  # atno 17395 bound_to 11000

$$$$
