AV-unprocessed.smi:1350|AV-procd|sdf|5522|dock2
  -GOLD-   22720 5113D 1   1.00000     0.00000
 Structure written by MMmdl.
 44 46  0  0  0  0  0  0  0  0  2 V2000
  148.2601  132.8648  158.9479 C   0  0  0  0  0  0  0  0  0  0  0  0
  148.6197  134.1806  159.3438 O   0  0  0  0  0  0  0  0  0  0  0  0
  147.9789  134.7408  160.4306 C   0  0  0  0  0  0  0  0  0  0  0  0
  146.9952  134.0555  161.1901 C   0  0  0  0  0  0  0  0  0  0  0  0
  146.3743  134.6757  162.2905 C   0  0  0  0  0  0  0  0  0  0  0  0
  146.7255  135.9880  162.6505 C   0  0  0  0  0  0  0  0  0  0  0  0
  147.6984  136.6787  161.9068 C   0  0  0  0  0  0  0  0  0  0  0  0
  148.3233  136.0659  160.8002 C   0  0  0  0  0  0  0  0  0  0  0  0
  149.3779  136.8544  160.0408 C   0  0  0  0  0  0  0  0  0  0  0  0
  149.3166  136.5937  158.6481 O   0  0  0  0  0  0  0  0  0  0  0  0
  150.3619  137.2238  157.9259 C   0  0  0  0  0  0  0  0  0  0  0  0
  150.2333  138.7453  158.0827 C   0  0  2  0  0  0  0  0  0  0  0  0
  149.1435  139.1905  157.2995 O   0  0  0  0  0  0  0  0  0  0  0  0
  151.5148  139.4925  157.6617 C   0  0  0  0  0  0  0  0  0  0  0  0
  151.3344  140.9492  157.6245 N   0  0  0  0  0  0  0  0  0  0  0  0
  150.6542  141.7271  156.7393 C   0  0  0  0  0  0  0  0  0  0  0  0
  150.7803  143.0206  157.1475 N   0  3  0  0  0  0  0  0  0  0  0  0
  151.5534  143.0693  158.3098 C   0  0  0  0  0  0  0  0  0  0  0  0
  151.9543  144.1462  159.0946 C   0  0  0  0  0  0  0  0  0  0  0  0
  152.7440  143.8462  160.2243 C   0  0  0  0  0  0  0  0  0  0  0  0
  153.1058  142.5193  160.5374 C   0  0  0  0  0  0  0  0  0  0  0  0
  152.6941  141.4353  159.7344 C   0  0  0  0  0  0  0  0  0  0  0  0
  151.9138  141.7411  158.6204 C   0  0  0  0  0  0  0  0  0  0  0  0
  148.8520  132.5772  158.0791 H   0  0  0  0  0  0  0  0  0  0  0  0
  147.2087  132.8065  158.6632 H   0  0  0  0  0  0  0  0  0  0  0  0
  148.4631  132.1407  159.7380 H   0  0  0  0  0  0  0  0  0  0  0  0
  146.6968  133.0465  160.9498 H   0  0  0  0  0  0  0  0  0  0  0  0
  145.6283  134.1414  162.8600 H   0  0  0  0  0  0  0  0  0  0  0  0
  146.2513  136.4634  163.4964 H   0  0  0  0  0  0  0  0  0  0  0  0
  147.9673  137.6862  162.1888 H   0  0  0  0  0  0  0  0  0  0  0  0
  149.2007  137.9154  160.2228 H   0  0  0  0  0  0  0  0  0  0  0  0
  150.3807  136.6360  160.4078 H   0  0  0  0  0  0  0  0  0  0  0  0
  151.3349  136.8825  158.2837 H   0  0  0  0  0  0  0  0  0  0  0  0
  150.2850  136.9506  156.8720 H   0  0  0  0  0  0  0  0  0  0  0  0
  149.9992  138.9726  159.1232 H   0  0  0  0  0  0  0  0  0  0  0  0
  148.3670  139.1895  157.8378 H   0  0  0  0  0  0  0  0  0  0  0  0
  152.3416  139.2659  158.3365 H   0  0  0  0  0  0  0  0  0  0  0  0
  151.8316  139.1745  156.6675 H   0  0  0  0  0  0  0  0  0  0  0  0
  150.1087  141.3808  155.8734 H   0  0  0  0  0  0  0  0  0  0  0  0
  151.6784  145.1633  158.8580 H   0  0  0  0  0  0  0  0  0  0  0  0
  153.0782  144.6500  160.8643 H   0  0  0  0  0  0  0  0  0  0  0  0
  153.7109  142.3286  161.4118 H   0  0  0  0  0  0  0  0  0  0  0  0
  152.9738  140.4218  159.9822 H   0  0  0  0  0  0  0  0  0  0  0  0
  150.3654  143.8092  156.6680 H   0  0  0  0  0  0  0  0  0  0  0  0
  1  2  1  0  0  0  0
  1 24  1  0  0  0  0
  1 25  1  0  0  0  0
  1 26  1  0  0  0  0
  2  3  1  0  0  0  0
  3  8  1  0  0  0  0
  3  4  2  0  0  0  0
  4  5  1  0  0  0  0
  4 27  1  0  0  0  0
  5  6  2  0  0  0  0
  5 28  1  0  0  0  0
  6  7  1  0  0  0  0
  6 29  1  0  0  0  0
  7  8  2  0  0  0  0
  7 30  1  0  0  0  0
  8  9  1  0  0  0  0
  9 10  1  0  0  0  0
  9 31  1  0  0  0  0
  9 32  1  0  0  0  0
 10 11  1  0  0  0  0
 11 12  1  0  0  0  0
 11 33  1  0  0  0  0
 11 34  1  0  0  0  0
 12 13  1  0  0  0  0
 12 14  1  0  0  0  0
 12 35  1  0  0  0  0
 13 36  1  0  0  0  0
 14 15  1  0  0  0  0
 14 37  1  0  0  0  0
 14 38  1  0  0  0  0
 15 23  1  0  0  0  0
 15 16  1  0  0  0  0
 16 17  2  0  0  0  0
 16 39  1  0  0  0  0
 17 18  1  0  0  0  0
 17 44  1  0  0  0  0
 18 23  2  0  0  0  0
 18 19  1  0  0  0  0
 19 20  2  0  0  0  0
 19 40  1  0  0  0  0
 20 21  1  0  0  0  0
 20 41  1  0  0  0  0
 21 22  2  0  0  0  0
 21 42  1  0  0  0  0
 22 23  1  0  0  0  0
 22 43  1  0  0  0  0
M  CHG  1  17   1
M  END
> <s_m_source_file>
AV-unprocessed.smi

> <i_m_source_file_index>
1350

> <i_lp_mmshare_version>
43012

> <i_f3d_flags>
0

> <s_epik_input>
W0NIM11PYzFbY0hdW2NIXVtjSF1bY0hdYzFbQ0gyXU9bQ0gyXVtDQEhdKFtPSF0pW0NIMl1uKFtjSF1uMiljKGMyMylbY0hdW2NIXVtjSF1bY0hdMw==

> <s_epik_cmdline>
J2VwaWtfcHl0aG9uJywgJy1waCcsICc3LjAnLCAnLXRuJywgJzgnLCAnLW1hJywgJzIwMCcsICctbWV0YWxfYmluZGluZycsICctaW1hZScsICc8aW5maWxlLm1hZT4nLCAnLW9tYWUnLCAnPG91dGZpbGUubWFlPic=

> <r_lp_tautomer_probability>
1

> <r_epik_Ionization_Penalty>
1.28975

> <r_epik_Ionization_Penalty_Charging>
1.28975

> <r_epik_Ionization_Penalty_Neutral>
1.07667e-06

> <r_epik_State_Penalty>
1.36276

> <r_epik_Charging_Adjusted_Penalty>
2.65251

> <i_epik_Tot_Q>
1

> <i_epik_Tot_abs_Q>
1

> <r_epik_Metal_State_Penalty>
5.39298

> <b_epik_Metal_Only>
0

> <s_lp_Force_Field>
OPLS_2005

> <r_lp_Energy>
23.7531

> <b_lp_Chiralities_Consistent>
1

> <s_lp_Variant>
AV-unprocessed.smi:1350-3

> <Gold.Version>
5.8.1

> <Gold.Id.Protein>
6NUR|6NUR_protein|mol2

> <Gold.PLP.Fitness>
53.9320

> <Gold.PLP.PLP>
-45.9974

> <Gold.PLP.part.hbond>
-2.0000

> <Gold.PLP.part.metal>
0.0000

> <Gold.PLP.part.buried>
-3.8420

> <Gold.PLP.part.nonpolar>
-40.6354

> <Gold.PLP.part.repulsive>
0.0168

> <Gold.PLP.ligand.clash>
0.0000

> <Gold.PLP.ligand.torsion>
0.6265

> <Gold.PLP.Chemscore.Hbond>
2.9913

> <Gold.PLP.Chemscore.CHOScore>
0.0000

> <Gold.PLP.Chemscore.Metal>
0.0000

> <Gold.Chemscore.Hbonds>
donor molecule, donor type, donor heavy atom, donor atom, acceptor molecule, acceptor atom, score
      L1  H    17    44       P1  8028  2.00
      P1  H  6896  6909       L1     2  0.98

> <Gold.PLP.Chemscore.Internal.Correction>
0.2139

> <Gold.Rescore>
     Score         DG    S(hbond)    S(metal)    S(lipo)     H(rot)  DE(clash)    DE(int)     intcor
     16.88     -18.98       1.76        0.00     125.09       2.74       0.04       2.07       ----

> <Gold.Chemscore.Fitness>
16.8767

> <Gold.Chemscore.DG>
-18.9795

> <Gold.Chemscore.ZeroCoef>
-5.4800

> <Gold.Chemscore.Hbond>
1.7592

> <Gold.Chemscore.Metal>
0.0000

> <Gold.Chemscore.Lipo>
125.0920

> <Gold.Chemscore.Internal_Hbond>
0.0000

> <Gold.Chemscore.DEClash>
0.0355

> <Gold.Chemscore.DEInternal>
2.0673

> <Gold.Chemscore.Rot>
2.7390

> <Gold.Chemscore.Internal.Correction>
   9.000000E+99

> <Gold.Chemscore.Hbonds>
donor molecule, donor type, donor heavy atom, donor atom, acceptor molecule, acceptor atom, score
      L1  H    17    44       P1  8028  0.94
      P1  H  6896  6909       L1     2  0.37

> <Gold.Chemscore.Hbond.Weighted>
-5.8756

> <Gold.Chemscore.Metal.Weighted>
-0.0000

> <Gold.Chemscore.Lipo.Weighted>
-14.6358

> <Gold.Chemscore.Internal_Hbond.Weighted>
0.0000

> <Gold.Chemscore.DEClash.Weighted>
0.0355

> <Gold.Chemscore.DEInternal.Weighted>
2.0673

> <Gold.Chemscore.Rot.Weighted>
7.0118

> <Gold.Chemscore.Internal.Correction.Weighted>
   9.000000E+99

> <Gold.Protein.RotatedTorsions>
[ 6907 6896 6895 6894 ] final   22.12 input  -60.11 | X-H torsion
[ 7974 7965 7964 7962 ] final -143.23 input  175.53 | X-H torsion
[ 8008 7997 7996 7995 ] final -166.50 input   59.86 | X-H torsion
[ 10167 10162 10161 10158 ] final -138.03 input  -65.29 | X-H torsion
[ 10718 10713 10712 10709 ] final  174.46 input   66.30 | X-H torsion
[ 10763 10752 10751 10750 ] final  -13.27 input  -60.55 | X-H torsion
[ 11005 11000 10999 10996 ] final  122.53 input  -57.11 | X-H torsion

> <Gold.Protein.ActiveResidues>
 VAL166  LYS551  ARG553  GLY616  TRP617  ASP618  TYR619  PRO620  LYS621  CYS622 
 ASP623  PHE694  ASN695  SER759  ASP760  ASP761  ALA762  ILE779  LEU786  VAL792 
 PHE793  MET794  SER795  GLU796  ALA797  LYS798  CYS799  TRP800  GLU811  SER814 

> <Gold.Protein.RotatedAtoms>
  151.9223  135.0293  160.0522 H   0  0  0  0  0  0  0  0  0  0  0  0  # atno 6907 bound_to 6896
  152.2189  133.4964  159.5160 H   0  0  0  0  0  0  0  0  0  0  0  0  # atno 6908 bound_to 6896
  150.6995  134.1285  159.4103 H   0  0  0  0  0  0  0  0  0  0  0  0  # atno 6909 bound_to 6896
  144.8384  140.5860  143.5468 H   0  0  0  0  0  0  0  0  0  0  0  0  # atno 7974 bound_to 7965
  155.8647  140.0983  157.1590 H   0  0  0  0  0  0  0  0  0  0  0  0  # atno 8008 bound_to 7997
  154.3993  140.1358  156.4067 H   0  0  0  0  0  0  0  0  0  0  0  0  # atno 8009 bound_to 7997
  155.7817  140.3458  155.5303 H   0  0  0  0  0  0  0  0  0  0  0  0  # atno 8010 bound_to 7997
  139.8519  143.7188  152.2657 H   0  0  0  0  0  0  0  0  0  0  0  0  # atno 10167 bound_to 10162
  156.9493  131.0026  151.2952 H   0  0  0  0  0  0  0  0  0  0  0  0  # atno 10718 bound_to 10713
  153.5108  135.7016  153.5782 H   0  0  0  0  0  0  0  0  0  0  0  0  # atno 10763 bound_to 10752
  153.3872  135.3905  155.1898 H   0  0  0  0  0  0  0  0  0  0  0  0  # atno 10764 bound_to 10752
  154.8703  135.3849  154.4588 H   0  0  0  0  0  0  0  0  0  0  0  0  # atno 10765 bound_to 10752
  139.9272  134.9641  156.8123 H   0  0  0  0  0  0  0  0  0  0  0  0  # atno 11005 bound_to 11000
  145.4745  139.1500  143.3796 LP  0  0  0  0  0  0  0  0  0  0  0  0  # atno 17320 bound_to 7965
  146.2680  140.4879  142.8826 LP  0  0  0  0  0  0  0  0  0  0  0  0  # atno 17321 bound_to 7965
  139.7457  144.7548  151.0583 LP  0  0  0  0  0  0  0  0  0  0  0  0  # atno 17342 bound_to 10162
  140.7786  143.4919  150.9882 LP  0  0  0  0  0  0  0  0  0  0  0  0  # atno 17343 bound_to 10162
  157.5733  130.8325  149.8421 LP  0  0  0  0  0  0  0  0  0  0  0  0  # atno 17370 bound_to 10713
  156.0370  130.3749  150.1535 LP  0  0  0  0  0  0  0  0  0  0  0  0  # atno 17371 bound_to 10713
  140.6302  133.9913  155.7658 LP  0  0  0  0  0  0  0  0  0  0  0  0  # atno 17394 bound_to 11000
  141.0838  134.0022  157.3345 LP  0  0  0  0  0  0  0  0  0  0  0  0  # atno 17395 bound_to 11000

$$$$
