AV-unprocessed.smi:1509|AV-procd|sdf|6090|dock8
  -GOLD-   22720 6213D 1   1.00000     0.00000
 Structure written by MMmdl.
 42 43  0  0  0  0  0  0  0  0  2 V2000
  153.1782  142.5464  162.5926 C   0  0  0  0  0  0  0  0  0  0  0  0
  153.0194  143.0009  161.1347 C   0  0  2  0  0  0  0  0  0  0  0  0
  152.1474  144.2632  161.0319 C   0  0  0  0  0  0  0  0  0  0  0  0
  151.9857  144.6781  159.5644 C   0  0  0  0  0  0  0  0  0  0  0  0
  151.4328  143.5173  158.7226 C   0  0  0  0  0  0  0  0  0  0  0  0
  152.2950  142.3125  158.8370 N   0  3  2  0  0  0  0  0  0  0  0  0
  151.8539  141.2216  157.9308 C   0  0  0  0  0  0  0  0  0  0  0  0
  150.7662  140.3335  158.5596 C   0  0  0  0  0  0  0  0  0  0  0  0
  150.6202  138.9887  157.8279 C   0  0  0  0  0  0  0  0  0  0  0  0
  149.3586  138.3308  158.1482 N   0  0  0  0  0  0  0  0  0  0  0  0
  149.2453  137.1334  158.7441 C   0  0  0  0  0  0  0  0  0  0  0  0
  150.2131  136.4457  159.0686 O   0  0  0  0  0  0  0  0  0  0  0  0
  147.8260  136.6367  159.0226 C   0  0  0  0  0  0  0  0  0  0  0  0
  147.6691  136.2691  160.4174 N   0  0  0  0  0  0  0  0  0  0  0  0
  147.4467  135.0857  160.9932 C   0  0  0  0  0  0  0  0  0  0  0  0
  147.3627  135.1905  162.3107 N   0  0  0  0  0  0  0  0  0  0  0  0
  147.5517  136.5447  162.5309 N   0  0  0  0  0  0  0  0  0  0  0  0
  147.7345  137.1897  161.4113 N   0  0  0  0  0  0  0  0  0  0  0  0
  152.4383  141.8769  160.2529 C   0  0  0  0  0  0  0  0  0  0  0  0
  152.2164  142.2823  163.0334 H   0  0  0  0  0  0  0  0  0  0  0  0
  153.6190  143.3346  163.2037 H   0  0  0  0  0  0  0  0  0  0  0  0
  153.8280  141.6737  162.6642 H   0  0  0  0  0  0  0  0  0  0  0  0
  154.0138  143.2451  160.7575 H   0  0  0  0  0  0  0  0  0  0  0  0
  151.1661  144.0762  161.4708 H   0  0  0  0  0  0  0  0  0  0  0  0
  152.5932  145.0797  161.6010 H   0  0  0  0  0  0  0  0  0  0  0  0
  151.3218  145.5401  159.4926 H   0  0  0  0  0  0  0  0  0  0  0  0
  152.9495  144.9958  159.1642 H   0  0  0  0  0  0  0  0  0  0  0  0
  150.4176  143.2718  159.0387 H   0  0  0  0  0  0  0  0  0  0  0  0
  151.3736  143.8322  157.6801 H   0  0  0  0  0  0  0  0  0  0  0  0
  151.5130  141.6410  156.9830 H   0  0  0  0  0  0  0  0  0  0  0  0
  152.7081  140.5853  157.6949 H   0  0  0  0  0  0  0  0  0  0  0  0
  151.0073  140.1507  159.6077 H   0  0  0  0  0  0  0  0  0  0  0  0
  149.8069  140.8497  158.5492 H   0  0  0  0  0  0  0  0  0  0  0  0
  150.7007  139.1294  156.7487 H   0  0  0  0  0  0  0  0  0  0  0  0
  151.4315  138.3192  158.1143 H   0  0  0  0  0  0  0  0  0  0  0  0
  148.5110  138.8284  157.9156 H   0  0  0  0  0  0  0  0  0  0  0  0
  147.0906  137.4048  158.7787 H   0  0  0  0  0  0  0  0  0  0  0  0
  147.6102  135.7727  158.3922 H   0  0  0  0  0  0  0  0  0  0  0  0
  147.3443  134.1566  160.4519 H   0  0  0  0  0  0  0  0  0  0  0  0
  153.0937  141.0088  160.3131 H   0  0  0  0  0  0  0  0  0  0  0  0
  151.4657  141.5623  160.6355 H   0  0  0  0  0  0  0  0  0  0  0  0
  153.2122  142.5944  158.5213 H   0  0  0  0  0  0  0  0  0  0  0  0
  1  2  1  0  0  0  0
  1 20  1  0  0  0  0
  1 21  1  0  0  0  0
  1 22  1  0  0  0  0
  2 19  1  0  0  0  0
  2  3  1  0  0  0  0
  2 23  1  0  0  0  0
  3  4  1  0  0  0  0
  3 24  1  0  0  0  0
  3 25  1  0  0  0  0
  4  5  1  0  0  0  0
  4 26  1  0  0  0  0
  4 27  1  0  0  0  0
  5  6  1  0  0  0  0
  5 28  1  0  0  0  0
  5 29  1  0  0  0  0
  6  7  1  0  0  0  0
  6 19  1  0  0  0  0
  6 42  1  0  0  0  0
  7  8  1  0  0  0  0
  7 30  1  0  0  0  0
  7 31  1  0  0  0  0
  8  9  1  0  0  0  0
  8 32  1  0  0  0  0
  8 33  1  0  0  0  0
  9 10  1  0  0  0  0
  9 34  1  0  0  0  0
  9 35  1  0  0  0  0
 10 11  1  0  0  0  0
 10 36  1  0  0  0  0
 11 12  2  0  0  0  0
 11 13  1  0  0  0  0
 13 14  1  0  0  0  0
 13 37  1  0  0  0  0
 13 38  1  0  0  0  0
 14 18  1  0  0  0  0
 14 15  1  0  0  0  0
 15 16  2  0  0  0  0
 15 39  1  0  0  0  0
 16 17  1  0  0  0  0
 17 18  2  0  0  0  0
 19 40  1  0  0  0  0
 19 41  1  0  0  0  0
M  CHG  1   6   1
M  END
> <s_m_source_file>
AV-unprocessed.smi

> <i_m_source_file_index>
1509

> <i_lp_mmshare_version>
43012

> <i_f3d_flags>
0

> <s_epik_input>
W0NIM11bQ0BASF0xW0NIMl1bQ0gyXVtDSDJdTihbQ0gyXTEpW0NIMl1bQ0gyXVtDSDJdW05IXUMoPU8pW0NIMl1uMltjSF1ubm4y

> <s_epik_cmdline>
J2VwaWtfcHl0aG9uJywgJy1waCcsICc3LjAnLCAnLXRuJywgJzgnLCAnLW1hJywgJzIwMCcsICctbWV0YWxfYmluZGluZycsICctaW1hZScsICc8aW5maWxlLm1hZT4nLCAnLW9tYWUnLCAnPG91dGZpbGUubWFlPic=

> <r_lp_tautomer_probability>
1

> <r_epik_Ionization_Penalty>
0.00044216

> <r_epik_Ionization_Penalty_Charging>
0.000440775

> <r_epik_Ionization_Penalty_Neutral>
1.38512e-06

> <r_epik_State_Penalty>
0.000271914

> <r_epik_Charging_Adjusted_Penalty>
0.000712689

> <i_epik_Tot_Q>
1

> <i_epik_Tot_abs_Q>
1

> <r_epik_Metal_State_Penalty>
-0

> <b_epik_Metal_Only>
0

> <s_lp_Force_Field>
OPLS_2005

> <r_lp_Energy>
19.8667

> <b_lp_Chiralities_Consistent>
1

> <s_lp_Variant>
AV-unprocessed.smi:1509-1

> <Gold.Version>
5.8.1

> <Gold.Id.Protein>
6NUR|6NUR_protein|mol2

> <Gold.PLP.Fitness>
46.9328

> <Gold.PLP.PLP>
-39.6055

> <Gold.PLP.part.hbond>
-3.4346

> <Gold.PLP.part.metal>
0.0000

> <Gold.PLP.part.buried>
-7.3643

> <Gold.PLP.part.nonpolar>
-29.0202

> <Gold.PLP.part.repulsive>
0.1989

> <Gold.PLP.ligand.clash>
0.0000

> <Gold.PLP.ligand.torsion>
0.4659

> <Gold.PLP.Chemscore.Hbond>
2.7360

> <Gold.PLP.Chemscore.CHOScore>
0.0000

> <Gold.PLP.Chemscore.Metal>
0.0000

> <Gold.Chemscore.Hbonds>
donor molecule, donor type, donor heavy atom, donor atom, acceptor molecule, acceptor atom, score
      P1  H  6896  6908       L1    12  1.00
      P1  H  6931  6943       L1    18  0.95
      P1  H  6934  6947       L1    18  0.78

> <Gold.PLP.Chemscore.Internal.Correction>
0.0511

> <Gold.Rescore>
     Score         DG    S(hbond)    S(metal)    S(lipo)     H(rot)  DE(clash)    DE(int)     intcor
     15.62     -16.16       2.41        0.00      87.43       2.97       0.02       0.52       ----

> <Gold.Chemscore.Fitness>
15.6153

> <Gold.Chemscore.DG>
-16.1567

> <Gold.Chemscore.ZeroCoef>
-5.4800

> <Gold.Chemscore.Hbond>
2.4089

> <Gold.Chemscore.Metal>
0.0000

> <Gold.Chemscore.Lipo>
87.4277

> <Gold.Chemscore.Internal_Hbond>
0.0000

> <Gold.Chemscore.DEClash>
0.0222

> <Gold.Chemscore.DEInternal>
0.5193

> <Gold.Chemscore.Rot>
2.9680

> <Gold.Chemscore.Internal.Correction>
   9.000000E+99

> <Gold.Chemscore.Hbonds>
donor molecule, donor type, donor heavy atom, donor atom, acceptor molecule, acceptor atom, score
      P1  H  6896  6908       L1    12  1.00
      P1  H  6931  6943       L1    18  0.20
      P1  H  6934  6947       L1    18  0.72

> <Gold.Chemscore.Hbond.Weighted>
-8.0457

> <Gold.Chemscore.Metal.Weighted>
-0.0000

> <Gold.Chemscore.Lipo.Weighted>
-10.2290

> <Gold.Chemscore.Internal_Hbond.Weighted>
0.0000

> <Gold.Chemscore.DEClash.Weighted>
0.0222

> <Gold.Chemscore.DEInternal.Weighted>
0.5193

> <Gold.Chemscore.Rot.Weighted>
7.5980

> <Gold.Chemscore.Internal.Correction.Weighted>
   9.000000E+99

> <Gold.Protein.RotatedTorsions>
[ 6907 6896 6895 6894 ] final -156.82 input  -60.11 | X-H torsion
[ 7974 7965 7964 7962 ] final  -82.48 input  175.53 | X-H torsion
[ 8008 7997 7996 7995 ] final   46.08 input   59.86 | X-H torsion
[ 10167 10162 10161 10158 ] final -170.35 input  -65.29 | X-H torsion
[ 10718 10713 10712 10709 ] final  -74.97 input   66.30 | X-H torsion
[ 10763 10752 10751 10750 ] final -164.20 input  -60.55 | X-H torsion
[ 11005 11000 10999 10996 ] final  144.79 input  -57.11 | X-H torsion

> <Gold.Protein.ActiveResidues>
 VAL166  LYS551  ARG553  GLY616  TRP617  ASP618  TYR619  PRO620  LYS621  CYS622 
 ASP623  PHE694  ASN695  SER759  ASP760  ASP761  ALA762  ILE779  LEU786  VAL792 
 PHE793  MET794  SER795  GLU796  ALA797  LYS798  CYS799  TRP800  GLU811  SER814 

> <Gold.Protein.RotatedAtoms>
  151.2934  133.4155  159.2634 H   0  0  0  0  0  0  0  0  0  0  0  0  # atno 6907 bound_to 6896
  151.0257  134.9503  159.8094 H   0  0  0  0  0  0  0  0  0  0  0  0  # atno 6908 bound_to 6896
  152.5334  134.2896  159.9091 H   0  0  0  0  0  0  0  0  0  0  0  0  # atno 6909 bound_to 6896
  145.5328  140.9519  143.1594 H   0  0  0  0  0  0  0  0  0  0  0  0  # atno 7974 bound_to 7965
  155.3465  140.3411  155.4239 H   0  0  0  0  0  0  0  0  0  0  0  0  # atno 8008 bound_to 7997
  156.1786  140.1656  156.8352 H   0  0  0  0  0  0  0  0  0  0  0  0  # atno 8009 bound_to 7997
  154.5309  140.0745  156.8326 H   0  0  0  0  0  0  0  0  0  0  0  0  # atno 8010 bound_to 7997
  139.5867  144.1303  152.1584 H   0  0  0  0  0  0  0  0  0  0  0  0  # atno 10167 bound_to 10162
  156.0223  130.4429  150.2973 H   0  0  0  0  0  0  0  0  0  0  0  0  # atno 10718 bound_to 10713
  154.7051  135.2995  154.9283 H   0  0  0  0  0  0  0  0  0  0  0  0  # atno 10763 bound_to 10752
  154.0202  135.6683  153.4776 H   0  0  0  0  0  0  0  0  0  0  0  0  # atno 10764 bound_to 10752
  153.0711  135.5060  154.8217 H   0  0  0  0  0  0  0  0  0  0  0  0  # atno 10765 bound_to 10752
  140.0660  134.9178  157.1266 H   0  0  0  0  0  0  0  0  0  0  0  0  # atno 11005 bound_to 11000
  144.7617  139.6941  143.7231 LP  0  0  0  0  0  0  0  0  0  0  0  0  # atno 17320 bound_to 7965
  146.2033  139.5341  142.9729 LP  0  0  0  0  0  0  0  0  0  0  0  0  # atno 17321 bound_to 7965
  140.0868  144.5654  150.7083 LP  0  0  0  0  0  0  0  0  0  0  0  0  # atno 17342 bound_to 10162
  140.7137  143.2526  151.4500 LP  0  0  0  0  0  0  0  0  0  0  0  0  # atno 17343 bound_to 10162
  157.1076  131.0212  151.3061 LP  0  0  0  0  0  0  0  0  0  0  0  0  # atno 17370 bound_to 10713
  157.4730  130.7720  149.7341 LP  0  0  0  0  0  0  0  0  0  0  0  0  # atno 17371 bound_to 10713
  140.3698  134.2403  155.7179 LP  0  0  0  0  0  0  0  0  0  0  0  0  # atno 17394 bound_to 11000
  141.1993  133.8015  157.0543 LP  0  0  0  0  0  0  0  0  0  0  0  0  # atno 17395 bound_to 11000

$$$$
