AV-unprocessed.smi:1701|AV-procd|sdf|6842|dock6
  -GOLD-   22720 8 23D 1   1.00000     0.00000
 Structure written by MMmdl.
 54 56  0  0  0  0  0  0  0  0  4 V2000
  151.1699  144.2758  159.1118 C   0  0  0  0  0  0  0  0  0  0  0  0
  152.6295  143.8430  158.9199 C   0  0  0  0  0  0  0  0  0  0  0  0
  152.8879  142.5116  159.4662 N   0  0  0  0  0  0  0  0  0  0  0  0
  153.7480  142.3822  160.6394 C   0  0  0  0  0  0  0  0  0  0  0  0
  153.0299  142.7956  161.9305 C   0  0  0  0  0  0  0  0  0  0  0  0
  152.3505  141.3636  158.8388 C   0  0  0  0  0  0  0  0  0  0  0  0
  151.4602  141.4216  157.7376 C   0  0  0  0  0  0  0  0  0  0  0  0
  150.9633  140.2301  157.1711 C   0  0  0  0  0  0  0  0  0  0  0  0
  151.3638  138.9845  157.6950 C   0  0  0  0  0  0  0  0  0  0  0  0
  150.8156  137.8106  157.1121 N   0  0  0  0  0  0  0  0  0  0  0  0
  150.7392  136.5553  157.6196 C   0  0  0  0  0  0  0  0  0  0  0  0
  151.2813  136.3146  158.6967 O   0  0  0  0  0  0  0  0  0  0  0  0
  150.0928  135.5757  156.9178 N   0  5  0  0  0  0  0  0  0  0  0  0
  149.9423  135.4214  155.4639 C   0  0  1  0  0  0  0  0  0  0  0  0
  150.8903  134.3443  154.9045 C   0  0  0  0  0  0  0  0  0  0  0  0
  150.0999  133.6411  153.7835 C   0  0  0  0  0  0  0  0  0  0  0  0
  148.7782  134.2974  153.7596 N   0  3  1  0  0  0  0  0  0  0  0  0
  147.6309  133.4963  153.2791 C   0  0  0  0  0  0  0  0  0  0  0  0
  146.3757  134.3907  153.2225 C   0  0  0  0  0  0  0  0  0  0  0  0
  146.1136  135.0990  154.5680 C   0  0  0  0  0  0  0  0  0  0  0  0
  147.3697  135.8452  155.0603 C   0  0  0  0  0  0  0  0  0  0  0  0
  148.5608  134.8652  155.0998 C   0  0  2  0  0  0  0  0  0  0  0  0
  152.2451  138.9758  158.8008 C   0  0  0  0  0  0  0  0  0  0  0  0
  152.6953  140.1412  159.3130 N   0  3  0  0  0  0  0  0  0  0  0  0
  151.0014  145.2624  158.6802 H   0  0  0  0  0  0  0  0  0  0  0  0
  150.9056  144.3277  160.1684 H   0  0  0  0  0  0  0  0  0  0  0  0
  150.4827  143.5811  158.6284 H   0  0  0  0  0  0  0  0  0  0  0  0
  152.8605  143.8306  157.8544 H   0  0  0  0  0  0  0  0  0  0  0  0
  153.3054  144.5787  159.3567 H   0  0  0  0  0  0  0  0  0  0  0  0
  154.1428  141.3700  160.7230 H   0  0  0  0  0  0  0  0  0  0  0  0
  154.6207  143.0215  160.5004 H   0  0  0  0  0  0  0  0  0  0  0  0
  153.6952  142.7041  162.7892 H   0  0  0  0  0  0  0  0  0  0  0  0
  152.1572  142.1702  162.1198 H   0  0  0  0  0  0  0  0  0  0  0  0
  152.6940  143.8318  161.8816 H   0  0  0  0  0  0  0  0  0  0  0  0
  151.1503  142.3623  157.3088 H   0  0  0  0  0  0  0  0  0  0  0  0
  150.2824  140.2760  156.3337 H   0  0  0  0  0  0  0  0  0  0  0  0
  150.4565  137.9195  156.1750 H   0  0  0  0  0  0  0  0  0  0  0  0
  150.0978  136.3506  154.9128 H   0  0  0  0  0  0  0  0  0  0  0  0
  151.8179  134.7845  154.5376 H   0  0  0  0  0  0  0  0  0  0  0  0
  151.1580  133.6123  155.6686 H   0  0  0  0  0  0  0  0  0  0  0  0
  150.5864  133.7332  152.8117 H   0  0  0  0  0  0  0  0  0  0  0  0
  149.9946  132.5778  154.0072 H   0  0  0  0  0  0  0  0  0  0  0  0
  147.8526  133.0951  152.2898 H   0  0  0  0  0  0  0  0  0  0  0  0
  147.4667  132.6469  153.9439 H   0  0  0  0  0  0  0  0  0  0  0  0
  146.5053  135.1418  152.4423 H   0  0  0  0  0  0  0  0  0  0  0  0
  145.5067  133.7975  152.9366 H   0  0  0  0  0  0  0  0  0  0  0  0
  145.2786  135.7933  154.4713 H   0  0  0  0  0  0  0  0  0  0  0  0
  145.8166  134.3605  155.3138 H   0  0  0  0  0  0  0  0  0  0  0  0
  147.5756  136.6859  154.3943 H   0  0  0  0  0  0  0  0  0  0  0  0
  147.1811  136.2670  156.0492 H   0  0  0  0  0  0  0  0  0  0  0  0
  148.3213  134.0433  155.7794 H   0  0  0  0  0  0  0  0  0  0  0  0
  152.5969  138.0890  159.3067 H   0  0  0  0  0  0  0  0  0  0  0  0
  148.8712  135.0896  153.1403 H   0  0  0  0  0  0  0  0  0  0  0  0
  153.3294  140.0967  160.1106 H   0  0  0  0  0  0  0  0  0  0  0  0
  1  2  1  0  0  0  0
  1 25  1  0  0  0  0
  1 26  1  0  0  0  0
  1 27  1  0  0  0  0
  2  3  1  0  0  0  0
  2 28  1  0  0  0  0
  2 29  1  0  0  0  0
  3  4  1  0  0  0  0
  3  6  1  0  0  0  0
  4  5  1  0  0  0  0
  4 30  1  0  0  0  0
  4 31  1  0  0  0  0
  5 32  1  0  0  0  0
  5 33  1  0  0  0  0
  5 34  1  0  0  0  0
  6 24  1  0  0  0  0
  6  7  2  0  0  0  0
  7  8  1  0  0  0  0
  7 35  1  0  0  0  0
  8  9  2  0  0  0  0
  8 36  1  0  0  0  0
  9 10  1  0  0  0  0
  9 23  1  0  0  0  0
 10 11  1  0  0  0  0
 10 37  1  0  0  0  0
 11 12  2  0  0  0  0
 11 13  1  0  0  0  0
 13 14  1  0  0  0  0
 14 22  1  0  0  0  0
 14 15  1  0  0  0  0
 14 38  1  0  0  0  0
 15 16  1  0  0  0  0
 15 39  1  0  0  0  0
 15 40  1  0  0  0  0
 16 17  1  0  0  0  0
 16 41  1  0  0  0  0
 16 42  1  0  0  0  0
 17 22  1  0  0  0  0
 17 18  1  0  0  0  0
 17 53  1  0  0  0  0
 18 19  1  0  0  0  0
 18 43  1  0  0  0  0
 18 44  1  0  0  0  0
 19 20  1  0  0  0  0
 19 45  1  0  0  0  0
 19 46  1  0  0  0  0
 20 21  1  0  0  0  0
 20 47  1  0  0  0  0
 20 48  1  0  0  0  0
 21 22  1  0  0  0  0
 21 49  1  0  0  0  0
 21 50  1  0  0  0  0
 22 51  1  0  0  0  0
 23 24  2  0  0  0  0
 23 52  1  0  0  0  0
 24 54  1  0  0  0  0
M  CHG  1  13  -1
M  CHG  1  17   1
M  CHG  1  24   1
M  END
> <s_m_source_file>
AV-unprocessed.smi

> <i_m_source_file_index>
1701

> <i_lp_mmshare_version>
43012

> <i_f3d_flags>
0

> <s_epik_input>
W0NIM11bQ0gyXU4oW0NIMl1bQ0gzXSljMVtjSF1bY0hdYyhbY0hdbjEpW05IXUMoPU8pW05IXVtDQEhdKFtDSDJdW0NIMl0yKVtDQEBIXShOMjMpW0NIMl1bQ0gyXVtDSDJdW0NIMl0z

> <s_epik_cmdline>
J2VwaWtfcHl0aG9uJywgJy1waCcsICc3LjAnLCAnLXRuJywgJzgnLCAnLW1hJywgJzIwMCcsICctbWV0YWxfYmluZGluZycsICctaW1hZScsICc8aW5maWxlLm1hZT4nLCAnLW9tYWUnLCAnPG91dGZpbGUubWFlPic=

> <r_lp_tautomer_probability>
0.999994

> <r_epik_Ionization_Penalty>
7.37095

> <r_epik_Ionization_Penalty_Charging>
7.37095

> <r_epik_Ionization_Penalty_Neutral>
3.78969e-06

> <r_epik_State_Penalty>
6.83842

> <r_epik_Charging_Adjusted_Penalty>
14.2094

> <i_epik_Tot_Q>
1

> <i_epik_Tot_abs_Q>
3

> <r_epik_Metal_State_Penalty>
2.78552

> <b_epik_Metal_Only>
1

> <s_lp_Force_Field>
OPLS_2005

> <r_lp_Energy>
47.735

> <b_lp_Chiralities_Consistent>
1

> <s_lp_Variant>
AV-unprocessed.smi:1701-22

> <Gold.Version>
5.8.1

> <Gold.Id.Protein>
6NUR|6NUR_protein|mol2

> <Gold.PLP.Fitness>
49.5648

> <Gold.PLP.PLP>
-42.0848

> <Gold.PLP.part.hbond>
-2.0000

> <Gold.PLP.part.metal>
0.0000

> <Gold.PLP.part.buried>
-5.3729

> <Gold.PLP.part.nonpolar>
-34.6471

> <Gold.PLP.part.repulsive>
0.1501

> <Gold.PLP.ligand.clash>
0.0000

> <Gold.PLP.ligand.torsion>
0.8242

> <Gold.PLP.Chemscore.Hbond>
3.0000

> <Gold.PLP.Chemscore.CHOScore>
0.0000

> <Gold.PLP.Chemscore.Metal>
0.0000

> <Gold.Chemscore.Hbonds>
donor molecule, donor type, donor heavy atom, donor atom, acceptor molecule, acceptor atom, score
      L1  H    17    53       P1  7948  2.00
      P1  H  6896  6908       L1    12  0.51

> <Gold.PLP.Chemscore.Internal.Correction>
0.1285

> <Gold.Rescore>
     Score         DG    S(hbond)    S(metal)    S(lipo)     H(rot)  DE(clash)    DE(int)     intcor
     17.44     -19.73       1.98        0.00      93.45       1.28       0.02       2.26       ----

> <Gold.Chemscore.Fitness>
17.4449

> <Gold.Chemscore.DG>
-19.7264

> <Gold.Chemscore.ZeroCoef>
-5.4800

> <Gold.Chemscore.Hbond>
1.9758

> <Gold.Chemscore.Metal>
0.0000

> <Gold.Chemscore.Lipo>
93.4503

> <Gold.Chemscore.Internal_Hbond>
0.0000

> <Gold.Chemscore.DEClash>
0.0230

> <Gold.Chemscore.DEInternal>
2.2585

> <Gold.Chemscore.Rot>
1.2838

> <Gold.Chemscore.Internal.Correction>
   9.000000E+99

> <Gold.Chemscore.Hbonds>
donor molecule, donor type, donor heavy atom, donor atom, acceptor molecule, acceptor atom, score
      L1  H    17    53       P1  7948  0.35
      P1  H  6896  6908       L1    12  0.50

> <Gold.Chemscore.Hbond.Weighted>
-6.5993

> <Gold.Chemscore.Metal.Weighted>
-0.0000

> <Gold.Chemscore.Lipo.Weighted>
-10.9337

> <Gold.Chemscore.Internal_Hbond.Weighted>
0.0000

> <Gold.Chemscore.DEClash.Weighted>
0.0230

> <Gold.Chemscore.DEInternal.Weighted>
2.2585

> <Gold.Chemscore.Rot.Weighted>
3.2865

> <Gold.Chemscore.Internal.Correction.Weighted>
   9.000000E+99

> <Gold.Protein.RotatedTorsions>
[ 6907 6896 6895 6894 ] final -168.58 input  -60.11 | X-H torsion
[ 7974 7965 7964 7962 ] final   53.23 input  175.53 | X-H torsion
[ 8008 7997 7996 7995 ] final    4.67 input   59.86 | X-H torsion
[ 10167 10162 10161 10158 ] final  162.87 input  -65.29 | X-H torsion
[ 10718 10713 10712 10709 ] final   51.55 input   66.30 | X-H torsion
[ 10763 10752 10751 10750 ] final  174.73 input  -60.55 | X-H torsion
[ 11005 11000 10999 10996 ] final  -14.57 input  -57.11 | X-H torsion

> <Gold.Protein.ActiveResidues>
 VAL166  LYS551  ARG553  GLY616  TRP617  ASP618  TYR619  PRO620  LYS621  CYS622 
 ASP623  PHE694  ASN695  SER759  ASP760  ASP761  ALA762  ILE779  LEU786  VAL792 
 PHE793  MET794  SER795  GLU796  ALA797  LYS798  CYS799  TRP800  GLU811  SER814 

> <Gold.Protein.RotatedAtoms>
  151.4778  133.3553  159.2833 H   0  0  0  0  0  0  0  0  0  0  0  0  # atno 6907 bound_to 6896
  150.8918  134.8324  159.7309 H   0  0  0  0  0  0  0  0  0  0  0  0  # atno 6908 bound_to 6896
  152.4827  134.4688  159.9681 H   0  0  0  0  0  0  0  0  0  0  0  0  # atno 6909 bound_to 6896
  145.9733  139.4170  143.0177 H   0  0  0  0  0  0  0  0  0  0  0  0  # atno 7974 bound_to 7965
  154.7188  140.2707  155.6560 H   0  0  0  0  0  0  0  0  0  0  0  0  # atno 8008 bound_to 7997
  156.2817  140.2738  156.1778 H   0  0  0  0  0  0  0  0  0  0  0  0  # atno 8009 bound_to 7997
  155.0534  140.0371  157.2542 H   0  0  0  0  0  0  0  0  0  0  0  0  # atno 8010 bound_to 7997
  139.4866  144.4394  151.8971 H   0  0  0  0  0  0  0  0  0  0  0  0  # atno 10167 bound_to 10162
  157.4991  130.8426  149.8295 H   0  0  0  0  0  0  0  0  0  0  0  0  # atno 10718 bound_to 10713
  154.4579  135.2767  155.1734 H   0  0  0  0  0  0  0  0  0  0  0  0  # atno 10763 bound_to 10752
  154.3534  135.6145  153.5658 H   0  0  0  0  0  0  0  0  0  0  0  0  # atno 10764 bound_to 10752
  152.9852  135.5817  154.4935 H   0  0  0  0  0  0  0  0  0  0  0  0  # atno 10765 bound_to 10752
  140.7878  133.8312  155.9351 H   0  0  0  0  0  0  0  0  0  0  0  0  # atno 11005 bound_to 11000
  145.7875  140.9829  143.1066 LP  0  0  0  0  0  0  0  0  0  0  0  0  # atno 17320 bound_to 7965
  144.6842  139.9641  143.7481 LP  0  0  0  0  0  0  0  0  0  0  0  0  # atno 17321 bound_to 7965
  140.3845  144.2694  150.5905 LP  0  0  0  0  0  0  0  0  0  0  0  0  # atno 17342 bound_to 10162
  140.5203  143.2267  151.8399 LP  0  0  0  0  0  0  0  0  0  0  0  0  # atno 17343 bound_to 10162
  156.0218  130.3793  150.1938 LP  0  0  0  0  0  0  0  0  0  0  0  0  # atno 17370 bound_to 10713
  157.0128  130.9956  151.3361 LP  0  0  0  0  0  0  0  0  0  0  0  0  # atno 17371 bound_to 10713
  140.9419  134.1889  157.4791 LP  0  0  0  0  0  0  0  0  0  0  0  0  # atno 17394 bound_to 11000
  139.8734  134.9875  156.5372 LP  0  0  0  0  0  0  0  0  0  0  0  0  # atno 17395 bound_to 11000

$$$$
