AV-unprocessed.smi:96|AV-procd|sdf|859|dock3
  -GOLD-   2262017303D 1   1.00000     0.00000
 Structure written by MMmdl.
 43 46  0  0  0  0  0  0  0  0  1 V2000
  152.3310  136.4812  156.3082 O   0  0  0  0  0  0  0  0  0  0  0  0
  151.8902  137.5441  156.7474 C   0  0  0  0  0  0  0  0  0  0  0  0
  152.5826  138.8750  156.4124 C   0  0  0  0  0  0  0  0  0  0  0  0
  152.6243  139.8274  157.5443 N   0  0  0  0  0  0  0  0  0  0  0  0
  153.4453  139.5227  158.6587 C   0  0  0  0  0  0  0  0  0  0  0  0
  154.1014  138.4809  158.7030 O   0  0  0  0  0  0  0  0  0  0  0  0
  153.4624  140.5223  159.7202 C   0  0  0  0  0  0  0  0  0  0  0  0
  154.2250  140.3249  160.8089 F   0  0  0  0  0  0  0  0  0  0  0  0
  152.7256  141.6480  159.6254 C   0  0  0  0  0  0  0  0  0  0  0  0
  151.9122  141.9235  158.5438 N   0  0  0  0  0  0  0  0  0  0  0  0
  151.1602  143.2337  158.5011 C   0  0  2  0  0  0  0  0  0  0  0  0
  152.0761  144.4675  158.3915 C   0  0  0  0  0  0  0  0  0  0  0  0
  151.7037  145.2775  159.6226 C   0  0  0  0  0  0  0  0  0  0  0  0
  150.3205  144.7422  159.9762 C   0  0  0  0  0  0  0  0  0  0  0  0
  150.4183  143.3592  159.6748 O   0  0  0  0  0  0  0  0  0  0  0  0
  151.8707  141.0224  157.4547 C   0  0  0  0  0  0  0  0  0  0  0  0
  151.2032  141.2715  156.4494 O   0  0  0  0  0  0  0  0  0  0  0  0
  150.8189  137.6499  157.5551 N   0  0  0  0  0  0  0  0  0  0  0  0
  149.9671  136.6226  158.0440 C   0  0  0  0  0  0  0  0  0  0  0  0
  149.6288  135.4602  157.2921 C   0  0  0  0  0  0  0  0  0  0  0  0
  148.7598  134.4807  157.8247 C   0  0  0  0  0  0  0  0  0  0  0  0
  148.2354  134.6964  159.1087 C   0  0  0  0  0  0  0  0  0  0  0  0
  148.5463  135.8262  159.8354 C   0  0  0  0  0  0  0  0  0  0  0  0
  149.4067  136.8143  159.3299 C   0  0  0  0  0  0  0  0  0  0  0  0
  147.9036  135.7892  161.0306 O   0  0  0  0  0  0  0  0  0  0  0  0
  147.1728  134.5900  161.0365 C   0  0  0  0  0  0  0  0  0  0  0  0
  147.3881  133.9139  159.8243 O   0  0  0  0  0  0  0  0  0  0  0  0
  153.5891  138.6601  156.0494 H   0  0  0  0  0  0  0  0  0  0  0  0
  152.0814  139.3159  155.5492 H   0  0  0  0  0  0  0  0  0  0  0  0
  152.7781  142.3589  160.4371 H   0  0  0  0  0  0  0  0  0  0  0  0
  150.4780  143.1622  157.6526 H   0  0  0  0  0  0  0  0  0  0  0  0
  153.1335  144.2042  158.3580 H   0  0  0  0  0  0  0  0  0  0  0  0
  151.8257  145.0055  157.4766 H   0  0  0  0  0  0  0  0  0  0  0  0
  152.4006  145.0697  160.4351 H   0  0  0  0  0  0  0  0  0  0  0  0
  151.7083  146.3527  159.4424 H   0  0  0  0  0  0  0  0  0  0  0  0
  150.0577  144.9092  161.0210 H   0  0  0  0  0  0  0  0  0  0  0  0
  149.5537  145.1997  159.3489 H   0  0  0  0  0  0  0  0  0  0  0  0
  150.6294  138.5746  157.9136 H   0  0  0  0  0  0  0  0  0  0  0  0
  150.0133  135.3059  156.2958 H   0  0  0  0  0  0  0  0  0  0  0  0
  148.5017  133.5979  157.2587 H   0  0  0  0  0  0  0  0  0  0  0  0
  149.6350  137.6932  159.9151 H   0  0  0  0  0  0  0  0  0  0  0  0
  147.5028  133.9653  161.8672 H   0  0  0  0  0  0  0  0  0  0  0  0
  146.1106  134.8099  161.1485 H   0  0  0  0  0  0  0  0  0  0  0  0
  1  2  2  0  0  0  0
  2  3  1  0  0  0  0
  2 18  1  0  0  0  0
  3  4  1  0  0  0  0
  3 28  1  0  0  0  0
  3 29  1  0  0  0  0
  4 16  1  0  0  0  0
  4  5  1  0  0  0  0
  5  6  2  0  0  0  0
  5  7  1  0  0  0  0
  7  8  1  0  0  0  0
  7  9  2  0  0  0  0
  9 10  1  0  0  0  0
  9 30  1  0  0  0  0
 10 11  1  0  0  0  0
 10 16  1  0  0  0  0
 11 15  1  0  0  0  0
 11 12  1  0  0  0  0
 11 31  1  0  0  0  0
 12 13  1  0  0  0  0
 12 32  1  0  0  0  0
 12 33  1  0  0  0  0
 13 14  1  0  0  0  0
 13 34  1  0  0  0  0
 13 35  1  0  0  0  0
 14 15  1  0  0  0  0
 14 36  1  0  0  0  0
 14 37  1  0  0  0  0
 16 17  2  0  0  0  0
 18 19  1  0  0  0  0
 18 38  1  0  0  0  0
 19 24  1  0  0  0  0
 19 20  2  0  0  0  0
 20 21  1  0  0  0  0
 20 39  1  0  0  0  0
 21 22  2  0  0  0  0
 21 40  1  0  0  0  0
 22 27  1  0  0  0  0
 22 23  1  0  0  0  0
 23 24  2  0  0  0  0
 23 25  1  0  0  0  0
 24 41  1  0  0  0  0
 25 26  1  0  0  0  0
 26 27  1  0  0  0  0
 26 42  1  0  0  0  0
 26 43  1  0  0  0  0
M  END
> <s_m_source_file>
AV-unprocessed.smi

> <i_m_source_file_index>
96

> <i_lp_mmshare_version>
43012

> <i_f3d_flags>
0

> <s_epik_input>
TzFbQ0gyXU9jKGMxMilbY0hdYyhbY0hdW2NIXTIpW05IXUMoPU8pW0NIMl1uM2MoPU8pYyhGKVtjSF1uKGMzPU8pW0NAQEhdNFtDSDJdW0NIMl1bQ0gyXU80

> <s_epik_cmdline>
J2VwaWtfcHl0aG9uJywgJy1waCcsICc3LjAnLCAnLXRuJywgJzgnLCAnLW1hJywgJzIwMCcsICctbWV0YWxfYmluZGluZycsICctaW1hZScsICc8aW5maWxlLm1hZT4nLCAnLW9tYWUnLCAnPG91dGZpbGUubWFlPic=

> <r_lp_tautomer_probability>
1

> <r_epik_Ionization_Penalty>
1.04778e-05

> <r_epik_Ionization_Penalty_Charging>
3.88729e-08

> <r_epik_Ionization_Penalty_Neutral>
1.04389e-05

> <r_epik_State_Penalty>
-0

> <r_epik_Charging_Adjusted_Penalty>
3.88729e-08

> <i_epik_Tot_Q>
0

> <i_epik_Tot_abs_Q>
0

> <r_epik_Metal_State_Penalty>
-0

> <b_epik_Metal_Only>
0

> <s_epik_Chemistry_Notes>
This compound contains an acetal/aminal-like group ( X-CH(R)-Y where X, Y are N, S, or O) that may be acid/base labile, releasing an aldehyde.

> <s_lp_Force_Field>
OPLS_2005

> <r_lp_Energy>
41.3846

> <b_lp_Chiralities_Consistent>
1

> <s_lp_Variant>
AV-unprocessed.smi:96-1

> <Gold.Version>
5.8.1

> <Gold.Id.Protein>
6NUR|6NUR_protein|mol2

> <Gold.PLP.Fitness>
44.3269

> <Gold.PLP.PLP>
-42.7630

> <Gold.PLP.part.hbond>
-1.8446

> <Gold.PLP.part.metal>
0.0000

> <Gold.PLP.part.buried>
-4.0047

> <Gold.PLP.part.nonpolar>
-36.8631

> <Gold.PLP.part.repulsive>
0.1784

> <Gold.PLP.ligand.clash>
0.0000

> <Gold.PLP.ligand.torsion>
0.7261

> <Gold.PLP.Chemscore.Hbond>
0.9913

> <Gold.PLP.Chemscore.CHOScore>
0.0000

> <Gold.PLP.Chemscore.Metal>
0.0000

> <Gold.Chemscore.Hbonds>
donor molecule, donor type, donor heavy atom, donor atom, acceptor molecule, acceptor atom, score
      P1  H 10752 10763       L1     1  1.00

> <Gold.PLP.Chemscore.Internal.Correction>
0.0424

> <Gold.Rescore>
     Score         DG    S(hbond)    S(metal)    S(lipo)     H(rot)  DE(clash)    DE(int)     intcor
     11.78     -13.41       0.97        0.00      80.61       1.85       0.08       1.55       ----

> <Gold.Chemscore.Fitness>
11.7848

> <Gold.Chemscore.DG>
-13.4123

> <Gold.Chemscore.ZeroCoef>
-5.4800

> <Gold.Chemscore.Hbond>
0.9690

> <Gold.Chemscore.Metal>
0.0000

> <Gold.Chemscore.Lipo>
80.6093

> <Gold.Chemscore.Internal_Hbond>
0.0000

> <Gold.Chemscore.DEClash>
0.0824

> <Gold.Chemscore.DEInternal>
1.5451

> <Gold.Chemscore.Rot>
1.8497

> <Gold.Chemscore.Internal.Correction>
   9.000000E+99

> <Gold.Chemscore.Hbonds>
donor molecule, donor type, donor heavy atom, donor atom, acceptor molecule, acceptor atom, score
      P1  H 10752 10763       L1     1  0.99

> <Gold.Chemscore.Hbond.Weighted>
-3.2364

> <Gold.Chemscore.Metal.Weighted>
-0.0000

> <Gold.Chemscore.Lipo.Weighted>
-9.4313

> <Gold.Chemscore.Internal_Hbond.Weighted>
0.0000

> <Gold.Chemscore.DEClash.Weighted>
0.0824

> <Gold.Chemscore.DEInternal.Weighted>
1.5451

> <Gold.Chemscore.Rot.Weighted>
4.7354

> <Gold.Chemscore.Internal.Correction.Weighted>
   9.000000E+99

> <Gold.Protein.RotatedTorsions>
[ 6907 6896 6895 6894 ] final    0.56 input  -60.11 | X-H torsion
[ 7974 7965 7964 7962 ] final -151.29 input  175.53 | X-H torsion
[ 8008 7997 7996 7995 ] final  -98.33 input   59.86 | X-H torsion
[ 10167 10162 10161 10158 ] final   53.81 input  -65.29 | X-H torsion
[ 10718 10713 10712 10709 ] final   -8.57 input   66.30 | X-H torsion
[ 10763 10752 10751 10750 ] final   87.55 input  -60.55 | X-H torsion
[ 11005 11000 10999 10996 ] final -107.78 input  -57.11 | X-H torsion

> <Gold.Protein.ActiveResidues>
 VAL166  LYS551  ARG553  GLY616  TRP617  ASP618  TYR619  PRO620  LYS621  CYS622 
 ASP623  PHE694  ASN695  SER759  ASP760  ASP761  ALA762  ILE779  LEU786  VAL792 
 PHE793  MET794  SER795  GLU796  ALA797  LYS798  CYS799  TRP800  GLU811  SER814 

> <Gold.Protein.RotatedAtoms>
  151.5785  135.1059  160.0011 H   0  0  0  0  0  0  0  0  0  0  0  0  # atno 6907 bound_to 6896
  152.4366  133.7367  159.6629 H   0  0  0  0  0  0  0  0  0  0  0  0  # atno 6908 bound_to 6896
  150.8264  133.8094  159.3140 H   0  0  0  0  0  0  0  0  0  0  0  0  # atno 6909 bound_to 6896
  144.7858  140.4818  143.5807 H   0  0  0  0  0  0  0  0  0  0  0  0  # atno 7974 bound_to 7965
  154.7998  140.0456  157.1264 H   0  0  0  0  0  0  0  0  0  0  0  0  # atno 8008 bound_to 7997
  154.9493  140.3063  155.5063 H   0  0  0  0  0  0  0  0  0  0  0  0  # atno 8009 bound_to 7997
  156.2960  140.2291  156.4569 H   0  0  0  0  0  0  0  0  0  0  0  0  # atno 8010 bound_to 7997
  140.2368  144.3627  150.6394 H   0  0  0  0  0  0  0  0  0  0  0  0  # atno 10167 bound_to 10162
  156.7007  130.5092  149.5918 H   0  0  0  0  0  0  0  0  0  0  0  0  # atno 10718 bound_to 10713
  153.1680  135.4539  154.9863 H   0  0  0  0  0  0  0  0  0  0  0  0  # atno 10763 bound_to 10752
  154.7945  135.3232  154.7701 H   0  0  0  0  0  0  0  0  0  0  0  0  # atno 10764 bound_to 10752
  153.8181  135.6949  153.4886 H   0  0  0  0  0  0  0  0  0  0  0  0  # atno 10765 bound_to 10752
  141.0936  133.9011  157.2017 H   0  0  0  0  0  0  0  0  0  0  0  0  # atno 11005 bound_to 11000
  145.5925  139.1497  143.3174 LP  0  0  0  0  0  0  0  0  0  0  0  0  # atno 17320 bound_to 7965
  146.2089  140.6050  142.9068 LP  0  0  0  0  0  0  0  0  0  0  0  0  # atno 17321 bound_to 7965
  140.6144  143.2171  151.6822 LP  0  0  0  0  0  0  0  0  0  0  0  0  # atno 17342 bound_to 10162
  139.5091  144.3589  152.0581 LP  0  0  0  0  0  0  0  0  0  0  0  0  # atno 17343 bound_to 10162
  156.1731  130.6450  151.0861 LP  0  0  0  0  0  0  0  0  0  0  0  0  # atno 17370 bound_to 10713
  157.6974  131.0789  150.6927 LP  0  0  0  0  0  0  0  0  0  0  0  0  # atno 17371 bound_to 10713
  139.9767  135.0111  156.9649 LP  0  0  0  0  0  0  0  0  0  0  0  0  # atno 17394 bound_to 11000
  140.5194  134.0923  155.7288 LP  0  0  0  0  0  0  0  0  0  0  0  0  # atno 17395 bound_to 11000

$$$$
