AV-unprocessed.smi:2855|AV-procd|sdf|10990|dock2
  -GOLD-   2272015443D 1   1.00000     0.00000
 Structure written by MMmdl.
 46 47  0  0  0  0  0  0  0  0  2 V2000
  144.1660  131.5627  150.8755 C   0  0  0  0  0  0  0  0  0  0  0  0
  145.1419  132.4678  150.1028 C   0  0  1  0  0  0  0  0  0  0  0  0
  144.5091  133.8068  149.6863 C   0  0  0  0  0  0  0  0  0  0  0  0
  144.3176  134.7572  150.8786 C   0  0  0  0  0  0  0  0  0  0  0  0
  145.6429  135.0213  151.6330 C   0  0  1  0  0  0  0  0  0  0  0  0
  145.4887  136.0500  152.7938 C   0  0  0  0  0  0  0  0  0  0  0  0
  144.2707  135.7962  153.7018 C   0  0  0  0  0  0  0  0  0  0  0  0
  145.4970  137.5053  152.2942 C   0  0  0  0  0  0  0  0  0  0  0  0
  146.2983  133.6771  152.0619 C   0  0  2  0  0  0  0  0  0  0  0  0
  147.6238  133.9001  152.6386 N   0  0  0  0  0  0  0  0  0  0  0  0
  148.2402  133.1186  153.5389 C   0  0  0  0  0  0  0  0  0  0  0  0
  147.7319  132.1057  154.0208 O   0  0  0  0  0  0  0  0  0  0  0  0
  149.6365  133.5838  153.9754 C   0  0  0  0  0  0  0  0  0  0  0  0
  150.1611  132.8501  155.1386 N   0  0  0  0  0  0  0  0  0  0  0  0
  150.3307  131.4601  155.0124 C   0  0  0  0  0  0  0  0  0  0  0  0
  150.8021  130.7071  156.0243 C   0  0  0  0  0  0  0  0  0  0  0  0
  151.1415  131.3695  157.2777 C   0  0  0  0  0  0  0  0  0  0  0  0
  151.5705  130.6970  158.2133 O   0  0  0  0  0  0  0  0  0  0  0  0
  150.9631  132.7210  157.3497 N   0  5  0  0  0  0  0  0  0  0  0  0
  150.4834  133.4744  156.3118 C   0  0  0  0  0  0  0  0  0  0  0  0
  150.3297  134.6933  156.3980 O   0  0  0  0  0  0  0  0  0  0  0  0
  146.4568  132.7150  150.8654 C   0  0  0  0  0  0  0  0  0  0  0  0
  143.8486  132.0082  151.8181 H   0  0  0  0  0  0  0  0  0  0  0  0
  144.6252  130.6010  151.1057 H   0  0  0  0  0  0  0  0  0  0  0  0
  143.2697  131.3640  150.2871 H   0  0  0  0  0  0  0  0  0  0  0  0
  145.3948  131.9309  149.1875 H   0  0  0  0  0  0  0  0  0  0  0  0
  145.1494  134.2906  148.9476 H   0  0  0  0  0  0  0  0  0  0  0  0
  143.5537  133.6333  149.1899 H   0  0  0  0  0  0  0  0  0  0  0  0
  143.8974  135.6912  150.5075 H   0  0  0  0  0  0  0  0  0  0  0  0
  143.5736  134.3384  151.5555 H   0  0  0  0  0  0  0  0  0  0  0  0
  146.3241  135.4747  150.9106 H   0  0  0  0  0  0  0  0  0  0  0  0
  146.3709  135.9651  153.4278 H   0  0  0  0  0  0  0  0  0  0  0  0
  143.3310  135.9317  153.1668 H   0  0  0  0  0  0  0  0  0  0  0  0
  144.2658  136.4894  154.5433 H   0  0  0  0  0  0  0  0  0  0  0  0
  144.2766  134.7902  154.1195 H   0  0  0  0  0  0  0  0  0  0  0  0
  144.6050  137.7427  151.7150 H   0  0  0  0  0  0  0  0  0  0  0  0
  146.3673  137.7039  151.6681 H   0  0  0  0  0  0  0  0  0  0  0  0
  145.5334  138.2027  153.1315 H   0  0  0  0  0  0  0  0  0  0  0  0
  145.6522  133.1884  152.7911 H   0  0  0  0  0  0  0  0  0  0  0  0
  148.1241  134.7135  152.3115 H   0  0  0  0  0  0  0  0  0  0  0  0
  150.3298  133.4931  153.1367 H   0  0  0  0  0  0  0  0  0  0  0  0
  149.5847  134.6521  154.1894 H   0  0  0  0  0  0  0  0  0  0  0  0
  150.0611  131.0489  154.0508 H   0  0  0  0  0  0  0  0  0  0  0  0
  150.9277  129.6404  155.9108 H   0  0  0  0  0  0  0  0  0  0  0  0
  146.8724  131.7643  151.2029 H   0  0  0  0  0  0  0  0  0  0  0  0
  147.1875  133.1302  150.1693 H   0  0  0  0  0  0  0  0  0  0  0  0
  1  2  1  0  0  0  0
  1 23  1  0  0  0  0
  1 24  1  0  0  0  0
  1 25  1  0  0  0  0
  2 22  1  0  0  0  0
  2  3  1  0  0  0  0
  2 26  1  0  0  0  0
  3  4  1  0  0  0  0
  3 27  1  0  0  0  0
  3 28  1  0  0  0  0
  4  5  1  0  0  0  0
  4 29  1  0  0  0  0
  4 30  1  0  0  0  0
  5  6  1  0  0  0  0
  5  9  1  0  0  0  0
  5 31  1  0  0  0  0
  6  7  1  0  0  0  0
  6  8  1  0  0  0  0
  6 32  1  0  0  0  0
  7 33  1  0  0  0  0
  7 34  1  0  0  0  0
  7 35  1  0  0  0  0
  8 36  1  0  0  0  0
  8 37  1  0  0  0  0
  8 38  1  0  0  0  0
  9 10  1  0  0  0  0
  9 22  1  0  0  0  0
  9 39  1  0  0  0  0
 10 11  1  0  0  0  0
 10 40  1  0  0  0  0
 11 12  2  0  0  0  0
 11 13  1  0  0  0  0
 13 14  1  0  0  0  0
 13 41  1  0  0  0  0
 13 42  1  0  0  0  0
 14 20  1  0  0  0  0
 14 15  1  0  0  0  0
 15 16  2  0  0  0  0
 15 43  1  0  0  0  0
 16 17  1  0  0  0  0
 16 44  1  0  0  0  0
 17 18  2  0  0  0  0
 17 19  1  0  0  0  0
 19 20  1  0  0  0  0
 20 21  2  0  0  0  0
 22 45  1  0  0  0  0
 22 46  1  0  0  0  0
M  CHG  1  19  -1
M  END
> <s_m_source_file>
AV-unprocessed.smi

> <i_m_source_file_index>
2855

> <i_lp_mmshare_version>
43012

> <i_f3d_flags>
0

> <s_epik_input>
W0NIM11bQ0BASF0xW0NIMl1bQ0gyXVtDQEBIXShbQ0hdKFtDSDNdKVtDSDNdKVtDQEhdKFtDSDJdMSlbTkhdQyg9TylbQ0gyXW4yW2NIXVtjSF1jKD1PKVtuSF1jMj1P

> <s_epik_cmdline>
J2VwaWtfcHl0aG9uJywgJy1waCcsICc3LjAnLCAnLXRuJywgJzgnLCAnLW1hJywgJzIwMCcsICctbWV0YWxfYmluZGluZycsICctaW1hZScsICc8aW5maWxlLm1hZT4nLCAnLW9tYWUnLCAnPG91dGZpbGUubWFlPic=

> <r_lp_tautomer_probability>
0.999537

> <r_epik_Ionization_Penalty>
3.12102

> <r_epik_Ionization_Penalty_Charging>
2.9581e-08

> <r_epik_Ionization_Penalty_Neutral>
3.12102

> <r_epik_State_Penalty>
3.12011

> <r_epik_Charging_Adjusted_Penalty>
3.12011

> <i_epik_Tot_Q>
-1

> <i_epik_Tot_abs_Q>
1

> <r_epik_Metal_State_Penalty>
0.463583

> <b_epik_Metal_Only>
1

> <s_lp_Force_Field>
OPLS_2005

> <r_lp_Energy>
25.2964

> <b_lp_Chiralities_Consistent>
1

> <s_lp_Variant>
AV-unprocessed.smi:2855-14

> <Gold.Version>
5.8.1

> <Gold.Id.Protein>
6NUR|6NUR_protein|mol2

> <Gold.PLP.Fitness>
41.9244

> <Gold.PLP.PLP>
-34.5471

> <Gold.PLP.part.hbond>
-2.0000

> <Gold.PLP.part.metal>
0.0000

> <Gold.PLP.part.buried>
-2.0207

> <Gold.PLP.part.nonpolar>
-30.4724

> <Gold.PLP.part.repulsive>
0.0623

> <Gold.PLP.ligand.clash>
0.0000

> <Gold.PLP.ligand.torsion>
0.8593

> <Gold.PLP.Chemscore.Hbond>
3.0000

> <Gold.PLP.Chemscore.CHOScore>
0.0000

> <Gold.PLP.Chemscore.Metal>
0.0000

> <Gold.Chemscore.Hbonds>
donor molecule, donor type, donor heavy atom, donor atom, acceptor molecule, acceptor atom, score
      L1  H    10    40       P1  7948  1.00
      P1  H  6896  6907       L1    19  2.00

> <Gold.PLP.Chemscore.Internal.Correction>
0.0959

> <Gold.Rescore>
     Score         DG    S(hbond)    S(metal)    S(lipo)     H(rot)  DE(clash)    DE(int)     intcor
     13.35     -15.14       1.75        0.00      72.31       1.81       0.00       1.79       ----

> <Gold.Chemscore.Fitness>
13.3517

> <Gold.Chemscore.DG>
-15.1431

> <Gold.Chemscore.ZeroCoef>
-5.4800

> <Gold.Chemscore.Hbond>
1.7475

> <Gold.Chemscore.Metal>
0.0000

> <Gold.Chemscore.Lipo>
72.3062

> <Gold.Chemscore.Internal_Hbond>
0.0000

> <Gold.Chemscore.DEClash>
0.0015

> <Gold.Chemscore.DEInternal>
1.7899

> <Gold.Chemscore.Rot>
1.8100

> <Gold.Chemscore.Internal.Correction>
   9.000000E+99

> <Gold.Chemscore.Hbonds>
donor molecule, donor type, donor heavy atom, donor atom, acceptor molecule, acceptor atom, score
      L1  H    10    40       P1  7948  0.35
      P1  H  6896  6907       L1    19  0.70

> <Gold.Chemscore.Hbond.Weighted>
-5.8367

> <Gold.Chemscore.Metal.Weighted>
-0.0000

> <Gold.Chemscore.Lipo.Weighted>
-8.4598

> <Gold.Chemscore.Internal_Hbond.Weighted>
0.0000

> <Gold.Chemscore.DEClash.Weighted>
0.0015

> <Gold.Chemscore.DEInternal.Weighted>
1.7899

> <Gold.Chemscore.Rot.Weighted>
4.6335

> <Gold.Chemscore.Internal.Correction.Weighted>
   9.000000E+99

> <Gold.Protein.RotatedTorsions>
[ 6907 6896 6895 6894 ] final -161.21 input  -60.11 | X-H torsion
[ 7974 7965 7964 7962 ] final   18.73 input  175.53 | X-H torsion
[ 8008 7997 7996 7995 ] final  -80.24 input   59.86 | X-H torsion
[ 10167 10162 10161 10158 ] final -173.27 input  -65.29 | X-H torsion
[ 10718 10713 10712 10709 ] final  -43.12 input   66.30 | X-H torsion
[ 10763 10752 10751 10750 ] final -141.14 input  -60.55 | X-H torsion
[ 11005 11000 10999 10996 ] final -169.42 input  -57.11 | X-H torsion

> <Gold.Protein.ActiveResidues>
 VAL166  LYS551  ARG553  GLY616  TRP617  ASP618  TYR619  PRO620  LYS621  CYS622 
 ASP623  PHE694  ASN695  SER759  ASP760  ASP761  ALA762  ILE779  LEU786  VAL792 
 PHE793  MET794  SER795  GLU796  ALA797  LYS798  CYS799  TRP800  GLU811  SER814 

> <Gold.Protein.RotatedAtoms>
  151.3611  133.3889  159.2689 H   0  0  0  0  0  0  0  0  0  0  0  0  # atno 6907 bound_to 6896
  150.9725  134.9096  159.7807 H   0  0  0  0  0  0  0  0  0  0  0  0  # atno 6908 bound_to 6896
  152.5189  134.3573  159.9324 H   0  0  0  0  0  0  0  0  0  0  0  0  # atno 6909 bound_to 6896
  146.2175  139.8415  142.8640 H   0  0  0  0  0  0  0  0  0  0  0  0  # atno 7974 bound_to 7965
  154.5863  140.0666  156.9176 H   0  0  0  0  0  0  0  0  0  0  0  0  # atno 8008 bound_to 7997
  155.2373  140.3342  155.4278 H   0  0  0  0  0  0  0  0  0  0  0  0  # atno 8009 bound_to 7997
  156.2225  140.1805  156.7427 H   0  0  0  0  0  0  0  0  0  0  0  0  # atno 8010 bound_to 7997
  139.5698  144.1669  152.1367 H   0  0  0  0  0  0  0  0  0  0  0  0  # atno 10167 bound_to 10162
  156.2523  130.4189  149.8635 H   0  0  0  0  0  0  0  0  0  0  0  0  # atno 10718 bound_to 10713
  154.8555  135.3533  154.5820 H   0  0  0  0  0  0  0  0  0  0  0  0  # atno 10763 bound_to 10752
  153.6431  135.6997  153.5239 H   0  0  0  0  0  0  0  0  0  0  0  0  # atno 10764 bound_to 10752
  153.2955  135.4222  155.1164 H   0  0  0  0  0  0  0  0  0  0  0  0  # atno 10765 bound_to 10752
  140.5310  134.5616  157.5074 H   0  0  0  0  0  0  0  0  0  0  0  0  # atno 11005 bound_to 11000
  145.2894  141.0162  143.3672 LP  0  0  0  0  0  0  0  0  0  0  0  0  # atno 17320 bound_to 7965
  144.9089  139.4554  143.6596 LP  0  0  0  0  0  0  0  0  0  0  0  0  # atno 17321 bound_to 7965
  140.1199  144.5382  150.6869 LP  0  0  0  0  0  0  0  0  0  0  0  0  # atno 17342 bound_to 10162
  140.6982  143.2417  151.4940 LP  0  0  0  0  0  0  0  0  0  0  0  0  # atno 17343 bound_to 10162
  156.6179  130.8614  151.3469 LP  0  0  0  0  0  0  0  0  0  0  0  0  # atno 17370 bound_to 10713
  157.7219  130.9570  150.1474 LP  0  0  0  0  0  0  0  0  0  0  0  0  # atno 17371 bound_to 10713
  139.9554  134.7543  156.0353 LP  0  0  0  0  0  0  0  0  0  0  0  0  # atno 17394 bound_to 11000
  141.1281  133.6593  156.3392 LP  0  0  0  0  0  0  0  0  0  0  0  0  # atno 17395 bound_to 11000

$$$$
