AV-unprocessed.smi:1013|AV-procd|sdf|4429|dock7
  -GOLD-   22720 2383D 1   1.00000     0.00000
 Structure written by MMmdl.
 29 30  0  0  0  0  0  0  0  0  2 V2000
  152.2140  137.3256  159.1121 O   0  0  0  0  0  0  0  0  0  0  0  0
  151.8479  137.1253  157.9319 C   0  0  0  0  0  0  0  0  0  0  0  0
  152.5766  136.6820  157.0176 O   0  5  0  0  0  0  0  0  0  0  0  0
  150.3897  137.4320  157.5637 C   0  0  1  0  0  0  0  0  0  0  0  0
  149.6330  137.8957  158.8317 C   0  0  0  0  0  0  0  0  0  0  0  0
  148.8442  136.8484  159.4537 N   0  0  0  0  0  0  0  0  0  0  0  0
  148.4843  135.6247  158.9329 C   0  0  0  0  0  0  0  0  0  0  0  0
  147.7376  134.9851  159.8801 C   0  0  0  0  0  0  0  0  0  0  0  0
  147.6843  135.9107  160.9627 C   0  0  0  0  0  0  0  0  0  0  0  0
  146.9948  135.7551  162.2923 C   0  0  0  0  0  0  0  0  0  0  0  0
  145.6728  135.7463  162.1220 F   0  0  0  0  0  0  0  0  0  0  0  0
  147.3595  134.6110  162.8712 F   0  0  0  0  0  0  0  0  0  0  0  0
  147.3231  136.7656  163.0973 F   0  0  0  0  0  0  0  0  0  0  0  0
  148.3461  137.0283  160.6956 N   0  0  0  0  0  0  0  0  0  0  0  0
  150.3298  138.4346  156.4856 N   0  0  0  0  0  0  0  0  0  0  0  0
  150.6418  137.8493  155.1937 C   0  0  0  0  0  0  0  0  0  0  0  0
  151.5990  138.5998  154.2988 C   0  0  0  0  0  0  0  0  0  0  0  0
  150.1239  138.5686  153.9719 C   0  0  0  0  0  0  0  0  0  0  0  0
  149.9650  136.4929  157.2042 H   0  0  0  0  0  0  0  0  0  0  0  0
  150.3357  138.2615  159.5827 H   0  0  0  0  0  0  0  0  0  0  0  0
  148.9751  138.7338  158.5961 H   0  0  0  0  0  0  0  0  0  0  0  0
  148.7911  135.3130  157.9453 H   0  0  0  0  0  0  0  0  0  0  0  0
  147.2948  134.0028  159.8104 H   0  0  0  0  0  0  0  0  0  0  0  0
  150.9756  139.1886  156.6734 H   0  0  0  0  0  0  0  0  0  0  0  0
  150.6713  136.7667  155.0997 H   0  0  0  0  0  0  0  0  0  0  0  0
  152.0132  139.5361  154.6683 H   0  0  0  0  0  0  0  0  0  0  0  0
  152.2670  138.0092  153.6752 H   0  0  0  0  0  0  0  0  0  0  0  0
  149.8096  137.9594  153.1270 H   0  0  0  0  0  0  0  0  0  0  0  0
  149.5576  139.4861  154.1208 H   0  0  0  0  0  0  0  0  0  0  0  0
  1  2  2  0  0  0  0
  2  3  1  0  0  0  0
  2  4  1  0  0  0  0
  4  5  1  0  0  0  0
  4 15  1  0  0  0  0
  4 19  1  0  0  0  0
  5  6  1  0  0  0  0
  5 20  1  0  0  0  0
  5 21  1  0  0  0  0
  6 14  1  0  0  0  0
  6  7  1  0  0  0  0
  7  8  2  0  0  0  0
  7 22  1  0  0  0  0
  8  9  1  0  0  0  0
  8 23  1  0  0  0  0
  9 10  1  0  0  0  0
  9 14  2  0  0  0  0
 10 11  1  0  0  0  0
 10 12  1  0  0  0  0
 10 13  1  0  0  0  0
 15 16  1  0  0  0  0
 15 24  1  0  0  0  0
 16 18  1  0  0  0  0
 16 17  1  0  0  0  0
 16 25  1  0  0  0  0
 17 18  1  0  0  0  0
 17 26  1  0  0  0  0
 17 27  1  0  0  0  0
 18 28  1  0  0  0  0
 18 29  1  0  0  0  0
M  CHG  1   3  -1
M  END
> <s_m_source_file>
AV-unprocessed.smi

> <i_m_source_file_index>
1013

> <i_lp_mmshare_version>
43012

> <i_f3d_flags>
0

> <s_epik_input>
W0NIMl0xW0NIMl1bQ0hdMVtOSF1bQ0BIXShDKD1PKVtPSF0pW0NIMl1uMltjSF1bY0hdYyhuMilDKEYpKEYpRg==

> <s_epik_cmdline>
J2VwaWtfcHl0aG9uJywgJy1waCcsICc3LjAnLCAnLXRuJywgJzgnLCAnLW1hJywgJzIwMCcsICctbWV0YWxfYmluZGluZycsICctaW1hZScsICc8aW5maWxlLm1hZT4nLCAnLW9tYWUnLCAnPG91dGZpbGUubWFlPic=

> <r_lp_tautomer_probability>
1

> <r_epik_Ionization_Penalty>
0.786284

> <r_epik_Ionization_Penalty_Charging>
0.00153368

> <r_epik_Ionization_Penalty_Neutral>
0.78475

> <r_epik_State_Penalty>
0.814638

> <r_epik_Charging_Adjusted_Penalty>
0.816172

> <i_epik_Tot_Q>
-1

> <i_epik_Tot_abs_Q>
1

> <r_epik_Metal_State_Penalty>
0.814638

> <b_epik_Metal_Only>
0

> <s_lp_Force_Field>
OPLS_2005

> <r_lp_Energy>
17.111

> <b_lp_Chiralities_Consistent>
1

> <s_lp_Variant>
AV-unprocessed.smi:1013-4

> <Gold.Version>
5.8.1

> <Gold.Id.Protein>
6NUR|6NUR_protein|mol2

> <Gold.PLP.Fitness>
47.2308

> <Gold.PLP.PLP>
-35.1087

> <Gold.PLP.part.hbond>
-3.3105

> <Gold.PLP.part.metal>
0.0000

> <Gold.PLP.part.buried>
-4.9401

> <Gold.PLP.part.nonpolar>
-26.8480

> <Gold.PLP.part.repulsive>
0.0000

> <Gold.PLP.ligand.clash>
0.0000

> <Gold.PLP.ligand.torsion>
1.5208

> <Gold.PLP.Chemscore.Hbond>
4.8320

> <Gold.PLP.Chemscore.CHOScore>
0.0000

> <Gold.PLP.Chemscore.Metal>
0.0000

> <Gold.Chemscore.Hbonds>
donor molecule, donor type, donor heavy atom, donor atom, acceptor molecule, acceptor atom, score
      P1  H  6896  6907       L1     1  0.10
      P1  H  6931  6943       L1    14  0.90
      P1  H  6934  6947       L1    14  0.19
      P1  H 10752 10764       L1     3  0.32

> <Gold.PLP.Chemscore.Internal.Correction>
0.6677

> <Gold.Rescore>
     Score         DG    S(hbond)    S(metal)    S(lipo)     H(rot)  DE(clash)    DE(int)     intcor
     12.44     -14.37       2.71        0.00      53.66       2.52       0.22       1.71       ----

> <Gold.Chemscore.Fitness>
12.4357

> <Gold.Chemscore.DG>
-14.3690

> <Gold.Chemscore.ZeroCoef>
-5.4800

> <Gold.Chemscore.Hbond>
2.7098

> <Gold.Chemscore.Metal>
0.0000

> <Gold.Chemscore.Lipo>
53.6615

> <Gold.Chemscore.Internal_Hbond>
0.0000

> <Gold.Chemscore.DEClash>
0.2239

> <Gold.Chemscore.DEInternal>
1.7094

> <Gold.Chemscore.Rot>
2.5157

> <Gold.Chemscore.Internal.Correction>
   9.000000E+99

> <Gold.Chemscore.Hbonds>
donor molecule, donor type, donor heavy atom, donor atom, acceptor molecule, acceptor atom, score
      P1  H  6896  6907       L1     1  0.02
      P1  H  6931  6943       L1    14  0.87
      P1  H  6934  6947       L1    14  0.16
      P1  H 10752 10764       L1     3  0.16

> <Gold.Chemscore.Hbond.Weighted>
-9.0509

> <Gold.Chemscore.Metal.Weighted>
-0.0000

> <Gold.Chemscore.Lipo.Weighted>
-6.2784

> <Gold.Chemscore.Internal_Hbond.Weighted>
0.0000

> <Gold.Chemscore.DEClash.Weighted>
0.2239

> <Gold.Chemscore.DEInternal.Weighted>
1.7094

> <Gold.Chemscore.Rot.Weighted>
6.4402

> <Gold.Chemscore.Internal.Correction.Weighted>
   9.000000E+99

> <Gold.Protein.RotatedTorsions>
[ 6907 6896 6895 6894 ] final   17.55 input  -60.11 | X-H torsion
[ 7974 7965 7964 7962 ] final  106.89 input  175.53 | X-H torsion
[ 8008 7997 7996 7995 ] final   61.58 input   59.86 | X-H torsion
[ 10167 10162 10161 10158 ] final  -84.47 input  -65.29 | X-H torsion
[ 10718 10713 10712 10709 ] final  -14.75 input   66.30 | X-H torsion
[ 10763 10752 10751 10750 ] final    6.31 input  -60.55 | X-H torsion
[ 11005 11000 10999 10996 ] final  145.11 input  -57.11 | X-H torsion

> <Gold.Protein.ActiveResidues>
 VAL166  LYS551  ARG553  GLY616  TRP617  ASP618  TYR619  PRO620  LYS621  CYS622 
 ASP623  PHE694  ASN695  SER759  ASP760  ASP761  ALA762  ILE779  LEU786  VAL792 
 PHE793  MET794  SER795  GLU796  ALA797  LYS798  CYS799  TRP800  GLU811  SER814 

> <Gold.Protein.RotatedAtoms>
  151.8514  135.0556  160.0459 H   0  0  0  0  0  0  0  0  0  0  0  0  # atno 6907 bound_to 6896
  152.2734  133.5398  159.5461 H   0  0  0  0  0  0  0  0  0  0  0  0  # atno 6908 bound_to 6896
  150.7160  134.0582  159.3864 H   0  0  0  0  0  0  0  0  0  0  0  0  # atno 6909 bound_to 6896
  145.3008  139.2570  143.3815 H   0  0  0  0  0  0  0  0  0  0  0  0  # atno 7974 bound_to 7965
  155.6006  140.3494  155.4593 H   0  0  0  0  0  0  0  0  0  0  0  0  # atno 8008 bound_to 7997
  156.0231  140.1258  157.0361 H   0  0  0  0  0  0  0  0  0  0  0  0  # atno 8009 bound_to 7997
  154.4323  140.1058  156.5978 H   0  0  0  0  0  0  0  0  0  0  0  0  # atno 8010 bound_to 7997
  140.4129  143.2615  151.8994 H   0  0  0  0  0  0  0  0  0  0  0  0  # atno 10167 bound_to 10162
  156.6115  130.4851  149.6200 H   0  0  0  0  0  0  0  0  0  0  0  0  # atno 10718 bound_to 10713
  153.2493  135.6912  153.7697 H   0  0  0  0  0  0  0  0  0  0  0  0  # atno 10763 bound_to 10752
  153.6798  135.3330  155.3176 H   0  0  0  0  0  0  0  0  0  0  0  0  # atno 10764 bound_to 10752
  154.8387  135.4519  154.1443 H   0  0  0  0  0  0  0  0  0  0  0  0  # atno 10765 bound_to 10752
  140.0686  134.9165  157.1306 H   0  0  0  0  0  0  0  0  0  0  0  0  # atno 11005 bound_to 11000
  146.3153  140.3521  142.8657 LP  0  0  0  0  0  0  0  0  0  0  0  0  # atno 17320 bound_to 7965
  144.9095  140.7740  143.5816 LP  0  0  0  0  0  0  0  0  0  0  0  0  # atno 17321 bound_to 7965
  139.4782  144.5518  151.8374 LP  0  0  0  0  0  0  0  0  0  0  0  0  # atno 17342 bound_to 10162
  140.4618  144.1711  150.5907 LP  0  0  0  0  0  0  0  0  0  0  0  0  # atno 17343 bound_to 10162
  156.2386  130.6837  151.1533 LP  0  0  0  0  0  0  0  0  0  0  0  0  # atno 17370 bound_to 10713
  157.7253  131.0654  150.5959 LP  0  0  0  0  0  0  0  0  0  0  0  0  # atno 17371 bound_to 10713
  140.3662  134.2440  155.7182 LP  0  0  0  0  0  0  0  0  0  0  0  0  # atno 17394 bound_to 11000
  141.2003  133.7991  157.0497 LP  0  0  0  0  0  0  0  0  0  0  0  0  # atno 17395 bound_to 11000

$$$$
