AV-unprocessed.smi:1414|AV-procd|sdf|5762|dock7
  -GOLD-   22720 5403D 1   1.00000     0.00000
 Structure written by MMmdl.
 45 46  0  0  0  0  0  0  0  0  1 V2000
  148.8344  140.2992  154.0277 C   0  0  0  0  0  0  0  0  0  0  0  0
  149.8324  139.6844  155.0153 C   0  0  1  0  0  0  0  0  0  0  0  0
  150.3421  138.3164  154.5375 C   0  0  0  0  0  0  0  0  0  0  0  0
  151.4002  137.8076  155.4217 N   0  0  0  0  0  0  0  0  0  0  0  0
  151.2223  136.2909  156.2485 S   0  0  0  0  0  0  0  0  0  0  0  0
  152.5642  135.8832  156.6921 O   0  0  0  0  0  0  0  0  0  0  0  0
  150.1399  136.4407  157.2338 O   0  0  0  0  0  0  0  0  0  0  0  0
  150.6854  135.1212  154.9209 C   0  0  0  0  0  0  0  0  0  0  0  0
  149.2756  134.5598  155.1755 C   0  0  0  0  0  0  0  0  0  0  0  0
  148.4836  134.4905  153.9521 N   0  0  0  0  0  0  0  0  0  0  0  0
  147.6042  133.5286  153.6400 C   0  0  0  0  0  0  0  0  0  0  0  0
  147.3481  132.5751  154.3734 O   0  0  0  0  0  0  0  0  0  0  0  0
  147.0683  133.7362  152.4254 N   0  0  0  0  0  0  0  0  0  0  0  0
  146.0791  132.9636  151.7603 C   0  0  0  0  0  0  0  0  0  0  0  0
  145.2656  133.6042  150.8033 C   0  0  0  0  0  0  0  0  0  0  0  0
  144.2647  132.8622  150.1478 C   0  0  0  0  0  0  0  0  0  0  0  0
  144.1089  131.5037  150.4850 C   0  0  0  0  0  0  0  0  0  0  0  0
  144.8679  130.8791  151.4099 N   0  0  0  0  0  0  0  0  0  0  0  0
  145.8281  131.5959  152.0328 C   0  0  0  0  0  0  0  0  0  0  0  0
  152.4609  138.7644  155.7838 C   0  0  0  0  0  0  0  0  0  0  0  0
  151.9178  140.1775  156.0882 C   0  0  2  0  0  0  0  0  0  0  0  0
  151.4241  140.3567  157.5317 C   0  0  0  0  0  0  0  0  0  0  0  0
  150.9322  140.5781  155.1393 O   0  0  0  0  0  0  0  0  0  0  0  0
  147.9638  139.6558  153.8982 H   0  0  0  0  0  0  0  0  0  0  0  0
  149.2884  140.4494  153.0477 H   0  0  0  0  0  0  0  0  0  0  0  0
  148.4817  141.2675  154.3834 H   0  0  0  0  0  0  0  0  0  0  0  0
  149.3250  139.5745  155.9733 H   0  0  0  0  0  0  0  0  0  0  0  0
  149.5167  137.6064  154.4881 H   0  0  0  0  0  0  0  0  0  0  0  0
  150.7490  138.3984  153.5292 H   0  0  0  0  0  0  0  0  0  0  0  0
  150.7658  135.6185  153.9549 H   0  0  0  0  0  0  0  0  0  0  0  0
  151.4028  134.3004  154.9172 H   0  0  0  0  0  0  0  0  0  0  0  0
  149.3464  133.5431  155.5615 H   0  0  0  0  0  0  0  0  0  0  0  0
  148.7551  135.1439  155.9347 H   0  0  0  0  0  0  0  0  0  0  0  0
  148.6275  135.2317  153.2818 H   0  0  0  0  0  0  0  0  0  0  0  0
  147.4485  134.5061  151.8946 H   0  0  0  0  0  0  0  0  0  0  0  0
  145.4076  134.6492  150.5689 H   0  0  0  0  0  0  0  0  0  0  0  0
  143.6302  133.3230  149.4050 H   0  0  0  0  0  0  0  0  0  0  0  0
  143.3505  130.9045  150.0031 H   0  0  0  0  0  0  0  0  0  0  0  0
  146.3842  131.0522  152.7806 H   0  0  0  0  0  0  0  0  0  0  0  0
  153.0457  138.3918  156.6247 H   0  0  0  0  0  0  0  0  0  0  0  0
  153.1467  138.8243  154.9384 H   0  0  0  0  0  0  0  0  0  0  0  0
  152.7475  140.8743  155.9649 H   0  0  0  0  0  0  0  0  0  0  0  0
  152.2252  140.1642  158.2456 H   0  0  0  0  0  0  0  0  0  0  0  0
  150.6099  139.6773  157.7665 H   0  0  0  0  0  0  0  0  0  0  0  0
  151.0693  141.3735  157.6997 H   0  0  0  0  0  0  0  0  0  0  0  0
  1  2  1  0  0  0  0
  1 24  1  0  0  0  0
  1 25  1  0  0  0  0
  1 26  1  0  0  0  0
  2 23  1  0  0  0  0
  2  3  1  0  0  0  0
  2 27  1  0  0  0  0
  3  4  1  0  0  0  0
  3 28  1  0  0  0  0
  3 29  1  0  0  0  0
  4  5  1  0  0  0  0
  4 20  1  0  0  0  0
  5  6  2  0  0  0  0
  5  7  2  0  0  0  0
  5  8  1  0  0  0  0
  8  9  1  0  0  0  0
  8 30  1  0  0  0  0
  8 31  1  0  0  0  0
  9 10  1  0  0  0  0
  9 32  1  0  0  0  0
  9 33  1  0  0  0  0
 10 11  1  0  0  0  0
 10 34  1  0  0  0  0
 11 12  2  0  0  0  0
 11 13  1  0  0  0  0
 13 14  1  0  0  0  0
 13 35  1  0  0  0  0
 14 19  1  0  0  0  0
 14 15  2  0  0  0  0
 15 16  1  0  0  0  0
 15 36  1  0  0  0  0
 16 17  2  0  0  0  0
 16 37  1  0  0  0  0
 17 18  1  0  0  0  0
 17 38  1  0  0  0  0
 18 19  2  0  0  0  0
 19 39  1  0  0  0  0
 20 21  1  0  0  0  0
 20 40  1  0  0  0  0
 20 41  1  0  0  0  0
 21 22  1  0  0  0  0
 21 23  1  0  0  0  0
 21 42  1  0  0  0  0
 22 43  1  0  0  0  0
 22 44  1  0  0  0  0
 22 45  1  0  0  0  0
M  END
> <s_m_source_file>
AV-unprocessed.smi

> <i_m_source_file_index>
1414

> <i_lp_mmshare_version>
43012

> <i_f3d_flags>
0

> <s_epik_input>
W0NIM11bQ0BASF0xW0NIMl1OKFtDSDJdW0NASF0oTzEpW0NIM10pUyg9TykoPU8pW0NIMl1bQ0gyXVtOSF1DKD1PKVtOSF1jMltjSF1bY0hdW2NIXW5bY0hdMg==

> <s_epik_cmdline>
J2VwaWtfcHl0aG9uJywgJy1waCcsICc3LjAnLCAnLXRuJywgJzgnLCAnLW1hJywgJzIwMCcsICctbWV0YWxfYmluZGluZycsICctaW1hZScsICc8aW5maWxlLm1hZT4nLCAnLW9tYWUnLCAnPG91dGZpbGUubWFlPic=

> <r_epik_Ionization_Penalty>
0.00437531

> <r_epik_Ionization_Penalty_Charging>
0

> <r_epik_Ionization_Penalty_Neutral>
0.00437531

> <r_epik_State_Penalty>
0.00312896

> <r_epik_Charging_Adjusted_Penalty>
0.00312896

> <i_epik_Tot_Q>
0

> <i_epik_Tot_abs_Q>
0

> <r_epik_Metal_State_Penalty>
-0

> <b_epik_Metal_Only>
0

> <s_lp_Force_Field>
OPLS_2005

> <r_lp_Energy>
7.0755

> <b_lp_Chiralities_Consistent>
1

> <s_lp_Variant>
AV-unprocessed.smi:1414-3

> <Gold.Version>
5.8.1

> <Gold.Id.Protein>
6NUR|6NUR_protein|mol2

> <Gold.PLP.Fitness>
49.5619

> <Gold.PLP.PLP>
-37.5132

> <Gold.PLP.part.hbond>
-3.8239

> <Gold.PLP.part.metal>
0.0000

> <Gold.PLP.part.buried>
-2.4275

> <Gold.PLP.part.nonpolar>
-30.7452

> <Gold.PLP.part.repulsive>
0.2831

> <Gold.PLP.ligand.clash>
0.0000

> <Gold.PLP.ligand.torsion>
1.7992

> <Gold.PLP.Chemscore.Hbond>
3.5553

> <Gold.PLP.Chemscore.CHOScore>
0.9505

> <Gold.PLP.Chemscore.Metal>
0.0000

> <Gold.Chemscore.Hbonds>
donor molecule, donor type, donor heavy atom, donor atom, acceptor molecule, acceptor atom, score
      L1  H    10    34       P1  7948  1.00
      L1  H    13    35       P1  7948  0.46
      P1  H  7989  7998       L1    23  0.96
      P1  H 10752 10764       L1     6  0.95
      L1  C    17    38       P1 10952  0.76

> <Gold.PLP.Chemscore.Internal.Correction>
2.1299

> <Gold.Rescore>
     Score         DG    S(hbond)    S(metal)    S(lipo)     H(rot)  DE(clash)    DE(int)     intcor
     16.78     -19.85       2.27        0.00      92.50       1.57       0.18       2.89       ----

> <Gold.Chemscore.Fitness>
16.7814

> <Gold.Chemscore.DG>
-19.8520

> <Gold.Chemscore.ZeroCoef>
-5.4800

> <Gold.Chemscore.Hbond>
2.2652

> <Gold.Chemscore.Metal>
0.0000

> <Gold.Chemscore.Lipo>
92.4962

> <Gold.Chemscore.Internal_Hbond>
0.0000

> <Gold.Chemscore.DEClash>
0.1770

> <Gold.Chemscore.DEInternal>
2.8937

> <Gold.Chemscore.Rot>
1.5687

> <Gold.Chemscore.Internal.Correction>
   9.000000E+99

> <Gold.Chemscore.Hbonds>
donor molecule, donor type, donor heavy atom, donor atom, acceptor molecule, acceptor atom, score
      L1  H    10    34       P1  7948  0.82
      L1  H    13    35       P1  7948  0.24
      P1  H  7989  7998       L1    23  0.53
      P1  H 10752 10764       L1     6  0.22

> <Gold.Chemscore.Hbond.Weighted>
-7.5659

> <Gold.Chemscore.Metal.Weighted>
-0.0000

> <Gold.Chemscore.Lipo.Weighted>
-10.8221

> <Gold.Chemscore.Internal_Hbond.Weighted>
0.0000

> <Gold.Chemscore.DEClash.Weighted>
0.1770

> <Gold.Chemscore.DEInternal.Weighted>
2.8937

> <Gold.Chemscore.Rot.Weighted>
4.0160

> <Gold.Chemscore.Internal.Correction.Weighted>
   9.000000E+99

> <Gold.Protein.RotatedTorsions>
[ 6907 6896 6895 6894 ] final  -16.71 input  -60.11 | X-H torsion
[ 7974 7965 7964 7962 ] final  -47.60 input  175.53 | X-H torsion
[ 8008 7997 7996 7995 ] final  -90.37 input   59.86 | X-H torsion
[ 10167 10162 10161 10158 ] final  -79.63 input  -65.29 | X-H torsion
[ 10718 10713 10712 10709 ] final   15.43 input   66.30 | X-H torsion
[ 10763 10752 10751 10750 ] final  -22.87 input  -60.55 | X-H torsion
[ 11005 11000 10999 10996 ] final  -96.82 input  -57.11 | X-H torsion

> <Gold.Protein.ActiveResidues>
 VAL166  LYS551  ARG553  GLY616  TRP617  ASP618  TYR619  PRO620  LYS621  CYS622 
 ASP623  PHE694  ASN695  SER759  ASP760  ASP761  ALA762  ILE779  LEU786  VAL792 
 PHE793  MET794  SER795  GLU796  ALA797  LYS798  CYS799  TRP800  GLU811  SER814 

> <Gold.Protein.RotatedAtoms>
  151.3045  135.0777  159.9250 H   0  0  0  0  0  0  0  0  0  0  0  0  # atno 6907 bound_to 6896
  152.5291  133.9799  159.7812 H   0  0  0  0  0  0  0  0  0  0  0  0  # atno 6908 bound_to 6896
  151.0092  133.5930  159.2715 H   0  0  0  0  0  0  0  0  0  0  0  0  # atno 6909 bound_to 6896
  145.9599  140.7489  142.9462 H   0  0  0  0  0  0  0  0  0  0  0  0  # atno 7974 bound_to 7965
  154.6977  140.0531  157.0427 H   0  0  0  0  0  0  0  0  0  0  0  0  # atno 8008 bound_to 7997
  155.0727  140.3201  155.4606 H   0  0  0  0  0  0  0  0  0  0  0  0  # atno 8009 bound_to 7997
  156.2750  140.2079  156.5855 H   0  0  0  0  0  0  0  0  0  0  0  0  # atno 8010 bound_to 7997
  140.4576  143.2463  151.8397 H   0  0  0  0  0  0  0  0  0  0  0  0  # atno 10167 bound_to 10162
  157.0533  130.6279  149.5772 H   0  0  0  0  0  0  0  0  0  0  0  0  # atno 10718 bound_to 10713
  153.6587  135.6977  153.5184 H   0  0  0  0  0  0  0  0  0  0  0  0  # atno 10763 bound_to 10752
  153.2648  135.4233  155.0929 H   0  0  0  0  0  0  0  0  0  0  0  0  # atno 10764 bound_to 10752
  154.8457  135.3564  154.6132 H   0  0  0  0  0  0  0  0  0  0  0  0  # atno 10765 bound_to 10752
  141.1399  133.8126  157.0623 H   0  0  0  0  0  0  0  0  0  0  0  0  # atno 11005 bound_to 11000
  144.6813  140.2574  143.7323 LP  0  0  0  0  0  0  0  0  0  0  0  0  # atno 17320 bound_to 7965
  145.8054  139.1981  143.2024 LP  0  0  0  0  0  0  0  0  0  0  0  0  # atno 17321 bound_to 7965
  139.4803  144.5046  151.9015 LP  0  0  0  0  0  0  0  0  0  0  0  0  # atno 17342 bound_to 10162
  140.4132  144.2341  150.5888 LP  0  0  0  0  0  0  0  0  0  0  0  0  # atno 17343 bound_to 10162
  156.0001  130.5078  150.7629 LP  0  0  0  0  0  0  0  0  0  0  0  0  # atno 17370 bound_to 10713
  157.5013  131.0919  151.0311 LP  0  0  0  0  0  0  0  0  0  0  0  0  # atno 17371 bound_to 10713
  140.0563  134.9778  157.1227 LP  0  0  0  0  0  0  0  0  0  0  0  0  # atno 17394 bound_to 11000
  140.3914  134.2180  155.7166 LP  0  0  0  0  0  0  0  0  0  0  0  0  # atno 17395 bound_to 11000

$$$$
