AV-unprocessed.smi:1693|AV-procd|sdf|6786|dock10
  -GOLD-   22720 7543D 1   1.00000     0.00000
 Structure written by MMmdl.
 35 36  0  0  0  0  0  0  0  0  2 V2000
  154.4708  135.9226  164.4772 C   0  0  0  0  0  0  0  0  0  0  0  0
  154.2572  136.2131  163.0311 C   0  0  0  0  0  0  0  0  0  0  0  0
  154.1973  135.2541  162.1042 N   0  0  0  0  0  0  0  0  0  0  0  0
  153.9886  135.7687  160.8327 N   0  0  0  0  0  0  0  0  0  0  0  0
  153.8857  137.1053  160.8163 C   0  0  0  0  0  0  0  0  0  0  0  0
  153.6849  137.7980  159.6830 N   0  5  0  0  0  0  0  0  0  0  0  0
  154.1644  139.0573  159.5658 C   0  0  0  0  0  0  0  0  0  0  0  0
  155.2036  139.3907  158.9917 O   0  0  0  0  0  0  0  0  0  0  0  0
  153.3866  139.9858  160.1423 N   0  0  0  0  0  0  0  0  0  0  0  0
  153.6326  141.4275  160.1824 C   0  0  0  0  0  0  0  0  0  0  0  0
  152.4760  142.2665  159.5813 C   0  0  0  0  0  0  0  0  0  0  0  0
  151.4310  142.2647  160.5381 O   0  0  0  0  0  0  0  0  0  0  0  0
  152.9395  143.7337  159.4095 C   0  0  0  0  0  0  0  0  0  0  0  0
  151.8797  144.6334  158.7486 C   0  0  0  0  0  0  0  0  0  0  0  0
  151.4170  144.0528  157.4057 C   0  0  0  0  0  0  0  0  0  0  0  0
  150.8883  142.6231  157.5821 C   0  0  0  0  0  0  0  0  0  0  0  0
  151.9398  141.7096  158.2370 C   0  0  0  0  0  0  0  0  0  0  0  0
  154.0633  137.8431  162.4084 S   0  0  0  0  0  0  0  0  0  0  0  0
  153.5552  135.5265  164.9161 H   0  0  0  0  0  0  0  0  0  0  0  0
  154.7502  136.8317  165.0096 H   0  0  0  0  0  0  0  0  0  0  0  0
  155.2671  135.1883  164.6007 H   0  0  0  0  0  0  0  0  0  0  0  0
  152.5421  139.6624  160.5907 H   0  0  0  0  0  0  0  0  0  0  0  0
  153.8062  141.7132  161.2207 H   0  0  0  0  0  0  0  0  0  0  0  0
  154.5633  141.6571  159.6614 H   0  0  0  0  0  0  0  0  0  0  0  0
  151.7210  142.7481  161.2961 H   0  0  0  0  0  0  0  0  0  0  0  0
  153.2277  144.1549  160.3737 H   0  0  0  0  0  0  0  0  0  0  0  0
  153.8390  143.7545  158.7925 H   0  0  0  0  0  0  0  0  0  0  0  0
  151.0233  144.7493  159.4139 H   0  0  0  0  0  0  0  0  0  0  0  0
  152.2869  145.6336  158.5986 H   0  0  0  0  0  0  0  0  0  0  0  0
  150.6425  144.6861  156.9726 H   0  0  0  0  0  0  0  0  0  0  0  0
  152.2483  144.0517  156.6995 H   0  0  0  0  0  0  0  0  0  0  0  0
  149.9834  142.6400  158.1907 H   0  0  0  0  0  0  0  0  0  0  0  0
  150.5973  142.2143  156.6143 H   0  0  0  0  0  0  0  0  0  0  0  0
  152.7740  141.5831  157.5455 H   0  0  0  0  0  0  0  0  0  0  0  0
  151.5076  140.7178  158.3751 H   0  0  0  0  0  0  0  0  0  0  0  0
  1  2  1  0  0  0  0
  1 19  1  0  0  0  0
  1 20  1  0  0  0  0
  1 21  1  0  0  0  0
  2 18  1  0  0  0  0
  2  3  2  0  0  0  0
  3  4  1  0  0  0  0
  4  5  2  0  0  0  0
  5  6  1  0  0  0  0
  5 18  1  0  0  0  0
  6  7  1  0  0  0  0
  7  8  2  0  0  0  0
  7  9  1  0  0  0  0
  9 10  1  0  0  0  0
  9 22  1  0  0  0  0
 10 11  1  0  0  0  0
 10 23  1  0  0  0  0
 10 24  1  0  0  0  0
 11 17  1  0  0  0  0
 11 12  1  0  0  0  0
 11 13  1  0  0  0  0
 12 25  1  0  0  0  0
 13 14  1  0  0  0  0
 13 26  1  0  0  0  0
 13 27  1  0  0  0  0
 14 15  1  0  0  0  0
 14 28  1  0  0  0  0
 14 29  1  0  0  0  0
 15 16  1  0  0  0  0
 15 30  1  0  0  0  0
 15 31  1  0  0  0  0
 16 17  1  0  0  0  0
 16 32  1  0  0  0  0
 16 33  1  0  0  0  0
 17 34  1  0  0  0  0
 17 35  1  0  0  0  0
M  CHG  1   6  -1
M  END
> <s_m_source_file>
AV-unprocessed.smi

> <i_m_source_file_index>
1693

> <i_lp_mmshare_version>
43012

> <i_f3d_flags>
0

> <s_epik_input>
W0NIM11jMW5uYyhzMSlbTkhdQyg9TylbTkhdW0NIMl1DMihbT0hdKVtDSDJdW0NIMl1bQ0gyXVtDSDJdW0NIMl0y

> <s_epik_cmdline>
J2VwaWtfcHl0aG9uJywgJy1waCcsICc3LjAnLCAnLXRuJywgJzgnLCAnLW1hJywgJzIwMCcsICctbWV0YWxfYmluZGluZycsICctaW1hZScsICc8aW5maWxlLm1hZT4nLCAnLW9tYWUnLCAnPG91dGZpbGUubWFlPic=

> <r_lp_tautomer_probability>
1

> <r_epik_Ionization_Penalty>
4.37877

> <r_epik_Ionization_Penalty_Charging>
4.24206

> <r_epik_Ionization_Penalty_Neutral>
0.136706

> <r_epik_State_Penalty>
4.2416

> <r_epik_Charging_Adjusted_Penalty>
8.48367

> <i_epik_Tot_Q>
-1

> <i_epik_Tot_abs_Q>
1

> <r_epik_Metal_State_Penalty>
0.704476

> <b_epik_Metal_Only>
1

> <s_lp_Force_Field>
OPLS_2005

> <r_lp_Energy>
12.2595

> <b_lp_Chiralities_Consistent>
1

> <s_lp_Variant>
AV-unprocessed.smi:1693-2

> <Gold.Version>
5.8.1

> <Gold.Id.Protein>
6NUR|6NUR_protein|mol2

> <Gold.PLP.Fitness>
41.1880

> <Gold.PLP.PLP>
-37.4137

> <Gold.PLP.part.hbond>
-2.9712

> <Gold.PLP.part.metal>
0.0000

> <Gold.PLP.part.buried>
-3.7781

> <Gold.PLP.part.nonpolar>
-31.5037

> <Gold.PLP.part.repulsive>
0.0750

> <Gold.PLP.ligand.clash>
0.0000

> <Gold.PLP.ligand.torsion>
1.0619

> <Gold.PLP.Chemscore.Hbond>
1.9588

> <Gold.PLP.Chemscore.CHOScore>
0.0000

> <Gold.PLP.Chemscore.Metal>
0.0000

> <Gold.Chemscore.Hbonds>
donor molecule, donor type, donor heavy atom, donor atom, acceptor molecule, acceptor atom, score
      P1  H  6896  6909       L1     4  0.96
      P1  H  7997  8010       L1     8  0.98

> <Gold.PLP.Chemscore.Internal.Correction>
0.0219

> <Gold.Rescore>
     Score         DG    S(hbond)    S(metal)    S(lipo)     H(rot)  DE(clash)    DE(int)     intcor
     17.10     -18.40       1.74        0.00     100.72       1.83       0.16       1.15       ----

> <Gold.Chemscore.Fitness>
17.0981

> <Gold.Chemscore.DG>
-18.4034

> <Gold.Chemscore.ZeroCoef>
-5.4800

> <Gold.Chemscore.Hbond>
1.7439

> <Gold.Chemscore.Metal>
0.0000

> <Gold.Chemscore.Lipo>
100.7202

> <Gold.Chemscore.Internal_Hbond>
0.0000

> <Gold.Chemscore.DEClash>
0.1578

> <Gold.Chemscore.DEInternal>
1.1476

> <Gold.Chemscore.Rot>
1.8303

> <Gold.Chemscore.Internal.Correction>
   9.000000E+99

> <Gold.Chemscore.Hbonds>
donor molecule, donor type, donor heavy atom, donor atom, acceptor molecule, acceptor atom, score
      P1  H  6896  6909       L1     4  0.47
      P1  H  7997  8010       L1     8  0.93

> <Gold.Chemscore.Hbond.Weighted>
-5.8247

> <Gold.Chemscore.Metal.Weighted>
-0.0000

> <Gold.Chemscore.Lipo.Weighted>
-11.7843

> <Gold.Chemscore.Internal_Hbond.Weighted>
0.0000

> <Gold.Chemscore.DEClash.Weighted>
0.1578

> <Gold.Chemscore.DEInternal.Weighted>
1.1476

> <Gold.Chemscore.Rot.Weighted>
4.6855

> <Gold.Chemscore.Internal.Correction.Weighted>
   9.000000E+99

> <Gold.Protein.RotatedTorsions>
[ 6907 6896 6895 6894 ] final  174.56 input  -60.11 | X-H torsion
[ 7974 7965 7964 7962 ] final -102.92 input  175.53 | X-H torsion
[ 8008 7997 7996 7995 ] final  -30.91 input   59.86 | X-H torsion
[ 10167 10162 10161 10158 ] final -101.37 input  -65.29 | X-H torsion
[ 10718 10713 10712 10709 ] final   43.77 input   66.30 | X-H torsion
[ 10763 10752 10751 10750 ] final  -65.67 input  -60.55 | X-H torsion
[ 11005 11000 10999 10996 ] final   83.69 input  -57.11 | X-H torsion

> <Gold.Protein.ActiveResidues>
 VAL166  LYS551  ARG553  GLY616  TRP617  ASP618  TYR619  PRO620  LYS621  CYS622 
 ASP623  PHE694  ASN695  SER759  ASP760  ASP761  ALA762  ILE779  LEU786  VAL792 
 PHE793  MET794  SER795  GLU796  ALA797  LYS798  CYS799  TRP800  GLU811  SER814 

> <Gold.Protein.RotatedAtoms>
  151.7504  133.3327  159.3389 H   0  0  0  0  0  0  0  0  0  0  0  0  # atno 6907 bound_to 6896
  150.7538  134.6198  159.6139 H   0  0  0  0  0  0  0  0  0  0  0  0  # atno 6908 bound_to 6896
  152.3472  134.7056  160.0298 H   0  0  0  0  0  0  0  0  0  0  0  0  # atno 6909 bound_to 6896
  145.2626  140.9274  143.3032 H   0  0  0  0  0  0  0  0  0  0  0  0  # atno 7974 bound_to 7965
  154.4233  140.1778  156.1482 H   0  0  0  0  0  0  0  0  0  0  0  0  # atno 8008 bound_to 7997
  155.9937  140.3366  155.6753 H   0  0  0  0  0  0  0  0  0  0  0  0  # atno 8009 bound_to 7997
  155.6338  140.0672  157.2631 H   0  0  0  0  0  0  0  0  0  0  0  0  # atno 8010 bound_to 7997
  140.2420  143.3532  152.0793 H   0  0  0  0  0  0  0  0  0  0  0  0  # atno 10167 bound_to 10162
  157.4196  130.7961  149.7503 H   0  0  0  0  0  0  0  0  0  0  0  0  # atno 10718 bound_to 10713
  154.3485  135.6141  153.5631 H   0  0  0  0  0  0  0  0  0  0  0  0  # atno 10763 bound_to 10752
  152.9799  135.5786  154.4771 H   0  0  0  0  0  0  0  0  0  0  0  0  # atno 10764 bound_to 10752
  154.4488  135.2852  155.1773 H   0  0  0  0  0  0  0  0  0  0  0  0  # atno 10765 bound_to 10752
  139.9023  134.8163  156.2343 H   0  0  0  0  0  0  0  0  0  0  0  0  # atno 11005 bound_to 11000
  144.9405  139.4194  143.6451 LP  0  0  0  0  0  0  0  0  0  0  0  0  # atno 17320 bound_to 7965
  146.3271  139.8362  142.8899 LP  0  0  0  0  0  0  0  0  0  0  0  0  # atno 17321 bound_to 7965
  139.5074  144.6831  151.5957 LP  0  0  0  0  0  0  0  0  0  0  0  0  # atno 17342 bound_to 10162
  140.6106  143.9443  150.6450 LP  0  0  0  0  0  0  0  0  0  0  0  0  # atno 17343 bound_to 10162
  155.9876  130.3965  150.3157 LP  0  0  0  0  0  0  0  0  0  0  0  0  # atno 17370 bound_to 10713
  157.1303  131.0270  151.2972 LP  0  0  0  0  0  0  0  0  0  0  0  0  # atno 17371 bound_to 10713
  141.0325  133.6981  156.1455 LP  0  0  0  0  0  0  0  0  0  0  0  0  # atno 17394 bound_to 11000
  140.7075  134.4497  157.5583 LP  0  0  0  0  0  0  0  0  0  0  0  0  # atno 17395 bound_to 11000

$$$$
