AV-unprocessed.smi:2100|AV-procd|sdf|8574|dock3
  -GOLD-   2272011303D 1   1.00000     0.00000
 Structure written by MMmdl.
 41 42  0  0  0  0  0  0  0  0  1 V2000
  155.8161  133.6745  160.4703 C   0  0  0  0  0  0  0  0  0  0  0  0
  155.6917  135.0835  161.0598 C   0  0  1  0  0  0  0  0  0  0  0  0
  155.0079  136.0605  160.0862 C   0  0  0  0  0  0  0  0  0  0  0  0
  154.7861  137.3719  160.7204 N   0  0  0  0  0  0  0  0  0  0  0  0
  154.2764  138.6746  159.7009 S   0  0  0  0  0  0  0  0  0  0  0  0
  155.2572  138.8314  158.6160 O   0  0  0  0  0  0  0  0  0  0  0  0
  152.8438  138.5161  159.4066 O   0  0  0  0  0  0  0  0  0  0  0  0
  154.4515  139.9888  160.8071 N   0  0  0  0  0  0  0  0  0  0  0  0
  154.2030  141.3612  160.3609 C   0  0  0  0  0  0  0  0  0  0  0  0
  152.9923  141.9788  161.0789 C   0  0  0  0  0  0  0  0  0  0  0  0
  152.3935  143.1354  160.3012 C   0  0  0  0  0  0  0  0  0  0  0  0
  152.9925  143.5866  159.1058 C   0  0  0  0  0  0  0  0  0  0  0  0
  152.3984  144.6660  158.4234 C   0  0  0  0  0  0  0  0  0  0  0  0
  151.2358  145.2510  158.9610 C   0  0  0  0  0  0  0  0  0  0  0  0
  150.7170  144.7286  160.1625 C   0  0  0  0  0  0  0  0  0  0  0  0
  151.2785  143.6937  160.8241 N   0  0  0  0  0  0  0  0  0  0  0  0
  154.1405  137.2742  162.0389 C   0  0  0  0  0  0  0  0  0  0  0  0
  154.8562  136.2450  162.9333 C   0  0  1  0  0  0  0  0  0  0  0  0
  154.1220  136.0258  164.2607 C   0  0  0  0  0  0  0  0  0  0  0  0
  154.9310  134.9979  162.2567 O   0  0  0  0  0  0  0  0  0  0  0  0
  156.3982  133.6845  159.5485 H   0  0  0  0  0  0  0  0  0  0  0  0
  154.8364  133.2533  160.2434 H   0  0  0  0  0  0  0  0  0  0  0  0
  156.3137  133.0025  161.1699 H   0  0  0  0  0  0  0  0  0  0  0  0
  156.6938  135.4460  161.2962 H   0  0  0  0  0  0  0  0  0  0  0  0
  155.6193  136.1764  159.1916 H   0  0  0  0  0  0  0  0  0  0  0  0
  154.0453  135.6610  159.7637 H   0  0  0  0  0  0  0  0  0  0  0  0
  154.0491  139.7830  161.7210 H   0  0  0  0  0  0  0  0  0  0  0  0
  155.0996  141.9611  160.5219 H   0  0  0  0  0  0  0  0  0  0  0  0
  154.0216  141.3428  159.2860 H   0  0  0  0  0  0  0  0  0  0  0  0
  152.2264  141.2194  161.2416 H   0  0  0  0  0  0  0  0  0  0  0  0
  153.2784  142.3437  162.0658 H   0  0  0  0  0  0  0  0  0  0  0  0
  153.8857  143.1186  158.7193 H   0  0  0  0  0  0  0  0  0  0  0  0
  152.8274  145.0388  157.5052 H   0  0  0  0  0  0  0  0  0  0  0  0
  150.7538  146.0805  158.4652 H   0  0  0  0  0  0  0  0  0  0  0  0
  149.8278  145.1537  160.6041 H   0  0  0  0  0  0  0  0  0  0  0  0
  154.1464  138.2509  162.5232 H   0  0  0  0  0  0  0  0  0  0  0  0
  153.0958  136.9941  161.8965 H   0  0  0  0  0  0  0  0  0  0  0  0
  155.8667  136.5937  163.1538 H   0  0  0  0  0  0  0  0  0  0  0  0
  154.0536  136.9537  164.8291 H   0  0  0  0  0  0  0  0  0  0  0  0
  154.6447  135.2957  164.8790 H   0  0  0  0  0  0  0  0  0  0  0  0
  153.1087  135.6584  164.0958 H   0  0  0  0  0  0  0  0  0  0  0  0
  1  2  1  0  0  0  0
  1 21  1  0  0  0  0
  1 22  1  0  0  0  0
  1 23  1  0  0  0  0
  2 20  1  0  0  0  0
  2  3  1  0  0  0  0
  2 24  1  0  0  0  0
  3  4  1  0  0  0  0
  3 25  1  0  0  0  0
  3 26  1  0  0  0  0
  4  5  1  0  0  0  0
  4 17  1  0  0  0  0
  5  6  2  0  0  0  0
  5  7  2  0  0  0  0
  5  8  1  0  0  0  0
  8  9  1  0  0  0  0
  8 27  1  0  0  0  0
  9 10  1  0  0  0  0
  9 28  1  0  0  0  0
  9 29  1  0  0  0  0
 10 11  1  0  0  0  0
 10 30  1  0  0  0  0
 10 31  1  0  0  0  0
 11 16  1  0  0  0  0
 11 12  2  0  0  0  0
 12 13  1  0  0  0  0
 12 32  1  0  0  0  0
 13 14  2  0  0  0  0
 13 33  1  0  0  0  0
 14 15  1  0  0  0  0
 14 34  1  0  0  0  0
 15 16  2  0  0  0  0
 15 35  1  0  0  0  0
 17 18  1  0  0  0  0
 17 36  1  0  0  0  0
 17 37  1  0  0  0  0
 18 19  1  0  0  0  0
 18 20  1  0  0  0  0
 18 38  1  0  0  0  0
 19 39  1  0  0  0  0
 19 40  1  0  0  0  0
 19 41  1  0  0  0  0
M  END
> <s_m_source_file>
AV-unprocessed.smi

> <i_m_source_file_index>
2100

> <i_lp_mmshare_version>
43012

> <i_f3d_flags>
0

> <s_epik_input>
W0NIM11bQ0BASF0xW0NIMl1OKFtDSDJdW0NASF0oTzEpW0NIM10pUyg9TykoPU8pW05IXVtDSDJdW0NIMl1jMltjSF1bY0hdW2NIXVtjSF1uMg==

> <s_epik_cmdline>
J2VwaWtfcHl0aG9uJywgJy1waCcsICc3LjAnLCAnLXRuJywgJzgnLCAnLW1hJywgJzIwMCcsICctbWV0YWxfYmluZGluZycsICctaW1hZScsICc8aW5maWxlLm1hZT4nLCAnLW9tYWUnLCAnPG91dGZpbGUubWFlPic=

> <r_epik_Ionization_Penalty>
0.085378

> <r_epik_Ionization_Penalty_Charging>
0

> <r_epik_Ionization_Penalty_Neutral>
0.085378

> <r_epik_State_Penalty>
0.0441186

> <r_epik_Charging_Adjusted_Penalty>
0.0441186

> <i_epik_Tot_Q>
0

> <i_epik_Tot_abs_Q>
0

> <r_epik_Metal_State_Penalty>
0.24397

> <b_epik_Metal_Only>
0

> <s_lp_Force_Field>
OPLS_2005

> <r_lp_Energy>
5.36855

> <b_lp_Chiralities_Consistent>
1

> <s_lp_Variant>
AV-unprocessed.smi:2100-2

> <Gold.Version>
5.8.1

> <Gold.Id.Protein>
6NUR|6NUR_protein|mol2

> <Gold.PLP.Fitness>
46.9620

> <Gold.PLP.PLP>
-44.9217

> <Gold.PLP.part.hbond>
-1.1466

> <Gold.PLP.part.metal>
0.0000

> <Gold.PLP.part.buried>
-5.4614

> <Gold.PLP.part.nonpolar>
-37.6984

> <Gold.PLP.part.repulsive>
0.1239

> <Gold.PLP.ligand.clash>
0.0000

> <Gold.PLP.ligand.torsion>
0.8576

> <Gold.PLP.Chemscore.Hbond>
1.0000

> <Gold.PLP.Chemscore.CHOScore>
0.0000

> <Gold.PLP.Chemscore.Metal>
0.0000

> <Gold.Chemscore.Hbonds>
donor molecule, donor type, donor heavy atom, donor atom, acceptor molecule, acceptor atom, score
      P1  H  7997  8008       L1     6  1.00

> <Gold.PLP.Chemscore.Internal.Correction>
0.7555

> <Gold.Rescore>
     Score         DG    S(hbond)    S(metal)    S(lipo)     H(rot)  DE(clash)    DE(int)     intcor
     17.96     -18.87       0.96        0.00     124.39       1.71       0.02       0.88       ----

> <Gold.Chemscore.Fitness>
17.9620

> <Gold.Chemscore.DG>
-18.8672

> <Gold.Chemscore.ZeroCoef>
-5.4800

> <Gold.Chemscore.Hbond>
0.9584

> <Gold.Chemscore.Metal>
0.0000

> <Gold.Chemscore.Lipo>
124.3893

> <Gold.Chemscore.Internal_Hbond>
0.0000

> <Gold.Chemscore.DEClash>
0.0247

> <Gold.Chemscore.DEInternal>
0.8804

> <Gold.Chemscore.Rot>
1.7060

> <Gold.Chemscore.Internal.Correction>
   9.000000E+99

> <Gold.Chemscore.Hbonds>
donor molecule, donor type, donor heavy atom, donor atom, acceptor molecule, acceptor atom, score
      P1  H  7997  8008       L1     6  1.00

> <Gold.Chemscore.Hbond.Weighted>
-3.2010

> <Gold.Chemscore.Metal.Weighted>
-0.0000

> <Gold.Chemscore.Lipo.Weighted>
-14.5535

> <Gold.Chemscore.Internal_Hbond.Weighted>
0.0000

> <Gold.Chemscore.DEClash.Weighted>
0.0247

> <Gold.Chemscore.DEInternal.Weighted>
0.8804

> <Gold.Chemscore.Rot.Weighted>
4.3674

> <Gold.Chemscore.Internal.Correction.Weighted>
   9.000000E+99

> <Gold.Protein.RotatedTorsions>
[ 6907 6896 6895 6894 ] final    7.93 input  -60.11 | X-H torsion
[ 7974 7965 7964 7962 ] final  -89.21 input  175.53 | X-H torsion
[ 8008 7997 7996 7995 ] final -126.43 input   59.86 | X-H torsion
[ 10167 10162 10161 10158 ] final  -80.74 input  -65.29 | X-H torsion
[ 10718 10713 10712 10709 ] final  -49.59 input   66.30 | X-H torsion
[ 10763 10752 10751 10750 ] final  -82.29 input  -60.55 | X-H torsion
[ 11005 11000 10999 10996 ] final  -62.81 input  -57.11 | X-H torsion

> <Gold.Protein.ActiveResidues>
 VAL166  LYS551  ARG553  GLY616  TRP617  ASP618  TYR619  PRO620  LYS621  CYS622 
 ASP623  PHE694  ASN695  SER759  ASP760  ASP761  ALA762  ILE779  LEU786  VAL792 
 PHE793  MET794  SER795  GLU796  ALA797  LYS798  CYS799  TRP800  GLU811  SER814 

> <Gold.Protein.RotatedAtoms>
  151.6978  135.0935  160.0245 H   0  0  0  0  0  0  0  0  0  0  0  0  # atno 6907 bound_to 6896
  152.3739  133.6451  159.6117 H   0  0  0  0  0  0  0  0  0  0  0  0  # atno 6908 bound_to 6896
  150.7694  133.9141  159.3420 H   0  0  0  0  0  0  0  0  0  0  0  0  # atno 6909 bound_to 6896
  145.4428  140.9559  143.2065 H   0  0  0  0  0  0  0  0  0  0  0  0  # atno 7974 bound_to 7965
  155.2296  140.0425  157.2960 H   0  0  0  0  0  0  0  0  0  0  0  0  # atno 8008 bound_to 7997
  154.5897  140.2423  155.7908 H   0  0  0  0  0  0  0  0  0  0  0  0  # atno 8009 bound_to 7997
  156.2250  140.2957  156.0054 H   0  0  0  0  0  0  0  0  0  0  0  0  # atno 8010 bound_to 7997
  140.4475  143.2494  151.8536 H   0  0  0  0  0  0  0  0  0  0  0  0  # atno 10167 bound_to 10162
  156.1879  130.4152  149.9413 H   0  0  0  0  0  0  0  0  0  0  0  0  # atno 10718 bound_to 10713
  154.5740  135.5596  153.7122 H   0  0  0  0  0  0  0  0  0  0  0  0  # atno 10763 bound_to 10752
  153.0058  135.6304  154.2075 H   0  0  0  0  0  0  0  0  0  0  0  0  # atno 10764 bound_to 10752
  154.2015  135.2877  155.2969 H   0  0  0  0  0  0  0  0  0  0  0  0  # atno 10765 bound_to 10752
  141.1372  133.6644  156.5584 H   0  0  0  0  0  0  0  0  0  0  0  0  # atno 11005 bound_to 11000
  144.8110  139.5962  143.7029 LP  0  0  0  0  0  0  0  0  0  0  0  0  # atno 17320 bound_to 7965
  146.2547  139.6275  142.9403 LP  0  0  0  0  0  0  0  0  0  0  0  0  # atno 17321 bound_to 7965
  139.4794  144.5158  151.8870 LP  0  0  0  0  0  0  0  0  0  0  0  0  # atno 17342 bound_to 10162
  140.4246  144.2198  150.5887 LP  0  0  0  0  0  0  0  0  0  0  0  0  # atno 17343 bound_to 10162
  156.7163  130.8989  151.3614 LP  0  0  0  0  0  0  0  0  0  0  0  0  # atno 17370 bound_to 10713
  157.6910  130.9234  150.0515 LP  0  0  0  0  0  0  0  0  0  0  0  0  # atno 17371 bound_to 10713
  140.4007  134.7359  157.4778 LP  0  0  0  0  0  0  0  0  0  0  0  0  # atno 17394 bound_to 11000
  140.0498  134.6147  155.8876 LP  0  0  0  0  0  0  0  0  0  0  0  0  # atno 17395 bound_to 11000

$$$$
