AV-unprocessed.smi:414|AV-procd|sdf|2514|dock7
  -GOLD-   2262022463D 1   1.00000     0.00000
 Structure written by MMmdl.
 38 39  0  0  0  0  0  0  0  0  1 V2000
  152.5059  144.1157  159.6266 C   0  0  0  0  0  0  0  0  0  0  0  0
  152.3238  142.9686  158.6227 C   0  0  2  0  0  0  0  0  0  0  0  0
  151.2100  143.2812  157.6053 C   0  0  0  0  0  0  0  0  0  0  0  0
  151.0233  142.1330  156.6001 C   0  0  0  0  0  0  0  0  0  0  0  0
  150.7391  140.7994  157.3146 C   0  0  1  0  0  0  0  0  0  0  0  0
  150.6251  139.7300  156.3276 N   0  0  0  0  0  0  0  0  0  0  0  0
  151.6451  139.2016  155.6338 C   0  0  0  0  0  0  0  0  0  0  0  0
  152.8097  139.5866  155.7484 O   0  0  0  0  0  0  0  0  0  0  0  0
  151.2805  138.0846  154.6455 C   0  0  0  0  0  0  0  0  0  0  0  0
  150.6172  136.9411  155.2888 N   0  0  0  0  0  0  0  0  0  0  0  0
  149.3135  136.6066  154.9509 C   0  0  0  0  0  0  0  0  0  0  0  0
  148.6472  135.5607  155.4947 C   0  0  0  0  0  0  0  0  0  0  0  0
  149.2915  134.7122  156.4916 C   0  0  0  0  0  0  0  0  0  0  0  0
  148.7714  133.7443  157.0421 O   0  0  0  0  0  0  0  0  0  0  0  0
  150.6033  135.0795  156.8032 N   0  0  0  0  0  0  0  0  0  0  0  0
  151.2963  136.1551  156.2453 C   0  0  0  0  0  0  0  0  0  0  0  0
  152.4546  136.3893  156.5885 O   0  0  0  0  0  0  0  0  0  0  0  0
  151.8502  140.4830  158.3358 C   0  0  0  0  0  0  0  0  0  0  0  0
  152.0373  141.6342  159.3374 C   0  0  0  0  0  0  0  0  0  0  0  0
  151.0912  134.5188  157.4866 H   0  0  0  0  0  0  0  0  0  0  0  0
  151.6003  144.2783  160.2119 H   0  0  0  0  0  0  0  0  0  0  0  0
  152.7454  145.0495  159.1168 H   0  0  0  0  0  0  0  0  0  0  0  0
  153.3184  143.9035  160.3222 H   0  0  0  0  0  0  0  0  0  0  0  0
  153.2606  142.8612  158.0737 H   0  0  0  0  0  0  0  0  0  0  0  0
  150.2702  143.4600  158.1298 H   0  0  0  0  0  0  0  0  0  0  0  0
  151.4426  144.2013  157.0680 H   0  0  0  0  0  0  0  0  0  0  0  0
  150.2065  142.3730  155.9182 H   0  0  0  0  0  0  0  0  0  0  0  0
  151.9210  142.0416  155.9866 H   0  0  0  0  0  0  0  0  0  0  0  0
  149.7891  140.8960  157.8443 H   0  0  0  0  0  0  0  0  0  0  0  0
  149.7006  139.3580  156.1656 H   0  0  0  0  0  0  0  0  0  0  0  0
  150.6492  138.4858  153.8498 H   0  0  0  0  0  0  0  0  0  0  0  0
  152.1965  137.7601  154.1493 H   0  0  0  0  0  0  0  0  0  0  0  0
  148.7980  137.2048  154.2130 H   0  0  0  0  0  0  0  0  0  0  0  0
  147.6324  135.3499  155.1896 H   0  0  0  0  0  0  0  0  0  0  0  0
  151.6154  139.5657  158.8772 H   0  0  0  0  0  0  0  0  0  0  0  0
  152.7911  140.3010  157.8143 H   0  0  0  0  0  0  0  0  0  0  0  0
  152.8527  141.3936  160.0203 H   0  0  0  0  0  0  0  0  0  0  0  0
  151.1400  141.7291  159.9504 H   0  0  0  0  0  0  0  0  0  0  0  0
  1  2  1  0  0  0  0
  1 21  1  0  0  0  0
  1 22  1  0  0  0  0
  1 23  1  0  0  0  0
  2 19  1  0  0  0  0
  2  3  1  0  0  0  0
  2 24  1  0  0  0  0
  3  4  1  0  0  0  0
  3 25  1  0  0  0  0
  3 26  1  0  0  0  0
  4  5  1  0  0  0  0
  4 27  1  0  0  0  0
  4 28  1  0  0  0  0
  5  6  1  0  0  0  0
  5 18  1  0  0  0  0
  5 29  1  0  0  0  0
  6  7  1  0  0  0  0
  6 30  1  0  0  0  0
  7  8  2  0  0  0  0
  7  9  1  0  0  0  0
  9 10  1  0  0  0  0
  9 31  1  0  0  0  0
  9 32  1  0  0  0  0
 10 16  1  0  0  0  0
 10 11  1  0  0  0  0
 11 12  2  0  0  0  0
 11 33  1  0  0  0  0
 12 13  1  0  0  0  0
 12 34  1  0  0  0  0
 13 14  2  0  0  0  0
 13 15  1  0  0  0  0
 15 20  1  0  0  0  0
 15 16  1  0  0  0  0
 16 17  2  0  0  0  0
 18 19  1  0  0  0  0
 18 35  1  0  0  0  0
 18 36  1  0  0  0  0
 19 37  1  0  0  0  0
 19 38  1  0  0  0  0
M  END
> <s_m_source_file>
AV-unprocessed.smi

> <i_m_source_file_index>
414

> <i_lp_mmshare_version>
43012

> <i_f3d_flags>
0

> <s_epik_input>
W0NIM11bQ0BASF0xW0NIMl1bQ0gyXVtDQEhdKFtDSDJdW0NIMl0xKVtOSF1DKD1PKVtDSDJdbjJbY0hdW2NIXWMoPU8pW25IXWMyPU8=

> <s_epik_cmdline>
J2VwaWtfcHl0aG9uJywgJy1waCcsICc3LjAnLCAnLXRuJywgJzgnLCAnLW1hJywgJzIwMCcsICctbWV0YWxfYmluZGluZycsICctaW1hZScsICc8aW5maWxlLm1hZT4nLCAnLW9tYWUnLCAnPG91dGZpbGUubWFlPic=

> <r_lp_tautomer_probability>
0.999537

> <r_epik_Ionization_Penalty>
0.00309124

> <r_epik_Ionization_Penalty_Charging>
0.00309122

> <r_epik_Ionization_Penalty_Neutral>
1.90469e-08

> <r_epik_State_Penalty>
0.00217484

> <r_epik_Charging_Adjusted_Penalty>
0.00526606

> <i_epik_Tot_Q>
0

> <i_epik_Tot_abs_Q>
0

> <r_epik_Metal_State_Penalty>
0.362537

> <b_epik_Metal_Only>
0

> <s_lp_Force_Field>
OPLS_2005

> <r_lp_Energy>
8.30971

> <b_lp_Chiralities_Consistent>
1

> <s_lp_Variant>
AV-unprocessed.smi:414-1

> <Gold.Version>
5.8.1

> <Gold.Id.Protein>
6NUR|6NUR_protein|mol2

> <Gold.PLP.Fitness>
38.1986

> <Gold.PLP.PLP>
-30.4672

> <Gold.PLP.part.hbond>
-2.0000

> <Gold.PLP.part.metal>
0.0000

> <Gold.PLP.part.buried>
-3.5145

> <Gold.PLP.part.nonpolar>
-25.3046

> <Gold.PLP.part.repulsive>
0.1963

> <Gold.PLP.ligand.clash>
0.0000

> <Gold.PLP.ligand.torsion>
0.1345

> <Gold.PLP.Chemscore.Hbond>
2.0000

> <Gold.PLP.Chemscore.CHOScore>
0.6652

> <Gold.PLP.Chemscore.Metal>
0.0000

> <Gold.Chemscore.Hbonds>
donor molecule, donor type, donor heavy atom, donor atom, acceptor molecule, acceptor atom, score
      P1  H  7997  8008       L1     8  1.00
      P1  H 10752 10763       L1    17  1.00
      L1  C    11    33       P1  7948  0.64

> <Gold.PLP.Chemscore.Internal.Correction>
0.0047

> <Gold.Rescore>
     Score         DG    S(hbond)    S(metal)    S(lipo)     H(rot)  DE(clash)    DE(int)     intcor
     15.32     -16.72       1.94        0.00      77.50       1.69       0.03       1.36       ----

> <Gold.Chemscore.Fitness>
15.3230

> <Gold.Chemscore.DG>
-16.7177

> <Gold.Chemscore.ZeroCoef>
-5.4800

> <Gold.Chemscore.Hbond>
1.9432

> <Gold.Chemscore.Metal>
0.0000

> <Gold.Chemscore.Lipo>
77.4986

> <Gold.Chemscore.Internal_Hbond>
0.0000

> <Gold.Chemscore.DEClash>
0.0340

> <Gold.Chemscore.DEInternal>
1.3607

> <Gold.Chemscore.Rot>
1.6874

> <Gold.Chemscore.Internal.Correction>
   9.000000E+99

> <Gold.Chemscore.Hbonds>
donor molecule, donor type, donor heavy atom, donor atom, acceptor molecule, acceptor atom, score
      P1  H  7997  8008       L1     8  1.00
      P1  H 10752 10763       L1    17  0.30

> <Gold.Chemscore.Hbond.Weighted>
-6.4901

> <Gold.Chemscore.Metal.Weighted>
-0.0000

> <Gold.Chemscore.Lipo.Weighted>
-9.0673

> <Gold.Chemscore.Internal_Hbond.Weighted>
0.0000

> <Gold.Chemscore.DEClash.Weighted>
0.0340

> <Gold.Chemscore.DEInternal.Weighted>
1.3607

> <Gold.Chemscore.Rot.Weighted>
4.3198

> <Gold.Chemscore.Internal.Correction.Weighted>
   9.000000E+99

> <Gold.Protein.RotatedTorsions>
[ 6907 6896 6895 6894 ] final -132.86 input  -60.11 | X-H torsion
[ 7974 7965 7964 7962 ] final -137.53 input  175.53 | X-H torsion
[ 8008 7997 7996 7995 ] final  -23.77 input   59.86 | X-H torsion
[ 10167 10162 10161 10158 ] final  100.67 input  -65.29 | X-H torsion
[ 10718 10713 10712 10709 ] final  -21.63 input   66.30 | X-H torsion
[ 10763 10752 10751 10750 ] final  110.64 input  -60.55 | X-H torsion
[ 11005 11000 10999 10996 ] final  157.63 input  -57.11 | X-H torsion

> <Gold.Protein.ActiveResidues>
 VAL166  LYS551  ARG553  GLY616  TRP617  ASP618  TYR619  PRO620  LYS621  CYS622 
 ASP623  PHE694  ASN695  SER759  ASP760  ASP761  ALA762  ILE779  LEU786  VAL792 
 PHE793  MET794  SER795  GLU796  ALA797  LYS798  CYS799  TRP800  GLU811  SER814 

> <Gold.Protein.RotatedAtoms>
  150.9672  133.6382  159.2743 H   0  0  0  0  0  0  0  0  0  0  0  0  # atno 6907 bound_to 6896
  151.3683  135.0916  159.9467 H   0  0  0  0  0  0  0  0  0  0  0  0  # atno 6908 bound_to 6896
  152.5170  133.9232  159.7599 H   0  0  0  0  0  0  0  0  0  0  0  0  # atno 6909 bound_to 6896
  144.8834  140.6540  143.5191 H   0  0  0  0  0  0  0  0  0  0  0  0  # atno 7974 bound_to 7965
  154.4566  140.1971  156.0362 H   0  0  0  0  0  0  0  0  0  0  0  0  # atno 8008 bound_to 7997
  156.0758  140.3278  155.7604 H   0  0  0  0  0  0  0  0  0  0  0  0  # atno 8009 bound_to 7997
  155.5190  140.0568  157.2901 H   0  0  0  0  0  0  0  0  0  0  0  0  # atno 8010 bound_to 7997
  139.7506  144.6985  151.0437 H   0  0  0  0  0  0  0  0  0  0  0  0  # atno 10167 bound_to 10162
  156.5156  130.4620  149.6624 H   0  0  0  0  0  0  0  0  0  0  0  0  # atno 10718 bound_to 10713
  153.4518  135.3742  155.2288 H   0  0  0  0  0  0  0  0  0  0  0  0  # atno 10763 bound_to 10752
  154.8756  135.3887  154.4029 H   0  0  0  0  0  0  0  0  0  0  0  0  # atno 10764 bound_to 10752
  153.4589  135.7086  153.6126 H   0  0  0  0  0  0  0  0  0  0  0  0  # atno 10765 bound_to 10752
  140.1788  134.8490  157.2778 H   0  0  0  0  0  0  0  0  0  0  0  0  # atno 11005 bound_to 11000
  145.3913  139.1616  143.4227 LP  0  0  0  0  0  0  0  0  0  0  0  0  # atno 17320 bound_to 7965
  146.3009  140.4002  142.8704 LP  0  0  0  0  0  0  0  0  0  0  0  0  # atno 17321 bound_to 7965
  140.7797  143.4813  151.0014 LP  0  0  0  0  0  0  0  0  0  0  0  0  # atno 17342 bound_to 10162
  139.8501  143.7450  152.3178 LP  0  0  0  0  0  0  0  0  0  0  0  0  # atno 17343 bound_to 10162
  156.3198  130.7274  151.2184 LP  0  0  0  0  0  0  0  0  0  0  0  0  # atno 17370 bound_to 10713
  157.7444  131.0458  150.4864 LP  0  0  0  0  0  0  0  0  0  0  0  0  # atno 17371 bound_to 10713
  140.2291  134.3930  155.7530 LP  0  0  0  0  0  0  0  0  0  0  0  0  # atno 17394 bound_to 11000
  141.2222  133.7206  156.8613 LP  0  0  0  0  0  0  0  0  0  0  0  0  # atno 17395 bound_to 11000

$$$$
