AV-unprocessed.smi:2750|AV-procd|sdf|10593|dock3
  -GOLD-   2272015 43D 1   1.00000     0.00000
 Structure written by MMmdl.
 24 25  0  0  0  0  0  0  0  0  3 V2000
  146.7983  137.6686  159.9015 O   0  0  0  0  0  0  0  0  0  0  0  0
  147.8448  136.9845  159.8693 C   0  0  0  0  0  0  0  0  0  0  0  0
  148.5186  136.6360  160.8639 O   0  5  0  0  0  0  0  0  0  0  0  0
  148.3352  136.5214  158.4974 C   0  0  0  0  0  0  0  0  0  0  0  0
  149.6581  137.0316  158.1863 N   0  0  0  0  0  0  0  0  0  0  0  0
  150.0446  137.8317  157.1307 C   0  0  0  0  0  0  0  0  0  0  0  0
  151.3830  138.0090  157.3383 C   0  0  0  0  0  0  0  0  0  0  0  0
  152.3678  138.7953  156.5223 C   0  0  0  0  0  0  0  0  0  0  0  0
  151.9113  139.0255  155.0640 C   0  0  2  0  0  0  0  0  0  0  0  0
  150.7740  139.9275  154.9825 N   0  5  0  0  0  0  0  0  0  0  0  0
  149.7539  139.2813  154.3718 C   0  0  0  0  0  0  0  0  0  0  0  0
  148.6348  139.7180  154.1127 O   0  0  0  0  0  0  0  0  0  0  0  0
  150.1069  138.0305  154.0583 N   0  0  0  0  0  0  0  0  0  0  0  0
  151.3541  137.7638  154.4325 C   0  0  0  0  0  0  0  0  0  0  0  0
  151.9623  136.7023  154.3002 O   0  0  0  0  0  0  0  0  0  0  0  0
  151.7502  137.3182  158.4936 N   0  0  0  0  0  0  0  0  0  0  0  0
  150.7066  136.7316  158.9903 N   0  0  0  0  0  0  0  0  0  0  0  0
  148.3670  135.4314  158.4691 H   0  0  0  0  0  0  0  0  0  0  0  0
  147.6338  136.8373  157.7232 H   0  0  0  0  0  0  0  0  0  0  0  0
  149.3677  138.1822  156.3660 H   0  0  0  0  0  0  0  0  0  0  0  0
  152.5290  139.7600  157.0055 H   0  0  0  0  0  0  0  0  0  0  0  0
  153.3407  138.3009  156.5358 H   0  0  0  0  0  0  0  0  0  0  0  0
  152.7556  139.3607  154.4597 H   0  0  0  0  0  0  0  0  0  0  0  0
  149.4969  137.3681  153.6031 H   0  0  0  0  0  0  0  0  0  0  0  0
  1  2  2  0  0  0  0
  2  3  1  0  0  0  0
  2  4  1  0  0  0  0
  4  5  1  0  0  0  0
  4 18  1  0  0  0  0
  4 19  1  0  0  0  0
  5 17  1  0  0  0  0
  5  6  1  0  0  0  0
  6  7  2  0  0  0  0
  6 20  1  0  0  0  0
  7  8  1  0  0  0  0
  7 16  1  0  0  0  0
  8  9  1  0  0  0  0
  8 21  1  0  0  0  0
  8 22  1  0  0  0  0
  9 14  1  0  0  0  0
  9 10  1  0  0  0  0
  9 23  1  0  0  0  0
 10 11  1  0  0  0  0
 11 12  2  0  0  0  0
 11 13  1  0  0  0  0
 13 14  1  0  0  0  0
 13 24  1  0  0  0  0
 14 15  2  0  0  0  0
 16 17  2  0  0  0  0
M  CHG  1   3  -1
M  CHG  1  10  -1
M  END
> <s_m_source_file>
AV-unprocessed.smi

> <i_m_source_file_index>
2750

> <i_lp_mmshare_version>
43012

> <i_f3d_flags>
0

> <s_epik_input>
Tz1DKFtPSF0pW0NIMl1uMVtjSF1jKG5uMSlbQ0gyXVtDQEBIXTJbTkhdQyg9TylbTkhdQzI9Tw==

> <s_epik_cmdline>
J2VwaWtfcHl0aG9uJywgJy1waCcsICc3LjAnLCAnLXRuJywgJzgnLCAnLW1hJywgJzIwMCcsICctbWV0YWxfYmluZGluZycsICctaW1hZScsICc8aW5maWxlLm1hZT4nLCAnLW9tYWUnLCAnPG91dGZpbGUubWFlPic=

> <r_lp_tautomer_probability>
1

> <r_epik_Ionization_Penalty>
5.10791

> <r_epik_Ionization_Penalty_Charging>
5.10788

> <r_epik_Ionization_Penalty_Neutral>
2.55687e-05

> <r_epik_State_Penalty>
5.12334

> <r_epik_Charging_Adjusted_Penalty>
10.2312

> <i_epik_Tot_Q>
-2

> <i_epik_Tot_abs_Q>
2

> <r_epik_Metal_State_Penalty>
1.50935

> <b_epik_Metal_Only>
1

> <s_lp_Force_Field>
OPLS_2005

> <r_lp_Energy>
16.0951

> <b_lp_Chiralities_Consistent>
1

> <s_lp_Variant>
AV-unprocessed.smi:2750-5

> <Gold.Version>
5.8.1

> <Gold.Id.Protein>
6NUR|6NUR_protein|mol2

> <Gold.PLP.Fitness>
42.6963

> <Gold.PLP.PLP>
-22.1197

> <Gold.PLP.part.hbond>
-5.6576

> <Gold.PLP.part.metal>
0.0000

> <Gold.PLP.part.buried>
-6.0002

> <Gold.PLP.part.nonpolar>
-12.9984

> <Gold.PLP.part.repulsive>
1.3487

> <Gold.PLP.ligand.clash>
0.0009

> <Gold.PLP.ligand.torsion>
0.3842

> <Gold.PLP.Chemscore.Hbond>
7.1114

> <Gold.PLP.Chemscore.CHOScore>
0.0000

> <Gold.PLP.Chemscore.Metal>
0.0000

> <Gold.Chemscore.Hbonds>
donor molecule, donor type, donor heavy atom, donor atom, acceptor molecule, acceptor atom, score
      L1  H    13    24       P1  7948  0.76
      P1  H  6896  6908       L1    17  1.00
      P1  H  6931  6943       L1     3  2.00
      P1  H  6934  6947       L1     1  2.00
      P1  H  7989  7998       L1    10  0.50
      P1  H 10752 10765       L1    15  0.84

> <Gold.PLP.Chemscore.Internal.Correction>
0.0117

> <Gold.Rescore>
     Score         DG    S(hbond)    S(metal)    S(lipo)     H(rot)  DE(clash)    DE(int)     intcor
      9.62     -13.54       3.74        0.00      23.35       2.80       0.26       3.65       ----

> <Gold.Chemscore.Fitness>
9.6231

> <Gold.Chemscore.DG>
-13.5358

> <Gold.Chemscore.ZeroCoef>
-5.4800

> <Gold.Chemscore.Hbond>
3.7382

> <Gold.Chemscore.Metal>
0.0000

> <Gold.Chemscore.Lipo>
23.3451

> <Gold.Chemscore.Internal_Hbond>
0.0000

> <Gold.Chemscore.DEClash>
0.2616

> <Gold.Chemscore.DEInternal>
3.6511

> <Gold.Chemscore.Rot>
2.7973

> <Gold.Chemscore.Internal.Correction>
   9.000000E+99

> <Gold.Chemscore.Hbonds>
donor molecule, donor type, donor heavy atom, donor atom, acceptor molecule, acceptor atom, score
      L1  H    13    24       P1  7948  0.66
      P1  H  6896  6908       L1    17  0.81
      P1  H  6931  6943       L1     3  0.66
      P1  H  6934  6947       L1     1  0.53
      P1  H  7989  7998       L1    10  0.01
      P1  H 10752 10765       L1    15  0.78

> <Gold.Chemscore.Hbond.Weighted>
-12.4856

> <Gold.Chemscore.Metal.Weighted>
-0.0000

> <Gold.Chemscore.Lipo.Weighted>
-2.7314

> <Gold.Chemscore.Internal_Hbond.Weighted>
0.0000

> <Gold.Chemscore.DEClash.Weighted>
0.2616

> <Gold.Chemscore.DEInternal.Weighted>
3.6511

> <Gold.Chemscore.Rot.Weighted>
7.1611

> <Gold.Chemscore.Internal.Correction.Weighted>
   9.000000E+99

> <Gold.Protein.RotatedTorsions>
[ 6907 6896 6895 6894 ] final -145.66 input  -60.11 | X-H torsion
[ 7974 7965 7964 7962 ] final  -12.71 input  175.53 | X-H torsion
[ 8008 7997 7996 7995 ] final -119.72 input   59.86 | X-H torsion
[ 10167 10162 10161 10158 ] final  -47.01 input  -65.29 | X-H torsion
[ 10718 10713 10712 10709 ] final  111.50 input   66.30 | X-H torsion
[ 10763 10752 10751 10750 ] final  176.27 input  -60.55 | X-H torsion
[ 11005 11000 10999 10996 ] final -133.00 input  -57.11 | X-H torsion

> <Gold.Protein.ActiveResidues>
 VAL166  LYS551  ARG553  GLY616  TRP617  ASP618  TYR619  PRO620  LYS621  CYS622 
 ASP623  PHE694  ASN695  SER759  ASP760  ASP761  ALA762  ILE779  LEU786  VAL792 
 PHE793  MET794  SER795  GLU796  ALA797  LYS798  CYS799  TRP800  GLU811  SER814 

> <Gold.Protein.RotatedAtoms>
  151.1309  133.5037  159.2598 H   0  0  0  0  0  0  0  0  0  0  0  0  # atno 6907 bound_to 6896
  151.1759  135.0338  159.8781 H   0  0  0  0  0  0  0  0  0  0  0  0  # atno 6908 bound_to 6896
  152.5459  134.1167  159.8435 H   0  0  0  0  0  0  0  0  0  0  0  0  # atno 6909 bound_to 6896
  146.2142  140.3098  142.8381 H   0  0  0  0  0  0  0  0  0  0  0  0  # atno 7974 bound_to 7965
  155.1203  140.0398  157.2748 H   0  0  0  0  0  0  0  0  0  0  0  0  # atno 8008 bound_to 7997
  154.6619  140.2593  155.7074 H   0  0  0  0  0  0  0  0  0  0  0  0  # atno 8009 bound_to 7997
  156.2622  140.2815  156.1094 H   0  0  0  0  0  0  0  0  0  0  0  0  # atno 8010 bound_to 7997
  140.6793  143.2804  151.3865 H   0  0  0  0  0  0  0  0  0  0  0  0  # atno 10167 bound_to 10162
  157.6441  131.0951  150.6757 H   0  0  0  0  0  0  0  0  0  0  0  0  # atno 10718 bound_to 10713
  154.4789  135.2774  155.1586 H   0  0  0  0  0  0  0  0  0  0  0  0  # atno 10763 bound_to 10752
  154.3304  135.6191  153.5552 H   0  0  0  0  0  0  0  0  0  0  0  0  # atno 10764 bound_to 10752
  152.9873  135.5764  154.5186 H   0  0  0  0  0  0  0  0  0  0  0  0  # atno 10765 bound_to 10752
  140.9120  134.1555  157.4382 H   0  0  0  0  0  0  0  0  0  0  0  0  # atno 11005 bound_to 11000
  144.8997  140.7627  143.5875 LP  0  0  0  0  0  0  0  0  0  0  0  0  # atno 17320 bound_to 7965
  145.3023  139.1846  143.4683 LP  0  0  0  0  0  0  0  0  0  0  0  0  # atno 17321 bound_to 7965
  139.6105  144.1108  152.2294 LP  0  0  0  0  0  0  0  0  0  0  0  0  # atno 17342 bound_to 10162
  140.0520  144.5925  150.7328 LP  0  0  0  0  0  0  0  0  0  0  0  0  # atno 17343 bound_to 10162
  156.7077  130.4642  149.5556 LP  0  0  0  0  0  0  0  0  0  0  0  0  # atno 17370 bound_to 10713
  156.1751  130.6463  151.0885 LP  0  0  0  0  0  0  0  0  0  0  0  0  # atno 17371 bound_to 10713
  139.8759  134.9939  156.5668 LP  0  0  0  0  0  0  0  0  0  0  0  0  # atno 17394 bound_to 11000
  140.8098  133.8438  155.8800 LP  0  0  0  0  0  0  0  0  0  0  0  0  # atno 17395 bound_to 11000

$$$$
