AV-unprocessed.smi:951|AV-procd|sdf|4254|dock2
  -GOLD-   22720 2163D 1   1.00000     0.00000
 Structure written by MMmdl.
 52 54  0  0  0  0  0  0  0  0  2 V2000
  150.0837  137.8423  159.4750 O   0  0  0  0  0  0  0  0  0  0  0  0
  149.6063  137.8632  158.3396 C   0  0  0  0  0  0  0  0  0  0  0  0
  149.9616  138.7602  157.4062 N   0  0  0  0  0  0  0  0  0  0  0  0
  150.9497  139.8215  157.5833 C   0  0  0  0  0  0  0  0  0  0  0  0
  150.3990  141.2128  157.2127 C   0  0  0  0  0  0  0  0  0  0  0  0
  151.1344  142.3656  157.8757 C   0  0  0  0  0  0  0  0  0  0  0  0
  152.2543  142.1580  158.7093 C   0  0  0  0  0  0  0  0  0  0  0  0
  152.9121  143.2727  159.2702 C   0  0  0  0  0  0  0  0  0  0  0  0
  152.4369  144.5698  158.9864 C   0  0  0  0  0  0  0  0  0  0  0  0
  151.3145  144.7201  158.1473 C   0  0  0  0  0  0  0  0  0  0  0  0
  150.7119  143.6278  157.6292 N   0  3  0  0  0  0  0  0  0  0  0  0
  148.5845  136.7957  157.9039 C   0  0  1  0  0  0  0  0  0  0  0  0
  149.1358  136.0280  156.6911 C   0  0  0  0  0  0  0  0  0  0  0  0
  148.5325  134.6428  156.8049 C   0  0  0  0  0  0  0  0  0  0  0  0
  148.3378  134.4274  158.3043 C   0  0  0  0  0  0  0  0  0  0  0  0
  148.2883  135.7600  158.9151 N   0  0  0  0  0  0  0  0  0  0  0  0
  147.9247  136.0009  160.2022 C   0  0  0  0  0  0  0  0  0  0  0  0
  147.7759  137.1472  160.6267 O   0  0  0  0  0  0  0  0  0  0  0  0
  147.6762  134.8098  161.1614 C   0  0  0  0  0  0  0  0  0  0  0  0
  146.5475  133.8835  160.6508 C   0  0  0  0  0  0  0  0  0  0  0  0
  145.1404  134.4641  160.8747 C   0  0  0  0  0  0  0  0  0  0  0  0
  144.9113  134.7908  162.3568 C   0  0  0  0  0  0  0  0  0  0  0  0
  145.9761  135.7653  162.8810 C   0  0  0  0  0  0  0  0  0  0  0  0
  147.4048  135.2415  162.6261 C   0  0  0  0  0  0  0  0  0  0  0  0
  149.5123  138.7034  156.5035 H   0  0  0  0  0  0  0  0  0  0  0  0
  151.2621  139.8211  158.6278 H   0  0  0  0  0  0  0  0  0  0  0  0
  151.8488  139.6113  157.0015 H   0  0  0  0  0  0  0  0  0  0  0  0
  150.4412  141.3452  156.1305 H   0  0  0  0  0  0  0  0  0  0  0  0
  149.3436  141.2697  157.4809 H   0  0  0  0  0  0  0  0  0  0  0  0
  152.6116  141.1583  158.9103 H   0  0  0  0  0  0  0  0  0  0  0  0
  153.7721  143.1344  159.9089 H   0  0  0  0  0  0  0  0  0  0  0  0
  152.9278  145.4364  159.4047 H   0  0  0  0  0  0  0  0  0  0  0  0
  150.8856  145.6732  157.8739 H   0  0  0  0  0  0  0  0  0  0  0  0
  147.6386  137.2715  157.6378 H   0  0  0  0  0  0  0  0  0  0  0  0
  148.8902  136.5107  155.7445 H   0  0  0  0  0  0  0  0  0  0  0  0
  150.2228  135.9368  156.7392 H   0  0  0  0  0  0  0  0  0  0  0  0
  147.5602  134.6343  156.3105 H   0  0  0  0  0  0  0  0  0  0  0  0
  149.1469  133.8702  156.3415 H   0  0  0  0  0  0  0  0  0  0  0  0
  147.4366  133.8448  158.4982 H   0  0  0  0  0  0  0  0  0  0  0  0
  149.1918  133.8830  158.7099 H   0  0  0  0  0  0  0  0  0  0  0  0
  148.5893  134.2192  161.2093 H   0  0  0  0  0  0  0  0  0  0  0  0
  146.6841  133.6638  159.5913 H   0  0  0  0  0  0  0  0  0  0  0  0
  146.6197  132.9235  161.1634 H   0  0  0  0  0  0  0  0  0  0  0  0
  145.0035  135.3627  160.2722 H   0  0  0  0  0  0  0  0  0  0  0  0
  144.3898  133.7504  160.5341 H   0  0  0  0  0  0  0  0  0  0  0  0
  143.9174  135.2172  162.4951 H   0  0  0  0  0  0  0  0  0  0  0  0
  144.9376  133.8707  162.9420 H   0  0  0  0  0  0  0  0  0  0  0  0
  145.8369  136.7405  162.4157 H   0  0  0  0  0  0  0  0  0  0  0  0
  145.8315  135.9244  163.9499 H   0  0  0  0  0  0  0  0  0  0  0  0
  147.5768  134.3825  163.2760 H   0  0  0  0  0  0  0  0  0  0  0  0
  148.1305  135.9941  162.9375 H   0  0  0  0  0  0  0  0  0  0  0  0
  149.9052  143.7604  157.0191 H   0  0  0  0  0  0  0  0  0  0  0  0
  1  2  2  0  0  0  0
  2  3  1  0  0  0  0
  2 12  1  0  0  0  0
  3  4  1  0  0  0  0
  3 25  1  0  0  0  0
  4  5  1  0  0  0  0
  4 26  1  0  0  0  0
  4 27  1  0  0  0  0
  5  6  1  0  0  0  0
  5 28  1  0  0  0  0
  5 29  1  0  0  0  0
  6 11  1  0  0  0  0
  6  7  2  0  0  0  0
  7  8  1  0  0  0  0
  7 30  1  0  0  0  0
  8  9  2  0  0  0  0
  8 31  1  0  0  0  0
  9 10  1  0  0  0  0
  9 32  1  0  0  0  0
 10 11  2  0  0  0  0
 10 33  1  0  0  0  0
 11 52  1  0  0  0  0
 12 16  1  0  0  0  0
 12 13  1  0  0  0  0
 12 34  1  0  0  0  0
 13 14  1  0  0  0  0
 13 35  1  0  0  0  0
 13 36  1  0  0  0  0
 14 15  1  0  0  0  0
 14 37  1  0  0  0  0
 14 38  1  0  0  0  0
 15 16  1  0  0  0  0
 15 39  1  0  0  0  0
 15 40  1  0  0  0  0
 16 17  1  0  0  0  0
 17 18  2  0  0  0  0
 17 19  1  0  0  0  0
 19 24  1  0  0  0  0
 19 20  1  0  0  0  0
 19 41  1  0  0  0  0
 20 21  1  0  0  0  0
 20 42  1  0  0  0  0
 20 43  1  0  0  0  0
 21 22  1  0  0  0  0
 21 44  1  0  0  0  0
 21 45  1  0  0  0  0
 22 23  1  0  0  0  0
 22 46  1  0  0  0  0
 22 47  1  0  0  0  0
 23 24  1  0  0  0  0
 23 48  1  0  0  0  0
 23 49  1  0  0  0  0
 24 50  1  0  0  0  0
 24 51  1  0  0  0  0
M  CHG  1  11   1
M  END
> <s_m_source_file>
AV-unprocessed.smi

> <i_m_source_file_index>
951

> <i_lp_mmshare_version>
43012

> <i_f3d_flags>
0

> <s_epik_input>
bjFbY0hdW2NIXVtjSF1bY0hdYzFbQ0gyXVtDSDJdW05IXUMoPU8pW0NAQEhdMltDSDJdW0NIMl1bQ0gyXU4yQyg9TylbQ0hdM1tDSDJdW0NIMl1bQ0gyXVtDSDJdW0NIMl0z

> <s_epik_cmdline>
J2VwaWtfcHl0aG9uJywgJy1waCcsICc3LjAnLCAnLXRuJywgJzgnLCAnLW1hJywgJzIwMCcsICctbWV0YWxfYmluZGluZycsICctaW1hZScsICc8aW5maWxlLm1hZT4nLCAnLW9tYWUnLCAnPG91dGZpbGUubWFlPic=

> <r_epik_Ionization_Penalty>
1.85306

> <r_epik_Ionization_Penalty_Charging>
1.85306

> <r_epik_Ionization_Penalty_Neutral>
5.78903e-08

> <r_epik_State_Penalty>
1.97071

> <r_epik_Charging_Adjusted_Penalty>
3.82377

> <i_epik_Tot_Q>
1

> <i_epik_Tot_abs_Q>
1

> <r_epik_Metal_State_Penalty>
1.99634

> <b_epik_Metal_Only>
0

> <s_lp_Force_Field>
OPLS_2005

> <r_lp_Energy>
29.0494

> <b_lp_Chiralities_Consistent>
1

> <s_lp_Variant>
AV-unprocessed.smi:951-4

> <Gold.Version>
5.8.1

> <Gold.Id.Protein>
6NUR|6NUR_protein|mol2

> <Gold.PLP.Fitness>
52.5159

> <Gold.PLP.PLP>
-41.9520

> <Gold.PLP.part.hbond>
-4.0000

> <Gold.PLP.part.metal>
0.0000

> <Gold.PLP.part.buried>
-6.5139

> <Gold.PLP.part.nonpolar>
-31.9126

> <Gold.PLP.part.repulsive>
0.0347

> <Gold.PLP.ligand.clash>
0.0000

> <Gold.PLP.ligand.torsion>
0.2138

> <Gold.PLP.Chemscore.Hbond>
3.6320

> <Gold.PLP.Chemscore.CHOScore>
0.0000

> <Gold.PLP.Chemscore.Metal>
0.0000

> <Gold.Chemscore.Hbonds>
donor molecule, donor type, donor heavy atom, donor atom, acceptor molecule, acceptor atom, score
      L1  H    11    52       P1  8028  2.00
      P1  H  6931  6943       L1    18  0.68
      P1  H  6934  6947       L1    18  0.88

> <Gold.PLP.Chemscore.Internal.Correction>
0.0955

> <Gold.Rescore>
     Score         DG    S(hbond)    S(metal)    S(lipo)     H(rot)  DE(clash)    DE(int)     intcor
     18.67     -23.80       2.52        0.00     120.73       1.65       0.04       5.09       ----

> <Gold.Chemscore.Fitness>
18.6680

> <Gold.Chemscore.DG>
-23.7977

> <Gold.Chemscore.ZeroCoef>
-5.4800

> <Gold.Chemscore.Hbond>
2.5234

> <Gold.Chemscore.Metal>
0.0000

> <Gold.Chemscore.Lipo>
120.7332

> <Gold.Chemscore.Internal_Hbond>
0.0000

> <Gold.Chemscore.DEClash>
0.0405

> <Gold.Chemscore.DEInternal>
5.0892

> <Gold.Chemscore.Rot>
1.6548

> <Gold.Chemscore.Internal.Correction>
   9.000000E+99

> <Gold.Chemscore.Hbonds>
donor molecule, donor type, donor heavy atom, donor atom, acceptor molecule, acceptor atom, score
      L1  H    11    52       P1  8028  0.93
      P1  H  6931  6943       L1    18  0.65
      P1  H  6934  6947       L1    18  0.84

> <Gold.Chemscore.Hbond.Weighted>
-8.4281

> <Gold.Chemscore.Metal.Weighted>
-0.0000

> <Gold.Chemscore.Lipo.Weighted>
-14.1258

> <Gold.Chemscore.Internal_Hbond.Weighted>
0.0000

> <Gold.Chemscore.DEClash.Weighted>
0.0405

> <Gold.Chemscore.DEInternal.Weighted>
5.0892

> <Gold.Chemscore.Rot.Weighted>
4.2362

> <Gold.Chemscore.Internal.Correction.Weighted>
   9.000000E+99

> <Gold.Protein.RotatedTorsions>
[ 6907 6896 6895 6894 ] final   90.89 input  -60.11 | X-H torsion
[ 7974 7965 7964 7962 ] final -150.91 input  175.53 | X-H torsion
[ 8008 7997 7996 7995 ] final -177.10 input   59.86 | X-H torsion
[ 10167 10162 10161 10158 ] final  113.41 input  -65.29 | X-H torsion
[ 10718 10713 10712 10709 ] final  172.73 input   66.30 | X-H torsion
[ 10763 10752 10751 10750 ] final  140.09 input  -60.55 | X-H torsion
[ 11005 11000 10999 10996 ] final   88.32 input  -57.11 | X-H torsion

> <Gold.Protein.ActiveResidues>
 VAL166  LYS551  ARG553  GLY616  TRP617  ASP618  TYR619  PRO620  LYS621  CYS622 
 ASP623  PHE694  ASN695  SER759  ASP760  ASP761  ALA762  ILE779  LEU786  VAL792 
 PHE793  MET794  SER795  GLU796  ALA797  LYS798  CYS799  TRP800  GLU811  SER814 

> <Gold.Protein.RotatedAtoms>
  152.5447  134.1742  159.8608 H   0  0  0  0  0  0  0  0  0  0  0  0  # atno 6907 bound_to 6896
  151.1749  133.4754  159.2601 H   0  0  0  0  0  0  0  0  0  0  0  0  # atno 6908 bound_to 6896
  151.1237  135.0104  159.8605 H   0  0  0  0  0  0  0  0  0  0  0  0  # atno 6909 bound_to 6896
  144.7880  140.4868  143.5793 H   0  0  0  0  0  0  0  0  0  0  0  0  # atno 7974 bound_to 7965
  156.0029  140.1224  157.0530 H   0  0  0  0  0  0  0  0  0  0  0  0  # atno 8008 bound_to 7997
  154.4248  140.1103  156.5791 H   0  0  0  0  0  0  0  0  0  0  0  0  # atno 8009 bound_to 7997
  155.6188  140.3472  155.4647 H   0  0  0  0  0  0  0  0  0  0  0  0  # atno 8010 bound_to 7997
  139.6463  144.7126  151.2135 H   0  0  0  0  0  0  0  0  0  0  0  0  # atno 10167 bound_to 10162
  156.9746  131.0100  151.2897 H   0  0  0  0  0  0  0  0  0  0  0  0  # atno 10718 bound_to 10713
  153.9169  135.3005  155.3448 H   0  0  0  0  0  0  0  0  0  0  0  0  # atno 10763 bound_to 10752
  154.7595  135.4941  153.9440 H   0  0  0  0  0  0  0  0  0  0  0  0  # atno 10764 bound_to 10752
  153.1162  135.6771  153.9516 H   0  0  0  0  0  0  0  0  0  0  0  0  # atno 10765 bound_to 10752
  139.8899  134.8480  156.2984 H   0  0  0  0  0  0  0  0  0  0  0  0  # atno 11005 bound_to 11000
  145.5870  139.1493  143.3203 LP  0  0  0  0  0  0  0  0  0  0  0  0  # atno 17320 bound_to 7965
  146.2120  140.5998  142.9055 LP  0  0  0  0  0  0  0  0  0  0  0  0  # atno 17321 bound_to 7965
  140.7516  143.6225  150.8500 LP  0  0  0  0  0  0  0  0  0  0  0  0  # atno 17342 bound_to 10162
  139.9868  143.5891  152.2924 LP  0  0  0  0  0  0  0  0  0  0  0  0  # atno 17343 bound_to 10162
  157.5569  130.8219  149.8215 LP  0  0  0  0  0  0  0  0  0  0  0  0  # atno 17370 bound_to 10713
  156.0269  130.3777  150.1798 LP  0  0  0  0  0  0  0  0  0  0  0  0  # atno 17371 bound_to 10713
  140.9930  133.7197  156.0842 LP  0  0  0  0  0  0  0  0  0  0  0  0  # atno 17394 bound_to 11000
  140.7600  134.3949  157.5527 LP  0  0  0  0  0  0  0  0  0  0  0  0  # atno 17395 bound_to 11000

$$$$
