AV-unprocessed.smi:2404|AV-procd|sdf|9511|dock5
  -GOLD-   2272013143D 1   1.00000     0.00000
 Structure written by MMmdl.
 42 42  0  0  0  0  0  0  0  0  2 V2000
  149.2841  137.0073  155.3510 C   0  0  0  0  0  0  0  0  0  0  0  0
  149.4397  138.5373  155.2641 C   0  0  0  0  0  0  0  0  0  0  0  0
  150.7008  139.1442  155.9502 C   0  0  0  0  0  0  0  0  0  0  0  0
  150.7954  140.6870  155.7056 C   0  0  0  0  0  0  0  0  0  0  0  0
  149.4984  141.4896  155.9071 C   0  0  0  0  0  0  0  0  0  0  0  0
  150.6196  138.8307  157.4769 C   0  0  0  0  0  0  0  0  0  0  0  0
  151.6940  139.4527  158.2487 N   0  0  0  0  0  0  0  0  0  0  0  0
  151.7650  140.7428  158.6103 C   0  0  0  0  0  0  0  0  0  0  0  0
  150.8438  141.5464  158.4680 O   0  0  0  0  0  0  0  0  0  0  0  0
  153.1013  141.2068  159.1935 C   0  0  0  0  0  0  0  0  0  0  0  0
  152.8957  141.9772  160.4119 N   0  0  0  0  0  0  0  0  0  0  0  0
  153.3653  141.4936  161.5826 N   0  0  0  0  0  0  0  0  0  0  0  0
  153.0798  142.4272  162.4747 C   0  0  0  0  0  0  0  0  0  0  0  0
  153.4929  142.2321  163.9033 C   0  0  0  0  0  0  0  0  0  0  0  0
  152.3939  143.5324  161.8979 C   0  0  0  0  0  0  0  0  0  0  0  0
  152.2952  143.2139  160.5730 C   0  0  0  0  0  0  0  0  0  0  0  0
  151.6971  143.9811  159.4398 C   0  0  0  0  0  0  0  0  0  0  0  0
  151.9719  138.4476  155.3784 C   0  0  0  0  0  0  0  0  0  0  0  0
  152.8710  139.1525  154.8662 O   0  0  0  0  0  0  0  0  0  0  0  0
  152.0334  137.2017  155.4803 O   0  5  0  0  0  0  0  0  0  0  0  0
  148.3617  136.6916  154.8634 H   0  0  0  0  0  0  0  0  0  0  0  0
  149.2395  136.6593  156.3831 H   0  0  0  0  0  0  0  0  0  0  0  0
  150.1042  136.4892  154.8550 H   0  0  0  0  0  0  0  0  0  0  0  0
  149.4219  138.8262  154.2133 H   0  0  0  0  0  0  0  0  0  0  0  0
  148.5413  138.9908  155.6856 H   0  0  0  0  0  0  0  0  0  0  0  0
  151.5554  141.1191  156.3571 H   0  0  0  0  0  0  0  0  0  0  0  0
  151.1512  140.8817  154.6932 H   0  0  0  0  0  0  0  0  0  0  0  0
  149.6806  142.5495  155.7295 H   0  0  0  0  0  0  0  0  0  0  0  0
  149.1131  141.3970  156.9215 H   0  0  0  0  0  0  0  0  0  0  0  0
  148.7162  141.1777  155.2161 H   0  0  0  0  0  0  0  0  0  0  0  0
  149.6412  139.0993  157.8759 H   0  0  0  0  0  0  0  0  0  0  0  0
  150.7006  137.7549  157.6390 H   0  0  0  0  0  0  0  0  0  0  0  0
  152.5091  138.8789  158.4157 H   0  0  0  0  0  0  0  0  0  0  0  0
  153.7352  140.3487  159.4196 H   0  0  0  0  0  0  0  0  0  0  0  0
  153.6317  141.8142  158.4586 H   0  0  0  0  0  0  0  0  0  0  0  0
  153.1683  143.0669  164.5246 H   0  0  0  0  0  0  0  0  0  0  0  0
  154.5774  142.1579  163.9888 H   0  0  0  0  0  0  0  0  0  0  0  0
  153.0603  141.3212  164.3175 H   0  0  0  0  0  0  0  0  0  0  0  0
  152.0415  144.4309  162.3819 H   0  0  0  0  0  0  0  0  0  0  0  0
  151.2078  144.8867  159.7989 H   0  0  0  0  0  0  0  0  0  0  0  0
  150.9524  143.3839  158.9136 H   0  0  0  0  0  0  0  0  0  0  0  0
  152.4639  144.2771  158.7235 H   0  0  0  0  0  0  0  0  0  0  0  0
  1  2  1  0  0  0  0
  1 21  1  0  0  0  0
  1 22  1  0  0  0  0
  1 23  1  0  0  0  0
  2  3  1  0  0  0  0
  2 24  1  0  0  0  0
  2 25  1  0  0  0  0
  3  4  1  0  0  0  0
  3  6  1  0  0  0  0
  3 18  1  0  0  0  0
  4  5  1  0  0  0  0
  4 26  1  0  0  0  0
  4 27  1  0  0  0  0
  5 28  1  0  0  0  0
  5 29  1  0  0  0  0
  5 30  1  0  0  0  0
  6  7  1  0  0  0  0
  6 31  1  0  0  0  0
  6 32  1  0  0  0  0
  7  8  1  0  0  0  0
  7 33  1  0  0  0  0
  8  9  2  0  0  0  0
  8 10  1  0  0  0  0
 10 11  1  0  0  0  0
 10 34  1  0  0  0  0
 10 35  1  0  0  0  0
 11 16  1  0  0  0  0
 11 12  1  0  0  0  0
 12 13  2  0  0  0  0
 13 14  1  0  0  0  0
 13 15  1  0  0  0  0
 14 36  1  0  0  0  0
 14 37  1  0  0  0  0
 14 38  1  0  0  0  0
 15 16  2  0  0  0  0
 15 39  1  0  0  0  0
 16 17  1  0  0  0  0
 17 40  1  0  0  0  0
 17 41  1  0  0  0  0
 17 42  1  0  0  0  0
 18 19  2  0  0  0  0
 18 20  1  0  0  0  0
M  CHG  1  20  -1
M  END
> <s_m_source_file>
AV-unprocessed.smi

> <i_m_source_file_index>
2404

> <i_lp_mmshare_version>
43012

> <i_f3d_flags>
0

> <s_epik_input>
W0NIM11bQ0gyXUMoW0NIMl1bQ0gzXSkoQyg9TylbT0hdKVtDSDJdW05IXUMoPU8pW0NIMl1uMW5jKFtDSDNdKVtjSF1jMVtDSDNd

> <s_epik_cmdline>
J2VwaWtfcHl0aG9uJywgJy1waCcsICc3LjAnLCAnLXRuJywgJzgnLCAnLW1hJywgJzIwMCcsICctbWV0YWxfYmluZGluZycsICctaW1hZScsICc8aW5maWxlLm1hZT4nLCAnLW9tYWUnLCAnPG91dGZpbGUubWFlPic=

> <r_lp_tautomer_probability>
1

> <r_epik_Ionization_Penalty>
0.00271888

> <r_epik_Ionization_Penalty_Charging>
0.00235221

> <r_epik_Ionization_Penalty_Neutral>
0.000366676

> <r_epik_State_Penalty>
-0

> <r_epik_Charging_Adjusted_Penalty>
0.00235221

> <i_epik_Tot_Q>
-1

> <i_epik_Tot_abs_Q>
1

> <r_epik_Metal_State_Penalty>
-0

> <b_epik_Metal_Only>
0

> <s_lp_Force_Field>
OPLS_2005

> <r_lp_Energy>
2.14996

> <b_lp_Chiralities_Consistent>
1

> <s_lp_Variant>
AV-unprocessed.smi:2404-1

> <Gold.Version>
5.8.1

> <Gold.Id.Protein>
6NUR|6NUR_protein|mol2

> <Gold.PLP.Fitness>
52.4973

> <Gold.PLP.PLP>
-43.2026

> <Gold.PLP.part.hbond>
-2.6315

> <Gold.PLP.part.metal>
0.0000

> <Gold.PLP.part.buried>
-6.5737

> <Gold.PLP.part.nonpolar>
-35.0097

> <Gold.PLP.part.repulsive>
0.1711

> <Gold.PLP.ligand.clash>
0.0000

> <Gold.PLP.ligand.torsion>
0.4842

> <Gold.PLP.Chemscore.Hbond>
3.3760

> <Gold.PLP.Chemscore.CHOScore>
0.0000

> <Gold.PLP.Chemscore.Metal>
0.0000

> <Gold.Chemscore.Hbonds>
donor molecule, donor type, donor heavy atom, donor atom, acceptor molecule, acceptor atom, score
      P1  H  7997  8008       L1    19  1.14
      P1  H 10752 10763       L1    20  1.60

> <Gold.PLP.Chemscore.Internal.Correction>
0.1351

> <Gold.Rescore>
     Score         DG    S(hbond)    S(metal)    S(lipo)     H(rot)  DE(clash)    DE(int)     intcor
     15.51     -16.46       1.77        0.00      96.13       2.42       0.02       0.94       ----

> <Gold.Chemscore.Fitness>
15.5072

> <Gold.Chemscore.DG>
-16.4628

> <Gold.Chemscore.ZeroCoef>
-5.4800

> <Gold.Chemscore.Hbond>
1.7727

> <Gold.Chemscore.Metal>
0.0000

> <Gold.Chemscore.Lipo>
96.1275

> <Gold.Chemscore.Internal_Hbond>
0.0000

> <Gold.Chemscore.DEClash>
0.0199

> <Gold.Chemscore.DEInternal>
0.9357

> <Gold.Chemscore.Rot>
2.4159

> <Gold.Chemscore.Internal.Correction>
   9.000000E+99

> <Gold.Chemscore.Hbonds>
donor molecule, donor type, donor heavy atom, donor atom, acceptor molecule, acceptor atom, score
      P1  H  7989  7998       L1    19  0.01
      P1  H  7997  8008       L1    19  0.57
      P1  H 10752 10763       L1    20  0.75

> <Gold.Chemscore.Hbond.Weighted>
-5.9207

> <Gold.Chemscore.Metal.Weighted>
-0.0000

> <Gold.Chemscore.Lipo.Weighted>
-11.2469

> <Gold.Chemscore.Internal_Hbond.Weighted>
0.0000

> <Gold.Chemscore.DEClash.Weighted>
0.0199

> <Gold.Chemscore.DEInternal.Weighted>
0.9357

> <Gold.Chemscore.Rot.Weighted>
6.1848

> <Gold.Chemscore.Internal.Correction.Weighted>
   9.000000E+99

> <Gold.Protein.RotatedTorsions>
[ 6907 6896 6895 6894 ] final  -26.44 input  -60.11 | X-H torsion
[ 7974 7965 7964 7962 ] final  170.36 input  175.53 | X-H torsion
[ 8008 7997 7996 7995 ] final    0.24 input   59.86 | X-H torsion
[ 10167 10162 10161 10158 ] final    5.65 input  -65.29 | X-H torsion
[ 10718 10713 10712 10709 ] final   20.26 input   66.30 | X-H torsion
[ 10763 10752 10751 10750 ] final   83.01 input  -60.55 | X-H torsion
[ 11005 11000 10999 10996 ] final -174.56 input  -57.11 | X-H torsion

> <Gold.Protein.ActiveResidues>
 VAL166  LYS551  ARG553  GLY616  TRP617  ASP618  TYR619  PRO620  LYS621  CYS622 
 ASP623  PHE694  ASN695  SER759  ASP760  ASP761  ALA762  ILE779  LEU786  VAL792 
 PHE793  MET794  SER795  GLU796  ALA797  LYS798  CYS799  TRP800  GLU811  SER814 

> <Gold.Protein.RotatedAtoms>
  151.1610  135.0273  159.8709 H   0  0  0  0  0  0  0  0  0  0  0  0  # atno 6907 bound_to 6896
  152.5451  134.1279  159.8437 H   0  0  0  0  0  0  0  0  0  0  0  0  # atno 6908 bound_to 6896
  151.1375  133.4948  159.2630 H   0  0  0  0  0  0  0  0  0  0  0  0  # atno 6909 bound_to 6896
  144.7326  139.9190  143.6419 H   0  0  0  0  0  0  0  0  0  0  0  0  # atno 7974 bound_to 7965
  154.6658  140.2601  155.7059 H   0  0  0  0  0  0  0  0  0  0  0  0  # atno 8008 bound_to 7997
  156.2638  140.2839  156.1070 H   0  0  0  0  0  0  0  0  0  0  0  0  # atno 8009 bound_to 7997
  155.1240  140.0377  157.2748 H   0  0  0  0  0  0  0  0  0  0  0  0  # atno 8010 bound_to 7997
  140.6470  143.7637  150.7515 H   0  0  0  0  0  0  0  0  0  0  0  0  # atno 10167 bound_to 10162
  157.1220  130.6554  149.5927 H   0  0  0  0  0  0  0  0  0  0  0  0  # atno 10718 bound_to 10713
  153.1253  135.4707  154.9262 H   0  0  0  0  0  0  0  0  0  0  0  0  # atno 10763 bound_to 10752
  154.7614  135.3132  154.8372 H   0  0  0  0  0  0  0  0  0  0  0  0  # atno 10764 bound_to 10752
  153.8927  135.6883  153.4813 H   0  0  0  0  0  0  0  0  0  0  0  0  # atno 10765 bound_to 10752
  140.4731  134.6146  157.4890 H   0  0  0  0  0  0  0  0  0  0  0  0  # atno 11005 bound_to 11000
  146.0944  139.3935  143.0386 LP  0  0  0  0  0  0  0  0  0  0  0  0  # atno 17320 bound_to 7965
  145.7667  140.9913  143.1171 LP  0  0  0  0  0  0  0  0  0  0  0  0  # atno 17321 bound_to 7965
  140.1280  143.4551  152.2272 LP  0  0  0  0  0  0  0  0  0  0  0  0  # atno 17342 bound_to 10162
  139.5682  144.7447  151.3964 LP  0  0  0  0  0  0  0  0  0  0  0  0  # atno 17343 bound_to 10162
  155.9826  130.4841  150.6891 LP  0  0  0  0  0  0  0  0  0  0  0  0  # atno 17370 bound_to 10713
  157.4468  131.0868  151.0888 LP  0  0  0  0  0  0  0  0  0  0  0  0  # atno 17371 bound_to 10713
  139.9872  134.7042  155.9752 LP  0  0  0  0  0  0  0  0  0  0  0  0  # atno 17394 bound_to 11000
  141.1567  133.6542  156.4185 LP  0  0  0  0  0  0  0  0  0  0  0  0  # atno 17395 bound_to 11000

$$$$
