AV-unprocessed.smi:1785|AV-procd|sdf|7200|dock4
  -GOLD-   22720 8443D 1   1.00000     0.00000
 Structure written by MMmdl.
 28 29  0  0  0  0  0  0  0  0  1 V2000
  154.1973  139.8611  160.1889 C   0  0  0  0  0  0  0  0  0  0  0  0
  153.4828  141.1412  160.5919 C   0  0  0  0  0  0  0  0  0  0  0  0
  153.7507  141.7133  161.8537 C   0  0  0  0  0  0  0  0  0  0  0  0
  153.0894  142.8965  162.2246 C   0  0  0  0  0  0  0  0  0  0  0  0
  152.1826  143.4613  161.3115 C   0  0  0  0  0  0  0  0  0  0  0  0
  151.9208  142.9217  160.1035 N   0  0  0  0  0  0  0  0  0  0  0  0
  152.5503  141.7791  159.7302 C   0  0  0  0  0  0  0  0  0  0  0  0
  152.3245  141.1520  158.4727 N   0  0  0  0  0  0  0  0  0  0  0  0
  151.3317  141.3631  157.5863 C   0  0  0  0  0  0  0  0  0  0  0  0
  150.4234  142.1798  157.7498 O   0  0  0  0  0  0  0  0  0  0  0  0
  151.4735  140.5021  156.4183 C   0  0  0  0  0  0  0  0  0  0  0  0
  150.5525  140.5644  155.4288 C   0  0  0  0  0  0  0  0  0  0  0  0
  150.5782  139.7667  154.3121 O   0  0  0  0  0  0  0  0  0  0  0  0
  151.4976  138.6832  154.3785 C   0  0  0  0  0  0  0  0  0  0  0  0
  152.8145  139.1385  155.0241 C   0  0  0  0  0  0  0  0  0  0  0  0
  152.5686  139.6710  156.3213 O   0  0  0  0  0  0  0  0  0  0  0  0
  154.8618  139.5111  160.9795 H   0  0  0  0  0  0  0  0  0  0  0  0
  154.7983  140.0257  159.2942 H   0  0  0  0  0  0  0  0  0  0  0  0
  153.4767  139.0691  159.9828 H   0  0  0  0  0  0  0  0  0  0  0  0
  154.4543  141.2531  162.5320 H   0  0  0  0  0  0  0  0  0  0  0  0
  153.2720  143.3584  163.1835 H   0  0  0  0  0  0  0  0  0  0  0  0
  151.6529  144.3699  161.5567 H   0  0  0  0  0  0  0  0  0  0  0  0
  153.0026  140.4515  158.2110 H   0  0  0  0  0  0  0  0  0  0  0  0
  149.6866  141.2111  155.4328 H   0  0  0  0  0  0  0  0  0  0  0  0
  151.0531  137.8701  154.9542 H   0  0  0  0  0  0  0  0  0  0  0  0
  151.6762  138.3042  153.3721 H   0  0  0  0  0  0  0  0  0  0  0  0
  153.5081  138.3017  155.1076 H   0  0  0  0  0  0  0  0  0  0  0  0
  153.2994  139.8980  154.4092 H   0  0  0  0  0  0  0  0  0  0  0  0
  1  2  1  0  0  0  0
  1 17  1  0  0  0  0
  1 18  1  0  0  0  0
  1 19  1  0  0  0  0
  2  7  1  0  0  0  0
  2  3  2  0  0  0  0
  3  4  1  0  0  0  0
  3 20  1  0  0  0  0
  4  5  2  0  0  0  0
  4 21  1  0  0  0  0
  5  6  1  0  0  0  0
  5 22  1  0  0  0  0
  6  7  2  0  0  0  0
  7  8  1  0  0  0  0
  8  9  1  0  0  0  0
  8 23  1  0  0  0  0
  9 10  2  0  0  0  0
  9 11  1  0  0  0  0
 11 16  1  0  0  0  0
 11 12  2  0  0  0  0
 12 13  1  0  0  0  0
 12 24  1  0  0  0  0
 13 14  1  0  0  0  0
 14 15  1  0  0  0  0
 14 25  1  0  0  0  0
 14 26  1  0  0  0  0
 15 16  1  0  0  0  0
 15 27  1  0  0  0  0
 15 28  1  0  0  0  0
M  END
> <s_m_source_file>
AV-unprocessed.smi

> <i_m_source_file_index>
1785

> <i_lp_mmshare_version>
43012

> <i_f3d_flags>
0

> <s_epik_input>
W0NIM11jMVtjSF1bY0hdW2NIXW5jMVtOSF1DKD1PKUMyPVtDSF1PW0NIMl1bQ0gyXU8y

> <s_epik_cmdline>
J2VwaWtfcHl0aG9uJywgJy1waCcsICc3LjAnLCAnLXRuJywgJzgnLCAnLW1hJywgJzIwMCcsICctbWV0YWxfYmluZGluZycsICctaW1hZScsICc8aW5maWxlLm1hZT4nLCAnLW9tYWUnLCAnPG91dGZpbGUubWFlPic=

> <r_lp_tautomer_probability>
1

> <r_epik_Ionization_Penalty>
8.87723e-05

> <r_epik_Ionization_Penalty_Charging>
0

> <r_epik_Ionization_Penalty_Neutral>
8.87723e-05

> <r_epik_State_Penalty>
-0

> <r_epik_Charging_Adjusted_Penalty>
0

> <i_epik_Tot_Q>
0

> <i_epik_Tot_abs_Q>
0

> <r_epik_Metal_State_Penalty>
0.0224094

> <b_epik_Metal_Only>
0

> <s_lp_Force_Field>
OPLS_2005

> <r_lp_Energy>
4.55211

> <b_lp_Chiralities_Consistent>
1

> <s_lp_Variant>
AV-unprocessed.smi:1785-1

> <Gold.Version>
5.8.1

> <Gold.Id.Protein>
6NUR|6NUR_protein|mol2

> <Gold.PLP.Fitness>
41.4579

> <Gold.PLP.PLP>
-37.6857

> <Gold.PLP.part.hbond>
-2.0000

> <Gold.PLP.part.metal>
0.0000

> <Gold.PLP.part.buried>
-5.1424

> <Gold.PLP.part.nonpolar>
-30.2287

> <Gold.PLP.part.repulsive>
0.3387

> <Gold.PLP.ligand.clash>
0.0000

> <Gold.PLP.ligand.torsion>
0.0503

> <Gold.PLP.Chemscore.Hbond>
1.2905

> <Gold.PLP.Chemscore.CHOScore>
0.0000

> <Gold.PLP.Chemscore.Metal>
0.0000

> <Gold.Chemscore.Hbonds>
donor molecule, donor type, donor heavy atom, donor atom, acceptor molecule, acceptor atom, score
      P1  H  7989  7998       L1    13  0.51
      P1  H  7997  8010       L1    16  0.73

> <Gold.PLP.Chemscore.Internal.Correction>
0.0012

> <Gold.Rescore>
     Score         DG    S(hbond)    S(metal)    S(lipo)     H(rot)  DE(clash)    DE(int)     intcor
     14.47     -15.84       0.20        0.00      82.87       0.00       0.05       1.32       ----

> <Gold.Chemscore.Fitness>
14.4665

> <Gold.Chemscore.DG>
-15.8428

> <Gold.Chemscore.ZeroCoef>
-5.4800

> <Gold.Chemscore.Hbond>
0.1997

> <Gold.Chemscore.Metal>
0.0000

> <Gold.Chemscore.Lipo>
82.8693

> <Gold.Chemscore.Internal_Hbond>
0.0000

> <Gold.Chemscore.DEClash>
0.0541

> <Gold.Chemscore.DEInternal>
1.3222

> <Gold.Chemscore.Rot>
0.0000

> <Gold.Chemscore.Internal.Correction>
   9.000000E+99

> <Gold.Chemscore.Hbonds>
donor molecule, donor type, donor heavy atom, donor atom, acceptor molecule, acceptor atom, score
      P1  H  7989  7998       L1    13  0.01
      P1  H  7997  8010       L1    16  0.10

> <Gold.Chemscore.Hbond.Weighted>
-0.6671

> <Gold.Chemscore.Metal.Weighted>
-0.0000

> <Gold.Chemscore.Lipo.Weighted>
-9.6957

> <Gold.Chemscore.Internal_Hbond.Weighted>
0.0000

> <Gold.Chemscore.DEClash.Weighted>
0.0541

> <Gold.Chemscore.DEInternal.Weighted>
1.3222

> <Gold.Chemscore.Rot.Weighted>
0.0000

> <Gold.Chemscore.Internal.Correction.Weighted>
   9.000000E+99

> <Gold.Protein.RotatedTorsions>
[ 6907 6896 6895 6894 ] final  178.27 input  -60.11 | X-H torsion
[ 7974 7965 7964 7962 ] final   92.13 input  175.53 | X-H torsion
[ 8008 7997 7996 7995 ] final   52.01 input   59.86 | X-H torsion
[ 10167 10162 10161 10158 ] final   61.75 input  -65.29 | X-H torsion
[ 10718 10713 10712 10709 ] final -178.53 input   66.30 | X-H torsion
[ 10763 10752 10751 10750 ] final  -11.36 input  -60.55 | X-H torsion
[ 11005 11000 10999 10996 ] final  108.52 input  -57.11 | X-H torsion

> <Gold.Protein.ActiveResidues>
 VAL166  LYS551  ARG553  GLY616  TRP617  ASP618  TYR619  PRO620  LYS621  CYS622 
 ASP623  PHE694  ASN695  SER759  ASP760  ASP761  ALA762  ILE779  LEU786  VAL792 
 PHE793  MET794  SER795  GLU796  ALA797  LYS798  CYS799  TRP800  GLU811  SER814 

> <Gold.Protein.RotatedAtoms>
  151.6905  133.3311  159.3241 H   0  0  0  0  0  0  0  0  0  0  0  0  # atno 6907 bound_to 6896
  150.7781  134.6703  159.6397 H   0  0  0  0  0  0  0  0  0  0  0  0  # atno 6908 bound_to 6896
  152.3830  134.6564  160.0188 H   0  0  0  0  0  0  0  0  0  0  0  0  # atno 6909 bound_to 6896
  145.4964  139.2276  143.2801 H   0  0  0  0  0  0  0  0  0  0  0  0  # atno 7974 bound_to 7965
  155.4447  140.3456  155.4294 H   0  0  0  0  0  0  0  0  0  0  0  0  # atno 8008 bound_to 7997
  156.1257  140.1500  156.9169 H   0  0  0  0  0  0  0  0  0  0  0  0  # atno 8009 bound_to 7997
  154.4856  140.0856  156.7459 H   0  0  0  0  0  0  0  0  0  0  0  0  # atno 8010 bound_to 7997
  140.1513  144.4459  150.6757 H   0  0  0  0  0  0  0  0  0  0  0  0  # atno 10167 bound_to 10162
  156.8457  130.9702  151.3096 H   0  0  0  0  0  0  0  0  0  0  0  0  # atno 10718 bound_to 10713
  153.4826  135.7017  153.5929 H   0  0  0  0  0  0  0  0  0  0  0  0  # atno 10763 bound_to 10752
  153.4136  135.3842  155.2066 H   0  0  0  0  0  0  0  0  0  0  0  0  # atno 10764 bound_to 10752
  154.8721  135.3910  154.4277 H   0  0  0  0  0  0  0  0  0  0  0  0  # atno 10765 bound_to 10752
  139.8845  134.9432  156.5985 H   0  0  0  0  0  0  0  0  0  0  0  0  # atno 11005 bound_to 11000
  146.2253  140.5762  142.8999 LP  0  0  0  0  0  0  0  0  0  0  0  0  # atno 17320 bound_to 7965
  144.7805  140.5829  143.6609 LP  0  0  0  0  0  0  0  0  0  0  0  0  # atno 17321 bound_to 7965
  140.6700  143.2282  151.5648 LP  0  0  0  0  0  0  0  0  0  0  0  0  # atno 17342 bound_to 10162
  139.5424  144.2611  152.1377 LP  0  0  0  0  0  0  0  0  0  0  0  0  # atno 17343 bound_to 10162
  157.6331  130.8745  149.9310 LP  0  0  0  0  0  0  0  0  0  0  0  0  # atno 17370 bound_to 10713
  156.0856  130.3668  150.0495 LP  0  0  0  0  0  0  0  0  0  0  0  0  # atno 17371 bound_to 10713
  140.7902  133.8589  155.8639 LP  0  0  0  0  0  0  0  0  0  0  0  0  # atno 17394 bound_to 11000
  140.9684  134.1564  157.4597 LP  0  0  0  0  0  0  0  0  0  0  0  0  # atno 17395 bound_to 11000

$$$$
