AV-unprocessed.smi:3287|AV-procd|sdf|12595|dock7
  -GOLD-   2272018523D 1   1.00000     0.00000
 Structure written by MMmdl.
 43 44  0  0  0  0  0  0  0  0  2 V2000
  152.2391  142.9430  161.2106 C   0  0  0  0  0  0  0  0  0  0  0  0
  152.8868  143.4867  159.9210 C   0  0  1  0  0  0  0  0  0  0  0  0
  153.2003  142.3556  158.9200 C   0  0  0  0  0  0  0  0  0  0  0  0
  151.9326  141.8026  158.2467 C   0  0  0  0  0  0  0  0  0  0  0  0
  151.1303  142.9162  157.5505 C   0  0  1  0  0  0  0  0  0  0  0  0
  149.9111  142.3458  156.9354 N   0  3  0  0  0  0  0  0  0  0  0  0
  150.1306  141.1674  156.0685 C   0  0  0  0  0  0  0  0  0  0  0  0
  149.4494  141.3381  154.6996 C   0  0  1  0  0  0  0  0  0  0  0  0
  149.7717  140.2258  153.8872 O   0  0  0  0  0  0  0  0  0  0  0  0
  147.9461  141.5078  154.8552 C   0  0  0  0  0  0  0  0  0  0  0  0
  147.1945  140.6477  155.6855 C   0  0  0  0  0  0  0  0  0  0  0  0
  145.8059  140.8611  155.7960 C   0  0  0  0  0  0  0  0  0  0  0  0
  145.1546  141.8510  155.1495 N   0  0  0  0  0  0  0  0  0  0  0  0
  145.8780  142.6721  154.3590 C   0  0  0  0  0  0  0  0  0  0  0  0
  147.2701  142.5451  154.1792 C   0  0  0  0  0  0  0  0  0  0  0  0
  150.7976  144.0458  158.5490 C   0  0  0  0  0  0  0  0  0  0  0  0
  152.0691  144.6026  159.2218 C   0  0  1  0  0  0  0  0  0  0  0  0
  151.7536  145.7941  160.1411 C   0  0  0  0  0  0  0  0  0  0  0  0
  151.2406  142.5443  161.0350 H   0  0  0  0  0  0  0  0  0  0  0  0
  152.1571  143.7171  161.9731 H   0  0  0  0  0  0  0  0  0  0  0  0
  152.8412  142.1414  161.6390 H   0  0  0  0  0  0  0  0  0  0  0  0
  153.8428  143.9196  160.2190 H   0  0  0  0  0  0  0  0  0  0  0  0
  153.8730  142.7355  158.1501 H   0  0  0  0  0  0  0  0  0  0  0  0
  153.7404  141.5491  159.4175 H   0  0  0  0  0  0  0  0  0  0  0  0
  152.2136  141.0384  157.5210 H   0  0  0  0  0  0  0  0  0  0  0  0
  151.3100  141.3020  158.9893 H   0  0  0  0  0  0  0  0  0  0  0  0
  151.7506  143.3236  156.7504 H   0  0  0  0  0  0  0  0  0  0  0  0
  149.2979  142.0579  157.6845 H   0  0  0  0  0  0  0  0  0  0  0  0
  151.1985  140.9936  155.9347 H   0  0  0  0  0  0  0  0  0  0  0  0
  149.7230  140.2870  156.5677 H   0  0  0  0  0  0  0  0  0  0  0  0
  149.8469  142.2268  154.2070 H   0  0  0  0  0  0  0  0  0  0  0  0
  149.7415  140.4976  152.9819 H   0  0  0  0  0  0  0  0  0  0  0  0
  147.6660  139.8417  156.2286 H   0  0  0  0  0  0  0  0  0  0  0  0
  145.2031  140.2210  156.4231 H   0  0  0  0  0  0  0  0  0  0  0  0
  145.3314  143.4561  153.8561 H   0  0  0  0  0  0  0  0  0  0  0  0
  147.8008  143.2320  153.5363 H   0  0  0  0  0  0  0  0  0  0  0  0
  150.2893  144.8618  158.0357 H   0  0  0  0  0  0  0  0  0  0  0  0
  150.1011  143.6824  159.3057 H   0  0  0  0  0  0  0  0  0  0  0  0
  152.7002  144.9972  158.4236 H   0  0  0  0  0  0  0  0  0  0  0  0
  151.0524  145.5226  160.9303 H   0  0  0  0  0  0  0  0  0  0  0  0
  151.3068  146.6131  159.5769 H   0  0  0  0  0  0  0  0  0  0  0  0
  152.6588  146.1778  160.6126 H   0  0  0  0  0  0  0  0  0  0  0  0
  149.4432  143.0637  156.4003 H   0  0  0  0  0  0  0  0  0  0  0  0
  1  2  1  0  0  0  0
  1 19  1  0  0  0  0
  1 20  1  0  0  0  0
  1 21  1  0  0  0  0
  2 17  1  0  0  0  0
  2  3  1  0  0  0  0
  2 22  1  0  0  0  0
  3  4  1  0  0  0  0
  3 23  1  0  0  0  0
  3 24  1  0  0  0  0
  4  5  1  0  0  0  0
  4 25  1  0  0  0  0
  4 26  1  0  0  0  0
  5  6  1  0  0  0  0
  5 16  1  0  0  0  0
  5 27  1  0  0  0  0
  6  7  1  0  0  0  0
  6 28  1  0  0  0  0
  6 43  1  0  0  0  0
  7  8  1  0  0  0  0
  7 29  1  0  0  0  0
  7 30  1  0  0  0  0
  8  9  1  0  0  0  0
  8 10  1  0  0  0  0
  8 31  1  0  0  0  0
  9 32  1  0  0  0  0
 10 15  1  0  0  0  0
 10 11  2  0  0  0  0
 11 12  1  0  0  0  0
 11 33  1  0  0  0  0
 12 13  2  0  0  0  0
 12 34  1  0  0  0  0
 13 14  1  0  0  0  0
 14 15  2  0  0  0  0
 14 35  1  0  0  0  0
 15 36  1  0  0  0  0
 16 17  1  0  0  0  0
 16 37  1  0  0  0  0
 16 38  1  0  0  0  0
 17 18  1  0  0  0  0
 17 39  1  0  0  0  0
 18 40  1  0  0  0  0
 18 41  1  0  0  0  0
 18 42  1  0  0  0  0
M  CHG  1   6   1
M  END
> <s_m_source_file>
AV-unprocessed.smi

> <i_m_source_file_index>
3287

> <i_lp_mmshare_version>
43012

> <i_f3d_flags>
0

> <s_epik_input>
W0NIM11bQ0BASF0xW0NIMl1bQ0gyXVtDQEhdKFtDSDJdW0NASF0xW0NIM10pW05IXVtDSDJdW0NASF0oW09IXSljMltjSF1bY0hdbltjSF1bY0hdMg==

> <s_epik_cmdline>
J2VwaWtfcHl0aG9uJywgJy1waCcsICc3LjAnLCAnLXRuJywgJzgnLCAnLW1hJywgJzIwMCcsICctbWV0YWxfYmluZGluZycsICctaW1hZScsICc8aW5maWxlLm1hZT4nLCAnLW9tYWUnLCAnPG91dGZpbGUubWFlPic=

> <r_lp_tautomer_probability>
1

> <r_epik_Ionization_Penalty>
0.00537262

> <r_epik_Ionization_Penalty_Charging>
0.00321624

> <r_epik_Ionization_Penalty_Neutral>
0.00215638

> <r_epik_State_Penalty>
-0

> <r_epik_Charging_Adjusted_Penalty>
0.00321624

> <i_epik_Tot_Q>
1

> <i_epik_Tot_abs_Q>
1

> <r_epik_Metal_State_Penalty>
-0

> <b_epik_Metal_Only>
0

> <s_lp_Force_Field>
OPLS_2005

> <r_lp_Energy>
17.7653

> <b_lp_Chiralities_Consistent>
1

> <s_lp_Variant>
AV-unprocessed.smi:3287-6

> <Gold.Version>
5.8.1

> <Gold.Id.Protein>
6NUR|6NUR_protein|mol2

> <Gold.PLP.Fitness>
51.3892

> <Gold.PLP.PLP>
-43.7487

> <Gold.PLP.part.hbond>
-3.0000

> <Gold.PLP.part.metal>
0.0000

> <Gold.PLP.part.buried>
-3.8697

> <Gold.PLP.part.nonpolar>
-36.6896

> <Gold.PLP.part.repulsive>
0.1853

> <Gold.PLP.ligand.clash>
0.0000

> <Gold.PLP.ligand.torsion>
0.6901

> <Gold.PLP.Chemscore.Hbond>
3.0000

> <Gold.PLP.Chemscore.CHOScore>
0.0000

> <Gold.PLP.Chemscore.Metal>
0.0000

> <Gold.Chemscore.Hbonds>
donor molecule, donor type, donor heavy atom, donor atom, acceptor molecule, acceptor atom, score
      L1  H     6    43       P1  8028  2.00
      L1  H     9    32       P1  7957  0.99

> <Gold.PLP.Chemscore.Internal.Correction>
0.0206

> <Gold.Rescore>
     Score         DG    S(hbond)    S(metal)    S(lipo)     H(rot)  DE(clash)    DE(int)     intcor
     21.31     -21.99       1.99        0.00     126.08       1.90       0.26       0.41       ----

> <Gold.Chemscore.Fitness>
21.3129

> <Gold.Chemscore.DG>
-21.9895

> <Gold.Chemscore.ZeroCoef>
-5.4800

> <Gold.Chemscore.Hbond>
1.9854

> <Gold.Chemscore.Metal>
0.0000

> <Gold.Chemscore.Lipo>
126.0796

> <Gold.Chemscore.Internal_Hbond>
0.0000

> <Gold.Chemscore.DEClash>
0.2649

> <Gold.Chemscore.DEInternal>
0.4117

> <Gold.Chemscore.Rot>
1.9035

> <Gold.Chemscore.Internal.Correction>
   9.000000E+99

> <Gold.Chemscore.Hbonds>
donor molecule, donor type, donor heavy atom, donor atom, acceptor molecule, acceptor atom, score
      L1  H     6    43       P1  8028  1.00
      L1  H     9    32       P1  7957  0.94

> <Gold.Chemscore.Hbond.Weighted>
-6.6311

> <Gold.Chemscore.Metal.Weighted>
-0.0000

> <Gold.Chemscore.Lipo.Weighted>
-14.7513

> <Gold.Chemscore.Internal_Hbond.Weighted>
0.0000

> <Gold.Chemscore.DEClash.Weighted>
0.2649

> <Gold.Chemscore.DEInternal.Weighted>
0.4117

> <Gold.Chemscore.Rot.Weighted>
4.8729

> <Gold.Chemscore.Internal.Correction.Weighted>
   9.000000E+99

> <Gold.Protein.RotatedTorsions>
[ 6907 6896 6895 6894 ] final  -16.64 input  -60.11 | X-H torsion
[ 7974 7965 7964 7962 ] final -106.48 input  175.53 | X-H torsion
[ 8008 7997 7996 7995 ] final   12.73 input   59.86 | X-H torsion
[ 10167 10162 10161 10158 ] final -156.17 input  -65.29 | X-H torsion
[ 10718 10713 10712 10709 ] final  -27.20 input   66.30 | X-H torsion
[ 10763 10752 10751 10750 ] final   14.78 input  -60.55 | X-H torsion
[ 11005 11000 10999 10996 ] final -118.38 input  -57.11 | X-H torsion

> <Gold.Protein.ActiveResidues>
 VAL166  LYS551  ARG553  GLY616  TRP617  ASP618  TYR619  PRO620  LYS621  CYS622 
 ASP623  PHE694  ASN695  SER759  ASP760  ASP761  ALA762  ILE779  LEU786  VAL792 
 PHE793  MET794  SER795  GLU796  ALA797  LYS798  CYS799  TRP800  GLU811  SER814 

> <Gold.Protein.RotatedAtoms>
  151.3055  135.0780  159.9253 H   0  0  0  0  0  0  0  0  0  0  0  0  # atno 6907 bound_to 6896
  152.5289  133.9790  159.7808 H   0  0  0  0  0  0  0  0  0  0  0  0  # atno 6908 bound_to 6896
  151.0084  133.5937  159.2716 H   0  0  0  0  0  0  0  0  0  0  0  0  # atno 6909 bound_to 6896
  145.2173  140.9120  143.3280 H   0  0  0  0  0  0  0  0  0  0  0  0  # atno 7974 bound_to 7965
  154.8247  140.2889  155.5763 H   0  0  0  0  0  0  0  0  0  0  0  0  # atno 8008 bound_to 7997
  156.3000  140.2543  156.3091 H   0  0  0  0  0  0  0  0  0  0  0  0  # atno 8009 bound_to 7997
  154.9299  140.0384  157.2032 H   0  0  0  0  0  0  0  0  0  0  0  0  # atno 8010 bound_to 7997
  139.6872  143.9481  152.2367 H   0  0  0  0  0  0  0  0  0  0  0  0  # atno 10167 bound_to 10162
  156.4412  130.4464  149.7051 H   0  0  0  0  0  0  0  0  0  0  0  0  # atno 10718 bound_to 10713
  153.1588  135.6792  153.8772 H   0  0  0  0  0  0  0  0  0  0  0  0  # atno 10763 bound_to 10752
  153.8174  135.3134  155.3408 H   0  0  0  0  0  0  0  0  0  0  0  0  # atno 10764 bound_to 10752
  154.7917  135.4830  154.0157 H   0  0  0  0  0  0  0  0  0  0  0  0  # atno 10765 bound_to 10752
  141.0290  134.0011  157.3172 H   0  0  0  0  0  0  0  0  0  0  0  0  # atno 11005 bound_to 11000
  144.9799  139.3794  143.6267 LP  0  0  0  0  0  0  0  0  0  0  0  0  # atno 17320 bound_to 7965
  146.3384  139.8934  142.8805 LP  0  0  0  0  0  0  0  0  0  0  0  0  # atno 17321 bound_to 7965
  139.9287  144.6755  150.8385 LP  0  0  0  0  0  0  0  0  0  0  0  0  # atno 17342 bound_to 10162
  140.7671  143.3324  151.2382 LP  0  0  0  0  0  0  0  0  0  0  0  0  # atno 17343 bound_to 10162
  156.3915  130.7629  151.2631 LP  0  0  0  0  0  0  0  0  0  0  0  0  # atno 17370 bound_to 10713
  157.7506  131.0266  150.3970 LP  0  0  0  0  0  0  0  0  0  0  0  0  # atno 17371 bound_to 10713
  139.9195  135.0199  156.8009 LP  0  0  0  0  0  0  0  0  0  0  0  0  # atno 17394 bound_to 11000
  140.6441  133.9791  155.7722 LP  0  0  0  0  0  0  0  0  0  0  0  0  # atno 17395 bound_to 11000

$$$$
