AV-unprocessed.smi:2690|AV-procd|sdf|10389|dock5
  -GOLD-   2272014423D 1   1.00000     0.00000
 Structure written by MMmdl.
 47 49  0  0  0  0  0  0  0  0  1 V2000
  154.4638  141.4024  160.3499 C   0  0  0  0  0  0  0  0  0  0  0  0
  152.9774  141.5249  159.9861 C   0  0  2  0  0  0  0  0  0  0  0  0
  152.4985  140.3123  159.1658 C   0  0  0  0  0  0  0  0  0  0  0  0
  151.0144  140.4391  158.7793 C   0  0  0  0  0  0  0  0  0  0  0  0
  150.7067  141.7511  158.0223 C   0  0  2  0  0  0  0  0  0  0  0  0
  149.2966  141.8523  157.9491 O   0  0  0  0  0  0  0  0  0  0  0  0
  151.2499  141.7180  156.5667 C   0  0  0  0  0  0  0  0  0  0  0  0
  150.5708  140.7684  155.6960 N   0  0  0  0  0  0  0  0  0  0  0  0
  151.0324  139.5306  155.3045 C   0  0  0  0  0  0  0  0  0  0  0  0
  150.2384  138.8616  154.5134 N   0  0  0  0  0  0  0  0  0  0  0  0
  149.1508  139.7069  154.3377 C   0  0  0  0  0  0  0  0  0  0  0  0
  147.9390  139.6103  153.6055 C   0  0  0  0  0  0  0  0  0  0  0  0
  147.6523  138.5087  152.8762 N   0  0  0  0  0  0  0  0  0  0  0  0
  146.3276  138.3001  152.2976 C   0  0  0  0  0  0  0  0  0  0  0  0
  145.6880  137.0014  152.8167 C   0  0  0  0  0  0  0  0  0  0  0  0
  146.4223  138.2890  150.7665 C   0  0  0  0  0  0  0  0  0  0  0  0
  147.0832  140.6647  153.6588 N   0  0  0  0  0  0  0  0  0  0  0  0
  147.3930  141.7433  154.3849 C   0  0  0  0  0  0  0  0  0  0  0  0
  148.4852  141.9703  155.1180 N   0  0  0  0  0  0  0  0  0  0  0  0
  149.3453  140.9131  155.0674 C   0  0  0  0  0  0  0  0  0  0  0  0
  151.2045  142.9599  158.8504 C   0  0  0  0  0  0  0  0  0  0  0  0
  152.6906  142.8361  159.2309 C   0  0  0  0  0  0  0  0  0  0  0  0
  155.0893  141.3759  159.4572 H   0  0  0  0  0  0  0  0  0  0  0  0
  154.6552  140.4917  160.9180 H   0  0  0  0  0  0  0  0  0  0  0  0
  154.7896  142.2456  160.9595 H   0  0  0  0  0  0  0  0  0  0  0  0
  152.4113  141.5446  160.9185 H   0  0  0  0  0  0  0  0  0  0  0  0
  153.1094  140.2046  158.2692 H   0  0  0  0  0  0  0  0  0  0  0  0
  152.6438  139.3971  159.7410 H   0  0  0  0  0  0  0  0  0  0  0  0
  150.7121  139.5765  158.1841 H   0  0  0  0  0  0  0  0  0  0  0  0
  150.4198  140.3976  159.6935 H   0  0  0  0  0  0  0  0  0  0  0  0
  149.0064  142.4730  158.5999 H   0  0  0  0  0  0  0  0  0  0  0  0
  151.1783  142.7038  156.1077 H   0  0  0  0  0  0  0  0  0  0  0  0
  152.3119  141.4690  156.5687 H   0  0  0  0  0  0  0  0  0  0  0  0
  151.9828  139.1336  155.6303 H   0  0  0  0  0  0  0  0  0  0  0  0
  148.3140  137.7584  152.7378 H   0  0  0  0  0  0  0  0  0  0  0  0
  145.6868  139.1386  152.5729 H   0  0  0  0  0  0  0  0  0  0  0  0
  144.6974  136.8547  152.3855 H   0  0  0  0  0  0  0  0  0  0  0  0
  145.5711  137.0152  153.9005 H   0  0  0  0  0  0  0  0  0  0  0  0
  146.2935  136.1318  152.5598 H   0  0  0  0  0  0  0  0  0  0  0  0
  145.4372  138.1730  150.3136 H   0  0  0  0  0  0  0  0  0  0  0  0
  147.0501  137.4708  150.4119 H   0  0  0  0  0  0  0  0  0  0  0  0
  146.8469  139.2215  150.3932 H   0  0  0  0  0  0  0  0  0  0  0  0
  146.6610  142.5373  154.3773 H   0  0  0  0  0  0  0  0  0  0  0  0
  151.0311  143.8971  158.3211 H   0  0  0  0  0  0  0  0  0  0  0  0
  150.6229  143.0317  159.7710 H   0  0  0  0  0  0  0  0  0  0  0  0
  152.9773  143.6891  159.8469 H   0  0  0  0  0  0  0  0  0  0  0  0
  153.3101  142.8858  158.3360 H   0  0  0  0  0  0  0  0  0  0  0  0
  1  2  1  0  0  0  0
  1 23  1  0  0  0  0
  1 24  1  0  0  0  0
  1 25  1  0  0  0  0
  2 22  1  0  0  0  0
  2  3  1  0  0  0  0
  2 26  1  0  0  0  0
  3  4  1  0  0  0  0
  3 27  1  0  0  0  0
  3 28  1  0  0  0  0
  4  5  1  0  0  0  0
  4 29  1  0  0  0  0
  4 30  1  0  0  0  0
  5  6  1  0  0  0  0
  5  7  1  0  0  0  0
  5 21  1  0  0  0  0
  6 31  1  0  0  0  0
  7  8  1  0  0  0  0
  7 32  1  0  0  0  0
  7 33  1  0  0  0  0
  8 20  1  0  0  0  0
  8  9  1  0  0  0  0
  9 10  2  0  0  0  0
  9 34  1  0  0  0  0
 10 11  1  0  0  0  0
 11 20  2  0  0  0  0
 11 12  1  0  0  0  0
 12 13  1  0  0  0  0
 12 17  2  0  0  0  0
 13 14  1  0  0  0  0
 13 35  1  0  0  0  0
 14 15  1  0  0  0  0
 14 16  1  0  0  0  0
 14 36  1  0  0  0  0
 15 37  1  0  0  0  0
 15 38  1  0  0  0  0
 15 39  1  0  0  0  0
 16 40  1  0  0  0  0
 16 41  1  0  0  0  0
 16 42  1  0  0  0  0
 17 18  1  0  0  0  0
 18 19  2  0  0  0  0
 18 43  1  0  0  0  0
 19 20  1  0  0  0  0
 21 22  1  0  0  0  0
 21 44  1  0  0  0  0
 21 45  1  0  0  0  0
 22 46  1  0  0  0  0
 22 47  1  0  0  0  0
M  END
> <s_m_source_file>
AV-unprocessed.smi

> <i_m_source_file_index>
2690

> <i_lp_mmshare_version>
43012

> <i_f3d_flags>
0

> <s_epik_input>
W0NIMl0xW0NIMl1bQ0BIXShbQ0gzXSlbQ0gyXVtDSDJdW0NAQF0xKFtPSF0pW0NIMl1uKFtjSF1uMiljKGMyMyluW2NIXW5jM1tOSF1bQ0hdKFtDSDNdKVtDSDNd

> <s_epik_cmdline>
J2VwaWtfcHl0aG9uJywgJy1waCcsICc3LjAnLCAnLXRuJywgJzgnLCAnLW1hJywgJzIwMCcsICctbWV0YWxfYmluZGluZycsICctaW1hZScsICc8aW5maWxlLm1hZT4nLCAnLW9tYWUnLCAnPG91dGZpbGUubWFlPic=

> <r_lp_tautomer_probability>
1

> <r_epik_Ionization_Penalty>
0.00225104

> <r_epik_Ionization_Penalty_Charging>
0

> <r_epik_Ionization_Penalty_Neutral>
0.00225104

> <r_epik_State_Penalty>
-0

> <r_epik_Charging_Adjusted_Penalty>
0

> <i_epik_Tot_Q>
0

> <i_epik_Tot_abs_Q>
0

> <r_epik_Metal_State_Penalty>
-0

> <b_epik_Metal_Only>
0

> <s_lp_Force_Field>
OPLS_2005

> <r_lp_Energy>
15.1009

> <b_lp_Chiralities_Consistent>
1

> <s_lp_Variant>
AV-unprocessed.smi:2690-2

> <Gold.Version>
5.8.1

> <Gold.Id.Protein>
6NUR|6NUR_protein|mol2

> <Gold.PLP.Fitness>
42.0403

> <Gold.PLP.PLP>
-39.7379

> <Gold.PLP.part.hbond>
-2.0000

> <Gold.PLP.part.metal>
0.0000

> <Gold.PLP.part.buried>
2.6621

> <Gold.PLP.part.nonpolar>
-42.8917

> <Gold.PLP.part.repulsive>
2.6647

> <Gold.PLP.ligand.clash>
0.0000

> <Gold.PLP.ligand.torsion>
0.3677

> <Gold.PLP.Chemscore.Hbond>
1.0000

> <Gold.PLP.Chemscore.CHOScore>
0.0000

> <Gold.PLP.Chemscore.Metal>
0.0000

> <Gold.Chemscore.Hbonds>
donor molecule, donor type, donor heavy atom, donor atom, acceptor molecule, acceptor atom, score
      L1  H    13    35       P1  7948  1.00

> <Gold.PLP.Chemscore.Internal.Correction>
0.0378

> <Gold.Rescore>
     Score         DG    S(hbond)    S(metal)    S(lipo)     H(rot)  DE(clash)    DE(int)     intcor
     11.55     -13.52       0.83        0.00      89.94       2.05       1.62       0.35       ----

> <Gold.Chemscore.Fitness>
11.5510

> <Gold.Chemscore.DG>
-13.5238

> <Gold.Chemscore.ZeroCoef>
-5.4800

> <Gold.Chemscore.Hbond>
0.8311

> <Gold.Chemscore.Metal>
0.0000

> <Gold.Chemscore.Lipo>
89.9373

> <Gold.Chemscore.Internal_Hbond>
0.0000

> <Gold.Chemscore.DEClash>
1.6187

> <Gold.Chemscore.DEInternal>
0.3540

> <Gold.Chemscore.Rot>
2.0526

> <Gold.Chemscore.Internal.Correction>
   9.000000E+99

> <Gold.Chemscore.Hbonds>
donor molecule, donor type, donor heavy atom, donor atom, acceptor molecule, acceptor atom, score
      L1  H    13    35       P1  7948  0.97

> <Gold.Chemscore.Hbond.Weighted>
-2.7758

> <Gold.Chemscore.Metal.Weighted>
-0.0000

> <Gold.Chemscore.Lipo.Weighted>
-10.5227

> <Gold.Chemscore.Internal_Hbond.Weighted>
0.0000

> <Gold.Chemscore.DEClash.Weighted>
1.6187

> <Gold.Chemscore.DEInternal.Weighted>
0.3540

> <Gold.Chemscore.Rot.Weighted>
5.2546

> <Gold.Chemscore.Internal.Correction.Weighted>
   9.000000E+99

> <Gold.Protein.RotatedTorsions>
[ 6907 6896 6895 6894 ] final -169.51 input  -60.11 | X-H torsion
[ 7974 7965 7964 7962 ] final    3.24 input  175.53 | X-H torsion
[ 8008 7997 7996 7995 ] final   68.88 input   59.86 | X-H torsion
[ 10167 10162 10161 10158 ] final  -42.72 input  -65.29 | X-H torsion
[ 10718 10713 10712 10709 ] final   95.97 input   66.30 | X-H torsion
[ 10763 10752 10751 10750 ] final  -17.29 input  -60.55 | X-H torsion
[ 11005 11000 10999 10996 ] final -104.14 input  -57.11 | X-H torsion

> <Gold.Protein.ActiveResidues>
 VAL166  LYS551  ARG553  GLY616  TRP617  ASP618  TYR619  PRO620  LYS621  CYS622 
 ASP623  PHE694  ASN695  SER759  ASP760  ASP761  ALA762  ILE779  LEU786  VAL792 
 PHE793  MET794  SER795  GLU796  ALA797  LYS798  CYS799  TRP800  GLU811  SER814 

> <Gold.Protein.RotatedAtoms>
  151.4928  133.3521  159.2855 H   0  0  0  0  0  0  0  0  0  0  0  0  # atno 6907 bound_to 6896
  150.8823  134.8218  159.7245 H   0  0  0  0  0  0  0  0  0  0  0  0  # atno 6908 bound_to 6896
  152.4771  134.4828  159.9722 H   0  0  0  0  0  0  0  0  0  0  0  0  # atno 6909 bound_to 6896
  146.2445  140.0715  142.8362 H   0  0  0  0  0  0  0  0  0  0  0  0  # atno 7974 bound_to 7965
  155.7150  140.3494  155.4990 H   0  0  0  0  0  0  0  0  0  0  0  0  # atno 8008 bound_to 7997
  155.9321  140.1086  157.1145 H   0  0  0  0  0  0  0  0  0  0  0  0  # atno 8009 bound_to 7997
  154.4087  140.1229  156.4803 H   0  0  0  0  0  0  0  0  0  0  0  0  # atno 8010 bound_to 7997
  140.6959  143.3022  151.3250 H   0  0  0  0  0  0  0  0  0  0  0  0  # atno 10167 bound_to 10162
  157.6932  131.0563  150.4420 H   0  0  0  0  0  0  0  0  0  0  0  0  # atno 10718 bound_to 10713
  153.5715  135.7007  153.5502 H   0  0  0  0  0  0  0  0  0  0  0  0  # atno 10763 bound_to 10752
  153.3340  135.4039  155.1518 H   0  0  0  0  0  0  0  0  0  0  0  0  # atno 10764 bound_to 10752
  154.8632  135.3726  154.5238 H   0  0  0  0  0  0  0  0  0  0  0  0  # atno 10765 bound_to 10752
  141.1114  133.8699  157.1574 H   0  0  0  0  0  0  0  0  0  0  0  0  # atno 11005 bound_to 11000
  145.0812  140.9222  143.4824 LP  0  0  0  0  0  0  0  0  0  0  0  0  # atno 17320 bound_to 7965
  145.0868  139.2919  143.5755 LP  0  0  0  0  0  0  0  0  0  0  0  0  # atno 17321 bound_to 7965
  139.6414  144.0532  152.2557 LP  0  0  0  0  0  0  0  0  0  0  0  0  # atno 17342 bound_to 10162
  140.0039  144.6273  150.7706 LP  0  0  0  0  0  0  0  0  0  0  0  0  # atno 17343 bound_to 10162
  156.4778  130.4067  149.6479 LP  0  0  0  0  0  0  0  0  0  0  0  0  # atno 17370 bound_to 10713
  156.3536  130.7445  151.2407 LP  0  0  0  0  0  0  0  0  0  0  0  0  # atno 17371 bound_to 10713
  140.0010  135.0028  157.0189 LP  0  0  0  0  0  0  0  0  0  0  0  0  # atno 17394 bound_to 11000
  140.4765  134.1333  155.7210 LP  0  0  0  0  0  0  0  0  0  0  0  0  # atno 17395 bound_to 11000

$$$$
