AV-unprocessed.smi:2751|AV-procd|sdf|10600|dock7
  -GOLD-   2272015 53D 1   1.00000     0.00000
 Structure written by MMmdl.
 34 35  0  0  0  0  0  0  0  0  1 V2000
  150.6468  140.5426  155.1438 O   0  0  0  0  0  0  0  0  0  0  0  0
  149.8624  141.4906  155.2522 C   0  0  0  0  0  0  0  0  0  0  0  0
  150.1776  142.5815  155.9667 N   0  0  0  0  0  0  0  0  0  0  0  0
  151.4312  142.7924  156.6827 C   0  0  0  0  0  0  0  0  0  0  0  0
  151.5092  141.9287  157.9533 C   0  0  0  0  0  0  0  0  0  0  0  0
  152.2511  142.6257  159.1048 C   0  0  1  0  0  0  0  0  0  0  0  0
  151.4506  143.8167  159.6675 C   0  0  0  0  0  0  0  0  0  0  0  0
  152.1780  144.4402  160.8642 C   0  0  0  0  0  0  0  0  0  0  0  0
  152.5004  143.3548  161.8966 C   0  0  0  0  0  0  0  0  0  0  0  0
  153.2414  142.1862  161.2278 C   0  0  0  0  0  0  0  0  0  0  0  0
  152.4660  141.6760  160.1474 O   0  0  0  0  0  0  0  0  0  0  0  0
  148.5917  141.6291  154.7120 N   0  0  0  0  0  0  0  0  0  0  0  0
  147.9901  140.5962  154.2081 C   0  0  0  0  0  0  0  0  0  0  0  0
  146.7299  140.5495  153.6336 N   0  0  0  0  0  0  0  0  0  0  0  0
  146.4900  139.2629  153.2370 C   0  0  0  0  0  0  0  0  0  0  0  0
  147.5546  138.5288  153.5471 C   0  0  0  0  0  0  0  0  0  0  0  0
  148.4923  139.3165  154.1435 O   0  0  0  0  0  0  0  0  0  0  0  0
  149.4939  143.3228  156.0188 H   0  0  0  0  0  0  0  0  0  0  0  0
  152.2775  142.5894  156.0243 H   0  0  0  0  0  0  0  0  0  0  0  0
  151.4929  143.8480  156.9481 H   0  0  0  0  0  0  0  0  0  0  0  0
  150.4962  141.6848  158.2764 H   0  0  0  0  0  0  0  0  0  0  0  0
  151.9965  140.9789  157.7297 H   0  0  0  0  0  0  0  0  0  0  0  0
  153.2157  142.9805  158.7375 H   0  0  0  0  0  0  0  0  0  0  0  0
  151.2966  144.5690  158.8935 H   0  0  0  0  0  0  0  0  0  0  0  0
  150.4604  143.4811  159.9788 H   0  0  0  0  0  0  0  0  0  0  0  0
  153.1016  144.9123  160.5271 H   0  0  0  0  0  0  0  0  0  0  0  0
  151.5692  145.2251  161.3138 H   0  0  0  0  0  0  0  0  0  0  0  0
  153.1002  143.7697  162.7070 H   0  0  0  0  0  0  0  0  0  0  0  0
  151.5761  142.9899  162.3461 H   0  0  0  0  0  0  0  0  0  0  0  0
  154.2224  142.5010  160.8688 H   0  0  0  0  0  0  0  0  0  0  0  0
  153.4088  141.3865  161.9494 H   0  0  0  0  0  0  0  0  0  0  0  0
  146.0699  141.3038  153.5105 H   0  0  0  0  0  0  0  0  0  0  0  0
  145.5554  139.0031  152.7624 H   0  0  0  0  0  0  0  0  0  0  0  0
  147.7881  137.4823  153.4171 H   0  0  0  0  0  0  0  0  0  0  0  0
  1  2  2  0  0  0  0
  2 12  1  0  0  0  0
  2  3  1  0  0  0  0
  3  4  1  0  0  0  0
  3 18  1  0  0  0  0
  4  5  1  0  0  0  0
  4 19  1  0  0  0  0
  4 20  1  0  0  0  0
  5  6  1  0  0  0  0
  5 21  1  0  0  0  0
  5 22  1  0  0  0  0
  6 11  1  0  0  0  0
  6  7  1  0  0  0  0
  6 23  1  0  0  0  0
  7  8  1  0  0  0  0
  7 24  1  0  0  0  0
  7 25  1  0  0  0  0
  8  9  1  0  0  0  0
  8 26  1  0  0  0  0
  8 27  1  0  0  0  0
  9 10  1  0  0  0  0
  9 28  1  0  0  0  0
  9 29  1  0  0  0  0
 10 11  1  0  0  0  0
 10 30  1  0  0  0  0
 10 31  1  0  0  0  0
 12 13  2  0  0  0  0
 13 17  1  0  0  0  0
 13 14  1  0  0  0  0
 14 32  1  0  0  0  0
 14 15  1  0  0  0  0
 15 33  1  0  0  0  0
 15 16  2  0  0  0  0
 16 34  1  0  0  0  0
 16 17  1  0  0  0  0
M  END
> <s_m_source_file>
AV-unprocessed.smi

> <i_m_source_file_index>
2751

> <i_lp_mmshare_version>
43012

> <i_f3d_flags>
0

> <s_epik_input>
bzFbY0hdW2NIXW5jMVtOSF1DKD1PKVtOSF1bQ0gyXVtDSDJdW0NAQEhdMltDSDJdW0NIMl1bQ0gyXVtDSDJdTzI=

> <s_epik_cmdline>
J2VwaWtfcHl0aG9uJywgJy1waCcsICc3LjAnLCAnLXRuJywgJzgnLCAnLW1hJywgJzIwMCcsICctbWV0YWxfYmluZGluZycsICctaW1hZScsICc8aW5maWxlLm1hZT4nLCAnLW9tYWUnLCAnPG91dGZpbGUubWFlPic=

> <r_lp_tautomer_probability>
0.107061

> <r_epik_Ionization_Penalty>
1.421

> <r_epik_Ionization_Penalty_Charging>
1.42064

> <r_epik_Ionization_Penalty_Neutral>
0.0003614

> <r_epik_State_Penalty>
2.61489

> <r_epik_Charging_Adjusted_Penalty>
4.03553

> <i_epik_Tot_Q>
0

> <i_epik_Tot_abs_Q>
0

> <r_epik_Metal_State_Penalty>
3.57288

> <b_epik_Metal_Only>
0

> <s_lp_Force_Field>
OPLS_2005

> <r_lp_Energy>
32.4841

> <b_lp_Chiralities_Consistent>
1

> <s_lp_Variant>
AV-unprocessed.smi:2751-6

> <Gold.Version>
5.8.1

> <Gold.Id.Protein>
6NUR|6NUR_protein|mol2

> <Gold.PLP.Fitness>
42.2050

> <Gold.PLP.PLP>
-31.3132

> <Gold.PLP.part.hbond>
-2.2430

> <Gold.PLP.part.metal>
0.0000

> <Gold.PLP.part.buried>
-5.8214

> <Gold.PLP.part.nonpolar>
-24.4624

> <Gold.PLP.part.repulsive>
0.5054

> <Gold.PLP.ligand.clash>
0.0000

> <Gold.PLP.ligand.torsion>
0.3910

> <Gold.PLP.Chemscore.Hbond>
1.9920

> <Gold.PLP.Chemscore.CHOScore>
1.8965

> <Gold.PLP.Chemscore.Metal>
0.0000

> <Gold.Chemscore.Hbonds>
donor molecule, donor type, donor heavy atom, donor atom, acceptor molecule, acceptor atom, score
      L1  H     3    18       P1  8028  1.00
      P1  H  7989  7998       L1     1  0.98
      L1  C    15    33       P1 10175  0.92
      L1  C    16    34       P1  7948  1.00

> <Gold.PLP.Chemscore.Internal.Correction>
0.0084

> <Gold.Rescore>
     Score         DG    S(hbond)    S(metal)    S(lipo)     H(rot)  DE(clash)    DE(int)     intcor
     13.69     -15.85       1.63        0.00      77.87       1.63       0.25       1.91       ----

> <Gold.Chemscore.Fitness>
13.6929

> <Gold.Chemscore.DG>
-15.8461

> <Gold.Chemscore.ZeroCoef>
-5.4800

> <Gold.Chemscore.Hbond>
1.6274

> <Gold.Chemscore.Metal>
0.0000

> <Gold.Chemscore.Lipo>
77.8671

> <Gold.Chemscore.Internal_Hbond>
0.0000

> <Gold.Chemscore.DEClash>
0.2475

> <Gold.Chemscore.DEInternal>
1.9057

> <Gold.Chemscore.Rot>
1.6328

> <Gold.Chemscore.Internal.Correction>
   9.000000E+99

> <Gold.Chemscore.Hbonds>
donor molecule, donor type, donor heavy atom, donor atom, acceptor molecule, acceptor atom, score
      L1  H     3    18       P1  8028  0.95
      P1  H  7989  7998       L1     1  0.46

> <Gold.Chemscore.Hbond.Weighted>
-5.4355

> <Gold.Chemscore.Metal.Weighted>
-0.0000

> <Gold.Chemscore.Lipo.Weighted>
-9.1104

> <Gold.Chemscore.Internal_Hbond.Weighted>
0.0000

> <Gold.Chemscore.DEClash.Weighted>
0.2475

> <Gold.Chemscore.DEInternal.Weighted>
1.9057

> <Gold.Chemscore.Rot.Weighted>
4.1799

> <Gold.Chemscore.Internal.Correction.Weighted>
   9.000000E+99

> <Gold.Protein.RotatedTorsions>
[ 6907 6896 6895 6894 ] final  -41.70 input  -60.11 | X-H torsion
[ 7974 7965 7964 7962 ] final -108.00 input  175.53 | X-H torsion
[ 8008 7997 7996 7995 ] final  -41.12 input   59.86 | X-H torsion
[ 10167 10162 10161 10158 ] final   99.38 input  -65.29 | X-H torsion
[ 10718 10713 10712 10709 ] final  -16.21 input   66.30 | X-H torsion
[ 10763 10752 10751 10750 ] final   75.76 input  -60.55 | X-H torsion
[ 11005 11000 10999 10996 ] final   73.61 input  -57.11 | X-H torsion

> <Gold.Protein.ActiveResidues>
 VAL166  LYS551  ARG553  GLY616  TRP617  ASP618  TYR619  PRO620  LYS621  CYS622 
 ASP623  PHE694  ASN695  SER759  ASP760  ASP761  ALA762  ILE779  LEU786  VAL792 
 PHE793  MET794  SER795  GLU796  ALA797  LYS798  CYS799  TRP800  GLU811  SER814 

> <Gold.Protein.RotatedAtoms>
  150.9638  134.9021  159.7746 H   0  0  0  0  0  0  0  0  0  0  0  0  # atno 6907 bound_to 6896
  152.5166  134.3636  159.9303 H   0  0  0  0  0  0  0  0  0  0  0  0  # atno 6908 bound_to 6896
  151.3648  133.3836  159.2728 H   0  0  0  0  0  0  0  0  0  0  0  0  # atno 6909 bound_to 6896
  145.1984  140.9045  143.3384 H   0  0  0  0  0  0  0  0  0  0  0  0  # atno 7974 bound_to 7965
  154.4006  140.1507  156.3140 H   0  0  0  0  0  0  0  0  0  0  0  0  # atno 8008 bound_to 7997
  155.8590  140.3454  155.5722 H   0  0  0  0  0  0  0  0  0  0  0  0  # atno 8009 bound_to 7997
  155.7901  140.0855  157.2004 H   0  0  0  0  0  0  0  0  0  0  0  0  # atno 8010 bound_to 7997
  139.7623  144.6950  151.0275 H   0  0  0  0  0  0  0  0  0  0  0  0  # atno 10167 bound_to 10162
  156.5908  130.4798  149.6280 H   0  0  0  0  0  0  0  0  0  0  0  0  # atno 10718 bound_to 10713
  153.0677  135.4977  154.8236 H   0  0  0  0  0  0  0  0  0  0  0  0  # atno 10763 bound_to 10752
  154.6978  135.2996  154.9389 H   0  0  0  0  0  0  0  0  0  0  0  0  # atno 10764 bound_to 10752
  154.0122  135.6753  153.4819 H   0  0  0  0  0  0  0  0  0  0  0  0  # atno 10765 bound_to 10752
  139.9432  134.7361  156.1047 H   0  0  0  0  0  0  0  0  0  0  0  0  # atno 11005 bound_to 11000
  144.9972  139.3632  143.6185 LP  0  0  0  0  0  0  0  0  0  0  0  0  # atno 17320 bound_to 7965
  146.3422  139.9180  142.8770 LP  0  0  0  0  0  0  0  0  0  0  0  0  # atno 17321 bound_to 7965
  140.7808  143.4683  151.0181 LP  0  0  0  0  0  0  0  0  0  0  0  0  # atno 17342 bound_to 10162
  139.8369  143.7616  152.3180 LP  0  0  0  0  0  0  0  0  0  0  0  0  # atno 17343 bound_to 10162
  156.2551  130.6930  151.1680 LP  0  0  0  0  0  0  0  0  0  0  0  0  # atno 17370 bound_to 10713
  157.7304  131.0616  150.5728 LP  0  0  0  0  0  0  0  0  0  0  0  0  # atno 17371 bound_to 10713
  141.1073  133.6655  156.2895 LP  0  0  0  0  0  0  0  0  0  0  0  0  # atno 17394 bound_to 11000
  140.5900  134.5660  157.5497 LP  0  0  0  0  0  0  0  0  0  0  0  0  # atno 17395 bound_to 11000

$$$$
