AV-unprocessed.smi:1403|AV-procd|sdf|5697|dock2
  -GOLD-   22720 5323D 1   1.00000     0.00000
 Structure written by MMmdl.
 36 37  0  0  0  0  0  0  0  0  1 V2000
  153.3703  140.9702  160.4817 C   0  0  0  0  0  0  0  0  0  0  0  0
  152.4069  141.5702  159.4435 C   0  0  2  0  0  0  0  0  0  0  0  0
  152.6696  140.9753  158.1357 N   0  0  0  0  0  0  0  0  0  0  0  0
  151.8953  140.0677  157.5218 C   0  0  0  0  0  0  0  0  0  0  0  0
  150.8716  139.6014  158.0236 O   0  0  0  0  0  0  0  0  0  0  0  0
  152.3681  139.5972  156.1397 C   0  0  0  0  0  0  0  0  0  0  0  0
  151.3046  139.6614  155.1273 N   0  0  0  0  0  0  0  0  0  0  0  0
  150.3984  140.7124  155.1255 C   0  0  0  0  0  0  0  0  0  0  0  0
  149.4036  140.8375  154.2153 C   0  0  0  0  0  0  0  0  0  0  0  0
  149.2353  139.8407  153.1631 C   0  0  0  0  0  0  0  0  0  0  0  0
  148.3649  139.8649  152.2958 O   0  0  0  0  0  0  0  0  0  0  0  0
  150.1676  138.8004  153.1972 N   0  0  0  0  0  0  0  0  0  0  0  0
  151.1965  138.6669  154.1307 C   0  0  0  0  0  0  0  0  0  0  0  0
  151.9685  137.7108  154.0674 O   0  0  0  0  0  0  0  0  0  0  0  0
  152.5348  143.1022  159.3365 C   0  0  2  0  0  0  0  0  0  0  0  0
  151.9790  143.8737  160.5363 C   0  0  0  0  0  0  0  0  0  0  0  0
  151.6131  145.2004  159.9127 C   0  0  0  0  0  0  0  0  0  0  0  0
  151.0638  144.7580  158.5619 C   0  0  0  0  0  0  0  0  0  0  0  0
  151.7929  143.5844  158.2155 O   0  0  0  0  0  0  0  0  0  0  0  0
  150.0924  138.0874  152.4865 H   0  0  0  0  0  0  0  0  0  0  0  0
  153.1719  141.3600  161.4801 H   0  0  0  0  0  0  0  0  0  0  0  0
  154.4087  141.1955  160.2366 H   0  0  0  0  0  0  0  0  0  0  0  0
  153.2681  139.8857  160.5331 H   0  0  0  0  0  0  0  0  0  0  0  0
  151.3837  141.3385  159.7448 H   0  0  0  0  0  0  0  0  0  0  0  0
  153.4927  141.2991  157.6487 H   0  0  0  0  0  0  0  0  0  0  0  0
  153.2313  140.1825  155.8153 H   0  0  0  0  0  0  0  0  0  0  0  0
  152.7360  138.5751  156.2401 H   0  0  0  0  0  0  0  0  0  0  0  0
  150.4875  141.4768  155.8843 H   0  0  0  0  0  0  0  0  0  0  0  0
  148.7296  141.6804  154.2652 H   0  0  0  0  0  0  0  0  0  0  0  0
  153.5778  143.3856  159.1845 H   0  0  0  0  0  0  0  0  0  0  0  0
  151.0830  143.3887  160.9267 H   0  0  0  0  0  0  0  0  0  0  0  0
  152.6978  143.9701  161.3508 H   0  0  0  0  0  0  0  0  0  0  0  0
  150.8928  145.7695  160.5010 H   0  0  0  0  0  0  0  0  0  0  0  0
  152.5066  145.8112  159.7767 H   0  0  0  0  0  0  0  0  0  0  0  0
  150.0086  144.4962  158.6477 H   0  0  0  0  0  0  0  0  0  0  0  0
  151.1606  145.5295  157.7977 H   0  0  0  0  0  0  0  0  0  0  0  0
  1  2  1  0  0  0  0
  1 21  1  0  0  0  0
  1 22  1  0  0  0  0
  1 23  1  0  0  0  0
  2  3  1  0  0  0  0
  2 15  1  0  0  0  0
  2 24  1  0  0  0  0
  3  4  1  0  0  0  0
  3 25  1  0  0  0  0
  4  5  2  0  0  0  0
  4  6  1  0  0  0  0
  6  7  1  0  0  0  0
  6 26  1  0  0  0  0
  6 27  1  0  0  0  0
  7 13  1  0  0  0  0
  7  8  1  0  0  0  0
  8  9  2  0  0  0  0
  8 28  1  0  0  0  0
  9 10  1  0  0  0  0
  9 29  1  0  0  0  0
 10 11  2  0  0  0  0
 10 12  1  0  0  0  0
 12 20  1  0  0  0  0
 12 13  1  0  0  0  0
 13 14  2  0  0  0  0
 15 19  1  0  0  0  0
 15 16  1  0  0  0  0
 15 30  1  0  0  0  0
 16 17  1  0  0  0  0
 16 31  1  0  0  0  0
 16 32  1  0  0  0  0
 17 18  1  0  0  0  0
 17 33  1  0  0  0  0
 17 34  1  0  0  0  0
 18 19  1  0  0  0  0
 18 35  1  0  0  0  0
 18 36  1  0  0  0  0
M  END
> <s_m_source_file>
AV-unprocessed.smi

> <i_m_source_file_index>
1403

> <i_lp_mmshare_version>
43012

> <i_f3d_flags>
0

> <s_epik_input>
TzFbQ0gyXVtDSDJdW0NIMl1bQ0BIXTFbQ0BIXShbQ0gzXSlbTkhdQyg9TylbQ0gyXW4yW2NIXVtjSF1jKD1PKVtuSF1jMj1P

> <s_epik_cmdline>
J2VwaWtfcHl0aG9uJywgJy1waCcsICc3LjAnLCAnLXRuJywgJzgnLCAnLW1hJywgJzIwMCcsICctbWV0YWxfYmluZGluZycsICctaW1hZScsICc8aW5maWxlLm1hZT4nLCAnLW9tYWUnLCAnPG91dGZpbGUubWFlPic=

> <r_lp_tautomer_probability>
0.999537

> <r_epik_Ionization_Penalty>
0.00331407

> <r_epik_Ionization_Penalty_Charging>
0.00331405

> <r_epik_Ionization_Penalty_Neutral>
2.30132e-08

> <r_epik_State_Penalty>
0.00234266

> <r_epik_Charging_Adjusted_Penalty>
0.00565671

> <i_epik_Tot_Q>
0

> <i_epik_Tot_abs_Q>
0

> <r_epik_Metal_State_Penalty>
0.365604

> <b_epik_Metal_Only>
0

> <s_lp_Force_Field>
OPLS_2005

> <r_lp_Energy>
18.7727

> <b_lp_Chiralities_Consistent>
1

> <s_lp_Variant>
AV-unprocessed.smi:1403-1

> <Gold.Version>
5.8.1

> <Gold.Id.Protein>
6NUR|6NUR_protein|mol2

> <Gold.PLP.Fitness>
42.3826

> <Gold.PLP.PLP>
-37.6975

> <Gold.PLP.part.hbond>
-2.0000

> <Gold.PLP.part.metal>
0.0000

> <Gold.PLP.part.buried>
-4.7395

> <Gold.PLP.part.nonpolar>
-32.8366

> <Gold.PLP.part.repulsive>
1.9077

> <Gold.PLP.ligand.clash>
0.0000

> <Gold.PLP.ligand.torsion>
0.6723

> <Gold.PLP.Chemscore.Hbond>
2.0000

> <Gold.PLP.Chemscore.CHOScore>
0.0000

> <Gold.PLP.Chemscore.Metal>
0.0000

> <Gold.Chemscore.Hbonds>
donor molecule, donor type, donor heavy atom, donor atom, acceptor molecule, acceptor atom, score
      L1  H    12    20       P1  7948  0.39
      P1  H 10752 10763       L1    14  0.30

> <Gold.PLP.Chemscore.Internal.Correction>
0.0297

> <Gold.Rescore>
     Score         DG    S(hbond)    S(metal)    S(lipo)     H(rot)  DE(clash)    DE(int)     intcor
     14.93     -16.60       1.92        0.00      84.87       2.04       0.25       1.43       ----

> <Gold.Chemscore.Fitness>
14.9277

> <Gold.Chemscore.DG>
-16.6027

> <Gold.Chemscore.ZeroCoef>
-5.4800

> <Gold.Chemscore.Hbond>
1.9202

> <Gold.Chemscore.Metal>
0.0000

> <Gold.Chemscore.Lipo>
84.8741

> <Gold.Chemscore.Internal_Hbond>
0.0000

> <Gold.Chemscore.DEClash>
0.2457

> <Gold.Chemscore.DEInternal>
1.4294

> <Gold.Chemscore.Rot>
2.0395

> <Gold.Chemscore.Internal.Correction>
   9.000000E+99

> <Gold.Chemscore.Hbonds>
donor molecule, donor type, donor heavy atom, donor atom, acceptor molecule, acceptor atom, score
      L1  H    12    20       P1  7948  0.05
      P1  H 10752 10763       L1    14  0.30

> <Gold.Chemscore.Hbond.Weighted>
-6.4136

> <Gold.Chemscore.Metal.Weighted>
-0.0000

> <Gold.Chemscore.Lipo.Weighted>
-9.9303

> <Gold.Chemscore.Internal_Hbond.Weighted>
0.0000

> <Gold.Chemscore.DEClash.Weighted>
0.2457

> <Gold.Chemscore.DEInternal.Weighted>
1.4294

> <Gold.Chemscore.Rot.Weighted>
5.2211

> <Gold.Chemscore.Internal.Correction.Weighted>
   9.000000E+99

> <Gold.Protein.RotatedTorsions>
[ 6907 6896 6895 6894 ] final -124.37 input  -60.11 | X-H torsion
[ 7974 7965 7964 7962 ] final   87.52 input  175.53 | X-H torsion
[ 8008 7997 7996 7995 ] final   40.21 input   59.86 | X-H torsion
[ 10167 10162 10161 10158 ] final  162.82 input  -65.29 | X-H torsion
[ 10718 10713 10712 10709 ] final  131.59 input   66.30 | X-H torsion
[ 10763 10752 10751 10750 ] final   45.08 input  -60.55 | X-H torsion
[ 11005 11000 10999 10996 ] final -144.39 input  -57.11 | X-H torsion

> <Gold.Protein.ActiveResidues>
 VAL166  LYS551  ARG553  GLY616  TRP617  ASP618  TYR619  PRO620  LYS621  CYS622 
 ASP623  PHE694  ASN695  SER759  ASP760  ASP761  ALA762  ILE779  LEU786  VAL792 
 PHE793  MET794  SER795  GLU796  ALA797  LYS798  CYS799  TRP800  GLU811  SER814 

> <Gold.Protein.RotatedAtoms>
  150.8761  133.7437  159.2946 H   0  0  0  0  0  0  0  0  0  0  0  0  # atno 6907 bound_to 6896
  151.5033  135.1061  159.9844 H   0  0  0  0  0  0  0  0  0  0  0  0  # atno 6908 bound_to 6896
  152.4728  133.8024  159.7015 H   0  0  0  0  0  0  0  0  0  0  0  0  # atno 6909 bound_to 6896
  145.5579  139.2301  143.2476 H   0  0  0  0  0  0  0  0  0  0  0  0  # atno 7974 bound_to 7965
  155.2494  140.3351  155.4284 H   0  0  0  0  0  0  0  0  0  0  0  0  # atno 8008 bound_to 7997
  156.2222  140.1814  156.7494 H   0  0  0  0  0  0  0  0  0  0  0  0  # atno 8009 bound_to 7997
  154.5843  140.0648  156.9133 H   0  0  0  0  0  0  0  0  0  0  0  0  # atno 8010 bound_to 7997
  139.4865  144.4399  151.8964 H   0  0  0  0  0  0  0  0  0  0  0  0  # atno 10167 bound_to 10162
  157.4953  131.1092  150.9502 H   0  0  0  0  0  0  0  0  0  0  0  0  # atno 10718 bound_to 10713
  152.9830  135.6050  154.3379 H   0  0  0  0  0  0  0  0  0  0  0  0  # atno 10763 bound_to 10752
  154.3078  135.2771  155.2582 H   0  0  0  0  0  0  0  0  0  0  0  0  # atno 10764 bound_to 10752
  154.4806  135.5918  153.6442 H   0  0  0  0  0  0  0  0  0  0  0  0  # atno 10765 bound_to 10752
  140.8029  134.2835  157.4971 H   0  0  0  0  0  0  0  0  0  0  0  0  # atno 11005 bound_to 11000
  146.1871  140.6403  142.9162 LP  0  0  0  0  0  0  0  0  0  0  0  0  # atno 17320 bound_to 7965
  144.7497  140.5159  143.6810 LP  0  0  0  0  0  0  0  0  0  0  0  0  # atno 17321 bound_to 7965
  140.3851  144.2687  150.5905 LP  0  0  0  0  0  0  0  0  0  0  0  0  # atno 17342 bound_to 10162
  140.5198  143.2269  151.8407 LP  0  0  0  0  0  0  0  0  0  0  0  0  # atno 17343 bound_to 10162
  157.0190  130.5666  149.5329 LP  0  0  0  0  0  0  0  0  0  0  0  0  # atno 17370 bound_to 10713
  156.0197  130.5291  150.8238 LP  0  0  0  0  0  0  0  0  0  0  0  0  # atno 17371 bound_to 10713
  139.8720  134.9440  156.3868 LP  0  0  0  0  0  0  0  0  0  0  0  0  # atno 17394 bound_to 11000
  140.9276  133.7601  155.9984 LP  0  0  0  0  0  0  0  0  0  0  0  0  # atno 17395 bound_to 11000

$$$$
