AV-unprocessed.smi:183|AV-procd|sdf|1458|dock8
  -GOLD-   2262019263D 1   1.00000     0.00000
 Structure written by MMmdl.
 55 57  0  0  0  0  0  0  0  0  1 V2000
  151.9343  145.0783  159.6084 C   0  0  0  0  0  0  0  0  0  0  0  0
  151.9580  143.5604  159.4669 C   0  0  0  0  0  0  0  0  0  0  0  0
  152.7408  142.8906  160.1412 O   0  0  0  0  0  0  0  0  0  0  0  0
  151.0911  143.0317  158.5882 N   0  0  0  0  0  0  0  0  0  0  0  0
  150.9508  141.6052  158.3217 C   0  0  0  0  0  0  0  0  0  0  0  0
  149.8704  141.3346  157.2517 C   0  0  0  0  0  0  0  0  0  0  0  0
  150.0060  140.0317  156.5912 N   0  0  0  0  0  0  0  0  0  0  0  0
  149.7672  139.0234  157.4677 C   0  0  0  0  0  0  0  0  0  0  0  0
  150.7605  138.7205  158.3417 N   0  0  0  0  0  0  0  0  0  0  0  0
  150.6224  137.6972  159.1891 C   0  0  0  0  0  0  0  0  0  0  0  0
  149.5982  136.8521  159.3163 N   0  0  0  0  0  0  0  0  0  0  0  0
  148.5990  137.1492  158.4370 C   0  0  0  0  0  0  0  0  0  0  0  0
  148.5913  138.2180  157.4970 C   0  0  0  0  0  0  0  0  0  0  0  0
  147.3987  138.2057  156.7822 N   0  0  0  0  0  0  0  0  0  0  0  0
  146.7473  137.1830  157.2621 C   0  0  0  0  0  0  0  0  0  0  0  0
  147.4079  136.4737  158.2388 N   0  0  0  0  0  0  0  0  0  0  0  0
  146.9349  135.2782  158.9173 C   0  0  0  0  0  0  0  0  0  0  0  0
  145.9132  135.5403  160.0553 C   0  0  2  0  0  0  0  0  0  0  0  0
  144.7098  135.9387  159.4209 O   0  0  0  0  0  0  0  0  0  0  0  0
  146.3163  136.6141  161.0570 C   0  0  0  0  0  0  0  0  0  0  0  0
  145.4130  136.3204  162.2506 C   0  0  0  0  0  0  0  0  0  0  0  0
  145.1984  134.9128  162.2357 O   0  0  0  0  0  0  0  0  0  0  0  0
  145.6454  134.3513  161.0034 C   0  0  1  0  0  0  0  0  0  0  0  0
  144.6742  133.2748  160.4954 C   0  0  0  0  0  0  0  0  0  0  0  0
  151.0376  139.8323  155.5596 C   0  0  0  0  0  0  0  0  0  0  0  0
  150.6152  138.7666  154.5309 C   0  0  0  0  0  0  0  0  0  0  0  0
  152.4010  139.4256  156.1604 C   0  0  0  0  0  0  0  0  0  0  0  0
  150.9552  145.4132  159.9519 H   0  0  0  0  0  0  0  0  0  0  0  0
  152.1471  145.5540  158.6508 H   0  0  0  0  0  0  0  0  0  0  0  0
  152.6813  145.4116  160.3295 H   0  0  0  0  0  0  0  0  0  0  0  0
  150.4854  143.6575  158.0771 H   0  0  0  0  0  0  0  0  0  0  0  0
  151.9102  141.2091  157.9890 H   0  0  0  0  0  0  0  0  0  0  0  0
  150.7321  141.0967  159.2599 H   0  0  0  0  0  0  0  0  0  0  0  0
  148.8794  141.4000  157.7042 H   0  0  0  0  0  0  0  0  0  0  0  0
  149.8788  142.1289  156.5057 H   0  0  0  0  0  0  0  0  0  0  0  0
  151.4576  137.5226  159.8509 H   0  0  0  0  0  0  0  0  0  0  0  0
  145.7696  136.9021  156.8983 H   0  0  0  0  0  0  0  0  0  0  0  0
  146.4965  134.6169  158.1687 H   0  0  0  0  0  0  0  0  0  0  0  0
  147.8050  134.7518  159.3123 H   0  0  0  0  0  0  0  0  0  0  0  0
  144.9031  136.1420  158.5184 H   0  0  0  0  0  0  0  0  0  0  0  0
  147.3503  136.4833  161.3735 H   0  0  0  0  0  0  0  0  0  0  0  0
  146.2108  137.6311  160.6774 H   0  0  0  0  0  0  0  0  0  0  0  0
  145.8513  136.6465  163.1941 H   0  0  0  0  0  0  0  0  0  0  0  0
  144.4508  136.8204  162.1341 H   0  0  0  0  0  0  0  0  0  0  0  0
  146.5896  133.8683  161.2505 H   0  0  0  0  0  0  0  0  0  0  0  0
  145.0179  132.8520  159.5512 H   0  0  0  0  0  0  0  0  0  0  0  0
  143.6716  133.6745  160.3417 H   0  0  0  0  0  0  0  0  0  0  0  0
  144.5937  132.4589  161.2137 H   0  0  0  0  0  0  0  0  0  0  0  0
  151.1685  140.7703  155.0204 H   0  0  0  0  0  0  0  0  0  0  0  0
  151.4044  138.5959  153.7981 H   0  0  0  0  0  0  0  0  0  0  0  0
  149.7301  139.0685  153.9715 H   0  0  0  0  0  0  0  0  0  0  0  0
  150.4004  137.8126  155.0136 H   0  0  0  0  0  0  0  0  0  0  0  0
  153.1363  139.2513  155.3745 H   0  0  0  0  0  0  0  0  0  0  0  0
  152.3172  138.5072  156.7421 H   0  0  0  0  0  0  0  0  0  0  0  0
  152.8184  140.1929  156.8114 H   0  0  0  0  0  0  0  0  0  0  0  0
  1  2  1  0  0  0  0
  1 28  1  0  0  0  0
  1 29  1  0  0  0  0
  1 30  1  0  0  0  0
  2  3  2  0  0  0  0
  2  4  1  0  0  0  0
  4  5  1  0  0  0  0
  4 31  1  0  0  0  0
  5  6  1  0  0  0  0
  5 32  1  0  0  0  0
  5 33  1  0  0  0  0
  6  7  1  0  0  0  0
  6 34  1  0  0  0  0
  6 35  1  0  0  0  0
  7  8  1  0  0  0  0
  7 25  1  0  0  0  0
  8 13  1  0  0  0  0
  8  9  2  0  0  0  0
  9 10  1  0  0  0  0
 10 11  2  0  0  0  0
 10 36  1  0  0  0  0
 11 12  1  0  0  0  0
 12 16  1  0  0  0  0
 12 13  2  0  0  0  0
 13 14  1  0  0  0  0
 14 15  2  0  0  0  0
 15 16  1  0  0  0  0
 15 37  1  0  0  0  0
 16 17  1  0  0  0  0
 17 18  1  0  0  0  0
 17 38  1  0  0  0  0
 17 39  1  0  0  0  0
 18 23  1  0  0  0  0
 18 19  1  0  0  0  0
 18 20  1  0  0  0  0
 19 40  1  0  0  0  0
 20 21  1  0  0  0  0
 20 41  1  0  0  0  0
 20 42  1  0  0  0  0
 21 22  1  0  0  0  0
 21 43  1  0  0  0  0
 21 44  1  0  0  0  0
 22 23  1  0  0  0  0
 23 24  1  0  0  0  0
 23 45  1  0  0  0  0
 24 46  1  0  0  0  0
 24 47  1  0  0  0  0
 24 48  1  0  0  0  0
 25 26  1  0  0  0  0
 25 27  1  0  0  0  0
 25 49  1  0  0  0  0
 26 50  1  0  0  0  0
 26 51  1  0  0  0  0
 26 52  1  0  0  0  0
 27 53  1  0  0  0  0
 27 54  1  0  0  0  0
 27 55  1  0  0  0  0
M  END
> <s_m_source_file>
AV-unprocessed.smi

> <i_m_source_file_index>
183

> <i_lp_mmshare_version>
43012

> <i_f3d_flags>
0

> <s_epik_input>
W0NIM11DKD1PKVtOSF1bQ0gyXVtDSDJdTihbQ0hdKFtDSDNdKVtDSDNdKWMobltjSF1uMSljKGMxMiluW2NIXW4yW0NIMl1bQ0BAXTMoW09IXSlbQ0gyXVtDSDJdT1tDQEhdM1tDSDNd

> <s_epik_cmdline>
J2VwaWtfcHl0aG9uJywgJy1waCcsICc3LjAnLCAnLXRuJywgJzgnLCAnLW1hJywgJzIwMCcsICctbWV0YWxfYmluZGluZycsICctaW1hZScsICc8aW5maWxlLm1hZT4nLCAnLW9tYWUnLCAnPG91dGZpbGUubWFlPic=

> <r_lp_tautomer_probability>
1

> <r_epik_Ionization_Penalty>
0.00156158

> <r_epik_Ionization_Penalty_Charging>
0

> <r_epik_Ionization_Penalty_Neutral>
0.00156158

> <r_epik_State_Penalty>
0.000865808

> <r_epik_Charging_Adjusted_Penalty>
0.000865808

> <i_epik_Tot_Q>
0

> <i_epik_Tot_abs_Q>
0

> <r_epik_Metal_State_Penalty>
-0

> <b_epik_Metal_Only>
0

> <s_lp_Force_Field>
OPLS_2005

> <r_lp_Energy>
32.608

> <b_lp_Chiralities_Consistent>
1

> <s_lp_Variant>
AV-unprocessed.smi:183-2

> <Gold.Version>
5.8.1

> <Gold.Id.Protein>
6NUR|6NUR_protein|mol2

> <Gold.PLP.Fitness>
50.5741

> <Gold.PLP.PLP>
-48.7802

> <Gold.PLP.part.hbond>
-2.6110

> <Gold.PLP.part.metal>
0.0000

> <Gold.PLP.part.buried>
-6.5884

> <Gold.PLP.part.nonpolar>
-39.2036

> <Gold.PLP.part.repulsive>
0.0519

> <Gold.PLP.ligand.clash>
0.0000

> <Gold.PLP.ligand.torsion>
1.1902

> <Gold.PLP.Chemscore.Hbond>
1.0000

> <Gold.PLP.Chemscore.CHOScore>
0.0000

> <Gold.PLP.Chemscore.Metal>
0.0000

> <Gold.Chemscore.Hbonds>
donor molecule, donor type, donor heavy atom, donor atom, acceptor molecule, acceptor atom, score
      P1  H  6896  6907       L1    11  0.01

> <Gold.PLP.Chemscore.Internal.Correction>
1.1743

> <Gold.Rescore>
     Score         DG    S(hbond)    S(metal)    S(lipo)     H(rot)  DE(clash)    DE(int)     intcor
      7.39     -11.18       0.97        0.00      96.40       3.45       0.13       3.66       ----

> <Gold.Chemscore.Fitness>
7.3887

> <Gold.Chemscore.DG>
-11.1804

> <Gold.Chemscore.ZeroCoef>
-5.4800

> <Gold.Chemscore.Hbond>
0.9704

> <Gold.Chemscore.Metal>
0.0000

> <Gold.Chemscore.Lipo>
96.3981

> <Gold.Chemscore.Internal_Hbond>
0.0000

> <Gold.Chemscore.DEClash>
0.1281

> <Gold.Chemscore.DEInternal>
3.6636

> <Gold.Chemscore.Rot>
3.4451

> <Gold.Chemscore.Internal.Correction>
   9.000000E+99

> <Gold.Chemscore.Hbond.Weighted>
-3.2412

> <Gold.Chemscore.Metal.Weighted>
-0.0000

> <Gold.Chemscore.Lipo.Weighted>
-11.2786

> <Gold.Chemscore.Internal_Hbond.Weighted>
0.0000

> <Gold.Chemscore.DEClash.Weighted>
0.1281

> <Gold.Chemscore.DEInternal.Weighted>
3.6636

> <Gold.Chemscore.Rot.Weighted>
8.8194

> <Gold.Chemscore.Internal.Correction.Weighted>
   9.000000E+99

> <Gold.Protein.RotatedTorsions>
[ 6907 6896 6895 6894 ] final  -23.06 input  -60.11 | X-H torsion
[ 7974 7965 7964 7962 ] final  161.06 input  175.53 | X-H torsion
[ 8008 7997 7996 7995 ] final  116.30 input   59.86 | X-H torsion
[ 10167 10162 10161 10158 ] final  -62.71 input  -65.29 | X-H torsion
[ 10718 10713 10712 10709 ] final  129.04 input   66.30 | X-H torsion
[ 10763 10752 10751 10750 ] final  -37.51 input  -60.55 | X-H torsion
[ 11005 11000 10999 10996 ] final  -84.07 input  -57.11 | X-H torsion

> <Gold.Protein.ActiveResidues>
 VAL166  LYS551  ARG553  GLY616  TRP617  ASP618  TYR619  PRO620  LYS621  CYS622 
 ASP623  PHE694  ASN695  SER759  ASP760  ASP761  ALA762  ILE779  LEU786  VAL792 
 PHE793  MET794  SER795  GLU796  ALA797  LYS798  CYS799  TRP800  GLU811  SER814 

> <Gold.Protein.RotatedAtoms>
  151.2095  135.0475  159.8904 H   0  0  0  0  0  0  0  0  0  0  0  0  # atno 6907 bound_to 6896
  152.5426  134.0761  159.8225 H   0  0  0  0  0  0  0  0  0  0  0  0  # atno 6908 bound_to 6896
  151.0912  133.5266  159.2646 H   0  0  0  0  0  0  0  0  0  0  0  0  # atno 6909 bound_to 6896
  144.7705  139.7844  143.6299 H   0  0  0  0  0  0  0  0  0  0  0  0  # atno 7974 bound_to 7965
  156.2431  140.2920  156.0503 H   0  0  0  0  0  0  0  0  0  0  0  0  # atno 8008 bound_to 7997
  155.1889  140.0406  157.2914 H   0  0  0  0  0  0  0  0  0  0  0  0  # atno 8009 bound_to 7997
  154.6208  140.2475  155.7559 H   0  0  0  0  0  0  0  0  0  0  0  0  # atno 8010 bound_to 7997
  140.5921  143.2343  151.6117 H   0  0  0  0  0  0  0  0  0  0  0  0  # atno 10167 bound_to 10162
  157.5190  131.1098  150.9182 H   0  0  0  0  0  0  0  0  0  0  0  0  # atno 10718 bound_to 10713
  153.8974  135.6806  153.4757 H   0  0  0  0  0  0  0  0  0  0  0  0  # atno 10763 bound_to 10752
  153.1148  135.4766  154.9093 H   0  0  0  0  0  0  0  0  0  0  0  0  # atno 10764 bound_to 10752
  154.7592  135.3206  154.8365 H   0  0  0  0  0  0  0  0  0  0  0  0  # atno 10765 bound_to 10752
  141.1653  133.7327  156.8813 H   0  0  0  0  0  0  0  0  0  0  0  0  # atno 11005 bound_to 11000
  146.1848  139.5057  142.9843 LP  0  0  0  0  0  0  0  0  0  0  0  0  # atno 17320 bound_to 7965
  145.6338  141.0298  143.1848 LP  0  0  0  0  0  0  0  0  0  0  0  0  # atno 17321 bound_to 7965
  139.5234  144.3134  152.0973 LP  0  0  0  0  0  0  0  0  0  0  0  0  # atno 17342 bound_to 10162
  140.2300  144.4378  150.6304 LP  0  0  0  0  0  0  0  0  0  0  0  0  # atno 17343 bound_to 10162
  156.9798  130.5522  149.5295 LP  0  0  0  0  0  0  0  0  0  0  0  0  # atno 17370 bound_to 10713
  156.0340  130.5429  150.8607 LP  0  0  0  0  0  0  0  0  0  0  0  0  # atno 17371 bound_to 10713
  140.1713  134.9098  157.2836 LP  0  0  0  0  0  0  0  0  0  0  0  0  # atno 17394 bound_to 11000
  140.2499  134.3695  155.7446 LP  0  0  0  0  0  0  0  0  0  0  0  0  # atno 17395 bound_to 11000

$$$$
