AV-unprocessed.smi:3037|AV-procd|sdf|11587|dock8
  -GOLD-   2272016563D 1   1.00000     0.00000
 Structure written by MMmdl.
 47 48  0  0  0  0  0  0  0  0  2 V2000
  153.1170  131.0245  164.4200 C   0  0  0  0  0  0  0  0  0  0  0  0
  153.7774  132.3694  164.5181 C   0  0  0  0  0  0  0  0  0  0  0  0
  153.8864  133.2102  165.6621 C   0  0  0  0  0  0  0  0  0  0  0  0
  154.5343  134.3366  165.4125 N   0  0  0  0  0  0  0  0  0  0  0  0
  154.8593  134.2556  164.1050 N   0  0  0  0  0  0  0  0  0  0  0  0
  155.5919  135.3377  163.4723 C   0  0  0  0  0  0  0  0  0  0  0  0
  154.7759  136.6484  163.3906 C   0  0  1  0  0  0  0  0  0  0  0  0
  154.6275  137.3431  164.7550 C   0  0  0  0  0  0  0  0  0  0  0  0
  155.3864  137.5938  162.4295 N   0  3  0  0  0  0  0  0  0  0  0  0
  154.6786  138.8814  162.2680 C   0  0  0  0  0  0  0  0  0  0  0  0
  155.3927  139.7702  161.2339 C   0  0  0  0  0  0  0  0  0  0  0  0
  154.5132  140.1551  160.0309 C   0  0  0  0  0  0  0  0  0  0  0  0
  154.8095  139.7220  158.9163 O   0  0  0  0  0  0  0  0  0  0  0  0
  153.4368  140.9542  160.2333 N   0  0  0  0  0  0  0  0  0  0  0  0
  153.1210  141.5424  161.5424 C   0  0  0  0  0  0  0  0  0  0  0  0
  153.3616  143.0622  161.4779 C   0  0  0  0  0  0  0  0  0  0  0  0
  152.5443  143.7030  160.3407 C   0  0  0  0  0  0  0  0  0  0  0  0
  152.7466  142.9586  159.0077 C   0  0  0  0  0  0  0  0  0  0  0  0
  152.5287  141.4454  159.1868 C   0  0  0  0  0  0  0  0  0  0  0  0
  154.4171  133.0780  163.5410 C   0  0  0  0  0  0  0  0  0  0  0  0
  152.5858  130.7656  165.3361 H   0  0  0  0  0  0  0  0  0  0  0  0
  153.8434  130.2330  164.2353 H   0  0  0  0  0  0  0  0  0  0  0  0
  152.3906  130.9914  163.6077 H   0  0  0  0  0  0  0  0  0  0  0  0
  153.5157  133.0356  166.6613 H   0  0  0  0  0  0  0  0  0  0  0  0
  156.5185  135.5046  164.0247 H   0  0  0  0  0  0  0  0  0  0  0  0
  155.8821  134.9981  162.4783 H   0  0  0  0  0  0  0  0  0  0  0  0
  153.7701  136.4147  163.0384 H   0  0  0  0  0  0  0  0  0  0  0  0
  154.0792  136.7239  165.4652 H   0  0  0  0  0  0  0  0  0  0  0  0
  154.0796  138.2811  164.6599 H   0  0  0  0  0  0  0  0  0  0  0  0
  155.6007  137.5691  165.1923 H   0  0  0  0  0  0  0  0  0  0  0  0
  156.3162  137.8056  162.7630 H   0  0  0  0  0  0  0  0  0  0  0  0
  153.6505  138.6984  161.9544 H   0  0  0  0  0  0  0  0  0  0  0  0
  154.6399  139.3878  163.2339 H   0  0  0  0  0  0  0  0  0  0  0  0
  155.7284  140.6843  161.7255 H   0  0  0  0  0  0  0  0  0  0  0  0
  156.2792  139.2517  160.8668 H   0  0  0  0  0  0  0  0  0  0  0  0
  152.0781  141.3376  161.7883 H   0  0  0  0  0  0  0  0  0  0  0  0
  153.7061  141.1112  162.3555 H   0  0  0  0  0  0  0  0  0  0  0  0
  153.1014  143.5245  162.4306 H   0  0  0  0  0  0  0  0  0  0  0  0
  154.4233  143.2562  161.3191 H   0  0  0  0  0  0  0  0  0  0  0  0
  151.4863  143.6775  160.6050 H   0  0  0  0  0  0  0  0  0  0  0  0
  152.8091  144.7549  160.2308 H   0  0  0  0  0  0  0  0  0  0  0  0
  152.0621  143.3506  158.2548 H   0  0  0  0  0  0  0  0  0  0  0  0
  153.7555  143.1410  158.6352 H   0  0  0  0  0  0  0  0  0  0  0  0
  152.6430  140.9399  158.2295 H   0  0  0  0  0  0  0  0  0  0  0  0
  151.4987  141.2537  159.4912 H   0  0  0  0  0  0  0  0  0  0  0  0
  154.5913  132.8441  162.5010 H   0  0  0  0  0  0  0  0  0  0  0  0
  155.4654  137.1399  161.5305 H   0  0  0  0  0  0  0  0  0  0  0  0
  1  2  1  0  0  0  0
  1 21  1  0  0  0  0
  1 22  1  0  0  0  0
  1 23  1  0  0  0  0
  2 20  2  0  0  0  0
  2  3  1  0  0  0  0
  3  4  2  0  0  0  0
  3 24  1  0  0  0  0
  4  5  1  0  0  0  0
  5  6  1  0  0  0  0
  5 20  1  0  0  0  0
  6  7  1  0  0  0  0
  6 25  1  0  0  0  0
  6 26  1  0  0  0  0
  7  8  1  0  0  0  0
  7  9  1  0  0  0  0
  7 27  1  0  0  0  0
  8 28  1  0  0  0  0
  8 29  1  0  0  0  0
  8 30  1  0  0  0  0
  9 10  1  0  0  0  0
  9 31  1  0  0  0  0
  9 47  1  0  0  0  0
 10 11  1  0  0  0  0
 10 32  1  0  0  0  0
 10 33  1  0  0  0  0
 11 12  1  0  0  0  0
 11 34  1  0  0  0  0
 11 35  1  0  0  0  0
 12 13  2  0  0  0  0
 12 14  1  0  0  0  0
 14 19  1  0  0  0  0
 14 15  1  0  0  0  0
 15 16  1  0  0  0  0
 15 36  1  0  0  0  0
 15 37  1  0  0  0  0
 16 17  1  0  0  0  0
 16 38  1  0  0  0  0
 16 39  1  0  0  0  0
 17 18  1  0  0  0  0
 17 40  1  0  0  0  0
 17 41  1  0  0  0  0
 18 19  1  0  0  0  0
 18 42  1  0  0  0  0
 18 43  1  0  0  0  0
 19 44  1  0  0  0  0
 19 45  1  0  0  0  0
 20 46  1  0  0  0  0
M  CHG  1   9   1
M  END
> <s_m_source_file>
AV-unprocessed.smi

> <i_m_source_file_index>
3037

> <i_lp_mmshare_version>
43012

> <i_f3d_flags>
0

> <s_epik_input>
W0NIM11jMVtjSF1ubihbY0hdMSlbQ0gyXVtDQEhdKFtDSDNdKVtOSF1bQ0gyXVtDSDJdQyg9TylOMltDSDJdW0NIMl1bQ0gyXVtDSDJdW0NIMl0y

> <s_epik_cmdline>
J2VwaWtfcHl0aG9uJywgJy1waCcsICc3LjAnLCAnLXRuJywgJzgnLCAnLW1hJywgJzIwMCcsICctbWV0YWxfYmluZGluZycsICctaW1hZScsICc8aW5maWxlLm1hZT4nLCAnLW9tYWUnLCAnPG91dGZpbGUubWFlPic=

> <r_lp_tautomer_probability>
1

> <r_epik_Ionization_Penalty>
0.00574983

> <r_epik_Ionization_Penalty_Charging>
0.00574185

> <r_epik_Ionization_Penalty_Neutral>
7.97936e-06

> <r_epik_State_Penalty>
0.00421386

> <r_epik_Charging_Adjusted_Penalty>
0.00995571

> <i_epik_Tot_Q>
1

> <i_epik_Tot_abs_Q>
1

> <r_epik_Metal_State_Penalty>
-0

> <b_epik_Metal_Only>
0

> <s_lp_Force_Field>
OPLS_2005

> <r_lp_Energy>
26.5412

> <b_lp_Chiralities_Consistent>
1

> <s_lp_Variant>
AV-unprocessed.smi:3037-2

> <Gold.Version>
5.8.1

> <Gold.Id.Protein>
6NUR|6NUR_protein|mol2

> <Gold.PLP.Fitness>
44.0047

> <Gold.PLP.PLP>
-42.0534

> <Gold.PLP.part.hbond>
-1.0000

> <Gold.PLP.part.metal>
0.0000

> <Gold.PLP.part.buried>
-4.1812

> <Gold.PLP.part.nonpolar>
-37.1149

> <Gold.PLP.part.repulsive>
0.2670

> <Gold.PLP.ligand.clash>
0.0000

> <Gold.PLP.ligand.torsion>
0.5641

> <Gold.PLP.Chemscore.Hbond>
1.0000

> <Gold.PLP.Chemscore.CHOScore>
0.0000

> <Gold.PLP.Chemscore.Metal>
0.0000

> <Gold.Chemscore.Hbonds>
donor molecule, donor type, donor heavy atom, donor atom, acceptor molecule, acceptor atom, score
      P1  H  7997  8010       L1    13  1.00

> <Gold.PLP.Chemscore.Internal.Correction>
0.0796

> <Gold.Rescore>
     Score         DG    S(hbond)    S(metal)    S(lipo)     H(rot)  DE(clash)    DE(int)     intcor
     16.74     -17.57       1.00        0.00     115.04       1.84       0.15       0.67       ----

> <Gold.Chemscore.Fitness>
16.7420

> <Gold.Chemscore.DG>
-17.5682

> <Gold.Chemscore.ZeroCoef>
-5.4800

> <Gold.Chemscore.Hbond>
0.9986

> <Gold.Chemscore.Metal>
0.0000

> <Gold.Chemscore.Lipo>
115.0353

> <Gold.Chemscore.Internal_Hbond>
0.0000

> <Gold.Chemscore.DEClash>
0.1542

> <Gold.Chemscore.DEInternal>
0.6719

> <Gold.Chemscore.Rot>
1.8383

> <Gold.Chemscore.Internal.Correction>
   9.000000E+99

> <Gold.Chemscore.Hbonds>
donor molecule, donor type, donor heavy atom, donor atom, acceptor molecule, acceptor atom, score
      P1  H  7997  8010       L1    13  0.99

> <Gold.Chemscore.Hbond.Weighted>
-3.3352

> <Gold.Chemscore.Metal.Weighted>
-0.0000

> <Gold.Chemscore.Lipo.Weighted>
-13.4591

> <Gold.Chemscore.Internal_Hbond.Weighted>
0.0000

> <Gold.Chemscore.DEClash.Weighted>
0.1542

> <Gold.Chemscore.DEInternal.Weighted>
0.6719

> <Gold.Chemscore.Rot.Weighted>
4.7062

> <Gold.Chemscore.Internal.Correction.Weighted>
   9.000000E+99

> <Gold.Protein.RotatedTorsions>
[ 6907 6896 6895 6894 ] final   85.77 input  -60.11 | X-H torsion
[ 7974 7965 7964 7962 ] final -138.27 input  175.53 | X-H torsion
[ 8008 7997 7996 7995 ] final   -5.40 input   59.86 | X-H torsion
[ 10167 10162 10161 10158 ] final   40.05 input  -65.29 | X-H torsion
[ 10718 10713 10712 10709 ] final -145.09 input   66.30 | X-H torsion
[ 10763 10752 10751 10750 ] final  122.09 input  -60.55 | X-H torsion
[ 11005 11000 10999 10996 ] final  -69.34 input  -57.11 | X-H torsion

> <Gold.Protein.ActiveResidues>
 VAL166  LYS551  ARG553  GLY616  TRP617  ASP618  TYR619  PRO620  LYS621  CYS622 
 ASP623  PHE694  ASN695  SER759  ASP760  ASP761  ALA762  ILE779  LEU786  VAL792 
 PHE793  MET794  SER795  GLU796  ALA797  LYS798  CYS799  TRP800  GLU811  SER814 

> <Gold.Protein.RotatedAtoms>
  152.5381  134.2535  159.8907 H   0  0  0  0  0  0  0  0  0  0  0  0  # atno 6907 bound_to 6896
  151.2497  133.4350  159.2618 H   0  0  0  0  0  0  0  0  0  0  0  0  # atno 6908 bound_to 6896
  151.0550  134.9713  159.8287 H   0  0  0  0  0  0  0  0  0  0  0  0  # atno 6909 bound_to 6896
  144.8772  140.6454  143.5229 H   0  0  0  0  0  0  0  0  0  0  0  0  # atno 7974 bound_to 7965
  154.6043  140.2459  155.7751 H   0  0  0  0  0  0  0  0  0  0  0  0  # atno 8008 bound_to 7997
  156.2331  140.2960  156.0192 H   0  0  0  0  0  0  0  0  0  0  0  0  # atno 8009 bound_to 7997
  155.2158  140.0398  157.2931 H   0  0  0  0  0  0  0  0  0  0  0  0  # atno 8010 bound_to 7997
  140.3780  144.2018  150.6131 H   0  0  0  0  0  0  0  0  0  0  0  0  # atno 10167 bound_to 10162
  156.3782  130.7823  151.2012 H   0  0  0  0  0  0  0  0  0  0  0  0  # atno 10718 bound_to 10713
  153.6243  135.3407  155.3021 H   0  0  0  0  0  0  0  0  0  0  0  0  # atno 10763 bound_to 10752
  154.8593  135.4280  154.2173 H   0  0  0  0  0  0  0  0  0  0  0  0  # atno 10764 bound_to 10752
  153.3054  135.7027  153.7237 H   0  0  0  0  0  0  0  0  0  0  0  0  # atno 10765 bound_to 10752
  141.1552  133.6762  156.6585 H   0  0  0  0  0  0  0  0  0  0  0  0  # atno 11005 bound_to 11000
  145.4021  139.1596  143.4172 LP  0  0  0  0  0  0  0  0  0  0  0  0  # atno 17320 bound_to 7965
  146.2970  140.4118  142.8718 LP  0  0  0  0  0  0  0  0  0  0  0  0  # atno 17321 bound_to 7965
  140.4967  143.2330  151.8739 LP  0  0  0  0  0  0  0  0  0  0  0  0  # atno 17342 bound_to 10162
  139.4798  144.5106  151.8938 LP  0  0  0  0  0  0  0  0  0  0  0  0  # atno 17343 bound_to 10162
  157.7490  131.0352  150.4352 LP  0  0  0  0  0  0  0  0  0  0  0  0  # atno 17370 bound_to 10713
  156.4591  130.4028  149.6587 LP  0  0  0  0  0  0  0  0  0  0  0  0  # atno 17371 bound_to 10713
  140.3265  134.7964  157.4293 LP  0  0  0  0  0  0  0  0  0  0  0  0  # atno 17394 bound_to 11000
  140.1052  134.5419  155.8316 LP  0  0  0  0  0  0  0  0  0  0  0  0  # atno 17395 bound_to 11000

$$$$
