AV-unprocessed.smi:106|AV-procd|sdf|1011|dock6
  -GOLD-   2262018 13D 1   1.00000     0.00000
 Structure written by MMmdl.
 51 54  0  0  0  0  0  0  0  0  1 V2000
  150.2574  140.1877  154.1888 O   0  0  0  0  0  0  0  0  0  0  0  0
  150.7292  139.2388  154.8193 C   0  0  0  0  0  0  0  0  0  0  0  0
  152.1626  139.3536  155.3832 C   0  0  0  0  0  0  0  0  0  0  0  0
  152.2120  139.8197  156.7879 N   0  0  0  0  0  0  0  0  0  0  0  0
  152.7463  138.9491  157.7699 C   0  0  0  0  0  0  0  0  0  0  0  0
  153.1579  137.8266  157.4726 O   0  0  0  0  0  0  0  0  0  0  0  0
  152.7679  139.4728  159.1303 C   0  0  0  0  0  0  0  0  0  0  0  0
  153.2838  138.7279  160.1228 F   0  0  0  0  0  0  0  0  0  0  0  0
  152.2807  140.6989  159.4097 C   0  0  0  0  0  0  0  0  0  0  0  0
  151.7263  141.5244  158.4512 N   0  0  0  0  0  0  0  0  0  0  0  0
  151.2359  142.8956  158.8630 C   0  0  2  0  0  0  0  0  0  0  0  0
  151.9880  144.0519  158.1872 C   0  0  0  0  0  0  0  0  0  0  0  0
  151.9931  145.0845  159.2935 C   0  0  0  0  0  0  0  0  0  0  0  0
  152.1250  144.2145  160.5389 C   0  0  0  0  0  0  0  0  0  0  0  0
  151.3757  143.0374  160.2475 O   0  0  0  0  0  0  0  0  0  0  0  0
  151.7028  141.1040  157.1003 C   0  0  0  0  0  0  0  0  0  0  0  0
  151.2508  141.8310  156.2149 O   0  0  0  0  0  0  0  0  0  0  0  0
  150.0285  138.0976  155.0311 N   0  0  0  0  0  0  0  0  0  0  0  0
  150.5751  136.9246  155.7300 C   0  0  0  0  0  0  0  0  0  0  0  0
  149.8994  135.6089  155.2968 C   0  0  0  0  0  0  0  0  0  0  0  0
  148.4373  135.6354  155.4480 N   0  0  0  0  0  0  0  0  0  0  0  0
  147.7418  134.4714  155.5149 C   0  0  0  0  0  0  0  0  0  0  0  0
  146.5377  134.4464  155.7773 O   0  0  0  0  0  0  0  0  0  0  0  0
  148.4391  133.1883  155.2472 C   0  0  0  0  0  0  0  0  0  0  0  0
  149.5779  132.6199  155.7659 C   0  0  0  0  0  0  0  0  0  0  0  0
  149.9105  131.3725  155.1607 C   0  0  0  0  0  0  0  0  0  0  0  0
  149.0389  131.0140  154.1675 C   0  0  0  0  0  0  0  0  0  0  0  0
  147.7939  132.2121  153.9466 S   0  0  0  0  0  0  0  0  0  0  0  0
  147.8204  136.9700  155.3965 C   0  0  0  0  0  0  0  0  0  0  0  0
  148.6419  137.9686  154.5589 C   0  0  0  0  0  0  0  0  0  0  0  0
  152.6633  138.3885  155.2899 H   0  0  0  0  0  0  0  0  0  0  0  0
  152.7383  140.0193  154.7393 H   0  0  0  0  0  0  0  0  0  0  0  0
  152.3246  141.0394  160.4340 H   0  0  0  0  0  0  0  0  0  0  0  0
  150.1706  142.9175  158.6304 H   0  0  0  0  0  0  0  0  0  0  0  0
  153.0058  143.7699  157.9214 H   0  0  0  0  0  0  0  0  0  0  0  0
  151.4702  144.3806  157.2859 H   0  0  0  0  0  0  0  0  0  0  0  0
  152.7971  145.8144  159.1952 H   0  0  0  0  0  0  0  0  0  0  0  0
  151.0429  145.6199  159.3103 H   0  0  0  0  0  0  0  0  0  0  0  0
  153.1680  143.9477  160.7103 H   0  0  0  0  0  0  0  0  0  0  0  0
  151.7535  144.7100  161.4360 H   0  0  0  0  0  0  0  0  0  0  0  0
  151.6439  136.8109  155.5514 H   0  0  0  0  0  0  0  0  0  0  0  0
  150.4504  137.0709  156.8038 H   0  0  0  0  0  0  0  0  0  0  0  0
  150.1369  135.3987  154.2526 H   0  0  0  0  0  0  0  0  0  0  0  0
  150.3318  134.7970  155.8843 H   0  0  0  0  0  0  0  0  0  0  0  0
  150.1830  133.0492  156.5503 H   0  0  0  0  0  0  0  0  0  0  0  0
  150.7704  130.7941  155.4649 H   0  0  0  0  0  0  0  0  0  0  0  0
  149.0579  130.1308  153.5463 H   0  0  0  0  0  0  0  0  0  0  0  0
  146.8215  136.9266  154.9611 H   0  0  0  0  0  0  0  0  0  0  0  0
  147.7110  137.3465  156.4141 H   0  0  0  0  0  0  0  0  0  0  0  0
  148.1266  138.9303  154.5858 H   0  0  0  0  0  0  0  0  0  0  0  0
  148.6578  137.6539  153.5145 H   0  0  0  0  0  0  0  0  0  0  0  0
  1  2  2  0  0  0  0
  2  3  1  0  0  0  0
  2 18  1  0  0  0  0
  3  4  1  0  0  0  0
  3 31  1  0  0  0  0
  3 32  1  0  0  0  0
  4 16  1  0  0  0  0
  4  5  1  0  0  0  0
  5  6  2  0  0  0  0
  5  7  1  0  0  0  0
  7  8  1  0  0  0  0
  7  9  2  0  0  0  0
  9 10  1  0  0  0  0
  9 33  1  0  0  0  0
 10 11  1  0  0  0  0
 10 16  1  0  0  0  0
 11 15  1  0  0  0  0
 11 12  1  0  0  0  0
 11 34  1  0  0  0  0
 12 13  1  0  0  0  0
 12 35  1  0  0  0  0
 12 36  1  0  0  0  0
 13 14  1  0  0  0  0
 13 37  1  0  0  0  0
 13 38  1  0  0  0  0
 14 15  1  0  0  0  0
 14 39  1  0  0  0  0
 14 40  1  0  0  0  0
 16 17  2  0  0  0  0
 18 30  1  0  0  0  0
 18 19  1  0  0  0  0
 19 20  1  0  0  0  0
 19 41  1  0  0  0  0
 19 42  1  0  0  0  0
 20 21  1  0  0  0  0
 20 43  1  0  0  0  0
 20 44  1  0  0  0  0
 21 22  1  0  0  0  0
 21 29  1  0  0  0  0
 22 23  2  0  0  0  0
 22 24  1  0  0  0  0
 24 28  1  0  0  0  0
 24 25  2  0  0  0  0
 25 26  1  0  0  0  0
 25 45  1  0  0  0  0
 26 27  2  0  0  0  0
 26 46  1  0  0  0  0
 27 28  1  0  0  0  0
 27 47  1  0  0  0  0
 29 30  1  0  0  0  0
 29 48  1  0  0  0  0
 29 49  1  0  0  0  0
 30 50  1  0  0  0  0
 30 51  1  0  0  0  0
M  END
> <s_m_source_file>
AV-unprocessed.smi

> <i_m_source_file_index>
106

> <i_lp_mmshare_version>
43012

> <i_f3d_flags>
0

> <s_epik_input>
czFbY0hdW2NIXVtjSF1jMUMoPU8pTihbQ0gyXVtDSDJdMilbQ0gyXVtDSDJdTjJDKD1PKVtDSDJdbjNjKD1PKWMoRilbY0hdbihjMz1PKVtDQEBIXTRbQ0gyXVtDSDJdW0NIMl1PNA==

> <s_epik_cmdline>
J2VwaWtfcHl0aG9uJywgJy1waCcsICc3LjAnLCAnLXRuJywgJzgnLCAnLW1hJywgJzIwMCcsICctbWV0YWxfYmluZGluZycsICctaW1hZScsICc8aW5maWxlLm1hZT4nLCAnLW9tYWUnLCAnPG91dGZpbGUubWFlPic=

> <r_lp_tautomer_probability>
1

> <r_epik_Ionization_Penalty>
4.82844e-09

> <r_epik_Ionization_Penalty_Charging>
4.20153e-09

> <r_epik_Ionization_Penalty_Neutral>
6.26919e-10

> <r_epik_State_Penalty>
-0

> <r_epik_Charging_Adjusted_Penalty>
4.20153e-09

> <i_epik_Tot_Q>
0

> <i_epik_Tot_abs_Q>
0

> <r_epik_Metal_State_Penalty>
-0

> <b_epik_Metal_Only>
0

> <s_epik_Chemistry_Notes>
This compound contains an acetal/aminal-like group ( X-CH(R)-Y where X, Y are N, S, or O) that may be acid/base labile, releasing an aldehyde.

> <s_lp_Force_Field>
OPLS_2005

> <r_lp_Energy>
67.8789

> <b_lp_Chiralities_Consistent>
1

> <s_lp_Variant>
AV-unprocessed.smi:106-1

> <Gold.Version>
5.8.1

> <Gold.Id.Protein>
6NUR|6NUR_protein|mol2

> <Gold.PLP.Fitness>
49.6278

> <Gold.PLP.PLP>
-48.9449

> <Gold.PLP.part.hbond>
-2.0000

> <Gold.PLP.part.metal>
0.0000

> <Gold.PLP.part.buried>
-3.4701

> <Gold.PLP.part.nonpolar>
-42.9135

> <Gold.PLP.part.repulsive>
0.5321

> <Gold.PLP.ligand.clash>
0.0000

> <Gold.PLP.ligand.torsion>
1.4415

> <Gold.PLP.Chemscore.Hbond>
1.0000

> <Gold.PLP.Chemscore.CHOScore>
0.0000

> <Gold.PLP.Chemscore.Metal>
0.0000

> <Gold.Chemscore.Hbonds>
donor molecule, donor type, donor heavy atom, donor atom, acceptor molecule, acceptor atom, score
      P1  H  7989  7998       L1     1  1.00

> <Gold.PLP.Chemscore.Internal.Correction>
0.5659

> <Gold.Rescore>
     Score         DG    S(hbond)    S(metal)    S(lipo)     H(rot)  DE(clash)    DE(int)     intcor
     11.87     -15.81       1.08        0.00      93.08       1.63       0.19       3.75       ----

> <Gold.Chemscore.Fitness>
11.8710

> <Gold.Chemscore.DG>
-15.8114

> <Gold.Chemscore.ZeroCoef>
-5.4800

> <Gold.Chemscore.Hbond>
1.0783

> <Gold.Chemscore.Metal>
0.0000

> <Gold.Chemscore.Lipo>
93.0790

> <Gold.Chemscore.Internal_Hbond>
0.0000

> <Gold.Chemscore.DEClash>
0.1857

> <Gold.Chemscore.DEInternal>
3.7546

> <Gold.Chemscore.Rot>
1.6252

> <Gold.Chemscore.Internal.Correction>
   9.000000E+99

> <Gold.Chemscore.Hbonds>
donor molecule, donor type, donor heavy atom, donor atom, acceptor molecule, acceptor atom, score
      P1  H  7989  7998       L1     1  0.37

> <Gold.Chemscore.Hbond.Weighted>
-3.6016

> <Gold.Chemscore.Metal.Weighted>
-0.0000

> <Gold.Chemscore.Lipo.Weighted>
-10.8902

> <Gold.Chemscore.Internal_Hbond.Weighted>
0.0000

> <Gold.Chemscore.DEClash.Weighted>
0.1857

> <Gold.Chemscore.DEInternal.Weighted>
3.7546

> <Gold.Chemscore.Rot.Weighted>
4.1605

> <Gold.Chemscore.Internal.Correction.Weighted>
   9.000000E+99

> <Gold.Protein.RotatedTorsions>
[ 6907 6896 6895 6894 ] final   45.31 input  -60.11 | X-H torsion
[ 7974 7965 7964 7962 ] final -174.03 input  175.53 | X-H torsion
[ 8008 7997 7996 7995 ] final   79.03 input   59.86 | X-H torsion
[ 10167 10162 10161 10158 ] final  -38.66 input  -65.29 | X-H torsion
[ 10718 10713 10712 10709 ] final   56.62 input   66.30 | X-H torsion
[ 10763 10752 10751 10750 ] final  -35.70 input  -60.55 | X-H torsion
[ 11005 11000 10999 10996 ] final   79.62 input  -57.11 | X-H torsion

> <Gold.Protein.ActiveResidues>
 VAL166  LYS551  ARG553  GLY616  TRP617  ASP618  TYR619  PRO620  LYS621  CYS622 
 ASP623  PHE694  ASN695  SER759  ASP760  ASP761  ALA762  ILE779  LEU786  VAL792 
 PHE793  MET794  SER795  GLU796  ALA797  LYS798  CYS799  TRP800  GLU811  SER814 

> <Gold.Protein.RotatedAtoms>
  152.2430  134.8209  160.0457 H   0  0  0  0  0  0  0  0  0  0  0  0  # atno 6907 bound_to 6896
  151.8917  133.3512  159.3809 H   0  0  0  0  0  0  0  0  0  0  0  0  # atno 6908 bound_to 6896
  150.7059  134.4843  159.5529 H   0  0  0  0  0  0  0  0  0  0  0  0  # atno 6909 bound_to 6896
  144.7134  140.1533  143.6382 H   0  0  0  0  0  0  0  0  0  0  0  0  # atno 7974 bound_to 7965
  155.8640  140.3452  155.5775 H   0  0  0  0  0  0  0  0  0  0  0  0  # atno 8008 bound_to 7997
  155.7902  140.0870  157.2032 H   0  0  0  0  0  0  0  0  0  0  0  0  # atno 8009 bound_to 7997
  154.4013  140.1484  156.3141 H   0  0  0  0  0  0  0  0  0  0  0  0  # atno 8010 bound_to 7997
  140.7086  143.3263  151.2673 H   0  0  0  0  0  0  0  0  0  0  0  0  # atno 10167 bound_to 10162
  157.5446  130.8721  149.8872 H   0  0  0  0  0  0  0  0  0  0  0  0  # atno 10718 bound_to 10713
  153.8676  135.6834  153.4777 H   0  0  0  0  0  0  0  0  0  0  0  0  # atno 10763 bound_to 10752
  153.1306  135.4699  154.9340 H   0  0  0  0  0  0  0  0  0  0  0  0  # atno 10764 bound_to 10752
  154.7729  135.3244  154.8101 H   0  0  0  0  0  0  0  0  0  0  0  0  # atno 10765 bound_to 10752
  139.9165  134.7857  156.1803 H   0  0  0  0  0  0  0  0  0  0  0  0  # atno 11005 bound_to 11000
  145.9097  139.2479  143.1445 LP  0  0  0  0  0  0  0  0  0  0  0  0  # atno 17320 bound_to 7965
  145.9729  140.8746  143.0153 LP  0  0  0  0  0  0  0  0  0  0  0  0  # atno 17321 bound_to 7965
  139.6732  143.9984  152.2765 LP  0  0  0  0  0  0  0  0  0  0  0  0  # atno 17342 bound_to 10162
  139.9589  144.6571  150.8099 LP  0  0  0  0  0  0  0  0  0  0  0  0  # atno 17343 bound_to 10162
  156.0525  130.3715  150.1169 LP  0  0  0  0  0  0  0  0  0  0  0  0  # atno 17370 bound_to 10713
  156.9346  130.9725  151.3527 LP  0  0  0  0  0  0  0  0  0  0  0  0  # atno 17371 bound_to 10713
  141.0646  133.6825  156.2020 LP  0  0  0  0  0  0  0  0  0  0  0  0  # atno 17394 bound_to 11000
  140.6606  134.4972  157.5583 LP  0  0  0  0  0  0  0  0  0  0  0  0  # atno 17395 bound_to 11000

$$$$
