AV-unprocessed.smi:1683|AV-procd|sdf|6748|dock3
  -GOLD-   22720 7503D 1   1.00000     0.00000
 Structure written by MMmdl.
 36 37  0  0  0  0  0  0  0  0  1 V2000
  144.3744  136.5112  152.0331 O   0  0  0  0  0  0  0  0  0  0  0  0
  145.5911  136.3392  151.9569 C   0  0  0  0  0  0  0  0  0  0  0  0
  146.4965  137.1927  152.4563 N   0  0  0  0  0  0  0  0  0  0  0  0
  146.1961  138.4465  153.1421 C   0  0  0  0  0  0  0  0  0  0  0  0
  147.3809  139.4292  153.0797 C   0  0  1  0  0  0  0  0  0  0  0  0
  147.1123  140.7949  153.7104 C   0  0  0  0  0  0  0  0  0  0  0  0
  148.4506  141.1662  154.3348 C   0  0  0  0  0  0  0  0  0  0  0  0
  148.9006  139.8888  154.8684 N   0  0  0  0  0  0  0  0  0  0  0  0
  150.3070  139.8718  155.2662 C   0  0  0  0  0  0  0  0  0  0  0  0
  150.5719  140.5994  156.5985 C   0  0  0  0  0  0  0  0  0  0  0  0
  150.6082  141.9106  156.3654 F   0  0  0  0  0  0  0  0  0  0  0  0
  149.6065  140.3632  157.4864 F   0  0  0  0  0  0  0  0  0  0  0  0
  151.7455  140.2281  157.1106 F   0  0  0  0  0  0  0  0  0  0  0  0
  148.6375  138.9222  153.8060 C   0  0  0  0  0  0  0  0  0  0  0  0
  146.1856  135.2877  151.3697 N   0  0  0  0  0  0  0  0  0  0  0  0
  145.5573  134.1993  150.7129 C   0  0  0  0  0  0  0  0  0  0  0  0
  146.1752  132.9466  150.4505 C   0  0  0  0  0  0  0  0  0  0  0  0
  145.3501  132.1226  149.8209 N   0  0  0  0  0  0  0  0  0  0  0  0
  144.2118  132.8381  149.6772 N   0  0  0  0  0  0  0  0  0  0  0  0
  144.2918  134.1079  150.2048 C   0  0  0  0  0  0  0  0  0  0  0  0
  143.3977  132.4506  149.2216 H   0  0  0  0  0  0  0  0  0  0  0  0
  147.4730  136.9628  152.3444 H   0  0  0  0  0  0  0  0  0  0  0  0
  145.2935  138.9108  152.7409 H   0  0  0  0  0  0  0  0  0  0  0  0
  145.9765  138.2074  154.1828 H   0  0  0  0  0  0  0  0  0  0  0  0
  147.6478  139.5805  152.0325 H   0  0  0  0  0  0  0  0  0  0  0  0
  146.7669  141.5329  152.9860 H   0  0  0  0  0  0  0  0  0  0  0  0
  146.3584  140.7177  154.4951 H   0  0  0  0  0  0  0  0  0  0  0  0
  149.1429  141.5313  153.5742 H   0  0  0  0  0  0  0  0  0  0  0  0
  148.3417  141.9268  155.1077 H   0  0  0  0  0  0  0  0  0  0  0  0
  150.6059  138.8293  155.3839 H   0  0  0  0  0  0  0  0  0  0  0  0
  150.9311  140.2877  154.4738 H   0  0  0  0  0  0  0  0  0  0  0  0
  148.5172  137.9198  154.2187 H   0  0  0  0  0  0  0  0  0  0  0  0
  149.4725  138.8952  153.1039 H   0  0  0  0  0  0  0  0  0  0  0  0
  147.1946  135.2655  151.3889 H   0  0  0  0  0  0  0  0  0  0  0  0
  147.1743  132.6145  150.6911 H   0  0  0  0  0  0  0  0  0  0  0  0
  143.4658  134.8025  150.1678 H   0  0  0  0  0  0  0  0  0  0  0  0
  1  2  2  0  0  0  0
  2  3  1  0  0  0  0
  2 15  1  0  0  0  0
  3  4  1  0  0  0  0
  3 22  1  0  0  0  0
  4  5  1  0  0  0  0
  4 23  1  0  0  0  0
  4 24  1  0  0  0  0
  5 14  1  0  0  0  0
  5  6  1  0  0  0  0
  5 25  1  0  0  0  0
  6  7  1  0  0  0  0
  6 26  1  0  0  0  0
  6 27  1  0  0  0  0
  7  8  1  0  0  0  0
  7 28  1  0  0  0  0
  7 29  1  0  0  0  0
  8  9  1  0  0  0  0
  8 14  1  0  0  0  0
  9 10  1  0  0  0  0
  9 30  1  0  0  0  0
  9 31  1  0  0  0  0
 10 11  1  0  0  0  0
 10 12  1  0  0  0  0
 10 13  1  0  0  0  0
 14 32  1  0  0  0  0
 14 33  1  0  0  0  0
 15 16  1  0  0  0  0
 15 34  1  0  0  0  0
 16 20  2  0  0  0  0
 16 17  1  0  0  0  0
 17 18  2  0  0  0  0
 17 35  1  0  0  0  0
 18 19  1  0  0  0  0
 19 21  1  0  0  0  0
 19 20  1  0  0  0  0
 20 36  1  0  0  0  0
M  END
> <s_m_source_file>
AV-unprocessed.smi

> <i_m_source_file_index>
1683

> <i_lp_mmshare_version>
43012

> <i_f3d_flags>
0

> <s_epik_input>
W2NIXTFbbkhdbltjSF1jMVtOSF1DKD1PKVtOSF1bQ0gyXVtDQEBIXTJbQ0gyXVtDSDJdTihbQ0gyXTIpW0NIMl1DKEYpKEYpRg==

> <s_epik_cmdline>
J2VwaWtfcHl0aG9uJywgJy1waCcsICc3LjAnLCAnLXRuJywgJzgnLCAnLW1hJywgJzIwMCcsICctbWV0YWxfYmluZGluZycsICctaW1hZScsICc8aW5maWxlLm1hZT4nLCAnLW9tYWUnLCAnPG91dGZpbGUubWFlPic=

> <r_lp_tautomer_probability>
0.5

> <r_epik_Ionization_Penalty>
0.244885

> <r_epik_Ionization_Penalty_Charging>
0

> <r_epik_Ionization_Penalty_Neutral>
0.244885

> <r_epik_State_Penalty>
0.235951

> <r_epik_Charging_Adjusted_Penalty>
0.235951

> <i_epik_Tot_Q>
0

> <i_epik_Tot_abs_Q>
0

> <r_epik_Metal_State_Penalty>
0.23595

> <b_epik_Metal_Only>
0

> <s_lp_Force_Field>
OPLS_2005

> <r_lp_Energy>
31.7206

> <b_lp_Chiralities_Consistent>
1

> <s_lp_Variant>
AV-unprocessed.smi:1683-2

> <Gold.Version>
5.8.1

> <Gold.Id.Protein>
6NUR|6NUR_protein|mol2

> <Gold.PLP.Fitness>
42.9599

> <Gold.PLP.PLP>
-31.9243

> <Gold.PLP.part.hbond>
-2.0000

> <Gold.PLP.part.metal>
0.0000

> <Gold.PLP.part.buried>
-2.8164

> <Gold.PLP.part.nonpolar>
-28.2931

> <Gold.PLP.part.repulsive>
0.6112

> <Gold.PLP.ligand.clash>
0.0000

> <Gold.PLP.ligand.torsion>
0.6321

> <Gold.PLP.Chemscore.Hbond>
1.9920

> <Gold.PLP.Chemscore.CHOScore>
1.9506

> <Gold.PLP.Chemscore.Metal>
0.0000

> <Gold.Chemscore.Hbonds>
donor molecule, donor type, donor heavy atom, donor atom, acceptor molecule, acceptor atom, score
      L1  H     3    22       P1  7948  1.00
      L1  H    15    34       P1  7948  0.99
      L1  C    17    35       P1 10747  0.96
      L1  C    20    36       P1 10186  0.95

> <Gold.PLP.Chemscore.Internal.Correction>
0.4719

> <Gold.Rescore>
     Score         DG    S(hbond)    S(metal)    S(lipo)     H(rot)  DE(clash)    DE(int)     intcor
     13.84     -14.98       1.94        0.00      64.82       1.78       0.14       1.00       ----

> <Gold.Chemscore.Fitness>
13.8383

> <Gold.Chemscore.DG>
-14.9804

> <Gold.Chemscore.ZeroCoef>
-5.4800

> <Gold.Chemscore.Hbond>
1.9377

> <Gold.Chemscore.Metal>
0.0000

> <Gold.Chemscore.Lipo>
64.8178

> <Gold.Chemscore.Internal_Hbond>
0.0000

> <Gold.Chemscore.DEClash>
0.1376

> <Gold.Chemscore.DEInternal>
1.0046

> <Gold.Chemscore.Rot>
1.7793

> <Gold.Chemscore.Internal.Correction>
   9.000000E+99

> <Gold.Chemscore.Hbonds>
donor molecule, donor type, donor heavy atom, donor atom, acceptor molecule, acceptor atom, score
      L1  H     3    22       P1  7948  1.00
      L1  H    15    34       P1  7948  0.78

> <Gold.Chemscore.Hbond.Weighted>
-6.4718

> <Gold.Chemscore.Metal.Weighted>
-0.0000

> <Gold.Chemscore.Lipo.Weighted>
-7.5837

> <Gold.Chemscore.Internal_Hbond.Weighted>
0.0000

> <Gold.Chemscore.DEClash.Weighted>
0.1376

> <Gold.Chemscore.DEInternal.Weighted>
1.0046

> <Gold.Chemscore.Rot.Weighted>
4.5551

> <Gold.Chemscore.Internal.Correction.Weighted>
   9.000000E+99

> <Gold.Protein.RotatedTorsions>
[ 6907 6896 6895 6894 ] final  -86.21 input  -60.11 | X-H torsion
[ 7974 7965 7964 7962 ] final   83.87 input  175.53 | X-H torsion
[ 8008 7997 7996 7995 ] final  -77.11 input   59.86 | X-H torsion
[ 10167 10162 10161 10158 ] final  144.83 input  -65.29 | X-H torsion
[ 10718 10713 10712 10709 ] final    4.24 input   66.30 | X-H torsion
[ 10763 10752 10751 10750 ] final  -64.45 input  -60.55 | X-H torsion
[ 11005 11000 10999 10996 ] final  105.01 input  -57.11 | X-H torsion

> <Gold.Protein.ActiveResidues>
 VAL166  LYS551  ARG553  GLY616  TRP617  ASP618  TYR619  PRO620  LYS621  CYS622 
 ASP623  PHE694  ASN695  SER759  ASP760  ASP761  ALA762  ILE779  LEU786  VAL792 
 PHE793  MET794  SER795  GLU796  ALA797  LYS798  CYS799  TRP800  GLU811  SER814 

> <Gold.Protein.RotatedAtoms>
  150.6867  134.3085  159.4736 H   0  0  0  0  0  0  0  0  0  0  0  0  # atno 6907 bound_to 6896
  152.0974  134.9363  160.0579 H   0  0  0  0  0  0  0  0  0  0  0  0  # atno 6908 bound_to 6896
  152.0655  133.4047  159.4473 H   0  0  0  0  0  0  0  0  0  0  0  0  # atno 6909 bound_to 6896
  145.6062  139.2360  143.2218 H   0  0  0  0  0  0  0  0  0  0  0  0  # atno 7974 bound_to 7965
  154.5566  140.0716  156.8753 H   0  0  0  0  0  0  0  0  0  0  0  0  # atno 8008 bound_to 7997
  155.2891  140.3377  155.4235 H   0  0  0  0  0  0  0  0  0  0  0  0  # atno 8009 bound_to 7997
  156.2007  140.1720  156.7891 H   0  0  0  0  0  0  0  0  0  0  0  0  # atno 8010 bound_to 7997
  139.4938  144.5944  151.6613 H   0  0  0  0  0  0  0  0  0  0  0  0  # atno 10167 bound_to 10162
  156.8896  130.5683  149.5650 H   0  0  0  0  0  0  0  0  0  0  0  0  # atno 10718 bound_to 10713
  154.3303  135.6178  153.5548 H   0  0  0  0  0  0  0  0  0  0  0  0  # atno 10763 bound_to 10752
  152.9812  135.5745  154.4969 H   0  0  0  0  0  0  0  0  0  0  0  0  # atno 10764 bound_to 10752
  154.4654  135.2857  155.1659 H   0  0  0  0  0  0  0  0  0  0  0  0  # atno 10765 bound_to 10752
  139.8797  134.9320  156.5448 H   0  0  0  0  0  0  0  0  0  0  0  0  # atno 11005 bound_to 11000
  146.1539  140.6886  142.9309 LP  0  0  0  0  0  0  0  0  0  0  0  0  # atno 17320 bound_to 7965
  144.7289  140.4610  143.6952 LP  0  0  0  0  0  0  0  0  0  0  0  0  # atno 17321 bound_to 7965
  140.5579  144.0318  150.6156 LP  0  0  0  0  0  0  0  0  0  0  0  0  # atno 17342 bound_to 10162
  140.3394  143.3029  152.0604 LP  0  0  0  0  0  0  0  0  0  0  0  0  # atno 17343 bound_to 10162
  156.0635  130.5683  150.9242 LP  0  0  0  0  0  0  0  0  0  0  0  0  # atno 17370 bound_to 10713
  157.6091  131.0937  150.8826 LP  0  0  0  0  0  0  0  0  0  0  0  0  # atno 17371 bound_to 10713
  140.8284  133.8299  155.8960 LP  0  0  0  0  0  0  0  0  0  0  0  0  # atno 17394 bound_to 11000
  140.9352  134.1971  157.4836 LP  0  0  0  0  0  0  0  0  0  0  0  0  # atno 17395 bound_to 11000

$$$$
