AV-unprocessed.smi:49|AV-procd|sdf|464|dock4
  -GOLD-   2262016333D 1   1.00000     0.00000
 Structure written by MMmdl.
 28 29  0  0  0  0  0  0  0  0  2 V2000
  152.1807  142.2909  159.3528 C   0  0  0  0  0  0  0  0  0  0  0  0
  151.7639  140.8694  158.9600 C   0  0  0  0  0  0  0  0  0  0  0  0
  151.2984  140.7799  157.5439 C   0  0  0  0  0  0  0  0  0  0  0  0
  150.2184  141.3799  157.0545 N   0  0  0  0  0  0  0  0  0  0  0  0
  150.2850  140.9775  155.7501 C   0  0  0  0  0  0  0  0  0  0  0  0
  149.2938  141.4328  154.7253 C   0  0  1  0  0  0  0  0  0  0  0  0
  148.5682  140.2802  154.0262 C   0  0  0  0  0  0  0  0  0  0  0  0
  147.2912  140.9501  153.5292 C   0  0  1  0  0  0  0  0  0  0  0  0
  146.2560  140.0183  153.2985 O   0  0  0  0  0  0  0  0  0  0  0  0
  146.9485  141.9299  154.6562 C   0  0  0  0  0  0  0  0  0  0  0  0
  148.2315  142.2898  155.2927 N   0  3  0  0  0  0  0  0  0  0  0  0
  151.3278  140.2102  155.4298 N   0  0  0  0  0  0  0  0  0  0  0  0
  151.9647  140.0921  156.6144 N   0  0  0  0  0  0  0  0  0  0  0  0
  149.8124  142.0282  153.9720 H   0  0  0  0  0  0  0  0  0  0  0  0
  147.4988  141.5004  152.6102 H   0  0  0  0  0  0  0  0  0  0  0  0
  152.8176  139.5637  156.7341 H   0  0  0  0  0  0  0  0  0  0  0  0
  152.5078  142.3264  160.3921 H   0  0  0  0  0  0  0  0  0  0  0  0
  151.3507  142.9892  159.2410 H   0  0  0  0  0  0  0  0  0  0  0  0
  153.0033  142.6456  158.7314 H   0  0  0  0  0  0  0  0  0  0  0  0
  152.5990  140.1834  159.1060 H   0  0  0  0  0  0  0  0  0  0  0  0
  150.9614  140.5253  159.6135 H   0  0  0  0  0  0  0  0  0  0  0  0
  149.1584  139.8203  153.2331 H   0  0  0  0  0  0  0  0  0  0  0  0
  148.3165  139.5040  154.7515 H   0  0  0  0  0  0  0  0  0  0  0  0
  145.5447  140.4572  152.8568 H   0  0  0  0  0  0  0  0  0  0  0  0
  146.4172  142.8105  154.2941 H   0  0  0  0  0  0  0  0  0  0  0  0
  146.3265  141.4486  155.4124 H   0  0  0  0  0  0  0  0  0  0  0  0
  148.1624  142.1156  156.2857 H   0  0  0  0  0  0  0  0  0  0  0  0
  148.4538  143.2616  155.1322 H   0  0  0  0  0  0  0  0  0  0  0  0
  1  2  1  0  0  0  0
  1 17  1  0  0  0  0
  1 18  1  0  0  0  0
  1 19  1  0  0  0  0
  2  3  1  0  0  0  0
  2 20  1  0  0  0  0
  2 21  1  0  0  0  0
  3 13  1  0  0  0  0
  3  4  2  0  0  0  0
  4  5  1  0  0  0  0
  5  6  1  0  0  0  0
  5 12  2  0  0  0  0
  6 14  1  0  0  0  0
  6 11  1  0  0  0  0
  6  7  1  0  0  0  0
  7  8  1  0  0  0  0
  7 22  1  0  0  0  0
  7 23  1  0  0  0  0
  8 15  1  0  0  0  0
  8  9  1  0  0  0  0
  8 10  1  0  0  0  0
  9 24  1  0  0  0  0
 10 11  1  0  0  0  0
 10 25  1  0  0  0  0
 10 26  1  0  0  0  0
 11 27  1  0  0  0  0
 11 28  1  0  0  0  0
 12 13  1  0  0  0  0
 13 16  1  0  0  0  0
M  CHG  1  11   1
M  END
> <s_m_source_file>
AV-unprocessed.smi

> <i_m_source_file_index>
49

> <i_lp_mmshare_version>
43012

> <i_f3d_flags>
0

> <s_epik_input>
W0NIM11bQ0gyXWMxbmMobltuSF0xKVtDQEBIXTJbQ0gyXVtDQEBIXShbT0hdKVtDSDJdW05IXTI=

> <s_epik_cmdline>
J2VwaWtfcHl0aG9uJywgJy1waCcsICc3LjAnLCAnLXRuJywgJzgnLCAnLW1hJywgJzIwMCcsICctbWV0YWxfYmluZGluZycsICctaW1hZScsICc8aW5maWxlLm1hZT4nLCAnLW9tYWUnLCAnPG91dGZpbGUubWFlPic=

> <r_lp_tautomer_probability>
0.948284

> <r_epik_Ionization_Penalty>
0.045643

> <r_epik_Ionization_Penalty_Charging>
0.0371552

> <r_epik_Ionization_Penalty_Neutral>
0.00848778

> <r_epik_State_Penalty>
0.283309

> <r_epik_Charging_Adjusted_Penalty>
0.320465

> <i_epik_Tot_Q>
1

> <i_epik_Tot_abs_Q>
1

> <r_epik_Metal_State_Penalty>
0.558162

> <b_epik_Metal_Only>
0

> <s_lp_Force_Field>
OPLS_2005

> <r_lp_Energy>
16.6831

> <b_lp_Chiralities_Consistent>
1

> <s_lp_Variant>
AV-unprocessed.smi:49-2

> <Gold.Version>
5.8.1

> <Gold.Id.Protein>
6NUR|6NUR_protein|mol2

> <Gold.PLP.Fitness>
37.2031

> <Gold.PLP.PLP>
-25.2647

> <Gold.PLP.part.hbond>
-2.8759

> <Gold.PLP.part.metal>
0.0000

> <Gold.PLP.part.buried>
-3.2971

> <Gold.PLP.part.nonpolar>
-19.6142

> <Gold.PLP.part.repulsive>
0.3770

> <Gold.PLP.ligand.clash>
0.0000

> <Gold.PLP.ligand.torsion>
0.0381

> <Gold.PLP.Chemscore.Hbond>
4.0000

> <Gold.PLP.Chemscore.CHOScore>
0.0000

> <Gold.PLP.Chemscore.Metal>
0.0000

> <Gold.Chemscore.Hbonds>
donor molecule, donor type, donor heavy atom, donor atom, acceptor molecule, acceptor atom, score
      L1  H     9    24       P1 10175  0.94
      L1  H    11    28       P1  8028  2.00
      P1  H  7989  7998       L1    12  0.88

> <Gold.PLP.Chemscore.Internal.Correction>
0.0146

> <Gold.Rescore>
     Score         DG    S(hbond)    S(metal)    S(lipo)     H(rot)  DE(clash)    DE(int)     intcor
     14.31     -14.55       2.70        0.00      41.70       1.89       0.07       0.18       ----

> <Gold.Chemscore.Fitness>
14.3070

> <Gold.Chemscore.DG>
-14.5479

> <Gold.Chemscore.ZeroCoef>
-5.4800

> <Gold.Chemscore.Hbond>
2.7014

> <Gold.Chemscore.Metal>
0.0000

> <Gold.Chemscore.Lipo>
41.7034

> <Gold.Chemscore.Internal_Hbond>
0.0000

> <Gold.Chemscore.DEClash>
0.0650

> <Gold.Chemscore.DEInternal>
0.1758

> <Gold.Chemscore.Rot>
1.8883

> <Gold.Chemscore.Internal.Correction>
   9.000000E+99

> <Gold.Chemscore.Hbonds>
donor molecule, donor type, donor heavy atom, donor atom, acceptor molecule, acceptor atom, score
      L1  H     9    24       P1 10175  0.76
      L1  H    11    28       P1  8028  0.95
      P1  H  7989  7998       L1    12  0.18

> <Gold.Chemscore.Hbond.Weighted>
-9.0226

> <Gold.Chemscore.Metal.Weighted>
-0.0000

> <Gold.Chemscore.Lipo.Weighted>
-4.8793

> <Gold.Chemscore.Internal_Hbond.Weighted>
0.0000

> <Gold.Chemscore.DEClash.Weighted>
0.0650

> <Gold.Chemscore.DEInternal.Weighted>
0.1758

> <Gold.Chemscore.Rot.Weighted>
4.8340

> <Gold.Chemscore.Internal.Correction.Weighted>
   9.000000E+99

> <Gold.Protein.RotatedTorsions>
[ 6907 6896 6895 6894 ] final   -5.42 input  -60.11 | X-H torsion
[ 7974 7965 7964 7962 ] final  -27.08 input  175.53 | X-H torsion
[ 8008 7997 7996 7995 ] final -175.80 input   59.86 | X-H torsion
[ 10167 10162 10161 10158 ] final  -53.13 input  -65.29 | X-H torsion
[ 10718 10713 10712 10709 ] final  -70.36 input   66.30 | X-H torsion
[ 10763 10752 10751 10750 ] final   96.63 input  -60.55 | X-H torsion
[ 11005 11000 10999 10996 ] final -157.63 input  -57.11 | X-H torsion

> <Gold.Protein.ActiveResidues>
 VAL166  LYS551  ARG553  GLY616  TRP617  ASP618  TYR619  PRO620  LYS621  CYS622 
 ASP623  PHE694  ASN695  SER759  ASP760  ASP761  ALA762  ILE779  LEU786  VAL792 
 PHE793  MET794  SER795  GLU796  ALA797  LYS798  CYS799  TRP800  GLU811  SER814 

> <Gold.Protein.RotatedAtoms>
  151.4819  135.1052  159.9779 H   0  0  0  0  0  0  0  0  0  0  0  0  # atno 6907 bound_to 6896
  152.4776  133.8171  159.7044 H   0  0  0  0  0  0  0  0  0  0  0  0  # atno 6908 bound_to 6896
  150.8824  133.7292  159.2954 H   0  0  0  0  0  0  0  0  0  0  0  0  # atno 6909 bound_to 6896
  146.1382  140.5105  142.8663 H   0  0  0  0  0  0  0  0  0  0  0  0  # atno 7974 bound_to 7965
  155.9870  140.1193  157.0673 H   0  0  0  0  0  0  0  0  0  0  0  0  # atno 8008 bound_to 7997
  154.4200  140.1133  156.5582 H   0  0  0  0  0  0  0  0  0  0  0  0  # atno 8009 bound_to 7997
  155.6394  140.3473  155.4712 H   0  0  0  0  0  0  0  0  0  0  0  0  # atno 8010 bound_to 7997
  140.6501  143.2560  151.4748 H   0  0  0  0  0  0  0  0  0  0  0  0  # atno 10167 bound_to 10162
  156.0411  130.4330  150.2284 H   0  0  0  0  0  0  0  0  0  0  0  0  # atno 10718 bound_to 10713
  153.2672  135.4212  155.0952 H   0  0  0  0  0  0  0  0  0  0  0  0  # atno 10763 bound_to 10752
  154.8442  135.3463  154.6294 H   0  0  0  0  0  0  0  0  0  0  0  0  # atno 10764 bound_to 10752
  153.6714  135.7043  153.5203 H   0  0  0  0  0  0  0  0  0  0  0  0  # atno 10765 bound_to 10752
  140.6625  134.4334  157.5234 H   0  0  0  0  0  0  0  0  0  0  0  0  # atno 11005 bound_to 11000
  144.7763  140.5746  143.6636 LP  0  0  0  0  0  0  0  0  0  0  0  0  # atno 17320 bound_to 7965
  145.5108  139.1479  143.3606 LP  0  0  0  0  0  0  0  0  0  0  0  0  # atno 17321 bound_to 7965
  139.5715  144.1917  152.1843 LP  0  0  0  0  0  0  0  0  0  0  0  0  # atno 17342 bound_to 10162
  140.1215  144.5369  150.6860 LP  0  0  0  0  0  0  0  0  0  0  0  0  # atno 17343 bound_to 10162
  157.0379  131.0026  151.3292 LP  0  0  0  0  0  0  0  0  0  0  0  0  # atno 17370 bound_to 10713
  157.5230  130.8010  149.7831 LP  0  0  0  0  0  0  0  0  0  0  0  0  # atno 17371 bound_to 10713
  139.9008  134.8560  156.1904 LP  0  0  0  0  0  0  0  0  0  0  0  0  # atno 17394 bound_to 11000
  141.0454  133.6916  156.1674 LP  0  0  0  0  0  0  0  0  0  0  0  0  # atno 17395 bound_to 11000

$$$$
