AV-unprocessed.smi:1643|AV-procd|sdf|6574|dock9
  -GOLD-   22720 7263D 1   1.00000     0.00000
 Structure written by MMmdl.
 54 56  0  0  0  0  0  0  0  0  2 V2000
  148.6090  134.6037  159.1488 C   0  0  0  0  0  0  0  0  0  0  0  0
  149.0250  133.7174  157.9719 C   0  0  0  0  0  0  0  0  0  0  0  0
  149.8494  132.8279  158.1818 O   0  0  0  0  0  0  0  0  0  0  0  0
  148.4744  133.9300  156.7510 N   0  0  0  0  0  0  0  0  0  0  0  0
  148.7648  133.0430  155.6149 C   0  0  0  0  0  0  0  0  0  0  0  0
  149.8312  133.6335  154.6633 C   0  0  0  0  0  0  0  0  0  0  0  0
  150.2161  135.1099  154.9147 C   0  0  0  0  0  0  0  0  0  0  0  0
  149.1201  136.1043  154.7100 N   0  3  2  0  0  0  0  0  0  0  0  0
  149.4167  137.4277  155.3239 C   0  0  0  0  0  0  0  0  0  0  0  0
  150.5766  138.1690  154.6299 C   0  0  1  0  0  0  0  0  0  0  0  0
  150.2479  138.3615  153.2670 O   0  0  0  0  0  0  0  0  0  0  0  0
  150.8587  139.5351  155.2841 C   0  0  0  0  0  0  0  0  0  0  0  0
  151.5697  139.4072  156.5434 N   0  0  0  0  0  0  0  0  0  0  0  0
  152.1374  138.2962  157.0512 C   0  0  0  0  0  0  0  0  0  0  0  0
  152.7401  138.4058  158.2315 N   0  0  0  0  0  0  0  0  0  0  0  0
  152.5441  139.7449  158.5224 C   0  0  0  0  0  0  0  0  0  0  0  0
  152.9408  140.5087  159.6417 C   0  0  0  0  0  0  0  0  0  0  0  0
  152.6265  141.8837  159.7294 C   0  0  0  0  0  0  0  0  0  0  0  0
  153.0713  142.6665  160.9523 C   0  0  0  0  0  0  0  0  0  0  0  0
  151.9042  142.5157  158.6854 C   0  0  0  0  0  0  0  0  0  0  0  0
  151.5547  143.9917  158.7582 C   0  0  0  0  0  0  0  0  0  0  0  0
  151.5011  141.7678  157.5594 C   0  0  0  0  0  0  0  0  0  0  0  0
  151.8183  140.4000  157.4850 C   0  0  0  0  0  0  0  0  0  0  0  0
  147.7389  135.6353  155.0222 C   0  0  0  0  0  0  0  0  0  0  0  0
  147.5540  135.0386  156.4414 C   0  0  0  0  0  0  0  0  0  0  0  0
  147.5233  134.6577  159.2346 H   0  0  0  0  0  0  0  0  0  0  0  0
  149.0073  135.6116  159.0310 H   0  0  0  0  0  0  0  0  0  0  0  0
  148.9948  134.2013  160.0862 H   0  0  0  0  0  0  0  0  0  0  0  0
  149.0751  132.0491  155.9419 H   0  0  0  0  0  0  0  0  0  0  0  0
  147.8393  132.8578  155.0684 H   0  0  0  0  0  0  0  0  0  0  0  0
  150.7380  133.0354  154.7609 H   0  0  0  0  0  0  0  0  0  0  0  0
  149.5104  133.5044  153.6290 H   0  0  0  0  0  0  0  0  0  0  0  0
  150.6318  135.2118  155.9182 H   0  0  0  0  0  0  0  0  0  0  0  0
  151.0299  135.3629  154.2355 H   0  0  0  0  0  0  0  0  0  0  0  0
  148.5313  138.0641  155.2865 H   0  0  0  0  0  0  0  0  0  0  0  0
  149.6400  137.2850  156.3824 H   0  0  0  0  0  0  0  0  0  0  0  0
  151.4876  137.5740  154.6800 H   0  0  0  0  0  0  0  0  0  0  0  0
  149.9345  137.5437  152.9111 H   0  0  0  0  0  0  0  0  0  0  0  0
  151.4398  140.1708  154.6141 H   0  0  0  0  0  0  0  0  0  0  0  0
  149.9226  140.0600  155.4788 H   0  0  0  0  0  0  0  0  0  0  0  0
  152.1032  137.3523  156.5270 H   0  0  0  0  0  0  0  0  0  0  0  0
  153.4909  140.0272  160.4370 H   0  0  0  0  0  0  0  0  0  0  0  0
  153.6914  143.5144  160.6604 H   0  0  0  0  0  0  0  0  0  0  0  0
  153.6558  142.0455  161.6320 H   0  0  0  0  0  0  0  0  0  0  0  0
  152.2061  143.0412  161.4999 H   0  0  0  0  0  0  0  0  0  0  0  0
  150.9834  144.3089  157.8853 H   0  0  0  0  0  0  0  0  0  0  0  0
  152.4606  144.5968  158.8027 H   0  0  0  0  0  0  0  0  0  0  0  0
  150.9546  144.2000  159.6442 H   0  0  0  0  0  0  0  0  0  0  0  0
  150.9512  142.2370  156.7573 H   0  0  0  0  0  0  0  0  0  0  0  0
  147.0377  136.4598  154.8884 H   0  0  0  0  0  0  0  0  0  0  0  0
  147.4395  134.9156  154.2604 H   0  0  0  0  0  0  0  0  0  0  0  0
  146.5318  134.6748  156.5531 H   0  0  0  0  0  0  0  0  0  0  0  0
  147.6604  135.8598  157.1493 H   0  0  0  0  0  0  0  0  0  0  0  0
  149.0995  136.2780  153.7148 H   0  0  0  0  0  0  0  0  0  0  0  0
  1  2  1  0  0  0  0
  1 26  1  0  0  0  0
  1 27  1  0  0  0  0
  1 28  1  0  0  0  0
  2  3  2  0  0  0  0
  2  4  1  0  0  0  0
  4 25  1  0  0  0  0
  4  5  1  0  0  0  0
  5  6  1  0  0  0  0
  5 29  1  0  0  0  0
  5 30  1  0  0  0  0
  6  7  1  0  0  0  0
  6 31  1  0  0  0  0
  6 32  1  0  0  0  0
  7  8  1  0  0  0  0
  7 33  1  0  0  0  0
  7 34  1  0  0  0  0
  8  9  1  0  0  0  0
  8 24  1  0  0  0  0
  8 54  1  0  0  0  0
  9 10  1  0  0  0  0
  9 35  1  0  0  0  0
  9 36  1  0  0  0  0
 10 11  1  0  0  0  0
 10 12  1  0  0  0  0
 10 37  1  0  0  0  0
 11 38  1  0  0  0  0
 12 13  1  0  0  0  0
 12 39  1  0  0  0  0
 12 40  1  0  0  0  0
 13 23  1  0  0  0  0
 13 14  1  0  0  0  0
 14 15  2  0  0  0  0
 14 41  1  0  0  0  0
 15 16  1  0  0  0  0
 16 23  2  0  0  0  0
 16 17  1  0  0  0  0
 17 18  2  0  0  0  0
 17 42  1  0  0  0  0
 18 19  1  0  0  0  0
 18 20  1  0  0  0  0
 19 43  1  0  0  0  0
 19 44  1  0  0  0  0
 19 45  1  0  0  0  0
 20 21  1  0  0  0  0
 20 22  2  0  0  0  0
 21 46  1  0  0  0  0
 21 47  1  0  0  0  0
 21 48  1  0  0  0  0
 22 23  1  0  0  0  0
 22 49  1  0  0  0  0
 24 25  1  0  0  0  0
 24 50  1  0  0  0  0
 24 51  1  0  0  0  0
 25 52  1  0  0  0  0
 25 53  1  0  0  0  0
M  CHG  1   8   1
M  END
> <s_m_source_file>
AV-unprocessed.smi

> <i_m_source_file_index>
1643

> <i_lp_mmshare_version>
43012

> <i_f3d_flags>
0

> <s_epik_input>
W0NIM11DKD1PKU4xW0NIMl1bQ0gyXVtDSDJdTihbQ0gyXVtDSDJdMSlbQ0gyXVtDQEhdKFtPSF0pW0NIMl1uKFtjSF1uMiljKGMyMylbY0hdYyhbQ0gzXSljKFtjSF0zKVtDSDNd

> <s_epik_cmdline>
J2VwaWtfcHl0aG9uJywgJy1waCcsICc3LjAnLCAnLXRuJywgJzgnLCAnLW1hJywgJzIwMCcsICctbWV0YWxfYmluZGluZycsICctaW1hZScsICc8aW5maWxlLm1hZT4nLCAnLW9tYWUnLCAnPG91dGZpbGUubWFlPic=

> <r_epik_Ionization_Penalty>
0.189467

> <r_epik_Ionization_Penalty_Charging>
0.101761

> <r_epik_Ionization_Penalty_Neutral>
0.0877056

> <r_epik_State_Penalty>
0.170758

> <r_epik_Charging_Adjusted_Penalty>
0.272519

> <i_epik_Tot_Q>
1

> <i_epik_Tot_abs_Q>
1

> <r_epik_Metal_State_Penalty>
0.0948013

> <b_epik_Metal_Only>
0

> <s_lp_Force_Field>
OPLS_2005

> <r_lp_Energy>
48.7512

> <b_lp_Chiralities_Consistent>
1

> <s_lp_Variant>
AV-unprocessed.smi:1643-3

> <Gold.Version>
5.8.1

> <Gold.Id.Protein>
6NUR|6NUR_protein|mol2

> <Gold.PLP.Fitness>
50.8975

> <Gold.PLP.PLP>
-39.5158

> <Gold.PLP.part.hbond>
-4.7226

> <Gold.PLP.part.metal>
0.0000

> <Gold.PLP.part.buried>
-3.3990

> <Gold.PLP.part.nonpolar>
-31.8142

> <Gold.PLP.part.repulsive>
0.0000

> <Gold.PLP.ligand.clash>
0.0000

> <Gold.PLP.ligand.torsion>
0.3520

> <Gold.PLP.Chemscore.Hbond>
4.0000

> <Gold.PLP.Chemscore.CHOScore>
0.0000

> <Gold.PLP.Chemscore.Metal>
0.0000

> <Gold.Chemscore.Hbonds>
donor molecule, donor type, donor heavy atom, donor atom, acceptor molecule, acceptor atom, score
      L1  H     8    54       P1  7948  2.00
      L1  H    11    38       P1  7948  1.00
      P1  H  6896  6909       L1     3  1.00

> <Gold.PLP.Chemscore.Internal.Correction>
0.0856

> <Gold.Rescore>
     Score         DG    S(hbond)    S(metal)    S(lipo)     H(rot)  DE(clash)    DE(int)     intcor
     21.96     -22.37       2.92        0.00     107.24       2.12       0.01       0.40       ----

> <Gold.Chemscore.Fitness>
21.9635

> <Gold.Chemscore.DG>
-22.3720

> <Gold.Chemscore.ZeroCoef>
-5.4800

> <Gold.Chemscore.Hbond>
2.9239

> <Gold.Chemscore.Metal>
0.0000

> <Gold.Chemscore.Lipo>
107.2440

> <Gold.Chemscore.Internal_Hbond>
0.0000

> <Gold.Chemscore.DEClash>
0.0086

> <Gold.Chemscore.DEInternal>
0.3999

> <Gold.Chemscore.Rot>
2.1178

> <Gold.Chemscore.Internal.Correction>
   9.000000E+99

> <Gold.Chemscore.Hbonds>
donor molecule, donor type, donor heavy atom, donor atom, acceptor molecule, acceptor atom, score
      L1  H     8    54       P1  7948  0.97
      L1  H    11    38       P1  7948  0.26
      P1  H  6896  6909       L1     3  0.26

> <Gold.Chemscore.Hbond.Weighted>
-9.7659

> <Gold.Chemscore.Metal.Weighted>
-0.0000

> <Gold.Chemscore.Lipo.Weighted>
-12.5475

> <Gold.Chemscore.Internal_Hbond.Weighted>
0.0000

> <Gold.Chemscore.DEClash.Weighted>
0.0086

> <Gold.Chemscore.DEInternal.Weighted>
0.3999

> <Gold.Chemscore.Rot.Weighted>
5.4215

> <Gold.Chemscore.Internal.Correction.Weighted>
   9.000000E+99

> <Gold.Protein.RotatedTorsions>
[ 6907 6896 6895 6894 ] final  -10.15 input  -60.11 | X-H torsion
[ 7974 7965 7964 7962 ] final  141.70 input  175.53 | X-H torsion
[ 8008 7997 7996 7995 ] final  138.71 input   59.86 | X-H torsion
[ 10167 10162 10161 10158 ] final   62.58 input  -65.29 | X-H torsion
[ 10718 10713 10712 10709 ] final -154.74 input   66.30 | X-H torsion
[ 10763 10752 10751 10750 ] final -177.65 input  -60.55 | X-H torsion
[ 11005 11000 10999 10996 ] final  160.66 input  -57.11 | X-H torsion

> <Gold.Protein.ActiveResidues>
 VAL166  LYS551  ARG553  GLY616  TRP617  ASP618  TYR619  PRO620  LYS621  CYS622 
 ASP623  PHE694  ASN695  SER759  ASP760  ASP761  ALA762  ILE779  LEU786  VAL792 
 PHE793  MET794  SER795  GLU796  ALA797  LYS798  CYS799  TRP800  GLU811  SER814 

> <Gold.Protein.RotatedAtoms>
  151.4066  135.0979  159.9571 H   0  0  0  0  0  0  0  0  0  0  0  0  # atno 6907 bound_to 6896
  152.5033  133.8838  159.7370 H   0  0  0  0  0  0  0  0  0  0  0  0  # atno 6908 bound_to 6896
  150.9323  133.6695  159.2836 H   0  0  0  0  0  0  0  0  0  0  0  0  # atno 6909 bound_to 6896
  144.9073  139.5340  143.5725 H   0  0  0  0  0  0  0  0  0  0  0  0  # atno 7974 bound_to 7965
  156.2995  140.2386  156.4119 H   0  0  0  0  0  0  0  0  0  0  0  0  # atno 8008 bound_to 7997
  154.8433  140.0427  157.1576 H   0  0  0  0  0  0  0  0  0  0  0  0  # atno 8009 bound_to 7997
  154.9078  140.2986  155.5286 H   0  0  0  0  0  0  0  0  0  0  0  0  # atno 8010 bound_to 7997
  140.1423  144.4541  150.6804 H   0  0  0  0  0  0  0  0  0  0  0  0  # atno 10167 bound_to 10162
  156.5033  130.8401  151.2618 H   0  0  0  0  0  0  0  0  0  0  0  0  # atno 10718 bound_to 10713
  154.5575  135.2817  155.0951 H   0  0  0  0  0  0  0  0  0  0  0  0  # atno 10763 bound_to 10752
  154.2372  135.6363  153.5199 H   0  0  0  0  0  0  0  0  0  0  0  0  # atno 10764 bound_to 10752
  153.0020  135.5551  154.6159 H   0  0  0  0  0  0  0  0  0  0  0  0  # atno 10765 bound_to 10752
  140.2082  134.8287  157.3092 H   0  0  0  0  0  0  0  0  0  0  0  0  # atno 11005 bound_to 11000
  146.3140  139.7852  142.8997 LP  0  0  0  0  0  0  0  0  0  0  0  0  # atno 17320 bound_to 7965
  145.3514  141.0308  143.3337 LP  0  0  0  0  0  0  0  0  0  0  0  0  # atno 17321 bound_to 7965
  140.6753  143.2302  151.5523 LP  0  0  0  0  0  0  0  0  0  0  0  0  # atno 17342 bound_to 10162
  139.5466  144.2505  152.1453 LP  0  0  0  0  0  0  0  0  0  0  0  0  # atno 17343 bound_to 10162
  157.7460  130.9974  150.2815 LP  0  0  0  0  0  0  0  0  0  0  0  0  # atno 17370 bound_to 10713
  156.3311  130.3800  149.7490 LP  0  0  0  0  0  0  0  0  0  0  0  0  # atno 17371 bound_to 10713
  140.1980  134.4290  155.7678 LP  0  0  0  0  0  0  0  0  0  0  0  0  # atno 17394 bound_to 11000
  141.2226  133.7058  156.8137 LP  0  0  0  0  0  0  0  0  0  0  0  0  # atno 17395 bound_to 11000

$$$$
