AV-unprocessed.smi:1734|AV-procd|sdf|6980|dock10
  -GOLD-   22720 8193D 1   1.00000     0.00000
 Structure written by MMmdl.
 50 52  0  0  0  0  0  0  0  0  1 V2000
  147.2766  132.7066  152.8911 C   0  0  0  0  0  0  0  0  0  0  0  0
  146.1267  132.9285  151.9218 C   0  0  0  0  0  0  0  0  0  0  0  0
  145.4527  131.8115  151.3837 C   0  0  0  0  0  0  0  0  0  0  0  0
  144.3916  132.0178  150.4859 C   0  0  0  0  0  0  0  0  0  0  0  0
  144.0471  133.3412  150.1618 C   0  0  0  0  0  0  0  0  0  0  0  0
  144.6853  134.4143  150.6713 N   0  0  0  0  0  0  0  0  0  0  0  0
  145.7117  134.2328  151.5400 C   0  0  0  0  0  0  0  0  0  0  0  0
  146.4277  135.3182  152.1199 N   0  0  0  0  0  0  0  0  0  0  0  0
  146.0123  136.1889  153.0568 C   0  0  0  0  0  0  0  0  0  0  0  0
  144.8943  136.2040  153.5730 O   0  0  0  0  0  0  0  0  0  0  0  0
  146.9791  137.0639  153.3680 N   0  0  0  0  0  0  0  0  0  0  0  0
  146.8473  138.1408  154.3446 C   0  0  0  0  0  0  0  0  0  0  0  0
  147.9393  138.0892  155.4515 C   0  0  2  0  0  0  0  0  0  0  0  0
  149.3869  138.0410  154.8688 C   0  0  2  0  0  0  0  0  0  0  0  0
  150.5207  137.7414  155.8537 C   0  0  0  0  0  0  0  0  0  0  0  0
  151.6376  138.6814  155.4120 C   0  0  0  0  0  0  0  0  0  0  0  0
  150.9359  139.8054  154.9099 O   0  0  0  0  0  0  0  0  0  0  0  0
  149.8577  139.3082  154.1309 C   0  0  0  0  0  0  0  0  0  0  0  0
  147.6701  137.1338  156.5453 N   0  0  0  0  0  0  0  0  0  0  0  0
  148.0405  135.7590  156.2163 C   0  0  0  0  0  0  0  0  0  0  0  0
  147.6080  134.7742  157.3142 C   0  0  0  0  0  0  0  0  0  0  0  0
  148.1874  135.1685  158.5533 O   0  0  0  0  0  0  0  0  0  0  0  0
  147.8071  136.4847  158.9405 C   0  0  0  0  0  0  0  0  0  0  0  0
  148.2148  137.4943  157.8526 C   0  0  0  0  0  0  0  0  0  0  0  0
  147.4261  131.6456  153.0933 H   0  0  0  0  0  0  0  0  0  0  0  0
  147.0793  133.2031  153.8415 H   0  0  0  0  0  0  0  0  0  0  0  0
  148.2042  133.1032  152.4773 H   0  0  0  0  0  0  0  0  0  0  0  0
  145.7428  130.8067  151.6540 H   0  0  0  0  0  0  0  0  0  0  0  0
  143.8558  131.1840  150.0569 H   0  0  0  0  0  0  0  0  0  0  0  0
  143.2378  133.5447  149.4764 H   0  0  0  0  0  0  0  0  0  0  0  0
  147.3723  135.4380  151.7859 H   0  0  0  0  0  0  0  0  0  0  0  0
  147.8687  136.9819  152.8981 H   0  0  0  0  0  0  0  0  0  0  0  0
  146.8707  139.0894  153.8084 H   0  0  0  0  0  0  0  0  0  0  0  0
  145.8510  138.0704  154.7794 H   0  0  0  0  0  0  0  0  0  0  0  0
  147.9018  139.0691  155.9293 H   0  0  0  0  0  0  0  0  0  0  0  0
  149.3977  137.2401  154.1279 H   0  0  0  0  0  0  0  0  0  0  0  0
  150.2397  137.9604  156.8817 H   0  0  0  0  0  0  0  0  0  0  0  0
  150.8326  136.6971  155.8244 H   0  0  0  0  0  0  0  0  0  0  0  0
  152.3068  138.9542  156.2283 H   0  0  0  0  0  0  0  0  0  0  0  0
  152.2315  138.2340  154.6132 H   0  0  0  0  0  0  0  0  0  0  0  0
  150.2323  139.0507  153.1390 H   0  0  0  0  0  0  0  0  0  0  0  0
  149.0856  140.0654  153.9974 H   0  0  0  0  0  0  0  0  0  0  0  0
  147.5859  135.4663  155.2692 H   0  0  0  0  0  0  0  0  0  0  0  0
  149.1196  135.6768  156.0878 H   0  0  0  0  0  0  0  0  0  0  0  0
  146.5209  134.7445  157.4026 H   0  0  0  0  0  0  0  0  0  0  0  0
  147.9389  133.7647  157.0704 H   0  0  0  0  0  0  0  0  0  0  0  0
  146.7300  136.5209  159.1128 H   0  0  0  0  0  0  0  0  0  0  0  0
  148.2899  136.7323  159.8858 H   0  0  0  0  0  0  0  0  0  0  0  0
  149.3024  137.5531  157.8040 H   0  0  0  0  0  0  0  0  0  0  0  0
  147.8504  138.4717  158.1594 H   0  0  0  0  0  0  0  0  0  0  0  0
  1  2  1  0  0  0  0
  1 25  1  0  0  0  0
  1 26  1  0  0  0  0
  1 27  1  0  0  0  0
  2  7  1  0  0  0  0
  2  3  2  0  0  0  0
  3  4  1  0  0  0  0
  3 28  1  0  0  0  0
  4  5  2  0  0  0  0
  4 29  1  0  0  0  0
  5  6  1  0  0  0  0
  5 30  1  0  0  0  0
  6  7  2  0  0  0  0
  7  8  1  0  0  0  0
  8  9  1  0  0  0  0
  8 31  1  0  0  0  0
  9 10  2  0  0  0  0
  9 11  1  0  0  0  0
 11 12  1  0  0  0  0
 11 32  1  0  0  0  0
 12 13  1  0  0  0  0
 12 33  1  0  0  0  0
 12 34  1  0  0  0  0
 13 14  1  0  0  0  0
 13 19  1  0  0  0  0
 13 35  1  0  0  0  0
 14 18  1  0  0  0  0
 14 15  1  0  0  0  0
 14 36  1  0  0  0  0
 15 16  1  0  0  0  0
 15 37  1  0  0  0  0
 15 38  1  0  0  0  0
 16 17  1  0  0  0  0
 16 39  1  0  0  0  0
 16 40  1  0  0  0  0
 17 18  1  0  0  0  0
 18 41  1  0  0  0  0
 18 42  1  0  0  0  0
 19 24  1  0  0  0  0
 19 20  1  0  0  0  0
 20 21  1  0  0  0  0
 20 43  1  0  0  0  0
 20 44  1  0  0  0  0
 21 22  1  0  0  0  0
 21 45  1  0  0  0  0
 21 46  1  0  0  0  0
 22 23  1  0  0  0  0
 23 24  1  0  0  0  0
 23 47  1  0  0  0  0
 23 48  1  0  0  0  0
 24 49  1  0  0  0  0
 24 50  1  0  0  0  0
M  END
> <s_m_source_file>
AV-unprocessed.smi

> <i_m_source_file_index>
1734

> <i_lp_mmshare_version>
43012

> <i_f3d_flags>
0

> <s_epik_input>
W0NIM11jMVtjSF1bY0hdW2NIXW5jMVtOSF1DKD1PKVtOSF1bQ0gyXVtDQEhdKFtDQEBIXTJbQ0gyXVtDSDJdT1tDSDJdMilOM1tDSDJdW0NIMl1PW0NIMl1bQ0gyXTM=

> <s_epik_cmdline>
J2VwaWtfcHl0aG9uJywgJy1waCcsICc3LjAnLCAnLXRuJywgJzgnLCAnLW1hJywgJzIwMCcsICctbWV0YWxfYmluZGluZycsICctaW1hZScsICc8aW5maWxlLm1hZT4nLCAnLW9tYWUnLCAnPG91dGZpbGUubWFlPic=

> <r_epik_Ionization_Penalty>
0.125073

> <r_epik_Ionization_Penalty_Charging>
0

> <r_epik_Ionization_Penalty_Neutral>
0.125073

> <r_epik_State_Penalty>
0.114484

> <r_epik_Charging_Adjusted_Penalty>
0.114484

> <i_epik_Tot_Q>
0

> <i_epik_Tot_abs_Q>
0

> <r_epik_Metal_State_Penalty>
0.114483

> <b_epik_Metal_Only>
0

> <s_lp_Force_Field>
OPLS_2005

> <r_lp_Energy>
56.0061

> <b_lp_Chiralities_Consistent>
1

> <s_lp_Variant>
AV-unprocessed.smi:1734-1

> <Gold.Version>
5.8.1

> <Gold.Id.Protein>
6NUR|6NUR_protein|mol2

> <Gold.PLP.Fitness>
44.0829

> <Gold.PLP.PLP>
-31.7526

> <Gold.PLP.part.hbond>
-4.0000

> <Gold.PLP.part.metal>
0.0000

> <Gold.PLP.part.buried>
-3.1799

> <Gold.PLP.part.nonpolar>
-24.4975

> <Gold.PLP.part.repulsive>
0.3106

> <Gold.PLP.ligand.clash>
0.0000

> <Gold.PLP.ligand.torsion>
1.4640

> <Gold.PLP.Chemscore.Hbond>
3.9760

> <Gold.PLP.Chemscore.CHOScore>
1.0000

> <Gold.PLP.Chemscore.Metal>
0.0000

> <Gold.Chemscore.Hbonds>
donor molecule, donor type, donor heavy atom, donor atom, acceptor molecule, acceptor atom, score
      L1  H     8    31       P1  7948  1.00
      L1  H    11    32       P1  7948  1.00
      P1  H  7989  7998       L1    17  0.70
      L1  C     5    30       P1 10186  1.00

> <Gold.PLP.Chemscore.Internal.Correction>
0.3303

> <Gold.Rescore>
     Score         DG    S(hbond)    S(metal)    S(lipo)     H(rot)  DE(clash)    DE(int)     intcor
     19.43     -21.12       3.30        0.00      75.63       1.65       0.06       1.64       ----

> <Gold.Chemscore.Fitness>
19.4267

> <Gold.Chemscore.DG>
-21.1250

> <Gold.Chemscore.ZeroCoef>
-5.4800

> <Gold.Chemscore.Hbond>
3.2981

> <Gold.Chemscore.Metal>
0.0000

> <Gold.Chemscore.Lipo>
75.6266

> <Gold.Chemscore.Internal_Hbond>
0.0000

> <Gold.Chemscore.DEClash>
0.0566

> <Gold.Chemscore.DEInternal>
1.6417

> <Gold.Chemscore.Rot>
1.6480

> <Gold.Chemscore.Internal.Correction>
   9.000000E+99

> <Gold.Chemscore.Hbonds>
donor molecule, donor type, donor heavy atom, donor atom, acceptor molecule, acceptor atom, score
      L1  H     8    31       P1  7948  0.96
      L1  H    11    32       P1  7948  0.97
      P1  H  7989  7998       L1    17  0.07

> <Gold.Chemscore.Hbond.Weighted>
-11.0155

> <Gold.Chemscore.Metal.Weighted>
-0.0000

> <Gold.Chemscore.Lipo.Weighted>
-8.8483

> <Gold.Chemscore.Internal_Hbond.Weighted>
0.0000

> <Gold.Chemscore.DEClash.Weighted>
0.0566

> <Gold.Chemscore.DEInternal.Weighted>
1.6417

> <Gold.Chemscore.Rot.Weighted>
4.2188

> <Gold.Chemscore.Internal.Correction.Weighted>
   9.000000E+99

> <Gold.Protein.RotatedTorsions>
[ 6907 6896 6895 6894 ] final  -98.44 input  -60.11 | X-H torsion
[ 7974 7965 7964 7962 ] final   50.79 input  175.53 | X-H torsion
[ 8008 7997 7996 7995 ] final  -83.46 input   59.86 | X-H torsion
[ 10167 10162 10161 10158 ] final  164.33 input  -65.29 | X-H torsion
[ 10718 10713 10712 10709 ] final   51.36 input   66.30 | X-H torsion
[ 10763 10752 10751 10750 ] final   31.73 input  -60.55 | X-H torsion
[ 11005 11000 10999 10996 ] final  -15.05 input  -57.11 | X-H torsion

> <Gold.Protein.ActiveResidues>
 VAL166  LYS551  ARG553  GLY616  TRP617  ASP618  TYR619  PRO620  LYS621  CYS622 
 ASP623  PHE694  ASN695  SER759  ASP760  ASP761  ALA762  ILE779  LEU786  VAL792 
 PHE793  MET794  SER795  GLU796  ALA797  LYS798  CYS799  TRP800  GLU811  SER814 

> <Gold.Protein.RotatedAtoms>
  150.7047  134.1194  159.4028 H   0  0  0  0  0  0  0  0  0  0  0  0  # atno 6907 bound_to 6896
  151.9181  135.0308  160.0529 H   0  0  0  0  0  0  0  0  0  0  0  0  # atno 6908 bound_to 6896
  152.2280  133.5000  159.5236 H   0  0  0  0  0  0  0  0  0  0  0  0  # atno 6909 bound_to 6896
  145.9977  139.4406  143.0034 H   0  0  0  0  0  0  0  0  0  0  0  0  # atno 7974 bound_to 7965
  154.6193  140.0618  156.9594 H   0  0  0  0  0  0  0  0  0  0  0  0  # atno 8008 bound_to 7997
  155.1844  140.3302  155.4351 H   0  0  0  0  0  0  0  0  0  0  0  0  # atno 8009 bound_to 7997
  156.2422  140.1892  156.6938 H   0  0  0  0  0  0  0  0  0  0  0  0  # atno 8010 bound_to 7997
  139.4887  144.4247  151.9144 H   0  0  0  0  0  0  0  0  0  0  0  0  # atno 10167 bound_to 10162
  157.4973  130.8414  149.8273 H   0  0  0  0  0  0  0  0  0  0  0  0  # atno 10718 bound_to 10713
  153.0300  135.6431  154.1245 H   0  0  0  0  0  0  0  0  0  0  0  0  # atno 10763 bound_to 10752
  154.0969  135.2862  155.3261 H   0  0  0  0  0  0  0  0  0  0  0  0  # atno 10764 bound_to 10752
  154.6426  135.5454  153.7870 H   0  0  0  0  0  0  0  0  0  0  0  0  # atno 10765 bound_to 10752
  140.7927  133.8275  155.9394 H   0  0  0  0  0  0  0  0  0  0  0  0  # atno 11005 bound_to 11000
  145.7535  140.9963  143.1238 LP  0  0  0  0  0  0  0  0  0  0  0  0  # atno 17320 bound_to 7965
  144.6909  139.9243  143.7469 LP  0  0  0  0  0  0  0  0  0  0  0  0  # atno 17321 bound_to 7965
  140.3692  144.2877  150.5922 LP  0  0  0  0  0  0  0  0  0  0  0  0  # atno 17342 bound_to 10162
  140.5334  143.2238  151.8202 LP  0  0  0  0  0  0  0  0  0  0  0  0  # atno 17343 bound_to 10162
  156.0208  130.3796  150.1968 LP  0  0  0  0  0  0  0  0  0  0  0  0  # atno 17370 bound_to 10713
  157.0158  130.9964  151.3353 LP  0  0  0  0  0  0  0  0  0  0  0  0  # atno 17371 bound_to 10713
  140.9374  134.1945  157.4822 LP  0  0  0  0  0  0  0  0  0  0  0  0  # atno 17394 bound_to 11000
  139.8729  134.9858  156.5296 LP  0  0  0  0  0  0  0  0  0  0  0  0  # atno 17395 bound_to 11000

$$$$
