AV-unprocessed.smi:458|AV-procd|sdf|2621|dock2
  -GOLD-   2262023 23D 1   1.00000     0.00000
 Structure written by MMmdl.
 36 38  0  0  0  0  0  0  0  0  1 V2000
  153.7991  136.5395  156.8862 O   0  0  0  0  0  0  0  0  0  0  0  0
  152.6172  136.8650  157.5859 C   0  0  0  0  0  0  0  0  0  0  0  0
  152.7146  138.1734  158.3099 C   0  0  0  0  0  0  0  0  0  0  0  0
  153.6734  138.4136  159.2048 N   0  0  0  0  0  0  0  0  0  0  0  0
  153.4001  139.7075  159.6033 C   0  0  0  0  0  0  0  0  0  0  0  0
  154.0602  140.5397  160.5356 C   0  0  0  0  0  0  0  0  0  0  0  0
  153.5920  141.8469  160.7826 C   0  0  0  0  0  0  0  0  0  0  0  0
  152.4595  142.3399  160.1024 C   0  0  0  0  0  0  0  0  0  0  0  0
  151.7874  141.5274  159.1692 C   0  0  0  0  0  0  0  0  0  0  0  0
  152.2589  140.2233  158.9259 C   0  0  0  0  0  0  0  0  0  0  0  0
  151.8412  139.1891  158.0933 N   0  0  0  0  0  0  0  0  0  0  0  0
  150.7039  139.2184  157.1832 C   0  0  0  0  0  0  0  0  0  0  0  0
  150.8307  140.3060  156.0976 C   0  0  1  0  0  0  0  0  0  0  0  0
  151.4590  139.7740  154.9469 O   0  0  0  0  0  0  0  0  0  0  0  0
  149.4781  140.9281  155.7870 C   0  0  0  0  0  0  0  0  0  0  0  0
  149.0388  141.0790  154.4527 C   0  0  0  0  0  0  0  0  0  0  0  0
  147.7781  141.6458  154.1805 C   0  0  0  0  0  0  0  0  0  0  0  0
  146.9477  142.0594  155.2396 C   0  0  0  0  0  0  0  0  0  0  0  0
  145.7349  142.6013  154.9774 F   0  0  0  0  0  0  0  0  0  0  0  0
  147.3782  141.9067  156.5715 C   0  0  0  0  0  0  0  0  0  0  0  0
  148.6393  141.3418  156.8442 C   0  0  0  0  0  0  0  0  0  0  0  0
  154.3888  137.2763  156.9339 H   0  0  0  0  0  0  0  0  0  0  0  0
  151.7793  136.8844  156.8902 H   0  0  0  0  0  0  0  0  0  0  0  0
  152.4081  136.0708  158.3035 H   0  0  0  0  0  0  0  0  0  0  0  0
  154.9288  140.1717  161.0613 H   0  0  0  0  0  0  0  0  0  0  0  0
  154.1040  142.4743  161.4974 H   0  0  0  0  0  0  0  0  0  0  0  0
  152.1068  143.3421  160.2979 H   0  0  0  0  0  0  0  0  0  0  0  0
  150.9183  141.9009  158.6483 H   0  0  0  0  0  0  0  0  0  0  0  0
  150.6024  138.2347  156.7226 H   0  0  0  0  0  0  0  0  0  0  0  0
  149.7951  139.3706  157.7657 H   0  0  0  0  0  0  0  0  0  0  0  0
  151.4867  141.0973  156.4611 H   0  0  0  0  0  0  0  0  0  0  0  0
  150.8498  139.1967  154.5127 H   0  0  0  0  0  0  0  0  0  0  0  0
  149.6641  140.7578  153.6326 H   0  0  0  0  0  0  0  0  0  0  0  0
  147.4473  141.7608  153.1588 H   0  0  0  0  0  0  0  0  0  0  0  0
  146.7406  142.2211  157.3846 H   0  0  0  0  0  0  0  0  0  0  0  0
  148.9588  141.2235  157.8693 H   0  0  0  0  0  0  0  0  0  0  0  0
  1  2  1  0  0  0  0
  1 22  1  0  0  0  0
  2  3  1  0  0  0  0
  2 23  1  0  0  0  0
  2 24  1  0  0  0  0
  3 11  1  0  0  0  0
  3  4  2  0  0  0  0
  4  5  1  0  0  0  0
  5 10  2  0  0  0  0
  5  6  1  0  0  0  0
  6  7  2  0  0  0  0
  6 25  1  0  0  0  0
  7  8  1  0  0  0  0
  7 26  1  0  0  0  0
  8  9  2  0  0  0  0
  8 27  1  0  0  0  0
  9 10  1  0  0  0  0
  9 28  1  0  0  0  0
 10 11  1  0  0  0  0
 11 12  1  0  0  0  0
 12 13  1  0  0  0  0
 12 29  1  0  0  0  0
 12 30  1  0  0  0  0
 13 14  1  0  0  0  0
 13 15  1  0  0  0  0
 13 31  1  0  0  0  0
 14 32  1  0  0  0  0
 15 21  1  0  0  0  0
 15 16  2  0  0  0  0
 16 17  1  0  0  0  0
 16 33  1  0  0  0  0
 17 18  2  0  0  0  0
 17 34  1  0  0  0  0
 18 19  1  0  0  0  0
 18 20  1  0  0  0  0
 20 21  2  0  0  0  0
 20 35  1  0  0  0  0
 21 36  1  0  0  0  0
M  END
> <s_m_source_file>
AV-unprocessed.smi

> <i_m_source_file_index>
458

> <i_lp_mmshare_version>
43012

> <i_f3d_flags>
0

> <s_epik_input>
W2NIXTFbY0hdW2NIXVtjSF1jKGMxMiluKGMobjIpW0NIMl1bT0hdKVtDSDJdW0NASF0oW09IXSljM1tjSF1bY0hdYyhGKVtjSF1bY0hdMw==

> <s_epik_cmdline>
J2VwaWtfcHl0aG9uJywgJy1waCcsICc3LjAnLCAnLXRuJywgJzgnLCAnLW1hJywgJzIwMCcsICctbWV0YWxfYmluZGluZycsICctaW1hZScsICc8aW5maWxlLm1hZT4nLCAnLW9tYWUnLCAnPG91dGZpbGUubWFlPic=

> <r_epik_Ionization_Penalty>
0.0634724

> <r_epik_Ionization_Penalty_Charging>
0

> <r_epik_Ionization_Penalty_Neutral>
0.0634724

> <r_epik_State_Penalty>
0.0551572

> <r_epik_Charging_Adjusted_Penalty>
0.0551572

> <i_epik_Tot_Q>
0

> <i_epik_Tot_abs_Q>
0

> <r_epik_Metal_State_Penalty>
5.78034e-05

> <b_epik_Metal_Only>
0

> <s_lp_Force_Field>
OPLS_2005

> <r_lp_Energy>
11.6134

> <b_lp_Chiralities_Consistent>
1

> <s_lp_Variant>
AV-unprocessed.smi:458-2

> <Gold.Version>
5.8.1

> <Gold.Id.Protein>
6NUR|6NUR_protein|mol2

> <Gold.PLP.Fitness>
45.5612

> <Gold.PLP.PLP>
-40.8442

> <Gold.PLP.part.hbond>
-2.0000

> <Gold.PLP.part.metal>
0.0000

> <Gold.PLP.part.buried>
-4.4560

> <Gold.PLP.part.nonpolar>
-34.4376

> <Gold.PLP.part.repulsive>
0.0000

> <Gold.PLP.ligand.clash>
0.0000

> <Gold.PLP.ligand.torsion>
0.6581

> <Gold.PLP.Chemscore.Hbond>
1.9920

> <Gold.PLP.Chemscore.CHOScore>
0.0000

> <Gold.PLP.Chemscore.Metal>
0.0000

> <Gold.Chemscore.Hbonds>
donor molecule, donor type, donor heavy atom, donor atom, acceptor molecule, acceptor atom, score
      P1  H  7989  7998       L1    14  0.70
      P1  H 10752 10765       L1     1  1.00

> <Gold.PLP.Chemscore.Internal.Correction>
0.0571

> <Gold.Rescore>
     Score         DG    S(hbond)    S(metal)    S(lipo)     H(rot)  DE(clash)    DE(int)     intcor
     14.65     -15.27       1.67        0.00      96.22       2.75       0.01       0.61       ----

> <Gold.Chemscore.Fitness>
14.6534

> <Gold.Chemscore.DG>
-15.2729

> <Gold.Chemscore.ZeroCoef>
-5.4800

> <Gold.Chemscore.Hbond>
1.6693

> <Gold.Chemscore.Metal>
0.0000

> <Gold.Chemscore.Lipo>
96.2170

> <Gold.Chemscore.Internal_Hbond>
0.0000

> <Gold.Chemscore.DEClash>
0.0077

> <Gold.Chemscore.DEInternal>
0.6118

> <Gold.Chemscore.Rot>
2.7500

> <Gold.Chemscore.Internal.Correction>
   9.000000E+99

> <Gold.Chemscore.Hbonds>
donor molecule, donor type, donor heavy atom, donor atom, acceptor molecule, acceptor atom, score
      P1  H  7989  7998       L1    14  0.07
      P1  H 10752 10765       L1     1  0.92

> <Gold.Chemscore.Hbond.Weighted>
-5.5754

> <Gold.Chemscore.Metal.Weighted>
-0.0000

> <Gold.Chemscore.Lipo.Weighted>
-11.2574

> <Gold.Chemscore.Internal_Hbond.Weighted>
0.0000

> <Gold.Chemscore.DEClash.Weighted>
0.0077

> <Gold.Chemscore.DEInternal.Weighted>
0.6118

> <Gold.Chemscore.Rot.Weighted>
7.0399

> <Gold.Chemscore.Internal.Correction.Weighted>
   9.000000E+99

> <Gold.Protein.RotatedTorsions>
[ 6907 6896 6895 6894 ] final  -58.97 input  -60.11 | X-H torsion
[ 7974 7965 7964 7962 ] final   92.17 input  175.53 | X-H torsion
[ 8008 7997 7996 7995 ] final  -40.88 input   59.86 | X-H torsion
[ 10167 10162 10161 10158 ] final  -72.24 input  -65.29 | X-H torsion
[ 10718 10713 10712 10709 ] final  169.94 input   66.30 | X-H torsion
[ 10763 10752 10751 10750 ] final -104.43 input  -60.55 | X-H torsion
[ 11005 11000 10999 10996 ] final  142.89 input  -57.11 | X-H torsion

> <Gold.Protein.ActiveResidues>
 VAL166  LYS551  ARG553  GLY616  TRP617  ASP618  TYR619  PRO620  LYS621  CYS622 
 ASP623  PHE694  ASN695  SER759  ASP760  ASP761  ALA762  ILE779  LEU786  VAL792 
 PHE793  MET794  SER795  GLU796  ALA797  LYS798  CYS799  TRP800  GLU811  SER814 

> <Gold.Protein.RotatedAtoms>
  150.7966  134.7029  159.6560 H   0  0  0  0  0  0  0  0  0  0  0  0  # atno 6907 bound_to 6896
  152.4079  134.6173  160.0051 H   0  0  0  0  0  0  0  0  0  0  0  0  # atno 6908 bound_to 6896
  151.6424  133.3288  159.3169 H   0  0  0  0  0  0  0  0  0  0  0  0  # atno 6909 bound_to 6896
  145.4959  139.2276  143.2804 H   0  0  0  0  0  0  0  0  0  0  0  0  # atno 7974 bound_to 7965
  154.4008  140.1514  156.3100 H   0  0  0  0  0  0  0  0  0  0  0  0  # atno 8008 bound_to 7997
  155.8624  140.3453  155.5744 H   0  0  0  0  0  0  0  0  0  0  0  0  # atno 8009 bound_to 7997
  155.7865  140.0850  157.2022 H   0  0  0  0  0  0  0  0  0  0  0  0  # atno 8010 bound_to 7997
  140.5208  143.2332  151.7432 H   0  0  0  0  0  0  0  0  0  0  0  0  # atno 10167 bound_to 10162
  157.0153  131.0216  151.2791 H   0  0  0  0  0  0  0  0  0  0  0  0  # atno 10718 bound_to 10713
  154.7877  135.4786  153.9983 H   0  0  0  0  0  0  0  0  0  0  0  0  # atno 10763 bound_to 10752
  153.1585  135.6804  153.8784 H   0  0  0  0  0  0  0  0  0  0  0  0  # atno 10764 bound_to 10752
  153.8406  135.3180  155.3404 H   0  0  0  0  0  0  0  0  0  0  0  0  # atno 10765 bound_to 10752
  140.0511  134.9255  157.1019 H   0  0  0  0  0  0  0  0  0  0  0  0  # atno 11005 bound_to 11000
  146.2256  140.5756  142.8998 LP  0  0  0  0  0  0  0  0  0  0  0  0  # atno 17320 bound_to 7965
  144.7807  140.5835  143.6607 LP  0  0  0  0  0  0  0  0  0  0  0  0  # atno 17321 bound_to 7965
  139.4923  144.4257  151.9929 LP  0  0  0  0  0  0  0  0  0  0  0  0  # atno 17342 bound_to 10162
  140.3353  144.3267  150.5978 LP  0  0  0  0  0  0  0  0  0  0  0  0  # atno 17343 bound_to 10162
  157.5290  130.8046  149.7895 LP  0  0  0  0  0  0  0  0  0  0  0  0  # atno 17370 bound_to 10713
  156.0121  130.3829  150.2229 LP  0  0  0  0  0  0  0  0  0  0  0  0  # atno 17371 bound_to 10713
  140.3916  134.2179  155.7166 LP  0  0  0  0  0  0  0  0  0  0  0  0  # atno 17394 bound_to 11000
  141.1931  133.8159  157.0814 LP  0  0  0  0  0  0  0  0  0  0  0  0  # atno 17395 bound_to 11000

$$$$
