AV-unprocessed.smi:3068|AV-procd|sdf|11708|dock4
  -GOLD-   2272017113D 1   1.00000     0.00000
 Structure written by MMmdl.
 39 41  0  0  0  0  0  0  0  0  1 V2000
  151.4205  136.4122  155.1030 N   0  0  0  0  0  0  0  0  0  0  0  0
  150.8037  136.4513  156.0813 C   0  0  0  0  0  0  0  0  0  0  0  0
  150.0264  136.5006  157.3133 C   0  0  0  0  0  0  0  0  0  0  0  0
  148.8107  135.9067  157.2880 N   0  0  0  0  0  0  0  0  0  0  0  0
  148.0804  135.9442  158.4226 C   0  0  0  0  0  0  0  0  0  0  0  0
  148.5595  136.5744  159.5873 C   0  0  0  0  0  0  0  0  0  0  0  0
  149.7699  137.1702  159.6210 N   0  0  0  0  0  0  0  0  0  0  0  0
  150.5160  137.1385  158.4882 C   0  0  0  0  0  0  0  0  0  0  0  0
  151.7796  137.7581  158.5064 N   0  0  0  0  0  0  0  0  0  0  0  0
  152.0811  138.8612  159.4113 C   0  0  0  0  0  0  0  0  0  0  0  0
  153.1845  139.7906  158.8613 C   0  0  2  0  0  0  0  0  0  0  0  0
  153.6269  140.8588  159.8792 C   0  0  0  0  0  0  0  0  0  0  0  0
  152.6262  141.9003  160.0774 N   0  0  0  0  0  0  0  0  0  0  0  0
  153.0931  142.9026  161.0344 C   0  0  0  0  0  0  0  0  0  0  0  0
  152.0491  143.9999  161.2923 C   0  0  0  0  0  0  0  0  0  0  0  0
  151.6512  144.6745  159.9722 C   0  0  0  0  0  0  0  0  0  0  0  0
  151.2090  143.6139  158.9526 C   0  0  0  0  0  0  0  0  0  0  0  0
  152.2818  142.5159  158.7928 C   0  0  2  0  0  0  0  0  0  0  0  0
  151.8144  141.4526  157.7795 C   0  0  0  0  0  0  0  0  0  0  0  0
  152.7948  140.4269  157.6424 O   0  0  0  0  0  0  0  0  0  0  0  0
  147.1102  135.4704  158.4015 H   0  0  0  0  0  0  0  0  0  0  0  0
  147.9710  136.6009  160.4924 H   0  0  0  0  0  0  0  0  0  0  0  0
  152.5516  137.3079  158.0357 H   0  0  0  0  0  0  0  0  0  0  0  0
  151.1621  139.4174  159.5921 H   0  0  0  0  0  0  0  0  0  0  0  0
  152.3760  138.4645  160.3831 H   0  0  0  0  0  0  0  0  0  0  0  0
  154.0585  139.1811  158.6308 H   0  0  0  0  0  0  0  0  0  0  0  0
  153.8613  140.3815  160.8315 H   0  0  0  0  0  0  0  0  0  0  0  0
  154.5552  141.3123  159.5280 H   0  0  0  0  0  0  0  0  0  0  0  0
  153.3398  142.4186  161.9802 H   0  0  0  0  0  0  0  0  0  0  0  0
  154.0157  143.3587  160.6722 H   0  0  0  0  0  0  0  0  0  0  0  0
  151.1681  143.5636  161.7648 H   0  0  0  0  0  0  0  0  0  0  0  0
  152.4440  144.7395  161.9892 H   0  0  0  0  0  0  0  0  0  0  0  0
  150.8517  145.3966  160.1405 H   0  0  0  0  0  0  0  0  0  0  0  0
  152.5001  145.2326  159.5750 H   0  0  0  0  0  0  0  0  0  0  0  0
  150.2693  143.1666  159.2801 H   0  0  0  0  0  0  0  0  0  0  0  0
  151.0079  144.0882  157.9915 H   0  0  0  0  0  0  0  0  0  0  0  0
  153.1785  142.9856  158.3841 H   0  0  0  0  0  0  0  0  0  0  0  0
  150.8585  141.0215  158.0785 H   0  0  0  0  0  0  0  0  0  0  0  0
  151.6555  141.9077  156.8016 H   0  0  0  0  0  0  0  0  0  0  0  0
  1  2  3  0  0  0  0
  2  3  1  0  0  0  0
  3  8  1  0  0  0  0
  3  4  2  0  0  0  0
  4  5  1  0  0  0  0
  5  6  2  0  0  0  0
  5 21  1  0  0  0  0
  6  7  1  0  0  0  0
  6 22  1  0  0  0  0
  7  8  2  0  0  0  0
  8  9  1  0  0  0  0
  9 10  1  0  0  0  0
  9 23  1  0  0  0  0
 10 11  1  0  0  0  0
 10 24  1  0  0  0  0
 10 25  1  0  0  0  0
 11 20  1  0  0  0  0
 11 12  1  0  0  0  0
 11 26  1  0  0  0  0
 12 13  1  0  0  0  0
 12 27  1  0  0  0  0
 12 28  1  0  0  0  0
 13 18  1  0  0  0  0
 13 14  1  0  0  0  0
 14 15  1  0  0  0  0
 14 29  1  0  0  0  0
 14 30  1  0  0  0  0
 15 16  1  0  0  0  0
 15 31  1  0  0  0  0
 15 32  1  0  0  0  0
 16 17  1  0  0  0  0
 16 33  1  0  0  0  0
 16 34  1  0  0  0  0
 17 18  1  0  0  0  0
 17 35  1  0  0  0  0
 17 36  1  0  0  0  0
 18 19  1  0  0  0  0
 18 37  1  0  0  0  0
 19 20  1  0  0  0  0
 19 38  1  0  0  0  0
 19 39  1  0  0  0  0
M  END
> <s_m_source_file>
AV-unprocessed.smi

> <i_m_source_file_index>
3068

> <i_lp_mmshare_version>
43012

> <i_f3d_flags>
0

> <s_epik_input>
TiNDYzFuW2NIXVtjSF1uYzFbTkhdW0NIMl1bQ0BIXShbQ0gyXTIpT1tDSDJdW0NAQEhdKE4yMylbQ0gyXVtDSDJdW0NIMl1bQ0gyXTM=

> <s_epik_cmdline>
J2VwaWtfcHl0aG9uJywgJy1waCcsICc3LjAnLCAnLXRuJywgJzgnLCAnLW1hJywgJzIwMCcsICctbWV0YWxfYmluZGluZycsICctaW1hZScsICc8aW5maWxlLm1hZT4nLCAnLW9tYWUnLCAnPG91dGZpbGUubWFlPic=

> <r_epik_Ionization_Penalty>
1.22359

> <r_epik_Ionization_Penalty_Charging>
0

> <r_epik_Ionization_Penalty_Neutral>
1.22359

> <r_epik_State_Penalty>
1.29103

> <r_epik_Charging_Adjusted_Penalty>
1.29103

> <i_epik_Tot_Q>
0

> <i_epik_Tot_abs_Q>
0

> <r_epik_Metal_State_Penalty>
1.29103

> <b_epik_Metal_Only>
0

> <s_lp_Force_Field>
OPLS_2005

> <r_lp_Energy>
49.2937

> <b_lp_Chiralities_Consistent>
1

> <s_lp_Variant>
AV-unprocessed.smi:3068-11

> <Gold.Version>
5.8.1

> <Gold.Id.Protein>
6NUR|6NUR_protein|mol2

> <Gold.PLP.Fitness>
38.2484

> <Gold.PLP.PLP>
-33.2793

> <Gold.PLP.part.hbond>
-3.0000

> <Gold.PLP.part.metal>
0.0000

> <Gold.PLP.part.buried>
-4.9657

> <Gold.PLP.part.nonpolar>
-25.1872

> <Gold.PLP.part.repulsive>
0.2081

> <Gold.PLP.ligand.clash>
0.0000

> <Gold.PLP.ligand.torsion>
0.3458

> <Gold.PLP.Chemscore.Hbond>
1.8853

> <Gold.PLP.Chemscore.CHOScore>
0.0000

> <Gold.PLP.Chemscore.Metal>
0.0000

> <Gold.Chemscore.Hbonds>
donor molecule, donor type, donor heavy atom, donor atom, acceptor molecule, acceptor atom, score
      P1  H  7997  8008       L1    20  0.72
      P1  H 10752 10764       L1     1  1.00

> <Gold.PLP.Chemscore.Internal.Correction>
0.0048

> <Gold.Rescore>
     Score         DG    S(hbond)    S(metal)    S(lipo)     H(rot)  DE(clash)    DE(int)     intcor
     18.92     -19.35       1.83        0.00      94.91       1.30       0.05       0.38       ----

> <Gold.Chemscore.Fitness>
18.9232

> <Gold.Chemscore.DG>
-19.3532

> <Gold.Chemscore.ZeroCoef>
-5.4800

> <Gold.Chemscore.Hbond>
1.8268

> <Gold.Chemscore.Metal>
0.0000

> <Gold.Chemscore.Lipo>
94.9105

> <Gold.Chemscore.Internal_Hbond>
0.0000

> <Gold.Chemscore.DEClash>
0.0529

> <Gold.Chemscore.DEInternal>
0.3770

> <Gold.Chemscore.Rot>
1.3019

> <Gold.Chemscore.Internal.Correction>
   9.000000E+99

> <Gold.Chemscore.Hbonds>
donor molecule, donor type, donor heavy atom, donor atom, acceptor molecule, acceptor atom, score
      P1  H  7997  8008       L1    20  0.12
      P1  H 10752 10764       L1     1  1.00

> <Gold.Chemscore.Hbond.Weighted>
-6.1014

> <Gold.Chemscore.Metal.Weighted>
-0.0000

> <Gold.Chemscore.Lipo.Weighted>
-11.1045

> <Gold.Chemscore.Internal_Hbond.Weighted>
0.0000

> <Gold.Chemscore.DEClash.Weighted>
0.0529

> <Gold.Chemscore.DEInternal.Weighted>
0.3770

> <Gold.Chemscore.Rot.Weighted>
3.3327

> <Gold.Chemscore.Internal.Correction.Weighted>
   9.000000E+99

> <Gold.Protein.RotatedTorsions>
[ 6907 6896 6895 6894 ] final  -22.05 input  -60.11 | X-H torsion
[ 7974 7965 7964 7962 ] final  116.19 input  175.53 | X-H torsion
[ 8008 7997 7996 7995 ] final  -62.07 input   59.86 | X-H torsion
[ 10167 10162 10161 10158 ] final   76.22 input  -65.29 | X-H torsion
[ 10718 10713 10712 10709 ] final -132.59 input   66.30 | X-H torsion
[ 10763 10752 10751 10750 ] final  -55.32 input  -60.55 | X-H torsion
[ 11005 11000 10999 10996 ] final -104.15 input  -57.11 | X-H torsion

> <Gold.Protein.ActiveResidues>
 VAL166  LYS551  ARG553  GLY616  TRP617  ASP618  TYR619  PRO620  LYS621  CYS622 
 ASP623  PHE694  ASN695  SER759  ASP760  ASP761  ALA762  ILE779  LEU786  VAL792 
 PHE793  MET794  SER795  GLU796  ALA797  LYS798  CYS799  TRP800  GLU811  SER814 

> <Gold.Protein.RotatedAtoms>
  151.2243  135.0530  159.8961 H   0  0  0  0  0  0  0  0  0  0  0  0  # atno 6907 bound_to 6896
  152.5412  134.0607  159.8161 H   0  0  0  0  0  0  0  0  0  0  0  0  # atno 6908 bound_to 6896
  151.0777  133.5366  159.2654 H   0  0  0  0  0  0  0  0  0  0  0  0  # atno 6909 bound_to 6896
  145.1826  139.3042  143.4410 H   0  0  0  0  0  0  0  0  0  0  0  0  # atno 7974 bound_to 7965
  154.4480  140.1004  156.6530 H   0  0  0  0  0  0  0  0  0  0  0  0  # atno 8008 bound_to 7997
  155.5377  140.3483  155.4421 H   0  0  0  0  0  0  0  0  0  0  0  0  # atno 8009 bound_to 7997
  156.0619  140.1328  156.9919 H   0  0  0  0  0  0  0  0  0  0  0  0  # atno 8010 bound_to 7997
  139.9946  144.5731  150.7788 H   0  0  0  0  0  0  0  0  0  0  0  0  # atno 10167 bound_to 10162
  156.2361  130.7067  151.0909 H   0  0  0  0  0  0  0  0  0  0  0  0  # atno 10718 bound_to 10713
  154.1888  135.6431  153.5054 H   0  0  0  0  0  0  0  0  0  0  0  0  # atno 10763 bound_to 10752
  153.0040  135.5424  154.6437 H   0  0  0  0  0  0  0  0  0  0  0  0  # atno 10764 bound_to 10752
  154.5820  135.2926  155.0696 H   0  0  0  0  0  0  0  0  0  0  0  0  # atno 10765 bound_to 10752
  141.1113  133.8699  157.1575 H   0  0  0  0  0  0  0  0  0  0  0  0  # atno 11005 bound_to 11000
  146.3450  140.2011  142.8589 LP  0  0  0  0  0  0  0  0  0  0  0  0  # atno 17320 bound_to 7965
  145.0121  140.8722  143.5218 LP  0  0  0  0  0  0  0  0  0  0  0  0  # atno 17321 bound_to 7965
  140.7442  143.2857  151.3471 LP  0  0  0  0  0  0  0  0  0  0  0  0  # atno 17342 bound_to 10162
  139.6315  144.0711  152.2480 LP  0  0  0  0  0  0  0  0  0  0  0  0  # atno 17343 bound_to 10162
  157.7155  131.0712  150.6343 LP  0  0  0  0  0  0  0  0  0  0  0  0  # atno 17370 bound_to 10713
  156.6413  130.4459  149.5751 LP  0  0  0  0  0  0  0  0  0  0  0  0  # atno 17371 bound_to 10713
  140.0009  135.0028  157.0188 LP  0  0  0  0  0  0  0  0  0  0  0  0  # atno 17394 bound_to 11000
  140.4766  134.1332  155.7210 LP  0  0  0  0  0  0  0  0  0  0  0  0  # atno 17395 bound_to 11000

$$$$
