AV-unprocessed.smi:2021|AV-procd|sdf|8184|dock5
  -GOLD-   2272010433D 1   1.00000     0.00000
 Structure written by MMmdl.
 41 42  0  0  0  0  0  0  0  0  3 V2000
  143.9586  132.8115  148.8666 C   0  0  0  0  0  0  0  0  0  0  0  0
  144.6671  132.6488  150.2220 C   0  0  0  0  0  0  0  0  0  0  0  0
  144.1383  133.6804  151.2296 C   0  0  0  0  0  0  0  0  0  0  0  0
  146.2012  132.7611  150.0876 C   0  0  0  0  0  0  0  0  0  0  0  0
  146.9251  132.4264  151.3406 N   0  3  2  0  0  0  0  0  0  0  0  0
  146.3764  131.2447  152.0506 C   0  0  0  0  0  0  0  0  0  0  0  0
  147.2001  130.9487  153.3146 C   0  0  0  0  0  0  0  0  0  0  0  0
  147.2228  132.0995  154.1486 O   0  0  0  0  0  0  0  0  0  0  0  0
  147.8406  133.2149  153.5139 C   0  0  2  0  0  0  0  0  0  0  0  0
  147.9015  134.3756  154.5154 C   0  0  0  0  0  0  0  0  0  0  0  0
  149.0954  135.1810  154.2992 N   0  0  0  0  0  0  0  0  0  0  0  0
  150.1094  135.2974  155.1654 C   0  0  0  0  0  0  0  0  0  0  0  0
  150.0732  134.6879  156.2369 O   0  0  0  0  0  0  0  0  0  0  0  0
  151.1000  136.1113  154.7369 N   0  5  0  0  0  0  0  0  0  0  0  0
  150.9265  137.4435  154.7529 C   0  0  0  0  0  0  0  0  0  0  0  0
  151.9428  138.3026  154.5730 N   0  0  0  0  0  0  0  0  0  0  0  0
  151.5492  139.6329  154.6261 N   0  0  0  0  0  0  0  0  0  0  0  0
  150.2407  139.7435  154.8550 C   0  0  0  0  0  0  0  0  0  0  0  0
  149.3715  138.2336  155.0306 S   0  0  0  0  0  0  0  0  0  0  0  0
  147.0203  133.5830  152.2626 C   0  0  0  0  0  0  0  0  0  0  0  0
  144.1796  133.7801  148.4171 H   0  0  0  0  0  0  0  0  0  0  0  0
  142.8764  132.7382  148.9793 H   0  0  0  0  0  0  0  0  0  0  0  0
  144.2631  132.0386  148.1605 H   0  0  0  0  0  0  0  0  0  0  0  0
  144.4129  131.6661  150.6185 H   0  0  0  0  0  0  0  0  0  0  0  0
  144.3413  134.6997  150.8988 H   0  0  0  0  0  0  0  0  0  0  0  0
  144.6024  133.5496  152.2077 H   0  0  0  0  0  0  0  0  0  0  0  0
  143.0604  133.5835  151.3642 H   0  0  0  0  0  0  0  0  0  0  0  0
  146.5236  132.0857  149.2933 H   0  0  0  0  0  0  0  0  0  0  0  0
  146.4874  133.7640  149.7662 H   0  0  0  0  0  0  0  0  0  0  0  0
  145.3358  131.4299  152.3214 H   0  0  0  0  0  0  0  0  0  0  0  0
  146.3873  130.3683  151.4038 H   0  0  0  0  0  0  0  0  0  0  0  0
  146.7551  130.1212  153.8674 H   0  0  0  0  0  0  0  0  0  0  0  0
  148.2174  130.6493  153.0573 H   0  0  0  0  0  0  0  0  0  0  0  0
  148.8572  132.9493  153.2164 H   0  0  0  0  0  0  0  0  0  0  0  0
  147.0219  135.0108  154.3987 H   0  0  0  0  0  0  0  0  0  0  0  0
  147.8936  133.9975  155.5389 H   0  0  0  0  0  0  0  0  0  0  0  0
  149.1614  135.6895  153.4296 H   0  0  0  0  0  0  0  0  0  0  0  0
  149.7851  140.7199  154.9238 H   0  0  0  0  0  0  0  0  0  0  0  0
  147.4937  134.4216  151.7502 H   0  0  0  0  0  0  0  0  0  0  0  0
  146.0175  133.9057  152.5482 H   0  0  0  0  0  0  0  0  0  0  0  0
  147.8729  132.2001  151.0744 H   0  0  0  0  0  0  0  0  0  0  0  0
  1  2  1  0  0  0  0
  1 21  1  0  0  0  0
  1 22  1  0  0  0  0
  1 23  1  0  0  0  0
  2  3  1  0  0  0  0
  2  4  1  0  0  0  0
  2 24  1  0  0  0  0
  3 25  1  0  0  0  0
  3 26  1  0  0  0  0
  3 27  1  0  0  0  0
  4  5  1  0  0  0  0
  4 28  1  0  0  0  0
  4 29  1  0  0  0  0
  5 20  1  0  0  0  0
  5  6  1  0  0  0  0
  5 41  1  0  0  0  0
  6  7  1  0  0  0  0
  6 30  1  0  0  0  0
  6 31  1  0  0  0  0
  7  8  1  0  0  0  0
  7 32  1  0  0  0  0
  7 33  1  0  0  0  0
  8  9  1  0  0  0  0
  9 10  1  0  0  0  0
  9 20  1  0  0  0  0
  9 34  1  0  0  0  0
 10 11  1  0  0  0  0
 10 35  1  0  0  0  0
 10 36  1  0  0  0  0
 11 12  1  0  0  0  0
 11 37  1  0  0  0  0
 12 13  2  0  0  0  0
 12 14  1  0  0  0  0
 14 15  1  0  0  0  0
 15 19  1  0  0  0  0
 15 16  2  0  0  0  0
 16 17  1  0  0  0  0
 17 18  2  0  0  0  0
 18 19  1  0  0  0  0
 18 38  1  0  0  0  0
 20 39  1  0  0  0  0
 20 40  1  0  0  0  0
M  CHG  1   5   1
M  CHG  1  14  -1
M  END
> <s_m_source_file>
AV-unprocessed.smi

> <i_m_source_file_index>
2021

> <i_lp_mmshare_version>
43012

> <i_f3d_flags>
0

> <s_epik_input>
W0NIM11bQ0hdKFtDSDNdKVtDSDJdTjFbQ0gyXVtDSDJdT1tDQEhdKFtDSDJdMSlbQ0gyXVtOSF1DKD1PKVtOSF1jMm5uW2NIXXMy

> <s_epik_cmdline>
J2VwaWtfcHl0aG9uJywgJy1waCcsICc3LjAnLCAnLXRuJywgJzgnLCAnLW1hJywgJzIwMCcsICctbWV0YWxfYmluZGluZycsICctaW1hZScsICc8aW5maWxlLm1hZT4nLCAnLW9tYWUnLCAnPG91dGZpbGUubWFlPic=

> <r_lp_tautomer_probability>
1

> <r_epik_Ionization_Penalty>
3.15762

> <r_epik_Ionization_Penalty_Charging>
3.12229

> <r_epik_Ionization_Penalty_Neutral>
0.0353298

> <r_epik_State_Penalty>
3.11266

> <r_epik_Charging_Adjusted_Penalty>
6.23495

> <i_epik_Tot_Q>
0

> <i_epik_Tot_abs_Q>
2

> <r_epik_Metal_State_Penalty>
0.541462

> <b_epik_Metal_Only>
1

> <s_lp_Force_Field>
OPLS_2005

> <r_lp_Energy>
10.6965

> <b_lp_Chiralities_Consistent>
1

> <s_lp_Variant>
AV-unprocessed.smi:2021-10

> <Gold.Version>
5.8.1

> <Gold.Id.Protein>
6NUR|6NUR_protein|mol2

> <Gold.PLP.Fitness>
47.0650

> <Gold.PLP.PLP>
-35.1058

> <Gold.PLP.part.hbond>
-4.0000

> <Gold.PLP.part.metal>
0.0000

> <Gold.PLP.part.buried>
-5.9718

> <Gold.PLP.part.nonpolar>
-25.8533

> <Gold.PLP.part.repulsive>
0.4585

> <Gold.PLP.ligand.clash>
0.0000

> <Gold.PLP.ligand.torsion>
1.4189

> <Gold.PLP.Chemscore.Hbond>
4.8960

> <Gold.PLP.Chemscore.CHOScore>
0.0000

> <Gold.PLP.Chemscore.Metal>
0.0000

> <Gold.Chemscore.Hbonds>
donor molecule, donor type, donor heavy atom, donor atom, acceptor molecule, acceptor atom, score
      L1  H     5    41       P1 10747  0.90
      L1  H    11    37       P1  7948  1.00
      P1  H  7989  7998       L1    17  0.85
      P1  H 10752 10764       L1    14  2.00

> <Gold.PLP.Chemscore.Internal.Correction>
0.1089

> <Gold.Rescore>
     Score         DG    S(hbond)    S(metal)    S(lipo)     H(rot)  DE(clash)    DE(int)     intcor
     19.50     -21.01       3.57        0.00      71.10       1.85       0.00       1.51       ----

> <Gold.Chemscore.Fitness>
19.5030

> <Gold.Chemscore.DG>
-21.0104

> <Gold.Chemscore.ZeroCoef>
-5.4800

> <Gold.Chemscore.Hbond>
3.5745

> <Gold.Chemscore.Metal>
0.0000

> <Gold.Chemscore.Lipo>
71.0998

> <Gold.Chemscore.Internal_Hbond>
0.0000

> <Gold.Chemscore.DEClash>
0.0021

> <Gold.Chemscore.DEInternal>
1.5053

> <Gold.Chemscore.Rot>
1.8466

> <Gold.Chemscore.Internal.Correction>
   9.000000E+99

> <Gold.Chemscore.Hbonds>
donor molecule, donor type, donor heavy atom, donor atom, acceptor molecule, acceptor atom, score
      L1  H     5    41       P1 10747  0.88
      L1  H    11    37       P1  7948  0.65
      P1  H  7989  7998       L1    17  0.15
      P1  H 10752 10764       L1    14  0.85

> <Gold.Chemscore.Hbond.Weighted>
-11.9390

> <Gold.Chemscore.Metal.Weighted>
-0.0000

> <Gold.Chemscore.Lipo.Weighted>
-8.3187

> <Gold.Chemscore.Internal_Hbond.Weighted>
0.0000

> <Gold.Chemscore.DEClash.Weighted>
0.0021

> <Gold.Chemscore.DEInternal.Weighted>
1.5053

> <Gold.Chemscore.Rot.Weighted>
4.7272

> <Gold.Chemscore.Internal.Correction.Weighted>
   9.000000E+99

> <Gold.Protein.RotatedTorsions>
[ 6907 6896 6895 6894 ] final  -86.31 input  -60.11 | X-H torsion
[ 7974 7965 7964 7962 ] final  168.68 input  175.53 | X-H torsion
[ 8008 7997 7996 7995 ] final -164.84 input   59.86 | X-H torsion
[ 10167 10162 10161 10158 ] final -135.51 input  -65.29 | X-H torsion
[ 10718 10713 10712 10709 ] final  -63.40 input   66.30 | X-H torsion
[ 10763 10752 10751 10750 ] final  -62.01 input  -60.55 | X-H torsion
[ 11005 11000 10999 10996 ] final   89.63 input  -57.11 | X-H torsion

> <Gold.Protein.ActiveResidues>
 VAL166  LYS551  ARG553  GLY616  TRP617  ASP618  TYR619  PRO620  LYS621  CYS622 
 ASP623  PHE694  ASN695  SER759  ASP760  ASP761  ALA762  ILE779  LEU786  VAL792 
 PHE793  MET794  SER795  GLU796  ALA797  LYS798  CYS799  TRP800  GLU811  SER814 

> <Gold.Protein.RotatedAtoms>
  150.6867  134.3070  159.4730 H   0  0  0  0  0  0  0  0  0  0  0  0  # atno 6907 bound_to 6896
  152.0960  134.9372  160.0580 H   0  0  0  0  0  0  0  0  0  0  0  0  # atno 6908 bound_to 6896
  152.0669  133.4053  159.4479 H   0  0  0  0  0  0  0  0  0  0  0  0  # atno 6909 bound_to 6896
  144.7380  139.8942  143.6405 H   0  0  0  0  0  0  0  0  0  0  0  0  # atno 7974 bound_to 7965
  155.8414  140.0949  157.1732 H   0  0  0  0  0  0  0  0  0  0  0  0  # atno 8008 bound_to 7997
  154.3982  140.1400  156.3794 H   0  0  0  0  0  0  0  0  0  0  0  0  # atno 8009 bound_to 7997
  155.8060  140.3451  155.5433 H   0  0  0  0  0  0  0  0  0  0  0  0  # atno 8010 bound_to 7997
  139.8771  143.6884  152.2632 H   0  0  0  0  0  0  0  0  0  0  0  0  # atno 10167 bound_to 10162
  156.0793  130.4220  150.1271 H   0  0  0  0  0  0  0  0  0  0  0  0  # atno 10718 bound_to 10713
  154.2934  135.6249  153.5394 H   0  0  0  0  0  0  0  0  0  0  0  0  # atno 10763 bound_to 10752
  152.9849  135.5661  154.5365 H   0  0  0  0  0  0  0  0  0  0  0  0  # atno 10764 bound_to 10752
  154.4980  135.2870  155.1419 H   0  0  0  0  0  0  0  0  0  0  0  0  # atno 10765 bound_to 10752
  139.8871  134.8563  156.3169 H   0  0  0  0  0  0  0  0  0  0  0  0  # atno 11005 bound_to 11000
  146.1119  139.4125  143.0282 LP  0  0  0  0  0  0  0  0  0  0  0  0  # atno 17320 bound_to 7965
  145.7430  141.0001  143.1291 LP  0  0  0  0  0  0  0  0  0  0  0  0  # atno 17321 bound_to 7965
  139.7230  144.7599  151.0925 LP  0  0  0  0  0  0  0  0  0  0  0  0  # atno 17342 bound_to 10162
  140.7751  143.5184  150.9566 LP  0  0  0  0  0  0  0  0  0  0  0  0  # atno 17343 bound_to 10162
  156.9306  130.9712  151.3533 LP  0  0  0  0  0  0  0  0  0  0  0  0  # atno 17370 bound_to 10713
  157.5903  130.8439  149.8650 LP  0  0  0  0  0  0  0  0  0  0  0  0  # atno 17371 bound_to 10713
  140.9813  133.7266  156.0676 LP  0  0  0  0  0  0  0  0  0  0  0  0  # atno 17394 bound_to 11000
  140.7746  134.3794  157.5500 LP  0  0  0  0  0  0  0  0  0  0  0  0  # atno 17395 bound_to 11000

$$$$
