AV-unprocessed.smi:2403|AV-procd|sdf|9510|dock8
  -GOLD-   2272013143D 1   1.00000     0.00000
 Structure written by MMmdl.
 48 50  0  0  0  0  0  0  0  0  2 V2000
  147.3617  133.1537  152.0940 C   0  0  0  0  0  0  0  0  0  0  0  0
  145.9954  133.6039  151.6063 C   0  0  0  0  0  0  0  0  0  0  0  0
  145.1100  132.6586  151.0422 C   0  0  0  0  0  0  0  0  0  0  0  0
  143.8441  133.0793  150.5903 C   0  0  0  0  0  0  0  0  0  0  0  0
  143.4925  134.3776  150.6956 N   0  3  0  0  0  0  0  0  0  0  0  0
  144.3040  135.3161  151.2279 C   0  0  0  0  0  0  0  0  0  0  0  0
  145.5862  134.9577  151.7145 C   0  0  0  0  0  0  0  0  0  0  0  0
  146.4891  135.9090  152.2669 N   0  0  0  0  0  0  0  0  0  0  0  0
  146.2064  136.9479  153.0708 C   0  0  0  0  0  0  0  0  0  0  0  0
  145.0809  137.2463  153.4694 O   0  0  0  0  0  0  0  0  0  0  0  0
  147.3233  137.6097  153.4217 N   0  0  0  0  0  0  0  0  0  0  0  0
  147.4397  138.7752  154.3186 C   0  0  0  0  0  0  0  0  0  0  0  0
  147.0096  138.4616  155.7809 C   0  0  0  0  0  0  0  0  0  0  0  0
  146.0354  139.0334  156.2724 O   0  0  0  0  0  0  0  0  0  0  0  0
  147.7386  137.5746  156.4783 N   0  0  0  0  0  0  0  0  0  0  0  0
  147.4717  137.1615  157.8471 C   0  0  0  0  0  0  0  0  0  0  0  0
  148.6196  136.4112  158.4891 C   0  0  0  0  0  0  0  0  0  0  0  0
  148.7818  136.3895  159.9908 C   0  0  0  0  0  0  0  0  0  0  0  0
  149.7668  137.1508  159.1361 C   0  0  0  0  0  0  0  0  0  0  0  0
  148.9180  139.2335  154.3262 C   0  0  0  0  0  0  0  0  0  0  0  0
  148.8954  140.7580  154.4132 C   0  0  0  0  0  0  0  0  0  0  0  0
  147.6868  141.1529  153.5756 C   0  0  0  0  0  0  0  0  0  0  0  0
  146.6770  140.0100  153.7420 C   0  0  0  0  0  0  0  0  0  0  0  0
  147.4914  132.0773  151.9772 H   0  0  0  0  0  0  0  0  0  0  0  0
  147.4880  133.3940  153.1502 H   0  0  0  0  0  0  0  0  0  0  0  0
  148.1504  133.6517  151.5294 H   0  0  0  0  0  0  0  0  0  0  0  0
  145.3950  131.6202  150.9534 H   0  0  0  0  0  0  0  0  0  0  0  0
  143.1100  132.4226  150.1463 H   0  0  0  0  0  0  0  0  0  0  0  0
  143.8978  136.3165  151.2305 H   0  0  0  0  0  0  0  0  0  0  0  0
  147.4683  135.7294  152.0987 H   0  0  0  0  0  0  0  0  0  0  0  0
  148.1942  137.2719  153.0389 H   0  0  0  0  0  0  0  0  0  0  0  0
  148.5285  137.1467  156.0182 H   0  0  0  0  0  0  0  0  0  0  0  0
  147.2307  138.0405  158.4470 H   0  0  0  0  0  0  0  0  0  0  0  0
  146.5927  136.5155  157.8623 H   0  0  0  0  0  0  0  0  0  0  0  0
  148.8731  135.4831  157.9797 H   0  0  0  0  0  0  0  0  0  0  0  0
  148.0810  136.9711  160.5864 H   0  0  0  0  0  0  0  0  0  0  0  0
  149.1232  135.4618  160.4457 H   0  0  0  0  0  0  0  0  0  0  0  0
  150.7635  136.7303  159.0195 H   0  0  0  0  0  0  0  0  0  0  0  0
  149.7198  138.2378  159.1636 H   0  0  0  0  0  0  0  0  0  0  0  0
  149.5048  138.7951  155.1353 H   0  0  0  0  0  0  0  0  0  0  0  0
  149.4108  138.9460  153.3955 H   0  0  0  0  0  0  0  0  0  0  0  0
  148.7490  141.0706  155.4477 H   0  0  0  0  0  0  0  0  0  0  0  0
  149.8196  141.2131  154.0559 H   0  0  0  0  0  0  0  0  0  0  0  0
  147.2760  142.1193  153.8697 H   0  0  0  0  0  0  0  0  0  0  0  0
  147.9821  141.2268  152.5281 H   0  0  0  0  0  0  0  0  0  0  0  0
  146.2113  139.8072  152.7771 H   0  0  0  0  0  0  0  0  0  0  0  0
  145.8645  140.3286  154.3969 H   0  0  0  0  0  0  0  0  0  0  0  0
  142.5745  134.6646  150.3551 H   0  0  0  0  0  0  0  0  0  0  0  0
  1  2  1  0  0  0  0
  1 24  1  0  0  0  0
  1 25  1  0  0  0  0
  1 26  1  0  0  0  0
  2  7  1  0  0  0  0
  2  3  2  0  0  0  0
  3  4  1  0  0  0  0
  3 27  1  0  0  0  0
  4  5  2  0  0  0  0
  4 28  1  0  0  0  0
  5  6  1  0  0  0  0
  5 48  1  0  0  0  0
  6  7  2  0  0  0  0
  6 29  1  0  0  0  0
  7  8  1  0  0  0  0
  8  9  1  0  0  0  0
  8 30  1  0  0  0  0
  9 10  2  0  0  0  0
  9 11  1  0  0  0  0
 11 12  1  0  0  0  0
 11 31  1  0  0  0  0
 12 23  1  0  0  0  0
 12 13  1  0  0  0  0
 12 20  1  0  0  0  0
 13 14  2  0  0  0  0
 13 15  1  0  0  0  0
 15 16  1  0  0  0  0
 15 32  1  0  0  0  0
 16 17  1  0  0  0  0
 16 33  1  0  0  0  0
 16 34  1  0  0  0  0
 17 19  1  0  0  0  0
 17 18  1  0  0  0  0
 17 35  1  0  0  0  0
 18 19  1  0  0  0  0
 18 36  1  0  0  0  0
 18 37  1  0  0  0  0
 19 38  1  0  0  0  0
 19 39  1  0  0  0  0
 20 21  1  0  0  0  0
 20 40  1  0  0  0  0
 20 41  1  0  0  0  0
 21 22  1  0  0  0  0
 21 42  1  0  0  0  0
 21 43  1  0  0  0  0
 22 23  1  0  0  0  0
 22 44  1  0  0  0  0
 22 45  1  0  0  0  0
 23 46  1  0  0  0  0
 23 47  1  0  0  0  0
M  CHG  1   5   1
M  END
> <s_m_source_file>
AV-unprocessed.smi

> <i_m_source_file_index>
2403

> <i_lp_mmshare_version>
43012

> <i_f3d_flags>
0

> <s_epik_input>
W0NIM11jMVtjSF1bY0hdbltjSF1jMVtOSF1DKD1PKVtOSF1DMihbQ0gyXVtDSDJdW0NIMl1bQ0gyXTIpQyg9TylbTkhdW0NIMl1bQ0hdM1tDSDJdW0NIMl0z

> <s_epik_cmdline>
J2VwaWtfcHl0aG9uJywgJy1waCcsICc3LjAnLCAnLXRuJywgJzgnLCAnLW1hJywgJzIwMCcsICctbWV0YWxfYmluZGluZycsICctaW1hZScsICc8aW5maWxlLm1hZT4nLCAnLW9tYWUnLCAnPG91dGZpbGUubWFlPic=

> <r_epik_Ionization_Penalty>
2.03963

> <r_epik_Ionization_Penalty_Charging>
2.03961

> <r_epik_Ionization_Penalty_Neutral>
1.99712e-05

> <r_epik_State_Penalty>
2.17125

> <r_epik_Charging_Adjusted_Penalty>
4.21085

> <i_epik_Tot_Q>
1

> <i_epik_Tot_abs_Q>
1

> <r_epik_Metal_State_Penalty>
2.19001

> <b_epik_Metal_Only>
0

> <s_lp_Force_Field>
OPLS_2005

> <r_lp_Energy>
38.2062

> <b_lp_Chiralities_Consistent>
1

> <s_lp_Variant>
AV-unprocessed.smi:2403-2

> <Gold.Version>
5.8.1

> <Gold.Id.Protein>
6NUR|6NUR_protein|mol2

> <Gold.PLP.Fitness>
43.4862

> <Gold.PLP.PLP>
-32.6388

> <Gold.PLP.part.hbond>
-2.8718

> <Gold.PLP.part.metal>
0.0000

> <Gold.PLP.part.buried>
-4.8572

> <Gold.PLP.part.nonpolar>
-26.5480

> <Gold.PLP.part.repulsive>
0.2181

> <Gold.PLP.ligand.clash>
0.0000

> <Gold.PLP.ligand.torsion>
0.7965

> <Gold.PLP.Chemscore.Hbond>
3.9280

> <Gold.PLP.Chemscore.CHOScore>
0.0000

> <Gold.PLP.Chemscore.Metal>
0.0000

> <Gold.Chemscore.Hbonds>
donor molecule, donor type, donor heavy atom, donor atom, acceptor molecule, acceptor atom, score
      L1  H     5    48       P1 10186  2.00
      L1  H     8    30       P1  7948  1.00
      L1  H    11    31       P1  7948  0.93

> <Gold.PLP.Chemscore.Internal.Correction>
0.6565

> <Gold.Rescore>
     Score         DG    S(hbond)    S(metal)    S(lipo)     H(rot)  DE(clash)    DE(int)     intcor
     18.13     -19.96       2.81        0.00      79.18       1.63       0.33       1.50       ----

> <Gold.Chemscore.Fitness>
18.1322

> <Gold.Chemscore.DG>
-19.9613

> <Gold.Chemscore.ZeroCoef>
-5.4800

> <Gold.Chemscore.Hbond>
2.8105

> <Gold.Chemscore.Metal>
0.0000

> <Gold.Chemscore.Lipo>
79.1753

> <Gold.Chemscore.Internal_Hbond>
0.0000

> <Gold.Chemscore.DEClash>
0.3264

> <Gold.Chemscore.DEInternal>
1.5027

> <Gold.Chemscore.Rot>
1.6286

> <Gold.Chemscore.Internal.Correction>
   9.000000E+99

> <Gold.Chemscore.Hbonds>
donor molecule, donor type, donor heavy atom, donor atom, acceptor molecule, acceptor atom, score
      L1  H     5    48       P1 10186  0.30
      L1  H     8    30       P1  7948  0.92
      L1  H    11    31       P1  7948  0.91

> <Gold.Chemscore.Hbond.Weighted>
-9.3870

> <Gold.Chemscore.Metal.Weighted>
-0.0000

> <Gold.Chemscore.Lipo.Weighted>
-9.2635

> <Gold.Chemscore.Internal_Hbond.Weighted>
0.0000

> <Gold.Chemscore.DEClash.Weighted>
0.3264

> <Gold.Chemscore.DEInternal.Weighted>
1.5027

> <Gold.Chemscore.Rot.Weighted>
4.1692

> <Gold.Chemscore.Internal.Correction.Weighted>
   9.000000E+99

> <Gold.Protein.RotatedTorsions>
[ 6907 6896 6895 6894 ] final   85.58 input  -60.11 | X-H torsion
[ 7974 7965 7964 7962 ] final  167.13 input  175.53 | X-H torsion
[ 8008 7997 7996 7995 ] final -116.11 input   59.86 | X-H torsion
[ 10167 10162 10161 10158 ] final  115.12 input  -65.29 | X-H torsion
[ 10718 10713 10712 10709 ] final   41.46 input   66.30 | X-H torsion
[ 10763 10752 10751 10750 ] final  -51.92 input  -60.55 | X-H torsion
[ 11005 11000 10999 10996 ] final -139.61 input  -57.11 | X-H torsion

> <Gold.Protein.ActiveResidues>
 VAL166  LYS551  ARG553  GLY616  TRP617  ASP618  TYR619  PRO620  LYS621  CYS622 
 ASP623  PHE694  ASN695  SER759  ASP760  ASP761  ALA762  ILE779  LEU786  VAL792 
 PHE793  MET794  SER795  GLU796  ALA797  LYS798  CYS799  TRP800  GLU811  SER814 

> <Gold.Protein.RotatedAtoms>
  152.5377  134.2564  159.8918 H   0  0  0  0  0  0  0  0  0  0  0  0  # atno 6907 bound_to 6896
  151.2525  133.4336  159.2620 H   0  0  0  0  0  0  0  0  0  0  0  0  # atno 6908 bound_to 6896
  151.0526  134.9697  159.8276 H   0  0  0  0  0  0  0  0  0  0  0  0  # atno 6909 bound_to 6896
  144.7436  139.8716  143.6389 H   0  0  0  0  0  0  0  0  0  0  0  0  # atno 7974 bound_to 7965
  155.0626  140.0393  157.2582 H   0  0  0  0  0  0  0  0  0  0  0  0  # atno 8008 bound_to 7997
  154.7047  140.2680  155.6662 H   0  0  0  0  0  0  0  0  0  0  0  0  # atno 8009 bound_to 7997
  156.2771  140.2733  156.1669 H   0  0  0  0  0  0  0  0  0  0  0  0  # atno 8010 bound_to 7997
  139.6340  144.7118  151.2374 H   0  0  0  0  0  0  0  0  0  0  0  0  # atno 10167 bound_to 10162
  157.3938  130.7821  149.7291 H   0  0  0  0  0  0  0  0  0  0  0  0  # atno 10718 bound_to 10713
  154.1344  135.6515  153.4929 H   0  0  0  0  0  0  0  0  0  0  0  0  # atno 10763 bound_to 10752
  153.0185  135.5300  154.6968 H   0  0  0  0  0  0  0  0  0  0  0  0  # atno 10764 bound_to 10752
  154.6212  135.2965  155.0294 H   0  0  0  0  0  0  0  0  0  0  0  0  # atno 10765 bound_to 10752
  140.8503  134.2294  157.4764 H   0  0  0  0  0  0  0  0  0  0  0  0  # atno 11005 bound_to 11000
  146.1276  139.4305  143.0189 LP  0  0  0  0  0  0  0  0  0  0  0  0  # atno 17320 bound_to 7965
  145.7211  141.0074  143.1402 LP  0  0  0  0  0  0  0  0  0  0  0  0  # atno 17321 bound_to 7965
  140.7455  143.6430  150.8318 LP  0  0  0  0  0  0  0  0  0  0  0  0  # atno 17342 bound_to 10162
  140.0058  143.5695  152.2858 LP  0  0  0  0  0  0  0  0  0  0  0  0  # atno 17343 bound_to 10162
  155.9805  130.4029  150.3525 LP  0  0  0  0  0  0  0  0  0  0  0  0  # atno 17370 bound_to 10713
  157.1644  131.0353  151.2825 LP  0  0  0  0  0  0  0  0  0  0  0  0  # atno 17371 bound_to 10713
  139.8704  134.9680  156.4616 LP  0  0  0  0  0  0  0  0  0  0  0  0  # atno 17394 bound_to 11000
  140.8797  133.7927  155.9453 LP  0  0  0  0  0  0  0  0  0  0  0  0  # atno 17395 bound_to 11000

$$$$
