AV-unprocessed.smi:97|AV-procd|sdf|862|dock8
  -GOLD-   2262017313D 1   1.00000     0.00000
 Structure written by MMmdl.
 46 49  0  0  0  0  0  0  0  0  1 V2000
  153.1932  136.9405  156.5644 O   0  0  0  0  0  0  0  0  0  0  0  0
  152.3020  137.4267  155.8695 C   0  0  0  0  0  0  0  0  0  0  0  0
  152.5118  138.8186  155.2465 C   0  0  0  0  0  0  0  0  0  0  0  0
  151.5706  139.8572  155.7273 N   0  0  0  0  0  0  0  0  0  0  0  0
  150.4703  140.2199  154.9110 C   0  0  0  0  0  0  0  0  0  0  0  0
  150.2851  139.6885  153.8156 O   0  0  0  0  0  0  0  0  0  0  0  0
  149.5868  141.2416  155.4622 C   0  0  0  0  0  0  0  0  0  0  0  0
  148.5306  141.6645  154.7472 F   0  0  0  0  0  0  0  0  0  0  0  0
  149.8119  141.7692  156.6830 C   0  0  0  0  0  0  0  0  0  0  0  0
  150.8736  141.3846  157.4803 N   0  0  0  0  0  0  0  0  0  0  0  0
  151.0839  141.9923  158.8482 C   0  0  1  0  0  0  0  0  0  0  0  0
  152.4137  142.7541  158.8927 C   0  0  0  0  0  0  0  0  0  0  0  0
  151.9684  144.1819  158.6600 C   0  0  0  0  0  0  0  0  0  0  0  0
  150.6107  144.1958  159.3512 C   0  0  0  0  0  0  0  0  0  0  0  0
  150.0570  142.9084  159.0989 O   0  0  0  0  0  0  0  0  0  0  0  0
  151.7924  140.4247  157.0056 C   0  0  0  0  0  0  0  0  0  0  0  0
  152.7598  140.0848  157.6902 O   0  0  0  0  0  0  0  0  0  0  0  0
  151.1292  136.8086  155.6510 N   0  0  0  0  0  0  0  0  0  0  0  0
  150.7032  135.5619  156.2746 C   0  0  0  0  0  0  0  0  0  0  0  0
  150.1772  134.5404  155.2762 C   0  0  0  0  0  0  0  0  0  0  0  0
  150.7959  133.2662  155.1439 C   0  0  0  0  0  0  0  0  0  0  0  0
  150.3079  132.3150  154.2202 C   0  0  0  0  0  0  0  0  0  0  0  0
  149.1913  132.6684  153.4461 C   0  0  0  0  0  0  0  0  0  0  0  0
  148.5827  133.8997  153.5742 C   0  0  0  0  0  0  0  0  0  0  0  0
  149.0489  134.8627  154.4841 C   0  0  0  0  0  0  0  0  0  0  0  0
  147.5339  133.9794  152.7160 O   0  0  0  0  0  0  0  0  0  0  0  0
  147.4994  132.7509  152.0365 C   0  0  0  0  0  0  0  0  0  0  0  0
  148.5438  131.9365  152.5041 O   0  0  0  0  0  0  0  0  0  0  0  0
  153.5409  139.1276  155.4375 H   0  0  0  0  0  0  0  0  0  0  0  0
  152.4703  138.7096  154.1621 H   0  0  0  0  0  0  0  0  0  0  0  0
  149.1279  142.5244  157.0407 H   0  0  0  0  0  0  0  0  0  0  0  0
  151.0206  141.1741  159.5672 H   0  0  0  0  0  0  0  0  0  0  0  0
  152.8431  142.6453  159.8894 H   0  0  0  0  0  0  0  0  0  0  0  0
  153.1297  142.3859  158.1570 H   0  0  0  0  0  0  0  0  0  0  0  0
  152.6619  144.9187  159.0663 H   0  0  0  0  0  0  0  0  0  0  0  0
  151.8526  144.3728  157.5925 H   0  0  0  0  0  0  0  0  0  0  0  0
  150.7331  144.3215  160.4279 H   0  0  0  0  0  0  0  0  0  0  0  0
  149.9596  144.9906  158.9868 H   0  0  0  0  0  0  0  0  0  0  0  0
  150.4558  137.2725  155.0592 H   0  0  0  0  0  0  0  0  0  0  0  0
  151.5622  135.1277  156.7862 H   0  0  0  0  0  0  0  0  0  0  0  0
  149.9540  135.7591  157.0434 H   0  0  0  0  0  0  0  0  0  0  0  0
  151.6510  133.0094  155.7517 H   0  0  0  0  0  0  0  0  0  0  0  0
  150.7765  131.3477  154.1150 H   0  0  0  0  0  0  0  0  0  0  0  0
  148.5587  135.8214  154.5698 H   0  0  0  0  0  0  0  0  0  0  0  0
  146.5431  132.2595  152.2184 H   0  0  0  0  0  0  0  0  0  0  0  0
  147.6208  132.9215  150.9661 H   0  0  0  0  0  0  0  0  0  0  0  0
  1  2  2  0  0  0  0
  2  3  1  0  0  0  0
  2 18  1  0  0  0  0
  3  4  1  0  0  0  0
  3 29  1  0  0  0  0
  3 30  1  0  0  0  0
  4 16  1  0  0  0  0
  4  5  1  0  0  0  0
  5  6  2  0  0  0  0
  5  7  1  0  0  0  0
  7  8  1  0  0  0  0
  7  9  2  0  0  0  0
  9 10  1  0  0  0  0
  9 31  1  0  0  0  0
 10 11  1  0  0  0  0
 10 16  1  0  0  0  0
 11 15  1  0  0  0  0
 11 12  1  0  0  0  0
 11 32  1  0  0  0  0
 12 13  1  0  0  0  0
 12 33  1  0  0  0  0
 12 34  1  0  0  0  0
 13 14  1  0  0  0  0
 13 35  1  0  0  0  0
 13 36  1  0  0  0  0
 14 15  1  0  0  0  0
 14 37  1  0  0  0  0
 14 38  1  0  0  0  0
 16 17  2  0  0  0  0
 18 19  1  0  0  0  0
 18 39  1  0  0  0  0
 19 20  1  0  0  0  0
 19 40  1  0  0  0  0
 19 41  1  0  0  0  0
 20 25  1  0  0  0  0
 20 21  2  0  0  0  0
 21 22  1  0  0  0  0
 21 42  1  0  0  0  0
 22 23  2  0  0  0  0
 22 43  1  0  0  0  0
 23 28  1  0  0  0  0
 23 24  1  0  0  0  0
 24 25  2  0  0  0  0
 24 26  1  0  0  0  0
 25 44  1  0  0  0  0
 26 27  1  0  0  0  0
 27 28  1  0  0  0  0
 27 45  1  0  0  0  0
 27 46  1  0  0  0  0
M  END
> <s_m_source_file>
AV-unprocessed.smi

> <i_m_source_file_index>
97

> <i_lp_mmshare_version>
43012

> <i_f3d_flags>
0

> <s_epik_input>
TzFbQ0gyXU9jKGMxMilbY0hdYyhbY0hdW2NIXTIpW0NIMl1bTkhdQyg9TylbQ0gyXW4zYyg9TyljKEYpW2NIXW4oYzM9TylbQ0BASF00W0NIMl1bQ0gyXVtDSDJdTzQ=

> <s_epik_cmdline>
J2VwaWtfcHl0aG9uJywgJy1waCcsICc3LjAnLCAnLXRuJywgJzgnLCAnLW1hJywgJzIwMCcsICctbWV0YWxfYmluZGluZycsICctaW1hZScsICc8aW5maWxlLm1hZT4nLCAnLW9tYWUnLCAnPG91dGZpbGUubWFlPic=

> <r_lp_tautomer_probability>
1

> <r_epik_Ionization_Penalty>
3.79042e-08

> <r_epik_Ionization_Penalty_Charging>
3.81036e-09

> <r_epik_Ionization_Penalty_Neutral>
3.40938e-08

> <r_epik_State_Penalty>
-0

> <r_epik_Charging_Adjusted_Penalty>
3.81036e-09

> <i_epik_Tot_Q>
0

> <i_epik_Tot_abs_Q>
0

> <r_epik_Metal_State_Penalty>
-0

> <b_epik_Metal_Only>
0

> <s_epik_Chemistry_Notes>
This compound contains an acetal/aminal-like group ( X-CH(R)-Y where X, Y are N, S, or O) that may be acid/base labile, releasing an aldehyde.

> <s_lp_Force_Field>
OPLS_2005

> <r_lp_Energy>
39.492

> <b_lp_Chiralities_Consistent>
1

> <s_lp_Variant>
AV-unprocessed.smi:97-2

> <Gold.Version>
5.8.1

> <Gold.Id.Protein>
6NUR|6NUR_protein|mol2

> <Gold.PLP.Fitness>
55.6341

> <Gold.PLP.PLP>
-48.1742

> <Gold.PLP.part.hbond>
-3.1233

> <Gold.PLP.part.metal>
0.0000

> <Gold.PLP.part.buried>
-2.0165

> <Gold.PLP.part.nonpolar>
-44.9708

> <Gold.PLP.part.repulsive>
2.8893

> <Gold.PLP.ligand.clash>
0.0000

> <Gold.PLP.ligand.torsion>
0.3121

> <Gold.PLP.Chemscore.Hbond>
1.8406

> <Gold.PLP.Chemscore.CHOScore>
0.8482

> <Gold.PLP.Chemscore.Metal>
0.0000

> <Gold.Chemscore.Hbonds>
donor molecule, donor type, donor heavy atom, donor atom, acceptor molecule, acceptor atom, score
      P1  H  7997  8009       L1    17  1.00
      P1  H 10752 10763       L1     1  0.69
      L1  C     9    31       P1  8028  0.64

> <Gold.PLP.Chemscore.Internal.Correction>
0.0177

> <Gold.Rescore>
     Score         DG    S(hbond)    S(metal)    S(lipo)     H(rot)  DE(clash)    DE(int)     intcor
     13.29     -14.24       1.52        0.00      88.02       2.58       0.46       0.49       ----

> <Gold.Chemscore.Fitness>
13.2913

> <Gold.Chemscore.DG>
-14.2363

> <Gold.Chemscore.ZeroCoef>
-5.4800

> <Gold.Chemscore.Hbond>
1.5160

> <Gold.Chemscore.Metal>
0.0000

> <Gold.Chemscore.Lipo>
88.0177

> <Gold.Chemscore.Internal_Hbond>
0.0000

> <Gold.Chemscore.DEClash>
0.4565

> <Gold.Chemscore.DEInternal>
0.4885

> <Gold.Chemscore.Rot>
2.5801

> <Gold.Chemscore.Internal.Correction>
   9.000000E+99

> <Gold.Chemscore.Hbonds>
donor molecule, donor type, donor heavy atom, donor atom, acceptor molecule, acceptor atom, score
      P1  H  7997  8009       L1    17  0.85
      P1  H 10752 10763       L1     1  0.13

> <Gold.Chemscore.Hbond.Weighted>
-5.0633

> <Gold.Chemscore.Metal.Weighted>
-0.0000

> <Gold.Chemscore.Lipo.Weighted>
-10.2981

> <Gold.Chemscore.Internal_Hbond.Weighted>
0.0000

> <Gold.Chemscore.DEClash.Weighted>
0.4565

> <Gold.Chemscore.DEInternal.Weighted>
0.4885

> <Gold.Chemscore.Rot.Weighted>
6.6050

> <Gold.Chemscore.Internal.Correction.Weighted>
   9.000000E+99

> <Gold.Protein.RotatedTorsions>
[ 6907 6896 6895 6894 ] final  167.25 input  -60.11 | X-H torsion
[ 7974 7965 7964 7962 ] final  -47.07 input  175.53 | X-H torsion
[ 8008 7997 7996 7995 ] final  174.21 input   59.86 | X-H torsion
[ 10167 10162 10161 10158 ] final   16.29 input  -65.29 | X-H torsion
[ 10718 10713 10712 10709 ] final   98.16 input   66.30 | X-H torsion
[ 10763 10752 10751 10750 ] final  126.39 input  -60.55 | X-H torsion
[ 11005 11000 10999 10996 ] final  167.86 input  -57.11 | X-H torsion

> <Gold.Protein.ActiveResidues>
 VAL166  LYS551  ARG553  GLY616  TRP617  ASP618  TYR619  PRO620  LYS621  CYS622 
 ASP623  PHE694  ASN695  SER759  ASP760  ASP761  ALA762  ILE779  LEU786  VAL792 
 PHE793  MET794  SER795  GLU796  ALA797  LYS798  CYS799  TRP800  GLU811  SER814 

> <Gold.Protein.RotatedAtoms>
  151.8662  133.3466  159.3719 H   0  0  0  0  0  0  0  0  0  0  0  0  # atno 6907 bound_to 6896
  150.7165  134.5158  159.5639 H   0  0  0  0  0  0  0  0  0  0  0  0  # atno 6908 bound_to 6896
  152.2681  134.7962  160.0470 H   0  0  0  0  0  0  0  0  0  0  0  0  # atno 6909 bound_to 6896
  145.9654  140.7437  142.9436 H   0  0  0  0  0  0  0  0  0  0  0  0  # atno 7974 bound_to 7965
  156.0997  140.1440  156.9483 H   0  0  0  0  0  0  0  0  0  0  0  0  # atno 8008 bound_to 7997
  154.4695  140.0915  156.7152 H   0  0  0  0  0  0  0  0  0  0  0  0  # atno 8009 bound_to 7997
  155.4780  140.3444  155.4337 H   0  0  0  0  0  0  0  0  0  0  0  0  # atno 8010 bound_to 7997
  140.5808  143.8985  150.6788 H   0  0  0  0  0  0  0  0  0  0  0  0  # atno 10167 bound_to 10162
  157.6900  131.0631  150.4753 H   0  0  0  0  0  0  0  0  0  0  0  0  # atno 10718 bound_to 10713
  153.6926  135.3296  155.3206 H   0  0  0  0  0  0  0  0  0  0  0  0  # atno 10763 bound_to 10752
  154.8435  135.4435  154.1492 H   0  0  0  0  0  0  0  0  0  0  0  0  # atno 10764 bound_to 10752
  153.2538  135.6984  153.7728 H   0  0  0  0  0  0  0  0  0  0  0  0  # atno 10765 bound_to 10752
  140.2812  134.7749  157.3759 H   0  0  0  0  0  0  0  0  0  0  0  0  # atno 11005 bound_to 11000
  144.6824  140.2660  143.7312 LP  0  0  0  0  0  0  0  0  0  0  0  0  # atno 17320 bound_to 7965
  145.7981  139.1953  143.2064 LP  0  0  0  0  0  0  0  0  0  0  0  0  # atno 17321 bound_to 7965
  140.2483  143.3612  152.1427 LP  0  0  0  0  0  0  0  0  0  0  0  0  # atno 17342 bound_to 10162
  139.5169  144.6983  151.5566 LP  0  0  0  0  0  0  0  0  0  0  0  0  # atno 17343 bound_to 10162
  156.5088  130.4134  149.6312 LP  0  0  0  0  0  0  0  0  0  0  0  0  # atno 17370 bound_to 10713
  156.3259  130.7306  151.2226 LP  0  0  0  0  0  0  0  0  0  0  0  0  # atno 17371 bound_to 10713
  140.1282  134.5130  155.8127 LP  0  0  0  0  0  0  0  0  0  0  0  0  # atno 17394 bound_to 11000
  141.2162  133.6780  156.6990 LP  0  0  0  0  0  0  0  0  0  0  0  0  # atno 17395 bound_to 11000

$$$$
