AV-unprocessed.smi:111|AV-procd|sdf|1081|dock9
  -GOLD-   2262018173D 1   1.00000     0.00000
 Structure written by MMmdl.
 46 48  0  0  0  0  0  0  0  0  1 V2000
  148.8817  135.6267  157.0708 O   0  0  0  0  0  0  0  0  0  0  0  0
  148.5968  135.3823  158.2443 C   0  0  0  0  0  0  0  0  0  0  0  0
  148.3997  134.0285  158.7512 C   0  0  0  0  0  0  0  0  0  0  0  0
  148.5599  132.9803  157.9256 F   0  0  0  0  0  0  0  0  0  0  0  0
  148.0524  133.8076  160.0372 C   0  0  0  0  0  0  0  0  0  0  0  0
  147.8648  134.8278  160.9548 N   0  0  0  0  0  0  0  0  0  0  0  0
  147.4632  134.5424  162.3859 C   0  0  2  0  0  0  0  0  0  0  0  0
  147.2517  133.0388  162.5882 C   0  0  0  0  0  0  0  0  0  0  0  0
  145.7748  132.8943  162.2935 C   0  0  0  0  0  0  0  0  0  0  0  0
  145.2194  134.2003  162.8521 C   0  0  0  0  0  0  0  0  0  0  0  0
  146.2444  135.1729  162.6566 O   0  0  0  0  0  0  0  0  0  0  0  0
  148.0609  136.1684  160.5597 C   0  0  0  0  0  0  0  0  0  0  0  0
  147.9241  137.0906  161.3671 O   0  0  0  0  0  0  0  0  0  0  0  0
  148.4159  136.4048  159.2102 N   0  0  0  0  0  0  0  0  0  0  0  0
  148.5459  137.7930  158.7889 C   0  0  0  0  0  0  0  0  0  0  0  0
  150.0097  138.2701  158.6483 C   0  0  1  0  0  0  0  0  0  0  0  0
  150.4954  137.8411  157.3931 O   0  0  0  0  0  0  0  0  0  0  0  0
  150.1946  139.7996  158.7622 C   0  0  0  0  0  0  0  0  0  0  0  0
  151.6648  140.2564  158.7358 C   0  0  0  0  0  0  0  0  0  0  0  0
  151.8218  141.7493  158.9763 C   0  0  0  0  0  0  0  0  0  0  0  0
  152.5690  142.2136  160.0800 C   0  0  0  0  0  0  0  0  0  0  0  0
  152.7421  143.5955  160.2881 C   0  0  0  0  0  0  0  0  0  0  0  0
  152.1642  144.5196  159.3967 C   0  0  0  0  0  0  0  0  0  0  0  0
  151.4133  144.0611  158.2971 C   0  0  0  0  0  0  0  0  0  0  0  0
  151.2425  142.6789  158.0867 C   0  0  0  0  0  0  0  0  0  0  0  0
  147.9230  132.7822  160.3491 H   0  0  0  0  0  0  0  0  0  0  0  0
  148.2485  134.9715  163.0106 H   0  0  0  0  0  0  0  0  0  0  0  0
  147.8963  132.4353  161.9480 H   0  0  0  0  0  0  0  0  0  0  0  0
  147.4599  132.7952  163.6305 H   0  0  0  0  0  0  0  0  0  0  0  0
  145.6089  132.8400  161.2170 H   0  0  0  0  0  0  0  0  0  0  0  0
  145.3300  132.0110  162.7523 H   0  0  0  0  0  0  0  0  0  0  0  0
  144.2883  134.4990  162.3703 H   0  0  0  0  0  0  0  0  0  0  0  0
  145.0324  134.1044  163.9222 H   0  0  0  0  0  0  0  0  0  0  0  0
  148.0135  137.8699  157.8385 H   0  0  0  0  0  0  0  0  0  0  0  0
  147.9839  138.4282  159.4740 H   0  0  0  0  0  0  0  0  0  0  0  0
  150.6117  137.7693  159.4052 H   0  0  0  0  0  0  0  0  0  0  0  0
  151.2095  138.4053  157.1387 H   0  0  0  0  0  0  0  0  0  0  0  0
  149.6368  140.2972  157.9682 H   0  0  0  0  0  0  0  0  0  0  0  0
  149.7599  140.1590  159.6933 H   0  0  0  0  0  0  0  0  0  0  0  0
  152.2427  139.6985  159.4735 H   0  0  0  0  0  0  0  0  0  0  0  0
  152.1024  140.0195  157.7654 H   0  0  0  0  0  0  0  0  0  0  0  0
  153.0186  141.5104  160.7655 H   0  0  0  0  0  0  0  0  0  0  0  0
  153.3194  143.9464  161.1306 H   0  0  0  0  0  0  0  0  0  0  0  0
  152.2966  145.5796  159.5557 H   0  0  0  0  0  0  0  0  0  0  0  0
  150.9711  144.7700  157.6126 H   0  0  0  0  0  0  0  0  0  0  0  0
  150.6733  142.3355  157.2353 H   0  0  0  0  0  0  0  0  0  0  0  0
  1  2  2  0  0  0  0
  2 14  1  0  0  0  0
  2  3  1  0  0  0  0
  3  4  1  0  0  0  0
  3  5  2  0  0  0  0
  5  6  1  0  0  0  0
  5 26  1  0  0  0  0
  6  7  1  0  0  0  0
  6 12  1  0  0  0  0
  7 11  1  0  0  0  0
  7  8  1  0  0  0  0
  7 27  1  0  0  0  0
  8  9  1  0  0  0  0
  8 28  1  0  0  0  0
  8 29  1  0  0  0  0
  9 10  1  0  0  0  0
  9 30  1  0  0  0  0
  9 31  1  0  0  0  0
 10 11  1  0  0  0  0
 10 32  1  0  0  0  0
 10 33  1  0  0  0  0
 12 13  2  0  0  0  0
 12 14  1  0  0  0  0
 14 15  1  0  0  0  0
 15 16  1  0  0  0  0
 15 34  1  0  0  0  0
 15 35  1  0  0  0  0
 16 17  1  0  0  0  0
 16 18  1  0  0  0  0
 16 36  1  0  0  0  0
 17 37  1  0  0  0  0
 18 19  1  0  0  0  0
 18 38  1  0  0  0  0
 18 39  1  0  0  0  0
 19 20  1  0  0  0  0
 19 40  1  0  0  0  0
 19 41  1  0  0  0  0
 20 25  1  0  0  0  0
 20 21  2  0  0  0  0
 21 22  1  0  0  0  0
 21 42  1  0  0  0  0
 22 23  2  0  0  0  0
 22 43  1  0  0  0  0
 23 24  1  0  0  0  0
 23 44  1  0  0  0  0
 24 25  2  0  0  0  0
 24 45  1  0  0  0  0
 25 46  1  0  0  0  0
M  END
> <s_m_source_file>
AV-unprocessed.smi

> <i_m_source_file_index>
111

> <i_lp_mmshare_version>
43012

> <i_f3d_flags>
0

> <s_epik_input>
TzFbQ0gyXVtDSDJdW0NIMl1bQ0BIXTFuKFtjSF1jKEYpYzI9TyljKD1PKW4yW0NIMl1bQ0BIXShbT0hdKVtDSDJdW0NIMl1jM1tjSF1bY0hdW2NIXVtjSF1bY0hdMw==

> <s_epik_cmdline>
J2VwaWtfcHl0aG9uJywgJy1waCcsICc3LjAnLCAnLXRuJywgJzgnLCAnLW1hJywgJzIwMCcsICctbWV0YWxfYmluZGluZycsICctaW1hZScsICc8aW5maWxlLm1hZT4nLCAnLW9tYWUnLCAnPG91dGZpbGUubWFlPic=

> <r_lp_tautomer_probability>
1

> <r_epik_Ionization_Penalty>
1.88248e-07

> <r_epik_Ionization_Penalty_Charging>
4.03974e-08

> <r_epik_Ionization_Penalty_Neutral>
1.47851e-07

> <r_epik_State_Penalty>
-0

> <r_epik_Charging_Adjusted_Penalty>
4.03974e-08

> <i_epik_Tot_Q>
0

> <i_epik_Tot_abs_Q>
0

> <r_epik_Metal_State_Penalty>
-0

> <b_epik_Metal_Only>
0

> <s_epik_Chemistry_Notes>
This compound contains an acetal/aminal-like group ( X-CH(R)-Y where X, Y are N, S, or O) that may be acid/base labile, releasing an aldehyde.

> <s_lp_Force_Field>
OPLS_2005

> <r_lp_Energy>
35.2037

> <b_lp_Chiralities_Consistent>
1

> <s_lp_Variant>
AV-unprocessed.smi:111-3

> <Gold.Version>
5.8.1

> <Gold.Id.Protein>
6NUR|6NUR_protein|mol2

> <Gold.PLP.Fitness>
51.6827

> <Gold.PLP.PLP>
-47.4108

> <Gold.PLP.part.hbond>
-2.0000

> <Gold.PLP.part.metal>
0.0000

> <Gold.PLP.part.buried>
-5.4274

> <Gold.PLP.part.nonpolar>
-40.5174

> <Gold.PLP.part.repulsive>
0.0000

> <Gold.PLP.ligand.clash>
0.0000

> <Gold.PLP.ligand.torsion>
0.4922

> <Gold.PLP.Chemscore.Hbond>
1.7280

> <Gold.PLP.Chemscore.CHOScore>
0.0000

> <Gold.PLP.Chemscore.Metal>
0.0000

> <Gold.Chemscore.Hbonds>
donor molecule, donor type, donor heavy atom, donor atom, acceptor molecule, acceptor atom, score
      P1  H  6931  6943       L1    13  1.00
      P1  H  6934  6947       L1    13  0.58

> <Gold.PLP.Chemscore.Internal.Correction>
0.0722

> <Gold.Rescore>
     Score         DG    S(hbond)    S(metal)    S(lipo)     H(rot)  DE(clash)    DE(int)     intcor
     16.02     -17.03       1.63        0.00     110.72       2.67       0.13       0.88       ----

> <Gold.Chemscore.Fitness>
16.0218

> <Gold.Chemscore.DG>
-17.0335

> <Gold.Chemscore.ZeroCoef>
-5.4800

> <Gold.Chemscore.Hbond>
1.6303

> <Gold.Chemscore.Metal>
0.0000

> <Gold.Chemscore.Lipo>
110.7216

> <Gold.Chemscore.Internal_Hbond>
0.0000

> <Gold.Chemscore.DEClash>
0.1276

> <Gold.Chemscore.DEInternal>
0.8841

> <Gold.Chemscore.Rot>
2.6743

> <Gold.Chemscore.Internal.Correction>
   9.000000E+99

> <Gold.Chemscore.Hbonds>
donor molecule, donor type, donor heavy atom, donor atom, acceptor molecule, acceptor atom, score
      P1  H  6931  6943       L1    13  0.98
      P1  H  6934  6947       L1    13  0.56

> <Gold.Chemscore.Hbond.Weighted>
-5.4453

> <Gold.Chemscore.Metal.Weighted>
-0.0000

> <Gold.Chemscore.Lipo.Weighted>
-12.9544

> <Gold.Chemscore.Internal_Hbond.Weighted>
0.0000

> <Gold.Chemscore.DEClash.Weighted>
0.1276

> <Gold.Chemscore.DEInternal.Weighted>
0.8841

> <Gold.Chemscore.Rot.Weighted>
6.8463

> <Gold.Chemscore.Internal.Correction.Weighted>
   9.000000E+99

> <Gold.Protein.RotatedTorsions>
[ 6907 6896 6895 6894 ] final  114.04 input  -60.11 | X-H torsion
[ 7974 7965 7964 7962 ] final  157.33 input  175.53 | X-H torsion
[ 8008 7997 7996 7995 ] final  174.90 input   59.86 | X-H torsion
[ 10167 10162 10161 10158 ] final  125.42 input  -65.29 | X-H torsion
[ 10718 10713 10712 10709 ] final   32.27 input   66.30 | X-H torsion
[ 10763 10752 10751 10750 ] final   88.90 input  -60.55 | X-H torsion
[ 11005 11000 10999 10996 ] final   91.96 input  -57.11 | X-H torsion

> <Gold.Protein.ActiveResidues>
 VAL166  LYS551  ARG553  GLY616  TRP617  ASP618  TYR619  PRO620  LYS621  CYS622 
 ASP623  PHE694  ASN695  SER759  ASP760  ASP761  ALA762  ILE779  LEU786  VAL792 
 PHE793  MET794  SER795  GLU796  ALA797  LYS798  CYS799  TRP800  GLU811  SER814 

> <Gold.Protein.RotatedAtoms>
  152.4826  133.8291  159.7093 H   0  0  0  0  0  0  0  0  0  0  0  0  # atno 6907 bound_to 6896
  150.8887  133.7264  159.2917 H   0  0  0  0  0  0  0  0  0  0  0  0  # atno 6908 bound_to 6896
  151.4744  135.1052  159.9812 H   0  0  0  0  0  0  0  0  0  0  0  0  # atno 6909 bound_to 6896
  144.7909  139.7326  143.6221 H   0  0  0  0  0  0  0  0  0  0  0  0  # atno 7974 bound_to 7965
  156.0926  140.1422  156.9572 H   0  0  0  0  0  0  0  0  0  0  0  0  # atno 8008 bound_to 7997
  154.4651  140.0929  156.7046 H   0  0  0  0  0  0  0  0  0  0  0  0  # atno 8009 bound_to 7997
  155.4894  140.3447  155.4354 H   0  0  0  0  0  0  0  0  0  0  0  0  # atno 8010 bound_to 7997
  139.5687  144.6926  151.3839 H   0  0  0  0  0  0  0  0  0  0  0  0  # atno 10167 bound_to 10162
  157.2831  130.7265  149.6568 H   0  0  0  0  0  0  0  0  0  0  0  0  # atno 10718 bound_to 10713
  153.1816  135.4490  155.0035 H   0  0  0  0  0  0  0  0  0  0  0  0  # atno 10763 bound_to 10752
  154.8033  135.3264  154.7497 H   0  0  0  0  0  0  0  0  0  0  0  0  # atno 10764 bound_to 10752
  153.7961  135.6966  153.4918 H   0  0  0  0  0  0  0  0  0  0  0  0  # atno 10765 bound_to 10752
  139.8830  134.8705  156.3504 H   0  0  0  0  0  0  0  0  0  0  0  0  # atno 11005 bound_to 11000
  146.2161  139.5551  142.9649 LP  0  0  0  0  0  0  0  0  0  0  0  0  # atno 17320 bound_to 7965
  145.5796  141.0384  143.2129 LP  0  0  0  0  0  0  0  0  0  0  0  0  # atno 17321 bound_to 7965
  140.6971  143.7723  150.7343 LP  0  0  0  0  0  0  0  0  0  0  0  0  # atno 17342 bound_to 10162
  140.1222  143.4601  152.2306 LP  0  0  0  0  0  0  0  0  0  0  0  0  # atno 17343 bound_to 10162
  155.9665  130.4332  150.4995 LP  0  0  0  0  0  0  0  0  0  0  0  0  # atno 17370 bound_to 10713
  157.2943  131.0632  151.2112 LP  0  0  0  0  0  0  0  0  0  0  0  0  # atno 17371 bound_to 10713
  140.9598  133.7396  156.0385 LP  0  0  0  0  0  0  0  0  0  0  0  0  # atno 17394 bound_to 11000
  140.8003  134.3516  157.5441 LP  0  0  0  0  0  0  0  0  0  0  0  0  # atno 17395 bound_to 11000

$$$$
