AV-unprocessed.smi:1072|AV-procd|sdf|4685|dock10
  -GOLD-   22720 3203D 1   1.00000     0.00000
 Structure written by MMmdl.
 46 47  0  0  0  0  0  0  0  0  1 V2000
  154.0061  137.3463  158.7590 C   0  0  0  0  0  0  0  0  0  0  0  0
  153.1680  137.6198  157.5288 C   0  0  0  0  0  0  0  0  0  0  0  0
  152.3299  136.5727  157.1821 N   0  0  0  0  0  0  0  0  0  0  0  0
  151.5263  136.7288  156.0664 C   0  0  0  0  0  0  0  0  0  0  0  0
  150.6416  135.5344  155.7532 C   0  0  0  0  0  0  0  0  0  0  0  0
  151.5515  137.8730  155.3368 C   0  0  0  0  0  0  0  0  0  0  0  0
  150.6759  138.0844  154.1021 C   0  0  0  0  0  0  0  0  0  0  0  0
  149.3193  138.7475  154.3529 C   0  0  0  0  0  0  0  0  0  0  0  0
  148.9689  139.0218  155.5003 O   0  0  0  0  0  0  0  0  0  0  0  0
  148.5732  138.9901  153.2608 N   0  0  0  0  0  0  0  0  0  0  0  0
  147.2356  139.5956  153.1799 C   0  0  1  0  0  0  0  0  0  0  0  0
  147.2800  141.0383  153.7289 C   0  0  0  0  0  0  0  0  0  0  0  0
  146.6895  139.5871  151.7273 C   0  0  0  0  0  0  0  0  0  0  0  0
  146.4784  138.1655  151.1765 C   0  0  0  0  0  0  0  0  0  0  0  0
  145.5360  137.3472  152.0773 C   0  0  1  0  0  0  0  0  0  0  0  0
  145.3310  135.9266  151.5332 C   0  0  0  0  0  0  0  0  0  0  0  0
  146.0603  137.3293  153.5247 C   0  0  0  0  0  0  0  0  0  0  0  0
  146.2850  138.7542  154.0657 C   0  0  0  0  0  0  0  0  0  0  0  0
  152.4608  138.9629  155.7637 C   0  0  0  0  0  0  0  0  0  0  0  0
  152.5173  140.0301  155.1546 O   0  0  0  0  0  0  0  0  0  0  0  0
  153.2626  138.7503  156.8971 N   0  0  0  0  0  0  0  0  0  0  0  0
  152.2772  135.7065  157.6987 H   0  0  0  0  0  0  0  0  0  0  0  0
  154.7656  138.1178  158.8920 H   0  0  0  0  0  0  0  0  0  0  0  0
  154.5117  136.3839  158.6727 H   0  0  0  0  0  0  0  0  0  0  0  0
  153.3764  137.3297  159.6488 H   0  0  0  0  0  0  0  0  0  0  0  0
  150.8816  135.1297  154.7699 H   0  0  0  0  0  0  0  0  0  0  0  0
  149.5908  135.8251  155.7609 H   0  0  0  0  0  0  0  0  0  0  0  0
  150.7722  134.7353  156.4840 H   0  0  0  0  0  0  0  0  0  0  0  0
  150.5071  137.1131  153.6357 H   0  0  0  0  0  0  0  0  0  0  0  0
  151.2052  138.6655  153.3465 H   0  0  0  0  0  0  0  0  0  0  0  0
  148.9773  138.7226  152.3750 H   0  0  0  0  0  0  0  0  0  0  0  0
  146.2825  141.4776  153.7639 H   0  0  0  0  0  0  0  0  0  0  0  0
  147.8931  141.6943  153.1109 H   0  0  0  0  0  0  0  0  0  0  0  0
  147.6846  141.0655  154.7413 H   0  0  0  0  0  0  0  0  0  0  0  0
  145.7341  140.1132  151.7015 H   0  0  0  0  0  0  0  0  0  0  0  0
  147.3436  140.1449  151.0575 H   0  0  0  0  0  0  0  0  0  0  0  0
  146.0665  138.2255  150.1686 H   0  0  0  0  0  0  0  0  0  0  0  0
  147.4394  137.6580  151.0827 H   0  0  0  0  0  0  0  0  0  0  0  0
  144.5627  137.8403  152.0801 H   0  0  0  0  0  0  0  0  0  0  0  0
  146.2715  135.3762  151.4961 H   0  0  0  0  0  0  0  0  0  0  0  0
  144.9183  135.9489  150.5242 H   0  0  0  0  0  0  0  0  0  0  0  0
  144.6389  135.3629  152.1591 H   0  0  0  0  0  0  0  0  0  0  0  0
  145.3519  136.8063  154.1679 H   0  0  0  0  0  0  0  0  0  0  0  0
  146.9909  136.7626  153.5748 H   0  0  0  0  0  0  0  0  0  0  0  0
  146.6697  138.6998  155.0853 H   0  0  0  0  0  0  0  0  0  0  0  0
  145.3176  139.2536  154.1385 H   0  0  0  0  0  0  0  0  0  0  0  0
  1 23  1  0  0  0  0
  1 24  1  0  0  0  0
  1 25  1  0  0  0  0
  1  2  1  0  0  0  0
  2  3  1  0  0  0  0
  2 21  2  0  0  0  0
  3  4  1  0  0  0  0
  3 22  1  0  0  0  0
  4  6  2  0  0  0  0
  4  5  1  0  0  0  0
  5 26  1  0  0  0  0
  5 27  1  0  0  0  0
  5 28  1  0  0  0  0
  6 19  1  0  0  0  0
  6  7  1  0  0  0  0
  7  8  1  0  0  0  0
  7 29  1  0  0  0  0
  7 30  1  0  0  0  0
  8  9  2  0  0  0  0
  8 10  1  0  0  0  0
 10 11  1  0  0  0  0
 10 31  1  0  0  0  0
 11 18  1  0  0  0  0
 11 12  1  0  0  0  0
 11 13  1  0  0  0  0
 12 32  1  0  0  0  0
 12 33  1  0  0  0  0
 12 34  1  0  0  0  0
 13 14  1  0  0  0  0
 13 35  1  0  0  0  0
 13 36  1  0  0  0  0
 14 15  1  0  0  0  0
 14 37  1  0  0  0  0
 14 38  1  0  0  0  0
 15 16  1  0  0  0  0
 15 17  1  0  0  0  0
 15 39  1  0  0  0  0
 16 40  1  0  0  0  0
 16 41  1  0  0  0  0
 16 42  1  0  0  0  0
 17 18  1  0  0  0  0
 17 43  1  0  0  0  0
 17 44  1  0  0  0  0
 18 45  1  0  0  0  0
 18 46  1  0  0  0  0
 19 20  2  0  0  0  0
 19 21  1  0  0  0  0
M  END
> <s_m_source_file>
AV-unprocessed.smi

> <i_m_source_file_index>
1072

> <i_lp_mmshare_version>
43012

> <i_f3d_flags>
0

> <s_epik_input>
W0NIM11jMW5jKFtDSDNdKWMoYyg9TylbbkhdMSlbQ0gyXUMoPU8pW05IXVtDQEBdMihbQ0gzXSlbQ0gyXVtDSDJdW0NAQEhdKFtDSDNdKVtDSDJdW0NIMl0y

> <s_epik_cmdline>
J2VwaWtfcHl0aG9uJywgJy1waCcsICc3LjAnLCAnLXRuJywgJzgnLCAnLW1hJywgJzIwMCcsICctbWV0YWxfYmluZGluZycsICctaW1hZScsICc8aW5maWxlLm1hZT4nLCAnLW9tYWUnLCAnPG91dGZpbGUubWFlPic=

> <r_lp_tautomer_probability>
0.156392

> <r_epik_Ionization_Penalty>
0.0131066

> <r_epik_Ionization_Penalty_Charging>
0.0129643

> <r_epik_Ionization_Penalty_Neutral>
0.000142248

> <r_epik_State_Penalty>
1.15342

> <r_epik_Charging_Adjusted_Penalty>
1.16638

> <i_epik_Tot_Q>
0

> <i_epik_Tot_abs_Q>
0

> <r_epik_Metal_State_Penalty>
1.30766

> <b_epik_Metal_Only>
0

> <s_lp_Force_Field>
OPLS_2005

> <r_lp_Energy>
14.6826

> <b_lp_Chiralities_Consistent>
1

> <s_lp_Variant>
AV-unprocessed.smi:1072-3

> <Gold.Version>
5.8.1

> <Gold.Id.Protein>
6NUR|6NUR_protein|mol2

> <Gold.PLP.Fitness>
37.1124

> <Gold.PLP.PLP>
-31.8283

> <Gold.PLP.part.hbond>
-4.6628

> <Gold.PLP.part.metal>
0.0000

> <Gold.PLP.part.buried>
4.4144

> <Gold.PLP.part.nonpolar>
-31.9795

> <Gold.PLP.part.repulsive>
0.2859

> <Gold.PLP.ligand.clash>
0.0000

> <Gold.PLP.ligand.torsion>
0.3967

> <Gold.PLP.Chemscore.Hbond>
2.0240

> <Gold.PLP.Chemscore.CHOScore>
0.0000

> <Gold.PLP.Chemscore.Metal>
0.0000

> <Gold.Chemscore.Hbonds>
donor molecule, donor type, donor heavy atom, donor atom, acceptor molecule, acceptor atom, score
      L1  H    10    31       P1  7957  0.45
      P1  H  7989  7998       L1    20  0.58
      P1  H  7997  8010       L1    21  0.95

> <Gold.PLP.Chemscore.Internal.Correction>
0.0054

> <Gold.Rescore>
     Score         DG    S(hbond)    S(metal)    S(lipo)     H(rot)  DE(clash)    DE(int)     intcor
     15.50     -17.72       2.20        0.00      74.06       1.47       1.09       1.13       ----

> <Gold.Chemscore.Fitness>
15.5005

> <Gold.Chemscore.DG>
-17.7212

> <Gold.Chemscore.ZeroCoef>
-5.4800

> <Gold.Chemscore.Hbond>
2.1967

> <Gold.Chemscore.Metal>
0.0000

> <Gold.Chemscore.Lipo>
74.0598

> <Gold.Chemscore.Internal_Hbond>
0.0000

> <Gold.Chemscore.DEClash>
1.0886

> <Gold.Chemscore.DEInternal>
1.1322

> <Gold.Chemscore.Rot>
1.4690

> <Gold.Chemscore.Internal.Correction>
   9.000000E+99

> <Gold.Chemscore.Hbonds>
donor molecule, donor type, donor heavy atom, donor atom, acceptor molecule, acceptor atom, score
      L1  H    10    31       P1  7957  0.39
      P1  H  7989  7998       L1    20  0.54
      P1  H  7997  8010       L1    21  0.21

> <Gold.Chemscore.Hbond.Weighted>
-7.3369

> <Gold.Chemscore.Metal.Weighted>
-0.0000

> <Gold.Chemscore.Lipo.Weighted>
-8.6650

> <Gold.Chemscore.Internal_Hbond.Weighted>
0.0000

> <Gold.Chemscore.DEClash.Weighted>
1.0886

> <Gold.Chemscore.DEInternal.Weighted>
1.1322

> <Gold.Chemscore.Rot.Weighted>
3.7607

> <Gold.Chemscore.Internal.Correction.Weighted>
   9.000000E+99

> <Gold.Protein.RotatedTorsions>
[ 6907 6896 6895 6894 ] final   76.65 input  -60.11 | X-H torsion
[ 7974 7965 7964 7962 ] final   -4.96 input  175.53 | X-H torsion
[ 8008 7997 7996 7995 ] final   57.90 input   59.86 | X-H torsion
[ 10167 10162 10161 10158 ] final -143.59 input  -65.29 | X-H torsion
[ 10718 10713 10712 10709 ] final  -19.46 input   66.30 | X-H torsion
[ 10763 10752 10751 10750 ] final -142.15 input  -60.55 | X-H torsion
[ 11005 11000 10999 10996 ] final  154.56 input  -57.11 | X-H torsion

> <Gold.Protein.ActiveResidues>
 VAL166  LYS551  ARG553  GLY616  TRP617  ASP618  TYR619  PRO620  LYS621  CYS622 
 ASP623  PHE694  ASN695  SER759  ASP760  ASP761  ALA762  ILE779  LEU786  VAL792 
 PHE793  MET794  SER795  GLU796  ALA797  LYS798  CYS799  TRP800  GLU811  SER814 

> <Gold.Protein.RotatedAtoms>
  152.5083  134.3936  159.9392 H   0  0  0  0  0  0  0  0  0  0  0  0  # atno 6907 bound_to 6896
  151.3897  133.3787  159.2727 H   0  0  0  0  0  0  0  0  0  0  0  0  # atno 6908 bound_to 6896
  150.9442  134.8869  159.7690 H   0  0  0  0  0  0  0  0  0  0  0  0  # atno 6909 bound_to 6896
  146.2362  140.1949  142.8333 H   0  0  0  0  0  0  0  0  0  0  0  0  # atno 7974 bound_to 7965
  155.5413  140.3484  155.4447 H   0  0  0  0  0  0  0  0  0  0  0  0  # atno 8008 bound_to 7997
  156.0649  140.1349  156.9923 H   0  0  0  0  0  0  0  0  0  0  0  0  # atno 8009 bound_to 7997
  154.4498  140.0977  156.6557 H   0  0  0  0  0  0  0  0  0  0  0  0  # atno 8010 bound_to 7997
  139.7978  143.7875  152.2656 H   0  0  0  0  0  0  0  0  0  0  0  0  # atno 10167 bound_to 10162
  156.5454  130.4688  149.6478 H   0  0  0  0  0  0  0  0  0  0  0  0  # atno 10718 bound_to 10713
  154.8519  135.3504  154.5982 H   0  0  0  0  0  0  0  0  0  0  0  0  # atno 10763 bound_to 10752
  153.6591  135.6990  153.5188 H   0  0  0  0  0  0  0  0  0  0  0  0  # atno 10764 bound_to 10752
  153.2832  135.4257  155.1056 H   0  0  0  0  0  0  0  0  0  0  0  0  # atno 10765 bound_to 10752
  140.1501  134.8681  157.2443 H   0  0  0  0  0  0  0  0  0  0  0  0  # atno 11005 bound_to 11000
  144.9828  140.8475  143.5387 LP  0  0  0  0  0  0  0  0  0  0  0  0  # atno 17320 bound_to 7965
  145.1945  139.2284  143.5225 LP  0  0  0  0  0  0  0  0  0  0  0  0  # atno 17321 bound_to 7965
  139.7986  144.7383  150.9856 LP  0  0  0  0  0  0  0  0  0  0  0  0  # atno 17342 bound_to 10162
  140.7820  143.4368  151.0611 LP  0  0  0  0  0  0  0  0  0  0  0  0  # atno 17343 bound_to 10162
  156.2933  130.7136  151.1990 LP  0  0  0  0  0  0  0  0  0  0  0  0  # atno 17370 bound_to 10713
  157.7397  131.0525  150.5211 LP  0  0  0  0  0  0  0  0  0  0  0  0  # atno 17371 bound_to 10713
  140.2615  134.3565  155.7405 LP  0  0  0  0  0  0  0  0  0  0  0  0  # atno 17394 bound_to 11000
  141.2198  133.7372  156.9088 LP  0  0  0  0  0  0  0  0  0  0  0  0  # atno 17395 bound_to 11000

$$$$
