AV-unprocessed.smi:2477|AV-procd|sdf|9761|dock1
  -GOLD-   2272013403D 1   1.00000     0.00000
 Structure written by MMmdl.
 51 53  0  0  0  0  0  0  0  0  1 V2000
  146.2133  130.4729  151.7595 C   0  0  0  0  0  0  0  0  0  0  0  0
  145.5950  131.7656  151.4535 N   0  0  0  0  0  0  0  0  0  0  0  0
  144.3438  131.7525  150.8149 C   0  0  0  0  0  0  0  0  0  0  0  0
  143.7055  132.8870  150.4966 C   0  0  0  0  0  0  0  0  0  0  0  0
  144.3336  134.1442  150.8252 C   0  0  0  0  0  0  0  0  0  0  0  0
  145.5425  134.1807  151.4415 C   0  0  0  0  0  0  0  0  0  0  0  0
  146.2329  135.3526  151.8007 N   0  0  0  0  0  0  0  0  0  0  0  0
  145.7946  136.4598  152.4275 C   0  0  0  0  0  0  0  0  0  0  0  0
  144.6472  136.6668  152.8206 O   0  0  0  0  0  0  0  0  0  0  0  0
  146.7942  137.3372  152.5909 N   0  0  0  0  0  0  0  0  0  0  0  0
  146.6841  138.6304  153.2604 C   0  0  2  0  0  0  0  0  0  0  0  0
  147.0182  139.7621  152.2699 C   0  0  0  0  0  0  0  0  0  0  0  0
  146.9279  141.1403  152.9432 C   0  0  0  0  0  0  0  0  0  0  0  0
  147.8334  141.2140  154.1819 C   0  0  0  0  0  0  0  0  0  0  0  0
  147.5118  140.0864  155.1769 C   0  0  0  0  0  0  0  0  0  0  0  0
  147.5843  138.6963  154.5180 C   0  0  2  0  0  0  0  0  0  0  0  0
  148.9404  138.4546  154.1531 O   0  0  0  0  0  0  0  0  0  0  0  0
  149.7814  137.9990  155.2065 C   0  0  0  0  0  0  0  0  0  0  0  0
  150.3614  139.1821  155.9882 C   0  0  0  0  0  0  0  0  0  0  0  0
  151.5072  139.7078  155.1175 C   0  0  0  0  0  0  0  0  0  0  0  0
  151.9525  138.5294  154.2374 C   0  0  0  0  0  0  0  0  0  0  0  0
  151.0184  137.3608  154.5755 C   0  0  0  0  0  0  0  0  0  0  0  0
  146.2373  132.9245  151.7869 C   0  0  0  0  0  0  0  0  0  0  0  0
  147.3371  132.9048  152.3456 O   0  0  0  0  0  0  0  0  0  0  0  0
  145.5875  129.6273  151.4721 H   0  0  0  0  0  0  0  0  0  0  0  0
  146.4072  130.3831  152.8294 H   0  0  0  0  0  0  0  0  0  0  0  0
  147.1624  130.3693  151.2317 H   0  0  0  0  0  0  0  0  0  0  0  0
  143.9397  130.7735  150.6019 H   0  0  0  0  0  0  0  0  0  0  0  0
  142.7441  132.8617  150.0053 H   0  0  0  0  0  0  0  0  0  0  0  0
  143.7968  135.0380  150.5560 H   0  0  0  0  0  0  0  0  0  0  0  0
  147.2115  135.3465  151.5515 H   0  0  0  0  0  0  0  0  0  0  0  0
  147.7078  137.0861  152.2428 H   0  0  0  0  0  0  0  0  0  0  0  0
  145.6468  138.7647  153.5738 H   0  0  0  0  0  0  0  0  0  0  0  0
  148.0222  139.6205  151.8673 H   0  0  0  0  0  0  0  0  0  0  0  0
  146.3374  139.7264  151.4188 H   0  0  0  0  0  0  0  0  0  0  0  0
  147.2053  141.9197  152.2330 H   0  0  0  0  0  0  0  0  0  0  0  0
  145.8951  141.3388  153.2326 H   0  0  0  0  0  0  0  0  0  0  0  0
  148.8782  141.1464  153.8757 H   0  0  0  0  0  0  0  0  0  0  0  0
  147.7181  142.1826  154.6691 H   0  0  0  0  0  0  0  0  0  0  0  0
  148.1950  140.1338  156.0255 H   0  0  0  0  0  0  0  0  0  0  0  0
  146.5107  140.2398  155.5817 H   0  0  0  0  0  0  0  0  0  0  0  0
  147.2395  137.9613  155.2479 H   0  0  0  0  0  0  0  0  0  0  0  0
  149.2570  137.2885  155.8471 H   0  0  0  0  0  0  0  0  0  0  0  0
  149.6265  139.9515  156.2241 H   0  0  0  0  0  0  0  0  0  0  0  0
  150.7658  138.8207  156.9346 H   0  0  0  0  0  0  0  0  0  0  0  0
  151.1484  140.5213  154.4855 H   0  0  0  0  0  0  0  0  0  0  0  0
  152.3243  140.1008  155.7232 H   0  0  0  0  0  0  0  0  0  0  0  0
  151.8549  138.7983  153.1848 H   0  0  0  0  0  0  0  0  0  0  0  0
  152.9957  138.2633  154.4110 H   0  0  0  0  0  0  0  0  0  0  0  0
  151.5027  136.7148  155.3090 H   0  0  0  0  0  0  0  0  0  0  0  0
  150.7795  136.7460  153.7069 H   0  0  0  0  0  0  0  0  0  0  0  0
  1  2  1  0  0  0  0
  1 25  1  0  0  0  0
  1 26  1  0  0  0  0
  1 27  1  0  0  0  0
  2 23  1  0  0  0  0
  2  3  1  0  0  0  0
  3  4  2  0  0  0  0
  3 28  1  0  0  0  0
  4  5  1  0  0  0  0
  4 29  1  0  0  0  0
  5  6  2  0  0  0  0
  5 30  1  0  0  0  0
  6  7  1  0  0  0  0
  6 23  1  0  0  0  0
  7  8  1  0  0  0  0
  7 31  1  0  0  0  0
  8  9  2  0  0  0  0
  8 10  1  0  0  0  0
 10 11  1  0  0  0  0
 10 32  1  0  0  0  0
 11 16  1  0  0  0  0
 11 12  1  0  0  0  0
 11 33  1  0  0  0  0
 12 13  1  0  0  0  0
 12 34  1  0  0  0  0
 12 35  1  0  0  0  0
 13 14  1  0  0  0  0
 13 36  1  0  0  0  0
 13 37  1  0  0  0  0
 14 15  1  0  0  0  0
 14 38  1  0  0  0  0
 14 39  1  0  0  0  0
 15 16  1  0  0  0  0
 15 40  1  0  0  0  0
 15 41  1  0  0  0  0
 16 17  1  0  0  0  0
 16 42  1  0  0  0  0
 17 18  1  0  0  0  0
 18 22  1  0  0  0  0
 18 19  1  0  0  0  0
 18 43  1  0  0  0  0
 19 20  1  0  0  0  0
 19 44  1  0  0  0  0
 19 45  1  0  0  0  0
 20 21  1  0  0  0  0
 20 46  1  0  0  0  0
 20 47  1  0  0  0  0
 21 22  1  0  0  0  0
 21 48  1  0  0  0  0
 21 49  1  0  0  0  0
 22 50  1  0  0  0  0
 22 51  1  0  0  0  0
 23 24  2  0  0  0  0
M  END
> <s_m_source_file>
AV-unprocessed.smi

> <i_m_source_file_index>
2477

> <i_lp_mmshare_version>
43012

> <i_f3d_flags>
0

> <s_epik_input>
W0NIM11uMVtjSF1bY0hdW2NIXWMoYzE9TylbTkhdQyg9TylbTkhdW0NAQEhdMltDSDJdW0NIMl1bQ0gyXVtDSDJdW0NASF0yT1tDSF0zW0NIMl1bQ0gyXVtDSDJdW0NIMl0z

> <s_epik_cmdline>
J2VwaWtfcHl0aG9uJywgJy1waCcsICc3LjAnLCAnLXRuJywgJzgnLCAnLW1hJywgJzIwMCcsICctbWV0YWxfYmluZGluZycsICctaW1hZScsICc8aW5maWxlLm1hZT4nLCAnLW9tYWUnLCAnPG91dGZpbGUubWFlPic=

> <r_lp_tautomer_probability>
1

> <r_epik_Ionization_Penalty>
2.40753e-05

> <r_epik_Ionization_Penalty_Charging>
4.84018e-06

> <r_epik_Ionization_Penalty_Neutral>
1.92352e-05

> <r_epik_State_Penalty>
-0

> <r_epik_Charging_Adjusted_Penalty>
4.84018e-06

> <i_epik_Tot_Q>
0

> <i_epik_Tot_abs_Q>
0

> <r_epik_Metal_State_Penalty>
-0

> <b_epik_Metal_Only>
0

> <s_lp_Force_Field>
OPLS_2005

> <r_lp_Energy>
42.349

> <b_lp_Chiralities_Consistent>
1

> <s_lp_Variant>
AV-unprocessed.smi:2477-3

> <Gold.Version>
5.8.1

> <Gold.Id.Protein>
6NUR|6NUR_protein|mol2

> <Gold.PLP.Fitness>
43.2221

> <Gold.PLP.PLP>
-39.0864

> <Gold.PLP.part.hbond>
-1.9401

> <Gold.PLP.part.metal>
0.0000

> <Gold.PLP.part.buried>
-3.2165

> <Gold.PLP.part.nonpolar>
-34.3429

> <Gold.PLP.part.repulsive>
0.6367

> <Gold.PLP.ligand.clash>
0.0000

> <Gold.PLP.ligand.torsion>
0.8572

> <Gold.PLP.Chemscore.Hbond>
1.9280

> <Gold.PLP.Chemscore.CHOScore>
0.0000

> <Gold.PLP.Chemscore.Metal>
0.0000

> <Gold.Chemscore.Hbonds>
donor molecule, donor type, donor heavy atom, donor atom, acceptor molecule, acceptor atom, score
      L1  H     7    31       P1  7948  0.93
      L1  H    10    32       P1  7948  1.00

> <Gold.PLP.Chemscore.Internal.Correction>
0.0661

> <Gold.Rescore>
     Score         DG    S(hbond)    S(metal)    S(lipo)     H(rot)  DE(clash)    DE(int)     intcor
     18.01     -20.13       1.94        0.00      99.62       1.36       1.19       0.93       ----

> <Gold.Chemscore.Fitness>
18.0055

> <Gold.Chemscore.DG>
-20.1321

> <Gold.Chemscore.ZeroCoef>
-5.4800

> <Gold.Chemscore.Hbond>
1.9367

> <Gold.Chemscore.Metal>
0.0000

> <Gold.Chemscore.Lipo>
99.6224

> <Gold.Chemscore.Internal_Hbond>
0.0000

> <Gold.Chemscore.DEClash>
1.1946

> <Gold.Chemscore.DEInternal>
0.9320

> <Gold.Chemscore.Rot>
1.3564

> <Gold.Chemscore.Internal.Correction>
   9.000000E+99

> <Gold.Chemscore.Hbonds>
donor molecule, donor type, donor heavy atom, donor atom, acceptor molecule, acceptor atom, score
      L1  H     7    31       P1  7948  0.85
      L1  H    10    32       P1  7948  0.94

> <Gold.Chemscore.Hbond.Weighted>
-6.4687

> <Gold.Chemscore.Metal.Weighted>
-0.0000

> <Gold.Chemscore.Lipo.Weighted>
-11.6558

> <Gold.Chemscore.Internal_Hbond.Weighted>
0.0000

> <Gold.Chemscore.DEClash.Weighted>
1.1946

> <Gold.Chemscore.DEInternal.Weighted>
0.9320

> <Gold.Chemscore.Rot.Weighted>
3.4724

> <Gold.Chemscore.Internal.Correction.Weighted>
   9.000000E+99

> <Gold.Protein.RotatedTorsions>
[ 6907 6896 6895 6894 ] final   78.79 input  -60.11 | X-H torsion
[ 7974 7965 7964 7962 ] final    4.91 input  175.53 | X-H torsion
[ 8008 7997 7996 7995 ] final   55.30 input   59.86 | X-H torsion
[ 10167 10162 10161 10158 ] final -113.84 input  -65.29 | X-H torsion
[ 10718 10713 10712 10709 ] final -149.30 input   66.30 | X-H torsion
[ 10763 10752 10751 10750 ] final  171.45 input  -60.55 | X-H torsion
[ 11005 11000 10999 10996 ] final  -54.68 input  -57.11 | X-H torsion

> <Gold.Protein.ActiveResidues>
 VAL166  LYS551  ARG553  GLY616  TRP617  ASP618  TYR619  PRO620  LYS621  CYS622 
 ASP623  PHE694  ASN695  SER759  ASP760  ASP761  ALA762  ILE779  LEU786  VAL792 
 PHE793  MET794  SER795  GLU796  ALA797  LYS798  CYS799  TRP800  GLU811  SER814 

> <Gold.Protein.RotatedAtoms>
  152.5173  134.3610  159.9284 H   0  0  0  0  0  0  0  0  0  0  0  0  # atno 6907 bound_to 6896
  151.3563  133.3900  159.2693 H   0  0  0  0  0  0  0  0  0  0  0  0  # atno 6908 bound_to 6896
  150.9687  134.9083  159.7833 H   0  0  0  0  0  0  0  0  0  0  0  0  # atno 6909 bound_to 6896
  146.2442  140.0463  142.8378 H   0  0  0  0  0  0  0  0  0  0  0  0  # atno 7974 bound_to 7965
  155.4988  140.3474  155.4367 H   0  0  0  0  0  0  0  0  0  0  0  0  # atno 8008 bound_to 7997
  156.0927  140.1415  156.9598 H   0  0  0  0  0  0  0  0  0  0  0  0  # atno 8009 bound_to 7997
  154.4645  140.0922  156.6960 H   0  0  0  0  0  0  0  0  0  0  0  0  # atno 8010 bound_to 7997
  140.1075  143.4557  152.1773 H   0  0  0  0  0  0  0  0  0  0  0  0  # atno 10167 bound_to 10162
  156.4313  130.8077  151.2304 H   0  0  0  0  0  0  0  0  0  0  0  0  # atno 10718 bound_to 10713
  154.4121  135.2756  155.2030 H   0  0  0  0  0  0  0  0  0  0  0  0  # atno 10763 bound_to 10752
  154.4011  135.6044  153.5901 H   0  0  0  0  0  0  0  0  0  0  0  0  # atno 10764 bound_to 10752
  152.9831  135.5926  154.4404 H   0  0  0  0  0  0  0  0  0  0  0  0  # atno 10765 bound_to 10752
  141.1037  133.6615  156.4357 H   0  0  0  0  0  0  0  0  0  0  0  0  # atno 11005 bound_to 11000
  145.1024  140.9354  143.4705 LP  0  0  0  0  0  0  0  0  0  0  0  0  # atno 17320 bound_to 7965
  145.0659  139.3069  143.5856 LP  0  0  0  0  0  0  0  0  0  0  0  0  # atno 17321 bound_to 7965
  139.5637  144.7422  151.4082 LP  0  0  0  0  0  0  0  0  0  0  0  0  # atno 17342 bound_to 10162
  140.6944  143.7785  150.7304 LP  0  0  0  0  0  0  0  0  0  0  0  0  # atno 17343 bound_to 10162
  157.7508  131.0197  150.3679 LP  0  0  0  0  0  0  0  0  0  0  0  0  # atno 17370 bound_to 10713
  156.4017  130.3917  149.6955 LP  0  0  0  0  0  0  0  0  0  0  0  0  # atno 17371 bound_to 10713
  140.4956  134.6534  157.5228 LP  0  0  0  0  0  0  0  0  0  0  0  0  # atno 17394 bound_to 11000
  139.9899  134.7002  155.9708 LP  0  0  0  0  0  0  0  0  0  0  0  0  # atno 17395 bound_to 11000

$$$$
