AV-unprocessed.smi:1579|AV-procd|sdf|6357|dock10
  -GOLD-   22720 6583D 1   1.00000     0.00000
 Structure written by MMmdl.
 47 48  0  0  0  0  0  0  0  0  2 V2000
  148.2761  140.5142  156.6254 C   0  0  0  0  0  0  0  0  0  0  0  0
  149.2293  139.5442  155.9806 C   0  0  0  0  0  0  0  0  0  0  0  0
  148.8162  138.3266  155.8456 N   0  0  0  0  0  0  0  0  0  0  0  0
  149.6101  137.3588  155.2639 N   0  0  0  0  0  0  0  0  0  0  0  0
  148.9781  136.0363  155.1871 C   0  0  0  0  0  0  0  0  0  0  0  0
  147.4929  136.1245  154.7713 C   0  0  1  0  0  0  0  0  0  0  0  0
  147.3965  136.9864  153.6541 O   0  0  0  0  0  0  0  0  0  0  0  0
  146.9450  134.7481  154.3418 C   0  0  0  0  0  0  0  0  0  0  0  0
  146.5641  134.7048  152.9063 N   0  3  2  0  0  0  0  0  0  0  0  0
  145.1899  135.2112  152.6461 C   0  0  0  0  0  0  0  0  0  0  0  0
  144.8948  135.2678  151.1365 C   0  0  0  0  0  0  0  0  0  0  0  0
  145.1062  133.9063  150.4497 C   0  0  2  0  0  0  0  0  0  0  0  0
  143.9905  132.8967  150.7720 C   0  0  0  0  0  0  0  0  0  0  0  0
  146.5092  133.3740  150.7930 C   0  0  0  0  0  0  0  0  0  0  0  0
  146.7726  133.3603  152.3098 C   0  0  0  0  0  0  0  0  0  0  0  0
  150.8720  137.5692  154.7914 C   0  0  0  0  0  0  0  0  0  0  0  0
  151.5487  136.6694  154.2904 O   0  0  0  0  0  0  0  0  0  0  0  0
  151.3342  138.9502  154.9467 C   0  0  0  0  0  0  0  0  0  0  0  0
  152.6499  139.2155  154.4611 C   0  0  0  0  0  0  0  0  0  0  0  0
  153.7143  139.4167  154.0531 N   0  0  0  0  0  0  0  0  0  0  0  0
  150.5632  139.9108  155.5153 C   0  0  0  0  0  0  0  0  0  0  0  0
  150.9963  141.3586  155.7015 C   0  0  0  0  0  0  0  0  0  0  0  0
  148.0815  141.3619  155.9682 H   0  0  0  0  0  0  0  0  0  0  0  0
  148.6874  140.8969  157.5597 H   0  0  0  0  0  0  0  0  0  0  0  0
  147.3159  140.0499  156.8549 H   0  0  0  0  0  0  0  0  0  0  0  0
  149.5281  135.3755  154.5135 H   0  0  0  0  0  0  0  0  0  0  0  0
  149.0604  135.5610  156.1665 H   0  0  0  0  0  0  0  0  0  0  0  0
  146.8983  136.5315  155.5881 H   0  0  0  0  0  0  0  0  0  0  0  0
  148.1172  136.8031  153.0700 H   0  0  0  0  0  0  0  0  0  0  0  0
  147.7067  133.9942  154.5481 H   0  0  0  0  0  0  0  0  0  0  0  0
  146.0785  134.4741  154.9459 H   0  0  0  0  0  0  0  0  0  0  0  0
  144.4624  134.5758  153.1528 H   0  0  0  0  0  0  0  0  0  0  0  0
  145.0680  136.2106  153.0616 H   0  0  0  0  0  0  0  0  0  0  0  0
  143.8781  135.6236  150.9661 H   0  0  0  0  0  0  0  0  0  0  0  0
  145.5532  136.0059  150.6760 H   0  0  0  0  0  0  0  0  0  0  0  0
  145.0701  134.0712  149.3719 H   0  0  0  0  0  0  0  0  0  0  0  0
  143.9412  132.6607  151.8348 H   0  0  0  0  0  0  0  0  0  0  0  0
  144.1446  131.9607  150.2347 H   0  0  0  0  0  0  0  0  0  0  0  0
  143.0157  133.2852  150.4761 H   0  0  0  0  0  0  0  0  0  0  0  0
  146.6463  132.3742  150.3796 H   0  0  0  0  0  0  0  0  0  0  0  0
  147.2578  134.0045  150.3107 H   0  0  0  0  0  0  0  0  0  0  0  0
  147.7995  133.0373  152.4856 H   0  0  0  0  0  0  0  0  0  0  0  0
  146.1266  132.6346  152.8058 H   0  0  0  0  0  0  0  0  0  0  0  0
  152.0215  141.5284  155.3744 H   0  0  0  0  0  0  0  0  0  0  0  0
  150.9379  141.6456  156.7516 H   0  0  0  0  0  0  0  0  0  0  0  0
  150.3533  142.0255  155.1263 H   0  0  0  0  0  0  0  0  0  0  0  0
  147.2041  135.3242  152.4292 H   0  0  0  0  0  0  0  0  0  0  0  0
  1  2  1  0  0  0  0
  1 23  1  0  0  0  0
  1 24  1  0  0  0  0
  1 25  1  0  0  0  0
  2 21  1  0  0  0  0
  2  3  2  0  0  0  0
  3  4  1  0  0  0  0
  4  5  1  0  0  0  0
  4 16  1  0  0  0  0
  5  6  1  0  0  0  0
  5 26  1  0  0  0  0
  5 27  1  0  0  0  0
  6  7  1  0  0  0  0
  6  8  1  0  0  0  0
  6 28  1  0  0  0  0
  7 29  1  0  0  0  0
  8  9  1  0  0  0  0
  8 30  1  0  0  0  0
  8 31  1  0  0  0  0
  9 15  1  0  0  0  0
  9 10  1  0  0  0  0
  9 47  1  0  0  0  0
 10 11  1  0  0  0  0
 10 32  1  0  0  0  0
 10 33  1  0  0  0  0
 11 12  1  0  0  0  0
 11 34  1  0  0  0  0
 11 35  1  0  0  0  0
 12 13  1  0  0  0  0
 12 14  1  0  0  0  0
 12 36  1  0  0  0  0
 13 37  1  0  0  0  0
 13 38  1  0  0  0  0
 13 39  1  0  0  0  0
 14 15  1  0  0  0  0
 14 40  1  0  0  0  0
 14 41  1  0  0  0  0
 15 42  1  0  0  0  0
 15 43  1  0  0  0  0
 16 17  2  0  0  0  0
 16 18  1  0  0  0  0
 18 19  1  0  0  0  0
 18 21  2  0  0  0  0
 19 20  3  0  0  0  0
 21 22  1  0  0  0  0
 22 44  1  0  0  0  0
 22 45  1  0  0  0  0
 22 46  1  0  0  0  0
M  CHG  1   9   1
M  END
> <s_m_source_file>
AV-unprocessed.smi

> <i_m_source_file_index>
1579

> <i_lp_mmshare_version>
43012

> <i_f3d_flags>
0

> <s_epik_input>
TiNDYyhjMVtDSDNdKWMoPU8pbihuYzFbQ0gzXSlbQ0gyXVtDQEhdKFtPSF0pW0NIMl1OMltDSDJdW0NIMl1bQ0hdKFtDSDNdKVtDSDJdW0NIMl0y

> <s_epik_cmdline>
J2VwaWtfcHl0aG9uJywgJy1waCcsICc3LjAnLCAnLXRuJywgJzgnLCAnLW1hJywgJzIwMCcsICctbWV0YWxfYmluZGluZycsICctaW1hZScsICc8aW5maWxlLm1hZT4nLCAnLW9tYWUnLCAnPG91dGZpbGUubWFlPic=

> <r_epik_Ionization_Penalty>
0.00136816

> <r_epik_Ionization_Penalty_Charging>
0.00136813

> <r_epik_Ionization_Penalty_Neutral>
3.19884e-08

> <r_epik_State_Penalty>
0.000910892

> <r_epik_Charging_Adjusted_Penalty>
0.00227902

> <i_epik_Tot_Q>
1

> <i_epik_Tot_abs_Q>
1

> <r_epik_Metal_State_Penalty>
-0

> <b_epik_Metal_Only>
0

> <s_lp_Force_Field>
OPLS_2005

> <r_lp_Energy>
39.3397

> <b_lp_Chiralities_Consistent>
1

> <s_lp_Variant>
AV-unprocessed.smi:1579-4

> <Gold.Version>
5.8.1

> <Gold.Id.Protein>
6NUR|6NUR_protein|mol2

> <Gold.PLP.Fitness>
44.9492

> <Gold.PLP.PLP>
-32.7841

> <Gold.PLP.part.hbond>
-3.7658

> <Gold.PLP.part.metal>
0.0000

> <Gold.PLP.part.buried>
-3.0220

> <Gold.PLP.part.nonpolar>
-25.4293

> <Gold.PLP.part.repulsive>
0.2490

> <Gold.PLP.ligand.clash>
0.0000

> <Gold.PLP.ligand.torsion>
1.4287

> <Gold.PLP.Chemscore.Hbond>
5.0000

> <Gold.PLP.Chemscore.CHOScore>
0.0000

> <Gold.PLP.Chemscore.Metal>
0.0000

> <Gold.Chemscore.Hbonds>
donor molecule, donor type, donor heavy atom, donor atom, acceptor molecule, acceptor atom, score
      L1  H     7    29       P1  7948  1.00
      L1  H     9    47       P1  7948  2.00
      P1  H  7997  8008       L1    20  0.98
      P1  H 10752 10764       L1    17  1.00

> <Gold.PLP.Chemscore.Internal.Correction>
0.0225

> <Gold.Rescore>
     Score         DG    S(hbond)    S(metal)    S(lipo)     H(rot)  DE(clash)    DE(int)     intcor
     18.61     -20.15       3.82        0.00      63.78       2.17       0.16       1.38       ----

> <Gold.Chemscore.Fitness>
18.6071

> <Gold.Chemscore.DG>
-20.1464

> <Gold.Chemscore.ZeroCoef>
-5.4800

> <Gold.Chemscore.Hbond>
3.8215

> <Gold.Chemscore.Metal>
0.0000

> <Gold.Chemscore.Lipo>
63.7754

> <Gold.Chemscore.Internal_Hbond>
0.0000

> <Gold.Chemscore.DEClash>
0.1594

> <Gold.Chemscore.DEInternal>
1.3799

> <Gold.Chemscore.Rot>
2.1715

> <Gold.Chemscore.Internal.Correction>
   9.000000E+99

> <Gold.Chemscore.Hbonds>
donor molecule, donor type, donor heavy atom, donor atom, acceptor molecule, acceptor atom, score
      L1  H     7    29       P1  7948  0.97
      L1  H     9    47       P1  7948  0.93
      P1  H  7997  8008       L1    20  0.23
      P1  H 10752 10764       L1    17  1.00

> <Gold.Chemscore.Hbond.Weighted>
-12.7638

> <Gold.Chemscore.Metal.Weighted>
-0.0000

> <Gold.Chemscore.Lipo.Weighted>
-7.4617

> <Gold.Chemscore.Internal_Hbond.Weighted>
0.0000

> <Gold.Chemscore.DEClash.Weighted>
0.1594

> <Gold.Chemscore.DEInternal.Weighted>
1.3799

> <Gold.Chemscore.Rot.Weighted>
5.5591

> <Gold.Chemscore.Internal.Correction.Weighted>
   9.000000E+99

> <Gold.Protein.RotatedTorsions>
[ 6907 6896 6895 6894 ] final -172.82 input  -60.11 | X-H torsion
[ 7974 7965 7964 7962 ] final    3.50 input  175.53 | X-H torsion
[ 8008 7997 7996 7995 ] final   -5.74 input   59.86 | X-H torsion
[ 10167 10162 10161 10158 ] final  -50.52 input  -65.29 | X-H torsion
[ 10718 10713 10712 10709 ] final  -65.91 input   66.30 | X-H torsion
[ 10763 10752 10751 10750 ] final  -80.64 input  -60.55 | X-H torsion
[ 11005 11000 10999 10996 ] final   45.23 input  -57.11 | X-H torsion

> <Gold.Protein.ActiveResidues>
 VAL166  LYS551  ARG553  GLY616  TRP617  ASP618  TYR619  PRO620  LYS621  CYS622 
 ASP623  PHE694  ASN695  SER759  ASP760  ASP761  ALA762  ILE779  LEU786  VAL792 
 PHE793  MET794  SER795  GLU796  ALA797  LYS798  CYS799  TRP800  GLU811  SER814 

> <Gold.Protein.RotatedAtoms>
  151.5462  133.3425  159.2944 H   0  0  0  0  0  0  0  0  0  0  0  0  # atno 6907 bound_to 6896
  150.8506  134.7832  159.7017 H   0  0  0  0  0  0  0  0  0  0  0  0  # atno 6908 bound_to 6896
  152.4553  134.5313  159.9863 H   0  0  0  0  0  0  0  0  0  0  0  0  # atno 6909 bound_to 6896
  146.2445  140.0675  142.8364 H   0  0  0  0  0  0  0  0  0  0  0  0  # atno 7974 bound_to 7965
  154.6008  140.2450  155.7795 H   0  0  0  0  0  0  0  0  0  0  0  0  # atno 8008 bound_to 7997
  156.2309  140.2967  156.0139 H   0  0  0  0  0  0  0  0  0  0  0  0  # atno 8009 bound_to 7997
  155.2214  140.0400  157.2939 H   0  0  0  0  0  0  0  0  0  0  0  0  # atno 8010 bound_to 7997
  140.6634  143.2654  151.4371 H   0  0  0  0  0  0  0  0  0  0  0  0  # atno 10167 bound_to 10162
  156.0642  130.4254  150.1632 H   0  0  0  0  0  0  0  0  0  0  0  0  # atno 10718 bound_to 10713
  154.5538  135.5654  153.6945 H   0  0  0  0  0  0  0  0  0  0  0  0  # atno 10763 bound_to 10752
  152.9997  135.6257  154.2338 H   0  0  0  0  0  0  0  0  0  0  0  0  # atno 10764 bound_to 10752
  154.2274  135.2867  155.2882 H   0  0  0  0  0  0  0  0  0  0  0  0  # atno 10765 bound_to 10752
  140.1479  134.4499  155.8402 H   0  0  0  0  0  0  0  0  0  0  0  0  # atno 11005 bound_to 11000
  145.0845  140.9243  143.4806 LP  0  0  0  0  0  0  0  0  0  0  0  0  # atno 17320 bound_to 7965
  145.0835  139.2942  143.5771 LP  0  0  0  0  0  0  0  0  0  0  0  0  # atno 17321 bound_to 7965
  139.5874  144.1574  152.2046 LP  0  0  0  0  0  0  0  0  0  0  0  0  # atno 17342 bound_to 10162
  140.0918  144.5614  150.7049 LP  0  0  0  0  0  0  0  0  0  0  0  0  # atno 17343 bound_to 10162
  156.9695  130.9830  151.3462 LP  0  0  0  0  0  0  0  0  0  0  0  0  # atno 17370 bound_to 10713
  157.5673  130.8286  149.8344 LP  0  0  0  0  0  0  0  0  0  0  0  0  # atno 17371 bound_to 10713
  141.2195  133.6860  156.7368 LP  0  0  0  0  0  0  0  0  0  0  0  0  # atno 17394 bound_to 11000
  140.2641  134.8444  157.3786 LP  0  0  0  0  0  0  0  0  0  0  0  0  # atno 17395 bound_to 11000

$$$$
