AV-unprocessed.smi:787|AV-procd|sdf|3727|dock2
  -GOLD-   22720 1153D 1   1.00000     0.00000
 Structure written by MMmdl.
 47 49  0  0  0  0  0  0  0  0  2 V2000
  148.1276  141.4792  154.0429 C   0  0  0  0  0  0  0  0  0  0  0  0
  148.4387  141.1025  155.4125 N   0  0  0  0  0  0  0  0  0  0  0  0
  149.7440  140.7398  155.7736 C   0  0  0  0  0  0  0  0  0  0  0  0
  150.4766  141.5557  156.5663 N   0  0  0  0  0  0  0  0  0  0  0  0
  151.7152  141.1656  156.8942 C   0  0  0  0  0  0  0  0  0  0  0  0
  152.3693  140.0473  156.5437 N   0  0  0  0  0  0  0  0  0  0  0  0
  151.6535  139.2337  155.7558 C   0  0  0  0  0  0  0  0  0  0  0  0
  152.0758  138.0184  155.2455 N   0  0  0  0  0  0  0  0  0  0  0  0
  151.0119  137.6333  154.5462 C   0  0  0  0  0  0  0  0  0  0  0  0
  149.9480  138.4607  154.5257 N   0  0  0  0  0  0  0  0  0  0  0  0
  148.6987  138.2470  153.8156 C   0  0  0  0  0  0  0  0  0  0  0  0
  147.8050  137.1839  154.4863 C   0  0  2  0  0  0  0  0  0  0  0  0
  148.4436  135.9311  154.3496 O   0  0  0  0  0  0  0  0  0  0  0  0
  146.3827  137.0890  153.8903 C   0  0  0  0  0  0  0  0  0  0  0  0
  146.3147  136.1013  152.7846 N   0  3  2  0  0  0  0  0  0  0  0  0
  145.4980  136.5849  151.6476 C   0  0  0  0  0  0  0  0  0  0  0  0
  145.9140  134.7443  153.2372 C   0  0  0  0  0  0  0  0  0  0  0  0
  145.5709  133.8502  152.0608 C   0  0  0  0  0  0  0  0  0  0  0  0
  146.5919  133.2912  151.2627 C   0  0  0  0  0  0  0  0  0  0  0  0
  146.2629  132.4589  150.1749 C   0  0  0  0  0  0  0  0  0  0  0  0
  144.9136  132.1838  149.8806 C   0  0  0  0  0  0  0  0  0  0  0  0
  143.8925  132.7424  150.6732 C   0  0  0  0  0  0  0  0  0  0  0  0
  144.2202  133.5747  151.7610 C   0  0  0  0  0  0  0  0  0  0  0  0
  150.3243  139.5346  155.3301 C   0  0  0  0  0  0  0  0  0  0  0  0
  147.0721  141.7381  153.9593 H   0  0  0  0  0  0  0  0  0  0  0  0
  148.3323  140.6551  153.3589 H   0  0  0  0  0  0  0  0  0  0  0  0
  148.7163  142.3444  153.7365 H   0  0  0  0  0  0  0  0  0  0  0  0
  147.7176  141.1715  156.1159 H   0  0  0  0  0  0  0  0  0  0  0  0
  152.2637  141.8455  157.5291 H   0  0  0  0  0  0  0  0  0  0  0  0
  151.0109  136.6979  154.0058 H   0  0  0  0  0  0  0  0  0  0  0  0
  148.1698  139.1997  153.7553 H   0  0  0  0  0  0  0  0  0  0  0  0
  148.9328  137.9586  152.7901 H   0  0  0  0  0  0  0  0  0  0  0  0
  147.7473  137.4007  155.5514 H   0  0  0  0  0  0  0  0  0  0  0  0
  148.7004  135.8162  153.4468 H   0  0  0  0  0  0  0  0  0  0  0  0
  145.6487  136.8085  154.6469 H   0  0  0  0  0  0  0  0  0  0  0  0
  146.0876  138.0778  153.5353 H   0  0  0  0  0  0  0  0  0  0  0  0
  144.4574  136.7220  151.9445 H   0  0  0  0  0  0  0  0  0  0  0  0
  145.5263  135.8809  150.8157 H   0  0  0  0  0  0  0  0  0  0  0  0
  145.8767  137.5385  151.2782 H   0  0  0  0  0  0  0  0  0  0  0  0
  146.7200  134.2617  153.7900 H   0  0  0  0  0  0  0  0  0  0  0  0
  145.0743  134.8088  153.9311 H   0  0  0  0  0  0  0  0  0  0  0  0
  147.6293  133.4962  151.4824 H   0  0  0  0  0  0  0  0  0  0  0  0
  147.0457  132.0312  149.5658 H   0  0  0  0  0  0  0  0  0  0  0  0
  144.6620  131.5452  149.0467 H   0  0  0  0  0  0  0  0  0  0  0  0
  142.8576  132.5318  150.4466 H   0  0  0  0  0  0  0  0  0  0  0  0
  143.4321  133.9988  152.3662 H   0  0  0  0  0  0  0  0  0  0  0  0
  147.2604  136.0207  152.4377 H   0  0  0  0  0  0  0  0  0  0  0  0
  1  2  1  0  0  0  0
  1 25  1  0  0  0  0
  1 26  1  0  0  0  0
  1 27  1  0  0  0  0
  2  3  1  0  0  0  0
  2 28  1  0  0  0  0
  3 24  1  0  0  0  0
  3  4  2  0  0  0  0
  4  5  1  0  0  0  0
  5  6  2  0  0  0  0
  5 29  1  0  0  0  0
  6  7  1  0  0  0  0
  7 24  2  0  0  0  0
  7  8  1  0  0  0  0
  8  9  2  0  0  0  0
  9 10  1  0  0  0  0
  9 30  1  0  0  0  0
 10 11  1  0  0  0  0
 10 24  1  0  0  0  0
 11 12  1  0  0  0  0
 11 31  1  0  0  0  0
 11 32  1  0  0  0  0
 12 13  1  0  0  0  0
 12 14  1  0  0  0  0
 12 33  1  0  0  0  0
 13 34  1  0  0  0  0
 14 15  1  0  0  0  0
 14 35  1  0  0  0  0
 14 36  1  0  0  0  0
 15 16  1  0  0  0  0
 15 17  1  0  0  0  0
 15 47  1  0  0  0  0
 16 37  1  0  0  0  0
 16 38  1  0  0  0  0
 16 39  1  0  0  0  0
 17 18  1  0  0  0  0
 17 40  1  0  0  0  0
 17 41  1  0  0  0  0
 18 23  1  0  0  0  0
 18 19  2  0  0  0  0
 19 20  1  0  0  0  0
 19 42  1  0  0  0  0
 20 21  2  0  0  0  0
 20 43  1  0  0  0  0
 21 22  1  0  0  0  0
 21 44  1  0  0  0  0
 22 23  2  0  0  0  0
 22 45  1  0  0  0  0
 23 46  1  0  0  0  0
M  CHG  1  15   1
M  END
> <s_m_source_file>
AV-unprocessed.smi

> <i_m_source_file_index>
787

> <i_lp_mmshare_version>
43012

> <i_f3d_flags>
0

> <s_epik_input>
bjFbY0hdbmMoW05IXVtDSDNdKWMoYzEyKW4oW2NIXW4yKVtDSDJdW0NASF0oW09IXSlbQ0gyXU4oW0NIM10pW0NIMl1jM1tjSF1bY0hdW2NIXVtjSF1bY0hdMw==

> <s_epik_cmdline>
J2VwaWtfcHl0aG9uJywgJy1waCcsICc3LjAnLCAnLXRuJywgJzgnLCAnLW1hJywgJzIwMCcsICctbWV0YWxfYmluZGluZycsICctaW1hZScsICc8aW5maWxlLm1hZT4nLCAnLW9tYWUnLCAnPG91dGZpbGUubWFlPic=

> <r_lp_tautomer_probability>
0.999987

> <r_epik_Ionization_Penalty>
0.0526284

> <r_epik_Ionization_Penalty_Charging>
0.0475377

> <r_epik_Ionization_Penalty_Neutral>
0.00509065

> <r_epik_State_Penalty>
0.0404888

> <r_epik_Charging_Adjusted_Penalty>
0.0880265

> <i_epik_Tot_Q>
1

> <i_epik_Tot_abs_Q>
1

> <r_epik_Metal_State_Penalty>
0.040507

> <b_epik_Metal_Only>
0

> <s_lp_Force_Field>
OPLS_2005

> <r_lp_Energy>
15.7703

> <b_lp_Chiralities_Consistent>
1

> <s_lp_Variant>
AV-unprocessed.smi:787-3

> <Gold.Version>
5.8.1

> <Gold.Id.Protein>
6NUR|6NUR_protein|mol2

> <Gold.PLP.Fitness>
47.7900

> <Gold.PLP.PLP>
-36.6339

> <Gold.PLP.part.hbond>
-3.1434

> <Gold.PLP.part.metal>
0.0000

> <Gold.PLP.part.buried>
-1.3670

> <Gold.PLP.part.nonpolar>
-32.4897

> <Gold.PLP.part.repulsive>
0.1726

> <Gold.PLP.ligand.clash>
0.0000

> <Gold.PLP.ligand.torsion>
2.1088

> <Gold.PLP.Chemscore.Hbond>
4.0000

> <Gold.PLP.Chemscore.CHOScore>
1.0092

> <Gold.PLP.Chemscore.Metal>
0.0000

> <Gold.Chemscore.Hbonds>
donor molecule, donor type, donor heavy atom, donor atom, acceptor molecule, acceptor atom, score
      L1  H    13    34       P1  7948  1.00
      L1  H    15    47       P1  7948  2.00
      P1  H  7997  8010       L1     6  1.00
      L1  C     9    30       P1  7949  0.79

> <Gold.PLP.Chemscore.Internal.Correction>
0.3462

> <Gold.Rescore>
     Score         DG    S(hbond)    S(metal)    S(lipo)     H(rot)  DE(clash)    DE(int)     intcor
     12.52     -15.29       2.89        0.00      71.17       3.19       0.03       2.74       ----

> <Gold.Chemscore.Fitness>
12.5200

> <Gold.Chemscore.DG>
-15.2881

> <Gold.Chemscore.ZeroCoef>
-5.4800

> <Gold.Chemscore.Hbond>
2.8905

> <Gold.Chemscore.Metal>
0.0000

> <Gold.Chemscore.Lipo>
71.1746

> <Gold.Chemscore.Internal_Hbond>
0.0000

> <Gold.Chemscore.DEClash>
0.0277

> <Gold.Chemscore.DEInternal>
2.7403

> <Gold.Chemscore.Rot>
3.1928

> <Gold.Chemscore.Internal.Correction>
   9.000000E+99

> <Gold.Chemscore.Hbonds>
donor molecule, donor type, donor heavy atom, donor atom, acceptor molecule, acceptor atom, score
      L1  H    13    34       P1  7948  0.98
      L1  H    15    47       P1  7948  1.00
      P1  H  7997  8010       L1     6  0.85

> <Gold.Chemscore.Hbond.Weighted>
-9.6542

> <Gold.Chemscore.Metal.Weighted>
-0.0000

> <Gold.Chemscore.Lipo.Weighted>
-8.3274

> <Gold.Chemscore.Internal_Hbond.Weighted>
0.0000

> <Gold.Chemscore.DEClash.Weighted>
0.0277

> <Gold.Chemscore.DEInternal.Weighted>
2.7403

> <Gold.Chemscore.Rot.Weighted>
8.1736

> <Gold.Chemscore.Internal.Correction.Weighted>
   9.000000E+99

> <Gold.Protein.RotatedTorsions>
[ 6907 6896 6895 6894 ] final  -93.39 input  -60.11 | X-H torsion
[ 7974 7965 7964 7962 ] final  -72.34 input  175.53 | X-H torsion
[ 8008 7997 7996 7995 ] final   85.71 input   59.86 | X-H torsion
[ 10167 10162 10161 10158 ] final  -44.85 input  -65.29 | X-H torsion
[ 10718 10713 10712 10709 ] final  -92.65 input   66.30 | X-H torsion
[ 10763 10752 10751 10750 ] final -145.71 input  -60.55 | X-H torsion
[ 11005 11000 10999 10996 ] final   19.51 input  -57.11 | X-H torsion

> <Gold.Protein.ActiveResidues>
 VAL166  LYS551  ARG553  GLY616  TRP617  ASP618  TYR619  PRO620  LYS621  CYS622 
 ASP623  PHE694  ASN695  SER759  ASP760  ASP761  ALA762  ILE779  LEU786  VAL792 
 PHE793  MET794  SER795  GLU796  ALA797  LYS798  CYS799  TRP800  GLU811  SER814 

> <Gold.Protein.RotatedAtoms>
  150.6922  134.1974  159.4308 H   0  0  0  0  0  0  0  0  0  0  0  0  # atno 6907 bound_to 6896
  151.9942  134.9960  160.0572 H   0  0  0  0  0  0  0  0  0  0  0  0  # atno 6908 bound_to 6896
  152.1639  133.4565  159.4912 H   0  0  0  0  0  0  0  0  0  0  0  0  # atno 6909 bound_to 6896
  145.6663  140.9236  143.0907 H   0  0  0  0  0  0  0  0  0  0  0  0  # atno 7974 bound_to 7965
  155.9535  140.3399  155.6428 H   0  0  0  0  0  0  0  0  0  0  0  0  # atno 8008 bound_to 7997
  155.6890  140.0746  157.2474 H   0  0  0  0  0  0  0  0  0  0  0  0  # atno 8009 bound_to 7997
  154.4127  140.1660  156.2053 H   0  0  0  0  0  0  0  0  0  0  0  0  # atno 8010 bound_to 7997
  140.6881  143.2909  151.3554 H   0  0  0  0  0  0  0  0  0  0  0  0  # atno 10167 bound_to 10162
  156.0004  130.4995  150.5657 H   0  0  0  0  0  0  0  0  0  0  0  0  # atno 10718 bound_to 10713
  154.8370  135.3406  154.6548 H   0  0  0  0  0  0  0  0  0  0  0  0  # atno 10763 bound_to 10752
  153.7162  135.6961  153.5029 H   0  0  0  0  0  0  0  0  0  0  0  0  # atno 10764 bound_to 10752
  153.2415  135.4383  155.0656 H   0  0  0  0  0  0  0  0  0  0  0  0  # atno 10765 bound_to 10752
  140.4129  134.1599  155.7668 H   0  0  0  0  0  0  0  0  0  0  0  0  # atno 11005 bound_to 11000
  144.7072  139.8515  143.7426 LP  0  0  0  0  0  0  0  0  0  0  0  0  # atno 17320 bound_to 7965
  146.1083  139.4085  143.0304 LP  0  0  0  0  0  0  0  0  0  0  0  0  # atno 17321 bound_to 7965
  139.6258  144.0818  152.2432 LP  0  0  0  0  0  0  0  0  0  0  0  0  # atno 17342 bound_to 10162
  140.0277  144.6105  150.7514 LP  0  0  0  0  0  0  0  0  0  0  0  0  # atno 17343 bound_to 10162
  157.3560  131.0741  151.1675 LP  0  0  0  0  0  0  0  0  0  0  0  0  # atno 17370 bound_to 10713
  157.2476  130.6598  149.5917 LP  0  0  0  0  0  0  0  0  0  0  0  0  # atno 17371 bound_to 10713
  141.1814  133.8406  157.1244 LP  0  0  0  0  0  0  0  0  0  0  0  0  # atno 17394 bound_to 11000
  140.0254  134.9926  157.0676 LP  0  0  0  0  0  0  0  0  0  0  0  0  # atno 17395 bound_to 11000

$$$$
