AV-unprocessed.smi:926|AV-procd|sdf|4183|dock2
  -GOLD-   22720 2 83D 1   1.00000     0.00000
 Structure written by MMmdl.
 37 39  0  0  0  0  0  0  0  0  1 V2000
  152.8118  139.6635  155.0406 O   0  0  0  0  0  0  0  0  0  0  0  0
  151.6965  139.2425  155.3472 C   0  0  0  0  0  0  0  0  0  0  0  0
  151.2343  137.8740  154.8480 C   0  0  0  0  0  0  0  0  0  0  0  0
  151.2082  136.9123  155.9338 N   0  0  0  0  0  0  0  0  0  0  0  0
  150.6082  136.9500  157.1256 C   0  0  0  0  0  0  0  0  0  0  0  0
  150.8508  135.8548  157.8296 N   0  0  0  0  0  0  0  0  0  0  0  0
  151.6579  135.1103  156.9855 N   0  0  0  0  0  0  0  0  0  0  0  0
  151.8733  135.7326  155.8590 N   0  0  0  0  0  0  0  0  0  0  0  0
  150.8270  139.9299  156.1043 N   0  0  0  0  0  0  0  0  0  0  0  0
  151.0599  141.2681  156.6325 C   0  0  0  0  0  0  0  0  0  0  0  0
  151.5397  141.2161  158.0935 C   0  0  0  0  0  0  0  0  0  0  0  0
  151.1156  142.4457  158.9204 C   0  0  2  0  0  0  0  0  0  0  0  0
  150.5911  143.6223  158.0693 C   0  0  0  0  0  0  0  0  0  0  0  0
  151.4068  144.8190  158.5934 C   0  0  2  0  0  0  0  0  0  0  0  0
  152.8542  144.7089  158.0789 C   0  0  0  0  0  0  0  0  0  0  0  0
  153.4249  143.5526  158.9201 C   0  0  0  0  0  0  0  0  0  0  0  0
  152.2151  143.1235  159.7757 C   0  0  1  0  0  0  0  0  0  0  0  0
  151.5691  144.4739  160.0693 C   0  0  0  0  0  0  0  0  0  0  0  0
  150.2324  137.9488  154.4234 H   0  0  0  0  0  0  0  0  0  0  0  0
  151.8962  137.5173  154.0570 H   0  0  0  0  0  0  0  0  0  0  0  0
  150.0040  137.7741  157.4758 H   0  0  0  0  0  0  0  0  0  0  0  0
  149.9332  139.5063  156.3080 H   0  0  0  0  0  0  0  0  0  0  0  0
  151.8104  141.7567  156.0107 H   0  0  0  0  0  0  0  0  0  0  0  0
  150.1482  141.8607  156.5432 H   0  0  0  0  0  0  0  0  0  0  0  0
  151.1878  140.3023  158.5718 H   0  0  0  0  0  0  0  0  0  0  0  0
  152.6281  141.1476  158.1050 H   0  0  0  0  0  0  0  0  0  0  0  0
  150.3160  142.1316  159.5934 H   0  0  0  0  0  0  0  0  0  0  0  0
  150.7346  143.4718  156.9984 H   0  0  0  0  0  0  0  0  0  0  0  0
  149.5243  143.7717  158.2407 H   0  0  0  0  0  0  0  0  0  0  0  0
  150.9438  145.7854  158.3921 H   0  0  0  0  0  0  0  0  0  0  0  0
  152.8983  144.5055  157.0084 H   0  0  0  0  0  0  0  0  0  0  0  0
  153.4076  145.6296  158.2682 H   0  0  0  0  0  0  0  0  0  0  0  0
  153.8365  142.7475  158.3126 H   0  0  0  0  0  0  0  0  0  0  0  0
  154.2309  143.9154  159.5593 H   0  0  0  0  0  0  0  0  0  0  0  0
  152.4903  142.5549  160.6644 H   0  0  0  0  0  0  0  0  0  0  0  0
  152.2248  145.1623  160.6056 H   0  0  0  0  0  0  0  0  0  0  0  0
  150.6201  144.3960  160.6029 H   0  0  0  0  0  0  0  0  0  0  0  0
  1  2  2  0  0  0  0
  2  3  1  0  0  0  0
  2  9  1  0  0  0  0
  3  4  1  0  0  0  0
  3 19  1  0  0  0  0
  3 20  1  0  0  0  0
  4  8  1  0  0  0  0
  4  5  1  0  0  0  0
  5  6  2  0  0  0  0
  5 21  1  0  0  0  0
  6  7  1  0  0  0  0
  7  8  2  0  0  0  0
  9 10  1  0  0  0  0
  9 22  1  0  0  0  0
 10 11  1  0  0  0  0
 10 23  1  0  0  0  0
 10 24  1  0  0  0  0
 11 12  1  0  0  0  0
 11 25  1  0  0  0  0
 11 26  1  0  0  0  0
 12 17  1  0  0  0  0
 12 13  1  0  0  0  0
 12 27  1  0  0  0  0
 13 14  1  0  0  0  0
 13 28  1  0  0  0  0
 13 29  1  0  0  0  0
 14 18  1  0  0  0  0
 14 15  1  0  0  0  0
 14 30  1  0  0  0  0
 15 16  1  0  0  0  0
 15 31  1  0  0  0  0
 15 32  1  0  0  0  0
 16 17  1  0  0  0  0
 16 33  1  0  0  0  0
 16 34  1  0  0  0  0
 17 18  1  0  0  0  0
 17 35  1  0  0  0  0
 18 36  1  0  0  0  0
 18 37  1  0  0  0  0
M  END
> <s_m_source_file>
AV-unprocessed.smi

> <i_m_source_file_index>
926

> <i_lp_mmshare_version>
43012

> <i_f3d_flags>
0

> <s_epik_input>
bjFubltjSF1uMVtDSDJdQyg9TylbTkhdW0NIMl1bQ0gyXVtDQEhdKFtDSDJdW0NASF0yMylbQ0BIXShbQ0gyXTMpW0NIMl1bQ0gyXTI=

> <s_epik_cmdline>
J2VwaWtfcHl0aG9uJywgJy1waCcsICc3LjAnLCAnLXRuJywgJzgnLCAnLW1hJywgJzIwMCcsICctbWV0YWxfYmluZGluZycsICctaW1hZScsICc8aW5maWxlLm1hZT4nLCAnLW9tYWUnLCAnPG91dGZpbGUubWFlPic=

> <r_lp_tautomer_probability>
1

> <r_epik_Ionization_Penalty>
4.22645e-07

> <r_epik_Ionization_Penalty_Charging>
0

> <r_epik_Ionization_Penalty_Neutral>
4.22645e-07

> <r_epik_State_Penalty>
-0

> <r_epik_Charging_Adjusted_Penalty>
0

> <i_epik_Tot_Q>
0

> <i_epik_Tot_abs_Q>
0

> <r_epik_Metal_State_Penalty>
-0

> <b_epik_Metal_Only>
0

> <s_lp_Force_Field>
OPLS_2005

> <r_lp_Energy>
51.1932

> <b_lp_Chiralities_Consistent>
1

> <s_lp_Variant>
AV-unprocessed.smi:926-1

> <Gold.Version>
5.8.1

> <Gold.Id.Protein>
6NUR|6NUR_protein|mol2

> <Gold.PLP.Fitness>
44.6753

> <Gold.PLP.PLP>
-39.0526

> <Gold.PLP.part.hbond>
-5.0000

> <Gold.PLP.part.metal>
0.0000

> <Gold.PLP.part.buried>
-5.0970

> <Gold.PLP.part.nonpolar>
-29.9445

> <Gold.PLP.part.repulsive>
0.1124

> <Gold.PLP.ligand.clash>
0.0000

> <Gold.PLP.ligand.torsion>
1.1775

> <Gold.PLP.Chemscore.Hbond>
2.6542

> <Gold.PLP.Chemscore.CHOScore>
0.0000

> <Gold.PLP.Chemscore.Metal>
0.0000

> <Gold.Chemscore.Hbonds>
donor molecule, donor type, donor heavy atom, donor atom, acceptor molecule, acceptor atom, score
      P1  H  6896  6907       L1     6  0.43
      P1  H  7989  7998       L1     1  0.06
      P1  H  7997  8008       L1     1  1.00
      P1  H 10752 10765       L1     8  0.98

> <Gold.PLP.Chemscore.Internal.Correction>
0.0151

> <Gold.Rescore>
     Score         DG    S(hbond)    S(metal)    S(lipo)     H(rot)  DE(clash)    DE(int)     intcor
     17.40     -18.73       2.31        0.00     103.02       2.54       0.03       1.30       ----

> <Gold.Chemscore.Fitness>
17.4030

> <Gold.Chemscore.DG>
-18.7296

> <Gold.Chemscore.ZeroCoef>
-5.4800

> <Gold.Chemscore.Hbond>
2.3077

> <Gold.Chemscore.Metal>
0.0000

> <Gold.Chemscore.Lipo>
103.0232

> <Gold.Chemscore.Internal_Hbond>
0.0000

> <Gold.Chemscore.DEClash>
0.0301

> <Gold.Chemscore.DEInternal>
1.2965

> <Gold.Chemscore.Rot>
2.5436

> <Gold.Chemscore.Internal.Correction>
   9.000000E+99

> <Gold.Chemscore.Hbonds>
donor molecule, donor type, donor heavy atom, donor atom, acceptor molecule, acceptor atom, score
      P1  H  6896  6907       L1     6  0.20
      P1  H  7997  8008       L1     1  1.00
      P1  H 10752 10765       L1     8  0.90

> <Gold.Chemscore.Hbond.Weighted>
-7.7076

> <Gold.Chemscore.Metal.Weighted>
-0.0000

> <Gold.Chemscore.Lipo.Weighted>
-12.0537

> <Gold.Chemscore.Internal_Hbond.Weighted>
0.0000

> <Gold.Chemscore.DEClash.Weighted>
0.0301

> <Gold.Chemscore.DEInternal.Weighted>
1.2965

> <Gold.Chemscore.Rot.Weighted>
6.5117

> <Gold.Chemscore.Internal.Correction.Weighted>
   9.000000E+99

> <Gold.Protein.RotatedTorsions>
[ 6907 6896 6895 6894 ] final  -51.26 input  -60.11 | X-H torsion
[ 7974 7965 7964 7962 ] final -142.45 input  175.53 | X-H torsion
[ 8008 7997 7996 7995 ] final  -15.17 input   59.86 | X-H torsion
[ 10167 10162 10161 10158 ] final  -47.54 input  -65.29 | X-H torsion
[ 10718 10713 10712 10709 ] final  -26.19 input   66.30 | X-H torsion
[ 10763 10752 10751 10750 ] final -152.49 input  -60.55 | X-H torsion
[ 11005 11000 10999 10996 ] final  102.04 input  -57.11 | X-H torsion

> <Gold.Protein.ActiveResidues>
 VAL166  LYS551  ARG553  GLY616  TRP617  ASP618  TYR619  PRO620  LYS621  CYS622 
 ASP623  PHE694  ASN695  SER759  ASP760  ASP761  ALA762  ILE779  LEU786  VAL792 
 PHE793  MET794  SER795  GLU796  ALA797  LYS798  CYS799  TRP800  GLU811  SER814 

> <Gold.Protein.RotatedAtoms>
  150.8628  134.7984  159.7095 H   0  0  0  0  0  0  0  0  0  0  0  0  # atno 6907 bound_to 6896
  152.4659  134.5072  159.9752 H   0  0  0  0  0  0  0  0  0  0  0  0  # atno 6908 bound_to 6896
  151.5173  133.3435  159.2931 H   0  0  0  0  0  0  0  0  0  0  0  0  # atno 6909 bound_to 6896
  144.8442  140.5956  143.5432 H   0  0  0  0  0  0  0  0  0  0  0  0  # atno 7974 bound_to 7965
  154.5151  140.2203  155.9081 H   0  0  0  0  0  0  0  0  0  0  0  0  # atno 8008 bound_to 7997
  156.1598  140.3144  155.8754 H   0  0  0  0  0  0  0  0  0  0  0  0  # atno 8009 bound_to 7997
  155.3774  140.0470  157.3035 H   0  0  0  0  0  0  0  0  0  0  0  0  # atno 8010 bound_to 7997
  140.6770  143.2779  151.3942 H   0  0  0  0  0  0  0  0  0  0  0  0  # atno 10167 bound_to 10162
  156.4544  130.4490  149.6969 H   0  0  0  0  0  0  0  0  0  0  0  0  # atno 10718 bound_to 10713
  154.7990  135.3235  154.7595 H   0  0  0  0  0  0  0  0  0  0  0  0  # atno 10763 bound_to 10752
  153.8267  135.6883  153.4824 H   0  0  0  0  0  0  0  0  0  0  0  0  # atno 10764 bound_to 10752
  153.1697  135.4628  154.9828 H   0  0  0  0  0  0  0  0  0  0  0  0  # atno 10765 bound_to 10752
  139.8776  134.9208  156.4998 H   0  0  0  0  0  0  0  0  0  0  0  0  # atno 11005 bound_to 11000
  145.4631  139.1511  143.3855 LP  0  0  0  0  0  0  0  0  0  0  0  0  # atno 17320 bound_to 7965
  146.2730  140.4761  142.8807 LP  0  0  0  0  0  0  0  0  0  0  0  0  # atno 17321 bound_to 7965
  139.6069  144.1179  152.2258 LP  0  0  0  0  0  0  0  0  0  0  0  0  # atno 17342 bound_to 10162
  140.0581  144.5879  150.7284 LP  0  0  0  0  0  0  0  0  0  0  0  0  # atno 17343 bound_to 10162
  156.3782  130.7565  151.2556 LP  0  0  0  0  0  0  0  0  0  0  0  0  # atno 17370 bound_to 10713
  157.7501  131.0303  150.4132 LP  0  0  0  0  0  0  0  0  0  0  0  0  # atno 17371 bound_to 10713
  140.8598  133.8068  155.9253 LP  0  0  0  0  0  0  0  0  0  0  0  0  # atno 17394 bound_to 11000
  140.9061  134.2318  157.5013 LP  0  0  0  0  0  0  0  0  0  0  0  0  # atno 17395 bound_to 11000

$$$$
