AV-unprocessed.smi:193|AV-procd|sdf|1518|dock10
  -GOLD-   2262019353D 1   1.00000     0.00000
 Structure written by MMmdl.
 61 65  0  0  0  0  0  0  0  0  1 V2000
  152.4054  138.3921  154.7638 C   0  0  0  0  0  0  0  0  0  0  0  0
  151.2327  138.9252  155.6018 C   0  0  2  0  0  0  0  0  0  0  0  0
  149.9235  138.7966  154.7931 C   0  0  0  0  0  0  0  0  0  0  0  0
  148.7048  138.8442  155.6042 N   0  0  0  0  0  0  0  0  0  0  0  0
  147.7268  137.9432  155.3189 C   0  0  0  0  0  0  0  0  0  0  0  0
  147.3466  137.0522  156.2735 N   0  0  0  0  0  0  0  0  0  0  0  0
  146.3997  136.1455  156.0174 C   0  0  0  0  0  0  0  0  0  0  0  0
  145.7079  135.9573  154.8928 N   0  0  0  0  0  0  0  0  0  0  0  0
  146.0722  136.8533  153.9323 C   0  0  0  0  0  0  0  0  0  0  0  0
  147.0636  137.8685  154.0583 C   0  0  0  0  0  0  0  0  0  0  0  0
  147.1491  138.5885  152.8716 N   0  0  0  0  0  0  0  0  0  0  0  0
  146.2705  138.0254  152.0889 C   0  0  0  0  0  0  0  0  0  0  0  0
  145.5684  136.9825  152.6491 N   0  0  0  0  0  0  0  0  0  0  0  0
  144.5323  136.1866  152.0067 C   0  0  0  0  0  0  0  0  0  0  0  0
  145.0602  135.2248  150.9070 C   0  0  0  0  0  0  0  0  0  0  0  0
  145.4424  136.0139  149.7954 O   0  0  0  0  0  0  0  0  0  0  0  0
  146.3123  134.4554  151.3727 C   0  0  0  0  0  0  0  0  0  0  0  0
  145.9537  133.3333  152.3637 C   0  0  0  0  0  0  0  0  0  0  0  0
  144.9970  132.4543  151.7815 O   0  0  0  0  0  0  0  0  0  0  0  0
  143.7702  133.0997  151.4588 C   0  0  0  0  0  0  0  0  0  0  0  0
  144.0172  134.2002  150.4117 C   0  0  0  0  0  0  0  0  0  0  0  0
  148.6782  139.5290  156.8966 C   0  0  0  0  0  0  0  0  0  0  0  0
  149.3234  140.9215  156.8488 C   0  0  0  0  0  0  0  0  0  0  0  0
  150.7460  140.8401  157.1666 N   0  0  0  0  0  0  0  0  0  0  0  0
  151.2156  142.1721  157.5184 C   0  0  1  0  0  0  0  0  0  0  0  0
  150.4211  142.9433  158.5481 C   0  0  0  0  0  0  0  0  0  0  0  0
  151.7726  142.3744  158.9117 C   0  0  2  0  0  0  0  0  0  0  0  0
  152.9557  143.2891  159.1430 C   0  0  0  0  0  0  0  0  0  0  0  0
  151.5203  140.3868  156.0120 C   0  0  0  0  0  0  0  0  0  0  0  0
  152.5352  138.9722  153.8495 H   0  0  0  0  0  0  0  0  0  0  0  0
  152.2466  137.3517  154.4787 H   0  0  0  0  0  0  0  0  0  0  0  0
  153.3414  138.4352  155.3216 H   0  0  0  0  0  0  0  0  0  0  0  0
  151.1776  138.2972  156.4926 H   0  0  0  0  0  0  0  0  0  0  0  0
  149.8729  139.5699  154.0259 H   0  0  0  0  0  0  0  0  0  0  0  0
  149.9529  137.8432  154.2639 H   0  0  0  0  0  0  0  0  0  0  0  0
  146.1635  135.4742  156.8299 H   0  0  0  0  0  0  0  0  0  0  0  0
  146.1039  138.3628  151.0761 H   0  0  0  0  0  0  0  0  0  0  0  0
  144.0182  135.6183  152.7833 H   0  0  0  0  0  0  0  0  0  0  0  0
  143.7877  136.8703  151.5996 H   0  0  0  0  0  0  0  0  0  0  0  0
  144.8557  136.7523  149.7378 H   0  0  0  0  0  0  0  0  0  0  0  0
  146.8061  134.0031  150.5110 H   0  0  0  0  0  0  0  0  0  0  0  0
  147.0396  135.1353  151.8182 H   0  0  0  0  0  0  0  0  0  0  0  0
  146.8465  132.7591  152.6121 H   0  0  0  0  0  0  0  0  0  0  0  0
  145.5710  133.7370  153.3017 H   0  0  0  0  0  0  0  0  0  0  0  0
  143.0783  132.3570  151.0613 H   0  0  0  0  0  0  0  0  0  0  0  0
  143.3126  133.5029  152.3622 H   0  0  0  0  0  0  0  0  0  0  0  0
  143.0795  134.6842  150.1391 H   0  0  0  0  0  0  0  0  0  0  0  0
  144.3813  133.7230  149.5005 H   0  0  0  0  0  0  0  0  0  0  0  0
  147.6372  139.6695  157.1907 H   0  0  0  0  0  0  0  0  0  0  0  0
  149.1328  138.9055  157.6678 H   0  0  0  0  0  0  0  0  0  0  0  0
  149.1397  141.4335  155.9026 H   0  0  0  0  0  0  0  0  0  0  0  0
  148.8421  141.5219  157.6222 H   0  0  0  0  0  0  0  0  0  0  0  0
  151.6739  142.7804  156.7399 H   0  0  0  0  0  0  0  0  0  0  0  0
  150.3421  144.0202  158.4134 H   0  0  0  0  0  0  0  0  0  0  0  0
  149.5435  142.4641  158.9784 H   0  0  0  0  0  0  0  0  0  0  0  0
  151.7597  141.5063  159.5683 H   0  0  0  0  0  0  0  0  0  0  0  0
  152.9242  144.1432  158.4655 H   0  0  0  0  0  0  0  0  0  0  0  0
  153.8860  142.7464  158.9744 H   0  0  0  0  0  0  0  0  0  0  0  0
  152.9485  143.6585  160.1686 H   0  0  0  0  0  0  0  0  0  0  0  0
  152.5747  140.4639  156.2816 H   0  0  0  0  0  0  0  0  0  0  0  0
  151.3736  141.0584  155.1644 H   0  0  0  0  0  0  0  0  0  0  0  0
  1  2  1  0  0  0  0
  1 30  1  0  0  0  0
  1 31  1  0  0  0  0
  1 32  1  0  0  0  0
  2 29  1  0  0  0  0
  2  3  1  0  0  0  0
  2 33  1  0  0  0  0
  3  4  1  0  0  0  0
  3 34  1  0  0  0  0
  3 35  1  0  0  0  0
  4  5  1  0  0  0  0
  4 22  1  0  0  0  0
  5 10  1  0  0  0  0
  5  6  2  0  0  0  0
  6  7  1  0  0  0  0
  7  8  2  0  0  0  0
  7 36  1  0  0  0  0
  8  9  1  0  0  0  0
  9 13  1  0  0  0  0
  9 10  2  0  0  0  0
 10 11  1  0  0  0  0
 11 12  2  0  0  0  0
 12 13  1  0  0  0  0
 12 37  1  0  0  0  0
 13 14  1  0  0  0  0
 14 15  1  0  0  0  0
 14 38  1  0  0  0  0
 14 39  1  0  0  0  0
 15 21  1  0  0  0  0
 15 16  1  0  0  0  0
 15 17  1  0  0  0  0
 16 40  1  0  0  0  0
 17 18  1  0  0  0  0
 17 41  1  0  0  0  0
 17 42  1  0  0  0  0
 18 19  1  0  0  0  0
 18 43  1  0  0  0  0
 18 44  1  0  0  0  0
 19 20  1  0  0  0  0
 20 21  1  0  0  0  0
 20 45  1  0  0  0  0
 20 46  1  0  0  0  0
 21 47  1  0  0  0  0
 21 48  1  0  0  0  0
 22 23  1  0  0  0  0
 22 49  1  0  0  0  0
 22 50  1  0  0  0  0
 23 24  1  0  0  0  0
 23 51  1  0  0  0  0
 23 52  1  0  0  0  0
 24 25  1  0  0  0  0
 24 29  1  0  0  0  0
 25 27  1  0  0  0  0
 25 26  1  0  0  0  0
 25 53  1  0  0  0  0
 26 27  1  0  0  0  0
 26 54  1  0  0  0  0
 26 55  1  0  0  0  0
 27 28  1  0  0  0  0
 27 56  1  0  0  0  0
 28 57  1  0  0  0  0
 28 58  1  0  0  0  0
 28 59  1  0  0  0  0
 29 60  1  0  0  0  0
 29 61  1  0  0  0  0
M  END
> <s_m_source_file>
AV-unprocessed.smi

> <i_m_source_file_index>
193

> <i_lp_mmshare_version>
43012

> <i_f3d_flags>
0

> <s_epik_input>
W0NIM11bQ0BASF0xW0NIMl1bQ0BIXTFOKFtDSDJdMilbQ0gyXVtDSDJdTihbQ0gyXVtDQEhdMltDSDNdKWMobltjSF1uMyljKGMzNCluW2NIXW40W0NIMl1DNShbT0hdKVtDSDJdW0NIMl1PW0NIMl1bQ0gyXTU=

> <s_epik_cmdline>
J2VwaWtfcHl0aG9uJywgJy1waCcsICc3LjAnLCAnLXRuJywgJzgnLCAnLW1hJywgJzIwMCcsICctbWV0YWxfYmluZGluZycsICctaW1hZScsICc8aW5maWxlLm1hZT4nLCAnLW9tYWUnLCAnPG91dGZpbGUubWFlPic=

> <r_lp_tautomer_probability>
1

> <r_epik_Ionization_Penalty>
1.45227

> <r_epik_Ionization_Penalty_Charging>
0

> <r_epik_Ionization_Penalty_Neutral>
1.45227

> <r_epik_State_Penalty>
2.02377

> <r_epik_Charging_Adjusted_Penalty>
2.02377

> <i_epik_Tot_Q>
0

> <i_epik_Tot_abs_Q>
0

> <r_epik_Metal_State_Penalty>
2.01937

> <b_epik_Metal_Only>
0

> <s_lp_Force_Field>
OPLS_2005

> <r_lp_Energy>
49.0818

> <b_lp_Chiralities_Consistent>
1

> <s_lp_Variant>
AV-unprocessed.smi:193-23

> <Gold.Version>
5.8.1

> <Gold.Id.Protein>
6NUR|6NUR_protein|mol2

> <Gold.PLP.Fitness>
46.5319

> <Gold.PLP.PLP>
-43.1885

> <Gold.PLP.part.hbond>
-2.0000

> <Gold.PLP.part.metal>
0.0000

> <Gold.PLP.part.buried>
-5.6583

> <Gold.PLP.part.nonpolar>
-37.1646

> <Gold.PLP.part.repulsive>
0.4546

> <Gold.PLP.ligand.clash>
0.0000

> <Gold.PLP.ligand.torsion>
1.9567

> <Gold.PLP.Chemscore.Hbond>
1.0000

> <Gold.PLP.Chemscore.CHOScore>
1.0000

> <Gold.PLP.Chemscore.Metal>
0.0000

> <Gold.Chemscore.Hbonds>
donor molecule, donor type, donor heavy atom, donor atom, acceptor molecule, acceptor atom, score
      L1  H    16    40       P1 10171  0.93
      L1  C    12    37       P1 10171  0.90

> <Gold.PLP.Chemscore.Internal.Correction>
1.2568

> <Gold.Rescore>
     Score         DG    S(hbond)    S(metal)    S(lipo)     H(rot)  DE(clash)    DE(int)     intcor
     14.91     -17.23       1.00        0.00     113.66       1.91       0.34       1.99       ----

> <Gold.Chemscore.Fitness>
14.9076

> <Gold.Chemscore.DG>
-17.2331

> <Gold.Chemscore.ZeroCoef>
-5.4800

> <Gold.Chemscore.Hbond>
0.9988

> <Gold.Chemscore.Metal>
0.0000

> <Gold.Chemscore.Lipo>
113.6617

> <Gold.Chemscore.Internal_Hbond>
0.0000

> <Gold.Chemscore.DEClash>
0.3365

> <Gold.Chemscore.DEInternal>
1.9890

> <Gold.Chemscore.Rot>
1.9068

> <Gold.Chemscore.Internal.Correction>
   9.000000E+99

> <Gold.Chemscore.Hbonds>
donor molecule, donor type, donor heavy atom, donor atom, acceptor molecule, acceptor atom, score
      L1  H    16    40       P1 10171  0.89

> <Gold.Chemscore.Hbond.Weighted>
-3.3361

> <Gold.Chemscore.Metal.Weighted>
-0.0000

> <Gold.Chemscore.Lipo.Weighted>
-13.2984

> <Gold.Chemscore.Internal_Hbond.Weighted>
0.0000

> <Gold.Chemscore.DEClash.Weighted>
0.3365

> <Gold.Chemscore.DEInternal.Weighted>
1.9890

> <Gold.Chemscore.Rot.Weighted>
4.8814

> <Gold.Chemscore.Internal.Correction.Weighted>
   9.000000E+99

> <Gold.Protein.RotatedTorsions>
[ 6907 6896 6895 6894 ] final   93.51 input  -60.11 | X-H torsion
[ 7974 7965 7964 7962 ] final  -33.86 input  175.53 | X-H torsion
[ 8008 7997 7996 7995 ] final -172.41 input   59.86 | X-H torsion
[ 10167 10162 10161 10158 ] final -111.77 input  -65.29 | X-H torsion
[ 10718 10713 10712 10709 ] final  -91.28 input   66.30 | X-H torsion
[ 10763 10752 10751 10750 ] final -121.95 input  -60.55 | X-H torsion
[ 11005 11000 10999 10996 ] final   45.57 input  -57.11 | X-H torsion

> <Gold.Protein.ActiveResidues>
 VAL166  LYS551  ARG553  GLY616  TRP617  ASP618  TYR619  PRO620  LYS621  CYS622 
 ASP623  PHE694  ASN695  SER759  ASP760  ASP761  ALA762  ILE779  LEU786  VAL792 
 PHE793  MET794  SER795  GLU796  ALA797  LYS798  CYS799  TRP800  GLU811  SER814 

> <Gold.Protein.RotatedAtoms>
  152.5452  134.1336  159.8449 H   0  0  0  0  0  0  0  0  0  0  0  0  # atno 6907 bound_to 6896
  151.1379  133.4984  159.2605 H   0  0  0  0  0  0  0  0  0  0  0  0  # atno 6908 bound_to 6896
  151.1604  135.0281  159.8762 H   0  0  0  0  0  0  0  0  0  0  0  0  # atno 6909 bound_to 6896
  146.0877  140.5968  142.8879 H   0  0  0  0  0  0  0  0  0  0  0  0  # atno 7974 bound_to 7965
  155.9442  140.1114  157.1030 H   0  0  0  0  0  0  0  0  0  0  0  0  # atno 8008 bound_to 7997
  154.4095  140.1213  156.5033 H   0  0  0  0  0  0  0  0  0  0  0  0  # atno 8009 bound_to 7997
  155.6923  140.3472  155.4901 H   0  0  0  0  0  0  0  0  0  0  0  0  # atno 8010 bound_to 7997
  140.1299  143.4369  152.1634 H   0  0  0  0  0  0  0  0  0  0  0  0  # atno 10167 bound_to 10162
  155.9993  130.4942  150.5451 H   0  0  0  0  0  0  0  0  0  0  0  0  # atno 10718 bound_to 10713
  154.8679  135.4150  154.2704 H   0  0  0  0  0  0  0  0  0  0  0  0  # atno 10763 bound_to 10752
  153.3615  135.7003  153.6714 H   0  0  0  0  0  0  0  0  0  0  0  0  # atno 10764 bound_to 10752
  153.5613  135.3609  155.2772 H   0  0  0  0  0  0  0  0  0  0  0  0  # atno 10765 bound_to 10752
  140.1447  134.4538  155.8424 H   0  0  0  0  0  0  0  0  0  0  0  0  # atno 11005 bound_to 11000
  144.7337  140.4747  143.6919 LP  0  0  0  0  0  0  0  0  0  0  0  0  # atno 17320 bound_to 7965
  145.6099  139.1512  143.3081 LP  0  0  0  0  0  0  0  0  0  0  0  0  # atno 17321 bound_to 7965
  139.5525  144.7348  151.4393 LP  0  0  0  0  0  0  0  0  0  0  0  0  # atno 17342 bound_to 10162
  140.6823  143.8054  150.7138 LP  0  0  0  0  0  0  0  0  0  0  0  0  # atno 17343 bound_to 10162
  157.3382  131.0712  151.1809 LP  0  0  0  0  0  0  0  0  0  0  0  0  # atno 17370 bound_to 10713
  157.2666  130.6684  149.5999 LP  0  0  0  0  0  0  0  0  0  0  0  0  # atno 17371 bound_to 10713
  141.2191  133.6847  156.7312 LP  0  0  0  0  0  0  0  0  0  0  0  0  # atno 17394 bound_to 11000
  140.2678  134.8416  157.3819 LP  0  0  0  0  0  0  0  0  0  0  0  0  # atno 17395 bound_to 11000

$$$$
