AV-unprocessed.smi:500|AV-procd|sdf|2734|dock1
  -GOLD-   2262023183D 1   1.00000     0.00000
 Structure written by MMmdl.
 45 47  0  0  0  0  0  0  0  0  1 V2000
  156.3626  139.5255  162.0153 C   0  0  0  0  0  0  0  0  0  0  0  0
  155.0069  139.3272  161.3234 C   0  0  0  0  0  0  0  0  0  0  0  0
  155.0543  139.6923  159.9510 O   0  0  0  0  0  0  0  0  0  0  0  0
  154.4315  138.7625  159.0783 C   0  0  0  0  0  0  0  0  0  0  0  0
  153.0283  138.4511  159.6135 C   0  0  0  0  0  0  0  0  0  0  0  0
  152.0387  139.3943  159.1141 N   0  0  0  0  0  0  0  0  0  0  0  0
  150.8361  139.1361  158.5357 C   0  0  0  0  0  0  0  0  0  0  0  0
  150.3187  137.7361  158.3135 C   0  0  2  0  0  0  0  0  0  0  0  0
  149.6122  137.5870  156.9590 C   0  0  0  0  0  0  0  0  0  0  0  0
  149.4034  137.4057  159.4029 N   0  0  0  0  0  0  0  0  0  0  0  0
  148.7908  136.2219  159.5662 C   0  0  0  0  0  0  0  0  0  0  0  0
  148.9154  135.2802  158.7831 O   0  0  0  0  0  0  0  0  0  0  0  0
  147.9324  136.1025  160.7594 C   0  0  0  0  0  0  0  0  0  0  0  0
  147.3304  135.0157  161.3376 C   0  0  0  0  0  0  0  0  0  0  0  0
  146.6086  135.5013  162.4628 C   0  0  0  0  0  0  0  0  0  0  0  0
  146.8182  136.8500  162.4901 C   0  0  0  0  0  0  0  0  0  0  0  0
  147.6190  137.2320  161.4586 O   0  0  0  0  0  0  0  0  0  0  0  0
  150.1257  140.2111  158.1833 N   0  0  0  0  0  0  0  0  0  0  0  0
  150.9437  141.2577  158.5568 C   0  0  0  0  0  0  0  0  0  0  0  0
  150.7558  142.6538  158.4439 C   0  0  0  0  0  0  0  0  0  0  0  0
  151.7477  143.5465  158.8996 C   0  0  0  0  0  0  0  0  0  0  0  0
  152.9386  143.0566  159.4734 C   0  0  0  0  0  0  0  0  0  0  0  0
  153.1451  141.6690  159.5959 C   0  0  0  0  0  0  0  0  0  0  0  0
  152.1511  140.7815  159.1403 C   0  0  0  0  0  0  0  0  0  0  0  0
  156.3301  139.1505  163.0386 H   0  0  0  0  0  0  0  0  0  0  0  0
  156.6458  140.5766  162.0634 H   0  0  0  0  0  0  0  0  0  0  0  0
  157.1517  138.9877  161.4896 H   0  0  0  0  0  0  0  0  0  0  0  0
  154.7409  138.2711  161.3713 H   0  0  0  0  0  0  0  0  0  0  0  0
  154.2166  139.8688  161.8451 H   0  0  0  0  0  0  0  0  0  0  0  0
  154.3607  139.1815  158.0734 H   0  0  0  0  0  0  0  0  0  0  0  0
  155.0188  137.8473  159.0119 H   0  0  0  0  0  0  0  0  0  0  0  0
  152.7243  137.4368  159.3560 H   0  0  0  0  0  0  0  0  0  0  0  0
  153.0327  138.4905  160.7030 H   0  0  0  0  0  0  0  0  0  0  0  0
  151.1382  137.0190  158.3261 H   0  0  0  0  0  0  0  0  0  0  0  0
  150.2888  137.8255  156.1379 H   0  0  0  0  0  0  0  0  0  0  0  0
  148.7499  138.2502  156.8817 H   0  0  0  0  0  0  0  0  0  0  0  0
  149.2605  136.5657  156.8105 H   0  0  0  0  0  0  0  0  0  0  0  0
  149.2446  138.1210  160.0974 H   0  0  0  0  0  0  0  0  0  0  0  0
  147.3982  133.9941  160.9930 H   0  0  0  0  0  0  0  0  0  0  0  0
  146.0103  134.9359  163.1619 H   0  0  0  0  0  0  0  0  0  0  0  0
  146.4886  137.6482  163.1386 H   0  0  0  0  0  0  0  0  0  0  0  0
  149.8469  143.0385  158.0055 H   0  0  0  0  0  0  0  0  0  0  0  0
  151.5943  144.6117  158.8079 H   0  0  0  0  0  0  0  0  0  0  0  0
  153.6940  143.7467  159.8197 H   0  0  0  0  0  0  0  0  0  0  0  0
  154.0576  141.2935  160.0347 H   0  0  0  0  0  0  0  0  0  0  0  0
  1  2  1  0  0  0  0
  1 25  1  0  0  0  0
  1 26  1  0  0  0  0
  1 27  1  0  0  0  0
  2  3  1  0  0  0  0
  2 28  1  0  0  0  0
  2 29  1  0  0  0  0
  3  4  1  0  0  0  0
  4  5  1  0  0  0  0
  4 30  1  0  0  0  0
  4 31  1  0  0  0  0
  5  6  1  0  0  0  0
  5 32  1  0  0  0  0
  5 33  1  0  0  0  0
  6 24  1  0  0  0  0
  6  7  1  0  0  0  0
  7  8  1  0  0  0  0
  7 18  2  0  0  0  0
  8  9  1  0  0  0  0
  8 10  1  0  0  0  0
  8 34  1  0  0  0  0
  9 35  1  0  0  0  0
  9 36  1  0  0  0  0
  9 37  1  0  0  0  0
 10 11  1  0  0  0  0
 10 38  1  0  0  0  0
 11 12  2  0  0  0  0
 11 13  1  0  0  0  0
 13 17  1  0  0  0  0
 13 14  2  0  0  0  0
 14 15  1  0  0  0  0
 14 39  1  0  0  0  0
 15 16  2  0  0  0  0
 15 40  1  0  0  0  0
 16 17  1  0  0  0  0
 16 41  1  0  0  0  0
 18 19  1  0  0  0  0
 19 24  2  0  0  0  0
 19 20  1  0  0  0  0
 20 21  2  0  0  0  0
 20 42  1  0  0  0  0
 21 22  1  0  0  0  0
 21 43  1  0  0  0  0
 22 23  2  0  0  0  0
 22 44  1  0  0  0  0
 23 24  1  0  0  0  0
 23 45  1  0  0  0  0
M  END
> <s_m_source_file>
AV-unprocessed.smi

> <i_m_source_file_index>
500

> <i_lp_mmshare_version>
43012

> <i_f3d_flags>
0

> <s_epik_input>
W0NIM11bQ0gyXU9bQ0gyXVtDSDJdbihjKGMxMilbY0hdW2NIXVtjSF1bY0hdMiljKG4xKVtDQEhdKFtDSDNdKVtOSF1DKD1PKWMzW2NIXVtjSF1bY0hdbzM=

> <s_epik_cmdline>
J2VwaWtfcHl0aG9uJywgJy1waCcsICc3LjAnLCAnLXRuJywgJzgnLCAnLW1hJywgJzIwMCcsICctbWV0YWxfYmluZGluZycsICctaW1hZScsICc8aW5maWxlLm1hZT4nLCAnLW9tYWUnLCAnPG91dGZpbGUubWFlPic=

> <r_epik_Ionization_Penalty>
0.109801

> <r_epik_Ionization_Penalty_Charging>
0

> <r_epik_Ionization_Penalty_Neutral>
0.109801

> <r_epik_State_Penalty>
0.0995533

> <r_epik_Charging_Adjusted_Penalty>
0.0995533

> <i_epik_Tot_Q>
0

> <i_epik_Tot_abs_Q>
0

> <r_epik_Metal_State_Penalty>
0.0918163

> <b_epik_Metal_Only>
0

> <s_lp_Force_Field>
OPLS_2005

> <r_lp_Energy>
8.25657

> <b_lp_Chiralities_Consistent>
1

> <s_lp_Variant>
AV-unprocessed.smi:500-1

> <Gold.Version>
5.8.1

> <Gold.Id.Protein>
6NUR|6NUR_protein|mol2

> <Gold.PLP.Fitness>
48.6644

> <Gold.PLP.PLP>
-42.6456

> <Gold.PLP.part.hbond>
-3.0000

> <Gold.PLP.part.metal>
0.0000

> <Gold.PLP.part.buried>
-6.0470

> <Gold.PLP.part.nonpolar>
-34.3296

> <Gold.PLP.part.repulsive>
0.4454

> <Gold.PLP.ligand.clash>
0.0000

> <Gold.PLP.ligand.torsion>
1.2605

> <Gold.PLP.Chemscore.Hbond>
2.7920

> <Gold.PLP.Chemscore.CHOScore>
0.0000

> <Gold.PLP.Chemscore.Metal>
0.0000

> <Gold.Chemscore.Hbonds>
donor molecule, donor type, donor heavy atom, donor atom, acceptor molecule, acceptor atom, score
      P1  H  6896  6908       L1    12  0.94
      P1  H  6931  6943       L1    17  0.96
      P1  H  6934  6947       L1    17  0.82

> <Gold.PLP.Chemscore.Internal.Correction>
0.1637

> <Gold.Rescore>
     Score         DG    S(hbond)    S(metal)    S(lipo)     H(rot)  DE(clash)    DE(int)     intcor
     19.75     -21.14       2.27        0.00     111.03       1.92       0.15       1.25       ----

> <Gold.Chemscore.Fitness>
19.7482

> <Gold.Chemscore.DG>
-21.1402

> <Gold.Chemscore.ZeroCoef>
-5.4800

> <Gold.Chemscore.Hbond>
2.2676

> <Gold.Chemscore.Metal>
0.0000

> <Gold.Chemscore.Lipo>
111.0307

> <Gold.Chemscore.Internal_Hbond>
0.0000

> <Gold.Chemscore.DEClash>
0.1455

> <Gold.Chemscore.DEInternal>
1.2466

> <Gold.Chemscore.Rot>
1.9156

> <Gold.Chemscore.Internal.Correction>
   9.000000E+99

> <Gold.Chemscore.Hbonds>
donor molecule, donor type, donor heavy atom, donor atom, acceptor molecule, acceptor atom, score
      P1  H  6896  6908       L1    12  0.31
      P1  H  6931  6943       L1    17  0.76
      P1  H  6934  6947       L1    17  0.60

> <Gold.Chemscore.Hbond.Weighted>
-7.5737

> <Gold.Chemscore.Metal.Weighted>
-0.0000

> <Gold.Chemscore.Lipo.Weighted>
-12.9906

> <Gold.Chemscore.Internal_Hbond.Weighted>
0.0000

> <Gold.Chemscore.DEClash.Weighted>
0.1455

> <Gold.Chemscore.DEInternal.Weighted>
1.2466

> <Gold.Chemscore.Rot.Weighted>
4.9041

> <Gold.Chemscore.Internal.Correction.Weighted>
   9.000000E+99

> <Gold.Protein.RotatedTorsions>
[ 6907 6896 6895 6894 ] final  156.94 input  -60.11 | X-H torsion
[ 7974 7965 7964 7962 ] final  -71.99 input  175.53 | X-H torsion
[ 8008 7997 7996 7995 ] final -107.14 input   59.86 | X-H torsion
[ 10167 10162 10161 10158 ] final  165.26 input  -65.29 | X-H torsion
[ 10718 10713 10712 10709 ] final  -22.47 input   66.30 | X-H torsion
[ 10763 10752 10751 10750 ] final  -25.35 input  -60.55 | X-H torsion
[ 11005 11000 10999 10996 ] final  -39.32 input  -57.11 | X-H torsion

> <Gold.Protein.ActiveResidues>
 VAL166  LYS551  ARG553  GLY616  TRP617  ASP618  TYR619  PRO620  LYS621  CYS622 
 ASP623  PHE694  ASN695  SER759  ASP760  ASP761  ALA762  ILE779  LEU786  VAL792 
 PHE793  MET794  SER795  GLU796  ALA797  LYS798  CYS799  TRP800  GLU811  SER814 

> <Gold.Protein.RotatedAtoms>
  152.0224  133.3904  159.4263 H   0  0  0  0  0  0  0  0  0  0  0  0  # atno 6907 bound_to 6896
  150.6889  134.3611  159.4960 H   0  0  0  0  0  0  0  0  0  0  0  0  # atno 6908 bound_to 6896
  152.1387  134.9079  160.0605 H   0  0  0  0  0  0  0  0  0  0  0  0  # atno 6909 bound_to 6896
  145.6709  140.9221  143.0883 H   0  0  0  0  0  0  0  0  0  0  0  0  # atno 7974 bound_to 7965
  154.9249  140.0406  157.2017 H   0  0  0  0  0  0  0  0  0  0  0  0  # atno 8008 bound_to 7997
  154.8217  140.2885  155.5760 H   0  0  0  0  0  0  0  0  0  0  0  0  # atno 8009 bound_to 7997
  156.2980  140.2517  156.3126 H   0  0  0  0  0  0  0  0  0  0  0  0  # atno 8010 bound_to 7997
  139.4903  144.4150  151.9254 H   0  0  0  0  0  0  0  0  0  0  0  0  # atno 10167 bound_to 10162
  156.5040  130.4594  149.6685 H   0  0  0  0  0  0  0  0  0  0  0  0  # atno 10718 bound_to 10713
  153.6984  135.6958  153.5070 H   0  0  0  0  0  0  0  0  0  0  0  0  # atno 10763 bound_to 10752
  153.2361  135.4321  155.0647 H   0  0  0  0  0  0  0  0  0  0  0  0  # atno 10764 bound_to 10752
  154.8352  135.3496  154.6524 H   0  0  0  0  0  0  0  0  0  0  0  0  # atno 10765 bound_to 10752
  141.0093  133.6916  156.2171 H   0  0  0  0  0  0  0  0  0  0  0  0  # atno 11005 bound_to 11000
  144.7057  139.8571  143.7430 LP  0  0  0  0  0  0  0  0  0  0  0  0  # atno 17320 bound_to 7965
  146.1046  139.4045  143.0325 LP  0  0  0  0  0  0  0  0  0  0  0  0  # atno 17321 bound_to 7965
  140.3592  144.2993  150.5936 LP  0  0  0  0  0  0  0  0  0  0  0  0  # atno 17342 bound_to 10162
  140.5417  143.2222  151.8073 LP  0  0  0  0  0  0  0  0  0  0  0  0  # atno 17343 bound_to 10162
  156.3304  130.7328  151.2257 LP  0  0  0  0  0  0  0  0  0  0  0  0  # atno 17370 bound_to 10713
  157.7459  131.0431  150.4728 LP  0  0  0  0  0  0  0  0  0  0  0  0  # atno 17371 bound_to 10713
  140.6760  134.4818  157.5588 LP  0  0  0  0  0  0  0  0  0  0  0  0  # atno 17394 bound_to 11000
  139.9081  134.8405  156.1630 LP  0  0  0  0  0  0  0  0  0  0  0  0  # atno 17395 bound_to 11000

$$$$
