AV-unprocessed.smi:1149|AV-procd|sdf|4890|dock2
  -GOLD-   22720 3463D 1   1.00000     0.00000
 Structure written by MMmdl.
 51 52  0  0  0  0  0  0  0  0  2 V2000
  151.0113  141.8017  158.1612 C   0  0  0  0  0  0  0  0  0  0  0  0
  151.2956  141.5364  156.7919 O   0  0  0  0  0  0  0  0  0  0  0  0
  150.8536  140.3473  156.2494 C   0  0  0  0  0  0  0  0  0  0  0  0
  150.4440  139.3196  157.1219 C   0  0  0  0  0  0  0  0  0  0  0  0
  149.9980  138.1004  156.5773 C   0  0  0  0  0  0  0  0  0  0  0  0
  149.9832  137.9445  155.1709 C   0  0  0  0  0  0  0  0  0  0  0  0
  149.5425  136.7707  154.5021 N   0  0  0  0  0  0  0  0  0  0  0  0
  149.0627  135.6359  155.0392 C   0  0  0  0  0  0  0  0  0  0  0  0
  148.9357  135.4177  156.2437 O   0  0  0  0  0  0  0  0  0  0  0  0
  148.7455  134.7467  154.0874 N   0  0  0  0  0  0  0  0  0  0  0  0
  148.2039  133.4064  154.3167 C   0  0  0  0  0  0  0  0  0  0  0  0
  146.6641  133.3140  154.0926 C   0  0  0  0  0  0  0  0  0  0  0  0
  146.1883  131.9060  154.5233 C   0  0  0  0  0  0  0  0  0  0  0  0
  145.9862  134.3627  155.0110 C   0  0  0  0  0  0  0  0  0  0  0  0
  146.3260  133.6007  152.6718 N   0  0  0  0  0  0  0  0  0  0  0  0
  144.9267  133.9948  152.4360 C   0  0  0  0  0  0  0  0  0  0  0  0
  144.7489  134.5147  150.9953 C   0  0  0  0  0  0  0  0  0  0  0  0
  145.1365  133.4932  149.9965 N   0  3  0  0  0  0  0  0  0  0  0  0
  144.1321  132.4195  149.8142 C   0  0  0  0  0  0  0  0  0  0  0  0
  146.5029  132.9967  150.2772 C   0  0  0  0  0  0  0  0  0  0  0  0
  146.6389  132.5097  151.7337 C   0  0  0  0  0  0  0  0  0  0  0  0
  150.3958  139.0402  154.3850 C   0  0  0  0  0  0  0  0  0  0  0  0
  150.8257  140.2112  154.9004 N   0  0  0  0  0  0  0  0  0  0  0  0
  151.4124  142.7789  158.4299 H   0  0  0  0  0  0  0  0  0  0  0  0
  151.4761  141.0623  158.8149 H   0  0  0  0  0  0  0  0  0  0  0  0
  149.9369  141.8226  158.3497 H   0  0  0  0  0  0  0  0  0  0  0  0
  150.4684  139.4643  158.1918 H   0  0  0  0  0  0  0  0  0  0  0  0
  149.6666  137.3206  157.2451 H   0  0  0  0  0  0  0  0  0  0  0  0
  149.6674  136.7714  153.5003 H   0  0  0  0  0  0  0  0  0  0  0  0
  148.8845  135.0170  153.1251 H   0  0  0  0  0  0  0  0  0  0  0  0
  148.7415  132.7130  153.6712 H   0  0  0  0  0  0  0  0  0  0  0  0
  148.4502  133.0690  155.3252 H   0  0  0  0  0  0  0  0  0  0  0  0
  146.4309  131.7235  155.5710 H   0  0  0  0  0  0  0  0  0  0  0  0
  146.6673  131.1125  153.9499 H   0  0  0  0  0  0  0  0  0  0  0  0
  145.1097  131.7838  154.4275 H   0  0  0  0  0  0  0  0  0  0  0  0
  146.3893  134.3164  156.0233 H   0  0  0  0  0  0  0  0  0  0  0  0
  144.9133  134.2003  155.1109 H   0  0  0  0  0  0  0  0  0  0  0  0
  146.1377  135.3802  154.6488 H   0  0  0  0  0  0  0  0  0  0  0  0
  144.2517  133.1605  152.6268 H   0  0  0  0  0  0  0  0  0  0  0  0
  144.6262  134.8010  153.1016 H   0  0  0  0  0  0  0  0  0  0  0  0
  143.7182  134.8287  150.8261 H   0  0  0  0  0  0  0  0  0  0  0  0
  145.3679  135.4010  150.8478 H   0  0  0  0  0  0  0  0  0  0  0  0
  143.9956  131.8295  150.7205 H   0  0  0  0  0  0  0  0  0  0  0  0
  144.4367  131.7448  149.0137 H   0  0  0  0  0  0  0  0  0  0  0  0
  143.1664  132.8439  149.5379 H   0  0  0  0  0  0  0  0  0  0  0  0
  146.7596  132.1976  149.5809 H   0  0  0  0  0  0  0  0  0  0  0  0
  147.2137  133.8040  150.0938 H   0  0  0  0  0  0  0  0  0  0  0  0
  147.6620  132.1628  151.8593 H   0  0  0  0  0  0  0  0  0  0  0  0
  145.9917  131.6503  151.9093 H   0  0  0  0  0  0  0  0  0  0  0  0
  150.3867  138.9751  153.3065 H   0  0  0  0  0  0  0  0  0  0  0  0
  145.1830  133.9689  149.1067 H   0  0  0  0  0  0  0  0  0  0  0  0
  1  2  1  0  0  0  0
  1 24  1  0  0  0  0
  1 25  1  0  0  0  0
  1 26  1  0  0  0  0
  2  3  1  0  0  0  0
  3 23  1  0  0  0  0
  3  4  2  0  0  0  0
  4  5  1  0  0  0  0
  4 27  1  0  0  0  0
  5  6  2  0  0  0  0
  5 28  1  0  0  0  0
  6  7  1  0  0  0  0
  6 22  1  0  0  0  0
  7  8  1  0  0  0  0
  7 29  1  0  0  0  0
  8  9  2  0  0  0  0
  8 10  1  0  0  0  0
 10 11  1  0  0  0  0
 10 30  1  0  0  0  0
 11 12  1  0  0  0  0
 11 31  1  0  0  0  0
 11 32  1  0  0  0  0
 12 13  1  0  0  0  0
 12 14  1  0  0  0  0
 12 15  1  0  0  0  0
 13 33  1  0  0  0  0
 13 34  1  0  0  0  0
 13 35  1  0  0  0  0
 14 36  1  0  0  0  0
 14 37  1  0  0  0  0
 14 38  1  0  0  0  0
 15 21  1  0  0  0  0
 15 16  1  0  0  0  0
 16 17  1  0  0  0  0
 16 39  1  0  0  0  0
 16 40  1  0  0  0  0
 17 18  1  0  0  0  0
 17 41  1  0  0  0  0
 17 42  1  0  0  0  0
 18 19  1  0  0  0  0
 18 20  1  0  0  0  0
 18 51  1  0  0  0  0
 19 43  1  0  0  0  0
 19 44  1  0  0  0  0
 19 45  1  0  0  0  0
 20 21  1  0  0  0  0
 20 46  1  0  0  0  0
 20 47  1  0  0  0  0
 21 48  1  0  0  0  0
 21 49  1  0  0  0  0
 22 23  2  0  0  0  0
 22 50  1  0  0  0  0
M  CHG  1  18   1
M  END
> <s_m_source_file>
AV-unprocessed.smi

> <i_m_source_file_index>
1149

> <i_lp_mmshare_version>
43012

> <i_f3d_flags>
0

> <s_epik_input>
W0NIM11PYzFbY0hdW2NIXWMoW2NIXW4xKVtOSF1DKD1PKVtOSF1bQ0gyXUMoW0NIM10pKFtDSDNdKU4yW0NIMl1bQ0gyXU4oW0NIM10pW0NIMl1bQ0gyXTI=

> <s_epik_cmdline>
J2VwaWtfcHl0aG9uJywgJy1waCcsICc3LjAnLCAnLXRuJywgJzgnLCAnLW1hJywgJzIwMCcsICctbWV0YWxfYmluZGluZycsICctaW1hZScsICc8aW5maWxlLm1hZT4nLCAnLW9tYWUnLCAnPG91dGZpbGUubWFlPic=

> <r_lp_tautomer_probability>
1

> <r_epik_Ionization_Penalty>
0.0248754

> <r_epik_Ionization_Penalty_Charging>
0.0238192

> <r_epik_Ionization_Penalty_Neutral>
0.00105627

> <r_epik_State_Penalty>
0.139266

> <r_epik_Charging_Adjusted_Penalty>
0.163085

> <i_epik_Tot_Q>
1

> <i_epik_Tot_abs_Q>
1

> <r_epik_Metal_State_Penalty>
0.139265

> <b_epik_Metal_Only>
0

> <s_lp_Force_Field>
OPLS_2005

> <r_lp_Energy>
29.3026

> <b_lp_Chiralities_Consistent>
1

> <s_lp_Variant>
AV-unprocessed.smi:1149-1

> <Gold.Version>
5.8.1

> <Gold.Id.Protein>
6NUR|6NUR_protein|mol2

> <Gold.PLP.Fitness>
43.7784

> <Gold.PLP.PLP>
-30.3928

> <Gold.PLP.part.hbond>
-4.0000

> <Gold.PLP.part.metal>
0.0000

> <Gold.PLP.part.buried>
-3.7952

> <Gold.PLP.part.nonpolar>
-22.1963

> <Gold.PLP.part.repulsive>
0.3585

> <Gold.PLP.ligand.clash>
0.0000

> <Gold.PLP.ligand.torsion>
0.7547

> <Gold.PLP.Chemscore.Hbond>
3.9440

> <Gold.PLP.Chemscore.CHOScore>
1.0000

> <Gold.PLP.Chemscore.Metal>
0.0000

> <Gold.Chemscore.Hbonds>
donor molecule, donor type, donor heavy atom, donor atom, acceptor molecule, acceptor atom, score
      L1  H     7    29       P1  7948  0.94
      L1  H    10    30       P1  7948  1.00
      L1  H    18    51       P1  7921  1.00
      P1  H  7989  7998       L1    23  1.00
      L1  C    22    50       P1  7957  1.00

> <Gold.PLP.Chemscore.Internal.Correction>
0.0630

> <Gold.Rescore>
     Score         DG    S(hbond)    S(metal)    S(lipo)     H(rot)  DE(clash)    DE(int)     intcor
     18.00     -19.90       3.13        0.00      71.41       1.72       0.16       1.74       ----

> <Gold.Chemscore.Fitness>
18.0002

> <Gold.Chemscore.DG>
-19.8974

> <Gold.Chemscore.ZeroCoef>
-5.4800

> <Gold.Chemscore.Hbond>
3.1345

> <Gold.Chemscore.Metal>
0.0000

> <Gold.Chemscore.Lipo>
71.4077

> <Gold.Chemscore.Internal_Hbond>
0.0000

> <Gold.Chemscore.DEClash>
0.1567

> <Gold.Chemscore.DEInternal>
1.7405

> <Gold.Chemscore.Rot>
1.7213

> <Gold.Chemscore.Internal.Correction>
   9.000000E+99

> <Gold.Chemscore.Hbonds>
donor molecule, donor type, donor heavy atom, donor atom, acceptor molecule, acceptor atom, score
      L1  H     7    29       P1  7948  0.55
      L1  H    10    30       P1  7948  0.29
      L1  H    18    51       P1  7921  0.89
      P1  H  7989  7998       L1    23  0.26

> <Gold.Chemscore.Hbond.Weighted>
-10.4693

> <Gold.Chemscore.Metal.Weighted>
-0.0000

> <Gold.Chemscore.Lipo.Weighted>
-8.3547

> <Gold.Chemscore.Internal_Hbond.Weighted>
0.0000

> <Gold.Chemscore.DEClash.Weighted>
0.1567

> <Gold.Chemscore.DEInternal.Weighted>
1.7405

> <Gold.Chemscore.Rot.Weighted>
4.4066

> <Gold.Chemscore.Internal.Correction.Weighted>
   9.000000E+99

> <Gold.Protein.RotatedTorsions>
[ 6907 6896 6895 6894 ] final -100.46 input  -60.11 | X-H torsion
[ 7974 7965 7964 7962 ] final -120.98 input  175.53 | X-H torsion
[ 8008 7997 7996 7995 ] final   40.05 input   59.86 | X-H torsion
[ 10167 10162 10161 10158 ] final -101.81 input  -65.29 | X-H torsion
[ 10718 10713 10712 10709 ] final -151.69 input   66.30 | X-H torsion
[ 10763 10752 10751 10750 ] final   79.55 input  -60.55 | X-H torsion
[ 11005 11000 10999 10996 ] final   64.37 input  -57.11 | X-H torsion

> <Gold.Protein.ActiveResidues>
 VAL166  LYS551  ARG553  GLY616  TRP617  ASP618  TYR619  PRO620  LYS621  CYS622 
 ASP623  PHE694  ASN695  SER759  ASP760  ASP761  ALA762  ILE779  LEU786  VAL792 
 PHE793  MET794  SER795  GLU796  ALA797  LYS798  CYS799  TRP800  GLU811  SER814 

> <Gold.Protein.RotatedAtoms>
  150.7117  134.0883  159.3922 H   0  0  0  0  0  0  0  0  0  0  0  0  # atno 6907 bound_to 6896
  151.8868  135.0430  160.0503 H   0  0  0  0  0  0  0  0  0  0  0  0  # atno 6908 bound_to 6896
  152.2523  133.5190  159.5369 H   0  0  0  0  0  0  0  0  0  0  0  0  # atno 6909 bound_to 6896
  145.0454  140.8177  143.4241 H   0  0  0  0  0  0  0  0  0  0  0  0  # atno 7974 bound_to 7965
  155.2467  140.3349  155.4286 H   0  0  0  0  0  0  0  0  0  0  0  0  # atno 8008 bound_to 7997
  156.2233  140.1818  156.7469 H   0  0  0  0  0  0  0  0  0  0  0  0  # atno 8009 bound_to 7997
  154.5859  140.0646  156.9155 H   0  0  0  0  0  0  0  0  0  0  0  0  # atno 8010 bound_to 7997
  140.2374  143.3563  152.0833 H   0  0  0  0  0  0  0  0  0  0  0  0  # atno 10167 bound_to 10162
  156.4625  130.8220  151.2451 H   0  0  0  0  0  0  0  0  0  0  0  0  # atno 10718 bound_to 10713
  153.0962  135.4835  154.8782 H   0  0  0  0  0  0  0  0  0  0  0  0  # atno 10763 bound_to 10752
  154.7327  135.3064  154.8867 H   0  0  0  0  0  0  0  0  0  0  0  0  # atno 10764 bound_to 10752
  153.9498  135.6824  153.4797 H   0  0  0  0  0  0  0  0  0  0  0  0  # atno 10765 bound_to 10752
  139.9963  134.6512  156.0005 H   0  0  0  0  0  0  0  0  0  0  0  0  # atno 11005 bound_to 11000
  145.1595  139.2467  143.5399 LP  0  0  0  0  0  0  0  0  0  0  0  0  # atno 17320 bound_to 7965
  146.3513  140.1318  142.8597 LP  0  0  0  0  0  0  0  0  0  0  0  0  # atno 17321 bound_to 7965
  139.5089  144.6858  151.5891 LP  0  0  0  0  0  0  0  0  0  0  0  0  # atno 17342 bound_to 10162
  140.6140  143.9384  150.6474 LP  0  0  0  0  0  0  0  0  0  0  0  0  # atno 17343 bound_to 10162
  157.7497  131.0102  150.3298 LP  0  0  0  0  0  0  0  0  0  0  0  0  # atno 17370 bound_to 10713
  156.3701  130.3862  149.7182 LP  0  0  0  0  0  0  0  0  0  0  0  0  # atno 17371 bound_to 10713
  141.1607  133.6539  156.4309 LP  0  0  0  0  0  0  0  0  0  0  0  0  # atno 17394 bound_to 11000
  140.4812  134.6663  157.5172 LP  0  0  0  0  0  0  0  0  0  0  0  0  # atno 17395 bound_to 11000

$$$$
