AV-unprocessed.smi:2319|AV-procd|sdf|9277|dock10
  -GOLD-   2272012503D 1   1.00000     0.00000
 Structure written by MMmdl.
 46 47  0  0  0  0  0  0  0  0  1 V2000
  152.4041  138.0055  154.6061 C   0  0  0  0  0  0  0  0  0  0  0  0
  151.0265  137.4020  154.8997 C   0  0  0  0  0  0  0  0  0  0  0  0
  151.0942  135.9806  155.3516 C   0  0  0  0  0  0  0  0  0  0  0  0
  152.0033  135.6785  156.3154 O   0  0  0  0  0  0  0  0  0  0  0  0
  151.9336  134.3042  156.5905 N   0  0  0  0  0  0  0  0  0  0  0  0
  150.9994  133.8032  155.7956 C   0  0  0  0  0  0  0  0  0  0  0  0
  150.7422  132.3221  155.8162 C   0  0  0  0  0  0  0  0  0  0  0  0
  150.4210  134.8446  155.0120 C   0  0  0  0  0  0  0  0  0  0  0  0
  149.4174  134.7736  154.0140 N   0  0  0  0  0  0  0  0  0  0  0  0
  148.4483  133.8520  153.9110 C   0  0  0  0  0  0  0  0  0  0  0  0
  148.2824  132.9141  154.6899 O   0  0  0  0  0  0  0  0  0  0  0  0
  147.6556  134.0953  152.8590 N   0  0  0  0  0  0  0  0  0  0  0  0
  146.4854  133.3028  152.4866 C   0  0  2  0  0  0  0  0  0  0  0  0
  146.7529  132.4571  151.2573 C   0  0  0  0  0  0  0  0  0  0  0  0
  145.3488  132.2103  150.6911 C   0  0  0  0  0  0  0  0  0  0  0  0
  145.3317  132.2089  149.1549 C   0  0  0  0  0  0  0  0  0  0  0  0
  144.7226  130.9216  151.2505 C   0  0  0  0  0  0  0  0  0  0  0  0
  144.5533  133.3020  151.1520 O   0  0  0  0  0  0  0  0  0  0  0  0
  145.2704  134.1485  152.0489 C   0  0  0  0  0  0  0  0  0  0  0  0
  144.3389  134.4876  153.2231 C   0  0  0  0  0  0  0  0  0  0  0  0
  145.6334  135.4229  151.2574 C   0  0  0  0  0  0  0  0  0  0  0  0
  152.3132  139.0414  154.2788 H   0  0  0  0  0  0  0  0  0  0  0  0
  152.9159  137.4505  153.8194 H   0  0  0  0  0  0  0  0  0  0  0  0
  153.0380  137.9913  155.4934 H   0  0  0  0  0  0  0  0  0  0  0  0
  150.5266  137.9978  155.6639 H   0  0  0  0  0  0  0  0  0  0  0  0
  150.4043  137.4721  154.0071 H   0  0  0  0  0  0  0  0  0  0  0  0
  150.4667  131.9553  154.8275 H   0  0  0  0  0  0  0  0  0  0  0  0
  149.9346  132.0747  156.5052 H   0  0  0  0  0  0  0  0  0  0  0  0
  151.6264  131.7676  156.1322 H   0  0  0  0  0  0  0  0  0  0  0  0
  149.3680  135.5569  153.3792 H   0  0  0  0  0  0  0  0  0  0  0  0
  147.8657  134.8942  152.2788 H   0  0  0  0  0  0  0  0  0  0  0  0
  146.2033  132.6336  153.3021 H   0  0  0  0  0  0  0  0  0  0  0  0
  147.3562  133.0190  150.5423 H   0  0  0  0  0  0  0  0  0  0  0  0
  147.2922  131.5368  151.4855 H   0  0  0  0  0  0  0  0  0  0  0  0
  145.9443  131.4007  148.7544 H   0  0  0  0  0  0  0  0  0  0  0  0
  145.7151  133.1478  148.7539 H   0  0  0  0  0  0  0  0  0  0  0  0
  144.3185  132.0800  148.7731 H   0  0  0  0  0  0  0  0  0  0  0  0
  145.2910  130.0423  150.9460 H   0  0  0  0  0  0  0  0  0  0  0  0
  143.7001  130.7946  150.8934 H   0  0  0  0  0  0  0  0  0  0  0  0
  144.6890  130.9336  152.3401 H   0  0  0  0  0  0  0  0  0  0  0  0
  144.8305  135.1423  153.9428 H   0  0  0  0  0  0  0  0  0  0  0  0
  144.0250  133.5874  153.7522 H   0  0  0  0  0  0  0  0  0  0  0  0
  143.4381  134.9950  152.8770 H   0  0  0  0  0  0  0  0  0  0  0  0
  146.1500  136.1509  151.8833 H   0  0  0  0  0  0  0  0  0  0  0  0
  144.7370  135.9076  150.8695 H   0  0  0  0  0  0  0  0  0  0  0  0
  146.2757  135.1999  150.4055 H   0  0  0  0  0  0  0  0  0  0  0  0
  1  2  1  0  0  0  0
  1 22  1  0  0  0  0
  1 23  1  0  0  0  0
  1 24  1  0  0  0  0
  2  3  1  0  0  0  0
  2 25  1  0  0  0  0
  2 26  1  0  0  0  0
  3  8  2  0  0  0  0
  3  4  1  0  0  0  0
  4  5  1  0  0  0  0
  5  6  2  0  0  0  0
  6  7  1  0  0  0  0
  6  8  1  0  0  0  0
  7 27  1  0  0  0  0
  7 28  1  0  0  0  0
  7 29  1  0  0  0  0
  8  9  1  0  0  0  0
  9 10  1  0  0  0  0
  9 30  1  0  0  0  0
 10 11  2  0  0  0  0
 10 12  1  0  0  0  0
 12 13  1  0  0  0  0
 12 31  1  0  0  0  0
 13 19  1  0  0  0  0
 13 14  1  0  0  0  0
 13 32  1  0  0  0  0
 14 15  1  0  0  0  0
 14 33  1  0  0  0  0
 14 34  1  0  0  0  0
 15 16  1  0  0  0  0
 15 17  1  0  0  0  0
 15 18  1  0  0  0  0
 16 35  1  0  0  0  0
 16 36  1  0  0  0  0
 16 37  1  0  0  0  0
 17 38  1  0  0  0  0
 17 39  1  0  0  0  0
 17 40  1  0  0  0  0
 18 19  1  0  0  0  0
 19 20  1  0  0  0  0
 19 21  1  0  0  0  0
 20 41  1  0  0  0  0
 20 42  1  0  0  0  0
 20 43  1  0  0  0  0
 21 44  1  0  0  0  0
 21 45  1  0  0  0  0
 21 46  1  0  0  0  0
M  END
> <s_m_source_file>
AV-unprocessed.smi

> <i_m_source_file_index>
2319

> <i_lp_mmshare_version>
43012

> <i_f3d_flags>
0

> <s_epik_input>
W0NIM11bQ0gyXWMxb25jKFtDSDNdKWMxW05IXUMoPU8pW05IXVtDQEBIXShDKE8yKShbQ0gzXSlbQ0gzXSlbQ0gyXUMyKFtDSDNdKVtDSDNd

> <s_epik_cmdline>
J2VwaWtfcHl0aG9uJywgJy1waCcsICc3LjAnLCAnLXRuJywgJzgnLCAnLW1hJywgJzIwMCcsICctbWV0YWxfYmluZGluZycsICctaW1hZScsICc8aW5maWxlLm1hZT4nLCAnLW9tYWUnLCAnPG91dGZpbGUubWFlPic=

> <r_lp_tautomer_probability>
1

> <r_epik_Ionization_Penalty>
3.17207e-05

> <r_epik_Ionization_Penalty_Charging>
0

> <r_epik_Ionization_Penalty_Neutral>
3.17207e-05

> <r_epik_State_Penalty>
-0

> <r_epik_Charging_Adjusted_Penalty>
0

> <i_epik_Tot_Q>
0

> <i_epik_Tot_abs_Q>
0

> <r_epik_Metal_State_Penalty>
-0

> <b_epik_Metal_Only>
0

> <s_lp_Force_Field>
OPLS_2005

> <r_lp_Energy>
19.5027

> <b_lp_Chiralities_Consistent>
1

> <s_lp_Variant>
AV-unprocessed.smi:2319-1

> <Gold.Version>
5.8.1

> <Gold.Id.Protein>
6NUR|6NUR_protein|mol2

> <Gold.PLP.Fitness>
40.5340

> <Gold.PLP.PLP>
-34.2334

> <Gold.PLP.part.hbond>
-3.8358

> <Gold.PLP.part.metal>
0.0000

> <Gold.PLP.part.buried>
-0.7073

> <Gold.PLP.part.nonpolar>
-29.2096

> <Gold.PLP.part.repulsive>
0.1771

> <Gold.PLP.ligand.clash>
0.0000

> <Gold.PLP.ligand.torsion>
0.4774

> <Gold.PLP.Chemscore.Hbond>
2.3250

> <Gold.PLP.Chemscore.CHOScore>
0.0000

> <Gold.PLP.Chemscore.Metal>
0.0000

> <Gold.Chemscore.Hbonds>
donor molecule, donor type, donor heavy atom, donor atom, acceptor molecule, acceptor atom, score
      L1  H     9    30       P1  7948  0.95
      L1  H    12    31       P1  7948  0.99
      P1  H 10752 10765       L1     4  0.41

> <Gold.PLP.Chemscore.Internal.Correction>
0.2804

> <Gold.Rescore>
     Score         DG    S(hbond)    S(metal)    S(lipo)     H(rot)  DE(clash)    DE(int)     intcor
     15.53     -18.10       1.60        0.00      87.55       1.16       0.12       2.46       ----

> <Gold.Chemscore.Fitness>
15.5268

> <Gold.Chemscore.DG>
-18.0999

> <Gold.Chemscore.ZeroCoef>
-5.4800

> <Gold.Chemscore.Hbond>
1.5998

> <Gold.Chemscore.Metal>
0.0000

> <Gold.Chemscore.Lipo>
87.5534

> <Gold.Chemscore.Internal_Hbond>
0.0000

> <Gold.Chemscore.DEClash>
0.1164

> <Gold.Chemscore.DEInternal>
2.4566

> <Gold.Chemscore.Rot>
1.1590

> <Gold.Chemscore.Internal.Correction>
   9.000000E+99

> <Gold.Chemscore.Hbonds>
donor molecule, donor type, donor heavy atom, donor atom, acceptor molecule, acceptor atom, score
      L1  H     9    30       P1  7948  0.21
      L1  H    12    31       P1  7948  0.73

> <Gold.Chemscore.Hbond.Weighted>
-5.3432

> <Gold.Chemscore.Metal.Weighted>
-0.0000

> <Gold.Chemscore.Lipo.Weighted>
-10.2438

> <Gold.Chemscore.Internal_Hbond.Weighted>
0.0000

> <Gold.Chemscore.DEClash.Weighted>
0.1164

> <Gold.Chemscore.DEInternal.Weighted>
2.4566

> <Gold.Chemscore.Rot.Weighted>
2.9671

> <Gold.Chemscore.Internal.Correction.Weighted>
   9.000000E+99

> <Gold.Protein.RotatedTorsions>
[ 6907 6896 6895 6894 ] final  -50.31 input  -60.11 | X-H torsion
[ 7974 7965 7964 7962 ] final  -14.47 input  175.53 | X-H torsion
[ 8008 7997 7996 7995 ] final  142.26 input   59.86 | X-H torsion
[ 10167 10162 10161 10158 ] final   71.84 input  -65.29 | X-H torsion
[ 10718 10713 10712 10709 ] final  -96.14 input   66.30 | X-H torsion
[ 10763 10752 10751 10750 ] final -135.81 input  -60.55 | X-H torsion
[ 11005 11000 10999 10996 ] final  -23.08 input  -57.11 | X-H torsion

> <Gold.Protein.ActiveResidues>
 VAL166  LYS551  ARG553  GLY616  TRP617  ASP618  TYR619  PRO620  LYS621  CYS622 
 ASP623  PHE694  ASN695  SER759  ASP760  ASP761  ALA762  ILE779  LEU786  VAL792 
 PHE793  MET794  SER795  GLU796  ALA797  LYS798  CYS799  TRP800  GLU811  SER814 

> <Gold.Protein.RotatedAtoms>
  150.8720  134.8095  159.7161 H   0  0  0  0  0  0  0  0  0  0  0  0  # atno 6907 bound_to 6896
  152.4721  134.4932  159.9711 H   0  0  0  0  0  0  0  0  0  0  0  0  # atno 6908 bound_to 6896
  151.5019  133.3464  159.2906 H   0  0  0  0  0  0  0  0  0  0  0  0  # atno 6909 bound_to 6896
  146.2073  140.3353  142.8403 H   0  0  0  0  0  0  0  0  0  0  0  0  # atno 7974 bound_to 7965
  156.2952  140.2293  156.4699 H   0  0  0  0  0  0  0  0  0  0  0  0  # atno 8008 bound_to 7997
  154.7944  140.0452  157.1246 H   0  0  0  0  0  0  0  0  0  0  0  0  # atno 8009 bound_to 7997
  154.9607  140.3054  155.5035 H   0  0  0  0  0  0  0  0  0  0  0  0  # atno 8010 bound_to 7997
  140.0417  144.5384  150.7429 H   0  0  0  0  0  0  0  0  0  0  0  0  # atno 10167 bound_to 10162
  156.0056  130.5139  150.6182 H   0  0  0  0  0  0  0  0  0  0  0  0  # atno 10718 bound_to 10713
  154.8696  135.3692  154.4959 H   0  0  0  0  0  0  0  0  0  0  0  0  # atno 10763 bound_to 10752
  153.5603  135.7023  153.5555 H   0  0  0  0  0  0  0  0  0  0  0  0  # atno 10764 bound_to 10752
  153.3634  135.4040  155.1699 H   0  0  0  0  0  0  0  0  0  0  0  0  # atno 10765 bound_to 10752
  140.8718  133.7715  156.0196 H   0  0  0  0  0  0  0  0  0  0  0  0  # atno 11005 bound_to 11000
  144.8824  140.7417  143.5978 LP  0  0  0  0  0  0  0  0  0  0  0  0  # atno 17320 bound_to 7965
  145.3273  139.1770  143.4555 LP  0  0  0  0  0  0  0  0  0  0  0  0  # atno 17321 bound_to 7965
  140.7257  143.2634  151.4128 LP  0  0  0  0  0  0  0  0  0  0  0  0  # atno 17342 bound_to 10162
  139.6009  144.1297  152.2197 LP  0  0  0  0  0  0  0  0  0  0  0  0  # atno 17343 bound_to 10162
  157.4002  131.0809  151.1315 LP  0  0  0  0  0  0  0  0  0  0  0  0  # atno 17370 bound_to 10713
  157.1979  130.6381  149.5728 LP  0  0  0  0  0  0  0  0  0  0  0  0  # atno 17371 bound_to 10713
  140.8564  134.2893  157.5253 LP  0  0  0  0  0  0  0  0  0  0  0  0  # atno 17394 bound_to 11000
  139.8712  134.9495  156.4028 LP  0  0  0  0  0  0  0  0  0  0  0  0  # atno 17395 bound_to 11000

$$$$
