AV-unprocessed.smi:630|AV-procd|sdf|3119|dock7
  -GOLD-   22720 0 43D 1   1.00000     0.00000
 Structure written by MMmdl.
 37 38  0  0  0  0  0  0  0  0  1 V2000
  144.8002  133.7715  155.1984 N   0  0  0  0  0  0  0  0  0  0  0  0
  145.6464  134.2170  154.2657 C   0  0  0  0  0  0  0  0  0  0  0  0
  146.7243  134.7323  154.5595 O   0  0  0  0  0  0  0  0  0  0  0  0
  145.2267  134.0445  152.7908 C   0  0  2  0  0  0  0  0  0  0  0  0
  146.1123  132.9985  152.0696 C   0  0  0  0  0  0  0  0  0  0  0  0
  145.3074  132.1112  151.1016 C   0  0  0  0  0  0  0  0  0  0  0  0
  144.8472  132.8120  149.8132 C   0  0  0  0  0  0  0  0  0  0  0  0
  144.0360  134.1034  150.0245 C   0  0  0  0  0  0  0  0  0  0  0  0
  144.9078  135.2783  150.4993 C   0  0  0  0  0  0  0  0  0  0  0  0
  145.1075  135.3989  152.0290 C   0  0  2  0  0  0  0  0  0  0  0  0
  146.2451  136.2874  152.2846 N   0  0  0  0  0  0  0  0  0  0  0  0
  146.1736  137.5136  152.8221 C   0  0  0  0  0  0  0  0  0  0  0  0
  145.1163  138.0493  153.1549 O   0  0  0  0  0  0  0  0  0  0  0  0
  147.3934  138.0613  152.9430 N   0  0  0  0  0  0  0  0  0  0  0  0
  147.7227  139.3408  153.4543 C   0  0  0  0  0  0  0  0  0  0  0  0
  148.8480  139.4851  154.1565 N   0  0  0  0  0  0  0  0  0  0  0  0
  149.0320  140.8018  154.5884 C   0  0  0  0  0  0  0  0  0  0  0  0
  148.0272  141.6546  154.2034 C   0  0  0  0  0  0  0  0  0  0  0  0
  146.8003  140.8355  153.2752 S   0  0  0  0  0  0  0  0  0  0  0  0
  145.0357  133.8694  156.1755 H   0  0  0  0  0  0  0  0  0  0  0  0
  143.9276  133.3429  154.9258 H   0  0  0  0  0  0  0  0  0  0  0  0
  144.2206  133.6238  152.8352 H   0  0  0  0  0  0  0  0  0  0  0  0
  146.9405  133.4809  151.5490 H   0  0  0  0  0  0  0  0  0  0  0  0
  146.5757  132.3325  152.7994 H   0  0  0  0  0  0  0  0  0  0  0  0
  145.9229  131.2563  150.8200 H   0  0  0  0  0  0  0  0  0  0  0  0
  144.4443  131.6898  151.6185 H   0  0  0  0  0  0  0  0  0  0  0  0
  145.7137  133.0243  149.1857 H   0  0  0  0  0  0  0  0  0  0  0  0
  144.2398  132.1086  149.2427 H   0  0  0  0  0  0  0  0  0  0  0  0
  143.6017  134.3777  149.0626 H   0  0  0  0  0  0  0  0  0  0  0  0
  143.1908  133.9395  150.6938 H   0  0  0  0  0  0  0  0  0  0  0  0
  145.8749  135.2257  149.9965 H   0  0  0  0  0  0  0  0  0  0  0  0
  144.4569  136.2069  150.1465 H   0  0  0  0  0  0  0  0  0  0  0  0
  144.2129  135.8793  152.4310 H   0  0  0  0  0  0  0  0  0  0  0  0
  147.1583  135.9278  152.0472 H   0  0  0  0  0  0  0  0  0  0  0  0
  148.1742  137.5030  152.6306 H   0  0  0  0  0  0  0  0  0  0  0  0
  149.9100  141.0455  155.1680 H   0  0  0  0  0  0  0  0  0  0  0  0
  147.9346  142.7106  154.4085 H   0  0  0  0  0  0  0  0  0  0  0  0
  1  2  1  0  0  0  0
  1 20  1  0  0  0  0
  1 21  1  0  0  0  0
  2  3  2  0  0  0  0
  2  4  1  0  0  0  0
  4 10  1  0  0  0  0
  4  5  1  0  0  0  0
  4 22  1  0  0  0  0
  5  6  1  0  0  0  0
  5 23  1  0  0  0  0
  5 24  1  0  0  0  0
  6  7  1  0  0  0  0
  6 25  1  0  0  0  0
  6 26  1  0  0  0  0
  7  8  1  0  0  0  0
  7 27  1  0  0  0  0
  7 28  1  0  0  0  0
  8  9  1  0  0  0  0
  8 29  1  0  0  0  0
  8 30  1  0  0  0  0
  9 10  1  0  0  0  0
  9 31  1  0  0  0  0
  9 32  1  0  0  0  0
 10 11  1  0  0  0  0
 10 33  1  0  0  0  0
 11 12  1  0  0  0  0
 11 34  1  0  0  0  0
 12 13  2  0  0  0  0
 12 14  1  0  0  0  0
 14 15  1  0  0  0  0
 14 35  1  0  0  0  0
 15 19  1  0  0  0  0
 15 16  2  0  0  0  0
 16 17  1  0  0  0  0
 17 18  2  0  0  0  0
 17 36  1  0  0  0  0
 18 19  1  0  0  0  0
 18 37  1  0  0  0  0
M  END
> <s_m_source_file>
AV-unprocessed.smi

> <i_m_source_file_index>
630

> <i_lp_mmshare_version>
43012

> <i_f3d_flags>
0

> <s_epik_input>
W05IMl1DKD1PKVtDQEBIXTFbQ0gyXVtDSDJdW0NIMl1bQ0gyXVtDSDJdW0NASF0xW05IXUMoPU8pW05IXWMybltjSF1bY0hdczI=

> <s_epik_cmdline>
J2VwaWtfcHl0aG9uJywgJy1waCcsICc3LjAnLCAnLXRuJywgJzgnLCAnLW1hJywgJzIwMCcsICctbWV0YWxfYmluZGluZycsICctaW1hZScsICc8aW5maWxlLm1hZT4nLCAnLW9tYWUnLCAnPG91dGZpbGUubWFlPic=

> <r_lp_tautomer_probability>
0.999

> <r_epik_Ionization_Penalty>
0.000342689

> <r_epik_Ionization_Penalty_Charging>
0

> <r_epik_Ionization_Penalty_Neutral>
0.000342689

> <r_epik_State_Penalty>
0.000177984

> <r_epik_Charging_Adjusted_Penalty>
0.000177984

> <i_epik_Tot_Q>
0

> <i_epik_Tot_abs_Q>
0

> <r_epik_Metal_State_Penalty>
0.00743087

> <b_epik_Metal_Only>
0

> <s_lp_Force_Field>
OPLS_2005

> <r_lp_Energy>
11.6017

> <b_lp_Chiralities_Consistent>
1

> <s_lp_Variant>
AV-unprocessed.smi:630-3

> <Gold.Version>
5.8.1

> <Gold.Id.Protein>
6NUR|6NUR_protein|mol2

> <Gold.PLP.Fitness>
38.1044

> <Gold.PLP.PLP>
-26.7392

> <Gold.PLP.part.hbond>
-3.0000

> <Gold.PLP.part.metal>
0.0000

> <Gold.PLP.part.buried>
-0.9801

> <Gold.PLP.part.nonpolar>
-24.8943

> <Gold.PLP.part.repulsive>
1.9512

> <Gold.PLP.ligand.clash>
0.0000

> <Gold.PLP.ligand.torsion>
0.3713

> <Gold.PLP.Chemscore.Hbond>
2.9920

> <Gold.PLP.Chemscore.CHOScore>
1.0000

> <Gold.PLP.Chemscore.Metal>
0.0000

> <Gold.Chemscore.Hbonds>
donor molecule, donor type, donor heavy atom, donor atom, acceptor molecule, acceptor atom, score
      L1  H     1    21       P1 10957  1.00
      L1  H    11    34       P1  7948  0.99
      L1  H    14    35       P1  7948  1.00
      L1  C    18    37       P1  8028  1.00

> <Gold.PLP.Chemscore.Internal.Correction>
0.1320

> <Gold.Rescore>
     Score         DG    S(hbond)    S(metal)    S(lipo)     H(rot)  DE(clash)    DE(int)     intcor
     18.50     -19.00       2.94        0.00      64.77       1.52       0.08       0.42       ----

> <Gold.Chemscore.Fitness>
18.5023

> <Gold.Chemscore.DG>
-18.9978

> <Gold.Chemscore.ZeroCoef>
-5.4800

> <Gold.Chemscore.Hbond>
2.9420

> <Gold.Chemscore.Metal>
0.0000

> <Gold.Chemscore.Lipo>
64.7743

> <Gold.Chemscore.Internal_Hbond>
0.0000

> <Gold.Chemscore.DEClash>
0.0790

> <Gold.Chemscore.DEInternal>
0.4165

> <Gold.Chemscore.Rot>
1.5184

> <Gold.Chemscore.Internal.Correction>
   9.000000E+99

> <Gold.Chemscore.Hbonds>
donor molecule, donor type, donor heavy atom, donor atom, acceptor molecule, acceptor atom, score
      L1  H     1    21       P1 10957  0.91
      L1  H    11    34       P1  7948  0.93
      L1  H    14    35       P1  7948  0.99

> <Gold.Chemscore.Hbond.Weighted>
-9.8264

> <Gold.Chemscore.Metal.Weighted>
-0.0000

> <Gold.Chemscore.Lipo.Weighted>
-7.5786

> <Gold.Chemscore.Internal_Hbond.Weighted>
0.0000

> <Gold.Chemscore.DEClash.Weighted>
0.0790

> <Gold.Chemscore.DEInternal.Weighted>
0.4165

> <Gold.Chemscore.Rot.Weighted>
3.8872

> <Gold.Chemscore.Internal.Correction.Weighted>
   9.000000E+99

> <Gold.Protein.RotatedTorsions>
[ 6907 6896 6895 6894 ] final  -18.70 input  -60.11 | X-H torsion
[ 7974 7965 7964 7962 ] final  -41.05 input  175.53 | X-H torsion
[ 8008 7997 7996 7995 ] final -155.98 input   59.86 | X-H torsion
[ 10167 10162 10161 10158 ] final -141.91 input  -65.29 | X-H torsion
[ 10718 10713 10712 10709 ] final  142.96 input   66.30 | X-H torsion
[ 10763 10752 10751 10750 ] final  175.01 input  -60.55 | X-H torsion
[ 11005 11000 10999 10996 ] final -167.48 input  -57.11 | X-H torsion

> <Gold.Protein.ActiveResidues>
 VAL166  LYS551  ARG553  GLY616  TRP617  ASP618  TYR619  PRO620  LYS621  CYS622 
 ASP623  PHE694  ASN695  SER759  ASP760  ASP761  ALA762  ILE779  LEU786  VAL792 
 PHE793  MET794  SER795  GLU796  ALA797  LYS798  CYS799  TRP800  GLU811  SER814 

> <Gold.Protein.RotatedAtoms>
  151.2742  135.0694  159.9144 H   0  0  0  0  0  0  0  0  0  0  0  0  # atno 6907 bound_to 6896
  152.5345  134.0099  159.7944 H   0  0  0  0  0  0  0  0  0  0  0  0  # atno 6908 bound_to 6896
  151.0342  133.5713  159.2688 H   0  0  0  0  0  0  0  0  0  0  0  0  # atno 6909 bound_to 6896
  146.0247  140.6806  142.9161 H   0  0  0  0  0  0  0  0  0  0  0  0  # atno 7974 bound_to 7965
  155.7101  140.0777  157.2374 H   0  0  0  0  0  0  0  0  0  0  0  0  # atno 8008 bound_to 7997
  154.4060  140.1631  156.2341 H   0  0  0  0  0  0  0  0  0  0  0  0  # atno 8009 bound_to 7997
  155.9290  140.3392  155.6236 H   0  0  0  0  0  0  0  0  0  0  0  0  # atno 8010 bound_to 7997
  139.8139  143.7665  152.2664 H   0  0  0  0  0  0  0  0  0  0  0  0  # atno 10167 bound_to 10162
  157.3745  131.0983  151.0797 H   0  0  0  0  0  0  0  0  0  0  0  0  # atno 10718 bound_to 10713
  154.4618  135.2768  155.1707 H   0  0  0  0  0  0  0  0  0  0  0  0  # atno 10763 bound_to 10752
  154.3492  135.6153  153.5638 H   0  0  0  0  0  0  0  0  0  0  0  0  # atno 10764 bound_to 10752
  152.9855  135.5807  154.4982 H   0  0  0  0  0  0  0  0  0  0  0  0  # atno 10765 bound_to 10752
  140.5528  134.5411  157.5126 H   0  0  0  0  0  0  0  0  0  0  0  0  # atno 11005 bound_to 11000
  144.7004  140.3628  143.7160 LP  0  0  0  0  0  0  0  0  0  0  0  0  # atno 17320 bound_to 7965
  145.7137  139.1691  143.2524 LP  0  0  0  0  0  0  0  0  0  0  0  0  # atno 17321 bound_to 7965
  139.7822  144.7440  151.0072 LP  0  0  0  0  0  0  0  0  0  0  0  0  # atno 17342 bound_to 10162
  140.7816  143.4529  151.0386 LP  0  0  0  0  0  0  0  0  0  0  0  0  # atno 17343 bound_to 10162
  157.1889  130.6343  149.5697 LP  0  0  0  0  0  0  0  0  0  0  0  0  # atno 17370 bound_to 10713
  155.9762  130.4729  150.6514 LP  0  0  0  0  0  0  0  0  0  0  0  0  # atno 17371 bound_to 10713
  139.9446  134.7724  156.0592 LP  0  0  0  0  0  0  0  0  0  0  0  0  # atno 17394 bound_to 11000
  141.1161  133.6627  156.3098 LP  0  0  0  0  0  0  0  0  0  0  0  0  # atno 17395 bound_to 11000

$$$$
