AV-unprocessed.smi:516|AV-procd|sdf|2787|dock9
  -GOLD-   2262023263D 1   1.00000     0.00000
 Structure written by MMmdl.
 44 46  0  0  0  0  0  0  0  0  3 V2000
  146.1829  143.1643  153.8102 C   0  0  0  0  0  0  0  0  0  0  0  0
  145.4479  142.2103  154.5551 O   0  0  0  0  0  0  0  0  0  0  0  0
  146.2578  141.1524  155.0398 C   0  0  0  0  0  0  0  0  0  0  0  0
  146.5444  140.1488  153.9128 C   0  0  0  0  0  0  0  0  0  0  0  0
  147.5641  139.1727  154.2884 N   0  0  0  0  0  0  0  0  0  0  0  0
  147.3927  137.8359  154.4655 C   0  0  0  0  0  0  0  0  0  0  0  0
  146.0757  137.1324  154.2968 C   0  0  0  0  0  0  0  0  0  0  0  0
  146.2566  136.2852  153.0910 N   0  3  0  0  0  0  0  0  0  0  0  0
  146.2768  134.8399  153.4149 C   0  0  0  0  0  0  0  0  0  0  0  0
  146.5370  134.0087  152.1472 C   0  0  0  0  0  0  0  0  0  0  0  0
  145.5480  134.3065  151.1695 O   0  0  0  0  0  0  0  0  0  0  0  0
  145.5754  135.6755  150.7845 C   0  0  0  0  0  0  0  0  0  0  0  0
  145.2810  136.5615  152.0060 C   0  0  0  0  0  0  0  0  0  0  0  0
  148.5059  137.1811  154.8053 N   0  0  0  0  0  0  0  0  0  0  0  0
  149.4623  138.1836  154.8516 C   0  0  0  0  0  0  0  0  0  0  0  0
  148.9206  139.3935  154.5494 C   0  0  0  0  0  0  0  0  0  0  0  0
  149.6927  140.6568  154.5288 C   0  0  0  0  0  0  0  0  0  0  0  0
  149.1517  141.7298  154.2718 O   0  0  0  0  0  0  0  0  0  0  0  0
  151.0170  140.4577  154.8209 N   0  5  0  0  0  0  0  0  0  0  0  0
  151.6080  139.2497  155.1229 C   0  0  0  0  0  0  0  0  0  0  0  0
  152.8113  139.1576  155.3683 O   0  0  0  0  0  0  0  0  0  0  0  0
  150.8492  138.1094  155.1524 N   0  0  0  0  0  0  0  0  0  0  0  0
  151.4492  136.8116  155.4756 C   0  0  0  0  0  0  0  0  0  0  0  0
  145.5126  143.9486  153.4588 H   0  0  0  0  0  0  0  0  0  0  0  0
  146.6519  142.7070  152.9382 H   0  0  0  0  0  0  0  0  0  0  0  0
  146.9570  143.6307  154.4209 H   0  0  0  0  0  0  0  0  0  0  0  0
  147.1944  141.5555  155.4275 H   0  0  0  0  0  0  0  0  0  0  0  0
  145.7559  140.6449  155.8649 H   0  0  0  0  0  0  0  0  0  0  0  0
  145.6312  139.6249  153.6334 H   0  0  0  0  0  0  0  0  0  0  0  0
  146.8492  140.6705  153.0082 H   0  0  0  0  0  0  0  0  0  0  0  0
  145.9006  136.5182  155.1811 H   0  0  0  0  0  0  0  0  0  0  0  0
  145.2317  137.8132  154.1950 H   0  0  0  0  0  0  0  0  0  0  0  0
  147.0548  134.6374  154.1520 H   0  0  0  0  0  0  0  0  0  0  0  0
  145.3248  134.5518  153.8638 H   0  0  0  0  0  0  0  0  0  0  0  0
  147.5329  134.2077  151.7479 H   0  0  0  0  0  0  0  0  0  0  0  0
  146.4944  132.9446  152.3802 H   0  0  0  0  0  0  0  0  0  0  0  0
  146.5436  135.9252  150.3473 H   0  0  0  0  0  0  0  0  0  0  0  0
  144.8245  135.8400  150.0116 H   0  0  0  0  0  0  0  0  0  0  0  0
  144.2684  136.3747  152.3673 H   0  0  0  0  0  0  0  0  0  0  0  0
  145.3251  137.6089  151.7070 H   0  0  0  0  0  0  0  0  0  0  0  0
  151.9530  136.8507  156.4424 H   0  0  0  0  0  0  0  0  0  0  0  0
  152.1848  136.5346  154.7197 H   0  0  0  0  0  0  0  0  0  0  0  0
  150.7142  136.0091  155.5281 H   0  0  0  0  0  0  0  0  0  0  0  0
  147.1729  136.5082  152.7275 H   0  0  0  0  0  0  0  0  0  0  0  0
  1  2  1  0  0  0  0
  1 24  1  0  0  0  0
  1 25  1  0  0  0  0
  1 26  1  0  0  0  0
  2  3  1  0  0  0  0
  3  4  1  0  0  0  0
  3 27  1  0  0  0  0
  3 28  1  0  0  0  0
  4  5  1  0  0  0  0
  4 29  1  0  0  0  0
  4 30  1  0  0  0  0
  5 16  1  0  0  0  0
  5  6  1  0  0  0  0
  6  7  1  0  0  0  0
  6 14  2  0  0  0  0
  7  8  1  0  0  0  0
  7 31  1  0  0  0  0
  7 32  1  0  0  0  0
  8 13  1  0  0  0  0
  8  9  1  0  0  0  0
  8 44  1  0  0  0  0
  9 10  1  0  0  0  0
  9 33  1  0  0  0  0
  9 34  1  0  0  0  0
 10 11  1  0  0  0  0
 10 35  1  0  0  0  0
 10 36  1  0  0  0  0
 11 12  1  0  0  0  0
 12 13  1  0  0  0  0
 12 37  1  0  0  0  0
 12 38  1  0  0  0  0
 13 39  1  0  0  0  0
 13 40  1  0  0  0  0
 14 15  1  0  0  0  0
 15 22  1  0  0  0  0
 15 16  2  0  0  0  0
 16 17  1  0  0  0  0
 17 18  2  0  0  0  0
 17 19  1  0  0  0  0
 19 20  1  0  0  0  0
 20 21  2  0  0  0  0
 20 22  1  0  0  0  0
 22 23  1  0  0  0  0
 23 41  1  0  0  0  0
 23 42  1  0  0  0  0
 23 43  1  0  0  0  0
M  CHG  1   8   1
M  CHG  1  19  -1
M  END
> <s_m_source_file>
AV-unprocessed.smi

> <i_m_source_file_index>
516

> <i_lp_mmshare_version>
43012

> <i_f3d_flags>
0

> <s_epik_input>
W0NIM11uMWMoPU8pW25IXWMoPU8pYyhjMTIpbihbQ0gyXVtDSDJdT1tDSDNdKWMobjIpW0NIMl1OM1tDSDJdW0NIMl1PW0NIMl1bQ0gyXTM=

> <s_epik_cmdline>
J2VwaWtfcHl0aG9uJywgJy1waCcsICc3LjAnLCAnLXRuJywgJzgnLCAnLW1hJywgJzIwMCcsICctbWV0YWxfYmluZGluZycsICctaW1hZScsICc8aW5maWxlLm1hZT4nLCAnLW9tYWUnLCAnPG91dGZpbGUubWFlPic=

> <r_epik_Ionization_Penalty>
5.20946

> <r_epik_Ionization_Penalty_Charging>
1.12908

> <r_epik_Ionization_Penalty_Neutral>
4.08038

> <r_epik_State_Penalty>
5.2587

> <r_epik_Charging_Adjusted_Penalty>
6.38778

> <i_epik_Tot_Q>
0

> <i_epik_Tot_abs_Q>
2

> <r_epik_Metal_State_Penalty>
1.732

> <b_epik_Metal_Only>
1

> <s_lp_Force_Field>
OPLS_2005

> <r_lp_Energy>
35.9619

> <b_lp_Chiralities_Consistent>
1

> <s_lp_Variant>
AV-unprocessed.smi:516-4

> <Gold.Version>
5.8.1

> <Gold.Id.Protein>
6NUR|6NUR_protein|mol2

> <Gold.PLP.Fitness>
41.4043

> <Gold.PLP.PLP>
-30.2240

> <Gold.PLP.part.hbond>
-4.2072

> <Gold.PLP.part.metal>
0.0000

> <Gold.PLP.part.buried>
-2.5544

> <Gold.PLP.part.nonpolar>
-24.9077

> <Gold.PLP.part.repulsive>
0.7797

> <Gold.PLP.ligand.clash>
0.0000

> <Gold.PLP.ligand.torsion>
0.9363

> <Gold.PLP.Chemscore.Hbond>
4.3411

> <Gold.PLP.Chemscore.CHOScore>
0.0000

> <Gold.PLP.Chemscore.Metal>
0.0000

> <Gold.Chemscore.Hbonds>
donor molecule, donor type, donor heavy atom, donor atom, acceptor molecule, acceptor atom, score
      L1  H     8    44       P1  7948  2.00
      P1  H  7989  7998       L1    19  0.96
      P1  H  7997  8008       L1    21  1.00
      P1  H  8011  8017       L1    18  0.36

> <Gold.PLP.Chemscore.Internal.Correction>
0.0297

> <Gold.Rescore>
     Score         DG    S(hbond)    S(metal)    S(lipo)     H(rot)  DE(clash)    DE(int)     intcor
     12.34     -13.70       2.38        0.00      47.69       2.07       0.34       1.02       ----

> <Gold.Chemscore.Fitness>
12.3388

> <Gold.Chemscore.DG>
-13.6954

> <Gold.Chemscore.ZeroCoef>
-5.4800

> <Gold.Chemscore.Hbond>
2.3751

> <Gold.Chemscore.Metal>
0.0000

> <Gold.Chemscore.Lipo>
47.6926

> <Gold.Chemscore.Internal_Hbond>
0.0000

> <Gold.Chemscore.DEClash>
0.3403

> <Gold.Chemscore.DEInternal>
1.0163

> <Gold.Chemscore.Rot>
2.0693

> <Gold.Chemscore.Internal.Correction>
   9.000000E+99

> <Gold.Chemscore.Hbonds>
donor molecule, donor type, donor heavy atom, donor atom, acceptor molecule, acceptor atom, score
      L1  H     8    44       P1  7948  0.96
      P1  H  7989  7998       L1    19  0.11
      P1  H  7997  8008       L1    21  0.96
      P1  H  8011  8017       L1    18  0.27

> <Gold.Chemscore.Hbond.Weighted>
-7.9329

> <Gold.Chemscore.Metal.Weighted>
-0.0000

> <Gold.Chemscore.Lipo.Weighted>
-5.5800

> <Gold.Chemscore.Internal_Hbond.Weighted>
0.0000

> <Gold.Chemscore.DEClash.Weighted>
0.3403

> <Gold.Chemscore.DEInternal.Weighted>
1.0163

> <Gold.Chemscore.Rot.Weighted>
5.2975

> <Gold.Chemscore.Internal.Correction.Weighted>
   9.000000E+99

> <Gold.Protein.RotatedTorsions>
[ 6907 6896 6895 6894 ] final -100.74 input  -60.11 | X-H torsion
[ 7974 7965 7964 7962 ] final -129.58 input  175.53 | X-H torsion
[ 8008 7997 7996 7995 ] final  -18.70 input   59.86 | X-H torsion
[ 10167 10162 10161 10158 ] final -154.72 input  -65.29 | X-H torsion
[ 10718 10713 10712 10709 ] final  123.04 input   66.30 | X-H torsion
[ 10763 10752 10751 10750 ] final   76.70 input  -60.55 | X-H torsion
[ 11005 11000 10999 10996 ] final  105.08 input  -57.11 | X-H torsion

> <Gold.Protein.ActiveResidues>
 VAL166  LYS551  ARG553  GLY616  TRP617  ASP618  TYR619  PRO620  LYS621  CYS622 
 ASP623  PHE694  ASN695  SER759  ASP760  ASP761  ALA762  ILE779  LEU786  VAL792 
 PHE793  MET794  SER795  GLU796  ALA797  LYS798  CYS799  TRP800  GLU811  SER814 

> <Gold.Protein.RotatedAtoms>
  150.7127  134.0841  159.3908 H   0  0  0  0  0  0  0  0  0  0  0  0  # atno 6907 bound_to 6896
  151.8826  135.0445  160.0499 H   0  0  0  0  0  0  0  0  0  0  0  0  # atno 6908 bound_to 6896
  152.2556  133.5217  159.5387 H   0  0  0  0  0  0  0  0  0  0  0  0  # atno 6909 bound_to 6896
  144.9558  140.7394  143.4759 H   0  0  0  0  0  0  0  0  0  0  0  0  # atno 7974 bound_to 7965
  154.4888  140.2108  155.9596 H   0  0  0  0  0  0  0  0  0  0  0  0  # atno 8008 bound_to 7997
  156.1275  140.3203  155.8267 H   0  0  0  0  0  0  0  0  0  0  0  0  # atno 8009 bound_to 7997
  155.4358  140.0506  157.3005 H   0  0  0  0  0  0  0  0  0  0  0  0  # atno 8010 bound_to 7997
  139.6990  143.9294  152.2420 H   0  0  0  0  0  0  0  0  0  0  0  0  # atno 10167 bound_to 10162
  157.5695  131.1084  150.8392 H   0  0  0  0  0  0  0  0  0  0  0  0  # atno 10718 bound_to 10713
  153.0744  135.4941  154.8374 H   0  0  0  0  0  0  0  0  0  0  0  0  # atno 10763 bound_to 10752
  154.7067  135.3012  154.9261 H   0  0  0  0  0  0  0  0  0  0  0  0  # atno 10764 bound_to 10752
  153.9968  135.6771  153.4810 H   0  0  0  0  0  0  0  0  0  0  0  0  # atno 10765 bound_to 10752
  139.8798  134.9323  156.5459 H   0  0  0  0  0  0  0  0  0  0  0  0  # atno 11005 bound_to 11000
  145.2774  139.1931  143.4809 LP  0  0  0  0  0  0  0  0  0  0  0  0  # atno 17320 bound_to 7965
  146.3337  140.2730  142.8607 LP  0  0  0  0  0  0  0  0  0  0  0  0  # atno 17321 bound_to 7965
  139.9131  144.6844  150.8541 LP  0  0  0  0  0  0  0  0  0  0  0  0  # atno 17342 bound_to 10162
  140.7704  143.3429  151.2171 LP  0  0  0  0  0  0  0  0  0  0  0  0  # atno 17343 bound_to 10162
  156.8868  130.5198  149.5288 LP  0  0  0  0  0  0  0  0  0  0  0  0  # atno 17370 bound_to 10713
  156.0742  130.5768  150.9441 LP  0  0  0  0  0  0  0  0  0  0  0  0  # atno 17371 bound_to 10713
  140.8276  133.8304  155.8953 LP  0  0  0  0  0  0  0  0  0  0  0  0  # atno 17394 bound_to 11000
  140.9359  134.1962  157.4831 LP  0  0  0  0  0  0  0  0  0  0  0  0  # atno 17395 bound_to 11000

$$$$
