AV-unprocessed.smi:1204|AV-procd|sdf|5037|dock8
  -GOLD-   22720 4 63D 1   1.00000     0.00000
 Structure written by MMmdl.
 27 28  0  0  0  0  0  0  0  0  1 V2000
  152.4532  139.5942  158.7288 O   0  0  0  0  0  0  0  0  0  0  0  0
  152.2045  140.5119  157.9457 C   0  0  0  0  0  0  0  0  0  0  0  0
  152.1198  141.8087  158.3004 N   0  0  0  0  0  0  0  0  0  0  0  0
  152.3115  142.3893  159.5821 C   0  0  0  0  0  0  0  0  0  0  0  0
  153.1066  141.6295  160.4697 C   0  0  0  0  0  0  0  0  0  0  0  0
  153.3580  142.1183  161.7664 C   0  0  0  0  0  0  0  0  0  0  0  0
  152.8074  143.3562  162.1426 C   0  0  0  0  0  0  0  0  0  0  0  0
  152.0271  144.0491  161.1985 C   0  0  0  0  0  0  0  0  0  0  0  0
  151.7848  143.5824  159.9552 N   0  0  0  0  0  0  0  0  0  0  0  0
  151.9386  140.2037  156.4641 C   0  0  2  0  0  0  0  0  0  0  0  0
  150.5740  140.7415  155.9735 C   0  0  0  0  0  0  0  0  0  0  0  0
  150.3902  140.3852  154.6093 O   0  0  0  0  0  0  0  0  0  0  0  0
  150.4157  138.9759  154.4332 C   0  0  0  0  0  0  0  0  0  0  0  0
  151.7757  138.4391  154.9076 C   0  0  0  0  0  0  0  0  0  0  0  0
  151.9613  138.7905  156.2721 O   0  0  0  0  0  0  0  0  0  0  0  0
  151.9012  142.4561  157.5572 H   0  0  0  0  0  0  0  0  0  0  0  0
  153.5221  140.6801  160.1641 H   0  0  0  0  0  0  0  0  0  0  0  0
  153.9633  141.5527  162.4593 H   0  0  0  0  0  0  0  0  0  0  0  0
  152.9778  143.7642  163.1280 H   0  0  0  0  0  0  0  0  0  0  0  0
  151.5864  145.0030  161.4472 H   0  0  0  0  0  0  0  0  0  0  0  0
  152.7438  140.6583  155.8843 H   0  0  0  0  0  0  0  0  0  0  0  0
  149.7531  140.3477  156.5758 H   0  0  0  0  0  0  0  0  0  0  0  0
  150.5363  141.8287  156.0498 H   0  0  0  0  0  0  0  0  0  0  0  0
  149.5983  138.5108  154.9865 H   0  0  0  0  0  0  0  0  0  0  0  0
  150.2635  138.7455  153.3788 H   0  0  0  0  0  0  0  0  0  0  0  0
  151.8100  137.3539  154.8119 H   0  0  0  0  0  0  0  0  0  0  0  0
  152.5875  138.8421  154.2998 H   0  0  0  0  0  0  0  0  0  0  0  0
  1  2  2  0  0  0  0
  2  3  1  0  0  0  0
  2 10  1  0  0  0  0
  3  4  1  0  0  0  0
  3 16  1  0  0  0  0
  4  9  1  0  0  0  0
  4  5  2  0  0  0  0
  5  6  1  0  0  0  0
  5 17  1  0  0  0  0
  6  7  2  0  0  0  0
  6 18  1  0  0  0  0
  7  8  1  0  0  0  0
  7 19  1  0  0  0  0
  8  9  2  0  0  0  0
  8 20  1  0  0  0  0
 10 15  1  0  0  0  0
 10 11  1  0  0  0  0
 10 21  1  0  0  0  0
 11 12  1  0  0  0  0
 11 22  1  0  0  0  0
 11 23  1  0  0  0  0
 12 13  1  0  0  0  0
 13 14  1  0  0  0  0
 13 24  1  0  0  0  0
 13 25  1  0  0  0  0
 14 15  1  0  0  0  0
 14 26  1  0  0  0  0
 14 27  1  0  0  0  0
M  END
> <s_m_source_file>
AV-unprocessed.smi

> <i_m_source_file_index>
1204

> <i_lp_mmshare_version>
43012

> <i_f3d_flags>
0

> <s_epik_input>
TzFbQ0gyXVtDSDJdT1tDSDJdW0NASF0xQyg9TylbTkhdYzJbY0hdW2NIXVtjSF1bY0hdbjI=

> <s_epik_cmdline>
J2VwaWtfcHl0aG9uJywgJy1waCcsICc3LjAnLCAnLXRuJywgJzgnLCAnLW1hJywgJzIwMCcsICctbWV0YWxfYmluZGluZycsICctaW1hZScsICc8aW5maWxlLm1hZT4nLCAnLW9tYWUnLCAnPG91dGZpbGUubWFlPic=

> <r_epik_Ionization_Penalty>
0.0014012

> <r_epik_Ionization_Penalty_Charging>
0

> <r_epik_Ionization_Penalty_Neutral>
0.0014012

> <r_epik_State_Penalty>
0.00242437

> <r_epik_Charging_Adjusted_Penalty>
0.00242437

> <i_epik_Tot_Q>
0

> <i_epik_Tot_abs_Q>
0

> <r_epik_Metal_State_Penalty>
-0

> <b_epik_Metal_Only>
0

> <s_lp_Force_Field>
OPLS_2005

> <r_lp_Energy>
11.5524

> <b_lp_Chiralities_Consistent>
1

> <s_lp_Variant>
AV-unprocessed.smi:1204-1

> <Gold.Version>
5.8.1

> <Gold.Id.Protein>
6NUR|6NUR_protein|mol2

> <Gold.PLP.Fitness>
37.9523

> <Gold.PLP.PLP>
-35.2536

> <Gold.PLP.part.hbond>
-1.0000

> <Gold.PLP.part.metal>
0.0000

> <Gold.PLP.part.buried>
-5.7751

> <Gold.PLP.part.nonpolar>
-28.4918

> <Gold.PLP.part.repulsive>
0.2130

> <Gold.PLP.ligand.clash>
0.0000

> <Gold.PLP.ligand.torsion>
0.1516

> <Gold.PLP.Chemscore.Hbond>
1.0000

> <Gold.PLP.Chemscore.CHOScore>
0.0000

> <Gold.PLP.Chemscore.Metal>
0.0000

> <Gold.Chemscore.Hbonds>
donor molecule, donor type, donor heavy atom, donor atom, acceptor molecule, acceptor atom, score
      P1  H  7989  7998       L1    12  1.00

> <Gold.PLP.Chemscore.Internal.Correction>
0.0018

> <Gold.Rescore>
     Score         DG    S(hbond)    S(metal)    S(lipo)     H(rot)  DE(clash)    DE(int)     intcor
     12.85     -14.43       0.86        0.00      73.86       1.00       0.02       1.56       ----

> <Gold.Chemscore.Fitness>
12.8487

> <Gold.Chemscore.DG>
-14.4292

> <Gold.Chemscore.ZeroCoef>
-5.4800

> <Gold.Chemscore.Hbond>
0.8585

> <Gold.Chemscore.Metal>
0.0000

> <Gold.Chemscore.Lipo>
73.8601

> <Gold.Chemscore.Internal_Hbond>
0.0000

> <Gold.Chemscore.DEClash>
0.0174

> <Gold.Chemscore.DEInternal>
1.5630

> <Gold.Chemscore.Rot>
1.0000

> <Gold.Chemscore.Internal.Correction>
   9.000000E+99

> <Gold.Chemscore.Hbonds>
donor molecule, donor type, donor heavy atom, donor atom, acceptor molecule, acceptor atom, score
      P1  H  7989  7998       L1    12  0.27

> <Gold.Chemscore.Hbond.Weighted>
-2.8675

> <Gold.Chemscore.Metal.Weighted>
-0.0000

> <Gold.Chemscore.Lipo.Weighted>
-8.6416

> <Gold.Chemscore.Internal_Hbond.Weighted>
0.0000

> <Gold.Chemscore.DEClash.Weighted>
0.0174

> <Gold.Chemscore.DEInternal.Weighted>
1.5630

> <Gold.Chemscore.Rot.Weighted>
2.5600

> <Gold.Chemscore.Internal.Correction.Weighted>
   9.000000E+99

> <Gold.Protein.RotatedTorsions>
[ 6907 6896 6895 6894 ] final  -70.51 input  -60.11 | X-H torsion
[ 7974 7965 7964 7962 ] final  -92.40 input  175.53 | X-H torsion
[ 8008 7997 7996 7995 ] final  -54.13 input   59.86 | X-H torsion
[ 10167 10162 10161 10158 ] final -149.79 input  -65.29 | X-H torsion
[ 10718 10713 10712 10709 ] final   16.24 input   66.30 | X-H torsion
[ 10763 10752 10751 10750 ] final   44.20 input  -60.55 | X-H torsion
[ 11005 11000 10999 10996 ] final   23.55 input  -57.11 | X-H torsion

> <Gold.Protein.ActiveResidues>
 VAL166  LYS551  ARG553  GLY616  TRP617  ASP618  TYR619  PRO620  LYS621  CYS622 
 ASP623  PHE694  ASN695  SER759  ASP760  ASP761  ALA762  ILE779  LEU786  VAL792 
 PHE793  MET794  SER795  GLU796  ALA797  LYS798  CYS799  TRP800  GLU811  SER814 

> <Gold.Protein.RotatedAtoms>
  150.7254  134.5442  159.5762 H   0  0  0  0  0  0  0  0  0  0  0  0  # atno 6907 bound_to 6896
  152.2945  134.7680  160.0380 H   0  0  0  0  0  0  0  0  0  0  0  0  # atno 6908 bound_to 6896
  151.8282  133.3369  159.3642 H   0  0  0  0  0  0  0  0  0  0  0  0  # atno 6909 bound_to 6896
  145.4003  140.9536  143.2291 H   0  0  0  0  0  0  0  0  0  0  0  0  # atno 7974 bound_to 7965
  154.4153  140.1183  156.5266 H   0  0  0  0  0  0  0  0  0  0  0  0  # atno 8008 bound_to 7997
  155.6649  140.3496  155.4777 H   0  0  0  0  0  0  0  0  0  0  0  0  # atno 8009 bound_to 7997
  155.9682  140.1136  157.0825 H   0  0  0  0  0  0  0  0  0  0  0  0  # atno 8010 bound_to 7997
  139.7412  143.8660  152.2562 H   0  0  0  0  0  0  0  0  0  0  0  0  # atno 10167 bound_to 10162
  157.0650  130.6324  149.5793 H   0  0  0  0  0  0  0  0  0  0  0  0  # atno 10718 bound_to 10713
  152.9845  135.6078  154.3236 H   0  0  0  0  0  0  0  0  0  0  0  0  # atno 10763 bound_to 10752
  154.2944  135.2774  155.2642 H   0  0  0  0  0  0  0  0  0  0  0  0  # atno 10764 bound_to 10752
  154.4923  135.5889  153.6524 H   0  0  0  0  0  0  0  0  0  0  0  0  # atno 10765 bound_to 10752
  140.3683  134.2050  155.7668 H   0  0  0  0  0  0  0  0  0  0  0  0  # atno 11005 bound_to 11000
  144.8379  139.5520  143.6914 LP  0  0  0  0  0  0  0  0  0  0  0  0  # atno 17320 bound_to 7965
  146.2755  139.6742  142.9266 LP  0  0  0  0  0  0  0  0  0  0  0  0  # atno 17321 bound_to 7965
  139.8611  144.7117  150.9099 LP  0  0  0  0  0  0  0  0  0  0  0  0  # atno 17342 bound_to 10162
  140.7786  143.3817  151.1465 LP  0  0  0  0  0  0  0  0  0  0  0  0  # atno 17343 bound_to 10162
  155.9967  130.5037  150.7507 LP  0  0  0  0  0  0  0  0  0  0  0  0  # atno 17370 bound_to 10713
  157.4924  131.0912  151.0411 LP  0  0  0  0  0  0  0  0  0  0  0  0  # atno 17371 bound_to 10713
  141.1962  133.8087  157.0680 LP  0  0  0  0  0  0  0  0  0  0  0  0  # atno 17394 bound_to 11000
  140.0571  134.9774  157.1240 LP  0  0  0  0  0  0  0  0  0  0  0  0  # atno 17395 bound_to 11000

$$$$
