AV-unprocessed.smi:2092|AV-procd|sdf|8543|dock6
  -GOLD-   2272011263D 1   1.00000     0.00000
 Structure written by MMmdl.
 44 45  0  0  0  0  0  0  0  0  1 V2000
  146.1361  141.7565  158.0208 C   0  0  0  0  0  0  0  0  0  0  0  0
  145.4825  141.3654  156.6869 C   0  0  1  0  0  0  0  0  0  0  0  0
  144.5787  142.4085  156.3296 O   0  0  0  0  0  0  0  0  0  0  0  0
  143.3787  142.4745  157.0944 C   0  0  0  0  0  0  0  0  0  0  0  0
  142.6282  143.7669  156.7518 C   0  0  0  0  0  0  0  0  0  0  0  0
  142.5887  143.9143  155.4281 F   0  0  0  0  0  0  0  0  0  0  0  0
  141.3792  143.7094  157.2128 F   0  0  0  0  0  0  0  0  0  0  0  0
  143.2533  144.8182  157.2809 F   0  0  0  0  0  0  0  0  0  0  0  0
  146.5346  141.1616  155.5845 C   0  0  0  0  0  0  0  0  0  0  0  0
  146.5071  141.8515  154.5651 O   0  0  0  0  0  0  0  0  0  0  0  0
  147.4442  140.2000  155.8035 N   0  0  0  0  0  0  0  0  0  0  0  0
  148.5445  139.8469  154.9112 C   0  0  0  0  0  0  0  0  0  0  0  0
  149.8998  139.8081  155.6004 C   0  0  0  0  0  0  0  0  0  0  0  0
  150.8835  138.8526  155.2657 C   0  0  0  0  0  0  0  0  0  0  0  0
  152.1128  138.8900  155.9497 C   0  0  0  0  0  0  0  0  0  0  0  0
  152.3969  139.7895  156.9144 N   0  0  0  0  0  0  0  0  0  0  0  0
  151.4539  140.7015  157.2566 C   0  0  0  0  0  0  0  0  0  0  0  0
  151.7571  141.6299  158.2750 N   0  0  0  0  0  0  0  0  0  0  0  0
  152.9729  141.3513  159.0346 C   0  0  0  0  0  0  0  0  0  0  0  0
  153.0315  142.2354  160.2923 C   0  0  0  0  0  0  0  0  0  0  0  0
  152.9118  143.6058  159.9247 O   0  0  0  0  0  0  0  0  0  0  0  0
  151.6702  143.8754  159.2818 C   0  0  0  0  0  0  0  0  0  0  0  0
  151.5669  143.0502  157.9879 C   0  0  0  0  0  0  0  0  0  0  0  0
  150.1920  140.7402  156.6172 C   0  0  0  0  0  0  0  0  0  0  0  0
  146.8627  141.0090  158.3415 H   0  0  0  0  0  0  0  0  0  0  0  0
  145.3860  141.8448  158.8070 H   0  0  0  0  0  0  0  0  0  0  0  0
  146.6504  142.7157  157.9499 H   0  0  0  0  0  0  0  0  0  0  0  0
  144.9244  140.4395  156.8396 H   0  0  0  0  0  0  0  0  0  0  0  0
  142.7379  141.6167  156.8870 H   0  0  0  0  0  0  0  0  0  0  0  0
  143.6133  142.4580  158.1597 H   0  0  0  0  0  0  0  0  0  0  0  0
  147.3830  139.6832  156.6687 H   0  0  0  0  0  0  0  0  0  0  0  0
  148.3295  138.8650  154.4879 H   0  0  0  0  0  0  0  0  0  0  0  0
  148.6180  140.5374  154.0698 H   0  0  0  0  0  0  0  0  0  0  0  0
  150.7109  138.1037  154.5068 H   0  0  0  0  0  0  0  0  0  0  0  0
  152.8894  138.1766  155.7169 H   0  0  0  0  0  0  0  0  0  0  0  0
  153.0319  140.3052  159.3319 H   0  0  0  0  0  0  0  0  0  0  0  0
  153.8367  141.5498  158.3987 H   0  0  0  0  0  0  0  0  0  0  0  0
  152.2406  141.9649  160.9938 H   0  0  0  0  0  0  0  0  0  0  0  0
  153.9794  142.0883  160.8098 H   0  0  0  0  0  0  0  0  0  0  0  0
  150.8425  143.6481  159.9557 H   0  0  0  0  0  0  0  0  0  0  0  0
  151.6119  144.9397  159.0538 H   0  0  0  0  0  0  0  0  0  0  0  0
  152.3231  143.3803  157.2743 H   0  0  0  0  0  0  0  0  0  0  0  0
  150.5906  143.2144  157.5300 H   0  0  0  0  0  0  0  0  0  0  0  0
  149.4565  141.4838  156.8869 H   0  0  0  0  0  0  0  0  0  0  0  0
  1  2  1  0  0  0  0
  1 25  1  0  0  0  0
  1 26  1  0  0  0  0
  1 27  1  0  0  0  0
  2  3  1  0  0  0  0
  2  9  1  0  0  0  0
  2 28  1  0  0  0  0
  3  4  1  0  0  0  0
  4  5  1  0  0  0  0
  4 29  1  0  0  0  0
  4 30  1  0  0  0  0
  5  6  1  0  0  0  0
  5  7  1  0  0  0  0
  5  8  1  0  0  0  0
  9 10  2  0  0  0  0
  9 11  1  0  0  0  0
 11 12  1  0  0  0  0
 11 31  1  0  0  0  0
 12 13  1  0  0  0  0
 12 32  1  0  0  0  0
 12 33  1  0  0  0  0
 13 24  1  0  0  0  0
 13 14  2  0  0  0  0
 14 15  1  0  0  0  0
 14 34  1  0  0  0  0
 15 16  2  0  0  0  0
 15 35  1  0  0  0  0
 16 17  1  0  0  0  0
 17 18  1  0  0  0  0
 17 24  2  0  0  0  0
 18 23  1  0  0  0  0
 18 19  1  0  0  0  0
 19 20  1  0  0  0  0
 19 36  1  0  0  0  0
 19 37  1  0  0  0  0
 20 21  1  0  0  0  0
 20 38  1  0  0  0  0
 20 39  1  0  0  0  0
 21 22  1  0  0  0  0
 22 23  1  0  0  0  0
 22 40  1  0  0  0  0
 22 41  1  0  0  0  0
 23 42  1  0  0  0  0
 23 43  1  0  0  0  0
 24 44  1  0  0  0  0
M  END
> <s_m_source_file>
AV-unprocessed.smi

> <i_m_source_file_index>
2092

> <i_lp_mmshare_version>
43012

> <i_f3d_flags>
0

> <s_epik_input>
RkMoRikoRilbQ0gyXU9bQ0BASF0oW0NIM10pQyg9TylbTkhdW0NIMl1jMVtjSF1bY0hdbmMoW2NIXTEpTjJbQ0gyXVtDSDJdT1tDSDJdW0NIMl0y

> <s_epik_cmdline>
J2VwaWtfcHl0aG9uJywgJy1waCcsICc3LjAnLCAnLXRuJywgJzgnLCAnLW1hJywgJzIwMCcsICctbWV0YWxfYmluZGluZycsICctaW1hZScsICc8aW5maWxlLm1hZT4nLCAnLW9tYWUnLCAnPG91dGZpbGUubWFlPic=

> <r_lp_tautomer_probability>
1

> <r_epik_Ionization_Penalty>
0.00451782

> <r_epik_Ionization_Penalty_Charging>
0

> <r_epik_Ionization_Penalty_Neutral>
0.00451782

> <r_epik_State_Penalty>
0.00326147

> <r_epik_Charging_Adjusted_Penalty>
0.00326147

> <i_epik_Tot_Q>
0

> <i_epik_Tot_abs_Q>
0

> <r_epik_Metal_State_Penalty>
-0

> <b_epik_Metal_Only>
0

> <s_lp_Force_Field>
OPLS_2005

> <r_lp_Energy>
17.1262

> <b_lp_Chiralities_Consistent>
1

> <s_lp_Variant>
AV-unprocessed.smi:2092-2

> <Gold.Version>
5.8.1

> <Gold.Id.Protein>
6NUR|6NUR_protein|mol2

> <Gold.PLP.Fitness>
45.0791

> <Gold.PLP.PLP>
-42.2274

> <Gold.PLP.part.hbond>
-2.4155

> <Gold.PLP.part.metal>
0.0000

> <Gold.PLP.part.buried>
-1.2433

> <Gold.PLP.part.nonpolar>
-39.1039

> <Gold.PLP.part.repulsive>
1.3344

> <Gold.PLP.ligand.clash>
0.0000

> <Gold.PLP.ligand.torsion>
0.7882

> <Gold.PLP.Chemscore.Hbond>
1.3120

> <Gold.PLP.Chemscore.CHOScore>
0.0000

> <Gold.PLP.Chemscore.Metal>
0.0000

> <Gold.Chemscore.Hbonds>
donor molecule, donor type, donor heavy atom, donor atom, acceptor molecule, acceptor atom, score
      P1  H  7997  8009       L1    16  1.00

> <Gold.PLP.Chemscore.Internal.Correction>
0.4921

> <Gold.Rescore>
     Score         DG    S(hbond)    S(metal)    S(lipo)     H(rot)  DE(clash)    DE(int)     intcor
     10.54     -11.34       0.64        0.00      86.30       2.49       0.08       0.72       ----

> <Gold.Chemscore.Fitness>
10.5399

> <Gold.Chemscore.DG>
-11.3367

> <Gold.Chemscore.ZeroCoef>
-5.4800

> <Gold.Chemscore.Hbond>
0.6389

> <Gold.Chemscore.Metal>
0.0000

> <Gold.Chemscore.Lipo>
86.2981

> <Gold.Chemscore.Internal_Hbond>
0.0000

> <Gold.Chemscore.DEClash>
0.0817

> <Gold.Chemscore.DEInternal>
0.7152

> <Gold.Chemscore.Rot>
2.4899

> <Gold.Chemscore.Internal.Correction>
   9.000000E+99

> <Gold.Chemscore.Hbonds>
donor molecule, donor type, donor heavy atom, donor atom, acceptor molecule, acceptor atom, score
      P1  H  7997  8009       L1    16  0.29

> <Gold.Chemscore.Hbond.Weighted>
-2.1340

> <Gold.Chemscore.Metal.Weighted>
-0.0000

> <Gold.Chemscore.Lipo.Weighted>
-10.0969

> <Gold.Chemscore.Internal_Hbond.Weighted>
0.0000

> <Gold.Chemscore.DEClash.Weighted>
0.0817

> <Gold.Chemscore.DEInternal.Weighted>
0.7152

> <Gold.Chemscore.Rot.Weighted>
6.3741

> <Gold.Chemscore.Internal.Correction.Weighted>
   9.000000E+99

> <Gold.Protein.RotatedTorsions>
[ 6907 6896 6895 6894 ] final -144.93 input  -60.11 | X-H torsion
[ 7974 7965 7964 7962 ] final -139.29 input  175.53 | X-H torsion
[ 8008 7997 7996 7995 ] final -177.61 input   59.86 | X-H torsion
[ 10167 10162 10161 10158 ] final   99.84 input  -65.29 | X-H torsion
[ 10718 10713 10712 10709 ] final  115.95 input   66.30 | X-H torsion
[ 10763 10752 10751 10750 ] final   49.23 input  -60.55 | X-H torsion
[ 11005 11000 10999 10996 ] final  116.52 input  -57.11 | X-H torsion

> <Gold.Protein.ActiveResidues>
 VAL166  LYS551  ARG553  GLY616  TRP617  ASP618  TYR619  PRO620  LYS621  CYS622 
 ASP623  PHE694  ASN695  SER759  ASP760  ASP761  ALA762  ILE779  LEU786  VAL792 
 PHE793  MET794  SER795  GLU796  ALA797  LYS798  CYS799  TRP800  GLU811  SER814 

> <Gold.Protein.RotatedAtoms>
  151.1208  133.5106  159.2601 H   0  0  0  0  0  0  0  0  0  0  0  0  # atno 6907 bound_to 6896
  151.1864  135.0383  159.8824 H   0  0  0  0  0  0  0  0  0  0  0  0  # atno 6908 bound_to 6896
  152.5455  134.1053  159.8389 H   0  0  0  0  0  0  0  0  0  0  0  0  # atno 6909 bound_to 6896
  144.8689  140.6335  143.5280 H   0  0  0  0  0  0  0  0  0  0  0  0  # atno 7974 bound_to 7965
  156.0090  140.1236  157.0473 H   0  0  0  0  0  0  0  0  0  0  0  0  # atno 8008 bound_to 7997
  154.4269  140.1091  156.5872 H   0  0  0  0  0  0  0  0  0  0  0  0  # atno 8009 bound_to 7997
  155.6106  140.3471  155.4623 H   0  0  0  0  0  0  0  0  0  0  0  0  # atno 8010 bound_to 7997
  139.7581  144.6963  151.0332 H   0  0  0  0  0  0  0  0  0  0  0  0  # atno 10167 bound_to 10162
  157.6190  131.1019  150.7404 H   0  0  0  0  0  0  0  0  0  0  0  0  # atno 10718 bound_to 10713
  152.9788  135.5918  154.4055 H   0  0  0  0  0  0  0  0  0  0  0  0  # atno 10763 bound_to 10752
  154.3696  135.2767  155.2276 H   0  0  0  0  0  0  0  0  0  0  0  0  # atno 10764 bound_to 10752
  154.4237  135.6053  153.6080 H   0  0  0  0  0  0  0  0  0  0  0  0  # atno 10765 bound_to 10752
  139.9044  134.9599  156.7211 H   0  0  0  0  0  0  0  0  0  0  0  0  # atno 11005 bound_to 11000
  145.4169  139.1570  143.4095 LP  0  0  0  0  0  0  0  0  0  0  0  0  # atno 17320 bound_to 7965
  146.2916  140.4277  142.8737 LP  0  0  0  0  0  0  0  0  0  0  0  0  # atno 17321 bound_to 7965
  140.7804  143.4729  151.0122 LP  0  0  0  0  0  0  0  0  0  0  0  0  # atno 17342 bound_to 10162
  139.8416  143.7557  152.3180 LP  0  0  0  0  0  0  0  0  0  0  0  0  # atno 17343 bound_to 10162
  156.7765  130.4845  149.5409 LP  0  0  0  0  0  0  0  0  0  0  0  0  # atno 17370 bound_to 10713
  156.1326  130.6189  151.0355 LP  0  0  0  0  0  0  0  0  0  0  0  0  # atno 17371 bound_to 10713
  140.7000  133.9315  155.8018 LP  0  0  0  0  0  0  0  0  0  0  0  0  # atno 17394 bound_to 11000
  141.0379  134.0664  157.3938 LP  0  0  0  0  0  0  0  0  0  0  0  0  # atno 17395 bound_to 11000

$$$$
