AV-unprocessed.smi:1543|AV-procd|sdf|6208|dock5
  -GOLD-   22720 6383D 1   1.00000     0.00000
 Structure written by MMmdl.
 49 50  0  0  0  0  0  0  0  0  2 V2000
  145.2863  132.1118  149.0659 C   0  0  0  0  0  0  0  0  0  0  0  0
  145.6919  133.0742  150.1879 C   0  0  2  0  0  0  0  0  0  0  0  0
  146.2358  132.3270  151.4188 C   0  0  0  0  0  0  0  0  0  0  0  0
  146.5470  133.2847  152.5156 N   0  3  2  0  0  0  0  0  0  0  0  0
  147.3039  132.7188  153.6902 C   0  0  0  0  0  0  0  0  0  0  0  0
  146.5576  131.4825  154.2520 C   0  0  0  0  0  0  0  0  0  0  0  0
  148.6841  132.2024  153.2106 C   0  0  0  0  0  0  0  0  0  0  0  0
  147.4773  133.7827  154.8156 C   0  0  0  0  0  0  0  0  0  0  0  0
  148.2424  134.9571  154.3975 N   0  0  0  0  0  0  0  0  0  0  0  0
  149.0758  135.6622  155.1760 C   0  0  0  0  0  0  0  0  0  0  0  0
  149.2872  135.3958  156.3588 O   0  0  0  0  0  0  0  0  0  0  0  0
  149.6432  136.6699  154.4914 N   0  0  0  0  0  0  0  0  0  0  0  0
  150.5578  137.6528  154.9572 C   0  0  0  0  0  0  0  0  0  0  0  0
  151.4822  137.4481  156.0104 C   0  0  0  0  0  0  0  0  0  0  0  0
  152.3232  138.5110  156.3923 C   0  0  0  0  0  0  0  0  0  0  0  0
  152.2053  139.7398  155.7144 C   0  0  0  0  0  0  0  0  0  0  0  0
  151.3200  139.9529  154.7182 N   0  0  0  0  0  0  0  0  0  0  0  0
  150.5168  138.9296  154.3576 C   0  0  0  0  0  0  0  0  0  0  0  0
  145.3211  134.0647  152.8482 C   0  0  0  0  0  0  0  0  0  0  0  0
  144.7541  134.7706  151.6015 C   0  0  1  0  0  0  0  0  0  0  0  0
  145.5947  135.9749  151.1407 C   0  0  0  0  0  0  0  0  0  0  0  0
  144.5397  133.8255  150.5553 O   0  0  0  0  0  0  0  0  0  0  0  0
  146.1361  131.5153  148.7331 H   0  0  0  0  0  0  0  0  0  0  0  0
  144.9069  132.6583  148.2022 H   0  0  0  0  0  0  0  0  0  0  0  0
  144.5047  131.4266  149.3957 H   0  0  0  0  0  0  0  0  0  0  0  0
  146.4592  133.7423  149.7963 H   0  0  0  0  0  0  0  0  0  0  0  0
  145.5027  131.5944  151.7581 H   0  0  0  0  0  0  0  0  0  0  0  0
  147.1196  131.7750  151.1054 H   0  0  0  0  0  0  0  0  0  0  0  0
  147.1739  130.9250  154.9582 H   0  0  0  0  0  0  0  0  0  0  0  0
  146.2797  130.7903  153.4563 H   0  0  0  0  0  0  0  0  0  0  0  0
  145.6525  131.7541  154.7947 H   0  0  0  0  0  0  0  0  0  0  0  0
  149.1747  131.5922  153.9695 H   0  0  0  0  0  0  0  0  0  0  0  0
  149.3757  133.0134  152.9840 H   0  0  0  0  0  0  0  0  0  0  0  0
  148.5885  131.5821  152.3185 H   0  0  0  0  0  0  0  0  0  0  0  0
  146.5109  134.0984  155.2094 H   0  0  0  0  0  0  0  0  0  0  0  0
  148.0150  133.3550  155.6611 H   0  0  0  0  0  0  0  0  0  0  0  0
  148.1350  135.2481  153.4365 H   0  0  0  0  0  0  0  0  0  0  0  0
  149.4336  136.7104  153.5047 H   0  0  0  0  0  0  0  0  0  0  0  0
  151.5542  136.5106  156.5391 H   0  0  0  0  0  0  0  0  0  0  0  0
  153.0399  138.3882  157.1906 H   0  0  0  0  0  0  0  0  0  0  0  0
  152.8347  140.5750  155.9831 H   0  0  0  0  0  0  0  0  0  0  0  0
  149.8191  139.1376  153.5593 H   0  0  0  0  0  0  0  0  0  0  0  0
  144.5589  133.3962  153.2491 H   0  0  0  0  0  0  0  0  0  0  0  0
  145.5083  134.8199  153.6089 H   0  0  0  0  0  0  0  0  0  0  0  0
  143.7683  135.1578  151.8612 H   0  0  0  0  0  0  0  0  0  0  0  0
  145.6271  136.7418  151.9149 H   0  0  0  0  0  0  0  0  0  0  0  0
  145.1664  136.4288  150.2466 H   0  0  0  0  0  0  0  0  0  0  0  0
  146.6248  135.7000  150.9158 H   0  0  0  0  0  0  0  0  0  0  0  0
  147.1819  133.9552  152.1062 H   0  0  0  0  0  0  0  0  0  0  0  0
  1  2  1  0  0  0  0
  1 23  1  0  0  0  0
  1 24  1  0  0  0  0
  1 25  1  0  0  0  0
  2 22  1  0  0  0  0
  2  3  1  0  0  0  0
  2 26  1  0  0  0  0
  3  4  1  0  0  0  0
  3 27  1  0  0  0  0
  3 28  1  0  0  0  0
  4  5  1  0  0  0  0
  4 19  1  0  0  0  0
  4 49  1  0  0  0  0
  5  6  1  0  0  0  0
  5  7  1  0  0  0  0
  5  8  1  0  0  0  0
  6 29  1  0  0  0  0
  6 30  1  0  0  0  0
  6 31  1  0  0  0  0
  7 32  1  0  0  0  0
  7 33  1  0  0  0  0
  7 34  1  0  0  0  0
  8  9  1  0  0  0  0
  8 35  1  0  0  0  0
  8 36  1  0  0  0  0
  9 10  1  0  0  0  0
  9 37  1  0  0  0  0
 10 11  2  0  0  0  0
 10 12  1  0  0  0  0
 12 13  1  0  0  0  0
 12 38  1  0  0  0  0
 13 18  1  0  0  0  0
 13 14  2  0  0  0  0
 14 15  1  0  0  0  0
 14 39  1  0  0  0  0
 15 16  2  0  0  0  0
 15 40  1  0  0  0  0
 16 17  1  0  0  0  0
 16 41  1  0  0  0  0
 17 18  2  0  0  0  0
 18 42  1  0  0  0  0
 19 20  1  0  0  0  0
 19 43  1  0  0  0  0
 19 44  1  0  0  0  0
 20 21  1  0  0  0  0
 20 22  1  0  0  0  0
 20 45  1  0  0  0  0
 21 46  1  0  0  0  0
 21 47  1  0  0  0  0
 21 48  1  0  0  0  0
M  CHG  1   4   1
M  END
> <s_m_source_file>
AV-unprocessed.smi

> <i_m_source_file_index>
1543

> <i_lp_mmshare_version>
43012

> <i_f3d_flags>
0

> <s_epik_input>
W0NIM11bQ0BASF0xW0NIMl1OKFtDSDJdW0NASF0oTzEpW0NIM10pQyhbQ0gzXSkoW0NIM10pW0NIMl1bTkhdQyg9TylbTkhdYzJbY0hdW2NIXVtjSF1uW2NIXTI=

> <s_epik_cmdline>
J2VwaWtfcHl0aG9uJywgJy1waCcsICc3LjAnLCAnLXRuJywgJzgnLCAnLW1hJywgJzIwMCcsICctbWV0YWxfYmluZGluZycsICctaW1hZScsICc8aW5maWxlLm1hZT4nLCAnLW9tYWUnLCAnPG91dGZpbGUubWFlPic=

> <r_epik_Ionization_Penalty>
0.60676

> <r_epik_Ionization_Penalty_Charging>
0.602531

> <r_epik_Ionization_Penalty_Neutral>
0.00422967

> <r_epik_State_Penalty>
0.607492

> <r_epik_Charging_Adjusted_Penalty>
1.21002

> <i_epik_Tot_Q>
1

> <i_epik_Tot_abs_Q>
1

> <r_epik_Metal_State_Penalty>
0.604589

> <b_epik_Metal_Only>
0

> <s_lp_Force_Field>
OPLS_2005

> <r_lp_Energy>
30.3839

> <b_lp_Chiralities_Consistent>
1

> <s_lp_Variant>
AV-unprocessed.smi:1543-4

> <Gold.Version>
5.8.1

> <Gold.Id.Protein>
6NUR|6NUR_protein|mol2

> <Gold.PLP.Fitness>
44.6077

> <Gold.PLP.PLP>
-33.8338

> <Gold.PLP.part.hbond>
-2.9500

> <Gold.PLP.part.metal>
0.0000

> <Gold.PLP.part.buried>
-4.1256

> <Gold.PLP.part.nonpolar>
-26.9525

> <Gold.PLP.part.repulsive>
0.2767

> <Gold.PLP.ligand.clash>
0.0000

> <Gold.PLP.ligand.torsion>
0.5313

> <Gold.PLP.Chemscore.Hbond>
2.9193

> <Gold.PLP.Chemscore.CHOScore>
0.9840

> <Gold.PLP.Chemscore.Metal>
0.0000

> <Gold.Chemscore.Hbonds>
donor molecule, donor type, donor heavy atom, donor atom, acceptor molecule, acceptor atom, score
      L1  H     9    37       P1  7948  0.93
      L1  H    12    38       P1  7948  1.00
      P1  H  7989  7998       L1    17  1.00
      L1  C    18    42       P1  7957  0.91

> <Gold.PLP.Chemscore.Internal.Correction>
0.1267

> <Gold.Rescore>
     Score         DG    S(hbond)    S(metal)    S(lipo)     H(rot)  DE(clash)    DE(int)     intcor
     19.74     -21.18       2.48        0.00      95.44       1.46       0.12       1.32       ----

> <Gold.Chemscore.Fitness>
19.7410

> <Gold.Chemscore.DG>
-21.1821

> <Gold.Chemscore.ZeroCoef>
-5.4800

> <Gold.Chemscore.Hbond>
2.4794

> <Gold.Chemscore.Metal>
0.0000

> <Gold.Chemscore.Lipo>
95.4433

> <Gold.Chemscore.Internal_Hbond>
0.0000

> <Gold.Chemscore.DEClash>
0.1162

> <Gold.Chemscore.DEInternal>
1.3249

> <Gold.Chemscore.Rot>
1.4632

> <Gold.Chemscore.Internal.Correction>
   9.000000E+99

> <Gold.Chemscore.Hbonds>
donor molecule, donor type, donor heavy atom, donor atom, acceptor molecule, acceptor atom, score
      L1  H     9    37       P1  7948  0.86
      L1  H    12    38       P1  7948  0.85
      P1  H  7989  7998       L1    17  0.74

> <Gold.Chemscore.Hbond.Weighted>
-8.2811

> <Gold.Chemscore.Metal.Weighted>
-0.0000

> <Gold.Chemscore.Lipo.Weighted>
-11.1669

> <Gold.Chemscore.Internal_Hbond.Weighted>
0.0000

> <Gold.Chemscore.DEClash.Weighted>
0.1162

> <Gold.Chemscore.DEInternal.Weighted>
1.3249

> <Gold.Chemscore.Rot.Weighted>
3.7459

> <Gold.Chemscore.Internal.Correction.Weighted>
   9.000000E+99

> <Gold.Protein.RotatedTorsions>
[ 6907 6896 6895 6894 ] final  -44.25 input  -60.11 | X-H torsion
[ 7974 7965 7964 7962 ] final -149.83 input  175.53 | X-H torsion
[ 8008 7997 7996 7995 ] final  164.67 input   59.86 | X-H torsion
[ 10167 10162 10161 10158 ] final   96.86 input  -65.29 | X-H torsion
[ 10718 10713 10712 10709 ] final   25.36 input   66.30 | X-H torsion
[ 10763 10752 10751 10750 ] final -114.26 input  -60.55 | X-H torsion
[ 11005 11000 10999 10996 ] final   53.41 input  -57.11 | X-H torsion

> <Gold.Protein.ActiveResidues>
 VAL166  LYS551  ARG553  GLY616  TRP617  ASP618  TYR619  PRO620  LYS621  CYS622 
 ASP623  PHE694  ASN695  SER759  ASP760  ASP761  ALA762  ILE779  LEU786  VAL792 
 PHE793  MET794  SER795  GLU796  ALA797  LYS798  CYS799  TRP800  GLU811  SER814 

> <Gold.Protein.RotatedAtoms>
  150.9349  134.8762  159.7574 H   0  0  0  0  0  0  0  0  0  0  0  0  # atno 6907 bound_to 6896
  152.5054  134.4025  159.9431 H   0  0  0  0  0  0  0  0  0  0  0  0  # atno 6908 bound_to 6896
  151.4050  133.3705  159.2772 H   0  0  0  0  0  0  0  0  0  0  0  0  # atno 6909 bound_to 6896
  144.7944  140.5013  143.5750 H   0  0  0  0  0  0  0  0  0  0  0  0  # atno 7974 bound_to 7965
  156.1861  140.1690  156.8181 H   0  0  0  0  0  0  0  0  0  0  0  0  # atno 8008 bound_to 7997
  154.5416  140.0735  156.8552 H   0  0  0  0  0  0  0  0  0  0  0  0  # atno 8009 bound_to 7997
  155.3203  140.3373  155.4244 H   0  0  0  0  0  0  0  0  0  0  0  0  # atno 8010 bound_to 7997
  139.7854  144.6872  150.9964 H   0  0  0  0  0  0  0  0  0  0  0  0  # atno 10167 bound_to 10162
  157.1924  130.6852  149.6155 H   0  0  0  0  0  0  0  0  0  0  0  0  # atno 10718 bound_to 10713
  154.8432  135.4424  154.1479 H   0  0  0  0  0  0  0  0  0  0  0  0  # atno 10763 bound_to 10752
  153.2647  135.6939  153.7548 H   0  0  0  0  0  0  0  0  0  0  0  0  # atno 10764 bound_to 10752
  153.6811  135.3403  155.3154 H   0  0  0  0  0  0  0  0  0  0  0  0  # atno 10765 bound_to 10752
  140.0770  134.5391  155.8986 H   0  0  0  0  0  0  0  0  0  0  0  0  # atno 11005 bound_to 11000
  145.5712  139.1483  143.3287 LP  0  0  0  0  0  0  0  0  0  0  0  0  # atno 17320 bound_to 7965
  146.2207  140.5845  142.9018 LP  0  0  0  0  0  0  0  0  0  0  0  0  # atno 17321 bound_to 7965
  140.7819  143.4437  151.0513 LP  0  0  0  0  0  0  0  0  0  0  0  0  # atno 17342 bound_to 10162
  139.8116  143.7943  152.3171 LP  0  0  0  0  0  0  0  0  0  0  0  0  # atno 17343 bound_to 10162
  155.9710  130.4610  150.6094 LP  0  0  0  0  0  0  0  0  0  0  0  0  # atno 17370 bound_to 10713
  157.3848  131.0786  151.1445 LP  0  0  0  0  0  0  0  0  0  0  0  0  # atno 17371 bound_to 10713
  141.2033  133.6631  156.6054 LP  0  0  0  0  0  0  0  0  0  0  0  0  # atno 17394 bound_to 11000
  140.3544  134.7741  157.4490 LP  0  0  0  0  0  0  0  0  0  0  0  0  # atno 17395 bound_to 11000

$$$$
