AV-unprocessed.smi:3090|AV-procd|sdf|11777|dock5
  -GOLD-   2272017153D 1   1.00000     0.00000
 Structure written by MMmdl.
 21 21  0  0  0  0  0  0  0  0  1 V2000
  152.0946  142.3345  158.3131 C   0  0  0  0  0  0  0  0  0  0  0  0
  151.5496  141.5256  157.2441 N   0  0  0  0  0  0  0  0  0  0  0  0
  150.3931  141.7200  156.5203 C   0  0  0  0  0  0  0  0  0  0  0  0
  150.2915  140.6936  155.6218 C   0  0  0  0  0  0  0  0  0  0  0  0
  149.2256  140.4269  154.5914 C   0  0  1  0  0  0  0  0  0  0  0  0
  149.5675  141.0104  153.3498 O   0  0  0  0  0  0  0  0  0  0  0  0
  149.0537  138.9137  154.3748 C   0  0  0  0  0  0  0  0  0  0  0  0
  150.0739  138.3452  153.4800 N   0  0  0  0  0  0  0  0  0  0  0  0
  151.4582  139.9179  155.8793 C   0  0  0  0  0  0  0  0  0  0  0  0
  152.2070  140.4164  156.8494 N   0  0  0  0  0  0  0  0  0  0  0  0
  151.4455  143.1895  158.5041 H   0  0  0  0  0  0  0  0  0  0  0  0
  153.0851  142.6958  158.0350 H   0  0  0  0  0  0  0  0  0  0  0  0
  152.1726  141.7384  159.2228 H   0  0  0  0  0  0  0  0  0  0  0  0
  149.7424  142.5631  156.7014 H   0  0  0  0  0  0  0  0  0  0  0  0
  148.2770  140.8578  154.9146 H   0  0  0  0  0  0  0  0  0  0  0  0
  149.3839  140.3863  152.6647 H   0  0  0  0  0  0  0  0  0  0  0  0
  149.0494  138.3908  155.3321 H   0  0  0  0  0  0  0  0  0  0  0  0
  148.0743  138.7344  153.9297 H   0  0  0  0  0  0  0  0  0  0  0  0
  149.7660  137.4447  153.1159 H   0  0  0  0  0  0  0  0  0  0  0  0
  150.2260  138.9561  152.6791 H   0  0  0  0  0  0  0  0  0  0  0  0
  151.7806  139.0102  155.3909 H   0  0  0  0  0  0  0  0  0  0  0  0
  1  2  1  0  0  0  0
  1 11  1  0  0  0  0
  1 12  1  0  0  0  0
  1 13  1  0  0  0  0
  2 10  1  0  0  0  0
  2  3  1  0  0  0  0
  3  4  2  0  0  0  0
  3 14  1  0  0  0  0
  4  5  1  0  0  0  0
  4  9  1  0  0  0  0
  5  6  1  0  0  0  0
  5  7  1  0  0  0  0
  5 15  1  0  0  0  0
  6 16  1  0  0  0  0
  7  8  1  0  0  0  0
  7 17  1  0  0  0  0
  7 18  1  0  0  0  0
  8 19  1  0  0  0  0
  8 20  1  0  0  0  0
  9 10  2  0  0  0  0
  9 21  1  0  0  0  0
M  END
> <s_m_source_file>
AV-unprocessed.smi

> <i_m_source_file_index>
3090

> <i_lp_mmshare_version>
43012

> <i_f3d_flags>
0

> <s_epik_input>
W0NIM11uMVtjSF1jKFtjSF1uMSlbQ0BIXShbT0hdKVtDSDJdW05IMl0=

> <s_epik_cmdline>
J2VwaWtfcHl0aG9uJywgJy1waCcsICc3LjAnLCAnLXRuJywgJzgnLCAnLW1hJywgJzIwMCcsICctbWV0YWxfYmluZGluZycsICctaW1hZScsICc8aW5maWxlLm1hZT4nLCAnLW9tYWUnLCAnPG91dGZpbGUubWFlPic=

> <r_lp_tautomer_probability>
1

> <r_epik_Ionization_Penalty>
2.22426

> <r_epik_Ionization_Penalty_Charging>
0

> <r_epik_Ionization_Penalty_Neutral>
2.22426

> <r_epik_State_Penalty>
2.36938

> <r_epik_Charging_Adjusted_Penalty>
2.36938

> <i_epik_Tot_Q>
0

> <i_epik_Tot_abs_Q>
0

> <r_epik_Metal_State_Penalty>
2.36934

> <b_epik_Metal_Only>
0

> <s_lp_Force_Field>
OPLS_2005

> <r_lp_Energy>
8.04815

> <b_lp_Chiralities_Consistent>
1

> <s_lp_Variant>
AV-unprocessed.smi:3090-4

> <Gold.Version>
5.8.1

> <Gold.Id.Protein>
6NUR|6NUR_protein|mol2

> <Gold.PLP.Fitness>
36.0577

> <Gold.PLP.PLP>
-21.0959

> <Gold.PLP.part.hbond>
-5.5652

> <Gold.PLP.part.metal>
0.0000

> <Gold.PLP.part.buried>
-1.2977

> <Gold.PLP.part.nonpolar>
-13.3766

> <Gold.PLP.part.repulsive>
0.0000

> <Gold.PLP.ligand.clash>
0.0000

> <Gold.PLP.ligand.torsion>
0.9279

> <Gold.PLP.Chemscore.Hbond>
4.6206

> <Gold.PLP.Chemscore.CHOScore>
0.9849

> <Gold.PLP.Chemscore.Metal>
0.0000

> <Gold.Chemscore.Hbonds>
donor molecule, donor type, donor heavy atom, donor atom, acceptor molecule, acceptor atom, score
      L1  H     6    16       P1  7957  0.88
      L1  H     8    19       P1  7948  1.00
      L1  H     8    20       P1  7957  1.00
      P1  H  7989  7998       L1     6  0.21
      P1  H  7997  8009       L1    10  0.62
      P1  H  8011  8017       L1     6  0.85
      L1  C     3    14       P1  8028  0.97

> <Gold.PLP.Chemscore.Internal.Correction>
0.0011

> <Gold.Rescore>
     Score         DG    S(hbond)    S(metal)    S(lipo)     H(rot)  DE(clash)    DE(int)     intcor
     17.15     -18.09       3.79        0.00      41.29       1.90       0.08       0.86       ----

> <Gold.Chemscore.Fitness>
17.1467

> <Gold.Chemscore.DG>
-18.0877

> <Gold.Chemscore.ZeroCoef>
-5.4800

> <Gold.Chemscore.Hbond>
3.7877

> <Gold.Chemscore.Metal>
0.0000

> <Gold.Chemscore.Lipo>
41.2873

> <Gold.Chemscore.Internal_Hbond>
0.0000

> <Gold.Chemscore.DEClash>
0.0792

> <Gold.Chemscore.DEInternal>
0.8619

> <Gold.Chemscore.Rot>
1.9039

> <Gold.Chemscore.Internal.Correction>
   9.000000E+99

> <Gold.Chemscore.Hbonds>
donor molecule, donor type, donor heavy atom, donor atom, acceptor molecule, acceptor atom, score
      L1  H     6    16       P1  7957  0.83
      L1  H     8    19       P1  7948  0.54
      L1  H     8    20       P1  7957  0.48
      P1  H  7989  7998       L1     6  0.01
      P1  H  7997  8009       L1    10  0.50
      P1  H  8011  8017       L1     6  0.14

> <Gold.Chemscore.Hbond.Weighted>
-12.6511

> <Gold.Chemscore.Metal.Weighted>
-0.0000

> <Gold.Chemscore.Lipo.Weighted>
-4.8306

> <Gold.Chemscore.Internal_Hbond.Weighted>
0.0000

> <Gold.Chemscore.DEClash.Weighted>
0.0792

> <Gold.Chemscore.DEInternal.Weighted>
0.8619

> <Gold.Chemscore.Rot.Weighted>
4.8739

> <Gold.Chemscore.Internal.Correction.Weighted>
   9.000000E+99

> <Gold.Protein.RotatedTorsions>
[ 6907 6896 6895 6894 ] final   96.69 input  -60.11 | X-H torsion
[ 7974 7965 7964 7962 ] final -151.71 input  175.53 | X-H torsion
[ 8008 7997 7996 7995 ] final -172.43 input   59.86 | X-H torsion
[ 10167 10162 10161 10158 ] final  -16.98 input  -65.29 | X-H torsion
[ 10718 10713 10712 10709 ] final  162.92 input   66.30 | X-H torsion
[ 10763 10752 10751 10750 ] final  156.03 input  -60.55 | X-H torsion
[ 11005 11000 10999 10996 ] final   89.66 input  -57.11 | X-H torsion

> <Gold.Protein.ActiveResidues>
 VAL166  LYS551  ARG553  GLY616  TRP617  ASP618  TYR619  PRO620  LYS621  CYS622 
 ASP623  PHE694  ASN695  SER759  ASP760  ASP761  ALA762  ILE779  LEU786  VAL792 
 PHE793  MET794  SER795  GLU796  ALA797  LYS798  CYS799  TRP800  GLU811  SER814 

> <Gold.Protein.RotatedAtoms>
  152.5432  134.0848  159.8250 H   0  0  0  0  0  0  0  0  0  0  0  0  # atno 6907 bound_to 6896
  151.0945  133.5283  159.2620 H   0  0  0  0  0  0  0  0  0  0  0  0  # atno 6908 bound_to 6896
  151.2061  135.0471  159.8946 H   0  0  0  0  0  0  0  0  0  0  0  0  # atno 6909 bound_to 6896
  144.7834  140.4760  143.5823 H   0  0  0  0  0  0  0  0  0  0  0  0  # atno 7974 bound_to 7965
  155.9445  140.1115  157.1028 H   0  0  0  0  0  0  0  0  0  0  0  0  # atno 8008 bound_to 7997
  154.4096  140.1212  156.5036 H   0  0  0  0  0  0  0  0  0  0  0  0  # atno 8009 bound_to 7997
  155.6920  140.3472  155.4900 H   0  0  0  0  0  0  0  0  0  0  0  0  # atno 8010 bound_to 7997
  140.7241  143.5061  150.9808 H   0  0  0  0  0  0  0  0  0  0  0  0  # atno 10167 bound_to 10162
  157.1158  131.0479  151.2437 H   0  0  0  0  0  0  0  0  0  0  0  0  # atno 10718 bound_to 10713
  154.1779  135.2801  155.3061 H   0  0  0  0  0  0  0  0  0  0  0  0  # atno 10763 bound_to 10752
  154.6025  135.5525  153.7393 H   0  0  0  0  0  0  0  0  0  0  0  0  # atno 10764 bound_to 10752
  153.0146  135.6395  154.1918 H   0  0  0  0  0  0  0  0  0  0  0  0  # atno 10765 bound_to 10752
  139.8871  134.8565  156.3173 H   0  0  0  0  0  0  0  0  0  0  0  0  # atno 11005 bound_to 11000
  145.5987  139.1502  143.3141 LP  0  0  0  0  0  0  0  0  0  0  0  0  # atno 17320 bound_to 7965
  146.2054  140.6109  142.9083 LP  0  0  0  0  0  0  0  0  0  0  0  0  # atno 17321 bound_to 7965
  139.8773  143.7117  152.3160 LP  0  0  0  0  0  0  0  0  0  0  0  0  # atno 17342 bound_to 10162
  139.7387  144.7565  151.0687 LP  0  0  0  0  0  0  0  0  0  0  0  0  # atno 17343 bound_to 10162
  157.4520  130.7603  149.7159 LP  0  0  0  0  0  0  0  0  0  0  0  0  # atno 17370 bound_to 10713
  155.9840  130.3995  150.3335 LP  0  0  0  0  0  0  0  0  0  0  0  0  # atno 17371 bound_to 10713
  140.9810  133.7267  156.0672 LP  0  0  0  0  0  0  0  0  0  0  0  0  # atno 17394 bound_to 11000
  140.7749  134.3791  157.5500 LP  0  0  0  0  0  0  0  0  0  0  0  0  # atno 17395 bound_to 11000

$$$$
