AV-unprocessed.smi:2461|AV-procd|sdf|9716|dock1
  -GOLD-   2272013353D 1   1.00000     0.00000
 Structure written by MMmdl.
 36 37  0  0  0  0  0  0  0  0  1 V2000
  150.2254  144.8920  161.0308 C   0  0  0  0  0  0  0  0  0  0  0  0
  151.4989  145.2140  160.2359 C   0  0  0  0  0  0  0  0  0  0  0  0
  151.6749  144.3488  158.9924 C   0  0  0  0  0  0  0  0  0  0  0  0
  150.3429  143.7861  158.4894 C   0  0  0  0  0  0  0  0  0  0  0  0
  150.4107  142.9852  157.2724 N   0  0  0  0  0  0  0  0  0  0  0  0
  150.9556  141.7636  157.1854 C   0  0  0  0  0  0  0  0  0  0  0  0
  151.5045  141.1956  158.1298 O   0  0  0  0  0  0  0  0  0  0  0  0
  150.8095  141.2535  155.9501 N   0  0  0  0  0  0  0  0  0  0  0  0
  151.2273  139.9829  155.4739 C   0  0  0  0  0  0  0  0  0  0  0  0
  152.2395  139.3480  156.2281 C   0  0  0  0  0  0  0  0  0  0  0  0
  152.6891  138.0875  155.7843 C   0  0  0  0  0  0  0  0  0  0  0  0
  153.6839  137.4395  156.4867 O   0  0  0  0  0  0  0  0  0  0  0  0
  154.0638  137.9651  157.7534 C   0  0  0  0  0  0  0  0  0  0  0  0
  152.1648  137.5029  154.6801 N   0  0  0  0  0  0  0  0  0  0  0  0
  151.2104  138.1786  154.0391 C   0  0  0  0  0  0  0  0  0  0  0  0
  150.7208  139.3739  154.3733 N   0  0  0  0  0  0  0  0  0  0  0  0
  152.7632  144.7097  157.9935 C   0  0  0  0  0  0  0  0  0  0  0  0
  152.9236  143.4956  158.8640 C   0  0  0  0  0  0  0  0  0  0  0  0
  150.1613  145.5155  161.9226 H   0  0  0  0  0  0  0  0  0  0  0  0
  150.2156  143.8510  161.3544 H   0  0  0  0  0  0  0  0  0  0  0  0
  149.3250  145.0676  160.4428 H   0  0  0  0  0  0  0  0  0  0  0  0
  151.5057  146.2655  159.9476 H   0  0  0  0  0  0  0  0  0  0  0  0
  152.3612  145.0751  160.8890 H   0  0  0  0  0  0  0  0  0  0  0  0
  149.9175  143.1540  159.2688 H   0  0  0  0  0  0  0  0  0  0  0  0
  149.6179  144.5884  158.3447 H   0  0  0  0  0  0  0  0  0  0  0  0
  149.9850  143.3783  156.4457 H   0  0  0  0  0  0  0  0  0  0  0  0
  150.3235  141.8308  155.2799 H   0  0  0  0  0  0  0  0  0  0  0  0
  152.6625  139.8083  157.1092 H   0  0  0  0  0  0  0  0  0  0  0  0
  154.8456  137.3392  158.1834 H   0  0  0  0  0  0  0  0  0  0  0  0
  153.2249  137.9714  158.4509 H   0  0  0  0  0  0  0  0  0  0  0  0
  154.4622  138.9766  157.6629 H   0  0  0  0  0  0  0  0  0  0  0  0
  150.7912  137.7110  153.1603 H   0  0  0  0  0  0  0  0  0  0  0  0
  152.5804  144.5350  156.9353 H   0  0  0  0  0  0  0  0  0  0  0  0
  153.3914  145.5702  158.2140 H   0  0  0  0  0  0  0  0  0  0  0  0
  153.6595  143.5482  159.6637 H   0  0  0  0  0  0  0  0  0  0  0  0
  152.8335  142.5239  158.3823 H   0  0  0  0  0  0  0  0  0  0  0  0
  1  2  1  0  0  0  0
  1 19  1  0  0  0  0
  1 20  1  0  0  0  0
  1 21  1  0  0  0  0
  2  3  1  0  0  0  0
  2 22  1  0  0  0  0
  2 23  1  0  0  0  0
  3 18  1  0  0  0  0
  3  4  1  0  0  0  0
  3 17  1  0  0  0  0
  4  5  1  0  0  0  0
  4 24  1  0  0  0  0
  4 25  1  0  0  0  0
  5  6  1  0  0  0  0
  5 26  1  0  0  0  0
  6  7  2  0  0  0  0
  6  8  1  0  0  0  0
  8  9  1  0  0  0  0
  8 27  1  0  0  0  0
  9 16  1  0  0  0  0
  9 10  2  0  0  0  0
 10 11  1  0  0  0  0
 10 28  1  0  0  0  0
 11 12  1  0  0  0  0
 11 14  2  0  0  0  0
 12 13  1  0  0  0  0
 13 29  1  0  0  0  0
 13 30  1  0  0  0  0
 13 31  1  0  0  0  0
 14 15  1  0  0  0  0
 15 16  2  0  0  0  0
 15 32  1  0  0  0  0
 17 18  1  0  0  0  0
 17 33  1  0  0  0  0
 17 34  1  0  0  0  0
 18 35  1  0  0  0  0
 18 36  1  0  0  0  0
M  END
> <s_m_source_file>
AV-unprocessed.smi

> <i_m_source_file_index>
2461

> <i_lp_mmshare_version>
43012

> <i_f3d_flags>
0

> <s_epik_input>
W0NIM11bQ0gyXUMxKFtDSDJdW0NIMl0xKVtDSDJdW05IXUMoPU8pW05IXWMyW2NIXWMoT1tDSDNdKW5bY0hdbjI=

> <s_epik_cmdline>
J2VwaWtfcHl0aG9uJywgJy1waCcsICc3LjAnLCAnLXRuJywgJzgnLCAnLW1hJywgJzIwMCcsICctbWV0YWxfYmluZGluZycsICctaW1hZScsICc8aW5maWxlLm1hZT4nLCAnLW9tYWUnLCAnPG91dGZpbGUubWFlPic=

> <r_lp_tautomer_probability>
1

> <r_epik_Ionization_Penalty>
2.7206e-05

> <r_epik_Ionization_Penalty_Charging>
0

> <r_epik_Ionization_Penalty_Neutral>
2.7206e-05

> <r_epik_State_Penalty>
-0

> <r_epik_Charging_Adjusted_Penalty>
0

> <i_epik_Tot_Q>
0

> <i_epik_Tot_abs_Q>
0

> <r_epik_Metal_State_Penalty>
-0

> <b_epik_Metal_Only>
0

> <s_lp_Force_Field>
OPLS_2005

> <r_lp_Energy>
17.684

> <b_lp_Chiralities_Consistent>
1

> <s_lp_Variant>
AV-unprocessed.smi:2461-1

> <Gold.Version>
5.8.1

> <Gold.Id.Protein>
6NUR|6NUR_protein|mol2

> <Gold.PLP.Fitness>
44.8211

> <Gold.PLP.PLP>
-36.9292

> <Gold.PLP.part.hbond>
-3.6460

> <Gold.PLP.part.metal>
0.0000

> <Gold.PLP.part.buried>
-2.8552

> <Gold.PLP.part.nonpolar>
-31.2739

> <Gold.PLP.part.repulsive>
0.3803

> <Gold.PLP.ligand.clash>
0.0000

> <Gold.PLP.ligand.torsion>
1.1743

> <Gold.PLP.Chemscore.Hbond>
1.8867

> <Gold.PLP.Chemscore.CHOScore>
1.0952

> <Gold.PLP.Chemscore.Metal>
0.0000

> <Gold.Chemscore.Hbonds>
donor molecule, donor type, donor heavy atom, donor atom, acceptor molecule, acceptor atom, score
      L1  H     5    26       P1  8028  0.98
      P1  H  7989  7998       L1    16  0.10
      P1  H 10752 10765       L1    14  0.77
      L1  C    15    32       P1  7948  0.26
      L1  C    15    32       P1  7949  0.82

> <Gold.PLP.Chemscore.Internal.Correction>
1.2948

> <Gold.Rescore>
     Score         DG    S(hbond)    S(metal)    S(lipo)     H(rot)  DE(clash)    DE(int)     intcor
     10.81     -15.81       1.67        0.00      81.35       1.87       1.06       3.94       ----

> <Gold.Chemscore.Fitness>
10.8143

> <Gold.Chemscore.DG>
-15.8103

> <Gold.Chemscore.ZeroCoef>
-5.4800

> <Gold.Chemscore.Hbond>
1.6739

> <Gold.Chemscore.Metal>
0.0000

> <Gold.Chemscore.Lipo>
81.3463

> <Gold.Chemscore.Internal_Hbond>
0.0000

> <Gold.Chemscore.DEClash>
1.0570

> <Gold.Chemscore.DEInternal>
3.9390

> <Gold.Chemscore.Rot>
1.8664

> <Gold.Chemscore.Internal.Correction>
   9.000000E+99

> <Gold.Chemscore.Hbonds>
donor molecule, donor type, donor heavy atom, donor atom, acceptor molecule, acceptor atom, score
      L1  H     5    26       P1  8028  0.92
      P1  H 10752 10765       L1    14  0.51

> <Gold.Chemscore.Hbond.Weighted>
-5.5909

> <Gold.Chemscore.Metal.Weighted>
-0.0000

> <Gold.Chemscore.Lipo.Weighted>
-9.5175

> <Gold.Chemscore.Internal_Hbond.Weighted>
0.0000

> <Gold.Chemscore.DEClash.Weighted>
1.0570

> <Gold.Chemscore.DEInternal.Weighted>
3.9390

> <Gold.Chemscore.Rot.Weighted>
4.7781

> <Gold.Chemscore.Internal.Correction.Weighted>
   9.000000E+99

> <Gold.Protein.RotatedTorsions>
[ 6907 6896 6895 6894 ] final -148.94 input  -60.11 | X-H torsion
[ 7974 7965 7964 7962 ] final   94.22 input  175.53 | X-H torsion
[ 8008 7997 7996 7995 ] final  -47.59 input   59.86 | X-H torsion
[ 10167 10162 10161 10158 ] final -125.87 input  -65.29 | X-H torsion
[ 10718 10713 10712 10709 ] final -163.31 input   66.30 | X-H torsion
[ 10763 10752 10751 10750 ] final  171.84 input  -60.55 | X-H torsion
[ 11005 11000 10999 10996 ] final  -64.02 input  -57.11 | X-H torsion

> <Gold.Protein.ActiveResidues>
 VAL166  LYS551  ARG553  GLY616  TRP617  ASP618  TYR619  PRO620  LYS621  CYS622 
 ASP623  PHE694  ASN695  SER759  ASP760  ASP761  ALA762  ILE779  LEU786  VAL792 
 PHE793  MET794  SER795  GLU796  ALA797  LYS798  CYS799  TRP800  GLU811  SER814 

> <Gold.Protein.RotatedAtoms>
  151.1770  133.4749  159.2593 H   0  0  0  0  0  0  0  0  0  0  0  0  # atno 6907 bound_to 6896
  151.1298  135.0124  159.8587 H   0  0  0  0  0  0  0  0  0  0  0  0  # atno 6908 bound_to 6896
  152.5459  134.1674  159.8635 H   0  0  0  0  0  0  0  0  0  0  0  0  # atno 6909 bound_to 6896
  145.4684  139.2283  143.2948 H   0  0  0  0  0  0  0  0  0  0  0  0  # atno 7974 bound_to 7965
  154.4018  140.1342  156.4201 H   0  0  0  0  0  0  0  0  0  0  0  0  # atno 8008 bound_to 7997
  155.7651  140.3485  155.5198 H   0  0  0  0  0  0  0  0  0  0  0  0  # atno 8009 bound_to 7997
  155.8821  140.0989  157.1468 H   0  0  0  0  0  0  0  0  0  0  0  0  # atno 8010 bound_to 7997
  139.9775  143.5778  152.2390 H   0  0  0  0  0  0  0  0  0  0  0  0  # atno 10167 bound_to 10162
  156.6229  130.8898  151.2961 H   0  0  0  0  0  0  0  0  0  0  0  0  # atno 10718 bound_to 10713
  154.4176  135.2757  155.1996 H   0  0  0  0  0  0  0  0  0  0  0  0  # atno 10763 bound_to 10752
  154.3956  135.6056  153.5871 H   0  0  0  0  0  0  0  0  0  0  0  0  # atno 10764 bound_to 10752
  152.9832  135.5914  154.4467 H   0  0  0  0  0  0  0  0  0  0  0  0  # atno 10765 bound_to 10752
  141.1412  133.6660  156.5770 H   0  0  0  0  0  0  0  0  0  0  0  0  # atno 11005 bound_to 11000
  146.2411  140.5460  142.8934 LP  0  0  0  0  0  0  0  0  0  0  0  0  # atno 17320 bound_to 7965
  144.7960  140.6123  143.6510 LP  0  0  0  0  0  0  0  0  0  0  0  0  # atno 17321 bound_to 7965
  139.6434  144.7656  151.2292 LP  0  0  0  0  0  0  0  0  0  0  0  0  # atno 17342 bound_to 10162
  140.7500  143.6278  150.8451 LP  0  0  0  0  0  0  0  0  0  0  0  0  # atno 17343 bound_to 10162
  157.7222  130.9574  150.1486 LP  0  0  0  0  0  0  0  0  0  0  0  0  # atno 17370 bound_to 10713
  156.2297  130.3681  149.8460 LP  0  0  0  0  0  0  0  0  0  0  0  0  # atno 17371 bound_to 10713
  140.3868  134.7475  157.4696 LP  0  0  0  0  0  0  0  0  0  0  0  0  # atno 17394 bound_to 11000
  140.0596  134.6014  155.8764 LP  0  0  0  0  0  0  0  0  0  0  0  0  # atno 17395 bound_to 11000

$$$$
