AV-unprocessed.smi:3094|AV-procd|sdf|11790|dock3
  -GOLD-   2272017163D 1   1.00000     0.00000
 Structure written by MMmdl.
 29 30  0  0  0  0  0  0  0  0  1 V2000
  149.5432  140.4299  157.6712 C   0  0  0  0  0  0  0  0  0  0  0  0
  150.2757  141.2776  156.6200 C   0  0  2  0  0  0  0  0  0  0  0  0
  151.6571  140.6863  156.2808 C   0  0  0  0  0  0  0  0  0  0  0  0
  151.5562  139.4275  155.5653 N   0  0  0  0  0  0  0  0  0  0  0  0
  150.8520  139.1842  154.3935 C   0  0  0  0  0  0  0  0  0  0  0  0
  151.0481  137.8570  154.0854 C   0  0  0  0  0  0  0  0  0  0  0  0
  151.8621  137.2671  155.0496 N   0  0  0  0  0  0  0  0  0  0  0  0
  152.1208  138.2573  155.8939 C   0  0  0  0  0  0  0  0  0  0  0  0
  150.4221  142.6501  157.1015 N   0  0  0  0  0  0  0  0  0  0  0  0
  150.8144  143.0065  158.3341 C   0  0  0  0  0  0  0  0  0  0  0  0
  151.1220  142.1912  159.2046 O   0  0  0  0  0  0  0  0  0  0  0  0
  150.8420  144.4834  158.5550 C   0  0  0  0  0  0  0  0  0  0  0  0
  152.1845  145.1277  158.8343 C   0  0  0  0  0  0  0  0  0  0  0  0
  151.1775  144.9785  159.9471 C   0  0  0  0  0  0  0  0  0  0  0  0
  149.4090  139.4053  157.3237 H   0  0  0  0  0  0  0  0  0  0  0  0
  148.5533  140.8346  157.8848 H   0  0  0  0  0  0  0  0  0  0  0  0
  150.0982  140.3931  158.6092 H   0  0  0  0  0  0  0  0  0  0  0  0
  149.6762  141.2754  155.7076 H   0  0  0  0  0  0  0  0  0  0  0  0
  152.2425  141.3877  155.6839 H   0  0  0  0  0  0  0  0  0  0  0  0
  152.2229  140.5059  157.1955 H   0  0  0  0  0  0  0  0  0  0  0  0
  150.2884  139.9548  153.8883 H   0  0  0  0  0  0  0  0  0  0  0  0
  150.6687  137.2861  153.2507 H   0  0  0  0  0  0  0  0  0  0  0  0
  152.7399  138.1296  156.7698 H   0  0  0  0  0  0  0  0  0  0  0  0
  150.1903  143.3866  156.4510 H   0  0  0  0  0  0  0  0  0  0  0  0
  150.1246  145.0741  157.9870 H   0  0  0  0  0  0  0  0  0  0  0  0
  153.0688  144.4938  158.8715 H   0  0  0  0  0  0  0  0  0  0  0  0
  152.3491  146.1217  158.4235 H   0  0  0  0  0  0  0  0  0  0  0  0
  150.6591  145.8712  160.2910 H   0  0  0  0  0  0  0  0  0  0  0  0
  151.3937  144.2457  160.7227 H   0  0  0  0  0  0  0  0  0  0  0  0
  1  2  1  0  0  0  0
  1 15  1  0  0  0  0
  1 16  1  0  0  0  0
  1 17  1  0  0  0  0
  2  3  1  0  0  0  0
  2  9  1  0  0  0  0
  2 18  1  0  0  0  0
  3  4  1  0  0  0  0
  3 19  1  0  0  0  0
  3 20  1  0  0  0  0
  4  8  1  0  0  0  0
  4  5  1  0  0  0  0
  5  6  2  0  0  0  0
  5 21  1  0  0  0  0
  6  7  1  0  0  0  0
  6 22  1  0  0  0  0
  7  8  2  0  0  0  0
  8 23  1  0  0  0  0
  9 10  1  0  0  0  0
  9 24  1  0  0  0  0
 10 11  2  0  0  0  0
 10 12  1  0  0  0  0
 12 14  1  0  0  0  0
 12 13  1  0  0  0  0
 12 25  1  0  0  0  0
 13 14  1  0  0  0  0
 13 26  1  0  0  0  0
 13 27  1  0  0  0  0
 14 28  1  0  0  0  0
 14 29  1  0  0  0  0
M  END
> <s_m_source_file>
AV-unprocessed.smi

> <i_m_source_file_index>
3094

> <i_lp_mmshare_version>
43012

> <i_f3d_flags>
0

> <s_epik_input>
W0NIMl0xW0NIMl1bQ0hdMUMoPU8pW05IXVtDQEhdKFtDSDNdKVtDSDJdbjJbY0hdW2NIXW5bY0hdMg==

> <s_epik_cmdline>
J2VwaWtfcHl0aG9uJywgJy1waCcsICc3LjAnLCAnLXRuJywgJzgnLCAnLW1hJywgJzIwMCcsICctbWV0YWxfYmluZGluZycsICctaW1hZScsICc8aW5maWxlLm1hZT4nLCAnLW9tYWUnLCAnPG91dGZpbGUubWFlPic=

> <r_lp_tautomer_probability>
1

> <r_epik_Ionization_Penalty>
0.642614

> <r_epik_Ionization_Penalty_Charging>
0.642614

> <r_epik_Ionization_Penalty_Neutral>
4.09963e-08

> <r_epik_State_Penalty>
0.660429

> <r_epik_Charging_Adjusted_Penalty>
1.30304

> <i_epik_Tot_Q>
0

> <i_epik_Tot_abs_Q>
0

> <r_epik_Metal_State_Penalty>
0.31224

> <b_epik_Metal_Only>
0

> <s_lp_Force_Field>
OPLS_2005

> <r_lp_Energy>
8.14958

> <b_lp_Chiralities_Consistent>
1

> <s_lp_Variant>
AV-unprocessed.smi:3094-3

> <Gold.Version>
5.8.1

> <Gold.Id.Protein>
6NUR|6NUR_protein|mol2

> <Gold.PLP.Fitness>
41.1376

> <Gold.PLP.PLP>
-32.0182

> <Gold.PLP.part.hbond>
-2.1878

> <Gold.PLP.part.metal>
0.0000

> <Gold.PLP.part.buried>
-3.7368

> <Gold.PLP.part.nonpolar>
-25.7048

> <Gold.PLP.part.repulsive>
0.1092

> <Gold.PLP.ligand.clash>
0.0000

> <Gold.PLP.ligand.torsion>
0.3343

> <Gold.PLP.Chemscore.Hbond>
1.9760

> <Gold.PLP.Chemscore.CHOScore>
1.2485

> <Gold.PLP.Chemscore.Metal>
0.0000

> <Gold.Chemscore.Hbonds>
donor molecule, donor type, donor heavy atom, donor atom, acceptor molecule, acceptor atom, score
      L1  H     9    24       P1  8028  1.00
      P1  H 10752 10764       L1     7  0.95
      L1  C     5    21       P1  7957  0.29
      L1  C     6    22       P1  7948  0.32
      L1  C     6    22       P1  7949  0.64

> <Gold.PLP.Chemscore.Internal.Correction>
0.1145

> <Gold.Rescore>
     Score         DG    S(hbond)    S(metal)    S(lipo)     H(rot)  DE(clash)    DE(int)     intcor
     13.13     -15.14       1.87        0.00      69.25       1.83       0.29       1.72       ----

> <Gold.Chemscore.Fitness>
13.1300

> <Gold.Chemscore.DG>
-15.1398

> <Gold.Chemscore.ZeroCoef>
-5.4800

> <Gold.Chemscore.Hbond>
1.8727

> <Gold.Chemscore.Metal>
0.0000

> <Gold.Chemscore.Lipo>
69.2454

> <Gold.Chemscore.Internal_Hbond>
0.0000

> <Gold.Chemscore.DEClash>
0.2946

> <Gold.Chemscore.DEInternal>
1.7152

> <Gold.Chemscore.Rot>
1.8347

> <Gold.Chemscore.Internal.Correction>
   9.000000E+99

> <Gold.Chemscore.Hbonds>
donor molecule, donor type, donor heavy atom, donor atom, acceptor molecule, acceptor atom, score
      L1  H     9    24       P1  8028  0.91
      P1  H 10752 10764       L1     7  0.83

> <Gold.Chemscore.Hbond.Weighted>
-6.2550

> <Gold.Chemscore.Metal.Weighted>
-0.0000

> <Gold.Chemscore.Lipo.Weighted>
-8.1017

> <Gold.Chemscore.Internal_Hbond.Weighted>
0.0000

> <Gold.Chemscore.DEClash.Weighted>
0.2946

> <Gold.Chemscore.DEInternal.Weighted>
1.7152

> <Gold.Chemscore.Rot.Weighted>
4.6969

> <Gold.Chemscore.Internal.Correction.Weighted>
   9.000000E+99

> <Gold.Protein.RotatedTorsions>
[ 6907 6896 6895 6894 ] final   69.94 input  -60.11 | X-H torsion
[ 7974 7965 7964 7962 ] final  150.08 input  175.53 | X-H torsion
[ 8008 7997 7996 7995 ] final  -13.78 input   59.86 | X-H torsion
[ 10167 10162 10161 10158 ] final -116.52 input  -65.29 | X-H torsion
[ 10718 10713 10712 10709 ] final   21.00 input   66.30 | X-H torsion
[ 10763 10752 10751 10750 ] final  -61.70 input  -60.55 | X-H torsion
[ 11005 11000 10999 10996 ] final   22.61 input  -57.11 | X-H torsion

> <Gold.Protein.ActiveResidues>
 VAL166  LYS551  ARG553  GLY616  TRP617  ASP618  TYR619  PRO620  LYS621  CYS622 
 ASP623  PHE694  ASN695  SER759  ASP760  ASP761  ALA762  ILE779  LEU786  VAL792 
 PHE793  MET794  SER795  GLU796  ALA797  LYS798  CYS799  TRP800  GLU811  SER814 

> <Gold.Protein.RotatedAtoms>
  152.4718  134.4941  159.9704 H   0  0  0  0  0  0  0  0  0  0  0  0  # atno 6907 bound_to 6896
  151.4966  133.3507  159.2870 H   0  0  0  0  0  0  0  0  0  0  0  0  # atno 6908 bound_to 6896
  150.8733  134.8138  159.7232 H   0  0  0  0  0  0  0  0  0  0  0  0  # atno 6909 bound_to 6896
  144.8391  139.6362  143.6025 H   0  0  0  0  0  0  0  0  0  0  0  0  # atno 7974 bound_to 7965
  154.5264  140.2240  155.8883 H   0  0  0  0  0  0  0  0  0  0  0  0  # atno 8008 bound_to 7997
  156.1717  140.3120  155.8950 H   0  0  0  0  0  0  0  0  0  0  0  0  # atno 8009 bound_to 7997
  155.3543  140.0457  157.3037 H   0  0  0  0  0  0  0  0  0  0  0  0  # atno 8010 bound_to 7997
  140.0783  143.4812  152.1940 H   0  0  0  0  0  0  0  0  0  0  0  0  # atno 10167 bound_to 10162
  157.1323  130.6596  149.5955 H   0  0  0  0  0  0  0  0  0  0  0  0  # atno 10718 bound_to 10713
  154.2886  135.6258  153.5376 H   0  0  0  0  0  0  0  0  0  0  0  0  # atno 10763 bound_to 10752
  152.9855  135.5650  154.5415 H   0  0  0  0  0  0  0  0  0  0  0  0  # atno 10764 bound_to 10752
  154.5021  135.2872  155.1388 H   0  0  0  0  0  0  0  0  0  0  0  0  # atno 10765 bound_to 10752
  140.3787  134.1944  155.7664 H   0  0  0  0  0  0  0  0  0  0  0  0  # atno 11005 bound_to 11000
  146.2686  139.6579  142.9312 LP  0  0  0  0  0  0  0  0  0  0  0  0  # atno 17320 bound_to 7965
  145.4733  141.0436  143.2687 LP  0  0  0  0  0  0  0  0  0  0  0  0  # atno 17321 bound_to 7965
  139.5794  144.7503  151.3678 LP  0  0  0  0  0  0  0  0  0  0  0  0  # atno 17342 bound_to 10162
  140.7091  143.7438  150.7534 LP  0  0  0  0  0  0  0  0  0  0  0  0  # atno 17343 bound_to 10162
  155.9805  130.4806  150.6777 LP  0  0  0  0  0  0  0  0  0  0  0  0  # atno 17370 bound_to 10713
  157.4381  131.0858  151.0971 LP  0  0  0  0  0  0  0  0  0  0  0  0  # atno 17371 bound_to 10713
  141.1931  133.8159  157.0814 LP  0  0  0  0  0  0  0  0  0  0  0  0  # atno 17394 bound_to 11000
  140.0495  134.9813  157.1111 LP  0  0  0  0  0  0  0  0  0  0  0  0  # atno 17395 bound_to 11000

$$$$
