AV-unprocessed.smi:3001|AV-procd|sdf|11431|dock3
  -GOLD-   2272016353D 1   1.00000     0.00000
 Structure written by MMmdl.
 41 42  0  0  0  0  0  0  0  0  1 V2000
  143.0266  135.0192  163.0660 C   0  0  0  0  0  0  0  0  0  0  0  0
  143.8999  135.7744  162.6683 C   0  0  0  0  0  0  0  0  0  0  0  0
  144.9511  136.6778  162.1769 C   0  0  0  0  0  0  0  0  0  0  0  0
  145.6921  136.0885  161.0732 N   0  0  0  0  0  0  0  0  0  0  0  0
  146.9674  136.3760  160.7651 C   0  0  0  0  0  0  0  0  0  0  0  0
  147.6422  137.1762  161.4119 O   0  0  0  0  0  0  0  0  0  0  0  0
  147.6004  135.6701  159.5543 C   0  0  0  0  0  0  0  0  0  0  0  0
  147.9550  136.5616  158.4497 N   0  0  0  0  0  0  0  0  0  0  0  0
  149.1842  136.6997  157.9323 C   0  0  0  0  0  0  0  0  0  0  0  0
  150.1556  136.0334  158.2902 O   0  0  0  0  0  0  0  0  0  0  0  0
  149.2165  137.6764  157.0119 N   0  0  0  0  0  0  0  0  0  0  0  0
  150.3694  138.2177  156.3818 C   0  0  0  0  0  0  0  0  0  0  0  0
  151.6601  137.7122  156.6681 C   0  0  0  0  0  0  0  0  0  0  0  0
  152.7693  138.2236  155.9724 C   0  0  0  0  0  0  0  0  0  0  0  0
  152.5449  139.2137  155.0010 C   0  0  0  0  0  0  0  0  0  0  0  0
  151.3201  139.6968  154.7098 N   0  0  0  0  0  0  0  0  0  0  0  0
  150.2418  139.2251  155.3836 C   0  0  0  0  0  0  0  0  0  0  0  0
  148.9857  139.7867  155.0567 N   0  0  0  0  0  0  0  0  0  0  0  0
  148.1513  139.1822  154.0234 C   0  0  0  0  0  0  0  0  0  0  0  0
  147.1123  140.2460  153.6809 C   0  0  0  0  0  0  0  0  0  0  0  0
  147.9117  141.5377  153.8196 C   0  0  0  0  0  0  0  0  0  0  0  0
  148.8852  141.2409  154.9650 C   0  0  0  0  0  0  0  0  0  0  0  0
  142.2623  134.3576  163.4077 H   0  0  0  0  0  0  0  0  0  0  0  0
  144.4807  137.6094  161.8595 H   0  0  0  0  0  0  0  0  0  0  0  0
  145.6231  136.9052  163.0054 H   0  0  0  0  0  0  0  0  0  0  0  0
  145.2006  135.4248  160.4927 H   0  0  0  0  0  0  0  0  0  0  0  0
  148.4769  135.1100  159.8845 H   0  0  0  0  0  0  0  0  0  0  0  0
  146.8895  134.9345  159.1776 H   0  0  0  0  0  0  0  0  0  0  0  0
  147.2180  137.1488  158.0878 H   0  0  0  0  0  0  0  0  0  0  0  0
  148.3630  138.2005  156.8841 H   0  0  0  0  0  0  0  0  0  0  0  0
  151.8080  136.9276  157.3954 H   0  0  0  0  0  0  0  0  0  0  0  0
  153.7656  137.8567  156.1702 H   0  0  0  0  0  0  0  0  0  0  0  0
  153.3697  139.6264  154.4392 H   0  0  0  0  0  0  0  0  0  0  0  0
  148.7406  138.9526  153.1349 H   0  0  0  0  0  0  0  0  0  0  0  0
  147.6873  138.2607  154.3758 H   0  0  0  0  0  0  0  0  0  0  0  0
  146.6798  140.1146  152.6888 H   0  0  0  0  0  0  0  0  0  0  0  0
  146.3025  140.2282  154.4117 H   0  0  0  0  0  0  0  0  0  0  0  0
  148.4713  141.7222  152.9014 H   0  0  0  0  0  0  0  0  0  0  0  0
  147.2853  142.4092  154.0118 H   0  0  0  0  0  0  0  0  0  0  0  0
  148.4818  141.6253  155.9021 H   0  0  0  0  0  0  0  0  0  0  0  0
  149.8545  141.7119  154.7955 H   0  0  0  0  0  0  0  0  0  0  0  0
  1  2  3  0  0  0  0
  1 23  1  0  0  0  0
  2  3  1  0  0  0  0
  3  4  1  0  0  0  0
  3 24  1  0  0  0  0
  3 25  1  0  0  0  0
  4  5  1  0  0  0  0
  4 26  1  0  0  0  0
  5  6  2  0  0  0  0
  5  7  1  0  0  0  0
  7  8  1  0  0  0  0
  7 27  1  0  0  0  0
  7 28  1  0  0  0  0
  8  9  1  0  0  0  0
  8 29  1  0  0  0  0
  9 10  2  0  0  0  0
  9 11  1  0  0  0  0
 11 12  1  0  0  0  0
 11 30  1  0  0  0  0
 12 17  1  0  0  0  0
 12 13  2  0  0  0  0
 13 14  1  0  0  0  0
 13 31  1  0  0  0  0
 14 15  2  0  0  0  0
 14 32  1  0  0  0  0
 15 16  1  0  0  0  0
 15 33  1  0  0  0  0
 16 17  2  0  0  0  0
 17 18  1  0  0  0  0
 18 22  1  0  0  0  0
 18 19  1  0  0  0  0
 19 20  1  0  0  0  0
 19 34  1  0  0  0  0
 19 35  1  0  0  0  0
 20 21  1  0  0  0  0
 20 36  1  0  0  0  0
 20 37  1  0  0  0  0
 21 22  1  0  0  0  0
 21 38  1  0  0  0  0
 21 39  1  0  0  0  0
 22 40  1  0  0  0  0
 22 41  1  0  0  0  0
M  END
> <s_m_source_file>
AV-unprocessed.smi

> <i_m_source_file_index>
3001

> <i_lp_mmshare_version>
43012

> <i_f3d_flags>
0

> <s_epik_input>
W0NIXSNDW0NIMl1bTkhdQyg9TylbQ0gyXVtOSF1DKD1PKVtOSF1jMVtjSF1bY0hdW2NIXW5jMU4yW0NIMl1bQ0gyXVtDSDJdW0NIMl0y

> <s_epik_cmdline>
J2VwaWtfcHl0aG9uJywgJy1waCcsICc3LjAnLCAnLXRuJywgJzgnLCAnLW1hJywgJzIwMCcsICctbWV0YWxfYmluZGluZycsICctaW1hZScsICc8aW5maWxlLm1hZT4nLCAnLW9tYWUnLCAnPG91dGZpbGUubWFlPic=

> <r_lp_tautomer_probability>
1

> <r_epik_Ionization_Penalty>
0.243831

> <r_epik_Ionization_Penalty_Charging>
0

> <r_epik_Ionization_Penalty_Neutral>
0.243831

> <r_epik_State_Penalty>
0.234327

> <r_epik_Charging_Adjusted_Penalty>
0.234327

> <i_epik_Tot_Q>
0

> <i_epik_Tot_abs_Q>
0

> <r_epik_Metal_State_Penalty>
0.165313

> <b_epik_Metal_Only>
0

> <s_lp_Force_Field>
OPLS_2005

> <r_lp_Energy>
26.7815

> <b_lp_Chiralities_Consistent>
1

> <s_lp_Variant>
AV-unprocessed.smi:3001-1

> <Gold.Version>
5.8.1

> <Gold.Id.Protein>
6NUR|6NUR_protein|mol2

> <Gold.PLP.Fitness>
41.9868

> <Gold.PLP.PLP>
-31.8359

> <Gold.PLP.part.hbond>
-4.0000

> <Gold.PLP.part.metal>
0.0000

> <Gold.PLP.part.buried>
-5.3990

> <Gold.PLP.part.nonpolar>
-23.0114

> <Gold.PLP.part.repulsive>
0.2477

> <Gold.PLP.ligand.clash>
0.0000

> <Gold.PLP.ligand.torsion>
0.7302

> <Gold.PLP.Chemscore.Hbond>
3.7520

> <Gold.PLP.Chemscore.CHOScore>
0.0000

> <Gold.PLP.Chemscore.Metal>
0.0000

> <Gold.Chemscore.Hbonds>
donor molecule, donor type, donor heavy atom, donor atom, acceptor molecule, acceptor atom, score
      P1  H  6896  6909       L1    10  0.94
      P1  H  6931  6943       L1     6  0.98
      P1  H  6934  6947       L1     6  0.83
      P1  H  7989  7998       L1    16  1.00

> <Gold.PLP.Chemscore.Internal.Correction>
0.3552

> <Gold.Rescore>
     Score         DG    S(hbond)    S(metal)    S(lipo)     H(rot)  DE(clash)    DE(int)     intcor
     18.48     -20.60       3.50        0.00      69.28       1.82       0.03       2.09       ----

> <Gold.Chemscore.Fitness>
18.4820

> <Gold.Chemscore.DG>
-20.6008

> <Gold.Chemscore.ZeroCoef>
-5.4800

> <Gold.Chemscore.Hbond>
3.4980

> <Gold.Chemscore.Metal>
0.0000

> <Gold.Chemscore.Lipo>
69.2828

> <Gold.Chemscore.Internal_Hbond>
0.0000

> <Gold.Chemscore.DEClash>
0.0308

> <Gold.Chemscore.DEInternal>
2.0879

> <Gold.Chemscore.Rot>
1.8236

> <Gold.Chemscore.Internal.Correction>
   9.000000E+99

> <Gold.Chemscore.Hbonds>
donor molecule, donor type, donor heavy atom, donor atom, acceptor molecule, acceptor atom, score
      P1  H  6896  6909       L1    10  0.90
      P1  H  6931  6943       L1     6  0.93
      P1  H  6934  6947       L1     6  0.63
      P1  H  7989  7998       L1    16  0.40

> <Gold.Chemscore.Hbond.Weighted>
-11.6832

> <Gold.Chemscore.Metal.Weighted>
-0.0000

> <Gold.Chemscore.Lipo.Weighted>
-8.1061

> <Gold.Chemscore.Internal_Hbond.Weighted>
0.0000

> <Gold.Chemscore.DEClash.Weighted>
0.0308

> <Gold.Chemscore.DEInternal.Weighted>
2.0879

> <Gold.Chemscore.Rot.Weighted>
4.6685

> <Gold.Chemscore.Internal.Correction.Weighted>
   9.000000E+99

> <Gold.Protein.RotatedTorsions>
[ 6907 6896 6895 6894 ] final   64.02 input  -60.11 | X-H torsion
[ 7974 7965 7964 7962 ] final  132.11 input  175.53 | X-H torsion
[ 8008 7997 7996 7995 ] final  -58.36 input   59.86 | X-H torsion
[ 10167 10162 10161 10158 ] final -160.20 input  -65.29 | X-H torsion
[ 10718 10713 10712 10709 ] final  -10.00 input   66.30 | X-H torsion
[ 10763 10752 10751 10750 ] final -157.80 input  -60.55 | X-H torsion
[ 11005 11000 10999 10996 ] final  -69.98 input  -57.11 | X-H torsion

> <Gold.Protein.ActiveResidues>
 VAL166  LYS551  ARG553  GLY616  TRP617  ASP618  TYR619  PRO620  LYS621  CYS622 
 ASP623  PHE694  ASN695  SER759  ASP760  ASP761  ALA762  ILE779  LEU786  VAL792 
 PHE793  MET794  SER795  GLU796  ALA797  LYS798  CYS799  TRP800  GLU811  SER814 

> <Gold.Protein.RotatedAtoms>
  152.4299  134.5798  159.9944 H   0  0  0  0  0  0  0  0  0  0  0  0  # atno 6907 bound_to 6896
  151.5924  133.3359  159.3038 H   0  0  0  0  0  0  0  0  0  0  0  0  # atno 6908 bound_to 6896
  150.8191  134.7425  159.6821 H   0  0  0  0  0  0  0  0  0  0  0  0  # atno 6909 bound_to 6896
  145.0002  139.4319  143.5296 H   0  0  0  0  0  0  0  0  0  0  0  0  # atno 7974 bound_to 7965
  154.4306  140.1086  156.5945 H   0  0  0  0  0  0  0  0  0  0  0  0  # atno 8008 bound_to 7997
  155.5977  140.3493  155.4566 H   0  0  0  0  0  0  0  0  0  0  0  0  # atno 8009 bound_to 7997
  156.0198  140.1237  157.0359 H   0  0  0  0  0  0  0  0  0  0  0  0  # atno 8010 bound_to 7997
  139.6557  144.0003  152.2192 H   0  0  0  0  0  0  0  0  0  0  0  0  # atno 10167 bound_to 10162
  156.6799  130.5034  149.5974 H   0  0  0  0  0  0  0  0  0  0  0  0  # atno 10718 bound_to 10713
  154.7607  135.3117  154.8383 H   0  0  0  0  0  0  0  0  0  0  0  0  # atno 10763 bound_to 10752
  153.9145  135.6802  153.4754 H   0  0  0  0  0  0  0  0  0  0  0  0  # atno 10764 bound_to 10752
  153.1208  135.4823  154.9123 H   0  0  0  0  0  0  0  0  0  0  0  0  # atno 10765 bound_to 10752
  141.1565  133.6778  156.6683 H   0  0  0  0  0  0  0  0  0  0  0  0  # atno 11005 bound_to 11000
  146.3450  139.9387  142.8744 LP  0  0  0  0  0  0  0  0  0  0  0  0  # atno 17320 bound_to 7965
  145.2163  140.9917  143.4071 LP  0  0  0  0  0  0  0  0  0  0  0  0  # atno 17321 bound_to 7965
  139.9729  144.6481  150.7972 LP  0  0  0  0  0  0  0  0  0  0  0  0  # atno 17342 bound_to 10162
  140.7558  143.3053  151.2977 LP  0  0  0  0  0  0  0  0  0  0  0  0  # atno 17343 bound_to 10162
  156.1875  130.6539  151.1023 LP  0  0  0  0  0  0  0  0  0  0  0  0  # atno 17370 bound_to 10713
  157.7047  131.0761  150.6705 LP  0  0  0  0  0  0  0  0  0  0  0  0  # atno 17371 bound_to 10713
  140.3194  134.8020  157.4240 LP  0  0  0  0  0  0  0  0  0  0  0  0  # atno 17394 bound_to 11000
  140.1110  134.5346  155.8266 LP  0  0  0  0  0  0  0  0  0  0  0  0  # atno 17395 bound_to 11000

$$$$
