AV-unprocessed.smi:89|AV-procd|sdf|828|dock3
  -GOLD-   2262017243D 1   1.00000     0.00000
 Structure written by MMmdl.
 54 56  0  0  0  0  0  0  0  0  1 V2000
  146.9142  136.1686  157.2937 C   0  0  0  0  0  0  0  0  0  0  0  0
  148.4202  136.4717  157.3651 C   0  0  0  0  0  0  0  0  0  0  0  0
  149.0880  136.4342  156.0620 N   0  0  0  0  0  0  0  0  0  0  0  0
  148.9860  135.2579  155.3915 C   0  0  0  0  0  0  0  0  0  0  0  0
  150.0889  134.4693  155.3467 N   0  0  0  0  0  0  0  0  0  0  0  0
  150.0612  133.3063  154.6908 C   0  0  0  0  0  0  0  0  0  0  0  0
  149.0510  132.7520  154.0185 N   0  0  0  0  0  0  0  0  0  0  0  0
  147.9409  133.5439  154.0520 C   0  0  0  0  0  0  0  0  0  0  0  0
  147.8217  134.8033  154.7055 C   0  0  0  0  0  0  0  0  0  0  0  0
  146.5420  135.3117  154.5144 N   0  0  0  0  0  0  0  0  0  0  0  0
  145.9406  134.4059  153.7930 C   0  0  0  0  0  0  0  0  0  0  0  0
  146.7049  133.3057  153.4774 N   0  0  0  0  0  0  0  0  0  0  0  0
  146.2932  132.1535  152.6904 C   0  0  0  0  0  0  0  0  0  0  0  0
  145.9227  132.4907  151.2239 C   0  0  2  0  0  0  0  0  0  0  0  0
  147.0774  132.9588  150.5510 O   0  0  0  0  0  0  0  0  0  0  0  0
  144.8049  133.5247  151.0811 C   0  0  0  0  0  0  0  0  0  0  0  0
  143.5670  132.6564  150.9176 C   0  0  0  0  0  0  0  0  0  0  0  0
  144.0351  131.6213  150.0710 O   0  0  0  0  0  0  0  0  0  0  0  0
  145.3477  131.2620  150.4890 C   0  0  0  0  0  0  0  0  0  0  0  0
  150.3844  137.1254  155.9721 C   0  0  1  0  0  0  0  0  0  0  0  0
  150.9584  137.1450  154.5424 C   0  0  0  0  0  0  0  0  0  0  0  0
  150.3849  138.5398  156.5928 C   0  0  0  0  0  0  0  0  0  0  0  0
  151.3995  139.7226  155.6018 S   0  0  0  0  0  0  0  0  0  0  0  0
  152.8113  139.3143  155.6558 O   0  0  0  0  0  0  0  0  0  0  0  0
  150.7566  139.9025  154.2912 O   0  0  0  0  0  0  0  0  0  0  0  0
  151.2113  141.2821  156.5626 C   0  0  0  0  0  0  0  0  0  0  0  0
  151.8101  141.1360  157.9647 C   0  0  0  0  0  0  0  0  0  0  0  0
  146.4538  136.2871  158.2744 H   0  0  0  0  0  0  0  0  0  0  0  0
  146.7173  135.1482  156.9639 H   0  0  0  0  0  0  0  0  0  0  0  0
  146.4101  136.8485  156.6065 H   0  0  0  0  0  0  0  0  0  0  0  0
  148.5481  137.4695  157.7859 H   0  0  0  0  0  0  0  0  0  0  0  0
  148.9058  135.7888  158.0613 H   0  0  0  0  0  0  0  0  0  0  0  0
  150.9810  132.7405  154.7061 H   0  0  0  0  0  0  0  0  0  0  0  0
  144.9145  134.5139  153.4725 H   0  0  0  0  0  0  0  0  0  0  0  0
  147.1016  131.4215  152.7148 H   0  0  0  0  0  0  0  0  0  0  0  0
  145.4462  131.6844  153.1925 H   0  0  0  0  0  0  0  0  0  0  0  0
  147.7302  132.2756  150.5669 H   0  0  0  0  0  0  0  0  0  0  0  0
  144.7231  134.2266  151.9097 H   0  0  0  0  0  0  0  0  0  0  0  0
  144.9384  134.1132  150.1718 H   0  0  0  0  0  0  0  0  0  0  0  0
  143.2478  132.2408  151.8748 H   0  0  0  0  0  0  0  0  0  0  0  0
  142.7287  133.1933  150.4732 H   0  0  0  0  0  0  0  0  0  0  0  0
  145.9412  130.9645  149.6235 H   0  0  0  0  0  0  0  0  0  0  0  0
  145.2809  130.3966  151.1497 H   0  0  0  0  0  0  0  0  0  0  0  0
  151.0835  136.5344  156.5651 H   0  0  0  0  0  0  0  0  0  0  0  0
  151.9720  137.5463  154.5368 H   0  0  0  0  0  0  0  0  0  0  0  0
  150.3607  137.7672  153.8763 H   0  0  0  0  0  0  0  0  0  0  0  0
  151.0070  136.1436  154.1152 H   0  0  0  0  0  0  0  0  0  0  0  0
  149.3704  138.9384  156.6033 H   0  0  0  0  0  0  0  0  0  0  0  0
  150.7303  138.5461  157.6257 H   0  0  0  0  0  0  0  0  0  0  0  0
  151.7048  142.0842  156.0138 H   0  0  0  0  0  0  0  0  0  0  0  0
  150.1492  141.5212  156.6213 H   0  0  0  0  0  0  0  0  0  0  0  0
  151.6996  142.0597  158.5331 H   0  0  0  0  0  0  0  0  0  0  0  0
  152.8732  140.8994  157.9151 H   0  0  0  0  0  0  0  0  0  0  0  0
  151.3155  140.3399  158.5216 H   0  0  0  0  0  0  0  0  0  0  0  0
  1  2  1  0  0  0  0
  1 28  1  0  0  0  0
  1 29  1  0  0  0  0
  1 30  1  0  0  0  0
  2  3  1  0  0  0  0
  2 31  1  0  0  0  0
  2 32  1  0  0  0  0
  3  4  1  0  0  0  0
  3 20  1  0  0  0  0
  4  9  1  0  0  0  0
  4  5  2  0  0  0  0
  5  6  1  0  0  0  0
  6  7  2  0  0  0  0
  6 33  1  0  0  0  0
  7  8  1  0  0  0  0
  8 12  1  0  0  0  0
  8  9  2  0  0  0  0
  9 10  1  0  0  0  0
 10 11  2  0  0  0  0
 11 12  1  0  0  0  0
 11 34  1  0  0  0  0
 12 13  1  0  0  0  0
 13 14  1  0  0  0  0
 13 35  1  0  0  0  0
 13 36  1  0  0  0  0
 14 19  1  0  0  0  0
 14 15  1  0  0  0  0
 14 16  1  0  0  0  0
 15 37  1  0  0  0  0
 16 17  1  0  0  0  0
 16 38  1  0  0  0  0
 16 39  1  0  0  0  0
 17 18  1  0  0  0  0
 17 40  1  0  0  0  0
 17 41  1  0  0  0  0
 18 19  1  0  0  0  0
 19 42  1  0  0  0  0
 19 43  1  0  0  0  0
 20 21  1  0  0  0  0
 20 22  1  0  0  0  0
 20 44  1  0  0  0  0
 21 45  1  0  0  0  0
 21 46  1  0  0  0  0
 21 47  1  0  0  0  0
 22 23  1  0  0  0  0
 22 48  1  0  0  0  0
 22 49  1  0  0  0  0
 23 24  2  0  0  0  0
 23 25  2  0  0  0  0
 23 26  1  0  0  0  0
 26 27  1  0  0  0  0
 26 50  1  0  0  0  0
 26 51  1  0  0  0  0
 27 52  1  0  0  0  0
 27 53  1  0  0  0  0
 27 54  1  0  0  0  0
M  END
> <s_m_source_file>
AV-unprocessed.smi

> <i_m_source_file_index>
89

> <i_lp_mmshare_version>
43012

> <i_f3d_flags>
0

> <s_epik_input>
W0NIM11bQ0gyXVMoPU8pKD1PKVtDSDJdW0NAQEhdKFtDSDNdKU4oW0NIMl1bQ0gzXSljKG5bY0hdbjEpYyhjMTIpbltjSF1uMltDSDJdW0NAQF0zKFtPSF0pW0NIMl1bQ0gyXU9bQ0gyXTM=

> <s_epik_cmdline>
J2VwaWtfcHl0aG9uJywgJy1waCcsICc3LjAnLCAnLXRuJywgJzgnLCAnLW1hJywgJzIwMCcsICctbWV0YWxfYmluZGluZycsICctaW1hZScsICc8aW5maWxlLm1hZT4nLCAnLW9tYWUnLCAnPG91dGZpbGUubWFlPic=

> <r_lp_tautomer_probability>
1

> <r_epik_Ionization_Penalty>
0.00103773

> <r_epik_Ionization_Penalty_Charging>
0

> <r_epik_Ionization_Penalty_Neutral>
0.00103773

> <r_epik_State_Penalty>
0.000558914

> <r_epik_Charging_Adjusted_Penalty>
0.000558914

> <i_epik_Tot_Q>
0

> <i_epik_Tot_abs_Q>
0

> <r_epik_Metal_State_Penalty>
-0

> <b_epik_Metal_Only>
0

> <s_lp_Force_Field>
OPLS_2005

> <r_lp_Energy>
26.3804

> <b_lp_Chiralities_Consistent>
1

> <s_lp_Variant>
AV-unprocessed.smi:89-4

> <Gold.Version>
5.8.1

> <Gold.Id.Protein>
6NUR|6NUR_protein|mol2

> <Gold.PLP.Fitness>
43.8566

> <Gold.PLP.PLP>
-35.1654

> <Gold.PLP.part.hbond>
-4.0528

> <Gold.PLP.part.metal>
0.0000

> <Gold.PLP.part.buried>
-8.4686

> <Gold.PLP.part.nonpolar>
-23.3953

> <Gold.PLP.part.repulsive>
0.5701

> <Gold.PLP.ligand.clash>
0.0000

> <Gold.PLP.ligand.torsion>
1.4372

> <Gold.PLP.Chemscore.Hbond>
3.4521

> <Gold.PLP.Chemscore.CHOScore>
0.0000

> <Gold.PLP.Chemscore.Metal>
0.0000

> <Gold.Chemscore.Hbonds>
donor molecule, donor type, donor heavy atom, donor atom, acceptor molecule, acceptor atom, score
      L1  H    15    37       P1 10747  1.00
      P1  H  7989  7998       L1    25  0.99
      P1  H  7997  8009       L1    24  0.99
      P1  H 10785 10796       L1    18  0.49

> <Gold.PLP.Chemscore.Internal.Correction>
1.2091

> <Gold.Rescore>
     Score         DG    S(hbond)    S(metal)    S(lipo)     H(rot)  DE(clash)    DE(int)     intcor
     12.89     -16.70       3.56        0.00      69.72       3.45       0.12       3.69       ----

> <Gold.Chemscore.Fitness>
12.8887

> <Gold.Chemscore.DG>
-16.7017

> <Gold.Chemscore.ZeroCoef>
-5.4800

> <Gold.Chemscore.Hbond>
3.5636

> <Gold.Chemscore.Metal>
0.0000

> <Gold.Chemscore.Lipo>
69.7210

> <Gold.Chemscore.Internal_Hbond>
0.0000

> <Gold.Chemscore.DEClash>
0.1198

> <Gold.Chemscore.DEInternal>
3.6932

> <Gold.Chemscore.Rot>
3.4524

> <Gold.Chemscore.Internal.Correction>
   9.000000E+99

> <Gold.Chemscore.Hbonds>
donor molecule, donor type, donor heavy atom, donor atom, acceptor molecule, acceptor atom, score
      L1  H    15    37       P1 10747  1.00
      P1  H  7989  7998       L1    25  0.56
      P1  H  7997  8009       L1    24  0.94
      P1  H 10785 10796       L1    18  0.39

> <Gold.Chemscore.Hbond.Weighted>
-11.9026

> <Gold.Chemscore.Metal.Weighted>
-0.0000

> <Gold.Chemscore.Lipo.Weighted>
-8.1574

> <Gold.Chemscore.Internal_Hbond.Weighted>
0.0000

> <Gold.Chemscore.DEClash.Weighted>
0.1198

> <Gold.Chemscore.DEInternal.Weighted>
3.6932

> <Gold.Chemscore.Rot.Weighted>
8.8382

> <Gold.Chemscore.Internal.Correction.Weighted>
   9.000000E+99

> <Gold.Protein.RotatedTorsions>
[ 6907 6896 6895 6894 ] final -165.96 input  -60.11 | X-H torsion
[ 7974 7965 7964 7962 ] final  -31.77 input  175.53 | X-H torsion
[ 8008 7997 7996 7995 ] final -172.31 input   59.86 | X-H torsion
[ 10167 10162 10161 10158 ] final -131.79 input  -65.29 | X-H torsion
[ 10718 10713 10712 10709 ] final -103.46 input   66.30 | X-H torsion
[ 10763 10752 10751 10750 ] final -114.60 input  -60.55 | X-H torsion
[ 11005 11000 10999 10996 ] final   -7.58 input  -57.11 | X-H torsion

> <Gold.Protein.ActiveResidues>
 VAL166  LYS551  ARG553  GLY616  TRP617  ASP618  TYR619  PRO620  LYS621  CYS622 
 ASP623  PHE694  ASN695  SER759  ASP760  ASP761  ALA762  ILE779  LEU786  VAL792 
 PHE793  MET794  SER795  GLU796  ALA797  LYS798  CYS799  TRP800  GLU811  SER814 

> <Gold.Protein.RotatedAtoms>
  151.4360  133.3657  159.2774 H   0  0  0  0  0  0  0  0  0  0  0  0  # atno 6907 bound_to 6896
  150.9191  134.8610  159.7488 H   0  0  0  0  0  0  0  0  0  0  0  0  # atno 6908 bound_to 6896
  152.4973  134.4296  159.9560 H   0  0  0  0  0  0  0  0  0  0  0  0  # atno 6909 bound_to 6896
  146.1041  140.5709  142.8807 H   0  0  0  0  0  0  0  0  0  0  0  0  # atno 7974 bound_to 7965
  155.9429  140.1112  157.1041 H   0  0  0  0  0  0  0  0  0  0  0  0  # atno 8008 bound_to 7997
  154.4093  140.1215  156.5016 H   0  0  0  0  0  0  0  0  0  0  0  0  # atno 8009 bound_to 7997
  155.6940  140.3472  155.4907 H   0  0  0  0  0  0  0  0  0  0  0  0  # atno 8010 bound_to 7997
  139.9152  143.6447  152.2566 H   0  0  0  0  0  0  0  0  0  0  0  0  # atno 10167 bound_to 10162
  156.0266  130.5468  150.7256 H   0  0  0  0  0  0  0  0  0  0  0  0  # atno 10718 bound_to 10713
  154.8447  135.4412  154.1532 H   0  0  0  0  0  0  0  0  0  0  0  0  # atno 10763 bound_to 10752
  153.2687  135.6943  153.7509 H   0  0  0  0  0  0  0  0  0  0  0  0  # atno 10764 bound_to 10752
  153.6757  135.3411  155.3140 H   0  0  0  0  0  0  0  0  0  0  0  0  # atno 10765 bound_to 10752
  140.7143  133.8882  155.8773 H   0  0  0  0  0  0  0  0  0  0  0  0  # atno 11005 bound_to 11000
  144.7457  140.5060  143.6838 LP  0  0  0  0  0  0  0  0  0  0  0  0  # atno 17320 bound_to 7965
  145.5795  139.1488  143.3243 LP  0  0  0  0  0  0  0  0  0  0  0  0  # atno 17321 bound_to 7965
  139.6908  144.7647  151.1442 LP  0  0  0  0  0  0  0  0  0  0  0  0  # atno 17342 bound_to 10162
  140.7676  143.5592  150.9118 LP  0  0  0  0  0  0  0  0  0  0  0  0  # atno 17343 bound_to 10162
  157.4861  131.0907  151.0481 LP  0  0  0  0  0  0  0  0  0  0  0  0  # atno 17370 bound_to 10713
  157.0901  130.5938  149.5438 LP  0  0  0  0  0  0  0  0  0  0  0  0  # atno 17371 bound_to 10713
  141.0058  134.1088  157.4272 LP  0  0  0  0  0  0  0  0  0  0  0  0  # atno 17394 bound_to 11000
  139.8864  135.0081  156.6495 LP  0  0  0  0  0  0  0  0  0  0  0  0  # atno 17395 bound_to 11000

$$$$
