AV-unprocessed.smi:2892|AV-procd|sdf|11120|dock5
  -GOLD-   2272015593D 1   1.00000     0.00000
 Structure written by MMmdl.
 42 42  0  0  0  0  0  0  0  0  2 V2000
  147.6056  131.9681  161.6397 C   0  0  0  0  0  0  0  0  0  0  0  0
  146.3307  132.8201  161.5523 C   0  0  0  0  0  0  0  0  0  0  0  0
  146.5407  134.3239  161.8735 C   0  0  2  0  0  0  0  0  0  0  0  0
  145.2092  135.0958  161.7199 C   0  0  0  0  0  0  0  0  0  0  0  0
  147.6654  134.9686  161.0041 C   0  0  1  0  0  0  0  0  0  0  0  0
  147.3050  134.8509  159.5921 N   0  0  0  0  0  0  0  0  0  0  0  0
  148.1290  135.0195  158.5448 C   0  0  0  0  0  0  0  0  0  0  0  0
  149.3134  135.3350  158.6569 O   0  0  0  0  0  0  0  0  0  0  0  0
  147.5277  134.8004  157.1516 C   0  0  0  0  0  0  0  0  0  0  0  0
  148.5155  135.1503  156.0669 C   0  0  0  0  0  0  0  0  0  0  0  0
  148.9826  134.3214  155.0073 C   0  0  0  0  0  0  0  0  0  0  0  0
  149.8827  135.1062  154.3460 C   0  0  0  0  0  0  0  0  0  0  0  0
  149.9193  136.3247  154.9900 N   0  0  0  0  0  0  0  0  0  0  0  0
  150.7459  137.4818  154.6810 C   0  0  0  0  0  0  0  0  0  0  0  0
  149.8959  138.6255  154.1046 C   0  0  0  0  0  0  0  0  0  0  0  0
  151.9116  137.1076  153.7509 C   0  0  0  0  0  0  0  0  0  0  0  0
  149.0728  136.3530  156.0432 N   0  0  0  0  0  0  0  0  0  0  0  0
  147.8177  136.4683  161.3185 C   0  0  0  0  0  0  0  0  0  0  0  0
  147.0087  137.2610  160.7852 O   0  0  0  0  0  0  0  0  0  0  0  0
  148.7441  136.7946  162.0923 O   0  5  0  0  0  0  0  0  0  0  0  0
  147.4101  130.9516  161.2981 H   0  0  0  0  0  0  0  0  0  0  0  0
  147.9812  131.8971  162.6599 H   0  0  0  0  0  0  0  0  0  0  0  0
  148.3976  132.3796  161.0136 H   0  0  0  0  0  0  0  0  0  0  0  0
  145.9440  132.6981  160.5411 H   0  0  0  0  0  0  0  0  0  0  0  0
  145.5677  132.4052  162.2119 H   0  0  0  0  0  0  0  0  0  0  0  0
  146.8360  134.4002  162.9215 H   0  0  0  0  0  0  0  0  0  0  0  0
  144.8522  135.0649  160.6901 H   0  0  0  0  0  0  0  0  0  0  0  0
  145.3068  136.1439  162.0028 H   0  0  0  0  0  0  0  0  0  0  0  0
  144.4262  134.6861  162.3563 H   0  0  0  0  0  0  0  0  0  0  0  0
  148.6097  134.4566  161.2001 H   0  0  0  0  0  0  0  0  0  0  0  0
  146.3435  134.6128  159.3983 H   0  0  0  0  0  0  0  0  0  0  0  0
  147.2220  133.7571  157.0666 H   0  0  0  0  0  0  0  0  0  0  0  0
  146.6222  135.3998  157.0482 H   0  0  0  0  0  0  0  0  0  0  0  0
  148.7097  133.3017  154.7792 H   0  0  0  0  0  0  0  0  0  0  0  0
  150.4979  134.8981  153.4831 H   0  0  0  0  0  0  0  0  0  0  0  0
  151.1743  137.8292  155.6221 H   0  0  0  0  0  0  0  0  0  0  0  0
  150.5020  139.5152  153.9335 H   0  0  0  0  0  0  0  0  0  0  0  0
  149.0926  138.9011  154.7887 H   0  0  0  0  0  0  0  0  0  0  0  0
  149.4408  138.3469  153.1534 H   0  0  0  0  0  0  0  0  0  0  0  0
  152.5709  137.9609  153.5906 H   0  0  0  0  0  0  0  0  0  0  0  0
  151.5571  136.7772  152.7739 H   0  0  0  0  0  0  0  0  0  0  0  0
  152.5115  136.3035  154.1784 H   0  0  0  0  0  0  0  0  0  0  0  0
  1  2  1  0  0  0  0
  1 21  1  0  0  0  0
  1 22  1  0  0  0  0
  1 23  1  0  0  0  0
  2  3  1  0  0  0  0
  2 24  1  0  0  0  0
  2 25  1  0  0  0  0
  3  4  1  0  0  0  0
  3  5  1  0  0  0  0
  3 26  1  0  0  0  0
  4 27  1  0  0  0  0
  4 28  1  0  0  0  0
  4 29  1  0  0  0  0
  5  6  1  0  0  0  0
  5 18  1  0  0  0  0
  5 30  1  0  0  0  0
  6  7  1  0  0  0  0
  6 31  1  0  0  0  0
  7  8  2  0  0  0  0
  7  9  1  0  0  0  0
  9 10  1  0  0  0  0
  9 32  1  0  0  0  0
  9 33  1  0  0  0  0
 10 17  2  0  0  0  0
 10 11  1  0  0  0  0
 11 12  2  0  0  0  0
 11 34  1  0  0  0  0
 12 13  1  0  0  0  0
 12 35  1  0  0  0  0
 13 14  1  0  0  0  0
 13 17  1  0  0  0  0
 14 15  1  0  0  0  0
 14 16  1  0  0  0  0
 14 36  1  0  0  0  0
 15 37  1  0  0  0  0
 15 38  1  0  0  0  0
 15 39  1  0  0  0  0
 16 40  1  0  0  0  0
 16 41  1  0  0  0  0
 16 42  1  0  0  0  0
 18 19  2  0  0  0  0
 18 20  1  0  0  0  0
M  CHG  1  20  -1
M  END
> <s_m_source_file>
AV-unprocessed.smi

> <i_m_source_file_index>
2892

> <i_lp_mmshare_version>
43012

> <i_f3d_flags>
0

> <s_epik_input>
W0NIM11bQ0gyXVtDQEhdKFtDSDNdKVtDQEBIXShDKD1PKVtPSF0pW05IXUMoPU8pW0NIMl1jMVtjSF1bY0hdbihuMSlbQ0hdKFtDSDNdKVtDSDNd

> <s_epik_cmdline>
J2VwaWtfcHl0aG9uJywgJy1waCcsICc3LjAnLCAnLXRuJywgJzgnLCAnLW1hJywgJzIwMCcsICctbWV0YWxfYmluZGluZycsICctaW1hZScsICc8aW5maWxlLm1hZT4nLCAnLW9tYWUnLCAnPG91dGZpbGUubWFlPic=

> <r_lp_tautomer_probability>
1

> <r_epik_Ionization_Penalty>
0.000286846

> <r_epik_Ionization_Penalty_Charging>
0.000224481

> <r_epik_Ionization_Penalty_Neutral>
6.23655e-05

> <r_epik_State_Penalty>
-0

> <r_epik_Charging_Adjusted_Penalty>
0.000224481

> <i_epik_Tot_Q>
-1

> <i_epik_Tot_abs_Q>
1

> <r_epik_Metal_State_Penalty>
-0

> <b_epik_Metal_Only>
0

> <s_lp_Force_Field>
OPLS_2005

> <r_lp_Energy>
13.0415

> <b_lp_Chiralities_Consistent>
1

> <s_lp_Variant>
AV-unprocessed.smi:2892-3

> <Gold.Version>
5.8.1

> <Gold.Id.Protein>
6NUR|6NUR_protein|mol2

> <Gold.PLP.Fitness>
46.2499

> <Gold.PLP.PLP>
-30.4751

> <Gold.PLP.part.hbond>
-2.8973

> <Gold.PLP.part.metal>
0.0000

> <Gold.PLP.part.buried>
-4.2052

> <Gold.PLP.part.nonpolar>
-23.2297

> <Gold.PLP.part.repulsive>
0.0749

> <Gold.PLP.ligand.clash>
0.0000

> <Gold.PLP.ligand.torsion>
1.1969

> <Gold.PLP.Chemscore.Hbond>
5.0000

> <Gold.PLP.Chemscore.CHOScore>
1.0000

> <Gold.PLP.Chemscore.Metal>
0.0000

> <Gold.Chemscore.Hbonds>
donor molecule, donor type, donor heavy atom, donor atom, acceptor molecule, acceptor atom, score
      P1  H  6896  6908       L1     8  1.00
      P1  H  6931  6943       L1    20  1.76
      P1  H  6934  6947       L1    19  2.00
      L1  C    12    35       P1  7949  0.06

> <Gold.PLP.Chemscore.Internal.Correction>
0.1687

> <Gold.Rescore>
     Score         DG    S(hbond)    S(metal)    S(lipo)     H(rot)  DE(clash)    DE(int)     intcor
     13.72     -16.56       2.86        0.00      65.38       2.39       0.05       2.79       ----

> <Gold.Chemscore.Fitness>
13.7188

> <Gold.Chemscore.DG>
-16.5638

> <Gold.Chemscore.ZeroCoef>
-5.4800

> <Gold.Chemscore.Hbond>
2.8572

> <Gold.Chemscore.Metal>
0.0000

> <Gold.Chemscore.Lipo>
65.3847

> <Gold.Chemscore.Internal_Hbond>
0.0000

> <Gold.Chemscore.DEClash>
0.0519

> <Gold.Chemscore.DEInternal>
2.7931

> <Gold.Chemscore.Rot>
2.3865

> <Gold.Chemscore.Internal.Correction>
   9.000000E+99

> <Gold.Chemscore.Hbonds>
donor molecule, donor type, donor heavy atom, donor atom, acceptor molecule, acceptor atom, score
      P1  H  6896  6908       L1     8  1.00
      P1  H  6931  6943       L1    20  0.64
      P1  H  6934  6947       L1    19  0.99

> <Gold.Chemscore.Hbond.Weighted>
-9.5432

> <Gold.Chemscore.Metal.Weighted>
-0.0000

> <Gold.Chemscore.Lipo.Weighted>
-7.6500

> <Gold.Chemscore.Internal_Hbond.Weighted>
0.0000

> <Gold.Chemscore.DEClash.Weighted>
0.0519

> <Gold.Chemscore.DEInternal.Weighted>
2.7931

> <Gold.Chemscore.Rot.Weighted>
6.1093

> <Gold.Chemscore.Internal.Correction.Weighted>
   9.000000E+99

> <Gold.Protein.RotatedTorsions>
[ 6907 6896 6895 6894 ] final  166.51 input  -60.11 | X-H torsion
[ 7974 7965 7964 7962 ] final  -98.58 input  175.53 | X-H torsion
[ 8008 7997 7996 7995 ] final   60.16 input   59.86 | X-H torsion
[ 10167 10162 10161 10158 ] final -124.33 input  -65.29 | X-H torsion
[ 10718 10713 10712 10709 ] final    6.29 input   66.30 | X-H torsion
[ 10763 10752 10751 10750 ] final  -32.12 input  -60.55 | X-H torsion
[ 11005 11000 10999 10996 ] final  108.92 input  -57.11 | X-H torsion

> <Gold.Protein.ActiveResidues>
 VAL166  LYS551  ARG553  GLY616  TRP617  ASP618  TYR619  PRO620  LYS621  CYS622 
 ASP623  PHE694  ASN695  SER759  ASP760  ASP761  ALA762  ILE779  LEU786  VAL792 
 PHE793  MET794  SER795  GLU796  ALA797  LYS798  CYS799  TRP800  GLU811  SER814 

> <Gold.Protein.RotatedAtoms>
  151.8777  133.3488  159.3755 H   0  0  0  0  0  0  0  0  0  0  0  0  # atno 6907 bound_to 6896
  150.7136  134.5050  159.5589 H   0  0  0  0  0  0  0  0  0  0  0  0  # atno 6908 bound_to 6896
  152.2595  134.8049  160.0484 H   0  0  0  0  0  0  0  0  0  0  0  0  # atno 6909 bound_to 6896
  145.3188  140.9417  143.2727 H   0  0  0  0  0  0  0  0  0  0  0  0  # atno 7974 bound_to 7965
  155.5778  140.3491  155.4532 H   0  0  0  0  0  0  0  0  0  0  0  0  # atno 8008 bound_to 7997
  156.0396  140.1293  157.0195 H   0  0  0  0  0  0  0  0  0  0  0  0  # atno 8009 bound_to 7997
  154.4386  140.1027  156.6203 H   0  0  0  0  0  0  0  0  0  0  0  0  # atno 8010 bound_to 7997
  139.9940  143.5611  152.2330 H   0  0  0  0  0  0  0  0  0  0  0  0  # atno 10167 bound_to 10162
  156.9200  130.5787  149.5648 H   0  0  0  0  0  0  0  0  0  0  0  0  # atno 10718 bound_to 10713
  153.8086  135.6884  153.4844 H   0  0  0  0  0  0  0  0  0  0  0  0  # atno 10763 bound_to 10752
  153.1643  135.4567  154.9814 H   0  0  0  0  0  0  0  0  0  0  0  0  # atno 10764 bound_to 10752
  154.7977  135.3325  154.7568 H   0  0  0  0  0  0  0  0  0  0  0  0  # atno 10765 bound_to 10752
  139.8852  134.9444  156.6047 H   0  0  0  0  0  0  0  0  0  0  0  0  # atno 11005 bound_to 11000
  144.8956  139.4717  143.6657 LP  0  0  0  0  0  0  0  0  0  0  0  0  # atno 17320 bound_to 7965
  146.3090  139.7680  142.9034 LP  0  0  0  0  0  0  0  0  0  0  0  0  # atno 17321 bound_to 7965
  139.6319  144.7645  151.2518 LP  0  0  0  0  0  0  0  0  0  0  0  0  # atno 17342 bound_to 10162
  140.7444  143.6464  150.8288 LP  0  0  0  0  0  0  0  0  0  0  0  0  # atno 17343 bound_to 10162
  156.0496  130.5567  150.8958 LP  0  0  0  0  0  0  0  0  0  0  0  0  # atno 17370 bound_to 10713
  157.5914  131.0944  150.9113 LP  0  0  0  0  0  0  0  0  0  0  0  0  # atno 17371 bound_to 10713
  140.7857  133.8623  155.8604 LP  0  0  0  0  0  0  0  0  0  0  0  0  # atno 17394 bound_to 11000
  140.9721  134.1517  157.4567 LP  0  0  0  0  0  0  0  0  0  0  0  0  # atno 17395 bound_to 11000

$$$$
