AV-unprocessed.smi:1702|AV-procd|sdf|6849|dock2
  -GOLD-   22720 8 23D 1   1.00000     0.00000
 Structure written by MMmdl.
 45 47  0  0  0  0  0  0  0  0  3 V2000
  144.7719  136.9754  151.7999 C   0  0  0  0  0  0  0  0  0  0  0  0
  145.7468  137.2498  152.9535 C   0  0  2  0  0  0  0  0  0  0  0  0
  146.7866  138.3185  152.5777 C   0  0  0  0  0  0  0  0  0  0  0  0
  147.7758  138.5649  153.7291 C   0  0  0  0  0  0  0  0  0  0  0  0
  148.4559  137.3045  154.1303 N   0  3  1  0  0  0  0  0  0  0  0  0
  149.5121  137.5045  155.1561 C   0  0  0  0  0  0  0  0  0  0  0  0
  150.7784  138.1936  154.5986 C   0  0  2  0  0  0  0  0  0  0  0  0
  151.6293  137.2145  154.0377 O   0  0  0  0  0  0  0  0  0  0  0  0
  151.5951  138.9422  155.6711 C   0  0  0  0  0  0  0  0  0  0  0  0
  151.0874  140.2945  155.9457 N   0  0  0  0  0  0  0  0  0  0  0  0
  150.2380  141.0644  155.2114 C   0  0  0  0  0  0  0  0  0  0  0  0
  150.0786  142.2455  155.8699 N   0  3  0  0  0  0  0  0  0  0  0  0
  150.8411  142.2347  157.0396 C   0  0  0  0  0  0  0  0  0  0  0  0
  151.0054  143.2000  158.0279 C   0  0  0  0  0  0  0  0  0  0  0  0
  151.8622  142.8731  159.0994 C   0  0  0  0  0  0  0  0  0  0  0  0
  152.0580  143.7768  160.0885 F   0  0  0  0  0  0  0  0  0  0  0  0
  152.5166  141.6248  159.1601 C   0  0  0  0  0  0  0  0  0  0  0  0
  153.3286  141.3492  160.2080 F   0  0  0  0  0  0  0  0  0  0  0  0
  152.3420  140.6538  158.1520 C   0  0  0  0  0  0  0  0  0  0  0  0
  151.4945  140.9850  157.0949 C   0  0  0  0  0  0  0  0  0  0  0  0
  147.4748  136.2636  154.5330 C   0  0  0  0  0  0  0  0  0  0  0  0
  146.4752  135.9715  153.4013 C   0  0  0  0  0  0  0  0  0  0  0  0
  145.2925  136.5943  150.9208 H   0  0  0  0  0  0  0  0  0  0  0  0
  144.2454  137.8841  151.5067 H   0  0  0  0  0  0  0  0  0  0  0  0
  144.0210  136.2386  152.0871 H   0  0  0  0  0  0  0  0  0  0  0  0
  145.1644  137.6235  153.7974 H   0  0  0  0  0  0  0  0  0  0  0  0
  147.3345  138.0065  151.6873 H   0  0  0  0  0  0  0  0  0  0  0  0
  146.2854  139.2523  152.3193 H   0  0  0  0  0  0  0  0  0  0  0  0
  148.5047  139.3084  153.4099 H   0  0  0  0  0  0  0  0  0  0  0  0
  147.2516  138.9868  154.5880 H   0  0  0  0  0  0  0  0  0  0  0  0
  149.0877  138.0762  155.9822 H   0  0  0  0  0  0  0  0  0  0  0  0
  149.8054  136.5401  155.5739 H   0  0  0  0  0  0  0  0  0  0  0  0
  150.5180  138.9035  153.8142 H   0  0  0  0  0  0  0  0  0  0  0  0
  151.4579  137.1490  153.1107 H   0  0  0  0  0  0  0  0  0  0  0  0
  151.6415  138.3746  156.6005 H   0  0  0  0  0  0  0  0  0  0  0  0
  152.6274  139.0559  155.3367 H   0  0  0  0  0  0  0  0  0  0  0  0
  149.7767  140.7902  154.2732 H   0  0  0  0  0  0  0  0  0  0  0  0
  150.5065  144.1573  157.9854 H   0  0  0  0  0  0  0  0  0  0  0  0
  152.8508  139.7035  158.2139 H   0  0  0  0  0  0  0  0  0  0  0  0
  147.9991  135.3420  154.7890 H   0  0  0  0  0  0  0  0  0  0  0  0
  146.9451  136.5868  155.4305 H   0  0  0  0  0  0  0  0  0  0  0  0
  145.7516  135.2269  153.7352 H   0  0  0  0  0  0  0  0  0  0  0  0
  147.0034  135.5297  152.5549 H   0  0  0  0  0  0  0  0  0  0  0  0
  148.9202  136.9440  153.3091 H   0  0  0  0  0  0  0  0  0  0  0  0
  149.4967  143.0050  155.5387 H   0  0  0  0  0  0  0  0  0  0  0  0
  1  2  1  0  0  0  0
  1 23  1  0  0  0  0
  1 24  1  0  0  0  0
  1 25  1  0  0  0  0
  2 22  1  0  0  0  0
  2  3  1  0  0  0  0
  2 26  1  0  0  0  0
  3  4  1  0  0  0  0
  3 27  1  0  0  0  0
  3 28  1  0  0  0  0
  4  5  1  0  0  0  0
  4 29  1  0  0  0  0
  4 30  1  0  0  0  0
  5  6  1  0  0  0  0
  5 21  1  0  0  0  0
  5 44  1  0  0  0  0
  6  7  1  0  0  0  0
  6 31  1  0  0  0  0
  6 32  1  0  0  0  0
  7  8  1  0  0  0  0
  7  9  1  0  0  0  0
  7 33  1  0  0  0  0
  8 34  1  0  0  0  0
  9 10  1  0  0  0  0
  9 35  1  0  0  0  0
  9 36  1  0  0  0  0
 10 20  1  0  0  0  0
 10 11  1  0  0  0  0
 11 12  2  0  0  0  0
 11 37  1  0  0  0  0
 12 13  1  0  0  0  0
 12 45  1  0  0  0  0
 13 20  2  0  0  0  0
 13 14  1  0  0  0  0
 14 15  2  0  0  0  0
 14 38  1  0  0  0  0
 15 16  1  0  0  0  0
 15 17  1  0  0  0  0
 17 18  1  0  0  0  0
 17 19  2  0  0  0  0
 19 20  1  0  0  0  0
 19 39  1  0  0  0  0
 21 22  1  0  0  0  0
 21 40  1  0  0  0  0
 21 41  1  0  0  0  0
 22 42  1  0  0  0  0
 22 43  1  0  0  0  0
M  CHG  1   5   1
M  CHG  1  12   1
M  END
> <s_m_source_file>
AV-unprocessed.smi

> <i_m_source_file_index>
1702

> <i_lp_mmshare_version>
43012

> <i_f3d_flags>
0

> <s_epik_input>
W0NIM11bQ0hdMVtDSDJdW0NIMl1OKFtDSDJdW0NIMl0xKVtDSDJdW0NASF0oW09IXSlbQ0gyXW4oW2NIXW4yKWMoYzIzKVtjSF1jKEYpYyhGKVtjSF0z

> <s_epik_cmdline>
J2VwaWtfcHl0aG9uJywgJy1waCcsICc3LjAnLCAnLXRuJywgJzgnLCAnLW1hJywgJzIwMCcsICctbWV0YWxfYmluZGluZycsICctaW1hZScsICc8aW5maWxlLm1hZT4nLCAnLW9tYWUnLCAnPG91dGZpbGUubWFlPic=

> <r_epik_Ionization_Penalty>
2.33291

> <r_epik_Ionization_Penalty_Charging>
2.33291

> <r_epik_Ionization_Penalty_Neutral>
6.90208e-07

> <r_epik_State_Penalty>
2.4838

> <r_epik_Charging_Adjusted_Penalty>
4.81672

> <i_epik_Tot_Q>
2

> <i_epik_Tot_abs_Q>
2

> <r_epik_Metal_State_Penalty>
6.56754

> <b_epik_Metal_Only>
0

> <s_lp_Force_Field>
OPLS_2005

> <r_lp_Energy>
33.9441

> <b_lp_Chiralities_Consistent>
1

> <s_lp_Variant>
AV-unprocessed.smi:1702-5

> <Gold.Version>
5.8.1

> <Gold.Id.Protein>
6NUR|6NUR_protein|mol2

> <Gold.PLP.Fitness>
57.1429

> <Gold.PLP.PLP>
-41.2166

> <Gold.PLP.part.hbond>
-4.0000

> <Gold.PLP.part.metal>
0.0000

> <Gold.PLP.part.buried>
-2.5826

> <Gold.PLP.part.nonpolar>
-34.0753

> <Gold.PLP.part.repulsive>
0.1303

> <Gold.PLP.ligand.clash>
0.0000

> <Gold.PLP.ligand.torsion>
0.8649

> <Gold.PLP.Chemscore.Hbond>
5.8629

> <Gold.PLP.Chemscore.CHOScore>
0.0000

> <Gold.PLP.Chemscore.Metal>
0.0000

> <Gold.Chemscore.Hbonds>
donor molecule, donor type, donor heavy atom, donor atom, acceptor molecule, acceptor atom, score
      L1  H     5    44       P1  7948  2.00
      L1  H     8    34       P1  7949  0.98
      L1  H    12    45       P1  8028  2.00
      P1  H 10752 10763       L1     8  0.78

> <Gold.PLP.Chemscore.Internal.Correction>
0.0675

> <Gold.Rescore>
     Score         DG    S(hbond)    S(metal)    S(lipo)     H(rot)  DE(clash)    DE(int)     intcor
     19.48     -20.55       3.10        0.00      91.11       2.32       0.32       0.75       ----

> <Gold.Chemscore.Fitness>
19.4760

> <Gold.Chemscore.DG>
-20.5465

> <Gold.Chemscore.ZeroCoef>
-5.4800

> <Gold.Chemscore.Hbond>
3.0984

> <Gold.Chemscore.Metal>
0.0000

> <Gold.Chemscore.Lipo>
91.1070

> <Gold.Chemscore.Internal_Hbond>
0.0000

> <Gold.Chemscore.DEClash>
0.3160

> <Gold.Chemscore.DEInternal>
0.7545

> <Gold.Chemscore.Rot>
2.3210

> <Gold.Chemscore.Internal.Correction>
   9.000000E+99

> <Gold.Chemscore.Hbonds>
donor molecule, donor type, donor heavy atom, donor atom, acceptor molecule, acceptor atom, score
      L1  H     5    44       P1  7948  0.97
      L1  H     8    34       P1  7949  0.76
      L1  H    12    45       P1  8028  0.96
      P1  H 10752 10763       L1     8  0.11

> <Gold.Chemscore.Hbond.Weighted>
-10.3487

> <Gold.Chemscore.Metal.Weighted>
-0.0000

> <Gold.Chemscore.Lipo.Weighted>
-10.6595

> <Gold.Chemscore.Internal_Hbond.Weighted>
0.0000

> <Gold.Chemscore.DEClash.Weighted>
0.3160

> <Gold.Chemscore.DEInternal.Weighted>
0.7545

> <Gold.Chemscore.Rot.Weighted>
5.9416

> <Gold.Chemscore.Internal.Correction.Weighted>
   9.000000E+99

> <Gold.Protein.RotatedTorsions>
[ 6907 6896 6895 6894 ] final    1.04 input  -60.11 | X-H torsion
[ 7974 7965 7964 7962 ] final -154.88 input  175.53 | X-H torsion
[ 8008 7997 7996 7995 ] final  138.51 input   59.86 | X-H torsion
[ 10167 10162 10161 10158 ] final  -78.07 input  -65.29 | X-H torsion
[ 10718 10713 10712 10709 ] final -113.94 input   66.30 | X-H torsion
[ 10763 10752 10751 10750 ] final   30.65 input  -60.55 | X-H torsion
[ 11005 11000 10999 10996 ] final   53.76 input  -57.11 | X-H torsion

> <Gold.Protein.ActiveResidues>
 VAL166  LYS551  ARG553  GLY616  TRP617  ASP618  TYR619  PRO620  LYS621  CYS622 
 ASP623  PHE694  ASN695  SER759  ASP760  ASP761  ALA762  ILE779  LEU786  VAL792 
 PHE793  MET794  SER795  GLU796  ALA797  LYS798  CYS799  TRP800  GLU811  SER814 

> <Gold.Protein.RotatedAtoms>
  151.5861  135.1056  160.0028 H   0  0  0  0  0  0  0  0  0  0  0  0  # atno 6907 bound_to 6896
  152.4330  133.7306  159.6596 H   0  0  0  0  0  0  0  0  0  0  0  0  # atno 6908 bound_to 6896
  150.8224  133.8159  159.3156 H   0  0  0  0  0  0  0  0  0  0  0  0  # atno 6909 bound_to 6896
  144.7667  140.4327  143.5936 H   0  0  0  0  0  0  0  0  0  0  0  0  # atno 7974 bound_to 7965
  156.2997  140.2391  156.4085 H   0  0  0  0  0  0  0  0  0  0  0  0  # atno 8008 bound_to 7997
  154.8462  140.0426  157.1594 H   0  0  0  0  0  0  0  0  0  0  0  0  # atno 8009 bound_to 7997
  154.9048  140.2982  155.5302 H   0  0  0  0  0  0  0  0  0  0  0  0  # atno 8010 bound_to 7997
  140.4714  143.2426  151.8199 H   0  0  0  0  0  0  0  0  0  0  0  0  # atno 10167 bound_to 10162
  156.0798  130.6000  150.8709 H   0  0  0  0  0  0  0  0  0  0  0  0  # atno 10718 bound_to 10713
  153.0360  135.6459  154.1077 H   0  0  0  0  0  0  0  0  0  0  0  0  # atno 10763 bound_to 10752
  154.0791  135.2874  155.3295 H   0  0  0  0  0  0  0  0  0  0  0  0  # atno 10764 bound_to 10752
  154.6542  135.5415  153.8002 H   0  0  0  0  0  0  0  0  0  0  0  0  # atno 10765 bound_to 10752
  140.0741  134.5429  155.9015 H   0  0  0  0  0  0  0  0  0  0  0  0  # atno 11005 bound_to 11000
  145.6447  139.1555  143.2896 LP  0  0  0  0  0  0  0  0  0  0  0  0  # atno 17320 bound_to 7965
  146.1781  140.6540  142.9202 LP  0  0  0  0  0  0  0  0  0  0  0  0  # atno 17321 bound_to 7965
  139.4819  144.4887  151.9213 LP  0  0  0  0  0  0  0  0  0  0  0  0  # atno 17342 bound_to 10162
  140.3972  144.2540  150.5895 LP  0  0  0  0  0  0  0  0  0  0  0  0  # atno 17343 bound_to 10162
  157.5910  131.0944  150.9118 LP  0  0  0  0  0  0  0  0  0  0  0  0  # atno 17370 bound_to 10713
  156.9294  130.5344  149.5279 LP  0  0  0  0  0  0  0  0  0  0  0  0  # atno 17371 bound_to 10713
  141.2023  133.6624  156.5998 LP  0  0  0  0  0  0  0  0  0  0  0  0  # atno 17394 bound_to 11000
  140.3583  134.7709  157.4516 LP  0  0  0  0  0  0  0  0  0  0  0  0  # atno 17395 bound_to 11000

$$$$
