AV-unprocessed.smi:1438|AV-procd|sdf|5867|dock4
  -GOLD-   22720 5543D 1   1.00000     0.00000
 Structure written by MMmdl.
 43 44  0  0  0  0  0  0  0  0  1 V2000
  146.7172  135.5758  157.0888 C   0  0  0  0  0  0  0  0  0  0  0  0
  146.6885  136.7284  158.1060 C   0  0  2  0  0  0  0  0  0  0  0  0
  147.2284  138.0340  157.5065 C   0  0  0  0  0  0  0  0  0  0  0  0
  147.2834  139.0601  158.1847 O   0  0  0  0  0  0  0  0  0  0  0  0
  147.6201  137.9836  156.2253 N   0  0  0  0  0  0  0  0  0  0  0  0
  148.0965  139.1275  155.4613 C   0  0  0  0  0  0  0  0  0  0  0  0
  149.5438  139.4517  155.7767 C   0  0  0  0  0  0  0  0  0  0  0  0
  150.5888  138.9279  154.9879 C   0  0  0  0  0  0  0  0  0  0  0  0
  151.9149  139.2647  155.3217 C   0  0  0  0  0  0  0  0  0  0  0  0
  152.2367  140.0669  156.3585 N   0  0  0  0  0  0  0  0  0  0  0  0
  151.2327  140.5702  157.1161 C   0  0  0  0  0  0  0  0  0  0  0  0
  151.5620  141.4142  158.1860 N   0  0  0  0  0  0  0  0  0  0  0  0
  152.6287  140.9023  159.0376 C   0  0  0  0  0  0  0  0  0  0  0  0
  152.8273  141.8334  160.2462 C   0  0  0  0  0  0  0  0  0  0  0  0
  153.0898  143.1574  159.7896 O   0  0  0  0  0  0  0  0  0  0  0  0
  152.0136  143.6800  159.0154 C   0  0  0  0  0  0  0  0  0  0  0  0
  151.7896  142.7945  157.7774 C   0  0  0  0  0  0  0  0  0  0  0  0
  149.8739  140.2888  156.8622 C   0  0  0  0  0  0  0  0  0  0  0  0
  147.6720  136.2690  159.6098 S   0  0  0  0  0  0  0  0  0  0  0  0
  147.0046  134.6102  160.0569 C   0  0  0  0  0  0  0  0  0  0  0  0
  149.0760  136.1041  159.2030 O   0  0  0  0  0  0  0  0  0  0  0  0
  147.3428  137.2011  160.6994 O   0  0  0  0  0  0  0  0  0  0  0  0
  146.1656  135.8317  156.1835 H   0  0  0  0  0  0  0  0  0  0  0  0
  146.2616  134.6782  157.5070 H   0  0  0  0  0  0  0  0  0  0  0  0
  147.7376  135.3208  156.7998 H   0  0  0  0  0  0  0  0  0  0  0  0
  145.6583  136.8801  158.4301 H   0  0  0  0  0  0  0  0  0  0  0  0
  147.5543  137.1034  155.7350 H   0  0  0  0  0  0  0  0  0  0  0  0
  147.9863  138.9296  154.3936 H   0  0  0  0  0  0  0  0  0  0  0  0
  147.4813  139.9985  155.6917 H   0  0  0  0  0  0  0  0  0  0  0  0
  150.3820  138.2801  154.1485 H   0  0  0  0  0  0  0  0  0  0  0  0
  152.7394  138.8808  154.7394 H   0  0  0  0  0  0  0  0  0  0  0  0
  152.3800  139.8956  159.3755 H   0  0  0  0  0  0  0  0  0  0  0  0
  153.5573  140.8336  158.4690 H   0  0  0  0  0  0  0  0  0  0  0  0
  151.9473  141.8277  160.8913 H   0  0  0  0  0  0  0  0  0  0  0  0
  153.6678  141.4918  160.8504 H   0  0  0  0  0  0  0  0  0  0  0  0
  151.1086  143.7353  159.6227 H   0  0  0  0  0  0  0  0  0  0  0  0
  152.2557  144.6983  158.7108 H   0  0  0  0  0  0  0  0  0  0  0  0
  152.6611  142.8453  157.1230 H   0  0  0  0  0  0  0  0  0  0  0  0
  150.9347  143.1575  157.2058 H   0  0  0  0  0  0  0  0  0  0  0  0
  149.1012  140.7116  157.4881 H   0  0  0  0  0  0  0  0  0  0  0  0
  147.5810  134.2042  160.8878 H   0  0  0  0  0  0  0  0  0  0  0  0
  147.0840  133.9394  159.2019 H   0  0  0  0  0  0  0  0  0  0  0  0
  145.9615  134.6974  160.3594 H   0  0  0  0  0  0  0  0  0  0  0  0
  1  2  1  0  0  0  0
  1 23  1  0  0  0  0
  1 24  1  0  0  0  0
  1 25  1  0  0  0  0
  2  3  1  0  0  0  0
  2 19  1  0  0  0  0
  2 26  1  0  0  0  0
  3  4  2  0  0  0  0
  3  5  1  0  0  0  0
  5  6  1  0  0  0  0
  5 27  1  0  0  0  0
  6  7  1  0  0  0  0
  6 28  1  0  0  0  0
  6 29  1  0  0  0  0
  7 18  1  0  0  0  0
  7  8  2  0  0  0  0
  8  9  1  0  0  0  0
  8 30  1  0  0  0  0
  9 10  2  0  0  0  0
  9 31  1  0  0  0  0
 10 11  1  0  0  0  0
 11 12  1  0  0  0  0
 11 18  2  0  0  0  0
 12 17  1  0  0  0  0
 12 13  1  0  0  0  0
 13 14  1  0  0  0  0
 13 32  1  0  0  0  0
 13 33  1  0  0  0  0
 14 15  1  0  0  0  0
 14 34  1  0  0  0  0
 14 35  1  0  0  0  0
 15 16  1  0  0  0  0
 16 17  1  0  0  0  0
 16 36  1  0  0  0  0
 16 37  1  0  0  0  0
 17 38  1  0  0  0  0
 17 39  1  0  0  0  0
 18 40  1  0  0  0  0
 19 20  1  0  0  0  0
 19 21  2  0  0  0  0
 19 22  2  0  0  0  0
 20 41  1  0  0  0  0
 20 42  1  0  0  0  0
 20 43  1  0  0  0  0
M  END
> <s_m_source_file>
AV-unprocessed.smi

> <i_m_source_file_index>
1438

> <i_lp_mmshare_version>
43012

> <i_f3d_flags>
0

> <s_epik_input>
W0NIM11TKD1PKSg9TylbQ0BIXShbQ0gzXSlDKD1PKVtOSF1bQ0gyXWMxW2NIXVtjSF1uYyhbY0hdMSlOMltDSDJdW0NIMl1PW0NIMl1bQ0gyXTI=

> <s_epik_cmdline>
J2VwaWtfcHl0aG9uJywgJy1waCcsICc3LjAnLCAnLXRuJywgJzgnLCAnLW1hJywgJzIwMCcsICctbWV0YWxfYmluZGluZycsICctaW1hZScsICc8aW5maWxlLm1hZT4nLCAnLW9tYWUnLCAnPG91dGZpbGUubWFlPic=

> <r_lp_tautomer_probability>
1

> <r_epik_Ionization_Penalty>
0.00387635

> <r_epik_Ionization_Penalty_Charging>
0

> <r_epik_Ionization_Penalty_Neutral>
0.00387635

> <r_epik_State_Penalty>
0.0027681

> <r_epik_Charging_Adjusted_Penalty>
0.0027681

> <i_epik_Tot_Q>
0

> <i_epik_Tot_abs_Q>
0

> <r_epik_Metal_State_Penalty>
-0

> <b_epik_Metal_Only>
0

> <s_lp_Force_Field>
OPLS_2005

> <r_lp_Energy>
15.2281

> <b_lp_Chiralities_Consistent>
1

> <s_lp_Variant>
AV-unprocessed.smi:1438-1

> <Gold.Version>
5.8.1

> <Gold.Id.Protein>
6NUR|6NUR_protein|mol2

> <Gold.PLP.Fitness>
38.9748

> <Gold.PLP.PLP>
-31.1058

> <Gold.PLP.part.hbond>
-5.0000

> <Gold.PLP.part.metal>
0.0000

> <Gold.PLP.part.buried>
-4.1892

> <Gold.PLP.part.nonpolar>
-21.7293

> <Gold.PLP.part.repulsive>
0.0047

> <Gold.PLP.ligand.clash>
1.3492

> <Gold.PLP.ligand.torsion>
1.1884

> <Gold.PLP.Chemscore.Hbond>
3.7760

> <Gold.PLP.Chemscore.CHOScore>
0.0000

> <Gold.PLP.Chemscore.Metal>
0.0000

> <Gold.Chemscore.Hbonds>
donor molecule, donor type, donor heavy atom, donor atom, acceptor molecule, acceptor atom, score
      P1  H  6896  6907       L1    21  0.55
      P1  H  6931  6943       L1    22  0.21
      P1  H  6934  6947       L1    22  1.00
      P1  H  7997  8008       L1    10  0.81

> <Gold.PLP.Chemscore.Internal.Correction>
0.2670

> <Gold.Rescore>
     Score         DG    S(hbond)    S(metal)    S(lipo)     H(rot)  DE(clash)    DE(int)     intcor
     17.22     -18.35       2.94        0.00      71.48       2.08       0.23       0.90       ----

> <Gold.Chemscore.Fitness>
17.2182

> <Gold.Chemscore.DG>
-18.3492

> <Gold.Chemscore.ZeroCoef>
-5.4800

> <Gold.Chemscore.Hbond>
2.9405

> <Gold.Chemscore.Metal>
0.0000

> <Gold.Chemscore.Lipo>
71.4830

> <Gold.Chemscore.Internal_Hbond>
0.0000

> <Gold.Chemscore.DEClash>
0.2267

> <Gold.Chemscore.DEInternal>
0.9042

> <Gold.Chemscore.Rot>
2.0764

> <Gold.Chemscore.Internal.Correction>
   9.000000E+99

> <Gold.Chemscore.Hbonds>
donor molecule, donor type, donor heavy atom, donor atom, acceptor molecule, acceptor atom, score
      P1  H  6896  6907       L1    21  0.54
      P1  H  6931  6943       L1    22  0.20
      P1  H  6934  6947       L1    22  0.99
      P1  H  7997  8008       L1    10  0.48

> <Gold.Chemscore.Hbond.Weighted>
-9.8212

> <Gold.Chemscore.Metal.Weighted>
-0.0000

> <Gold.Chemscore.Lipo.Weighted>
-8.3635

> <Gold.Chemscore.Internal_Hbond.Weighted>
0.0000

> <Gold.Chemscore.DEClash.Weighted>
0.2267

> <Gold.Chemscore.DEInternal.Weighted>
0.9042

> <Gold.Chemscore.Rot.Weighted>
5.3155

> <Gold.Chemscore.Internal.Correction.Weighted>
   9.000000E+99

> <Gold.Protein.RotatedTorsions>
[ 6907 6896 6895 6894 ] final  -47.40 input  -60.11 | X-H torsion
[ 7974 7965 7964 7962 ] final  -11.45 input  175.53 | X-H torsion
[ 8008 7997 7996 7995 ] final  -51.59 input   59.86 | X-H torsion
[ 10167 10162 10161 10158 ] final  167.62 input  -65.29 | X-H torsion
[ 10718 10713 10712 10709 ] final -125.32 input   66.30 | X-H torsion
[ 10763 10752 10751 10750 ] final   62.20 input  -60.55 | X-H torsion
[ 11005 11000 10999 10996 ] final   69.41 input  -57.11 | X-H torsion

> <Gold.Protein.ActiveResidues>
 VAL166  LYS551  ARG553  GLY616  TRP617  ASP618  TYR619  PRO620  LYS621  CYS622 
 ASP623  PHE694  ASN695  SER759  ASP760  ASP761  ALA762  ILE779  LEU786  VAL792 
 PHE793  MET794  SER795  GLU796  ALA797  LYS798  CYS799  TRP800  GLU811  SER814 

> <Gold.Protein.RotatedAtoms>
  150.9012  134.8424  159.7361 H   0  0  0  0  0  0  0  0  0  0  0  0  # atno 6907 bound_to 6896
  152.4893  134.4499  159.9581 H   0  0  0  0  0  0  0  0  0  0  0  0  # atno 6908 bound_to 6896
  151.4551  133.3568  159.2836 H   0  0  0  0  0  0  0  0  0  0  0  0  # atno 6909 bound_to 6896
  146.2187  140.2913  142.8368 H   0  0  0  0  0  0  0  0  0  0  0  0  # atno 7974 bound_to 7965
  154.4086  140.1244  156.4854 H   0  0  0  0  0  0  0  0  0  0  0  0  # atno 8008 bound_to 7997
  155.7043  140.3494  155.4927 H   0  0  0  0  0  0  0  0  0  0  0  0  # atno 8009 bound_to 7997
  155.9357  140.1078  157.1087 H   0  0  0  0  0  0  0  0  0  0  0  0  # atno 8010 bound_to 7997
  139.4949  144.3902  151.9525 H   0  0  0  0  0  0  0  0  0  0  0  0  # atno 10167 bound_to 10162
  156.1665  130.6638  151.0122 H   0  0  0  0  0  0  0  0  0  0  0  0  # atno 10718 bound_to 10713
  152.9975  135.5473  154.6156 H   0  0  0  0  0  0  0  0  0  0  0  0  # atno 10763 bound_to 10752
  154.5467  135.2823  155.1048 H   0  0  0  0  0  0  0  0  0  0  0  0  # atno 10764 bound_to 10752
  154.2304  135.6434  153.5226 H   0  0  0  0  0  0  0  0  0  0  0  0  # atno 10765 bound_to 10752
  139.9655  134.6988  156.0555 H   0  0  0  0  0  0  0  0  0  0  0  0  # atno 11005 bound_to 11000
  144.9125  140.7774  143.5799 LP  0  0  0  0  0  0  0  0  0  0  0  0  # atno 17320 bound_to 7965
  145.2844  139.1906  143.4774 LP  0  0  0  0  0  0  0  0  0  0  0  0  # atno 17321 bound_to 7965
  140.3340  144.3283  150.5981 LP  0  0  0  0  0  0  0  0  0  0  0  0  # atno 17342 bound_to 10162
  140.5622  143.2191  151.7746 LP  0  0  0  0  0  0  0  0  0  0  0  0  # atno 17343 bound_to 10162
  157.6772  131.0847  150.7465 LP  0  0  0  0  0  0  0  0  0  0  0  0  # atno 17370 bound_to 10713
  156.7525  130.4773  149.5453 LP  0  0  0  0  0  0  0  0  0  0  0  0  # atno 17371 bound_to 10713
  141.1334  133.6581  156.3528 LP  0  0  0  0  0  0  0  0  0  0  0  0  # atno 17394 bound_to 11000
  140.5406  134.6124  157.5378 LP  0  0  0  0  0  0  0  0  0  0  0  0  # atno 17395 bound_to 11000

$$$$
