AV-unprocessed.smi:3110|AV-procd|sdf|11830|dock6
  -GOLD-   2272017203D 1   1.00000     0.00000
 Structure written by MMmdl.
 33 34  0  0  0  0  0  0  0  0  1 V2000
  154.4366  140.4761  159.4817 O   0  0  0  0  0  0  0  0  0  0  0  0
  153.3638  141.0666  159.6054 C   0  0  0  0  0  0  0  0  0  0  0  0
  153.2174  142.1909  160.6342 C   0  0  0  0  0  0  0  0  0  0  0  0
  152.2537  143.3011  160.1653 C   0  0  2  0  0  0  0  0  0  0  0  0
  152.5475  143.7613  158.7606 C   0  0  0  0  0  0  0  0  0  0  0  0
  152.6134  145.0869  158.6560 C   0  0  0  0  0  0  0  0  0  0  0  0
  152.3788  145.7784  159.9699 C   0  0  0  0  0  0  0  0  0  0  0  0
  152.3124  144.6178  160.9862 C   0  0  0  0  0  0  0  0  0  0  0  0
  152.2732  140.7760  158.8789 N   0  0  0  0  0  0  0  0  0  0  0  0
  152.1715  139.6890  157.9094 C   0  0  0  0  0  0  0  0  0  0  0  0
  151.8433  140.2091  156.4972 C   0  0  0  0  0  0  0  0  0  0  0  0
  151.3034  139.1769  155.6313 N   0  0  0  0  0  0  0  0  0  0  0  0
  150.0975  139.2061  154.9425 C   0  0  0  0  0  0  0  0  0  0  0  0
  150.0027  138.0113  154.2654 C   0  0  0  0  0  0  0  0  0  0  0  0
  151.1349  137.2397  154.5155 N   0  0  0  0  0  0  0  0  0  0  0  0
  151.8594  137.9951  155.3310 C   0  0  0  0  0  0  0  0  0  0  0  0
  152.8679  141.7614  161.5741 H   0  0  0  0  0  0  0  0  0  0  0  0
  154.1996  142.6188  160.8421 H   0  0  0  0  0  0  0  0  0  0  0  0
  151.2317  142.9182  160.1634 H   0  0  0  0  0  0  0  0  0  0  0  0
  152.6674  143.0680  157.9412 H   0  0  0  0  0  0  0  0  0  0  0  0
  152.7946  145.6322  157.7417 H   0  0  0  0  0  0  0  0  0  0  0  0
  153.1883  146.4726  160.1968 H   0  0  0  0  0  0  0  0  0  0  0  0
  151.4414  146.3337  159.9298 H   0  0  0  0  0  0  0  0  0  0  0  0
  151.4590  144.7138  161.6583 H   0  0  0  0  0  0  0  0  0  0  0  0
  153.2106  144.6437  161.6045 H   0  0  0  0  0  0  0  0  0  0  0  0
  151.4386  141.3208  159.0409 H   0  0  0  0  0  0  0  0  0  0  0  0
  153.1342  139.1779  157.8882 H   0  0  0  0  0  0  0  0  0  0  0  0
  151.4406  138.9426  158.2253 H   0  0  0  0  0  0  0  0  0  0  0  0
  151.1315  141.0340  156.5489 H   0  0  0  0  0  0  0  0  0  0  0  0
  152.7459  140.6044  156.0299 H   0  0  0  0  0  0  0  0  0  0  0  0
  149.4216  140.0466  154.9966 H   0  0  0  0  0  0  0  0  0  0  0  0
  149.2127  137.6509  153.6233 H   0  0  0  0  0  0  0  0  0  0  0  0
  152.8151  137.6795  155.7236 H   0  0  0  0  0  0  0  0  0  0  0  0
  1  2  2  0  0  0  0
  2  3  1  0  0  0  0
  2  9  1  0  0  0  0
  3  4  1  0  0  0  0
  3 17  1  0  0  0  0
  3 18  1  0  0  0  0
  4  8  1  0  0  0  0
  4  5  1  0  0  0  0
  4 19  1  0  0  0  0
  5  6  2  0  0  0  0
  5 20  1  0  0  0  0
  6  7  1  0  0  0  0
  6 21  1  0  0  0  0
  7  8  1  0  0  0  0
  7 22  1  0  0  0  0
  7 23  1  0  0  0  0
  8 24  1  0  0  0  0
  8 25  1  0  0  0  0
  9 10  1  0  0  0  0
  9 26  1  0  0  0  0
 10 11  1  0  0  0  0
 10 27  1  0  0  0  0
 10 28  1  0  0  0  0
 11 12  1  0  0  0  0
 11 29  1  0  0  0  0
 11 30  1  0  0  0  0
 12 16  1  0  0  0  0
 12 13  1  0  0  0  0
 13 14  2  0  0  0  0
 13 31  1  0  0  0  0
 14 15  1  0  0  0  0
 14 32  1  0  0  0  0
 15 16  2  0  0  0  0
 16 33  1  0  0  0  0
M  END
> <s_m_source_file>
AV-unprocessed.smi

> <i_m_source_file_index>
3110

> <i_lp_mmshare_version>
43012

> <i_f3d_flags>
0

> <s_epik_input>
W0NIMl0xW0NIMl1bQ0hdPVtDSF1bQ0BIXTFbQ0gyXUMoPU8pW05IXVtDSDJdW0NIMl1uMltjSF1bY0hdbltjSF0y

> <s_epik_cmdline>
J2VwaWtfcHl0aG9uJywgJy1waCcsICc3LjAnLCAnLXRuJywgJzgnLCAnLW1hJywgJzIwMCcsICctbWV0YWxfYmluZGluZycsICctaW1hZScsICc8aW5maWxlLm1hZT4nLCAnLW9tYWUnLCAnPG91dGZpbGUubWFlPic=

> <r_lp_tautomer_probability>
1

> <r_epik_Ionization_Penalty>
0.593629

> <r_epik_Ionization_Penalty_Charging>
0.593629

> <r_epik_Ionization_Penalty_Neutral>
1.57355e-08

> <r_epik_State_Penalty>
0.607413

> <r_epik_Charging_Adjusted_Penalty>
1.20104

> <i_epik_Tot_Q>
0

> <i_epik_Tot_abs_Q>
0

> <r_epik_Metal_State_Penalty>
0.299385

> <b_epik_Metal_Only>
0

> <s_lp_Force_Field>
OPLS_2005

> <r_lp_Energy>
17.6057

> <b_lp_Chiralities_Consistent>
1

> <s_lp_Variant>
AV-unprocessed.smi:3110-3

> <Gold.Version>
5.8.1

> <Gold.Id.Protein>
6NUR|6NUR_protein|mol2

> <Gold.PLP.Fitness>
47.4675

> <Gold.PLP.PLP>
-41.0381

> <Gold.PLP.part.hbond>
-2.0000

> <Gold.PLP.part.metal>
0.0000

> <Gold.PLP.part.buried>
-0.9110

> <Gold.PLP.part.nonpolar>
-38.5826

> <Gold.PLP.part.repulsive>
0.4020

> <Gold.PLP.ligand.clash>
0.0000

> <Gold.PLP.ligand.torsion>
0.5481

> <Gold.PLP.Chemscore.Hbond>
1.5031

> <Gold.PLP.Chemscore.CHOScore>
1.0000

> <Gold.PLP.Chemscore.Metal>
0.0000

> <Gold.Chemscore.Hbonds>
donor molecule, donor type, donor heavy atom, donor atom, acceptor molecule, acceptor atom, score
      P1  H  7997  8009       L1     1  0.30
      P1  H 10752 10764       L1    15  0.03
      L1  C    14    32       P1  7948  1.00

> <Gold.PLP.Chemscore.Internal.Correction>
0.0163

> <Gold.Rescore>
     Score         DG    S(hbond)    S(metal)    S(lipo)     H(rot)  DE(clash)    DE(int)     intcor
     13.13     -13.83       0.70        0.00      95.33       2.01       0.16       0.54       ----

> <Gold.Chemscore.Fitness>
13.1280

> <Gold.Chemscore.DG>
-13.8289

> <Gold.Chemscore.ZeroCoef>
-5.4800

> <Gold.Chemscore.Hbond>
0.7016

> <Gold.Chemscore.Metal>
0.0000

> <Gold.Chemscore.Lipo>
95.3281

> <Gold.Chemscore.Internal_Hbond>
0.0000

> <Gold.Chemscore.DEClash>
0.1600

> <Gold.Chemscore.DEInternal>
0.5410

> <Gold.Chemscore.Rot>
2.0108

> <Gold.Chemscore.Internal.Correction>
   9.000000E+99

> <Gold.Chemscore.Hbonds>
donor molecule, donor type, donor heavy atom, donor atom, acceptor molecule, acceptor atom, score
      P1  H  7997  8009       L1     1  0.27

> <Gold.Chemscore.Hbond.Weighted>
-2.3433

> <Gold.Chemscore.Metal.Weighted>
-0.0000

> <Gold.Chemscore.Lipo.Weighted>
-11.1534

> <Gold.Chemscore.Internal_Hbond.Weighted>
0.0000

> <Gold.Chemscore.DEClash.Weighted>
0.1600

> <Gold.Chemscore.DEInternal.Weighted>
0.5410

> <Gold.Chemscore.Rot.Weighted>
5.1477

> <Gold.Chemscore.Internal.Correction.Weighted>
   9.000000E+99

> <Gold.Protein.RotatedTorsions>
[ 6907 6896 6895 6894 ] final  144.49 input  -60.11 | X-H torsion
[ 7974 7965 7964 7962 ] final  145.92 input  175.53 | X-H torsion
[ 8008 7997 7996 7995 ] final  120.60 input   59.86 | X-H torsion
[ 10167 10162 10161 10158 ] final -172.89 input  -65.29 | X-H torsion
[ 10718 10713 10712 10709 ] final  155.84 input   66.30 | X-H torsion
[ 10763 10752 10751 10750 ] final  -79.38 input  -60.55 | X-H torsion
[ 11005 11000 10999 10996 ] final  131.01 input  -57.11 | X-H torsion

> <Gold.Protein.ActiveResidues>
 VAL166  LYS551  ARG553  GLY616  TRP617  ASP618  TYR619  PRO620  LYS621  CYS622 
 ASP623  PHE694  ASN695  SER759  ASP760  ASP761  ALA762  ILE779  LEU786  VAL792 
 PHE793  MET794  SER795  GLU796  ALA797  LYS798  CYS799  TRP800  GLU811  SER814 

> <Gold.Protein.RotatedAtoms>
  152.1930  133.4786  159.5017 H   0  0  0  0  0  0  0  0  0  0  0  0  # atno 6907 bound_to 6896
  150.6954  134.1688  159.4213 H   0  0  0  0  0  0  0  0  0  0  0  0  # atno 6908 bound_to 6896
  151.9604  135.0126  160.0598 H   0  0  0  0  0  0  0  0  0  0  0  0  # atno 6909 bound_to 6896
  144.8713  139.5841  143.5885 H   0  0  0  0  0  0  0  0  0  0  0  0  # atno 7974 bound_to 7965
  156.2650  140.2827  156.1176 H   0  0  0  0  0  0  0  0  0  0  0  0  # atno 8008 bound_to 7997
  155.1190  140.0392  157.2762 H   0  0  0  0  0  0  0  0  0  0  0  0  # atno 8009 bound_to 7997
  154.6685  140.2582  155.7039 H   0  0  0  0  0  0  0  0  0  0  0  0  # atno 8010 bound_to 7997
  139.5719  144.1623  152.1395 H   0  0  0  0  0  0  0  0  0  0  0  0  # atno 10167 bound_to 10162
  157.2130  131.0702  151.1958 H   0  0  0  0  0  0  0  0  0  0  0  0  # atno 10718 bound_to 10713
  154.5379  135.5697  153.6814 H   0  0  0  0  0  0  0  0  0  0  0  0  # atno 10763 bound_to 10752
  152.9956  135.6220  154.2541 H   0  0  0  0  0  0  0  0  0  0  0  0  # atno 10764 bound_to 10752
  154.2471  135.2860  155.2811 H   0  0  0  0  0  0  0  0  0  0  0  0  # atno 10765 bound_to 10752
  139.9705  134.9578  156.9377 H   0  0  0  0  0  0  0  0  0  0  0  0  # atno 11005 bound_to 11000
  146.2932  139.7201  142.9145 LP  0  0  0  0  0  0  0  0  0  0  0  0  # atno 17320 bound_to 7965
  145.4125  141.0398  143.3009 LP  0  0  0  0  0  0  0  0  0  0  0  0  # atno 17321 bound_to 7965
  140.1157  144.5418  150.6895 LP  0  0  0  0  0  0  0  0  0  0  0  0  # atno 17342 bound_to 10162
  140.7003  143.2430  151.4884 LP  0  0  0  0  0  0  0  0  0  0  0  0  # atno 17343 bound_to 10162
  157.3653  130.7152  149.6528 LP  0  0  0  0  0  0  0  0  0  0  0  0  # atno 17370 bound_to 10713
  155.9689  130.4214  150.4468 LP  0  0  0  0  0  0  0  0  0  0  0  0  # atno 17371 bound_to 10713
  140.5303  134.0820  155.7314 LP  0  0  0  0  0  0  0  0  0  0  0  0  # atno 17394 bound_to 11000
  141.1385  133.9180  157.2380 LP  0  0  0  0  0  0  0  0  0  0  0  0  # atno 17395 bound_to 11000

$$$$
