AV-unprocessed.smi:1921|AV-procd|sdf|7785|dock8
  -GOLD-   22720 9533D 1   1.00000     0.00000
 Structure written by MMmdl.
 27 28  0  0  0  0  0  0  0  0  1 V2000
  152.1405  144.6884  158.2237 C   0  0  0  0  0  0  0  0  0  0  0  0
  151.9786  143.2054  157.8630 C   0  0  2  0  0  0  0  0  0  0  0  0
  150.8396  143.0659  156.9612 N   0  0  0  0  0  0  0  0  0  0  0  0
  150.4793  141.9370  156.3331 C   0  0  0  0  0  0  0  0  0  0  0  0
  151.0862  140.8715  156.4461 O   0  0  0  0  0  0  0  0  0  0  0  0
  149.3839  142.1303  155.5777 N   0  0  0  0  0  0  0  0  0  0  0  0
  148.6967  141.1866  154.7698 C   0  0  0  0  0  0  0  0  0  0  0  0
  147.5005  141.4012  154.2095 N   0  0  0  0  0  0  0  0  0  0  0  0
  147.0636  140.3005  153.4681 C   0  0  0  0  0  0  0  0  0  0  0  0
  147.9462  139.2493  153.4742 C   0  0  0  0  0  0  0  0  0  0  0  0
  149.3703  139.6021  154.4160 S   0  0  0  0  0  0  0  0  0  0  0  0
  151.8656  142.3529  159.1161 C   0  0  0  0  0  0  0  0  0  0  0  0
  152.2435  142.9078  160.4693 C   0  0  0  0  0  0  0  0  0  0  0  0
  153.0918  141.8332  159.8292 C   0  0  0  0  0  0  0  0  0  0  0  0
  153.0161  144.8457  158.8540 H   0  0  0  0  0  0  0  0  0  0  0  0
  151.2709  145.0633  158.7647 H   0  0  0  0  0  0  0  0  0  0  0  0
  152.2673  145.3001  157.3297 H   0  0  0  0  0  0  0  0  0  0  0  0
  152.8819  142.9029  157.3292 H   0  0  0  0  0  0  0  0  0  0  0  0
  150.2813  143.8927  156.8073 H   0  0  0  0  0  0  0  0  0  0  0  0
  148.9959  143.0620  155.5802 H   0  0  0  0  0  0  0  0  0  0  0  0
  146.1085  140.3511  152.9666 H   0  0  0  0  0  0  0  0  0  0  0  0
  147.8454  138.2929  152.9832 H   0  0  0  0  0  0  0  0  0  0  0  0
  151.0037  141.6879  159.1106 H   0  0  0  0  0  0  0  0  0  0  0  0
  152.6567  143.9139  160.5091 H   0  0  0  0  0  0  0  0  0  0  0  0
  151.6260  142.6230  161.3188 H   0  0  0  0  0  0  0  0  0  0  0  0
  153.0397  140.8312  160.2496 H   0  0  0  0  0  0  0  0  0  0  0  0
  154.0671  142.1277  159.4468 H   0  0  0  0  0  0  0  0  0  0  0  0
  1  2  1  0  0  0  0
  1 15  1  0  0  0  0
  1 16  1  0  0  0  0
  1 17  1  0  0  0  0
  2  3  1  0  0  0  0
  2 12  1  0  0  0  0
  2 18  1  0  0  0  0
  3  4  1  0  0  0  0
  3 19  1  0  0  0  0
  4  5  2  0  0  0  0
  4  6  1  0  0  0  0
  6  7  1  0  0  0  0
  6 20  1  0  0  0  0
  7 11  1  0  0  0  0
  7  8  2  0  0  0  0
  8  9  1  0  0  0  0
  9 10  2  0  0  0  0
  9 21  1  0  0  0  0
 10 11  1  0  0  0  0
 10 22  1  0  0  0  0
 12 14  1  0  0  0  0
 12 13  1  0  0  0  0
 12 23  1  0  0  0  0
 13 14  1  0  0  0  0
 13 24  1  0  0  0  0
 13 25  1  0  0  0  0
 14 26  1  0  0  0  0
 14 27  1  0  0  0  0
M  END
> <s_m_source_file>
AV-unprocessed.smi

> <i_m_source_file_index>
1921

> <i_lp_mmshare_version>
43012

> <i_f3d_flags>
0

> <s_epik_input>
W0NIMl0xW0NIMl1bQ0hdMVtDQEhdKFtDSDNdKVtOSF1DKD1PKVtOSF1jMm5bY0hdW2NIXXMy

> <s_epik_cmdline>
J2VwaWtfcHl0aG9uJywgJy1waCcsICc3LjAnLCAnLXRuJywgJzgnLCAnLW1hJywgJzIwMCcsICctbWV0YWxfYmluZGluZycsICctaW1hZScsICc8aW5maWxlLm1hZT4nLCAnLW9tYWUnLCAnPG91dGZpbGUubWFlPic=

> <r_lp_tautomer_probability>
0.999

> <r_epik_Ionization_Penalty>
0.000426276

> <r_epik_Ionization_Penalty_Charging>
0

> <r_epik_Ionization_Penalty_Neutral>
0.000426276

> <r_epik_State_Penalty>
0.000177984

> <r_epik_Charging_Adjusted_Penalty>
0.000177984

> <i_epik_Tot_Q>
0

> <i_epik_Tot_abs_Q>
0

> <r_epik_Metal_State_Penalty>
-0

> <b_epik_Metal_Only>
0

> <s_lp_Force_Field>
OPLS_2005

> <r_lp_Energy>
11.4039

> <b_lp_Chiralities_Consistent>
1

> <s_lp_Variant>
AV-unprocessed.smi:1921-1

> <Gold.Version>
5.8.1

> <Gold.Id.Protein>
6NUR|6NUR_protein|mol2

> <Gold.PLP.Fitness>
42.0443

> <Gold.PLP.PLP>
-31.2520

> <Gold.PLP.part.hbond>
-2.0000

> <Gold.PLP.part.metal>
0.0000

> <Gold.PLP.part.buried>
-3.5002

> <Gold.PLP.part.nonpolar>
-26.7949

> <Gold.PLP.part.repulsive>
0.3577

> <Gold.PLP.ligand.clash>
0.0000

> <Gold.PLP.ligand.torsion>
1.0091

> <Gold.PLP.Chemscore.Hbond>
1.9280

> <Gold.PLP.Chemscore.CHOScore>
1.9882

> <Gold.PLP.Chemscore.Metal>
0.0000

> <Gold.Chemscore.Hbonds>
donor molecule, donor type, donor heavy atom, donor atom, acceptor molecule, acceptor atom, score
      L1  H     3    19       P1  8028  0.93
      L1  H     6    20       P1  8028  1.00
      L1  C     9    21       P1 10175  1.00
      L1  C    10    22       P1  7948  0.88

> <Gold.PLP.Chemscore.Internal.Correction>
1.0616

> <Gold.Rescore>
     Score         DG    S(hbond)    S(metal)    S(lipo)     H(rot)  DE(clash)    DE(int)     intcor
     15.51     -17.69       1.92        0.00      76.95       1.26       0.06       2.13       ----

> <Gold.Chemscore.Fitness>
15.5051

> <Gold.Chemscore.DG>
-17.6878

> <Gold.Chemscore.ZeroCoef>
-5.4800

> <Gold.Chemscore.Hbond>
1.9244

> <Gold.Chemscore.Metal>
0.0000

> <Gold.Chemscore.Lipo>
76.9546

> <Gold.Chemscore.Internal_Hbond>
0.0000

> <Gold.Chemscore.DEClash>
0.0555

> <Gold.Chemscore.DEInternal>
2.1272

> <Gold.Chemscore.Rot>
1.2591

> <Gold.Chemscore.Internal.Correction>
   9.000000E+99

> <Gold.Chemscore.Hbonds>
donor molecule, donor type, donor heavy atom, donor atom, acceptor molecule, acceptor atom, score
      L1  H     3    19       P1  8028  0.88
      L1  H     6    20       P1  8028  1.00

> <Gold.Chemscore.Hbond.Weighted>
-6.4274

> <Gold.Chemscore.Metal.Weighted>
-0.0000

> <Gold.Chemscore.Lipo.Weighted>
-9.0037

> <Gold.Chemscore.Internal_Hbond.Weighted>
0.0000

> <Gold.Chemscore.DEClash.Weighted>
0.0555

> <Gold.Chemscore.DEInternal.Weighted>
2.1272

> <Gold.Chemscore.Rot.Weighted>
3.2233

> <Gold.Chemscore.Internal.Correction.Weighted>
   9.000000E+99

> <Gold.Protein.RotatedTorsions>
[ 6907 6896 6895 6894 ] final -138.61 input  -60.11 | X-H torsion
[ 7974 7965 7964 7962 ] final  -46.10 input  175.53 | X-H torsion
[ 8008 7997 7996 7995 ] final   34.90 input   59.86 | X-H torsion
[ 10167 10162 10161 10158 ] final  116.41 input  -65.29 | X-H torsion
[ 10718 10713 10712 10709 ] final  -72.24 input   66.30 | X-H torsion
[ 10763 10752 10751 10750 ] final   -0.56 input  -60.55 | X-H torsion
[ 11005 11000 10999 10996 ] final  -24.56 input  -57.11 | X-H torsion

> <Gold.Protein.ActiveResidues>
 VAL166  LYS551  ARG553  GLY616  TRP617  ASP618  TYR619  PRO620  LYS621  CYS622 
 ASP623  PHE694  ASN695  SER759  ASP760  ASP761  ALA762  ILE779  LEU786  VAL792 
 PHE793  MET794  SER795  GLU796  ALA797  LYS798  CYS799  TRP800  GLU811  SER814 

> <Gold.Protein.RotatedAtoms>
  151.0373  133.5737  159.2654 H   0  0  0  0  0  0  0  0  0  0  0  0  # atno 6907 bound_to 6896
  151.2797  135.0709  159.9174 H   0  0  0  0  0  0  0  0  0  0  0  0  # atno 6908 bound_to 6896
  152.5357  134.0089  159.7983 H   0  0  0  0  0  0  0  0  0  0  0  0  # atno 6909 bound_to 6896
  145.9754  140.7340  142.9390 H   0  0  0  0  0  0  0  0  0  0  0  0  # atno 7974 bound_to 7965
  155.1624  140.3284  155.4409 H   0  0  0  0  0  0  0  0  0  0  0  0  # atno 8008 bound_to 7997
  156.2538  140.1958  156.6681 H   0  0  0  0  0  0  0  0  0  0  0  0  # atno 8009 bound_to 7997
  154.6396  140.0572  156.9816 H   0  0  0  0  0  0  0  0  0  0  0  0  # atno 8010 bound_to 7997
  139.6249  144.7107  151.2555 H   0  0  0  0  0  0  0  0  0  0  0  0  # atno 10167 bound_to 10162
  156.0328  130.4368  150.2563 H   0  0  0  0  0  0  0  0  0  0  0  0  # atno 10718 bound_to 10713
  153.3335  135.6976  153.6927 H   0  0  0  0  0  0  0  0  0  0  0  0  # atno 10763 bound_to 10752
  153.5720  135.3514  155.2842 H   0  0  0  0  0  0  0  0  0  0  0  0  # atno 10764 bound_to 10752
  154.8623  135.4274  154.2530 H   0  0  0  0  0  0  0  0  0  0  0  0  # atno 10765 bound_to 10752
  140.8857  133.7623  156.0357 H   0  0  0  0  0  0  0  0  0  0  0  0  # atno 11005 bound_to 11000
  144.6847  140.2818  143.7291 LP  0  0  0  0  0  0  0  0  0  0  0  0  # atno 17320 bound_to 7965
  145.7847  139.1904  143.2137 LP  0  0  0  0  0  0  0  0  0  0  0  0  # atno 17321 bound_to 7965
  140.7405  143.6587  150.8184 LP  0  0  0  0  0  0  0  0  0  0  0  0  # atno 17342 bound_to 10162
  140.0203  143.5549  152.2803 LP  0  0  0  0  0  0  0  0  0  0  0  0  # atno 17343 bound_to 10162
  157.0665  131.0104  151.3205 LP  0  0  0  0  0  0  0  0  0  0  0  0  # atno 17370 bound_to 10713
  157.5032  130.7892  149.7626 LP  0  0  0  0  0  0  0  0  0  0  0  0  # atno 17371 bound_to 10713
  140.8408  134.3069  157.5314 LP  0  0  0  0  0  0  0  0  0  0  0  0  # atno 17394 bound_to 11000
  139.8724  134.9415  156.3798 LP  0  0  0  0  0  0  0  0  0  0  0  0  # atno 17395 bound_to 11000

$$$$
