AV-unprocessed.smi:1218|AV-procd|sdf|5109|dock5
  -GOLD-   22720 4163D 1   1.00000     0.00000
 Structure written by MMmdl.
 45 46  0  0  0  0  0  0  0  0  2 V2000
  149.0460  133.5646  153.6689 C   0  0  0  0  0  0  0  0  0  0  0  0
  149.4887  134.2521  154.9716 C   0  0  0  0  0  0  0  0  0  0  0  0
  149.2918  133.3100  156.1687 C   0  0  0  0  0  0  0  0  0  0  0  0
  148.7426  135.5843  155.2026 C   0  0  0  0  0  0  0  0  0  0  0  0
  149.4942  136.7689  154.7139 N   0  3  2  0  0  0  0  0  0  0  0  0
  150.8611  136.8829  155.2801 C   0  0  0  0  0  0  0  0  0  0  0  0
  151.5814  138.1113  154.7010 C   0  0  0  0  0  0  0  0  0  0  0  0
  150.8096  139.2773  154.9551 O   0  0  0  0  0  0  0  0  0  0  0  0
  149.5314  139.2243  154.3292 C   0  0  2  0  0  0  0  0  0  0  0  0
  148.8175  140.5654  154.5741 C   0  0  0  0  0  0  0  0  0  0  0  0
  148.8265  140.9219  155.9879 N   0  0  0  0  0  0  0  0  0  0  0  0
  149.8555  141.4955  156.6299 C   0  0  0  0  0  0  0  0  0  0  0  0
  150.9001  141.8322  156.0724 O   0  0  0  0  0  0  0  0  0  0  0  0
  149.6923  141.6967  158.1362 C   0  0  0  0  0  0  0  0  0  0  0  0
  150.7761  142.5038  158.6663 N   0  0  0  0  0  0  0  0  0  0  0  0
  151.1222  143.7974  158.3344 C   0  0  0  0  0  0  0  0  0  0  0  0
  152.2132  144.1309  159.0848 C   0  0  0  0  0  0  0  0  0  0  0  0
  152.4655  142.9608  159.8542 C   0  0  0  0  0  0  0  0  0  0  0  0
  151.6057  141.9875  159.6000 N   0  0  0  0  0  0  0  0  0  0  0  0
  148.7469  138.0338  154.9131 C   0  0  0  0  0  0  0  0  0  0  0  0
  147.9794  133.3373  153.6825 H   0  0  0  0  0  0  0  0  0  0  0  0
  149.5823  132.6269  153.5194 H   0  0  0  0  0  0  0  0  0  0  0  0
  149.2419  134.1914  152.7989 H   0  0  0  0  0  0  0  0  0  0  0  0
  150.5585  134.4465  154.9015 H   0  0  0  0  0  0  0  0  0  0  0  0
  148.2400  133.0568  156.3066 H   0  0  0  0  0  0  0  0  0  0  0  0
  149.6479  133.7680  157.0919 H   0  0  0  0  0  0  0  0  0  0  0  0
  149.8432  132.3790  156.0323 H   0  0  0  0  0  0  0  0  0  0  0  0
  147.7806  135.5296  154.6903 H   0  0  0  0  0  0  0  0  0  0  0  0
  148.5144  135.7191  156.2611 H   0  0  0  0  0  0  0  0  0  0  0  0
  150.8018  136.9658  156.3665 H   0  0  0  0  0  0  0  0  0  0  0  0
  151.4451  135.9903  155.0593 H   0  0  0  0  0  0  0  0  0  0  0  0
  152.5599  138.2273  155.1671 H   0  0  0  0  0  0  0  0  0  0  0  0
  151.7508  137.9975  153.6288 H   0  0  0  0  0  0  0  0  0  0  0  0
  149.6593  139.0754  153.2553 H   0  0  0  0  0  0  0  0  0  0  0  0
  149.2868  141.3598  153.9916 H   0  0  0  0  0  0  0  0  0  0  0  0
  147.7814  140.5069  154.2392 H   0  0  0  0  0  0  0  0  0  0  0  0
  148.0089  140.6753  156.5274 H   0  0  0  0  0  0  0  0  0  0  0  0
  148.7453  142.1975  158.3414 H   0  0  0  0  0  0  0  0  0  0  0  0
  149.6670  140.7364  158.6545 H   0  0  0  0  0  0  0  0  0  0  0  0
  150.5701  144.3650  157.5998 H   0  0  0  0  0  0  0  0  0  0  0  0
  152.7495  145.0683  159.0843 H   0  0  0  0  0  0  0  0  0  0  0  0
  153.2433  142.7908  160.5840 H   0  0  0  0  0  0  0  0  0  0  0  0
  147.7732  137.9644  154.4260 H   0  0  0  0  0  0  0  0  0  0  0  0
  148.5637  138.1859  155.9781 H   0  0  0  0  0  0  0  0  0  0  0  0
  149.5942  136.6547  153.7152 H   0  0  0  0  0  0  0  0  0  0  0  0
  1  2  1  0  0  0  0
  1 21  1  0  0  0  0
  1 22  1  0  0  0  0
  1 23  1  0  0  0  0
  2  3  1  0  0  0  0
  2  4  1  0  0  0  0
  2 24  1  0  0  0  0
  3 25  1  0  0  0  0
  3 26  1  0  0  0  0
  3 27  1  0  0  0  0
  4  5  1  0  0  0  0
  4 28  1  0  0  0  0
  4 29  1  0  0  0  0
  5 20  1  0  0  0  0
  5  6  1  0  0  0  0
  5 45  1  0  0  0  0
  6  7  1  0  0  0  0
  6 30  1  0  0  0  0
  6 31  1  0  0  0  0
  7  8  1  0  0  0  0
  7 32  1  0  0  0  0
  7 33  1  0  0  0  0
  8  9  1  0  0  0  0
  9 10  1  0  0  0  0
  9 20  1  0  0  0  0
  9 34  1  0  0  0  0
 10 11  1  0  0  0  0
 10 35  1  0  0  0  0
 10 36  1  0  0  0  0
 11 12  1  0  0  0  0
 11 37  1  0  0  0  0
 12 13  2  0  0  0  0
 12 14  1  0  0  0  0
 14 15  1  0  0  0  0
 14 38  1  0  0  0  0
 14 39  1  0  0  0  0
 15 19  1  0  0  0  0
 15 16  1  0  0  0  0
 16 17  2  0  0  0  0
 16 40  1  0  0  0  0
 17 18  1  0  0  0  0
 17 41  1  0  0  0  0
 18 19  2  0  0  0  0
 18 42  1  0  0  0  0
 20 43  1  0  0  0  0
 20 44  1  0  0  0  0
M  CHG  1   5   1
M  END
> <s_m_source_file>
AV-unprocessed.smi

> <i_m_source_file_index>
1218

> <i_lp_mmshare_version>
43012

> <i_f3d_flags>
0

> <s_epik_input>
W0NIM11bQ0hdKFtDSDNdKVtDSDJdTjFbQ0gyXVtDSDJdT1tDQEhdKFtDSDJdMSlbQ0gyXVtOSF1DKD1PKVtDSDJdbjJbY0hdW2NIXVtjSF1uMg==

> <s_epik_cmdline>
J2VwaWtfcHl0aG9uJywgJy1waCcsICc3LjAnLCAnLXRuJywgJzgnLCAnLW1hJywgJzIwMCcsICctbWV0YWxfYmluZGluZycsICctaW1hZScsICc8aW5maWxlLm1hZT4nLCAnLW9tYWUnLCAnPG91dGZpbGUubWFlPic=

> <r_lp_tautomer_probability>
1

> <r_epik_Ionization_Penalty>
0.0995066

> <r_epik_Ionization_Penalty_Charging>
0.0994921

> <r_epik_Ionization_Penalty_Neutral>
1.44634e-05

> <r_epik_State_Penalty>
0.0895432

> <r_epik_Charging_Adjusted_Penalty>
0.189035

> <i_epik_Tot_Q>
1

> <i_epik_Tot_abs_Q>
1

> <r_epik_Metal_State_Penalty>
0.0895432

> <b_epik_Metal_Only>
0

> <s_lp_Force_Field>
OPLS_2005

> <r_lp_Energy>
17.6202

> <b_lp_Chiralities_Consistent>
1

> <s_lp_Variant>
AV-unprocessed.smi:1218-4

> <Gold.Version>
5.8.1

> <Gold.Id.Protein>
6NUR|6NUR_protein|mol2

> <Gold.PLP.Fitness>
49.1759

> <Gold.PLP.PLP>
-38.6393

> <Gold.PLP.part.hbond>
-3.0000

> <Gold.PLP.part.metal>
0.0000

> <Gold.PLP.part.buried>
-0.4050

> <Gold.PLP.part.nonpolar>
-35.4921

> <Gold.PLP.part.repulsive>
0.2990

> <Gold.PLP.ligand.clash>
0.0000

> <Gold.PLP.ligand.torsion>
0.7866

> <Gold.PLP.Chemscore.Hbond>
3.0000

> <Gold.PLP.Chemscore.CHOScore>
1.0000

> <Gold.PLP.Chemscore.Metal>
0.0000

> <Gold.Chemscore.Hbonds>
donor molecule, donor type, donor heavy atom, donor atom, acceptor molecule, acceptor atom, score
      L1  H     5    45       P1  7948  2.00
      P1  H  7989  7998       L1     8  0.22
      L1  C    16    40       P1  8028  0.92

> <Gold.PLP.Chemscore.Internal.Correction>
0.1098

> <Gold.Rescore>
     Score         DG    S(hbond)    S(metal)    S(lipo)     H(rot)  DE(clash)    DE(int)     intcor
     13.37     -15.66       1.55        0.00      85.71       1.96       0.05       2.25       ----

> <Gold.Chemscore.Fitness>
13.3651

> <Gold.Chemscore.DG>
-15.6617

> <Gold.Chemscore.ZeroCoef>
-5.4800

> <Gold.Chemscore.Hbond>
1.5500

> <Gold.Chemscore.Metal>
0.0000

> <Gold.Chemscore.Lipo>
85.7127

> <Gold.Chemscore.Internal_Hbond>
0.0000

> <Gold.Chemscore.DEClash>
0.0470

> <Gold.Chemscore.DEInternal>
2.2497

> <Gold.Chemscore.Rot>
1.9624

> <Gold.Chemscore.Internal.Correction>
   9.000000E+99

> <Gold.Chemscore.Hbonds>
donor molecule, donor type, donor heavy atom, donor atom, acceptor molecule, acceptor atom, score
      L1  H     5    45       P1  7948  0.72
      P1  H  7989  7998       L1     8  0.01

> <Gold.Chemscore.Hbond.Weighted>
-5.1771

> <Gold.Chemscore.Metal.Weighted>
-0.0000

> <Gold.Chemscore.Lipo.Weighted>
-10.0284

> <Gold.Chemscore.Internal_Hbond.Weighted>
0.0000

> <Gold.Chemscore.DEClash.Weighted>
0.0470

> <Gold.Chemscore.DEInternal.Weighted>
2.2497

> <Gold.Chemscore.Rot.Weighted>
5.0237

> <Gold.Chemscore.Internal.Correction.Weighted>
   9.000000E+99

> <Gold.Protein.RotatedTorsions>
[ 6907 6896 6895 6894 ] final   64.26 input  -60.11 | X-H torsion
[ 7974 7965 7964 7962 ] final   14.09 input  175.53 | X-H torsion
[ 8008 7997 7996 7995 ] final  -74.44 input   59.86 | X-H torsion
[ 10167 10162 10161 10158 ] final   92.41 input  -65.29 | X-H torsion
[ 10718 10713 10712 10709 ] final    4.35 input   66.30 | X-H torsion
[ 10763 10752 10751 10750 ] final -174.07 input  -60.55 | X-H torsion
[ 11005 11000 10999 10996 ] final -154.82 input  -57.11 | X-H torsion

> <Gold.Protein.ActiveResidues>
 VAL166  LYS551  ARG553  GLY616  TRP617  ASP618  TYR619  PRO620  LYS621  CYS622 
 ASP623  PHE694  ASN695  SER759  ASP760  ASP761  ALA762  ILE779  LEU786  VAL792 
 PHE793  MET794  SER795  GLU796  ALA797  LYS798  CYS799  TRP800  GLU811  SER814 

> <Gold.Protein.RotatedAtoms>
  152.4318  134.5763  159.9935 H   0  0  0  0  0  0  0  0  0  0  0  0  # atno 6907 bound_to 6896
  151.5884  133.3363  159.3030 H   0  0  0  0  0  0  0  0  0  0  0  0  # atno 6908 bound_to 6896
  150.8212  134.7455  159.6838 H   0  0  0  0  0  0  0  0  0  0  0  0  # atno 6909 bound_to 6896
  146.2313  139.9092  142.8527 H   0  0  0  0  0  0  0  0  0  0  0  0  # atno 7974 bound_to 7965
  154.5331  140.0761  156.8380 H   0  0  0  0  0  0  0  0  0  0  0  0  # atno 8008 bound_to 7997
  155.3334  140.3403  155.4221 H   0  0  0  0  0  0  0  0  0  0  0  0  # atno 8009 bound_to 7997
  156.1801  140.1649  156.8277 H   0  0  0  0  0  0  0  0  0  0  0  0  # atno 8010 bound_to 7997
  139.8280  144.6700  150.9436 H   0  0  0  0  0  0  0  0  0  0  0  0  # atno 10167 bound_to 10162
  156.8913  130.5688  149.5650 H   0  0  0  0  0  0  0  0  0  0  0  0  # atno 10718 bound_to 10713
  154.6005  135.2854  155.0540 H   0  0  0  0  0  0  0  0  0  0  0  0  # atno 10763 bound_to 10752
  154.1807  135.6457  153.5037 H   0  0  0  0  0  0  0  0  0  0  0  0  # atno 10764 bound_to 10752
  153.0155  135.5423  154.6722 H   0  0  0  0  0  0  0  0  0  0  0  0  # atno 10765 bound_to 10752
  140.6931  134.4019  157.5217 H   0  0  0  0  0  0  0  0  0  0  0  0  # atno 11005 bound_to 11000
  145.2246  140.9949  143.4025 LP  0  0  0  0  0  0  0  0  0  0  0  0  # atno 17320 bound_to 7965
  144.9581  139.4009  143.6369 LP  0  0  0  0  0  0  0  0  0  0  0  0  # atno 17321 bound_to 7965
  140.7809  143.4028  151.1120 LP  0  0  0  0  0  0  0  0  0  0  0  0  # atno 17342 bound_to 10162
  139.7684  143.8531  152.3115 LP  0  0  0  0  0  0  0  0  0  0  0  0  # atno 17343 bound_to 10162
  156.0628  130.5677  150.9227 LP  0  0  0  0  0  0  0  0  0  0  0  0  # atno 17370 bound_to 10713
  157.6082  131.0938  150.8842 LP  0  0  0  0  0  0  0  0  0  0  0  0  # atno 17371 bound_to 10713
  139.8918  134.8772  156.2304 LP  0  0  0  0  0  0  0  0  0  0  0  0  # atno 17394 bound_to 11000
  141.0225  133.7033  156.1292 LP  0  0  0  0  0  0  0  0  0  0  0  0  # atno 17395 bound_to 11000

$$$$
