AV-unprocessed.smi:3301|AV-procd|sdf|12652|dock3
  -GOLD-   2272018583D 1   1.00000     0.00000
 Structure written by MMmdl.
 37 38  0  0  0  0  0  0  0  0  2 V2000
  148.9827  140.6125  157.3921 C   0  0  0  0  0  0  0  0  0  0  0  0
  149.0997  141.8508  156.4935 C   0  0  2  0  0  0  0  0  0  0  0  0
  149.6754  141.4837  155.1078 C   0  0  0  0  0  0  0  0  0  0  0  0
  148.8038  140.5895  154.3375 N   0  0  0  0  0  0  0  0  0  0  0  0
  147.5276  140.8430  153.9042 C   0  0  0  0  0  0  0  0  0  0  0  0
  147.1075  139.7169  153.2449 C   0  0  0  0  0  0  0  0  0  0  0  0
  148.1475  138.8279  153.2955 N   0  3  0  0  0  0  0  0  0  0  0  0
  149.1806  139.3628  153.9544 C   0  0  0  0  0  0  0  0  0  0  0  0
  149.9368  142.8461  157.1630 N   0  0  0  0  0  0  0  0  0  0  0  0
  151.1308  142.6104  157.7300 C   0  0  0  0  0  0  0  0  0  0  0  0
  151.6749  141.5052  157.7259 O   0  0  0  0  0  0  0  0  0  0  0  0
  151.8122  143.8105  158.3982 C   0  0  0  0  0  0  0  0  0  0  0  0
  152.1487  143.5590  159.8003 N   0  0  0  0  0  0  0  0  0  0  0  0
  151.7390  144.4896  160.8392 C   0  0  0  0  0  0  0  0  0  0  0  0
  152.1585  143.8312  162.1621 C   0  0  0  0  0  0  0  0  0  0  0  0
  153.0224  142.6237  161.7815 C   0  0  0  0  0  0  0  0  0  0  0  0
  152.8575  142.5269  160.2749 C   0  0  0  0  0  0  0  0  0  0  0  0
  153.3338  141.6079  159.6097 O   0  0  0  0  0  0  0  0  0  0  0  0
  148.3376  139.8592  156.9390 H   0  0  0  0  0  0  0  0  0  0  0  0
  148.5553  140.8692  158.3620 H   0  0  0  0  0  0  0  0  0  0  0  0
  149.9563  140.1537  157.5680 H   0  0  0  0  0  0  0  0  0  0  0  0
  148.0910  142.2469  156.3630 H   0  0  0  0  0  0  0  0  0  0  0  0
  149.8507  142.3811  154.5125 H   0  0  0  0  0  0  0  0  0  0  0  0
  150.6388  140.9836  155.2160 H   0  0  0  0  0  0  0  0  0  0  0  0
  147.0204  141.7764  154.1019 H   0  0  0  0  0  0  0  0  0  0  0  0
  146.1707  139.4880  152.7584 H   0  0  0  0  0  0  0  0  0  0  0  0
  150.1269  138.8910  154.1513 H   0  0  0  0  0  0  0  0  0  0  0  0
  149.5735  143.7874  157.2072 H   0  0  0  0  0  0  0  0  0  0  0  0
  152.7181  144.0481  157.8395 H   0  0  0  0  0  0  0  0  0  0  0  0
  151.1687  144.6900  158.3351 H   0  0  0  0  0  0  0  0  0  0  0  0
  152.2489  145.4431  160.6946 H   0  0  0  0  0  0  0  0  0  0  0  0
  150.6636  144.6687  160.8043 H   0  0  0  0  0  0  0  0  0  0  0  0
  152.7017  144.5302  162.7992 H   0  0  0  0  0  0  0  0  0  0  0  0
  151.2781  143.5018  162.7155 H   0  0  0  0  0  0  0  0  0  0  0  0
  154.0721  142.7901  162.0251 H   0  0  0  0  0  0  0  0  0  0  0  0
  152.6888  141.7094  162.2736 H   0  0  0  0  0  0  0  0  0  0  0  0
  148.1380  137.8982  152.8950 H   0  0  0  0  0  0  0  0  0  0  0  0
  1  2  1  0  0  0  0
  1 19  1  0  0  0  0
  1 20  1  0  0  0  0
  1 21  1  0  0  0  0
  2  3  1  0  0  0  0
  2  9  1  0  0  0  0
  2 22  1  0  0  0  0
  3  4  1  0  0  0  0
  3 23  1  0  0  0  0
  3 24  1  0  0  0  0
  4  8  1  0  0  0  0
  4  5  1  0  0  0  0
  5  6  2  0  0  0  0
  5 25  1  0  0  0  0
  6  7  1  0  0  0  0
  6 26  1  0  0  0  0
  7  8  2  0  0  0  0
  7 37  1  0  0  0  0
  8 27  1  0  0  0  0
  9 10  1  0  0  0  0
  9 28  1  0  0  0  0
 10 11  2  0  0  0  0
 10 12  1  0  0  0  0
 12 13  1  0  0  0  0
 12 29  1  0  0  0  0
 12 30  1  0  0  0  0
 13 17  1  0  0  0  0
 13 14  1  0  0  0  0
 14 15  1  0  0  0  0
 14 31  1  0  0  0  0
 14 32  1  0  0  0  0
 15 16  1  0  0  0  0
 15 33  1  0  0  0  0
 15 34  1  0  0  0  0
 16 17  1  0  0  0  0
 16 35  1  0  0  0  0
 16 36  1  0  0  0  0
 17 18  2  0  0  0  0
M  CHG  1   7   1
M  END
> <s_m_source_file>
AV-unprocessed.smi

> <i_m_source_file_index>
3301

> <i_lp_mmshare_version>
43012

> <i_f3d_flags>
0

> <s_epik_input>
W2NIXTFuW2NIXVtjSF1uMVtDSDJdW0NAQEhdKFtDSDNdKVtOSF1DKD1PKVtDSDJdTjJbQ0gyXVtDSDJdW0NIMl1DMj1P

> <s_epik_cmdline>
J2VwaWtfcHl0aG9uJywgJy1waCcsICc3LjAnLCAnLXRuJywgJzgnLCAnLW1hJywgJzIwMCcsICctbWV0YWxfYmluZGluZycsICctaW1hZScsICc8aW5maWxlLm1hZT4nLCAnLW9tYWUnLCAnPG91dGZpbGUubWFlPic=

> <r_lp_tautomer_probability>
1

> <r_epik_Ionization_Penalty>
0.254232

> <r_epik_Ionization_Penalty_Charging>
0

> <r_epik_Ionization_Penalty_Neutral>
0.254232

> <r_epik_State_Penalty>
0.245698

> <r_epik_Charging_Adjusted_Penalty>
0.245698

> <i_epik_Tot_Q>
1

> <i_epik_Tot_abs_Q>
1

> <r_epik_Metal_State_Penalty>
0.5358

> <b_epik_Metal_Only>
0

> <s_lp_Force_Field>
OPLS_2005

> <r_lp_Energy>
13.6599

> <b_lp_Chiralities_Consistent>
1

> <s_lp_Variant>
AV-unprocessed.smi:3301-1

> <Gold.Version>
5.8.1

> <Gold.Id.Protein>
6NUR|6NUR_protein|mol2

> <Gold.PLP.Fitness>
50.1352

> <Gold.PLP.PLP>
-42.9904

> <Gold.PLP.part.hbond>
-3.0000

> <Gold.PLP.part.metal>
0.0000

> <Gold.PLP.part.buried>
-1.3445

> <Gold.PLP.part.nonpolar>
-37.2469

> <Gold.PLP.part.repulsive>
0.0536

> <Gold.PLP.ligand.clash>
0.0000

> <Gold.PLP.ligand.torsion>
0.2372

> <Gold.PLP.Chemscore.Hbond>
2.5274

> <Gold.PLP.Chemscore.CHOScore>
0.0000

> <Gold.PLP.Chemscore.Metal>
0.0000

> <Gold.Chemscore.Hbonds>
donor molecule, donor type, donor heavy atom, donor atom, acceptor molecule, acceptor atom, score
      L1  H     7    37       P1  7948  1.59
      L1  H     9    28       P1  8028  0.48

> <Gold.PLP.Chemscore.Internal.Correction>
0.0370

> <Gold.Rescore>
     Score         DG    S(hbond)    S(metal)    S(lipo)     H(rot)  DE(clash)    DE(int)     intcor
      9.99     -13.45       1.50        0.00      76.70       2.35       0.29       3.18       ----

> <Gold.Chemscore.Fitness>
9.9865

> <Gold.Chemscore.DG>
-13.4541

> <Gold.Chemscore.ZeroCoef>
-5.4800

> <Gold.Chemscore.Hbond>
1.4996

> <Gold.Chemscore.Metal>
0.0000

> <Gold.Chemscore.Lipo>
76.6988

> <Gold.Chemscore.Internal_Hbond>
0.0000

> <Gold.Chemscore.DEClash>
0.2854

> <Gold.Chemscore.DEInternal>
3.1821

> <Gold.Chemscore.Rot>
2.3470

> <Gold.Chemscore.Internal.Correction>
   9.000000E+99

> <Gold.Chemscore.Hbonds>
donor molecule, donor type, donor heavy atom, donor atom, acceptor molecule, acceptor atom, score
      L1  H     7    37       P1  7948  0.77
      L1  H     9    28       P1  8028  0.36

> <Gold.Chemscore.Hbond.Weighted>
-5.0086

> <Gold.Chemscore.Metal.Weighted>
-0.0000

> <Gold.Chemscore.Lipo.Weighted>
-8.9738

> <Gold.Chemscore.Internal_Hbond.Weighted>
0.0000

> <Gold.Chemscore.DEClash.Weighted>
0.2854

> <Gold.Chemscore.DEInternal.Weighted>
3.1821

> <Gold.Chemscore.Rot.Weighted>
6.0083

> <Gold.Chemscore.Internal.Correction.Weighted>
   9.000000E+99

> <Gold.Protein.RotatedTorsions>
[ 6907 6896 6895 6894 ] final  113.71 input  -60.11 | X-H torsion
[ 7974 7965 7964 7962 ] final  118.27 input  175.53 | X-H torsion
[ 8008 7997 7996 7995 ] final -153.21 input   59.86 | X-H torsion
[ 10167 10162 10161 10158 ] final  161.41 input  -65.29 | X-H torsion
[ 10718 10713 10712 10709 ] final   50.05 input   66.30 | X-H torsion
[ 10763 10752 10751 10750 ] final -177.46 input  -60.55 | X-H torsion
[ 11005 11000 10999 10996 ] final  160.41 input  -57.11 | X-H torsion

> <Gold.Protein.ActiveResidues>
 VAL166  LYS551  ARG553  GLY616  TRP617  ASP618  TYR619  PRO620  LYS621  CYS622 
 ASP623  PHE694  ASN695  SER759  ASP760  ASP761  ALA762  ILE779  LEU786  VAL792 
 PHE793  MET794  SER795  GLU796  ALA797  LYS798  CYS799  TRP800  GLU811  SER814 

> <Gold.Protein.RotatedAtoms>
  152.4845  133.8337  159.7116 H   0  0  0  0  0  0  0  0  0  0  0  0  # atno 6907 bound_to 6896
  150.8920  133.7221  159.2909 H   0  0  0  0  0  0  0  0  0  0  0  0  # atno 6908 bound_to 6896
  151.4691  135.1048  159.9798 H   0  0  0  0  0  0  0  0  0  0  0  0  # atno 6909 bound_to 6896
  145.1572  139.3176  143.4536 H   0  0  0  0  0  0  0  0  0  0  0  0  # atno 7974 bound_to 7965
  155.6673  140.0729  157.2533 H   0  0  0  0  0  0  0  0  0  0  0  0  # atno 8008 bound_to 7997
  154.4130  140.1705  156.1892 H   0  0  0  0  0  0  0  0  0  0  0  0  # atno 8009 bound_to 7997
  155.9647  140.3367  155.6525 H   0  0  0  0  0  0  0  0  0  0  0  0  # atno 8010 bound_to 7997
  139.4849  144.4539  151.8794 H   0  0  0  0  0  0  0  0  0  0  0  0  # atno 10167 bound_to 10162
  157.4847  130.8337  149.8133 H   0  0  0  0  0  0  0  0  0  0  0  0  # atno 10718 bound_to 10713
  154.5598  135.2819  155.0930 H   0  0  0  0  0  0  0  0  0  0  0  0  # atno 10763 bound_to 10752
  154.2343  135.6368  153.5189 H   0  0  0  0  0  0  0  0  0  0  0  0  # atno 10764 bound_to 10752
  153.0026  135.5545  154.6189 H   0  0  0  0  0  0  0  0  0  0  0  0  # atno 10765 bound_to 10752
  140.2056  134.8305  157.3066 H   0  0  0  0  0  0  0  0  0  0  0  0  # atno 11005 bound_to 11000
  146.3487  140.1669  142.8590 LP  0  0  0  0  0  0  0  0  0  0  0  0  # atno 17320 bound_to 7965
  145.0368  140.8914  143.5076 LP  0  0  0  0  0  0  0  0  0  0  0  0  # atno 17321 bound_to 7965
  140.3997  144.2509  150.5894 LP  0  0  0  0  0  0  0  0  0  0  0  0  # atno 17342 bound_to 10162
  140.5069  143.2302  151.8595 LP  0  0  0  0  0  0  0  0  0  0  0  0  # atno 17343 bound_to 10162
  156.0140  130.3821  150.2170 LP  0  0  0  0  0  0  0  0  0  0  0  0  # atno 17370 bound_to 10713
  157.0357  131.0020  151.3299 LP  0  0  0  0  0  0  0  0  0  0  0  0  # atno 17371 bound_to 10713
  140.2006  134.4259  155.7665 LP  0  0  0  0  0  0  0  0  0  0  0  0  # atno 17394 bound_to 11000
  141.2227  133.7070  156.8177 LP  0  0  0  0  0  0  0  0  0  0  0  0  # atno 17395 bound_to 11000

$$$$
