AV-unprocessed.smi:1261|AV-procd|sdf|5306|dock7
  -GOLD-   22720 4433D 1   1.00000     0.00000
 Structure written by MMmdl.
 50 51  0  0  0  0  0  0  0  0  2 V2000
  145.8727  132.4399  149.7161 C   0  0  0  0  0  0  0  0  0  0  0  0
  146.3012  133.4529  150.7874 C   0  0  1  0  0  0  0  0  0  0  0  0
  145.0842  134.1354  151.4338 C   0  0  0  0  0  0  0  0  0  0  0  0
  145.5326  135.1285  152.5189 C   0  0  1  0  0  0  0  0  0  0  0  0
  144.3301  135.8063  153.1911 C   0  0  0  0  0  0  0  0  0  0  0  0
  146.4308  134.4191  153.5506 C   0  0  0  0  0  0  0  0  0  0  0  0
  147.6019  133.7774  152.8991 N   0  3  1  0  0  0  0  0  0  0  0  0
  148.5567  133.2162  153.8886 C   0  0  0  0  0  0  0  0  0  0  0  0
  148.6069  134.0375  155.1879 C   0  0  0  0  0  0  0  0  0  0  0  0
  147.5878  133.5469  156.2292 C   0  0  0  0  0  0  0  0  0  0  0  0
  147.5837  134.3998  157.4109 N   0  0  0  0  0  0  0  0  0  0  0  0
  148.6785  134.8916  158.0164 C   0  0  0  0  0  0  0  0  0  0  0  0
  149.8196  134.6445  157.6274 O   0  0  0  0  0  0  0  0  0  0  0  0
  148.4872  135.8100  159.2366 C   0  0  0  0  0  0  0  0  0  0  0  0
  147.8467  135.1758  160.4008 N   0  0  0  0  0  0  0  0  0  0  0  0
  147.6509  133.8095  160.2654 N   0  0  0  0  0  0  0  0  0  0  0  0
  147.1020  133.1386  161.2210 C   0  0  0  0  0  0  0  0  0  0  0  0
  146.9255  131.7881  161.0449 O   0  0  0  0  0  0  0  0  0  0  0  0
  146.6823  133.7858  162.4448 C   0  0  0  0  0  0  0  0  0  0  0  0
  146.8757  135.1173  162.5671 C   0  0  0  0  0  0  0  0  0  0  0  0
  147.4915  135.9091  161.5007 C   0  0  0  0  0  0  0  0  0  0  0  0
  147.6654  137.1250  161.5785 O   0  0  0  0  0  0  0  0  0  0  0  0
  147.1795  132.7926  151.8677 C   0  0  0  0  0  0  0  0  0  0  0  0
  146.2766  131.7054  160.3633 H   0  0  0  0  0  0  0  0  0  0  0  0
  145.2716  131.6376  150.1456 H   0  0  0  0  0  0  0  0  0  0  0  0
  146.7394  131.9851  149.2354 H   0  0  0  0  0  0  0  0  0  0  0  0
  145.2794  132.9198  148.9373 H   0  0  0  0  0  0  0  0  0  0  0  0
  146.8969  134.2214  150.2918 H   0  0  0  0  0  0  0  0  0  0  0  0
  144.5009  134.6550  150.6726 H   0  0  0  0  0  0  0  0  0  0  0  0
  144.4254  133.3826  151.8700 H   0  0  0  0  0  0  0  0  0  0  0  0
  146.1229  135.9107  152.0386 H   0  0  0  0  0  0  0  0  0  0  0  0
  143.6926  135.0778  153.6931 H   0  0  0  0  0  0  0  0  0  0  0  0
  143.7185  136.3353  152.4596 H   0  0  0  0  0  0  0  0  0  0  0  0
  144.6542  136.5340  153.9354 H   0  0  0  0  0  0  0  0  0  0  0  0
  146.7771  135.1494  154.2835 H   0  0  0  0  0  0  0  0  0  0  0  0
  145.8618  133.6656  154.0982 H   0  0  0  0  0  0  0  0  0  0  0  0
  148.2499  132.2018  154.1474 H   0  0  0  0  0  0  0  0  0  0  0  0
  149.5491  133.1327  153.4424 H   0  0  0  0  0  0  0  0  0  0  0  0
  149.6053  133.9945  155.6222 H   0  0  0  0  0  0  0  0  0  0  0  0
  148.4144  135.0872  154.9617 H   0  0  0  0  0  0  0  0  0  0  0  0
  146.5843  133.5569  155.8028 H   0  0  0  0  0  0  0  0  0  0  0  0
  147.7951  132.5136  156.5132 H   0  0  0  0  0  0  0  0  0  0  0  0
  146.6828  134.6456  157.7953 H   0  0  0  0  0  0  0  0  0  0  0  0
  149.4683  136.1959  159.5190 H   0  0  0  0  0  0  0  0  0  0  0  0
  147.9140  136.6857  158.9267 H   0  0  0  0  0  0  0  0  0  0  0  0
  146.2266  133.2107  163.2375 H   0  0  0  0  0  0  0  0  0  0  0  0
  146.5680  135.6133  163.4760 H   0  0  0  0  0  0  0  0  0  0  0  0
  146.6391  131.9742  152.3467 H   0  0  0  0  0  0  0  0  0  0  0  0
  148.0534  132.3524  151.3889 H   0  0  0  0  0  0  0  0  0  0  0  0
  148.0930  134.5170  152.4173 H   0  0  0  0  0  0  0  0  0  0  0  0
  1  2  1  0  0  0  0
  1 25  1  0  0  0  0
  1 26  1  0  0  0  0
  1 27  1  0  0  0  0
  2 23  1  0  0  0  0
  2  3  1  0  0  0  0
  2 28  1  0  0  0  0
  3  4  1  0  0  0  0
  3 29  1  0  0  0  0
  3 30  1  0  0  0  0
  4  5  1  0  0  0  0
  4  6  1  0  0  0  0
  4 31  1  0  0  0  0
  5 32  1  0  0  0  0
  5 33  1  0  0  0  0
  5 34  1  0  0  0  0
  6  7  1  0  0  0  0
  6 35  1  0  0  0  0
  6 36  1  0  0  0  0
  7  8  1  0  0  0  0
  7 23  1  0  0  0  0
  7 50  1  0  0  0  0
  8  9  1  0  0  0  0
  8 37  1  0  0  0  0
  8 38  1  0  0  0  0
  9 10  1  0  0  0  0
  9 39  1  0  0  0  0
  9 40  1  0  0  0  0
 10 11  1  0  0  0  0
 10 41  1  0  0  0  0
 10 42  1  0  0  0  0
 11 12  1  0  0  0  0
 11 43  1  0  0  0  0
 12 13  2  0  0  0  0
 12 14  1  0  0  0  0
 14 44  1  0  0  0  0
 14 45  1  0  0  0  0
 14 15  1  0  0  0  0
 15 16  1  0  0  0  0
 15 21  1  0  0  0  0
 16 17  2  0  0  0  0
 17 18  1  0  0  0  0
 17 19  1  0  0  0  0
 18 24  1  0  0  0  0
 19 46  1  0  0  0  0
 19 20  2  0  0  0  0
 20 47  1  0  0  0  0
 20 21  1  0  0  0  0
 21 22  2  0  0  0  0
 23 48  1  0  0  0  0
 23 49  1  0  0  0  0
M  CHG  1   7   1
M  END
> <s_m_source_file>
AV-unprocessed.smi

> <i_m_source_file_index>
1261

> <i_lp_mmshare_version>
43012

> <i_f3d_flags>
0

> <s_epik_input>
W0NIM11bQ0BASF0xW0NIMl1bQ0BASF0oW0NIM10pW0NIMl1OKFtDSDJdMSlbQ0gyXVtDSDJdW0NIMl1bTkhdQyg9TylbQ0gyXW4yW25IXWMoPU8pW2NIXVtjSF1jMj1P

> <s_epik_cmdline>
J2VwaWtfcHl0aG9uJywgJy1waCcsICc3LjAnLCAnLXRuJywgJzgnLCAnLW1hJywgJzIwMCcsICctbWV0YWxfYmluZGluZycsICctaW1hZScsICc8aW5maWxlLm1hZT4nLCAnLW9tYWUnLCAnPG91dGZpbGUubWFlPic=

> <r_lp_tautomer_probability>
0.9996

> <r_epik_Ionization_Penalty>
2.1425

> <r_epik_Ionization_Penalty_Charging>
0.000312112

> <r_epik_Ionization_Penalty_Neutral>
2.14218

> <r_epik_State_Penalty>
1.71978

> <r_epik_Charging_Adjusted_Penalty>
1.72009

> <i_epik_Tot_Q>
1

> <i_epik_Tot_abs_Q>
1

> <r_epik_Metal_State_Penalty>
1.71978

> <b_epik_Metal_Only>
0

> <s_lp_Force_Field>
OPLS_2005

> <r_lp_Energy>
26.9224

> <b_lp_Chiralities_Consistent>
1

> <s_lp_Variant>
AV-unprocessed.smi:1261-6

> <Gold.Version>
5.8.1

> <Gold.Id.Protein>
6NUR|6NUR_protein|mol2

> <Gold.PLP.Fitness>
50.1588

> <Gold.PLP.PLP>
-37.8653

> <Gold.PLP.part.hbond>
-4.0000

> <Gold.PLP.part.metal>
0.0000

> <Gold.PLP.part.buried>
-3.5357

> <Gold.PLP.part.nonpolar>
-30.6093

> <Gold.PLP.part.repulsive>
0.0204

> <Gold.PLP.ligand.clash>
0.0030

> <Gold.PLP.ligand.torsion>
0.6206

> <Gold.PLP.Chemscore.Hbond>
4.4920

> <Gold.PLP.Chemscore.CHOScore>
0.0000

> <Gold.PLP.Chemscore.Metal>
0.0000

> <Gold.Chemscore.Hbonds>
donor molecule, donor type, donor heavy atom, donor atom, acceptor molecule, acceptor atom, score
      L1  H     7    50       P1  7948  2.00
      P1  H  6896  6909       L1    13  0.90
      P1  H  6931  6943       L1    22  1.00
      P1  H  6934  6947       L1    22  0.72

> <Gold.PLP.Chemscore.Internal.Correction>
0.0616

> <Gold.Rescore>
     Score         DG    S(hbond)    S(metal)    S(lipo)     H(rot)  DE(clash)    DE(int)     intcor
     10.60     -14.57       2.64        0.00      70.79       3.14       0.03       3.94       ----

> <Gold.Chemscore.Fitness>
10.5972

> <Gold.Chemscore.DG>
-14.5654

> <Gold.Chemscore.ZeroCoef>
-5.4800

> <Gold.Chemscore.Hbond>
2.6433

> <Gold.Chemscore.Metal>
0.0000

> <Gold.Chemscore.Lipo>
70.7933

> <Gold.Chemscore.Internal_Hbond>
0.0000

> <Gold.Chemscore.DEClash>
0.0276

> <Gold.Chemscore.DEInternal>
3.9406

> <Gold.Chemscore.Rot>
3.1352

> <Gold.Chemscore.Internal.Correction>
   9.000000E+99

> <Gold.Chemscore.Hbonds>
donor molecule, donor type, donor heavy atom, donor atom, acceptor molecule, acceptor atom, score
      L1  H     7    50       P1  7948  0.30
      P1  H  6896  6909       L1    13  0.19
      P1  H  6931  6943       L1    22  0.96
      P1  H  6934  6947       L1    22  0.70

> <Gold.Chemscore.Hbond.Weighted>
-8.8287

> <Gold.Chemscore.Metal.Weighted>
-0.0000

> <Gold.Chemscore.Lipo.Weighted>
-8.2828

> <Gold.Chemscore.Internal_Hbond.Weighted>
0.0000

> <Gold.Chemscore.DEClash.Weighted>
0.0276

> <Gold.Chemscore.DEInternal.Weighted>
3.9406

> <Gold.Chemscore.Rot.Weighted>
8.0260

> <Gold.Chemscore.Internal.Correction.Weighted>
   9.000000E+99

> <Gold.Protein.RotatedTorsions>
[ 6907 6896 6895 6894 ] final   26.86 input  -60.11 | X-H torsion
[ 7974 7965 7964 7962 ] final   -5.58 input  175.53 | X-H torsion
[ 8008 7997 7996 7995 ] final  -91.53 input   59.86 | X-H torsion
[ 10167 10162 10161 10158 ] final  -94.00 input  -65.29 | X-H torsion
[ 10718 10713 10712 10709 ] final   85.94 input   66.30 | X-H torsion
[ 10763 10752 10751 10750 ] final -156.35 input  -60.55 | X-H torsion
[ 11005 11000 10999 10996 ] final  -22.71 input  -57.11 | X-H torsion

> <Gold.Protein.ActiveResidues>
 VAL166  LYS551  ARG553  GLY616  TRP617  ASP618  TYR619  PRO620  LYS621  CYS622 
 ASP623  PHE694  ASN695  SER759  ASP760  ASP761  ALA762  ILE779  LEU786  VAL792 
 PHE793  MET794  SER795  GLU796  ALA797  LYS798  CYS799  TRP800  GLU811  SER814 

> <Gold.Protein.RotatedAtoms>
  151.9938  134.9965  160.0562 H   0  0  0  0  0  0  0  0  0  0  0  0  # atno 6907 bound_to 6896
  152.1584  133.4561  159.4857 H   0  0  0  0  0  0  0  0  0  0  0  0  # atno 6908 bound_to 6896
  150.6884  134.2020  159.4369 H   0  0  0  0  0  0  0  0  0  0  0  0  # atno 6909 bound_to 6896
  146.2349  140.2043  142.8334 H   0  0  0  0  0  0  0  0  0  0  0  0  # atno 7974 bound_to 7965
  154.7119  140.0518  157.0558 H   0  0  0  0  0  0  0  0  0  0  0  0  # atno 8008 bound_to 7997
  155.0543  140.3182  155.4662 H   0  0  0  0  0  0  0  0  0  0  0  0  # atno 8009 bound_to 7997
  156.2792  140.2110  156.5669 H   0  0  0  0  0  0  0  0  0  0  0  0  # atno 8010 bound_to 7997
  140.3189  143.3061  152.0068 H   0  0  0  0  0  0  0  0  0  0  0  0  # atno 10167 bound_to 10162
  157.6922  131.0195  150.2897 H   0  0  0  0  0  0  0  0  0  0  0  0  # atno 10718 bound_to 10713
  154.7719  135.3148  154.8171 H   0  0  0  0  0  0  0  0  0  0  0  0  # atno 10763 bound_to 10752
  153.8904  135.6826  153.4765 H   0  0  0  0  0  0  0  0  0  0  0  0  # atno 10764 bound_to 10752
  153.1335  135.4770  154.9321 H   0  0  0  0  0  0  0  0  0  0  0  0  # atno 10765 bound_to 10752
  140.8683  133.7739  156.0156 H   0  0  0  0  0  0  0  0  0  0  0  0  # atno 11005 bound_to 11000
  144.9757  140.8411  143.5428 LP  0  0  0  0  0  0  0  0  0  0  0  0  # atno 17320 bound_to 7965
  145.2030  139.2242  143.5183 LP  0  0  0  0  0  0  0  0  0  0  0  0  # atno 17321 bound_to 7965
  139.4878  144.6327  151.7038 LP  0  0  0  0  0  0  0  0  0  0  0  0  # atno 17342 bound_to 10162
  140.5502  144.0438  150.6123 LP  0  0  0  0  0  0  0  0  0  0  0  0  # atno 17343 bound_to 10162
  156.3430  130.3818  149.7392 LP  0  0  0  0  0  0  0  0  0  0  0  0  # atno 17370 bound_to 10713
  156.4895  130.8078  151.3089 LP  0  0  0  0  0  0  0  0  0  0  0  0  # atno 17371 bound_to 10713
  140.8603  134.2848  157.5237 LP  0  0  0  0  0  0  0  0  0  0  0  0  # atno 17394 bound_to 11000
  139.8710  134.9515  156.4086 LP  0  0  0  0  0  0  0  0  0  0  0  0  # atno 17395 bound_to 11000

$$$$
