AV-unprocessed.smi:513|AV-procd|sdf|2775|dock2
  -GOLD-   2262023243D 1   1.00000     0.00000
 Structure written by MMmdl.
 41 43  0  0  0  0  0  0  0  0  2 V2000
  151.6019  137.6667  154.1544 C   0  0  0  0  0  0  0  0  0  0  0  0
  152.6676  138.1659  154.9417 O   0  0  0  0  0  0  0  0  0  0  0  0
  152.3940  139.4477  155.4828 C   0  0  0  0  0  0  0  0  0  0  0  0
  151.0130  139.4591  156.1553 C   0  0  0  0  0  0  0  0  0  0  0  0
  150.7920  140.6679  156.9449 N   0  0  0  0  0  0  0  0  0  0  0  0
  149.7924  141.5721  156.7939 C   0  0  0  0  0  0  0  0  0  0  0  0
  148.8234  141.4047  155.8115 N   0  0  0  0  0  0  0  0  0  0  0  0
  147.4644  141.9269  155.8969 C   0  0  0  0  0  0  0  0  0  0  0  0
  146.4391  140.9016  155.3753 C   0  0  0  0  0  0  0  0  0  0  0  0
  146.7272  140.5825  153.9813 N   0  0  0  0  0  0  0  0  0  0  0  0
  148.0693  140.0162  153.9062 C   0  0  0  0  0  0  0  0  0  0  0  0
  149.0980  141.0395  154.4267 C   0  0  0  0  0  0  0  0  0  0  0  0
  149.8201  142.5965  157.6467 N   0  0  0  0  0  0  0  0  0  0  0  0
  150.9441  142.3182  158.4113 C   0  0  0  0  0  0  0  0  0  0  0  0
  151.5477  141.1668  158.0102 C   0  0  0  0  0  0  0  0  0  0  0  0
  152.7716  140.6204  158.6357 C   0  0  0  0  0  0  0  0  0  0  0  0
  153.2788  139.5748  158.2353 O   0  0  0  0  0  0  0  0  0  0  0  0
  153.2219  141.4095  159.6623 N   0  5  0  0  0  0  0  0  0  0  0  0
  152.6417  142.5806  160.1018 C   0  0  0  0  0  0  0  0  0  0  0  0
  153.1210  143.2253  161.0349 O   0  0  0  0  0  0  0  0  0  0  0  0
  151.5048  143.0476  159.4927 N   0  0  0  0  0  0  0  0  0  0  0  0
  150.8244  144.2798  159.9034 C   0  0  0  0  0  0  0  0  0  0  0  0
  151.8622  136.6804  153.7702 H   0  0  0  0  0  0  0  0  0  0  0  0
  151.4032  138.3188  153.3030 H   0  0  0  0  0  0  0  0  0  0  0  0
  150.6888  137.5684  154.7426 H   0  0  0  0  0  0  0  0  0  0  0  0
  153.1629  139.7094  156.2101 H   0  0  0  0  0  0  0  0  0  0  0  0
  152.4249  140.1996  154.6932 H   0  0  0  0  0  0  0  0  0  0  0  0
  150.2338  139.3822  155.3972 H   0  0  0  0  0  0  0  0  0  0  0  0
  150.8848  138.5818  156.7863 H   0  0  0  0  0  0  0  0  0  0  0  0
  147.2415  142.1739  156.9354 H   0  0  0  0  0  0  0  0  0  0  0  0
  147.3976  142.8578  155.3321 H   0  0  0  0  0  0  0  0  0  0  0  0
  146.4575  139.9925  155.9779 H   0  0  0  0  0  0  0  0  0  0  0  0
  145.4313  141.3117  155.4437 H   0  0  0  0  0  0  0  0  0  0  0  0
  146.0554  139.9088  153.6424 H   0  0  0  0  0  0  0  0  0  0  0  0
  148.1140  139.0912  154.4825 H   0  0  0  0  0  0  0  0  0  0  0  0
  148.2873  139.7594  152.8695 H   0  0  0  0  0  0  0  0  0  0  0  0
  149.0930  141.9375  153.8073 H   0  0  0  0  0  0  0  0  0  0  0  0
  150.1021  140.6191  154.3599 H   0  0  0  0  0  0  0  0  0  0  0  0
  151.2881  144.7919  160.7468 H   0  0  0  0  0  0  0  0  0  0  0  0
  149.7952  144.0573  160.1864 H   0  0  0  0  0  0  0  0  0  0  0  0
  150.7979  144.9831  159.0706 H   0  0  0  0  0  0  0  0  0  0  0  0
  1  2  1  0  0  0  0
  1 23  1  0  0  0  0
  1 24  1  0  0  0  0
  1 25  1  0  0  0  0
  2  3  1  0  0  0  0
  3  4  1  0  0  0  0
  3 26  1  0  0  0  0
  3 27  1  0  0  0  0
  4  5  1  0  0  0  0
  4 28  1  0  0  0  0
  4 29  1  0  0  0  0
  5 15  1  0  0  0  0
  5  6  1  0  0  0  0
  6  7  1  0  0  0  0
  6 13  2  0  0  0  0
  7 12  1  0  0  0  0
  7  8  1  0  0  0  0
  8  9  1  0  0  0  0
  8 30  1  0  0  0  0
  8 31  1  0  0  0  0
  9 10  1  0  0  0  0
  9 32  1  0  0  0  0
  9 33  1  0  0  0  0
 10 11  1  0  0  0  0
 10 34  1  0  0  0  0
 11 12  1  0  0  0  0
 11 35  1  0  0  0  0
 11 36  1  0  0  0  0
 12 37  1  0  0  0  0
 12 38  1  0  0  0  0
 13 14  1  0  0  0  0
 14 21  1  0  0  0  0
 14 15  2  0  0  0  0
 15 16  1  0  0  0  0
 16 17  2  0  0  0  0
 16 18  1  0  0  0  0
 18 19  1  0  0  0  0
 19 20  2  0  0  0  0
 19 21  1  0  0  0  0
 21 22  1  0  0  0  0
 22 39  1  0  0  0  0
 22 40  1  0  0  0  0
 22 41  1  0  0  0  0
M  CHG  1  18  -1
M  END
> <s_m_source_file>
AV-unprocessed.smi

> <i_m_source_file_index>
513

> <i_lp_mmshare_version>
43012

> <i_f3d_flags>
0

> <s_epik_input>
W0NIM11uMWMoPU8pW25IXWMoPU8pYyhjMTIpbihbQ0gyXVtDSDJdT1tDSDNdKWMobjIpTjNbQ0gyXVtDSDJdW05IXVtDSDJdW0NIMl0z

> <s_epik_cmdline>
J2VwaWtfcHl0aG9uJywgJy1waCcsICc3LjAnLCAnLXRuJywgJzgnLCAnLW1hJywgJzIwMCcsICctbWV0YWxfYmluZGluZycsICctaW1hZScsICc8aW5maWxlLm1hZT4nLCAnLW9tYWUnLCAnPG91dGZpbGUubWFlPic=

> <r_epik_Ionization_Penalty>
8.82084

> <r_epik_Ionization_Penalty_Charging>
0.08198

> <r_epik_Ionization_Penalty_Neutral>
8.73886

> <r_epik_State_Penalty>
8.90453

> <r_epik_Charging_Adjusted_Penalty>
8.98651

> <i_epik_Tot_Q>
-1

> <i_epik_Tot_abs_Q>
1

> <r_epik_Metal_State_Penalty>
4.85612

> <b_epik_Metal_Only>
1

> <s_lp_Force_Field>
OPLS_2005

> <r_lp_Energy>
54.8501

> <b_lp_Chiralities_Consistent>
1

> <s_lp_Variant>
AV-unprocessed.smi:513-4

> <Gold.Version>
5.8.1

> <Gold.Id.Protein>
6NUR|6NUR_protein|mol2

> <Gold.PLP.Fitness>
37.1466

> <Gold.PLP.PLP>
-34.3436

> <Gold.PLP.part.hbond>
-1.2878

> <Gold.PLP.part.metal>
0.0000

> <Gold.PLP.part.buried>
-2.5448

> <Gold.PLP.part.nonpolar>
-31.2486

> <Gold.PLP.part.repulsive>
0.9333

> <Gold.PLP.ligand.clash>
0.0000

> <Gold.PLP.ligand.torsion>
0.6039

> <Gold.PLP.Chemscore.Hbond>
1.0000

> <Gold.PLP.Chemscore.CHOScore>
0.0000

> <Gold.PLP.Chemscore.Metal>
0.0000

> <Gold.Chemscore.Hbonds>
donor molecule, donor type, donor heavy atom, donor atom, acceptor molecule, acceptor atom, score
      P1  H  7997  8008       L1    17  1.00

> <Gold.PLP.Chemscore.Internal.Correction>
1.0107

> <Gold.Rescore>
     Score         DG    S(hbond)    S(metal)    S(lipo)     H(rot)  DE(clash)    DE(int)     intcor
      9.63     -11.31       0.94        0.00      56.56       1.53       0.07       1.62       ----

> <Gold.Chemscore.Fitness>
9.6285

> <Gold.Chemscore.DG>
-11.3108

> <Gold.Chemscore.ZeroCoef>
-5.4800

> <Gold.Chemscore.Hbond>
0.9407

> <Gold.Chemscore.Metal>
0.0000

> <Gold.Chemscore.Lipo>
56.5619

> <Gold.Chemscore.Internal_Hbond>
0.0000

> <Gold.Chemscore.DEClash>
0.0669

> <Gold.Chemscore.DEInternal>
1.6153

> <Gold.Chemscore.Rot>
1.5348

> <Gold.Chemscore.Internal.Correction>
   9.000000E+99

> <Gold.Chemscore.Hbonds>
donor molecule, donor type, donor heavy atom, donor atom, acceptor molecule, acceptor atom, score
      P1  H  7997  8008       L1    17  0.65

> <Gold.Chemscore.Hbond.Weighted>
-3.1420

> <Gold.Chemscore.Metal.Weighted>
-0.0000

> <Gold.Chemscore.Lipo.Weighted>
-6.6177

> <Gold.Chemscore.Internal_Hbond.Weighted>
0.0000

> <Gold.Chemscore.DEClash.Weighted>
0.0669

> <Gold.Chemscore.DEInternal.Weighted>
1.6153

> <Gold.Chemscore.Rot.Weighted>
3.9290

> <Gold.Chemscore.Internal.Correction.Weighted>
   9.000000E+99

> <Gold.Protein.RotatedTorsions>
[ 6907 6896 6895 6894 ] final   17.30 input  -60.11 | X-H torsion
[ 7974 7965 7964 7962 ] final -153.42 input  175.53 | X-H torsion
[ 8008 7997 7996 7995 ] final  -95.38 input   59.86 | X-H torsion
[ 10167 10162 10161 10158 ] final  -99.66 input  -65.29 | X-H torsion
[ 10718 10713 10712 10709 ] final  147.54 input   66.30 | X-H torsion
[ 10763 10752 10751 10750 ] final  -24.33 input  -60.55 | X-H torsion
[ 11005 11000 10999 10996 ] final  110.54 input  -57.11 | X-H torsion

> <Gold.Protein.ActiveResidues>
 VAL166  LYS551  ARG553  GLY616  TRP617  ASP618  TYR619  PRO620  LYS621  CYS622 
 ASP623  PHE694  ASN695  SER759  ASP760  ASP761  ALA762  ILE779  LEU786  VAL792 
 PHE793  MET794  SER795  GLU796  ALA797  LYS798  CYS799  TRP800  GLU811  SER814 

> <Gold.Protein.RotatedAtoms>
  151.8474  135.0569  160.0454 H   0  0  0  0  0  0  0  0  0  0  0  0  # atno 6907 bound_to 6896
  152.2762  133.5424  159.5478 H   0  0  0  0  0  0  0  0  0  0  0  0  # atno 6908 bound_to 6896
  150.7171  134.0544  159.3852 H   0  0  0  0  0  0  0  0  0  0  0  0  # atno 6909 bound_to 6896
  144.7741  140.4528  143.5886 H   0  0  0  0  0  0  0  0  0  0  0  0  # atno 7974 bound_to 7965
  154.7606  140.0480  157.0970 H   0  0  0  0  0  0  0  0  0  0  0  0  # atno 8008 bound_to 7997
  154.9942  140.3117  155.4874 H   0  0  0  0  0  0  0  0  0  0  0  0  # atno 8009 bound_to 7997
  156.2903  140.2213  156.5049 H   0  0  0  0  0  0  0  0  0  0  0  0  # atno 8010 bound_to 7997
  140.2601  143.3413  152.0634 H   0  0  0  0  0  0  0  0  0  0  0  0  # atno 10167 bound_to 10162
  157.3196  131.0902  151.1251 H   0  0  0  0  0  0  0  0  0  0  0  0  # atno 10718 bound_to 10713
  153.6821  135.6966  153.5115 H   0  0  0  0  0  0  0  0  0  0  0  0  # atno 10763 bound_to 10752
  153.2477  135.4285  155.0764 H   0  0  0  0  0  0  0  0  0  0  0  0  # atno 10764 bound_to 10752
  154.8397  135.3523  154.6364 H   0  0  0  0  0  0  0  0  0  0  0  0  # atno 10765 bound_to 10752
  139.8884  134.9486  156.6295 H   0  0  0  0  0  0  0  0  0  0  0  0  # atno 11005 bound_to 11000
  145.6236  139.1527  143.3009 LP  0  0  0  0  0  0  0  0  0  0  0  0  # atno 17320 bound_to 7965
  146.1909  140.6344  142.9146 LP  0  0  0  0  0  0  0  0  0  0  0  0  # atno 17321 bound_to 7965
  139.5019  144.6724  151.6210 LP  0  0  0  0  0  0  0  0  0  0  0  0  # atno 17342 bound_to 10162
  140.5973  143.9673  150.6363 LP  0  0  0  0  0  0  0  0  0  0  0  0  # atno 17343 bound_to 10162
  157.2541  130.6628  149.5944 LP  0  0  0  0  0  0  0  0  0  0  0  0  # atno 17370 bound_to 10713
  155.9684  130.4529  150.5792 LP  0  0  0  0  0  0  0  0  0  0  0  0  # atno 17371 bound_to 10713
  140.7677  133.8764  155.8467 LP  0  0  0  0  0  0  0  0  0  0  0  0  # atno 17394 bound_to 11000
  140.9868  134.1332  157.4444 LP  0  0  0  0  0  0  0  0  0  0  0  0  # atno 17395 bound_to 11000

$$$$
