AV-unprocessed.smi:3031|AV-procd|sdf|11542|dock6
  -GOLD-   2272016493D 1   1.00000     0.00000
 Structure written by MMmdl.
 47 48  0  0  0  0  0  0  0  0  2 V2000
  144.2947  132.5349  149.5640 C   0  0  0  0  0  0  0  0  0  0  0  0
  144.4405  133.6032  150.6088 C   0  0  0  0  0  0  0  0  0  0  0  0
  143.9902  133.5750  151.9595 C   0  0  0  0  0  0  0  0  0  0  0  0
  144.2855  134.6815  152.6227 N   0  0  0  0  0  0  0  0  0  0  0  0
  144.9313  135.4522  151.7216 N   0  0  0  0  0  0  0  0  0  0  0  0
  145.4340  136.7561  152.1147 C   0  0  0  0  0  0  0  0  0  0  0  0
  145.3964  136.9801  153.6428 C   0  0  1  0  0  0  0  0  0  0  0  0
  146.2823  135.9535  154.3612 C   0  0  0  0  0  0  0  0  0  0  0  0
  145.8432  138.3468  153.9981 N   0  3  0  0  0  0  0  0  0  0  0  0
  147.2784  138.6200  153.7669 C   0  0  0  0  0  0  0  0  0  0  0  0
  147.6162  140.0950  154.0423 C   0  0  2  0  0  0  0  0  0  0  0  0
  146.8713  140.8764  153.1290 O   0  0  0  0  0  0  0  0  0  0  0  0
  149.1004  140.4813  153.8550 C   0  0  0  0  0  0  0  0  0  0  0  0
  150.0296  139.9283  154.8456 N   0  0  0  0  0  0  0  0  0  0  0  0
  151.0017  139.0060  154.2557 C   0  0  0  0  0  0  0  0  0  0  0  0
  151.9718  138.4432  155.3087 C   0  0  0  0  0  0  0  0  0  0  0  0
  152.6436  139.5163  155.9584 O   0  0  0  0  0  0  0  0  0  0  0  0
  151.7447  140.4298  156.5777 C   0  0  0  0  0  0  0  0  0  0  0  0
  150.7712  140.9882  155.5249 C   0  0  0  0  0  0  0  0  0  0  0  0
  145.0339  134.8286  150.4966 C   0  0  0  0  0  0  0  0  0  0  0  0
  143.6823  131.7042  149.9150 H   0  0  0  0  0  0  0  0  0  0  0  0
  145.2612  132.1217  149.2756 H   0  0  0  0  0  0  0  0  0  0  0  0
  143.8255  132.9190  148.6584 H   0  0  0  0  0  0  0  0  0  0  0  0
  143.4648  132.7849  152.4757 H   0  0  0  0  0  0  0  0  0  0  0  0
  146.4595  136.8368  151.7517 H   0  0  0  0  0  0  0  0  0  0  0  0
  144.8629  137.5299  151.5985 H   0  0  0  0  0  0  0  0  0  0  0  0
  144.3763  136.8325  154.0015 H   0  0  0  0  0  0  0  0  0  0  0  0
  145.9577  134.9352  154.1451 H   0  0  0  0  0  0  0  0  0  0  0  0
  146.2407  136.0871  155.4428 H   0  0  0  0  0  0  0  0  0  0  0  0
  147.3249  136.0419  154.0539 H   0  0  0  0  0  0  0  0  0  0  0  0
  145.3215  139.0084  153.4409 H   0  0  0  0  0  0  0  0  0  0  0  0
  147.8437  137.9851  154.4398 H   0  0  0  0  0  0  0  0  0  0  0  0
  147.5531  138.3373  152.7498 H   0  0  0  0  0  0  0  0  0  0  0  0
  147.3023  140.3646  155.0518 H   0  0  0  0  0  0  0  0  0  0  0  0
  145.9784  140.5651  153.1250 H   0  0  0  0  0  0  0  0  0  0  0  0
  149.4363  140.2508  152.8427 H   0  0  0  0  0  0  0  0  0  0  0  0
  149.1383  141.5701  153.9223 H   0  0  0  0  0  0  0  0  0  0  0  0
  150.5099  138.1742  153.7608 H   0  0  0  0  0  0  0  0  0  0  0  0
  151.5766  139.5208  153.4840 H   0  0  0  0  0  0  0  0  0  0  0  0
  151.4376  137.8404  156.0445 H   0  0  0  0  0  0  0  0  0  0  0  0
  152.7099  137.7947  154.8369 H   0  0  0  0  0  0  0  0  0  0  0  0
  151.2008  139.9287  157.3799 H   0  0  0  0  0  0  0  0  0  0  0  0
  152.3161  141.2387  157.0335 H   0  0  0  0  0  0  0  0  0  0  0  0
  151.3275  141.5791  154.7951 H   0  0  0  0  0  0  0  0  0  0  0  0
  150.0764  141.6716  156.0145 H   0  0  0  0  0  0  0  0  0  0  0  0
  145.5237  135.2997  149.6570 H   0  0  0  0  0  0  0  0  0  0  0  0
  145.6284  138.5106  154.9714 H   0  0  0  0  0  0  0  0  0  0  0  0
  1  2  1  0  0  0  0
  1 21  1  0  0  0  0
  1 22  1  0  0  0  0
  1 23  1  0  0  0  0
  2 20  2  0  0  0  0
  2  3  1  0  0  0  0
  3  4  2  0  0  0  0
  3 24  1  0  0  0  0
  4  5  1  0  0  0  0
  5  6  1  0  0  0  0
  5 20  1  0  0  0  0
  6  7  1  0  0  0  0
  6 25  1  0  0  0  0
  6 26  1  0  0  0  0
  7  8  1  0  0  0  0
  7  9  1  0  0  0  0
  7 27  1  0  0  0  0
  8 28  1  0  0  0  0
  8 29  1  0  0  0  0
  8 30  1  0  0  0  0
  9 10  1  0  0  0  0
  9 31  1  0  0  0  0
  9 47  1  0  0  0  0
 10 11  1  0  0  0  0
 10 32  1  0  0  0  0
 10 33  1  0  0  0  0
 11 12  1  0  0  0  0
 11 13  1  0  0  0  0
 11 34  1  0  0  0  0
 12 35  1  0  0  0  0
 13 14  1  0  0  0  0
 13 36  1  0  0  0  0
 13 37  1  0  0  0  0
 14 19  1  0  0  0  0
 14 15  1  0  0  0  0
 15 16  1  0  0  0  0
 15 38  1  0  0  0  0
 15 39  1  0  0  0  0
 16 17  1  0  0  0  0
 16 40  1  0  0  0  0
 16 41  1  0  0  0  0
 17 18  1  0  0  0  0
 18 19  1  0  0  0  0
 18 42  1  0  0  0  0
 18 43  1  0  0  0  0
 19 44  1  0  0  0  0
 19 45  1  0  0  0  0
 20 46  1  0  0  0  0
M  CHG  1   9   1
M  END
> <s_m_source_file>
AV-unprocessed.smi

> <i_m_source_file_index>
3031

> <i_lp_mmshare_version>
43012

> <i_f3d_flags>
0

> <s_epik_input>
W0NIM11jMVtjSF1ubihbY0hdMSlbQ0gyXVtDQEhdKFtDSDNdKVtOSF1bQ0gyXVtDQEhdKFtPSF0pW0NIMl1OMltDSDJdW0NIMl1PW0NIMl1bQ0gyXTI=

> <s_epik_cmdline>
J2VwaWtfcHl0aG9uJywgJy1waCcsICc3LjAnLCAnLXRuJywgJzgnLCAnLW1hJywgJzIwMCcsICctbWV0YWxfYmluZGluZycsICctaW1hZScsICc8aW5maWxlLm1hZT4nLCAnLW9tYWUnLCAnPG91dGZpbGUubWFlPic=

> <r_lp_tautomer_probability>
1

> <r_epik_Ionization_Penalty>
0.108564

> <r_epik_Ionization_Penalty_Charging>
0.01811

> <r_epik_Ionization_Penalty_Neutral>
0.0904541

> <r_epik_State_Penalty>
0.141043

> <r_epik_Charging_Adjusted_Penalty>
0.159153

> <i_epik_Tot_Q>
1

> <i_epik_Tot_abs_Q>
1

> <r_epik_Metal_State_Penalty>
0.141052

> <b_epik_Metal_Only>
0

> <s_lp_Force_Field>
OPLS_2005

> <r_lp_Energy>
29.6303

> <b_lp_Chiralities_Consistent>
1

> <s_lp_Variant>
AV-unprocessed.smi:3031-2

> <Gold.Version>
5.8.1

> <Gold.Id.Protein>
6NUR|6NUR_protein|mol2

> <Gold.PLP.Fitness>
48.3968

> <Gold.PLP.PLP>
-32.9579

> <Gold.PLP.part.hbond>
-2.8067

> <Gold.PLP.part.metal>
0.0000

> <Gold.PLP.part.buried>
-1.9454

> <Gold.PLP.part.nonpolar>
-28.0092

> <Gold.PLP.part.repulsive>
0.1805

> <Gold.PLP.ligand.clash>
0.0000

> <Gold.PLP.ligand.torsion>
0.9550

> <Gold.PLP.Chemscore.Hbond>
3.7063

> <Gold.PLP.Chemscore.CHOScore>
2.0000

> <Gold.PLP.Chemscore.Metal>
0.0000

> <Gold.Chemscore.Hbonds>
donor molecule, donor type, donor heavy atom, donor atom, acceptor molecule, acceptor atom, score
      L1  H     9    31       P1 10175  0.16
      L1  H    12    35       P1 10175  0.11
      P1  H  7997  8009       L1    17  1.00
      L1  C     3    24       P1 10957  0.58
      L1  C    20    46       P1  7921  1.00

> <Gold.PLP.Chemscore.Internal.Correction>
0.2301

> <Gold.Rescore>
     Score         DG    S(hbond)    S(metal)    S(lipo)     H(rot)  DE(clash)    DE(int)     intcor
     13.36     -14.37       1.78        0.00      82.79       2.63       0.03       0.98       ----

> <Gold.Chemscore.Fitness>
13.3586

> <Gold.Chemscore.DG>
-14.3741

> <Gold.Chemscore.ZeroCoef>
-5.4800

> <Gold.Chemscore.Hbond>
1.7764

> <Gold.Chemscore.Metal>
0.0000

> <Gold.Chemscore.Lipo>
82.7867

> <Gold.Chemscore.Internal_Hbond>
0.0000

> <Gold.Chemscore.DEClash>
0.0323

> <Gold.Chemscore.DEInternal>
0.9833

> <Gold.Chemscore.Rot>
2.6270

> <Gold.Chemscore.Internal.Correction>
   9.000000E+99

> <Gold.Chemscore.Hbonds>
donor molecule, donor type, donor heavy atom, donor atom, acceptor molecule, acceptor atom, score
      L1  H     9    31       P1 10175  0.11
      L1  H    12    35       P1 10175  0.12
      P1  H  7997  8009       L1    17  0.60

> <Gold.Chemscore.Hbond.Weighted>
-5.9332

> <Gold.Chemscore.Metal.Weighted>
-0.0000

> <Gold.Chemscore.Lipo.Weighted>
-9.6860

> <Gold.Chemscore.Internal_Hbond.Weighted>
0.0000

> <Gold.Chemscore.DEClash.Weighted>
0.0323

> <Gold.Chemscore.DEInternal.Weighted>
0.9833

> <Gold.Chemscore.Rot.Weighted>
6.7251

> <Gold.Chemscore.Internal.Correction.Weighted>
   9.000000E+99

> <Gold.Protein.RotatedTorsions>
[ 6907 6896 6895 6894 ] final -104.53 input  -60.11 | X-H torsion
[ 7974 7965 7964 7962 ] final -169.32 input  175.53 | X-H torsion
[ 8008 7997 7996 7995 ] final -157.28 input   59.86 | X-H torsion
[ 10167 10162 10161 10158 ] final   50.59 input  -65.29 | X-H torsion
[ 10718 10713 10712 10709 ] final   43.52 input   66.30 | X-H torsion
[ 10763 10752 10751 10750 ] final  -80.75 input  -60.55 | X-H torsion
[ 11005 11000 10999 10996 ] final   68.71 input  -57.11 | X-H torsion

> <Gold.Protein.ActiveResidues>
 VAL166  LYS551  ARG553  GLY616  TRP617  ASP618  TYR619  PRO620  LYS621  CYS622 
 ASP623  PHE694  ASN695  SER759  ASP760  ASP761  ALA762  ILE779  LEU786  VAL792 
 PHE793  MET794  SER795  GLU796  ALA797  LYS798  CYS799  TRP800  GLU811  SER814 

> <Gold.Protein.RotatedAtoms>
  150.7292  134.0264  159.3718 H   0  0  0  0  0  0  0  0  0  0  0  0  # atno 6907 bound_to 6896
  151.8231  135.0643  160.0437 H   0  0  0  0  0  0  0  0  0  0  0  0  # atno 6908 bound_to 6896
  152.2989  133.5599  159.5642 H   0  0  0  0  0  0  0  0  0  0  0  0  # atno 6909 bound_to 6896
  144.7187  140.2239  143.6312 H   0  0  0  0  0  0  0  0  0  0  0  0  # atno 7974 bound_to 7965
  155.7301  140.0801  157.2292 H   0  0  0  0  0  0  0  0  0  0  0  0  # atno 8008 bound_to 7997
  154.4034  140.1597  156.2554 H   0  0  0  0  0  0  0  0  0  0  0  0  # atno 8009 bound_to 7997
  155.9117  140.3403  155.6106 H   0  0  0  0  0  0  0  0  0  0  0  0  # atno 8010 bound_to 7997
  140.2708  144.3267  150.6290 H   0  0  0  0  0  0  0  0  0  0  0  0  # atno 10167 bound_to 10162
  157.4168  130.7946  149.7479 H   0  0  0  0  0  0  0  0  0  0  0  0  # atno 10718 bound_to 10713
  154.5551  135.5650  153.6957 H   0  0  0  0  0  0  0  0  0  0  0  0  # atno 10763 bound_to 10752
  153.0001  135.6260  154.2321 H   0  0  0  0  0  0  0  0  0  0  0  0  # atno 10764 bound_to 10752
  154.2257  135.2868  155.2888 H   0  0  0  0  0  0  0  0  0  0  0  0  # atno 10765 bound_to 10752
  139.9695  134.6924  156.0475 H   0  0  0  0  0  0  0  0  0  0  0  0  # atno 11005 bound_to 11000
  145.8475  139.2159  143.1792 LP  0  0  0  0  0  0  0  0  0  0  0  0  # atno 17320 bound_to 7965
  146.0291  140.8275  142.9885 LP  0  0  0  0  0  0  0  0  0  0  0  0  # atno 17321 bound_to 7965
  140.5891  143.2168  151.7287 LP  0  0  0  0  0  0  0  0  0  0  0  0  # atno 17342 bound_to 10162
  139.4989  144.3966  152.0225 LP  0  0  0  0  0  0  0  0  0  0  0  0  # atno 17343 bound_to 10162
  155.9867  130.3972  150.3197 LP  0  0  0  0  0  0  0  0  0  0  0  0  # atno 17370 bound_to 10713
  157.1341  131.0279  151.2956 LP  0  0  0  0  0  0  0  0  0  0  0  0  # atno 17371 bound_to 10713
  141.1375  133.6572  156.3635 LP  0  0  0  0  0  0  0  0  0  0  0  0  # atno 17394 bound_to 11000
  140.5323  134.6200  157.5354 LP  0  0  0  0  0  0  0  0  0  0  0  0  # atno 17395 bound_to 11000

$$$$
