AV-unprocessed.smi:1478|AV-procd|sdf|5982|dock10
  -GOLD-   22720 6 73D 1   1.00000     0.00000
 Structure written by MMmdl.
 46 47  0  0  0  0  0  0  0  0  1 V2000
  146.2883  142.9443  154.3243 C   0  0  0  0  0  0  0  0  0  0  0  0
  147.2048  142.0507  153.7166 O   0  0  0  0  0  0  0  0  0  0  0  0
  148.0508  141.4163  154.6605 C   0  0  0  0  0  0  0  0  0  0  0  0
  149.2298  140.7716  153.9160 C   0  0  0  0  0  0  0  0  0  0  0  0
  149.4851  139.4074  154.3894 N   0  0  0  0  0  0  0  0  0  0  0  0
  148.3550  138.6085  154.4488 N   0  0  0  0  0  0  0  0  0  0  0  0
  148.4452  137.3836  154.8567 C   0  0  0  0  0  0  0  0  0  0  0  0
  147.2557  136.4902  154.9324 C   0  0  0  0  0  0  0  0  0  0  0  0
  146.5643  136.4132  155.9494 O   0  0  0  0  0  0  0  0  0  0  0  0
  146.9924  135.7875  153.8154 N   0  0  0  0  0  0  0  0  0  0  0  0
  145.8895  134.8439  153.6353 C   0  0  0  0  0  0  0  0  0  0  0  0
  145.6499  134.4200  152.1576 C   0  0  0  0  0  0  0  0  0  0  0  0
  145.4881  135.7377  151.3500 C   0  0  0  0  0  0  0  0  0  0  0  0
  146.5134  136.5949  151.3073 N   0  0  0  0  0  0  0  0  0  0  0  0
  144.4293  135.9941  150.7784 O   0  0  0  0  0  0  0  0  0  0  0  0
  146.8083  133.5317  151.6177 C   0  0  0  0  0  0  0  0  0  0  0  0
  146.5076  132.9556  150.2192 C   0  0  0  0  0  0  0  0  0  0  0  0
  145.2994  132.2053  150.2556 O   0  0  0  0  0  0  0  0  0  0  0  0
  144.1680  132.9876  150.6198 C   0  0  0  0  0  0  0  0  0  0  0  0
  144.3621  133.5570  152.0390 C   0  0  0  0  0  0  0  0  0  0  0  0
  149.7254  136.8267  155.2611 C   0  0  0  0  0  0  0  0  0  0  0  0
  150.8182  137.6186  155.1994 C   0  0  0  0  0  0  0  0  0  0  0  0
  150.7442  139.0066  154.7408 C   0  0  0  0  0  0  0  0  0  0  0  0
  151.7244  139.7482  154.6796 O   0  0  0  0  0  0  0  0  0  0  0  0
  145.6639  143.4054  153.5592 H   0  0  0  0  0  0  0  0  0  0  0  0
  146.8082  143.7404  154.8592 H   0  0  0  0  0  0  0  0  0  0  0  0
  145.6339  142.4218  155.0232 H   0  0  0  0  0  0  0  0  0  0  0  0
  148.4107  142.1480  155.3855 H   0  0  0  0  0  0  0  0  0  0  0  0
  147.4932  140.6552  155.2088 H   0  0  0  0  0  0  0  0  0  0  0  0
  149.0181  140.7607  152.8451 H   0  0  0  0  0  0  0  0  0  0  0  0
  150.1248  141.3862  154.0283 H   0  0  0  0  0  0  0  0  0  0  0  0
  147.6108  135.9155  153.0269 H   0  0  0  0  0  0  0  0  0  0  0  0
  146.1311  133.9663  154.2369 H   0  0  0  0  0  0  0  0  0  0  0  0
  144.9714  135.2486  154.0662 H   0  0  0  0  0  0  0  0  0  0  0  0
  146.4294  137.4557  150.7862 H   0  0  0  0  0  0  0  0  0  0  0  0
  147.3699  136.3766  151.7953 H   0  0  0  0  0  0  0  0  0  0  0  0
  147.7554  134.0723  151.6102 H   0  0  0  0  0  0  0  0  0  0  0  0
  146.9673  132.6850  152.2851 H   0  0  0  0  0  0  0  0  0  0  0  0
  146.4394  133.7379  149.4626 H   0  0  0  0  0  0  0  0  0  0  0  0
  147.3170  132.2941  149.9103 H   0  0  0  0  0  0  0  0  0  0  0  0
  144.0050  133.7786  149.8865 H   0  0  0  0  0  0  0  0  0  0  0  0
  143.2832  132.3515  150.5939 H   0  0  0  0  0  0  0  0  0  0  0  0
  144.4104  132.7145  152.7293 H   0  0  0  0  0  0  0  0  0  0  0  0
  143.4788  134.1245  152.3353 H   0  0  0  0  0  0  0  0  0  0  0  0
  149.8101  135.8056  155.6040 H   0  0  0  0  0  0  0  0  0  0  0  0
  151.7760  137.2176  155.4971 H   0  0  0  0  0  0  0  0  0  0  0  0
  1  2  1  0  0  0  0
  1 25  1  0  0  0  0
  1 26  1  0  0  0  0
  1 27  1  0  0  0  0
  2  3  1  0  0  0  0
  3  4  1  0  0  0  0
  3 28  1  0  0  0  0
  3 29  1  0  0  0  0
  4  5  1  0  0  0  0
  4 30  1  0  0  0  0
  4 31  1  0  0  0  0
  5 23  1  0  0  0  0
  5  6  1  0  0  0  0
  6  7  2  0  0  0  0
  7  8  1  0  0  0  0
  7 21  1  0  0  0  0
  8  9  2  0  0  0  0
  8 10  1  0  0  0  0
 10 11  1  0  0  0  0
 10 32  1  0  0  0  0
 11 12  1  0  0  0  0
 11 33  1  0  0  0  0
 11 34  1  0  0  0  0
 12 20  1  0  0  0  0
 12 13  1  0  0  0  0
 12 16  1  0  0  0  0
 13 14  1  0  0  0  0
 13 15  2  0  0  0  0
 14 35  1  0  0  0  0
 14 36  1  0  0  0  0
 16 17  1  0  0  0  0
 16 37  1  0  0  0  0
 16 38  1  0  0  0  0
 17 18  1  0  0  0  0
 17 39  1  0  0  0  0
 17 40  1  0  0  0  0
 18 19  1  0  0  0  0
 19 20  1  0  0  0  0
 19 41  1  0  0  0  0
 19 42  1  0  0  0  0
 20 43  1  0  0  0  0
 20 44  1  0  0  0  0
 21 22  2  0  0  0  0
 21 45  1  0  0  0  0
 22 23  1  0  0  0  0
 22 46  1  0  0  0  0
 23 24  2  0  0  0  0
M  END
> <s_m_source_file>
AV-unprocessed.smi

> <i_m_source_file_index>
1478

> <i_lp_mmshare_version>
43012

> <i_f3d_flags>
0

> <s_epik_input>
W0NIM11PW0NIMl1bQ0gyXW4xbmMoW2NIXVtjSF1jMT1PKUMoPU8pW05IXVtDSDJdQzIoQyg9TylbTkgyXSlbQ0gyXVtDSDJdT1tDSDJdW0NIMl0y

> <s_epik_cmdline>
J2VwaWtfcHl0aG9uJywgJy1waCcsICc3LjAnLCAnLXRuJywgJzgnLCAnLW1hJywgJzIwMCcsICctbWV0YWxfYmluZGluZycsICctaW1hZScsICc8aW5maWxlLm1hZT4nLCAnLW9tYWUnLCAnPG91dGZpbGUubWFlPic=

> <r_lp_tautomer_probability>
1

> <r_epik_Ionization_Penalty>
1.88897e-06

> <r_epik_Ionization_Penalty_Charging>
5.89949e-09

> <r_epik_Ionization_Penalty_Neutral>
1.88307e-06

> <r_epik_State_Penalty>
-0

> <r_epik_Charging_Adjusted_Penalty>
5.89949e-09

> <i_epik_Tot_Q>
0

> <i_epik_Tot_abs_Q>
0

> <r_epik_Metal_State_Penalty>
-0

> <b_epik_Metal_Only>
0

> <s_lp_Force_Field>
OPLS_2005

> <r_lp_Energy>
34.3796

> <b_lp_Chiralities_Consistent>
1

> <s_lp_Variant>
AV-unprocessed.smi:1478-1

> <Gold.Version>
5.8.1

> <Gold.Id.Protein>
6NUR|6NUR_protein|mol2

> <Gold.PLP.Fitness>
39.6815

> <Gold.PLP.PLP>
-34.8419

> <Gold.PLP.part.hbond>
-2.9505

> <Gold.PLP.part.metal>
0.0000

> <Gold.PLP.part.buried>
-5.3213

> <Gold.PLP.part.nonpolar>
-27.7143

> <Gold.PLP.part.repulsive>
1.9667

> <Gold.PLP.ligand.clash>
0.0000

> <Gold.PLP.ligand.torsion>
2.1059

> <Gold.PLP.Chemscore.Hbond>
3.0000

> <Gold.PLP.Chemscore.CHOScore>
0.0000

> <Gold.PLP.Chemscore.Metal>
0.0000

> <Gold.Chemscore.Hbonds>
donor molecule, donor type, donor heavy atom, donor atom, acceptor molecule, acceptor atom, score
      L1  H    10    32       P1  7948  1.00
      L1  H    14    36       P1  7948  1.00
      P1  H  7989  7998       L1    24  1.00

> <Gold.PLP.Chemscore.Internal.Correction>
0.0515

> <Gold.Rescore>
     Score         DG    S(hbond)    S(metal)    S(lipo)     H(rot)  DE(clash)    DE(int)     intcor
     12.17     -15.97       2.96        0.00      64.06       2.69       0.09       3.72       ----

> <Gold.Chemscore.Fitness>
12.1673

> <Gold.Chemscore.DG>
-15.9733

> <Gold.Chemscore.ZeroCoef>
-5.4800

> <Gold.Chemscore.Hbond>
2.9629

> <Gold.Chemscore.Metal>
0.0000

> <Gold.Chemscore.Lipo>
64.0589

> <Gold.Chemscore.Internal_Hbond>
0.0000

> <Gold.Chemscore.DEClash>
0.0866

> <Gold.Chemscore.DEInternal>
3.7193

> <Gold.Chemscore.Rot>
2.6944

> <Gold.Chemscore.Internal.Correction>
   9.000000E+99

> <Gold.Chemscore.Hbonds>
donor molecule, donor type, donor heavy atom, donor atom, acceptor molecule, acceptor atom, score
      L1  H    10    32       P1  7948  1.00
      L1  H    14    36       P1  7948  0.91
      P1  H  7989  7998       L1    24  0.88

> <Gold.Chemscore.Hbond.Weighted>
-9.8960

> <Gold.Chemscore.Metal.Weighted>
-0.0000

> <Gold.Chemscore.Lipo.Weighted>
-7.4949

> <Gold.Chemscore.Internal_Hbond.Weighted>
0.0000

> <Gold.Chemscore.DEClash.Weighted>
0.0866

> <Gold.Chemscore.DEInternal.Weighted>
3.7193

> <Gold.Chemscore.Rot.Weighted>
6.8976

> <Gold.Chemscore.Internal.Correction.Weighted>
   9.000000E+99

> <Gold.Protein.RotatedTorsions>
[ 6907 6896 6895 6894 ] final  -54.29 input  -60.11 | X-H torsion
[ 7974 7965 7964 7962 ] final  -33.42 input  175.53 | X-H torsion
[ 8008 7997 7996 7995 ] final  120.61 input   59.86 | X-H torsion
[ 10167 10162 10161 10158 ] final   34.62 input  -65.29 | X-H torsion
[ 10718 10713 10712 10709 ] final  153.52 input   66.30 | X-H torsion
[ 10763 10752 10751 10750 ] final   82.34 input  -60.55 | X-H torsion
[ 11005 11000 10999 10996 ] final -137.95 input  -57.11 | X-H torsion

> <Gold.Protein.ActiveResidues>
 VAL166  LYS551  ARG553  GLY616  TRP617  ASP618  TYR619  PRO620  LYS621  CYS622 
 ASP623  PHE694  ASN695  SER759  ASP760  ASP761  ALA762  ILE779  LEU786  VAL792 
 PHE793  MET794  SER795  GLU796  ALA797  LYS798  CYS799  TRP800  GLU811  SER814 

> <Gold.Protein.RotatedAtoms>
  150.8351  134.7621  159.6885 H   0  0  0  0  0  0  0  0  0  0  0  0  # atno 6907 bound_to 6896
  152.4449  134.5511  159.9877 H   0  0  0  0  0  0  0  0  0  0  0  0  # atno 6908 bound_to 6896
  151.5663  133.3358  159.3017 H   0  0  0  0  0  0  0  0  0  0  0  0  # atno 6909 bound_to 6896
  146.0912  140.5914  142.8863 H   0  0  0  0  0  0  0  0  0  0  0  0  # atno 7974 bound_to 7965
  156.2650  140.2827  156.1176 H   0  0  0  0  0  0  0  0  0  0  0  0  # atno 8008 bound_to 7997
  155.1190  140.0392  157.2762 H   0  0  0  0  0  0  0  0  0  0  0  0  # atno 8009 bound_to 7997
  154.6685  140.2582  155.7038 H   0  0  0  0  0  0  0  0  0  0  0  0  # atno 8010 bound_to 7997
  140.4298  144.1340  150.6158 H   0  0  0  0  0  0  0  0  0  0  0  0  # atno 10167 bound_to 10162
  157.2437  131.0764  151.1776 H   0  0  0  0  0  0  0  0  0  0  0  0  # atno 10718 bound_to 10713
  153.1194  135.4732  154.9170 H   0  0  0  0  0  0  0  0  0  0  0  0  # atno 10763 bound_to 10752
  154.7561  135.3118  154.8470 H   0  0  0  0  0  0  0  0  0  0  0  0  # atno 10764 bound_to 10752
  153.9038  135.6872  153.4807 H   0  0  0  0  0  0  0  0  0  0  0  0  # atno 10765 bound_to 10752
  140.8662  134.2107  157.4678 H   0  0  0  0  0  0  0  0  0  0  0  0  # atno 11005 bound_to 11000
  144.7362  140.4813  143.6902 LP  0  0  0  0  0  0  0  0  0  0  0  0  # atno 17320 bound_to 7965
  145.6035  139.1506  143.3116 LP  0  0  0  0  0  0  0  0  0  0  0  0  # atno 17321 bound_to 7965
  140.4439  143.2514  151.9436 LP  0  0  0  0  0  0  0  0  0  0  0  0  # atno 17342 bound_to 10162
  139.4784  144.5627  151.8213 LP  0  0  0  0  0  0  0  0  0  0  0  0  # atno 17343 bound_to 10162
  157.3352  130.7005  149.6348 LP  0  0  0  0  0  0  0  0  0  0  0  0  # atno 17370 bound_to 10713
  155.9669  130.4296  150.4839 LP  0  0  0  0  0  0  0  0  0  0  0  0  # atno 17371 bound_to 10713
  139.8709  134.9753  156.4878 LP  0  0  0  0  0  0  0  0  0  0  0  0  # atno 17394 bound_to 11000
  140.8626  133.8048  155.9280 LP  0  0  0  0  0  0  0  0  0  0  0  0  # atno 17395 bound_to 11000

$$$$
