AV-unprocessed.smi:90|AV-procd|sdf|829|dock8
  -GOLD-   2262017243D 1   1.00000     0.00000
 Structure written by MMmdl.
 64 67  0  0  0  0  0  0  0  0  2 V2000
  148.8741  130.7031  154.1039 C   0  0  0  0  0  0  0  0  0  0  0  0
  148.9601  132.1589  154.1056 N   0  0  0  0  0  0  0  0  0  0  0  0
  148.0837  132.8964  153.1939 C   0  0  0  0  0  0  0  0  0  0  0  0
  147.0192  131.9926  152.5391 C   0  0  0  0  0  0  0  0  0  0  0  0
  145.9420  132.7522  151.7225 C   0  0  2  0  0  0  0  0  0  0  0  0
  144.7523  133.1698  152.6229 C   0  0  0  0  0  0  0  0  0  0  0  0
  143.6603  133.9054  151.8380 C   0  0  0  0  0  0  0  0  0  0  0  0
  143.2004  133.0453  150.6608 C   0  0  0  0  0  0  0  0  0  0  0  0
  144.3981  132.6666  149.7807 C   0  0  0  0  0  0  0  0  0  0  0  0
  145.4441  131.9499  150.5577 N   0  3  1  0  0  0  0  0  0  0  0  0
  146.5098  131.4482  149.6554 C   0  0  0  0  0  0  0  0  0  0  0  0
  149.5776  132.7935  155.1451 C   0  0  0  0  0  0  0  0  0  0  0  0
  150.3593  132.0618  155.9853 N   0  0  0  0  0  0  0  0  0  0  0  0
  150.9938  132.6366  157.0096 C   0  0  0  0  0  0  0  0  0  0  0  0
  150.9841  133.9156  157.3817 N   0  0  0  0  0  0  0  0  0  0  0  0
  150.1921  134.6625  156.5621 C   0  0  0  0  0  0  0  0  0  0  0  0
  149.4638  134.1904  155.4298 C   0  0  0  0  0  0  0  0  0  0  0  0
  148.7804  135.2541  154.8486 N   0  0  0  0  0  0  0  0  0  0  0  0
  149.0924  136.2857  155.5818 C   0  0  0  0  0  0  0  0  0  0  0  0
  149.9223  136.0186  156.6460 N   0  0  0  0  0  0  0  0  0  0  0  0
  150.4234  136.9809  157.6193 C   0  0  0  0  0  0  0  0  0  0  0  0
  151.4372  138.0267  157.0613 C   0  0  0  0  0  0  0  0  0  0  0  0
  152.6575  138.0815  158.0299 C   0  0  0  0  0  0  0  0  0  0  0  0
  153.4916  139.2094  157.8850 O   0  0  0  0  0  0  0  0  0  0  0  0
  151.8570  137.6167  155.6252 C   0  0  0  0  0  0  0  0  0  0  0  0
  152.4627  138.7648  154.7991 C   0  0  0  0  0  0  0  0  0  0  0  0
  151.5636  139.8648  154.7691 O   0  0  0  0  0  0  0  0  0  0  0  0
  151.3421  140.4240  156.0561 C   0  0  0  0  0  0  0  0  0  0  0  0
  150.6857  139.3833  156.9846 C   0  0  0  0  0  0  0  0  0  0  0  0
  148.5716  130.3274  155.0819 H   0  0  0  0  0  0  0  0  0  0  0  0
  149.8359  130.2642  153.8386 H   0  0  0  0  0  0  0  0  0  0  0  0
  148.1419  130.3539  153.3755 H   0  0  0  0  0  0  0  0  0  0  0  0
  147.6254  133.7320  153.7223 H   0  0  0  0  0  0  0  0  0  0  0  0
  148.7026  133.3460  152.4167 H   0  0  0  0  0  0  0  0  0  0  0  0
  147.5530  131.3021  151.8880 H   0  0  0  0  0  0  0  0  0  0  0  0
  146.5348  131.3819  153.3016 H   0  0  0  0  0  0  0  0  0  0  0  0
  146.4015  133.6582  151.3234 H   0  0  0  0  0  0  0  0  0  0  0  0
  144.3253  132.2878  153.1024 H   0  0  0  0  0  0  0  0  0  0  0  0
  145.0869  133.8253  153.4260 H   0  0  0  0  0  0  0  0  0  0  0  0
  142.8169  134.1363  152.4892 H   0  0  0  0  0  0  0  0  0  0  0  0
  144.0446  134.8586  151.4727 H   0  0  0  0  0  0  0  0  0  0  0  0
  142.7105  132.1432  151.0294 H   0  0  0  0  0  0  0  0  0  0  0  0
  142.4581  133.5850  150.0718 H   0  0  0  0  0  0  0  0  0  0  0  0
  144.0479  132.0349  148.9634 H   0  0  0  0  0  0  0  0  0  0  0  0
  144.8289  133.5602  149.3258 H   0  0  0  0  0  0  0  0  0  0  0  0
  147.1523  132.2618  149.3163 H   0  0  0  0  0  0  0  0  0  0  0  0
  146.0809  130.9680  148.7751 H   0  0  0  0  0  0  0  0  0  0  0  0
  147.1260  130.6937  150.1428 H   0  0  0  0  0  0  0  0  0  0  0  0
  151.5949  131.9773  157.6183 H   0  0  0  0  0  0  0  0  0  0  0  0
  148.7145  137.2755  155.3704 H   0  0  0  0  0  0  0  0  0  0  0  0
  149.5621  137.4826  158.0628 H   0  0  0  0  0  0  0  0  0  0  0  0
  150.8838  136.4178  158.4326 H   0  0  0  0  0  0  0  0  0  0  0  0
  152.3137  138.0626  159.0644 H   0  0  0  0  0  0  0  0  0  0  0  0
  153.2923  137.2059  157.8965 H   0  0  0  0  0  0  0  0  0  0  0  0
  153.7586  139.4982  158.7441 H   0  0  0  0  0  0  0  0  0  0  0  0
  152.5495  136.7748  155.6519 H   0  0  0  0  0  0  0  0  0  0  0  0
  150.9775  137.2670  155.0833 H   0  0  0  0  0  0  0  0  0  0  0  0
  153.4349  139.0756  155.1803 H   0  0  0  0  0  0  0  0  0  0  0  0
  152.6288  138.4295  153.7752 H   0  0  0  0  0  0  0  0  0  0  0  0
  152.2735  140.8138  156.4641 H   0  0  0  0  0  0  0  0  0  0  0  0
  150.6797  141.2829  155.9467 H   0  0  0  0  0  0  0  0  0  0  0  0
  149.6778  139.2130  156.6037 H   0  0  0  0  0  0  0  0  0  0  0  0
  150.5576  139.8034  157.9829 H   0  0  0  0  0  0  0  0  0  0  0  0
  144.9949  131.1321  150.9448 H   0  0  0  0  0  0  0  0  0  0  0  0
  1  2  1  0  0  0  0
  1 30  1  0  0  0  0
  1 31  1  0  0  0  0
  1 32  1  0  0  0  0
  2  3  1  0  0  0  0
  2 12  1  0  0  0  0
  3  4  1  0  0  0  0
  3 33  1  0  0  0  0
  3 34  1  0  0  0  0
  4  5  1  0  0  0  0
  4 35  1  0  0  0  0
  4 36  1  0  0  0  0
  5 10  1  0  0  0  0
  5  6  1  0  0  0  0
  5 37  1  0  0  0  0
  6  7  1  0  0  0  0
  6 38  1  0  0  0  0
  6 39  1  0  0  0  0
  7  8  1  0  0  0  0
  7 40  1  0  0  0  0
  7 41  1  0  0  0  0
  8  9  1  0  0  0  0
  8 42  1  0  0  0  0
  8 43  1  0  0  0  0
  9 10  1  0  0  0  0
  9 44  1  0  0  0  0
  9 45  1  0  0  0  0
 10 11  1  0  0  0  0
 10 64  1  0  0  0  0
 11 46  1  0  0  0  0
 11 47  1  0  0  0  0
 11 48  1  0  0  0  0
 12 17  1  0  0  0  0
 12 13  2  0  0  0  0
 13 14  1  0  0  0  0
 14 15  2  0  0  0  0
 14 49  1  0  0  0  0
 15 16  1  0  0  0  0
 16 20  1  0  0  0  0
 16 17  2  0  0  0  0
 17 18  1  0  0  0  0
 18 19  2  0  0  0  0
 19 20  1  0  0  0  0
 19 50  1  0  0  0  0
 20 21  1  0  0  0  0
 21 22  1  0  0  0  0
 21 51  1  0  0  0  0
 21 52  1  0  0  0  0
 22 29  1  0  0  0  0
 22 23  1  0  0  0  0
 22 25  1  0  0  0  0
 23 24  1  0  0  0  0
 23 53  1  0  0  0  0
 23 54  1  0  0  0  0
 24 55  1  0  0  0  0
 25 26  1  0  0  0  0
 25 56  1  0  0  0  0
 25 57  1  0  0  0  0
 26 27  1  0  0  0  0
 26 58  1  0  0  0  0
 26 59  1  0  0  0  0
 27 28  1  0  0  0  0
 28 29  1  0  0  0  0
 28 60  1  0  0  0  0
 28 61  1  0  0  0  0
 29 62  1  0  0  0  0
 29 63  1  0  0  0  0
M  CHG  1  10   1
M  END
> <s_m_source_file>
AV-unprocessed.smi

> <i_m_source_file_index>
90

> <i_lp_mmshare_version>
43012

> <i_f3d_flags>
0

> <s_epik_input>
W0NIM11OMVtDSDJdW0NIMl1bQ0gyXVtDSDJdW0NASF0xW0NIMl1bQ0gyXU4oW0NIM10pYyhuW2NIXW4yKWMoYzIzKW5bY0hdbjNbQ0gyXUM0KFtDSDJdW09IXSlbQ0gyXVtDSDJdT1tDSDJdW0NIMl00

> <s_epik_cmdline>
J2VwaWtfcHl0aG9uJywgJy1waCcsICc3LjAnLCAnLXRuJywgJzgnLCAnLW1hJywgJzIwMCcsICctbWV0YWxfYmluZGluZycsICctaW1hZScsICc8aW5maWxlLm1hZT4nLCAnLW9tYWUnLCAnPG91dGZpbGUubWFlPic=

> <r_lp_tautomer_probability>
1

> <r_epik_Ionization_Penalty>
0.00234895

> <r_epik_Ionization_Penalty_Charging>
0.00106647

> <r_epik_Ionization_Penalty_Neutral>
0.00128248

> <r_epik_State_Penalty>
-0

> <r_epik_Charging_Adjusted_Penalty>
0.00106647

> <i_epik_Tot_Q>
1

> <i_epik_Tot_abs_Q>
1

> <r_epik_Metal_State_Penalty>
-0

> <b_epik_Metal_Only>
0

> <s_lp_Force_Field>
OPLS_2005

> <r_lp_Energy>
43.9513

> <b_lp_Chiralities_Consistent>
1

> <s_lp_Variant>
AV-unprocessed.smi:90-1

> <Gold.Version>
5.8.1

> <Gold.Id.Protein>
6NUR|6NUR_protein|mol2

> <Gold.PLP.Fitness>
47.2810

> <Gold.PLP.PLP>
-43.2267

> <Gold.PLP.part.hbond>
-3.0000

> <Gold.PLP.part.metal>
0.0000

> <Gold.PLP.part.buried>
-0.1378

> <Gold.PLP.part.nonpolar>
-41.8518

> <Gold.PLP.part.repulsive>
0.9502

> <Gold.PLP.ligand.clash>
0.0682

> <Gold.PLP.ligand.torsion>
1.9468

> <Gold.PLP.Chemscore.Hbond>
2.5148

> <Gold.PLP.Chemscore.CHOScore>
0.0000

> <Gold.PLP.Chemscore.Metal>
0.0000

> <Gold.Chemscore.Hbonds>
donor molecule, donor type, donor heavy atom, donor atom, acceptor molecule, acceptor atom, score
      P1  H  6896  6909       L1    15  0.32
      P1  H  7989  7998       L1    27  1.00
      P1  H  7997  8008       L1    24  0.95

> <Gold.PLP.Chemscore.Internal.Correction>
0.4716

> <Gold.Rescore>
     Score         DG    S(hbond)    S(metal)    S(lipo)     H(rot)  DE(clash)    DE(int)     intcor
     11.05     -17.12       2.01        0.00     101.93       2.73       1.84       4.23       ----

> <Gold.Chemscore.Fitness>
11.0479

> <Gold.Chemscore.DG>
-17.1213

> <Gold.Chemscore.ZeroCoef>
-5.4800

> <Gold.Chemscore.Hbond>
2.0108

> <Gold.Chemscore.Metal>
0.0000

> <Gold.Chemscore.Lipo>
101.9321

> <Gold.Chemscore.Internal_Hbond>
0.0000

> <Gold.Chemscore.DEClash>
1.8418

> <Gold.Chemscore.DEInternal>
4.2317

> <Gold.Chemscore.Rot>
2.7347

> <Gold.Chemscore.Internal.Correction>
   9.000000E+99

> <Gold.Chemscore.Hbonds>
donor molecule, donor type, donor heavy atom, donor atom, acceptor molecule, acceptor atom, score
      P1  H  6896  6909       L1    15  0.03
      P1  H  7989  7998       L1    27  0.90
      P1  H  7997  8008       L1    24  0.21

> <Gold.Chemscore.Hbond.Weighted>
-6.7162

> <Gold.Chemscore.Metal.Weighted>
-0.0000

> <Gold.Chemscore.Lipo.Weighted>
-11.9261

> <Gold.Chemscore.Internal_Hbond.Weighted>
0.0000

> <Gold.Chemscore.DEClash.Weighted>
1.8418

> <Gold.Chemscore.DEInternal.Weighted>
4.2317

> <Gold.Chemscore.Rot.Weighted>
7.0009

> <Gold.Chemscore.Internal.Correction.Weighted>
   9.000000E+99

> <Gold.Protein.RotatedTorsions>
[ 6907 6896 6895 6894 ] final  -28.11 input  -60.11 | X-H torsion
[ 7974 7965 7964 7962 ] final -121.21 input  175.53 | X-H torsion
[ 8008 7997 7996 7995 ] final  -83.43 input   59.86 | X-H torsion
[ 10167 10162 10161 10158 ] final -145.29 input  -65.29 | X-H torsion
[ 10718 10713 10712 10709 ] final   91.91 input   66.30 | X-H torsion
[ 10763 10752 10751 10750 ] final   89.57 input  -60.55 | X-H torsion
[ 11005 11000 10999 10996 ] final  -25.04 input  -57.11 | X-H torsion

> <Gold.Protein.ActiveResidues>
 VAL166  LYS551  ARG553  GLY616  TRP617  ASP618  TYR619  PRO620  LYS621  CYS622 
 ASP623  PHE694  ASN695  SER759  ASP760  ASP761  ALA762  ILE779  LEU786  VAL792 
 PHE793  MET794  SER795  GLU796  ALA797  LYS798  CYS799  TRP800  GLU811  SER814 

> <Gold.Protein.RotatedAtoms>
  151.1375  135.0162  159.8610 H   0  0  0  0  0  0  0  0  0  0  0  0  # atno 6907 bound_to 6896
  152.5452  134.1538  159.8539 H   0  0  0  0  0  0  0  0  0  0  0  0  # atno 6908 bound_to 6896
  151.1610  133.4799  159.2627 H   0  0  0  0  0  0  0  0  0  0  0  0  # atno 6909 bound_to 6896
  145.0428  140.8158  143.4256 H   0  0  0  0  0  0  0  0  0  0  0  0  # atno 7974 bound_to 7965
  154.6190  140.0619  156.9591 H   0  0  0  0  0  0  0  0  0  0  0  0  # atno 8008 bound_to 7997
  155.1848  140.3302  155.4350 H   0  0  0  0  0  0  0  0  0  0  0  0  # atno 8009 bound_to 7997
  156.2421  140.1891  156.6942 H   0  0  0  0  0  0  0  0  0  0  0  0  # atno 8010 bound_to 7997
  139.7820  143.8088  152.2640 H   0  0  0  0  0  0  0  0  0  0  0  0  # atno 10167 bound_to 10162
  157.6959  131.0424  150.3801 H   0  0  0  0  0  0  0  0  0  0  0  0  # atno 10718 bound_to 10713
  153.1885  135.4465  155.0119 H   0  0  0  0  0  0  0  0  0  0  0  0  # atno 10763 bound_to 10752
  154.8075  135.3280  154.7395 H   0  0  0  0  0  0  0  0  0  0  0  0  # atno 10764 bound_to 10752
  153.7851  135.6974  153.4936 H   0  0  0  0  0  0  0  0  0  0  0  0  # atno 10765 bound_to 10752
  140.8901  133.7594  156.0410 H   0  0  0  0  0  0  0  0  0  0  0  0  # atno 11005 bound_to 11000
  145.1626  139.2450  143.5384 LP  0  0  0  0  0  0  0  0  0  0  0  0  # atno 17320 bound_to 7965
  146.3511  140.1357  142.8596 LP  0  0  0  0  0  0  0  0  0  0  0  0  # atno 17321 bound_to 7965
  139.8153  144.7318  150.9643 LP  0  0  0  0  0  0  0  0  0  0  0  0  # atno 17342 bound_to 10162
  140.7818  143.4211  151.0840 LP  0  0  0  0  0  0  0  0  0  0  0  0  # atno 17343 bound_to 10162
  156.4216  130.3954  149.6821 LP  0  0  0  0  0  0  0  0  0  0  0  0  # atno 17370 bound_to 10713
  156.4070  130.7703  151.2714 LP  0  0  0  0  0  0  0  0  0  0  0  0  # atno 17371 bound_to 10713
  140.8357  134.3126  157.5332 LP  0  0  0  0  0  0  0  0  0  0  0  0  # atno 17394 bound_to 11000
  139.8729  134.9388  156.3725 LP  0  0  0  0  0  0  0  0  0  0  0  0  # atno 17395 bound_to 11000

$$$$
