AV-unprocessed.smi:2439|AV-procd|sdf|9613|dock5
  -GOLD-   2272013243D 1   1.00000     0.00000
 Structure written by MMmdl.
 40 42  0  0  0  0  0  0  0  0  1 V2000
  151.3811  136.3043  154.9953 N   0  0  0  0  0  0  0  0  0  0  0  0
  150.9024  137.3418  155.1763 C   0  0  0  0  0  0  0  0  0  0  0  0
  150.2989  138.6494  155.4043 C   0  0  0  0  0  0  0  0  0  0  0  0
  149.7974  139.3712  154.3011 C   0  0  0  0  0  0  0  0  0  0  0  0
  149.2129  140.6329  154.5147 C   0  0  0  0  0  0  0  0  0  0  0  0
  149.1530  141.1245  155.8314 C   0  0  0  0  0  0  0  0  0  0  0  0
  149.6285  140.4451  156.8957 N   0  0  0  0  0  0  0  0  0  0  0  0
  150.1952  139.2293  156.6975 C   0  0  0  0  0  0  0  0  0  0  0  0
  150.6823  138.5469  157.8263 N   0  0  0  0  0  0  0  0  0  0  0  0
  151.0277  139.2621  159.0469 C   0  0  0  0  0  0  0  0  0  0  0  0
  152.4799  139.7741  159.0082 C   0  0  2  0  0  0  0  0  0  0  0  0
  152.8056  140.7425  160.1615 C   0  0  0  0  0  0  0  0  0  0  0  0
  152.1652  142.0431  160.0045 N   0  0  0  0  0  0  0  0  0  0  0  0
  152.5174  142.9390  161.1052 C   0  0  0  0  0  0  0  0  0  0  0  0
  151.8288  144.3079  160.9921 C   0  0  0  0  0  0  0  0  0  0  0  0
  152.1685  144.9641  159.6466 C   0  0  0  0  0  0  0  0  0  0  0  0
  151.8489  143.9995  158.4945 C   0  0  0  0  0  0  0  0  0  0  0  0
  152.5274  142.6304  158.7114 C   0  0  2  0  0  0  0  0  0  0  0  0
  152.1851  141.6718  157.5538 C   0  0  0  0  0  0  0  0  0  0  0  0
  152.7946  140.4001  157.7626 O   0  0  0  0  0  0  0  0  0  0  0  0
  149.8573  138.9673  153.3004 H   0  0  0  0  0  0  0  0  0  0  0  0
  148.8199  141.2088  153.6901 H   0  0  0  0  0  0  0  0  0  0  0  0
  148.7114  142.0885  156.0363 H   0  0  0  0  0  0  0  0  0  0  0  0
  150.9484  137.5758  157.7463 H   0  0  0  0  0  0  0  0  0  0  0  0
  150.3287  140.0825  159.2087 H   0  0  0  0  0  0  0  0  0  0  0  0
  150.9080  138.5791  159.8885 H   0  0  0  0  0  0  0  0  0  0  0  0
  153.1389  138.9102  159.1053 H   0  0  0  0  0  0  0  0  0  0  0  0
  152.5092  140.2939  161.1106 H   0  0  0  0  0  0  0  0  0  0  0  0
  153.8875  140.8761  160.2106 H   0  0  0  0  0  0  0  0  0  0  0  0
  152.2402  142.4791  162.0545 H   0  0  0  0  0  0  0  0  0  0  0  0
  153.5990  143.0804  161.1357 H   0  0  0  0  0  0  0  0  0  0  0  0
  150.7487  144.1834  161.0807 H   0  0  0  0  0  0  0  0  0  0  0  0
  152.1377  144.9537  161.8144 H   0  0  0  0  0  0  0  0  0  0  0  0
  151.6137  145.8951  159.5277 H   0  0  0  0  0  0  0  0  0  0  0  0
  153.2275  145.2242  159.6232 H   0  0  0  0  0  0  0  0  0  0  0  0
  150.7682  143.8679  158.4211 H   0  0  0  0  0  0  0  0  0  0  0  0
  152.1731  144.4357  157.5490 H   0  0  0  0  0  0  0  0  0  0  0  0
  153.6072  142.7889  158.6961 H   0  0  0  0  0  0  0  0  0  0  0  0
  151.1061  141.5586  157.4449 H   0  0  0  0  0  0  0  0  0  0  0  0
  152.5502  142.0761  156.6095 H   0  0  0  0  0  0  0  0  0  0  0  0
  1  2  3  0  0  0  0
  2  3  1  0  0  0  0
  3  8  1  0  0  0  0
  3  4  2  0  0  0  0
  4  5  1  0  0  0  0
  4 21  1  0  0  0  0
  5  6  2  0  0  0  0
  5 22  1  0  0  0  0
  6  7  1  0  0  0  0
  6 23  1  0  0  0  0
  7  8  2  0  0  0  0
  8  9  1  0  0  0  0
  9 10  1  0  0  0  0
  9 24  1  0  0  0  0
 10 11  1  0  0  0  0
 10 25  1  0  0  0  0
 10 26  1  0  0  0  0
 11 20  1  0  0  0  0
 11 12  1  0  0  0  0
 11 27  1  0  0  0  0
 12 13  1  0  0  0  0
 12 28  1  0  0  0  0
 12 29  1  0  0  0  0
 13 18  1  0  0  0  0
 13 14  1  0  0  0  0
 14 15  1  0  0  0  0
 14 30  1  0  0  0  0
 14 31  1  0  0  0  0
 15 16  1  0  0  0  0
 15 32  1  0  0  0  0
 15 33  1  0  0  0  0
 16 17  1  0  0  0  0
 16 34  1  0  0  0  0
 16 35  1  0  0  0  0
 17 18  1  0  0  0  0
 17 36  1  0  0  0  0
 17 37  1  0  0  0  0
 18 19  1  0  0  0  0
 18 38  1  0  0  0  0
 19 20  1  0  0  0  0
 19 39  1  0  0  0  0
 19 40  1  0  0  0  0
M  END
> <s_m_source_file>
AV-unprocessed.smi

> <i_m_source_file_index>
2439

> <i_lp_mmshare_version>
43012

> <i_f3d_flags>
0

> <s_epik_input>
TiNDYzFbY0hdW2NIXVtjSF1uYzFbTkhdW0NIMl1bQ0BIXShbQ0gyXTIpT1tDSDJdW0NAQEhdKE4yMylbQ0gyXVtDSDJdW0NIMl1bQ0gyXTM=

> <s_epik_cmdline>
J2VwaWtfcHl0aG9uJywgJy1waCcsICc3LjAnLCAnLXRuJywgJzgnLCAnLW1hJywgJzIwMCcsICctbWV0YWxfYmluZGluZycsICctaW1hZScsICc8aW5maWxlLm1hZT4nLCAnLW9tYWUnLCAnPG91dGZpbGUubWFlPic=

> <r_epik_Ionization_Penalty>
1.22355

> <r_epik_Ionization_Penalty_Charging>
0

> <r_epik_Ionization_Penalty_Neutral>
1.22355

> <r_epik_State_Penalty>
1.29103

> <r_epik_Charging_Adjusted_Penalty>
1.29103

> <i_epik_Tot_Q>
0

> <i_epik_Tot_abs_Q>
0

> <r_epik_Metal_State_Penalty>
1.29103

> <b_epik_Metal_Only>
0

> <s_lp_Force_Field>
OPLS_2005

> <r_lp_Energy>
40.6055

> <b_lp_Chiralities_Consistent>
1

> <s_lp_Variant>
AV-unprocessed.smi:2439-11

> <Gold.Version>
5.8.1

> <Gold.Id.Protein>
6NUR|6NUR_protein|mol2

> <Gold.PLP.Fitness>
42.1155

> <Gold.PLP.PLP>
-34.3381

> <Gold.PLP.part.hbond>
-2.0000

> <Gold.PLP.part.metal>
0.0000

> <Gold.PLP.part.buried>
-1.1229

> <Gold.PLP.part.nonpolar>
-29.2175

> <Gold.PLP.part.repulsive>
0.2258

> <Gold.PLP.ligand.clash>
0.0000

> <Gold.PLP.ligand.torsion>
0.3623

> <Gold.PLP.Chemscore.Hbond>
1.8320

> <Gold.PLP.Chemscore.CHOScore>
1.0000

> <Gold.PLP.Chemscore.Metal>
0.0000

> <Gold.Chemscore.Hbonds>
donor molecule, donor type, donor heavy atom, donor atom, acceptor molecule, acceptor atom, score
      P1  H  7997  8008       L1    20  0.88
      P1  H 10752 10764       L1     1  1.00
      L1  C     6    23       P1  8028  0.68

> <Gold.PLP.Chemscore.Internal.Correction>
0.0061

> <Gold.Rescore>
     Score         DG    S(hbond)    S(metal)    S(lipo)     H(rot)  DE(clash)    DE(int)     intcor
     19.41     -21.41       1.77        0.00     112.95       1.25       1.67       0.33       ----

> <Gold.Chemscore.Fitness>
19.4106

> <Gold.Chemscore.DG>
-21.4064

> <Gold.Chemscore.ZeroCoef>
-5.4800

> <Gold.Chemscore.Hbond>
1.7688

> <Gold.Chemscore.Metal>
0.0000

> <Gold.Chemscore.Lipo>
112.9463

> <Gold.Chemscore.Internal_Hbond>
0.0000

> <Gold.Chemscore.DEClash>
1.6664

> <Gold.Chemscore.DEInternal>
0.3295

> <Gold.Chemscore.Rot>
1.2485

> <Gold.Chemscore.Internal.Correction>
   9.000000E+99

> <Gold.Chemscore.Hbonds>
donor molecule, donor type, donor heavy atom, donor atom, acceptor molecule, acceptor atom, score
      P1  H  7997  8008       L1    20  0.78
      P1  H 10752 10764       L1     1  1.00

> <Gold.Chemscore.Hbond.Weighted>
-5.9078

> <Gold.Chemscore.Metal.Weighted>
-0.0000

> <Gold.Chemscore.Lipo.Weighted>
-13.2147

> <Gold.Chemscore.Internal_Hbond.Weighted>
0.0000

> <Gold.Chemscore.DEClash.Weighted>
1.6664

> <Gold.Chemscore.DEInternal.Weighted>
0.3295

> <Gold.Chemscore.Rot.Weighted>
3.1961

> <Gold.Chemscore.Internal.Correction.Weighted>
   9.000000E+99

> <Gold.Protein.RotatedTorsions>
[ 6907 6896 6895 6894 ] final -159.95 input  -60.11 | X-H torsion
[ 7974 7965 7964 7962 ] final   61.33 input  175.53 | X-H torsion
[ 8008 7997 7996 7995 ] final  -68.91 input   59.86 | X-H torsion
[ 10167 10162 10161 10158 ] final  -79.77 input  -65.29 | X-H torsion
[ 10718 10713 10712 10709 ] final -106.34 input   66.30 | X-H torsion
[ 10763 10752 10751 10750 ] final  -59.82 input  -60.55 | X-H torsion
[ 11005 11000 10999 10996 ] final  157.53 input  -57.11 | X-H torsion

> <Gold.Protein.ActiveResidues>
 VAL166  LYS551  ARG553  GLY616  TRP617  ASP618  TYR619  PRO620  LYS621  CYS622 
 ASP623  PHE694  ASN695  SER759  ASP760  ASP761  ALA762  ILE779  LEU786  VAL792 
 PHE793  MET794  SER795  GLU796  ALA797  LYS798  CYS799  TRP800  GLU811  SER814 

> <Gold.Protein.RotatedAtoms>
  151.3415  133.3960  159.2671 H   0  0  0  0  0  0  0  0  0  0  0  0  # atno 6907 bound_to 6896
  150.9874  134.9217  159.7890 H   0  0  0  0  0  0  0  0  0  0  0  0  # atno 6908 bound_to 6896
  152.5236  134.3380  159.9259 H   0  0  0  0  0  0  0  0  0  0  0  0  # atno 6909 bound_to 6896
  145.8860  139.3477  143.0678 H   0  0  0  0  0  0  0  0  0  0  0  0  # atno 7974 bound_to 7965
  154.4901  140.0863  156.7575 H   0  0  0  0  0  0  0  0  0  0  0  0  # atno 8008 bound_to 7997
  155.4252  140.3447  155.4256 H   0  0  0  0  0  0  0  0  0  0  0  0  # atno 8009 bound_to 7997
  156.1318  140.1503  156.9042 H   0  0  0  0  0  0  0  0  0  0  0  0  # atno 8010 bound_to 7997
  140.4564  143.2467  151.8414 H   0  0  0  0  0  0  0  0  0  0  0  0  # atno 10167 bound_to 10162
  156.0386  130.5608  150.7667 H   0  0  0  0  0  0  0  0  0  0  0  0  # atno 10718 bound_to 10713
  154.2596  135.6311  153.5270 H   0  0  0  0  0  0  0  0  0  0  0  0  # atno 10763 bound_to 10752
  152.9898  135.5584  154.5719 H   0  0  0  0  0  0  0  0  0  0  0  0  # atno 10764 bound_to 10752
  154.5265  135.2885  155.1193 H   0  0  0  0  0  0  0  0  0  0  0  0  # atno 10765 bound_to 10752
  140.1778  134.8497  157.2767 H   0  0  0  0  0  0  0  0  0  0  0  0  # atno 11005 bound_to 11000
  145.8966  140.9269  143.0524 LP  0  0  0  0  0  0  0  0  0  0  0  0  # atno 17320 bound_to 7965
  144.6728  140.0977  143.7462 LP  0  0  0  0  0  0  0  0  0  0  0  0  # atno 17321 bound_to 7965
  139.4801  144.5060  151.8997 LP  0  0  0  0  0  0  0  0  0  0  0  0  # atno 17342 bound_to 10162
  140.4146  144.2323  150.5888 LP  0  0  0  0  0  0  0  0  0  0  0  0  # atno 17343 bound_to 10162
  157.5172  131.0929  151.0124 LP  0  0  0  0  0  0  0  0  0  0  0  0  # atno 17370 bound_to 10713
  157.0464  130.5769  149.5363 LP  0  0  0  0  0  0  0  0  0  0  0  0  # atno 17371 bound_to 10713
  140.2302  134.3918  155.7525 LP  0  0  0  0  0  0  0  0  0  0  0  0  # atno 17394 bound_to 11000
  141.2221  133.7211  156.8629 LP  0  0  0  0  0  0  0  0  0  0  0  0  # atno 17395 bound_to 11000

$$$$
