AV-unprocessed.smi:269|AV-procd|sdf|2043|dock3
  -GOLD-   2262021263D 1   1.00000     0.00000
 Structure written by MMmdl.
 61 64  0  0  0  0  0  0  0  0  1 V2000
  144.3764  132.0100  150.9081 C   0  0  0  0  0  0  0  0  0  0  0  0
  145.2480  133.2056  151.3152 C   0  0  0  0  0  0  0  0  0  0  0  0
  145.7142  133.0802  152.6907 N   0  0  0  0  0  0  0  0  0  0  0  0
  147.0005  133.0932  153.0733 C   0  0  0  0  0  0  0  0  0  0  0  0
  147.9417  133.1920  152.2863 O   0  0  0  0  0  0  0  0  0  0  0  0
  147.2697  132.9978  154.5793 C   0  0  0  0  0  0  0  0  0  0  0  0
  148.1723  134.0477  155.1034 N   0  0  0  0  0  0  0  0  0  0  0  0
  147.5937  135.3685  154.8307 C   0  0  0  0  0  0  0  0  0  0  0  0
  148.4699  136.4701  155.4544 C   0  0  0  0  0  0  0  0  0  0  0  0
  149.8258  136.3907  154.9274 N   0  0  0  0  0  0  0  0  0  0  0  0
  150.6173  137.4177  155.3003 C   0  0  0  0  0  0  0  0  0  0  0  0
  151.9045  137.1229  155.6048 N   0  0  0  0  0  0  0  0  0  0  0  0
  152.7408  138.0954  155.9803 C   0  0  0  0  0  0  0  0  0  0  0  0
  152.4969  139.4009  156.1155 N   0  0  0  0  0  0  0  0  0  0  0  0
  151.2008  139.6991  155.8114 C   0  0  0  0  0  0  0  0  0  0  0  0
  150.2016  138.7762  155.3926 C   0  0  0  0  0  0  0  0  0  0  0  0
  149.0065  139.4454  155.1597 N   0  0  0  0  0  0  0  0  0  0  0  0
  149.2831  140.6924  155.4269 C   0  0  0  0  0  0  0  0  0  0  0  0
  150.5741  140.9335  155.8425 N   0  0  0  0  0  0  0  0  0  0  0  0
  151.1492  142.2217  156.2042 C   0  0  0  0  0  0  0  0  0  0  0  0
  151.2841  142.4717  157.7361 C   0  0  0  0  0  0  0  0  0  0  0  0
  149.8946  142.4040  158.4329 C   0  0  0  0  0  0  0  0  0  0  0  0
  149.1431  143.5866  158.2446 O   0  0  0  0  0  0  0  0  0  0  0  0
  152.2269  141.4116  158.3600 C   0  0  0  0  0  0  0  0  0  0  0  0
  152.6691  141.7658  159.7918 C   0  0  0  0  0  0  0  0  0  0  0  0
  153.2825  143.0479  159.8102 O   0  0  0  0  0  0  0  0  0  0  0  0
  152.4025  144.0870  159.4018 C   0  0  0  0  0  0  0  0  0  0  0  0
  151.9544  143.8527  157.9481 C   0  0  0  0  0  0  0  0  0  0  0  0
  150.4164  135.0749  155.1377 C   0  0  0  0  0  0  0  0  0  0  0  0
  149.5224  133.9828  154.5217 C   0  0  0  0  0  0  0  0  0  0  0  0
  144.0632  132.0953  149.8674 H   0  0  0  0  0  0  0  0  0  0  0  0
  143.4758  131.9485  151.5199 H   0  0  0  0  0  0  0  0  0  0  0  0
  144.9197  131.0707  151.0165 H   0  0  0  0  0  0  0  0  0  0  0  0
  146.1203  133.2636  150.6637 H   0  0  0  0  0  0  0  0  0  0  0  0
  144.6990  134.1393  151.1833 H   0  0  0  0  0  0  0  0  0  0  0  0
  145.0075  132.9976  153.4073 H   0  0  0  0  0  0  0  0  0  0  0  0
  146.3234  133.0186  155.1237 H   0  0  0  0  0  0  0  0  0  0  0  0
  147.7105  132.0175  154.7663 H   0  0  0  0  0  0  0  0  0  0  0  0
  147.4943  135.5288  153.7554 H   0  0  0  0  0  0  0  0  0  0  0  0
  146.5908  135.4288  155.2557 H   0  0  0  0  0  0  0  0  0  0  0  0
  148.0465  137.4504  155.2319 H   0  0  0  0  0  0  0  0  0  0  0  0
  148.4832  136.3655  156.5403 H   0  0  0  0  0  0  0  0  0  0  0  0
  153.7498  137.7827  156.2060 H   0  0  0  0  0  0  0  0  0  0  0  0
  148.5446  141.4755  155.3345 H   0  0  0  0  0  0  0  0  0  0  0  0
  152.1261  142.2957  155.7245 H   0  0  0  0  0  0  0  0  0  0  0  0
  150.5408  143.0012  155.7439 H   0  0  0  0  0  0  0  0  0  0  0  0
  149.3119  141.5628  158.0579 H   0  0  0  0  0  0  0  0  0  0  0  0
  149.9875  142.2431  159.5055 H   0  0  0  0  0  0  0  0  0  0  0  0
  149.1681  143.8155  157.3280 H   0  0  0  0  0  0  0  0  0  0  0  0
  151.7556  140.4281  158.3588 H   0  0  0  0  0  0  0  0  0  0  0  0
  153.1237  141.3188  157.7462 H   0  0  0  0  0  0  0  0  0  0  0  0
  151.8327  141.7371  160.4907 H   0  0  0  0  0  0  0  0  0  0  0  0
  153.3921  141.0311  160.1469 H   0  0  0  0  0  0  0  0  0  0  0  0
  151.5515  144.1521  160.0801 H   0  0  0  0  0  0  0  0  0  0  0  0
  152.9318  145.0371  159.4767 H   0  0  0  0  0  0  0  0  0  0  0  0
  152.8369  143.9268  157.3108 H   0  0  0  0  0  0  0  0  0  0  0  0
  151.2926  144.6583  157.6295 H   0  0  0  0  0  0  0  0  0  0  0  0
  151.4076  135.0417  154.6836 H   0  0  0  0  0  0  0  0  0  0  0  0
  150.5461  134.8864  156.2040 H   0  0  0  0  0  0  0  0  0  0  0  0
  149.9864  133.0163  154.7175 H   0  0  0  0  0  0  0  0  0  0  0  0
  149.4736  134.0982  153.4374 H   0  0  0  0  0  0  0  0  0  0  0  0
  1  2  1  0  0  0  0
  1 31  1  0  0  0  0
  1 32  1  0  0  0  0
  1 33  1  0  0  0  0
  2  3  1  0  0  0  0
  2 34  1  0  0  0  0
  2 35  1  0  0  0  0
  3  4  1  0  0  0  0
  3 36  1  0  0  0  0
  4  5  2  0  0  0  0
  4  6  1  0  0  0  0
  6  7  1  0  0  0  0
  6 37  1  0  0  0  0
  6 38  1  0  0  0  0
  7 30  1  0  0  0  0
  7  8  1  0  0  0  0
  8  9  1  0  0  0  0
  8 39  1  0  0  0  0
  8 40  1  0  0  0  0
  9 10  1  0  0  0  0
  9 41  1  0  0  0  0
  9 42  1  0  0  0  0
 10 11  1  0  0  0  0
 10 29  1  0  0  0  0
 11 16  1  0  0  0  0
 11 12  2  0  0  0  0
 12 13  1  0  0  0  0
 13 14  2  0  0  0  0
 13 43  1  0  0  0  0
 14 15  1  0  0  0  0
 15 19  1  0  0  0  0
 15 16  2  0  0  0  0
 16 17  1  0  0  0  0
 17 18  2  0  0  0  0
 18 19  1  0  0  0  0
 18 44  1  0  0  0  0
 19 20  1  0  0  0  0
 20 21  1  0  0  0  0
 20 45  1  0  0  0  0
 20 46  1  0  0  0  0
 21 28  1  0  0  0  0
 21 22  1  0  0  0  0
 21 24  1  0  0  0  0
 22 23  1  0  0  0  0
 22 47  1  0  0  0  0
 22 48  1  0  0  0  0
 23 49  1  0  0  0  0
 24 25  1  0  0  0  0
 24 50  1  0  0  0  0
 24 51  1  0  0  0  0
 25 26  1  0  0  0  0
 25 52  1  0  0  0  0
 25 53  1  0  0  0  0
 26 27  1  0  0  0  0
 27 28  1  0  0  0  0
 27 54  1  0  0  0  0
 27 55  1  0  0  0  0
 28 56  1  0  0  0  0
 28 57  1  0  0  0  0
 29 30  1  0  0  0  0
 29 58  1  0  0  0  0
 29 59  1  0  0  0  0
 30 60  1  0  0  0  0
 30 61  1  0  0  0  0
M  END
> <s_m_source_file>
AV-unprocessed.smi

> <i_m_source_file_index>
269

> <i_lp_mmshare_version>
43012

> <i_f3d_flags>
0

> <s_epik_input>
W0NIM11bQ0gyXVtOSF1DKD1PKVtDSDJdTjFbQ0gyXVtDSDJdTihbQ0gyXVtDSDJdMSljKG5bY0hdbjIpYyhjMjMpbltjSF1uM1tDSDJdQzQoW0NIMl1bT0hdKVtDSDJdW0NIMl1PW0NIMl1bQ0gyXTQ=

> <s_epik_cmdline>
J2VwaWtfcHl0aG9uJywgJy1waCcsICc3LjAnLCAnLXRuJywgJzgnLCAnLW1hJywgJzIwMCcsICctbWV0YWxfYmluZGluZycsICctaW1hZScsICc8aW5maWxlLm1hZT4nLCAnLW9tYWUnLCAnPG91dGZpbGUubWFlPic=

> <r_lp_tautomer_probability>
1

> <r_epik_Ionization_Penalty>
0.90547

> <r_epik_Ionization_Penalty_Charging>
0

> <r_epik_Ionization_Penalty_Neutral>
0.90547

> <r_epik_State_Penalty>
0.940417

> <r_epik_Charging_Adjusted_Penalty>
0.940417

> <i_epik_Tot_Q>
0

> <i_epik_Tot_abs_Q>
0

> <r_epik_Metal_State_Penalty>
0.947257

> <b_epik_Metal_Only>
0

> <s_lp_Force_Field>
OPLS_2005

> <r_lp_Energy>
47.1209

> <b_lp_Chiralities_Consistent>
1

> <s_lp_Variant>
AV-unprocessed.smi:269-2

> <Gold.Version>
5.8.1

> <Gold.Id.Protein>
6NUR|6NUR_protein|mol2

> <Gold.PLP.Fitness>
54.4840

> <Gold.PLP.PLP>
-47.1909

> <Gold.PLP.part.hbond>
-4.0000

> <Gold.PLP.part.metal>
0.0000

> <Gold.PLP.part.buried>
-9.5744

> <Gold.PLP.part.nonpolar>
-35.9121

> <Gold.PLP.part.repulsive>
0.5675

> <Gold.PLP.ligand.clash>
0.0000

> <Gold.PLP.ligand.torsion>
0.9761

> <Gold.PLP.Chemscore.Hbond>
2.9600

> <Gold.PLP.Chemscore.CHOScore>
0.0000

> <Gold.PLP.Chemscore.Metal>
0.0000

> <Gold.Chemscore.Hbonds>
donor molecule, donor type, donor heavy atom, donor atom, acceptor molecule, acceptor atom, score
      L1  H    23    49       P1  8028  1.00
      P1  H  7997  8010       L1    14  1.00
      P1  H 10752 10763       L1    12  0.86

> <Gold.PLP.Chemscore.Internal.Correction>
0.3652

> <Gold.Rescore>
     Score         DG    S(hbond)    S(metal)    S(lipo)     H(rot)  DE(clash)    DE(int)     intcor
     13.10     -16.68       2.20        0.00     105.64       3.32       1.72       1.86       ----

> <Gold.Chemscore.Fitness>
13.1030

> <Gold.Chemscore.DG>
-16.6833

> <Gold.Chemscore.ZeroCoef>
-5.4800

> <Gold.Chemscore.Hbond>
2.1994

> <Gold.Chemscore.Metal>
0.0000

> <Gold.Chemscore.Lipo>
105.6382

> <Gold.Chemscore.Internal_Hbond>
0.0000

> <Gold.Chemscore.DEClash>
1.7164

> <Gold.Chemscore.DEInternal>
1.8639

> <Gold.Chemscore.Rot>
3.3213

> <Gold.Chemscore.Internal.Correction>
   9.000000E+99

> <Gold.Chemscore.Hbonds>
donor molecule, donor type, donor heavy atom, donor atom, acceptor molecule, acceptor atom, score
      L1  H    23    49       P1  8028  0.25
      P1  H  7997  8010       L1    14  0.29
      P1  H 10752 10763       L1    12  0.59

> <Gold.Chemscore.Hbond.Weighted>
-7.3461

> <Gold.Chemscore.Metal.Weighted>
-0.0000

> <Gold.Chemscore.Lipo.Weighted>
-12.3597

> <Gold.Chemscore.Internal_Hbond.Weighted>
0.0000

> <Gold.Chemscore.DEClash.Weighted>
1.7164

> <Gold.Chemscore.DEInternal.Weighted>
1.8639

> <Gold.Chemscore.Rot.Weighted>
8.5024

> <Gold.Chemscore.Internal.Correction.Weighted>
   9.000000E+99

> <Gold.Protein.RotatedTorsions>
[ 6907 6896 6895 6894 ] final   32.92 input  -60.11 | X-H torsion
[ 7974 7965 7964 7962 ] final  100.68 input  175.53 | X-H torsion
[ 8008 7997 7996 7995 ] final   78.65 input   59.86 | X-H torsion
[ 10167 10162 10161 10158 ] final  -50.72 input  -65.29 | X-H torsion
[ 10718 10713 10712 10709 ] final   42.21 input   66.30 | X-H torsion
[ 10763 10752 10751 10750 ] final   65.08 input  -60.55 | X-H torsion
[ 11005 11000 10999 10996 ] final   12.29 input  -57.11 | X-H torsion

> <Gold.Protein.ActiveResidues>
 VAL166  LYS551  ARG553  GLY616  TRP617  ASP618  TYR619  PRO620  LYS621  CYS622 
 ASP623  PHE694  ASN695  SER759  ASP760  ASP761  ALA762  ILE779  LEU786  VAL792 
 PHE793  MET794  SER795  GLU796  ALA797  LYS798  CYS799  TRP800  GLU811  SER814 

> <Gold.Protein.RotatedAtoms>
  152.0812  134.9470  160.0573 H   0  0  0  0  0  0  0  0  0  0  0  0  # atno 6907 bound_to 6896
  152.0758  133.4123  159.4487 H   0  0  0  0  0  0  0  0  0  0  0  0  # atno 6908 bound_to 6896
  150.6836  134.2959  159.4729 H   0  0  0  0  0  0  0  0  0  0  0  0  # atno 6909 bound_to 6896
  145.3824  139.2377  143.3396 H   0  0  0  0  0  0  0  0  0  0  0  0  # atno 7974 bound_to 7965
  155.8587  140.3455  155.5742 H   0  0  0  0  0  0  0  0  0  0  0  0  # atno 8008 bound_to 7997
  155.7957  140.0878  157.2004 H   0  0  0  0  0  0  0  0  0  0  0  0  # atno 8009 bound_to 7997
  154.4011  140.1475  156.3203 H   0  0  0  0  0  0  0  0  0  0  0  0  # atno 8010 bound_to 7997
  140.6624  143.2647  151.4399 H   0  0  0  0  0  0  0  0  0  0  0  0  # atno 10167 bound_to 10162
  157.4022  130.7867  149.7358 H   0  0  0  0  0  0  0  0  0  0  0  0  # atno 10718 bound_to 10713
  153.0081  135.5370  154.6610 H   0  0  0  0  0  0  0  0  0  0  0  0  # atno 10763 bound_to 10752
  154.5819  135.2850  155.0726 H   0  0  0  0  0  0  0  0  0  0  0  0  # atno 10764 bound_to 10752
  154.1852  135.6509  153.5097 H   0  0  0  0  0  0  0  0  0  0  0  0  # atno 10765 bound_to 10752
  140.4936  134.0816  155.7777 H   0  0  0  0  0  0  0  0  0  0  0  0  # atno 11005 bound_to 11000
  146.2836  140.4493  142.8766 LP  0  0  0  0  0  0  0  0  0  0  0  0  # atno 17320 bound_to 7965
  144.8498  140.6984  143.6175 LP  0  0  0  0  0  0  0  0  0  0  0  0  # atno 17321 bound_to 7965
  139.5862  144.1600  152.2031 LP  0  0  0  0  0  0  0  0  0  0  0  0  # atno 17342 bound_to 10162
  140.0940  144.5596  150.7034 LP  0  0  0  0  0  0  0  0  0  0  0  0  # atno 17343 bound_to 10162
  155.9826  130.4008  150.3405 LP  0  0  0  0  0  0  0  0  0  0  0  0  # atno 17370 bound_to 10713
  157.1534  131.0327  151.2874 LP  0  0  0  0  0  0  0  0  0  0  0  0  # atno 17371 bound_to 10713
  141.1471  133.9035  157.2188 LP  0  0  0  0  0  0  0  0  0  0  0  0  # atno 17394 bound_to 11000
  139.9754  135.0115  156.9619 LP  0  0  0  0  0  0  0  0  0  0  0  0  # atno 17395 bound_to 11000

$$$$
