AV-unprocessed.smi:2849|AV-procd|sdf|10959|dock1
  -GOLD-   2272015413D 1   1.00000     0.00000
 Structure written by MMmdl.
 55 58  0  0  0  0  0  0  0  0  2 V2000
  145.9825  134.1404  151.1857 C   0  0  0  0  0  0  0  0  0  0  0  0
  146.2518  135.3246  152.0357 N   0  3  2  0  0  0  0  0  0  0  0  0
  146.2365  135.0619  153.4955 C   0  0  2  0  0  0  0  0  0  0  0  0
  144.8013  134.7635  153.9984 C   0  0  0  0  0  0  0  0  0  0  0  0
  143.7621  135.8242  153.5892 C   0  0  0  0  0  0  0  0  0  0  0  0
  143.9467  136.3010  152.1356 C   0  0  0  0  0  0  0  0  0  0  0  0
  145.4259  136.5164  151.7236 C   0  0  1  0  0  0  0  0  0  0  0  0
  146.0976  137.7643  152.3426 C   0  0  0  0  0  0  0  0  0  0  0  0
  146.4181  137.6365  153.8509 C   0  0  2  0  0  0  0  0  0  0  0  0
  147.3991  138.6551  154.2208 N   0  0  0  0  0  0  0  0  0  0  0  0
  148.0448  138.7181  155.3947 C   0  0  0  0  0  0  0  0  0  0  0  0
  147.8821  137.8992  156.2983 O   0  0  0  0  0  0  0  0  0  0  0  0
  148.8677  139.7805  155.4364 N   0  0  0  0  0  0  0  0  0  0  0  0
  149.6993  140.2399  156.4956 C   0  0  0  0  0  0  0  0  0  0  0  0
  150.2784  139.4174  157.4910 C   0  0  0  0  0  0  0  0  0  0  0  0
  151.0829  140.0096  158.4837 C   0  0  0  0  0  0  0  0  0  0  0  0
  151.2976  141.4078  158.4564 C   0  0  0  0  0  0  0  0  0  0  0  0
  152.0848  142.0416  159.4377 N   0  0  0  0  0  0  0  0  0  0  0  0
  152.7650  141.2968  160.4854 C   0  0  0  0  0  0  0  0  0  0  0  0
  153.4252  142.3681  161.3517 C   0  0  0  0  0  0  0  0  0  0  0  0
  152.4589  143.5484  161.2422 C   0  0  0  0  0  0  0  0  0  0  0  0
  151.8774  143.4287  159.8284 C   0  0  0  0  0  0  0  0  0  0  0  0
  150.7473  142.1925  157.5006 N   0  0  0  0  0  0  0  0  0  0  0  0
  149.9771  141.6206  156.5522 C   0  0  0  0  0  0  0  0  0  0  0  0
  146.9478  136.2274  154.2218 C   0  0  0  0  0  0  0  0  0  0  0  0
  144.9736  133.7523  151.3222 H   0  0  0  0  0  0  0  0  0  0  0  0
  146.6858  133.3396  151.4158 H   0  0  0  0  0  0  0  0  0  0  0  0
  146.1063  134.3936  150.1326 H   0  0  0  0  0  0  0  0  0  0  0  0
  146.8364  134.1693  153.6800 H   0  0  0  0  0  0  0  0  0  0  0  0
  144.4833  133.7989  153.6025 H   0  0  0  0  0  0  0  0  0  0  0  0
  144.8002  134.6445  155.0824 H   0  0  0  0  0  0  0  0  0  0  0  0
  142.7589  135.4150  153.7121 H   0  0  0  0  0  0  0  0  0  0  0  0
  143.7943  136.6684  154.2726 H   0  0  0  0  0  0  0  0  0  0  0  0
  143.5025  135.5585  151.4720 H   0  0  0  0  0  0  0  0  0  0  0  0
  143.3736  137.2140  151.9714 H   0  0  0  0  0  0  0  0  0  0  0  0
  145.4434  136.6601  150.6420 H   0  0  0  0  0  0  0  0  0  0  0  0
  147.0303  137.9346  151.8017 H   0  0  0  0  0  0  0  0  0  0  0  0
  145.4871  138.6505  152.1637 H   0  0  0  0  0  0  0  0  0  0  0  0
  145.5106  137.8432  154.4133 H   0  0  0  0  0  0  0  0  0  0  0  0
  147.5924  139.3715  153.5363 H   0  0  0  0  0  0  0  0  0  0  0  0
  148.8679  140.3659  154.6138 H   0  0  0  0  0  0  0  0  0  0  0  0
  150.1327  138.3497  157.5209 H   0  0  0  0  0  0  0  0  0  0  0  0
  151.5161  139.3856  159.2511 H   0  0  0  0  0  0  0  0  0  0  0  0
  152.0326  140.7306  161.0623 H   0  0  0  0  0  0  0  0  0  0  0  0
  153.4982  140.6006  160.0767 H   0  0  0  0  0  0  0  0  0  0  0  0
  153.5884  142.0413  162.3790 H   0  0  0  0  0  0  0  0  0  0  0  0
  154.3915  142.6433  160.9266 H   0  0  0  0  0  0  0  0  0  0  0  0
  151.6604  143.4324  161.9762 H   0  0  0  0  0  0  0  0  0  0  0  0
  152.9400  144.5103  161.4212 H   0  0  0  0  0  0  0  0  0  0  0  0
  152.4142  144.0744  159.1328 H   0  0  0  0  0  0  0  0  0  0  0  0
  150.8234  143.7081  159.8150 H   0  0  0  0  0  0  0  0  0  0  0  0
  149.5646  142.2932  155.8143 H   0  0  0  0  0  0  0  0  0  0  0  0
  146.9023  136.0814  155.3017 H   0  0  0  0  0  0  0  0  0  0  0  0
  148.0069  136.1763  153.9630 H   0  0  0  0  0  0  0  0  0  0  0  0
  147.2024  135.5850  151.8154 H   0  0  0  0  0  0  0  0  0  0  0  0
  1  2  1  0  0  0  0
  1 26  1  0  0  0  0
  1 27  1  0  0  0  0
  1 28  1  0  0  0  0
  2  7  1  0  0  0  0
  2  3  1  0  0  0  0
  2 55  1  0  0  0  0
  3 25  1  0  0  0  0
  3  4  1  0  0  0  0
  3 29  1  0  0  0  0
  4  5  1  0  0  0  0
  4 30  1  0  0  0  0
  4 31  1  0  0  0  0
  5  6  1  0  0  0  0
  5 32  1  0  0  0  0
  5 33  1  0  0  0  0
  6  7  1  0  0  0  0
  6 34  1  0  0  0  0
  6 35  1  0  0  0  0
  7  8  1  0  0  0  0
  7 36  1  0  0  0  0
  8  9  1  0  0  0  0
  8 37  1  0  0  0  0
  8 38  1  0  0  0  0
  9 10  1  0  0  0  0
  9 25  1  0  0  0  0
  9 39  1  0  0  0  0
 10 11  1  0  0  0  0
 10 40  1  0  0  0  0
 11 12  2  0  0  0  0
 11 13  1  0  0  0  0
 13 14  1  0  0  0  0
 13 41  1  0  0  0  0
 14 24  1  0  0  0  0
 14 15  2  0  0  0  0
 15 16  1  0  0  0  0
 15 42  1  0  0  0  0
 16 17  2  0  0  0  0
 16 43  1  0  0  0  0
 17 18  1  0  0  0  0
 17 23  1  0  0  0  0
 18 22  1  0  0  0  0
 18 19  1  0  0  0  0
 19 20  1  0  0  0  0
 19 44  1  0  0  0  0
 19 45  1  0  0  0  0
 20 21  1  0  0  0  0
 20 46  1  0  0  0  0
 20 47  1  0  0  0  0
 21 22  1  0  0  0  0
 21 48  1  0  0  0  0
 21 49  1  0  0  0  0
 22 50  1  0  0  0  0
 22 51  1  0  0  0  0
 23 24  2  0  0  0  0
 24 52  1  0  0  0  0
 25 53  1  0  0  0  0
 25 54  1  0  0  0  0
M  CHG  1   2   1
M  END
> <s_m_source_file>
AV-unprocessed.smi

> <i_m_source_file_index>
2849

> <i_lp_mmshare_version>
43012

> <i_f3d_flags>
0

> <s_epik_input>
W0NIMl0xW0NIMl1bQ0gyXVtDQEhdKE4oW0NIM10pW0NIXTEyKVtDSDJdW0NASF0oW0NIMl0yKVtOSF1DKD1PKVtOSF1jM1tjSF1bY0hdYyhuW2NIXTMpTjRbQ0gyXVtDSDJdW0NIMl1bQ0gyXTQ=

> <s_epik_cmdline>
J2VwaWtfcHl0aG9uJywgJy1waCcsICc3LjAnLCAnLXRuJywgJzgnLCAnLW1hJywgJzIwMCcsICctbWV0YWxfYmluZGluZycsICctaW1hZScsICc8aW5maWxlLm1hZT4nLCAnLW9tYWUnLCAnPG91dGZpbGUubWFlPic=

> <r_lp_tautomer_probability>
1

> <r_epik_Ionization_Penalty>
0.07954

> <r_epik_Ionization_Penalty_Charging>
0.00089841

> <r_epik_Ionization_Penalty_Neutral>
0.0786416

> <r_epik_State_Penalty>
0.0689917

> <r_epik_Charging_Adjusted_Penalty>
0.0698901

> <i_epik_Tot_Q>
1

> <i_epik_Tot_abs_Q>
1

> <r_epik_Metal_State_Penalty>
0.060891

> <b_epik_Metal_Only>
0

> <s_lp_Force_Field>
OPLS_2005

> <r_lp_Energy>
61.678

> <b_lp_Chiralities_Consistent>
1

> <s_lp_Variant>
AV-unprocessed.smi:2849-3

> <Gold.Version>
5.8.1

> <Gold.Id.Protein>
6NUR|6NUR_protein|mol2

> <Gold.PLP.Fitness>
43.6568

> <Gold.PLP.PLP>
-35.4302

> <Gold.PLP.part.hbond>
-1.0000

> <Gold.PLP.part.metal>
0.0000

> <Gold.PLP.part.buried>
-4.0966

> <Gold.PLP.part.nonpolar>
-30.9376

> <Gold.PLP.part.repulsive>
0.1554

> <Gold.PLP.ligand.clash>
0.0000

> <Gold.PLP.ligand.torsion>
0.4623

> <Gold.PLP.Chemscore.Hbond>
2.0000

> <Gold.PLP.Chemscore.CHOScore>
1.0000

> <Gold.PLP.Chemscore.Metal>
0.0000

> <Gold.Chemscore.Hbonds>
donor molecule, donor type, donor heavy atom, donor atom, acceptor molecule, acceptor atom, score
      L1  H     2    55       P1  7948  2.00
      L1  C    24    52       P1  8028  1.00

> <Gold.PLP.Chemscore.Internal.Correction>
0.1512

> <Gold.Rescore>
     Score         DG    S(hbond)    S(metal)    S(lipo)     H(rot)  DE(clash)    DE(int)     intcor
     15.38     -17.29       1.00        0.00      94.29       1.00       0.00       1.90       ----

> <Gold.Chemscore.Fitness>
15.3811

> <Gold.Chemscore.DG>
-17.2862

> <Gold.Chemscore.ZeroCoef>
-5.4800

> <Gold.Chemscore.Hbond>
0.9982

> <Gold.Chemscore.Metal>
0.0000

> <Gold.Chemscore.Lipo>
94.2940

> <Gold.Chemscore.Internal_Hbond>
0.0000

> <Gold.Chemscore.DEClash>
0.0048

> <Gold.Chemscore.DEInternal>
1.9003

> <Gold.Chemscore.Rot>
1.0000

> <Gold.Chemscore.Internal.Correction>
   9.000000E+99

> <Gold.Chemscore.Hbonds>
donor molecule, donor type, donor heavy atom, donor atom, acceptor molecule, acceptor atom, score
      L1  H     2    55       P1  7948  1.00

> <Gold.Chemscore.Hbond.Weighted>
-3.3338

> <Gold.Chemscore.Metal.Weighted>
-0.0000

> <Gold.Chemscore.Lipo.Weighted>
-11.0324

> <Gold.Chemscore.Internal_Hbond.Weighted>
0.0000

> <Gold.Chemscore.DEClash.Weighted>
0.0048

> <Gold.Chemscore.DEInternal.Weighted>
1.9003

> <Gold.Chemscore.Rot.Weighted>
2.5600

> <Gold.Chemscore.Internal.Correction.Weighted>
   9.000000E+99

> <Gold.Protein.RotatedTorsions>
[ 6907 6896 6895 6894 ] final  129.35 input  -60.11 | X-H torsion
[ 7974 7965 7964 7962 ] final  -64.17 input  175.53 | X-H torsion
[ 8008 7997 7996 7995 ] final   28.17 input   59.86 | X-H torsion
[ 10167 10162 10161 10158 ] final  173.57 input  -65.29 | X-H torsion
[ 10718 10713 10712 10709 ] final  -43.69 input   66.30 | X-H torsion
[ 10763 10752 10751 10750 ] final  -32.84 input  -60.55 | X-H torsion
[ 11005 11000 10999 10996 ] final  128.92 input  -57.11 | X-H torsion

> <Gold.Protein.ActiveResidues>
 VAL166  LYS551  ARG553  GLY616  TRP617  ASP618  TYR619  PRO620  LYS621  CYS622 
 ASP623  PHE694  ASN695  SER759  ASP760  ASP761  ALA762  ILE779  LEU786  VAL792 
 PHE793  MET794  SER795  GLU796  ALA797  LYS798  CYS799  TRP800  GLU811  SER814 

> <Gold.Protein.RotatedAtoms>
  152.3632  133.6324  159.6030 H   0  0  0  0  0  0  0  0  0  0  0  0  # atno 6907 bound_to 6896
  150.7616  133.9389  159.3459 H   0  0  0  0  0  0  0  0  0  0  0  0  # atno 6908 bound_to 6896
  151.7224  135.0892  160.0337 H   0  0  0  0  0  0  0  0  0  0  0  0  # atno 6909 bound_to 6896
  145.7700  140.8817  143.0385 H   0  0  0  0  0  0  0  0  0  0  0  0  # atno 7974 bound_to 7965
  155.0544  140.3183  155.4681 H   0  0  0  0  0  0  0  0  0  0  0  0  # atno 8008 bound_to 7997
  156.2827  140.2140  156.5614 H   0  0  0  0  0  0  0  0  0  0  0  0  # atno 8009 bound_to 7997
  154.7184  140.0492  157.0603 H   0  0  0  0  0  0  0  0  0  0  0  0  # atno 8010 bound_to 7997
  139.5113  144.3245  152.0170 H   0  0  0  0  0  0  0  0  0  0  0  0  # atno 10167 bound_to 10162
  156.2464  130.4184  149.8700 H   0  0  0  0  0  0  0  0  0  0  0  0  # atno 10718 bound_to 10713
  153.8204  135.6875  153.4828 H   0  0  0  0  0  0  0  0  0  0  0  0  # atno 10763 bound_to 10752
  153.1572  135.4594  154.9720 H   0  0  0  0  0  0  0  0  0  0  0  0  # atno 10764 bound_to 10752
  154.7930  135.3308  154.7677 H   0  0  0  0  0  0  0  0  0  0  0  0  # atno 10765 bound_to 10752
  139.9587  134.9607  156.9072 H   0  0  0  0  0  0  0  0  0  0  0  0  # atno 11005 bound_to 11000
  144.6814  139.9842  143.7484 LP  0  0  0  0  0  0  0  0  0  0  0  0  # atno 17320 bound_to 7965
  146.0179  139.3225  143.0831 LP  0  0  0  0  0  0  0  0  0  0  0  0  # atno 17321 bound_to 7965
  140.2686  144.3988  150.6159 LP  0  0  0  0  0  0  0  0  0  0  0  0  # atno 17342 bound_to 10162
  140.6105  143.2169  151.6896 LP  0  0  0  0  0  0  0  0  0  0  0  0  # atno 17343 bound_to 10162
  156.6264  130.8648  151.3486 LP  0  0  0  0  0  0  0  0  0  0  0  0  # atno 17370 bound_to 10713
  157.7196  130.9542  150.1389 LP  0  0  0  0  0  0  0  0  0  0  0  0  # atno 17371 bound_to 10713
  140.5550  134.0590  155.7381 LP  0  0  0  0  0  0  0  0  0  0  0  0  # atno 17394 bound_to 11000
  141.1261  133.9380  157.2631 LP  0  0  0  0  0  0  0  0  0  0  0  0  # atno 17395 bound_to 11000

$$$$
