AV-unprocessed.smi:682|AV-procd|sdf|3326|dock3
  -GOLD-   22720 0293D 1   1.00000     0.00000
 Structure written by MMmdl.
 41 42  0  0  0  0  0  0  0  0  1 V2000
  150.6682  138.5935  154.5414 C   0  0  0  0  0  0  0  0  0  0  0  0
  149.5307  138.9823  153.7810 O   0  0  0  0  0  0  0  0  0  0  0  0
  148.6461  139.9499  154.3619 C   0  0  1  0  0  0  0  0  0  0  0  0
  149.4505  141.0857  155.0074 C   0  0  0  0  0  0  0  0  0  0  0  0
  147.5132  140.2949  153.3768 C   0  0  0  0  0  0  0  0  0  0  0  0
  146.7073  139.1213  153.9378 C   0  0  1  0  0  0  0  0  0  0  0  0
  146.9095  137.9113  153.1405 N   0  0  0  0  0  0  0  0  0  0  0  0
  145.9293  137.1974  152.5722 C   0  0  0  0  0  0  0  0  0  0  0  0
  144.7388  137.5043  152.6346 O   0  0  0  0  0  0  0  0  0  0  0  0
  146.4173  136.1127  151.9496 N   0  0  0  0  0  0  0  0  0  0  0  0
  145.6820  135.1164  151.2605 C   0  0  0  0  0  0  0  0  0  0  0  0
  144.4722  135.2389  150.5203 C   0  0  0  0  0  0  0  0  0  0  0  0
  144.0990  134.0689  150.0233 N   0  0  0  0  0  0  0  0  0  0  0  0
  145.0500  133.1936  150.4306 N   0  0  0  0  0  0  0  0  0  0  0  0
  144.9382  131.8006  150.0538 C   0  0  0  0  0  0  0  0  0  0  0  0
  146.0332  133.8022  151.1849 C   0  0  0  0  0  0  0  0  0  0  0  0
  147.5804  139.1928  155.2203 C   0  0  0  0  0  0  0  0  0  0  0  0
  148.0225  137.8757  155.8797 C   0  0  0  0  0  0  0  0  0  0  0  0
  146.9301  140.0086  156.3476 C   0  0  0  0  0  0  0  0  0  0  0  0
  151.3238  137.9902  153.9138 H   0  0  0  0  0  0  0  0  0  0  0  0
  150.3885  137.9792  155.3971 H   0  0  0  0  0  0  0  0  0  0  0  0
  151.2443  139.4472  154.8963 H   0  0  0  0  0  0  0  0  0  0  0  0
  148.8086  141.7858  155.5411 H   0  0  0  0  0  0  0  0  0  0  0  0
  149.9887  141.6767  154.2668 H   0  0  0  0  0  0  0  0  0  0  0  0
  150.1777  140.6996  155.7218 H   0  0  0  0  0  0  0  0  0  0  0  0
  147.0484  141.2573  153.5966 H   0  0  0  0  0  0  0  0  0  0  0  0
  147.7551  140.2197  152.3167 H   0  0  0  0  0  0  0  0  0  0  0  0
  145.6583  139.3748  154.1023 H   0  0  0  0  0  0  0  0  0  0  0  0
  147.8590  137.5811  153.0477 H   0  0  0  0  0  0  0  0  0  0  0  0
  147.4164  135.9751  151.9918 H   0  0  0  0  0  0  0  0  0  0  0  0
  143.8622  136.1085  150.3261 H   0  0  0  0  0  0  0  0  0  0  0  0
  145.7524  131.2262  150.4968 H   0  0  0  0  0  0  0  0  0  0  0  0
  144.9867  131.7068  148.9686 H   0  0  0  0  0  0  0  0  0  0  0  0
  143.9881  131.3978  150.4062 H   0  0  0  0  0  0  0  0  0  0  0  0
  146.8727  133.2594  151.5939 H   0  0  0  0  0  0  0  0  0  0  0  0
  147.1748  137.3427  156.3115 H   0  0  0  0  0  0  0  0  0  0  0  0
  148.7410  138.0537  156.6803 H   0  0  0  0  0  0  0  0  0  0  0  0
  148.4983  137.1908  155.1781 H   0  0  0  0  0  0  0  0  0  0  0  0
  146.0692  139.4887  156.7690 H   0  0  0  0  0  0  0  0  0  0  0  0
  146.5718  140.9767  155.9971 H   0  0  0  0  0  0  0  0  0  0  0  0
  147.6282  140.1979  157.1637 H   0  0  0  0  0  0  0  0  0  0  0  0
  1  2  1  0  0  0  0
  1 20  1  0  0  0  0
  1 21  1  0  0  0  0
  1 22  1  0  0  0  0
  2  3  1  0  0  0  0
  3 17  1  0  0  0  0
  3  4  1  0  0  0  0
  3  5  1  0  0  0  0
  4 23  1  0  0  0  0
  4 24  1  0  0  0  0
  4 25  1  0  0  0  0
  5  6  1  0  0  0  0
  5 26  1  0  0  0  0
  5 27  1  0  0  0  0
  6  7  1  0  0  0  0
  6 17  1  0  0  0  0
  6 28  1  0  0  0  0
  7  8  1  0  0  0  0
  7 29  1  0  0  0  0
  8  9  2  0  0  0  0
  8 10  1  0  0  0  0
 10 11  1  0  0  0  0
 10 30  1  0  0  0  0
 11 16  2  0  0  0  0
 11 12  1  0  0  0  0
 12 13  2  0  0  0  0
 12 31  1  0  0  0  0
 13 14  1  0  0  0  0
 14 15  1  0  0  0  0
 14 16  1  0  0  0  0
 15 32  1  0  0  0  0
 15 33  1  0  0  0  0
 15 34  1  0  0  0  0
 16 35  1  0  0  0  0
 17 18  1  0  0  0  0
 17 19  1  0  0  0  0
 18 36  1  0  0  0  0
 18 37  1  0  0  0  0
 18 38  1  0  0  0  0
 19 39  1  0  0  0  0
 19 40  1  0  0  0  0
 19 41  1  0  0  0  0
M  END
> <s_m_source_file>
AV-unprocessed.smi

> <i_m_source_file_index>
682

> <i_lp_mmshare_version>
43012

> <i_f3d_flags>
0

> <s_epik_input>
W0NIM11PW0NAQF0xKFtDSDNdKVtDSDJdW0NASF0oQzEoW0NIM10pW0NIM10pW05IXUMoPU8pW05IXWMyW2NIXW5uKFtDSDNdKVtjSF0y

> <s_epik_cmdline>
J2VwaWtfcHl0aG9uJywgJy1waCcsICc3LjAnLCAnLXRuJywgJzgnLCAnLW1hJywgJzIwMCcsICctbWV0YWxfYmluZGluZycsICctaW1hZScsICc8aW5maWxlLm1hZT4nLCAnLW9tYWUnLCAnPG91dGZpbGUubWFlPic=

> <r_lp_tautomer_probability>
1

> <r_epik_Ionization_Penalty>
0.000192302

> <r_epik_Ionization_Penalty_Charging>
0

> <r_epik_Ionization_Penalty_Neutral>
0.000192302

> <r_epik_State_Penalty>
-0

> <r_epik_Charging_Adjusted_Penalty>
0

> <i_epik_Tot_Q>
0

> <i_epik_Tot_abs_Q>
0

> <r_epik_Metal_State_Penalty>
-0

> <b_epik_Metal_Only>
0

> <s_lp_Force_Field>
OPLS_2005

> <r_lp_Energy>
26.143

> <b_lp_Chiralities_Consistent>
1

> <s_lp_Variant>
AV-unprocessed.smi:682-1

> <Gold.Version>
5.8.1

> <Gold.Id.Protein>
6NUR|6NUR_protein|mol2

> <Gold.PLP.Fitness>
34.1314

> <Gold.PLP.PLP>
-26.9050

> <Gold.PLP.part.hbond>
-1.9432

> <Gold.PLP.part.metal>
0.0000

> <Gold.PLP.part.buried>
-5.7118

> <Gold.PLP.part.nonpolar>
-23.2792

> <Gold.PLP.part.repulsive>
2.7059

> <Gold.PLP.ligand.clash>
0.0000

> <Gold.PLP.ligand.torsion>
0.5747

> <Gold.PLP.Chemscore.Hbond>
1.6625

> <Gold.PLP.Chemscore.CHOScore>
1.0000

> <Gold.PLP.Chemscore.Metal>
0.0000

> <Gold.Chemscore.Hbonds>
donor molecule, donor type, donor heavy atom, donor atom, acceptor molecule, acceptor atom, score
      L1  H     7    29       P1  7948  0.65
      L1  H    10    30       P1  7948  1.00
      L1  C    12    31       P1 10171  1.00

> <Gold.PLP.Chemscore.Internal.Correction>
0.3884

> <Gold.Rescore>
     Score         DG    S(hbond)    S(metal)    S(lipo)     H(rot)  DE(clash)    DE(int)     intcor
     13.58     -16.32       1.83        0.00      67.36       1.23       2.07       0.68       ----

> <Gold.Chemscore.Fitness>
13.5764

> <Gold.Chemscore.DG>
-16.3241

> <Gold.Chemscore.ZeroCoef>
-5.4800

> <Gold.Chemscore.Hbond>
1.8325

> <Gold.Chemscore.Metal>
0.0000

> <Gold.Chemscore.Lipo>
67.3633

> <Gold.Chemscore.Internal_Hbond>
0.0000

> <Gold.Chemscore.DEClash>
2.0724

> <Gold.Chemscore.DEInternal>
0.6754

> <Gold.Chemscore.Rot>
1.2336

> <Gold.Chemscore.Internal.Correction>
   9.000000E+99

> <Gold.Chemscore.Hbonds>
donor molecule, donor type, donor heavy atom, donor atom, acceptor molecule, acceptor atom, score
      L1  H     7    29       P1  7948  0.64
      L1  H    10    30       P1  7948  0.94

> <Gold.Chemscore.Hbond.Weighted>
-6.1207

> <Gold.Chemscore.Metal.Weighted>
-0.0000

> <Gold.Chemscore.Lipo.Weighted>
-7.8815

> <Gold.Chemscore.Internal_Hbond.Weighted>
0.0000

> <Gold.Chemscore.DEClash.Weighted>
2.0724

> <Gold.Chemscore.DEInternal.Weighted>
0.6754

> <Gold.Chemscore.Rot.Weighted>
3.1581

> <Gold.Chemscore.Internal.Correction.Weighted>
   9.000000E+99

> <Gold.Protein.RotatedTorsions>
[ 6907 6896 6895 6894 ] final   60.09 input  -60.11 | X-H torsion
[ 7974 7965 7964 7962 ] final -161.24 input  175.53 | X-H torsion
[ 8008 7997 7996 7995 ] final -174.67 input   59.86 | X-H torsion
[ 10167 10162 10161 10158 ] final  -66.53 input  -65.29 | X-H torsion
[ 10718 10713 10712 10709 ] final   13.22 input   66.30 | X-H torsion
[ 10763 10752 10751 10750 ] final -137.15 input  -60.55 | X-H torsion
[ 11005 11000 10999 10996 ] final -130.84 input  -57.11 | X-H torsion

> <Gold.Protein.ActiveResidues>
 VAL166  LYS551  ARG553  GLY616  TRP617  ASP618  TYR619  PRO620  LYS621  CYS622 
 ASP623  PHE694  ASN695  SER759  ASP760  ASP761  ALA762  ILE779  LEU786  VAL792 
 PHE793  MET794  SER795  GLU796  ALA797  LYS798  CYS799  TRP800  GLU811  SER814 

> <Gold.Protein.RotatedAtoms>
  152.3972  134.6346  160.0084 H   0  0  0  0  0  0  0  0  0  0  0  0  # atno 6907 bound_to 6896
  151.6562  133.3313  159.3171 H   0  0  0  0  0  0  0  0  0  0  0  0  # atno 6908 bound_to 6896
  150.7878  134.6920  159.6547 H   0  0  0  0  0  0  0  0  0  0  0  0  # atno 6909 bound_to 6896
  144.7398  140.3426  143.6131 H   0  0  0  0  0  0  0  0  0  0  0  0  # atno 7974 bound_to 7965
  155.9730  140.1166  157.0795 H   0  0  0  0  0  0  0  0  0  0  0  0  # atno 8008 bound_to 7997
  154.4161  140.1159  156.5400 H   0  0  0  0  0  0  0  0  0  0  0  0  # atno 8009 bound_to 7997
  155.6571  140.3473  155.4771 H   0  0  0  0  0  0  0  0  0  0  0  0  # atno 8010 bound_to 7997
  140.5650  143.2314  151.6653 H   0  0  0  0  0  0  0  0  0  0  0  0  # atno 10167 bound_to 10162
  157.0215  130.6156  149.5722 H   0  0  0  0  0  0  0  0  0  0  0  0  # atno 10718 bound_to 10713
  154.8668  135.3651  154.5176 H   0  0  0  0  0  0  0  0  0  0  0  0  # atno 10763 bound_to 10752
  153.5808  135.7018  153.5469 H   0  0  0  0  0  0  0  0  0  0  0  0  # atno 10764 bound_to 10752
  153.3459  135.4085  155.1571 H   0  0  0  0  0  0  0  0  0  0  0  0  # atno 10765 bound_to 10752
  140.9311  134.1318  157.4234 H   0  0  0  0  0  0  0  0  0  0  0  0  # atno 11005 bound_to 11000
  145.7359  139.1749  143.2404 LP  0  0  0  0  0  0  0  0  0  0  0  0  # atno 17320 bound_to 7965
  146.1171  140.7356  142.9475 LP  0  0  0  0  0  0  0  0  0  0  0  0  # atno 17321 bound_to 7965
  139.5088  144.3597  152.0573 LP  0  0  0  0  0  0  0  0  0  0  0  0  # atno 17342 bound_to 10162
  140.2728  144.3945  150.6145 LP  0  0  0  0  0  0  0  0  0  0  0  0  # atno 17343 bound_to 10162
  156.0101  130.5191  150.7959 LP  0  0  0  0  0  0  0  0  0  0  0  0  # atno 17370 bound_to 10713
  157.5246  131.0933  151.0034 LP  0  0  0  0  0  0  0  0  0  0  0  0  # atno 17371 bound_to 10713
  139.8796  135.0005  156.6015 LP  0  0  0  0  0  0  0  0  0  0  0  0  # atno 17394 bound_to 11000
  140.7861  133.8620  155.8607 LP  0  0  0  0  0  0  0  0  0  0  0  0  # atno 17395 bound_to 11000

$$$$
