AV-unprocessed.smi:2640|AV-procd|sdf|10271|dock1
  -GOLD-   2272014283D 1   1.00000     0.00000
 Structure written by MMmdl.
 41 42  0  0  0  0  0  0  0  0  1 V2000
  146.2937  138.8131  154.3421 O   0  0  0  0  0  0  0  0  0  0  0  0
  146.9734  138.7748  153.3170 C   0  0  0  0  0  0  0  0  0  0  0  0
  146.3396  138.3622  151.9908 C   0  0  0  0  0  0  0  0  0  0  0  0
  144.9534  137.9271  152.1804 N   0  0  0  0  0  0  0  0  0  0  0  0
  144.8798  136.4826  152.3435 C   0  0  0  0  0  0  0  0  0  0  0  0
  144.7838  135.8009  150.9678 C   0  0  0  0  0  0  0  0  0  0  0  0
  144.7848  134.3517  151.0666 N   0  0  0  0  0  0  0  0  0  0  0  0
  143.7755  133.4703  150.7405 C   0  0  0  0  0  0  0  0  0  0  0  0
  144.2406  132.2109  150.9889 C   0  0  0  0  0  0  0  0  0  0  0  0
  145.5606  132.4276  151.4739 C   0  0  0  0  0  0  0  0  0  0  0  0
  145.8830  133.7100  151.5206 N   0  0  0  0  0  0  0  0  0  0  0  0
  148.2803  139.0845  153.2802 N   0  0  0  0  0  0  0  0  0  0  0  0
  149.0764  139.5535  154.4161 C   0  0  1  0  0  0  0  0  0  0  0  0
  150.5126  139.0097  154.2381 C   0  0  0  0  0  0  0  0  0  0  0  0
  151.3178  138.9444  155.5478 C   0  0  0  0  0  0  0  0  0  0  0  0
  151.6143  140.3052  156.1970 C   0  0  0  0  0  0  0  0  0  0  0  0
  150.3530  141.0743  156.6259 C   0  0  0  0  0  0  0  0  0  0  0  0
  149.6900  141.7117  155.4959 N   0  0  0  0  0  0  0  0  0  0  0  0
  149.1210  141.0995  154.4464 C   0  0  0  0  0  0  0  0  0  0  0  0
  148.6488  141.7614  153.5219 O   0  0  0  0  0  0  0  0  0  0  0  0
  146.3755  139.2085  151.3028 H   0  0  0  0  0  0  0  0  0  0  0  0
  146.9232  137.5550  151.5448 H   0  0  0  0  0  0  0  0  0  0  0  0
  144.3761  138.1954  151.3962 H   0  0  0  0  0  0  0  0  0  0  0  0
  145.7567  136.1183  152.8810 H   0  0  0  0  0  0  0  0  0  0  0  0
  144.0043  136.2287  152.9425 H   0  0  0  0  0  0  0  0  0  0  0  0
  143.8672  136.1090  150.4630 H   0  0  0  0  0  0  0  0  0  0  0  0
  145.6110  136.1112  150.3277 H   0  0  0  0  0  0  0  0  0  0  0  0
  142.8236  133.8090  150.3585 H   0  0  0  0  0  0  0  0  0  0  0  0
  143.7180  131.2770  150.8450 H   0  0  0  0  0  0  0  0  0  0  0  0
  146.2894  131.6962  151.7905 H   0  0  0  0  0  0  0  0  0  0  0  0
  148.7527  139.0255  152.3902 H   0  0  0  0  0  0  0  0  0  0  0  0
  148.6406  139.1712  155.3409 H   0  0  0  0  0  0  0  0  0  0  0  0
  150.4613  137.9930  153.8451 H   0  0  0  0  0  0  0  0  0  0  0  0
  151.0587  139.5838  153.4872 H   0  0  0  0  0  0  0  0  0  0  0  0
  150.7936  138.3092  156.2629 H   0  0  0  0  0  0  0  0  0  0  0  0
  152.2657  138.4440  155.3476 H   0  0  0  0  0  0  0  0  0  0  0  0
  152.2288  140.1308  157.0808 H   0  0  0  0  0  0  0  0  0  0  0  0
  152.2205  140.9182  155.5285 H   0  0  0  0  0  0  0  0  0  0  0  0
  149.6586  140.4279  157.1641 H   0  0  0  0  0  0  0  0  0  0  0  0
  150.6352  141.8662  157.3200 H   0  0  0  0  0  0  0  0  0  0  0  0
  149.6899  142.7215  155.4917 H   0  0  0  0  0  0  0  0  0  0  0  0
  1  2  2  0  0  0  0
  2  3  1  0  0  0  0
  2 12  1  0  0  0  0
  3  4  1  0  0  0  0
  3 21  1  0  0  0  0
  3 22  1  0  0  0  0
  4  5  1  0  0  0  0
  4 23  1  0  0  0  0
  5  6  1  0  0  0  0
  5 24  1  0  0  0  0
  5 25  1  0  0  0  0
  6  7  1  0  0  0  0
  6 26  1  0  0  0  0
  6 27  1  0  0  0  0
  7 11  1  0  0  0  0
  7  8  1  0  0  0  0
  8  9  2  0  0  0  0
  8 28  1  0  0  0  0
  9 10  1  0  0  0  0
  9 29  1  0  0  0  0
 10 11  2  0  0  0  0
 10 30  1  0  0  0  0
 12 13  1  0  0  0  0
 12 31  1  0  0  0  0
 13 19  1  0  0  0  0
 13 14  1  0  0  0  0
 13 32  1  0  0  0  0
 14 15  1  0  0  0  0
 14 33  1  0  0  0  0
 14 34  1  0  0  0  0
 15 16  1  0  0  0  0
 15 35  1  0  0  0  0
 15 36  1  0  0  0  0
 16 17  1  0  0  0  0
 16 37  1  0  0  0  0
 16 38  1  0  0  0  0
 17 18  1  0  0  0  0
 17 39  1  0  0  0  0
 17 40  1  0  0  0  0
 18 19  1  0  0  0  0
 18 41  1  0  0  0  0
 19 20  2  0  0  0  0
M  END
> <s_m_source_file>
AV-unprocessed.smi

> <i_m_source_file_index>
2640

> <i_lp_mmshare_version>
43012

> <i_f3d_flags>
0

> <s_epik_input>
Tz1DMVtOSF1bQ0gyXVtDSDJdW0NIMl1bQ0gyXVtDQEhdMVtOSF1DKD1PKVtDSDJdW05IXVtDSDJdW0NIMl1uMltjSF1bY0hdW2NIXW4y

> <s_epik_cmdline>
J2VwaWtfcHl0aG9uJywgJy1waCcsICc3LjAnLCAnLXRuJywgJzgnLCAnLW1hJywgJzIwMCcsICctbWV0YWxfYmluZGluZycsICctaW1hZScsICc8aW5maWxlLm1hZT4nLCAnLW9tYWUnLCAnPG91dGZpbGUubWFlPic=

> <r_lp_tautomer_probability>
1

> <r_epik_Ionization_Penalty>
0.641667

> <r_epik_Ionization_Penalty_Charging>
0

> <r_epik_Ionization_Penalty_Neutral>
0.641667

> <r_epik_State_Penalty>
0.657743

> <r_epik_Charging_Adjusted_Penalty>
0.657743

> <i_epik_Tot_Q>
0

> <i_epik_Tot_abs_Q>
0

> <r_epik_Metal_State_Penalty>
0.656014

> <b_epik_Metal_Only>
0

> <s_lp_Force_Field>
OPLS_2005

> <r_lp_Energy>
12.1888

> <b_lp_Chiralities_Consistent>
1

> <s_lp_Variant>
AV-unprocessed.smi:2640-4

> <Gold.Version>
5.8.1

> <Gold.Id.Protein>
6NUR|6NUR_protein|mol2

> <Gold.PLP.Fitness>
56.1391

> <Gold.PLP.PLP>
-41.0381

> <Gold.PLP.part.hbond>
-5.1751

> <Gold.PLP.part.metal>
0.0000

> <Gold.PLP.part.buried>
-4.4207

> <Gold.PLP.part.nonpolar>
-33.3939

> <Gold.PLP.part.repulsive>
0.7243

> <Gold.PLP.ligand.clash>
0.0000

> <Gold.PLP.ligand.torsion>
0.8111

> <Gold.PLP.Chemscore.Hbond>
3.5440

> <Gold.PLP.Chemscore.CHOScore>
2.0000

> <Gold.PLP.Chemscore.Metal>
0.0000

> <Gold.Chemscore.Hbonds>
donor molecule, donor type, donor heavy atom, donor atom, acceptor molecule, acceptor atom, score
      L1  H     4    23       P1 10171  1.00
      L1  H    12    31       P1  7957  0.86
      L1  H    18    41       P1  8028  0.68
      P1  H  8011  8017       L1    20  0.62
      L1  C     8    28       P1 10186  1.00

> <Gold.PLP.Chemscore.Internal.Correction>
0.0912

> <Gold.Rescore>
     Score         DG    S(hbond)    S(metal)    S(lipo)     H(rot)  DE(clash)    DE(int)     intcor
     18.78     -19.69       3.50        0.00      73.58       2.37       0.00       0.90       ----

> <Gold.Chemscore.Fitness>
18.7827

> <Gold.Chemscore.DG>
-19.6913

> <Gold.Chemscore.ZeroCoef>
-5.4800

> <Gold.Chemscore.Hbond>
3.4963

> <Gold.Chemscore.Metal>
0.0000

> <Gold.Chemscore.Lipo>
73.5812

> <Gold.Chemscore.Internal_Hbond>
0.0000

> <Gold.Chemscore.DEClash>
0.0048

> <Gold.Chemscore.DEInternal>
0.9038

> <Gold.Chemscore.Rot>
2.3732

> <Gold.Chemscore.Internal.Correction>
   9.000000E+99

> <Gold.Chemscore.Hbonds>
donor molecule, donor type, donor heavy atom, donor atom, acceptor molecule, acceptor atom, score
      L1  H     4    23       P1 10171  1.00
      L1  H    12    31       P1  7957  0.84
      L1  H    18    41       P1  8028  0.68
      P1  H  8011  8017       L1    20  0.59

> <Gold.Chemscore.Hbond.Weighted>
-11.6776

> <Gold.Chemscore.Metal.Weighted>
-0.0000

> <Gold.Chemscore.Lipo.Weighted>
-8.6090

> <Gold.Chemscore.Internal_Hbond.Weighted>
0.0000

> <Gold.Chemscore.DEClash.Weighted>
0.0048

> <Gold.Chemscore.DEInternal.Weighted>
0.9038

> <Gold.Chemscore.Rot.Weighted>
6.0753

> <Gold.Chemscore.Internal.Correction.Weighted>
   9.000000E+99

> <Gold.Protein.RotatedTorsions>
[ 6907 6896 6895 6894 ] final   63.94 input  -60.11 | X-H torsion
[ 7974 7965 7964 7962 ] final  100.66 input  175.53 | X-H torsion
[ 8008 7997 7996 7995 ] final -116.75 input   59.86 | X-H torsion
[ 10167 10162 10161 10158 ] final  153.49 input  -65.29 | X-H torsion
[ 10718 10713 10712 10709 ] final  164.57 input   66.30 | X-H torsion
[ 10763 10752 10751 10750 ] final   95.42 input  -60.55 | X-H torsion
[ 11005 11000 10999 10996 ] final -168.86 input  -57.11 | X-H torsion

> <Gold.Protein.ActiveResidues>
 VAL166  LYS551  ARG553  GLY616  TRP617  ASP618  TYR619  PRO620  LYS621  CYS622 
 ASP623  PHE694  ASN695  SER759  ASP760  ASP761  ALA762  ILE779  LEU786  VAL792 
 PHE793  MET794  SER795  GLU796  ALA797  LYS798  CYS799  TRP800  GLU811  SER814 

> <Gold.Protein.RotatedAtoms>
  152.4293  134.5809  159.9947 H   0  0  0  0  0  0  0  0  0  0  0  0  # atno 6907 bound_to 6896
  151.5937  133.3358  159.3041 H   0  0  0  0  0  0  0  0  0  0  0  0  # atno 6908 bound_to 6896
  150.8184  134.7415  159.6815 H   0  0  0  0  0  0  0  0  0  0  0  0  # atno 6909 bound_to 6896
  145.3827  139.2377  143.3395 H   0  0  0  0  0  0  0  0  0  0  0  0  # atno 7974 bound_to 7965
  155.0728  140.0393  157.2614 H   0  0  0  0  0  0  0  0  0  0  0  0  # atno 8008 bound_to 7997
  154.6969  140.2665  155.6733 H   0  0  0  0  0  0  0  0  0  0  0  0  # atno 8009 bound_to 7997
  156.2747  140.2748  156.1566 H   0  0  0  0  0  0  0  0  0  0  0  0  # atno 8010 bound_to 7997
  139.4827  144.5268  151.7787 H   0  0  0  0  0  0  0  0  0  0  0  0  # atno 10167 bound_to 10162
  157.0925  131.0421  151.2531 H   0  0  0  0  0  0  0  0  0  0  0  0  # atno 10718 bound_to 10713
  153.2530  135.4255  155.0816 H   0  0  0  0  0  0  0  0  0  0  0  0  # atno 10763 bound_to 10752
  154.8389  135.3430  154.6486 H   0  0  0  0  0  0  0  0  0  0  0  0  # atno 10764 bound_to 10752
  153.6907  135.7034  153.5147 H   0  0  0  0  0  0  0  0  0  0  0  0  # atno 10765 bound_to 10752
  140.5372  134.5558  157.5090 H   0  0  0  0  0  0  0  0  0  0  0  0  # atno 11005 bound_to 11000
  146.2835  140.4496  142.8767 LP  0  0  0  0  0  0  0  0  0  0  0  0  # atno 17320 bound_to 7965
  144.8496  140.6982  143.6176 LP  0  0  0  0  0  0  0  0  0  0  0  0  # atno 17321 bound_to 7965
  140.4790  144.1478  150.5929 LP  0  0  0  0  0  0  0  0  0  0  0  0  # atno 17342 bound_to 10162
  140.4299  143.2573  151.9608 LP  0  0  0  0  0  0  0  0  0  0  0  0  # atno 17343 bound_to 10162
  157.4709  130.7708  149.7323 LP  0  0  0  0  0  0  0  0  0  0  0  0  # atno 17370 bound_to 10713
  155.9894  130.3952  150.3073 LP  0  0  0  0  0  0  0  0  0  0  0  0  # atno 17371 bound_to 10713
  139.9523  134.7596  156.0421 LP  0  0  0  0  0  0  0  0  0  0  0  0  # atno 17394 bound_to 11000
  141.1248  133.6602  156.3307 LP  0  0  0  0  0  0  0  0  0  0  0  0  # atno 17395 bound_to 11000

$$$$
