AV-unprocessed.smi:1258|AV-procd|sdf|5288|dock9
  -GOLD-   22720 4403D 1   1.00000     0.00000
 Structure written by MMmdl.
 33 34  0  0  0  0  0  0  0  0  1 V2000
  151.9024  145.3100  159.9083 C   0  0  0  0  0  0  0  0  0  0  0  0
  152.1800  144.0883  159.0207 C   0  0  1  0  0  0  0  0  0  0  0  0
  152.3822  142.8143  159.8630 C   0  0  0  0  0  0  0  0  0  0  0  0
  152.6577  141.5903  158.9756 C   0  0  0  0  0  0  0  0  0  0  0  0
  151.5384  141.3874  157.9431 C   0  0  0  0  0  0  0  0  0  0  0  0
  151.3293  142.6511  157.0891 C   0  0  1  0  0  0  0  0  0  0  0  0
  150.2230  142.4352  156.1621 N   0  0  0  0  0  0  0  0  0  0  0  0
  150.1043  141.3953  155.3216 C   0  0  0  0  0  0  0  0  0  0  0  0
  150.9414  140.4982  155.2263 O   0  0  0  0  0  0  0  0  0  0  0  0
  148.8459  141.3597  154.4551 C   0  0  0  0  0  0  0  0  0  0  0  0
  147.6555  141.2402  155.2750 N   0  0  0  0  0  0  0  0  0  0  0  0
  147.2392  141.9512  156.3249 C   0  0  0  0  0  0  0  0  0  0  0  0
  146.0761  141.5124  156.7816 N   0  0  0  0  0  0  0  0  0  0  0  0
  145.7821  140.4578  155.9333 N   0  0  0  0  0  0  0  0  0  0  0  0
  146.7154  140.2918  155.0367 N   0  0  0  0  0  0  0  0  0  0  0  0
  151.0591  143.8785  157.9840 C   0  0  0  0  0  0  0  0  0  0  0  0
  150.9847  145.1822  160.4831 H   0  0  0  0  0  0  0  0  0  0  0  0
  151.7968  146.2147  159.3093 H   0  0  0  0  0  0  0  0  0  0  0  0
  152.7170  145.4759  160.6139 H   0  0  0  0  0  0  0  0  0  0  0  0
  153.1061  144.2820  158.4775 H   0  0  0  0  0  0  0  0  0  0  0  0
  153.2104  142.9539  160.5587 H   0  0  0  0  0  0  0  0  0  0  0  0
  151.4961  142.6290  160.4717 H   0  0  0  0  0  0  0  0  0  0  0  0
  153.6107  141.7186  158.4608 H   0  0  0  0  0  0  0  0  0  0  0  0
  152.7584  140.6980  159.5942 H   0  0  0  0  0  0  0  0  0  0  0  0
  151.7797  140.5383  157.3024 H   0  0  0  0  0  0  0  0  0  0  0  0
  150.6124  141.1315  158.4604 H   0  0  0  0  0  0  0  0  0  0  0  0
  152.2421  142.8265  156.5164 H   0  0  0  0  0  0  0  0  0  0  0  0
  149.4837  143.1233  156.1704 H   0  0  0  0  0  0  0  0  0  0  0  0
  148.7811  142.2627  153.8457 H   0  0  0  0  0  0  0  0  0  0  0  0
  148.8865  140.5106  153.7717 H   0  0  0  0  0  0  0  0  0  0  0  0
  147.7819  142.7839  156.7476 H   0  0  0  0  0  0  0  0  0  0  0  0
  150.1048  143.7541  158.4985 H   0  0  0  0  0  0  0  0  0  0  0  0
  150.9613  144.7726  157.3666 H   0  0  0  0  0  0  0  0  0  0  0  0
  1  2  1  0  0  0  0
  1 17  1  0  0  0  0
  1 18  1  0  0  0  0
  1 19  1  0  0  0  0
  2 16  1  0  0  0  0
  2  3  1  0  0  0  0
  2 20  1  0  0  0  0
  3  4  1  0  0  0  0
  3 21  1  0  0  0  0
  3 22  1  0  0  0  0
  4  5  1  0  0  0  0
  4 23  1  0  0  0  0
  4 24  1  0  0  0  0
  5  6  1  0  0  0  0
  5 25  1  0  0  0  0
  5 26  1  0  0  0  0
  6  7  1  0  0  0  0
  6 16  1  0  0  0  0
  6 27  1  0  0  0  0
  7  8  1  0  0  0  0
  7 28  1  0  0  0  0
  8  9  2  0  0  0  0
  8 10  1  0  0  0  0
 10 11  1  0  0  0  0
 10 29  1  0  0  0  0
 10 30  1  0  0  0  0
 11 15  1  0  0  0  0
 11 12  1  0  0  0  0
 12 13  2  0  0  0  0
 12 31  1  0  0  0  0
 13 14  1  0  0  0  0
 14 15  2  0  0  0  0
 16 32  1  0  0  0  0
 16 33  1  0  0  0  0
M  END
> <s_m_source_file>
AV-unprocessed.smi

> <i_m_source_file_index>
1258

> <i_lp_mmshare_version>
43012

> <i_f3d_flags>
0

> <s_epik_input>
W0NIM11bQ0BASF0xW0NIMl1bQ0gyXVtDSDJdW0NASF0oW0NIMl0xKVtOSF1DKD1PKVtDSDJdbjJbY0hdbm5uMg==

> <s_epik_cmdline>
J2VwaWtfcHl0aG9uJywgJy1waCcsICc3LjAnLCAnLXRuJywgJzgnLCAnLW1hJywgJzIwMCcsICctbWV0YWxfYmluZGluZycsICctaW1hZScsICc8aW5maWxlLm1hZT4nLCAnLW9tYWUnLCAnPG91dGZpbGUubWFlPic=

> <r_lp_tautomer_probability>
1

> <r_epik_Ionization_Penalty>
5.03816e-07

> <r_epik_Ionization_Penalty_Charging>
0

> <r_epik_Ionization_Penalty_Neutral>
5.03816e-07

> <r_epik_State_Penalty>
-0

> <r_epik_Charging_Adjusted_Penalty>
0

> <i_epik_Tot_Q>
0

> <i_epik_Tot_abs_Q>
0

> <r_epik_Metal_State_Penalty>
-0

> <b_epik_Metal_Only>
0

> <s_lp_Force_Field>
OPLS_2005

> <r_lp_Energy>
10.5543

> <b_lp_Chiralities_Consistent>
1

> <s_lp_Variant>
AV-unprocessed.smi:1258-2

> <Gold.Version>
5.8.1

> <Gold.Id.Protein>
6NUR|6NUR_protein|mol2

> <Gold.PLP.Fitness>
41.1684

> <Gold.PLP.PLP>
-32.7492

> <Gold.PLP.part.hbond>
-2.0000

> <Gold.PLP.part.metal>
0.0000

> <Gold.PLP.part.buried>
-3.4863

> <Gold.PLP.part.nonpolar>
-26.6466

> <Gold.PLP.part.repulsive>
0.3036

> <Gold.PLP.ligand.clash>
0.0000

> <Gold.PLP.ligand.torsion>
0.1249

> <Gold.PLP.Chemscore.Hbond>
1.9680

> <Gold.PLP.Chemscore.CHOScore>
0.9200

> <Gold.PLP.Chemscore.Metal>
0.0000

> <Gold.Chemscore.Hbonds>
donor molecule, donor type, donor heavy atom, donor atom, acceptor molecule, acceptor atom, score
      L1  H     7    28       P1  8028  0.98
      P1  H  7989  7998       L1     9  0.99
      L1  C    12    31       P1  8028  0.91

> <Gold.PLP.Chemscore.Internal.Correction>
0.0050

> <Gold.Rescore>
     Score         DG    S(hbond)    S(metal)    S(lipo)     H(rot)  DE(clash)    DE(int)     intcor
     14.28     -15.64       1.65        0.00      81.54       1.92       0.16       1.20       ----

> <Gold.Chemscore.Fitness>
14.2796

> <Gold.Chemscore.DG>
-15.6386

> <Gold.Chemscore.ZeroCoef>
-5.4800

> <Gold.Chemscore.Hbond>
1.6544

> <Gold.Chemscore.Metal>
0.0000

> <Gold.Chemscore.Lipo>
81.5399

> <Gold.Chemscore.Internal_Hbond>
0.0000

> <Gold.Chemscore.DEClash>
0.1590

> <Gold.Chemscore.DEInternal>
1.2001

> <Gold.Chemscore.Rot>
1.9169

> <Gold.Chemscore.Internal.Correction>
   9.000000E+99

> <Gold.Chemscore.Hbonds>
donor molecule, donor type, donor heavy atom, donor atom, acceptor molecule, acceptor atom, score
      L1  H     7    28       P1  8028  0.93
      P1  H  7989  7998       L1     9  0.24

> <Gold.Chemscore.Hbond.Weighted>
-5.5257

> <Gold.Chemscore.Metal.Weighted>
-0.0000

> <Gold.Chemscore.Lipo.Weighted>
-9.5402

> <Gold.Chemscore.Internal_Hbond.Weighted>
0.0000

> <Gold.Chemscore.DEClash.Weighted>
0.1590

> <Gold.Chemscore.DEInternal.Weighted>
1.2001

> <Gold.Chemscore.Rot.Weighted>
4.9073

> <Gold.Chemscore.Internal.Correction.Weighted>
   9.000000E+99

> <Gold.Protein.RotatedTorsions>
[ 6907 6896 6895 6894 ] final   70.47 input  -60.11 | X-H torsion
[ 7974 7965 7964 7962 ] final  -21.41 input  175.53 | X-H torsion
[ 8008 7997 7996 7995 ] final   29.37 input   59.86 | X-H torsion
[ 10167 10162 10161 10158 ] final  -20.20 input  -65.29 | X-H torsion
[ 10718 10713 10712 10709 ] final   93.71 input   66.30 | X-H torsion
[ 10763 10752 10751 10750 ] final   59.46 input  -60.55 | X-H torsion
[ 11005 11000 10999 10996 ] final  148.89 input  -57.11 | X-H torsion

> <Gold.Protein.ActiveResidues>
 VAL166  LYS551  ARG553  GLY616  TRP617  ASP618  TYR619  PRO620  LYS621  CYS622 
 ASP623  PHE694  ASN695  SER759  ASP760  ASP761  ALA762  ILE779  LEU786  VAL792 
 PHE793  MET794  SER795  GLU796  ALA797  LYS798  CYS799  TRP800  GLU811  SER814 

> <Gold.Protein.RotatedAtoms>
  152.4751  134.4863  159.9681 H   0  0  0  0  0  0  0  0  0  0  0  0  # atno 6907 bound_to 6896
  151.4881  133.3525  159.2857 H   0  0  0  0  0  0  0  0  0  0  0  0  # atno 6908 bound_to 6896
  150.8785  134.8199  159.7269 H   0  0  0  0  0  0  0  0  0  0  0  0  # atno 6909 bound_to 6896
  146.1734  140.4337  142.8523 H   0  0  0  0  0  0  0  0  0  0  0  0  # atno 7974 bound_to 7965
  155.0734  140.3202  155.4623 H   0  0  0  0  0  0  0  0  0  0  0  0  # atno 8008 bound_to 7997
  156.2785  140.2108  156.5807 H   0  0  0  0  0  0  0  0  0  0  0  0  # atno 8009 bound_to 7997
  154.7036  140.0504  157.0470 H   0  0  0  0  0  0  0  0  0  0  0  0  # atno 8010 bound_to 7997
  140.7274  143.4745  151.0201 H   0  0  0  0  0  0  0  0  0  0  0  0  # atno 10167 bound_to 10162
  157.6953  131.0487  150.4075 H   0  0  0  0  0  0  0  0  0  0  0  0  # atno 10718 bound_to 10713
  152.9895  135.5571  154.5717 H   0  0  0  0  0  0  0  0  0  0  0  0  # atno 10763 bound_to 10752
  154.5116  135.2802  155.1340 H   0  0  0  0  0  0  0  0  0  0  0  0  # atno 10764 bound_to 10752
  154.2730  135.6359  153.5370 H   0  0  0  0  0  0  0  0  0  0  0  0  # atno 10765 bound_to 10752
  140.0998  134.8990  157.1779 H   0  0  0  0  0  0  0  0  0  0  0  0  # atno 11005 bound_to 11000
  144.8199  140.6531  143.6360 LP  0  0  0  0  0  0  0  0  0  0  0  0  # atno 17320 bound_to 7965
  145.4277  139.1554  143.4039 LP  0  0  0  0  0  0  0  0  0  0  0  0  # atno 17321 bound_to 7965
  139.8440  143.7526  152.3179 LP  0  0  0  0  0  0  0  0  0  0  0  0  # atno 17342 bound_to 10162
  139.7685  144.7484  151.0259 LP  0  0  0  0  0  0  0  0  0  0  0  0  # atno 17343 bound_to 10162
  156.4462  130.4002  149.6665 LP  0  0  0  0  0  0  0  0  0  0  0  0  # atno 17370 bound_to 10713
  156.3831  130.7589  151.2584 LP  0  0  0  0  0  0  0  0  0  0  0  0  # atno 17371 bound_to 10713
  140.3235  134.2889  155.7241 LP  0  0  0  0  0  0  0  0  0  0  0  0  # atno 17394 bound_to 11000
  141.2102  133.7725  156.9944 LP  0  0  0  0  0  0  0  0  0  0  0  0  # atno 17395 bound_to 11000

$$$$
