AV-unprocessed.smi:378|AV-procd|sdf|2457|dock4
  -GOLD-   2262022393D 1   1.00000     0.00000
 Structure written by MMmdl.
 34 35  0  0  0  0  0  0  0  0  1 V2000
  149.6243  131.1530  154.8222 N   0  0  0  0  0  0  0  0  0  0  0  0
  149.4416  132.2518  154.5099 C   0  0  0  0  0  0  0  0  0  0  0  0
  149.2107  133.6496  154.1130 C   0  0  0  0  0  0  0  0  0  0  0  0
  149.7896  134.6642  155.1113 C   0  0  0  0  0  0  0  0  0  0  0  0
  150.0950  135.9402  154.4747 N   0  0  0  0  0  0  0  0  0  0  0  0
  150.8439  136.9102  155.0193 C   0  0  0  0  0  0  0  0  0  0  0  0
  151.3406  136.8249  156.1435 O   0  0  0  0  0  0  0  0  0  0  0  0
  151.0503  138.1641  154.1559 C   0  0  0  0  0  0  0  0  0  0  0  0
  150.4539  139.3843  154.7427 N   0  0  0  0  0  0  0  0  0  0  0  0
  149.1084  139.7069  154.4302 C   0  0  0  0  0  0  0  0  0  0  0  0
  148.4484  139.0048  153.6623 O   0  0  0  0  0  0  0  0  0  0  0  0
  148.5784  140.8987  155.0888 C   0  0  0  0  0  0  0  0  0  0  0  0
  147.2189  141.2376  154.8263 C   0  0  0  0  0  0  0  0  0  0  0  0
  146.1148  141.5273  154.6340 N   0  0  0  0  0  0  0  0  0  0  0  0
  149.3482  141.6371  155.9146 C   0  0  0  0  0  0  0  0  0  0  0  0
  150.6655  141.3278  156.1744 N   0  0  0  0  0  0  0  0  0  0  0  0
  151.4164  142.0323  157.1751 C   0  0  0  0  0  0  0  0  0  0  0  0
  151.9369  141.2700  158.3741 C   0  0  0  0  0  0  0  0  0  0  0  0
  150.8229  142.2733  158.5496 C   0  0  0  0  0  0  0  0  0  0  0  0
  151.2392  140.1568  155.6327 C   0  0  0  0  0  0  0  0  0  0  0  0
  152.3843  139.8084  155.9326 O   0  0  0  0  0  0  0  0  0  0  0  0
  149.6694  133.7896  153.1343 H   0  0  0  0  0  0  0  0  0  0  0  0
  148.1377  133.7943  153.9841 H   0  0  0  0  0  0  0  0  0  0  0  0
  149.0757  134.8407  155.9164 H   0  0  0  0  0  0  0  0  0  0  0  0
  150.6900  134.2612  155.5779 H   0  0  0  0  0  0  0  0  0  0  0  0
  149.7212  136.0911  153.5485 H   0  0  0  0  0  0  0  0  0  0  0  0
  152.1194  138.3062  153.9868 H   0  0  0  0  0  0  0  0  0  0  0  0
  150.6506  137.9631  153.1609 H   0  0  0  0  0  0  0  0  0  0  0  0
  148.9191  142.5083  156.3888 H   0  0  0  0  0  0  0  0  0  0  0  0
  152.0671  142.8189  156.7970 H   0  0  0  0  0  0  0  0  0  0  0  0
  151.6772  140.2170  158.4650 H   0  0  0  0  0  0  0  0  0  0  0  0
  152.9210  141.5406  158.7513 H   0  0  0  0  0  0  0  0  0  0  0  0
  151.0639  143.2139  159.0404 H   0  0  0  0  0  0  0  0  0  0  0  0
  149.8299  141.8801  158.7591 H   0  0  0  0  0  0  0  0  0  0  0  0
  1  2  3  0  0  0  0
  2  3  1  0  0  0  0
  3  4  1  0  0  0  0
  3 22  1  0  0  0  0
  3 23  1  0  0  0  0
  4  5  1  0  0  0  0
  4 24  1  0  0  0  0
  4 25  1  0  0  0  0
  5  6  1  0  0  0  0
  5 26  1  0  0  0  0
  6  7  2  0  0  0  0
  6  8  1  0  0  0  0
  8  9  1  0  0  0  0
  8 27  1  0  0  0  0
  8 28  1  0  0  0  0
  9 20  1  0  0  0  0
  9 10  1  0  0  0  0
 10 11  2  0  0  0  0
 10 12  1  0  0  0  0
 12 13  1  0  0  0  0
 12 15  2  0  0  0  0
 13 14  3  0  0  0  0
 15 16  1  0  0  0  0
 15 29  1  0  0  0  0
 16 17  1  0  0  0  0
 16 20  1  0  0  0  0
 17 19  1  0  0  0  0
 17 18  1  0  0  0  0
 17 30  1  0  0  0  0
 18 19  1  0  0  0  0
 18 31  1  0  0  0  0
 18 32  1  0  0  0  0
 19 33  1  0  0  0  0
 19 34  1  0  0  0  0
 20 21  2  0  0  0  0
M  END
> <s_m_source_file>
AV-unprocessed.smi

> <i_m_source_file_index>
378

> <i_lp_mmshare_version>
43012

> <i_f3d_flags>
0

> <s_epik_input>
TiNDW0NIMl1bQ0gyXVtOSF1DKD1PKVtDSDJdbjFjKD1PKWMoQyNOKVtjSF1uKGMxPU8pW0NIXTJbQ0gyXVtDSDJdMg==

> <s_epik_cmdline>
J2VwaWtfcHl0aG9uJywgJy1waCcsICc3LjAnLCAnLXRuJywgJzgnLCAnLW1hJywgJzIwMCcsICctbWV0YWxfYmluZGluZycsICctaW1hZScsICc8aW5maWxlLm1hZT4nLCAnLW9tYWUnLCAnPG91dGZpbGUubWFlPic=

> <r_lp_tautomer_probability>
1

> <r_epik_Ionization_Penalty>
1.80062e-07

> <r_epik_Ionization_Penalty_Charging>
6.75485e-11

> <r_epik_Ionization_Penalty_Neutral>
1.79994e-07

> <r_epik_State_Penalty>
-0

> <r_epik_Charging_Adjusted_Penalty>
6.75485e-11

> <i_epik_Tot_Q>
0

> <i_epik_Tot_abs_Q>
0

> <r_epik_Metal_State_Penalty>
-0

> <b_epik_Metal_Only>
0

> <s_lp_Force_Field>
OPLS_2005

> <r_lp_Energy>
28.3727

> <b_lp_Chiralities_Consistent>
1

> <s_lp_Variant>
AV-unprocessed.smi:378-1

> <Gold.Version>
5.8.1

> <Gold.Id.Protein>
6NUR|6NUR_protein|mol2

> <Gold.PLP.Fitness>
43.8497

> <Gold.PLP.PLP>
-36.3786

> <Gold.PLP.part.hbond>
-2.7856

> <Gold.PLP.part.metal>
0.0000

> <Gold.PLP.part.buried>
-3.7381

> <Gold.PLP.part.nonpolar>
-30.8581

> <Gold.PLP.part.repulsive>
2.1223

> <Gold.PLP.ligand.clash>
0.0000

> <Gold.PLP.ligand.torsion>
0.7300

> <Gold.PLP.Chemscore.Hbond>
1.9000

> <Gold.PLP.Chemscore.CHOScore>
1.0000

> <Gold.PLP.Chemscore.Metal>
0.0000

> <Gold.Chemscore.Hbonds>
donor molecule, donor type, donor heavy atom, donor atom, acceptor molecule, acceptor atom, score
      L1  H     5    26       P1  7948  0.95
      P1  H  7997  8008       L1    21  0.98
      L1  C    15    29       P1  8028  0.99

> <Gold.PLP.Chemscore.Internal.Correction>
0.2312

> <Gold.Rescore>
     Score         DG    S(hbond)    S(metal)    S(lipo)     H(rot)  DE(clash)    DE(int)     intcor
      9.45     -11.38       1.87        0.00      51.64       2.50       0.07       1.86       ----

> <Gold.Chemscore.Fitness>
9.4476

> <Gold.Chemscore.DG>
-11.3783

> <Gold.Chemscore.ZeroCoef>
-5.4800

> <Gold.Chemscore.Hbond>
1.8728

> <Gold.Chemscore.Metal>
0.0000

> <Gold.Chemscore.Lipo>
51.6365

> <Gold.Chemscore.Internal_Hbond>
0.0000

> <Gold.Chemscore.DEClash>
0.0727

> <Gold.Chemscore.DEInternal>
1.8580

> <Gold.Chemscore.Rot>
2.4994

> <Gold.Chemscore.Internal.Correction>
   9.000000E+99

> <Gold.Chemscore.Hbonds>
donor molecule, donor type, donor heavy atom, donor atom, acceptor molecule, acceptor atom, score
      L1  H     5    26       P1  7948  0.22
      P1  H  7997  8008       L1    21  0.92

> <Gold.Chemscore.Hbond.Weighted>
-6.2552

> <Gold.Chemscore.Metal.Weighted>
-0.0000

> <Gold.Chemscore.Lipo.Weighted>
-6.0415

> <Gold.Chemscore.Internal_Hbond.Weighted>
0.0000

> <Gold.Chemscore.DEClash.Weighted>
0.0727

> <Gold.Chemscore.DEInternal.Weighted>
1.8580

> <Gold.Chemscore.Rot.Weighted>
6.3984

> <Gold.Chemscore.Internal.Correction.Weighted>
   9.000000E+99

> <Gold.Protein.RotatedTorsions>
[ 6907 6896 6895 6894 ] final  -50.89 input  -60.11 | X-H torsion
[ 7974 7965 7964 7962 ] final   84.59 input  175.53 | X-H torsion
[ 8008 7997 7996 7995 ] final  -24.33 input   59.86 | X-H torsion
[ 10167 10162 10161 10158 ] final -174.83 input  -65.29 | X-H torsion
[ 10718 10713 10712 10709 ] final   36.54 input   66.30 | X-H torsion
[ 10763 10752 10751 10750 ] final  -67.83 input  -60.55 | X-H torsion
[ 11005 11000 10999 10996 ] final    4.35 input  -57.11 | X-H torsion

> <Gold.Protein.ActiveResidues>
 VAL166  LYS551  ARG553  GLY616  TRP617  ASP618  TYR619  PRO620  LYS621  CYS622 
 ASP623  PHE694  ASN695  SER759  ASP760  ASP761  ALA762  ILE779  LEU786  VAL792 
 PHE793  MET794  SER795  GLU796  ALA797  LYS798  CYS799  TRP800  GLU811  SER814 

> <Gold.Protein.RotatedAtoms>
  150.8664  134.8028  159.7121 H   0  0  0  0  0  0  0  0  0  0  0  0  # atno 6907 bound_to 6896
  152.4684  134.5017  159.9736 H   0  0  0  0  0  0  0  0  0  0  0  0  # atno 6908 bound_to 6896
  151.5113  133.3446  159.2921 H   0  0  0  0  0  0  0  0  0  0  0  0  # atno 6909 bound_to 6896
  145.5967  139.2346  143.2269 H   0  0  0  0  0  0  0  0  0  0  0  0  # atno 7974 bound_to 7965
  154.4535  140.1956  156.0447 H   0  0  0  0  0  0  0  0  0  0  0  0  # atno 8008 bound_to 7997
  156.0698  140.3286  155.7535 H   0  0  0  0  0  0  0  0  0  0  0  0  # atno 8009 bound_to 7997
  155.5280  140.0575  157.2885 H   0  0  0  0  0  0  0  0  0  0  0  0  # atno 8010 bound_to 7997
  139.5613  144.1864  152.1242 H   0  0  0  0  0  0  0  0  0  0  0  0  # atno 10167 bound_to 10162
  157.3361  130.7523  149.6880 H   0  0  0  0  0  0  0  0  0  0  0  0  # atno 10718 bound_to 10713
  154.3802  135.6076  153.5787 H   0  0  0  0  0  0  0  0  0  0  0  0  # atno 10763 bound_to 10752
  152.9788  135.5859  154.4419 H   0  0  0  0  0  0  0  0  0  0  0  0  # atno 10764 bound_to 10752
  154.4187  135.2845  155.1968 H   0  0  0  0  0  0  0  0  0  0  0  0  # atno 10765 bound_to 10752
  140.5829  133.9996  155.8055 H   0  0  0  0  0  0  0  0  0  0  0  0  # atno 11005 bound_to 11000
  146.1607  140.6793  142.9279 LP  0  0  0  0  0  0  0  0  0  0  0  0  # atno 17320 bound_to 7965
  144.7327  140.4720  143.6926 LP  0  0  0  0  0  0  0  0  0  0  0  0  # atno 17321 bound_to 7965
  140.1378  144.5230  150.6763 LP  0  0  0  0  0  0  0  0  0  0  0  0  # atno 17342 bound_to 10162
  140.6892  143.2367  151.5176 LP  0  0  0  0  0  0  0  0  0  0  0  0  # atno 17343 bound_to 10162
  155.9701  130.4181  150.4312 LP  0  0  0  0  0  0  0  0  0  0  0  0  # atno 17370 bound_to 10713
  157.2352  131.0513  151.2469 LP  0  0  0  0  0  0  0  0  0  0  0  0  # atno 17371 bound_to 10713
  141.0984  133.9806  157.3120 LP  0  0  0  0  0  0  0  0  0  0  0  0  # atno 17394 bound_to 11000
  139.9309  135.0200  156.8396 LP  0  0  0  0  0  0  0  0  0  0  0  0  # atno 17395 bound_to 11000

$$$$
