AV-unprocessed.smi:1929|AV-procd|sdf|7807|dock6
  -GOLD-   22720 9553D 1   1.00000     0.00000
 Structure written by MMmdl.
 43 44  0  0  0  0  0  0  0  0  4 V2000
  154.3100  133.4600  158.5544 C   0  0  0  0  0  0  0  0  0  0  0  0
  153.1595  132.5747  158.4200 N   0  5  0  0  0  0  0  0  0  0  0  0
  153.1018  131.5481  157.5297 C   0  0  0  0  0  0  0  0  0  0  0  0
  153.9416  131.1300  156.7257 O   0  0  0  0  0  0  0  0  0  0  0  0
  151.7316  130.8608  157.5672 C   0  0  0  0  0  0  0  0  0  0  0  0
  151.0134  131.0763  156.2861 N   0  3  2  0  0  0  0  0  0  0  0  0
  149.9968  132.1610  156.3566 C   0  0  0  0  0  0  0  0  0  0  0  0
  149.3794  132.4326  154.9752 C   0  0  0  0  0  0  0  0  0  0  0  0
  148.7635  131.1567  154.3798 C   0  0  1  0  0  0  0  0  0  0  0  0
  148.2647  131.4296  153.0348 N   0  0  0  0  0  0  0  0  0  0  0  0
  147.1011  132.0317  152.7490 C   0  0  0  0  0  0  0  0  0  0  0  0
  146.3054  132.4132  153.6068 O   0  0  0  0  0  0  0  0  0  0  0  0
  146.9195  132.1371  151.4211 N   0  0  0  0  0  0  0  0  0  0  0  0
  145.8349  132.7356  150.7237 C   0  0  0  0  0  0  0  0  0  0  0  0
  145.2717  133.9101  151.2705 C   0  0  0  0  0  0  0  0  0  0  0  0
  144.1834  134.5274  150.6205 C   0  0  0  0  0  0  0  0  0  0  0  0
  143.6814  133.9873  149.4893 N   0  3  0  0  0  0  0  0  0  0  0  0
  144.1758  132.8583  148.9375 C   0  0  0  0  0  0  0  0  0  0  0  0
  145.2643  132.1969  149.5423 C   0  0  0  0  0  0  0  0  0  0  0  0
  149.8206  130.0379  154.3553 C   0  0  0  0  0  0  0  0  0  0  0  0
  150.4322  129.8194  155.7496 C   0  0  0  0  0  0  0  0  0  0  0  0
  154.1471  134.2236  159.3148 H   0  0  0  0  0  0  0  0  0  0  0  0
  154.5361  133.9904  157.6289 H   0  0  0  0  0  0  0  0  0  0  0  0
  155.2160  132.9254  158.8414 H   0  0  0  0  0  0  0  0  0  0  0  0
  151.9169  129.7959  157.7144 H   0  0  0  0  0  0  0  0  0  0  0  0
  151.1161  131.1847  158.4095 H   0  0  0  0  0  0  0  0  0  0  0  0
  149.2180  131.8860  157.0695 H   0  0  0  0  0  0  0  0  0  0  0  0
  150.4483  133.0822  156.7253 H   0  0  0  0  0  0  0  0  0  0  0  0
  148.6206  133.2116  155.0595 H   0  0  0  0  0  0  0  0  0  0  0  0
  150.1496  132.8217  154.3073 H   0  0  0  0  0  0  0  0  0  0  0  0
  147.9334  130.8482  155.0188 H   0  0  0  0  0  0  0  0  0  0  0  0
  148.8534  131.1425  152.2663 H   0  0  0  0  0  0  0  0  0  0  0  0
  147.6151  131.6916  150.8407 H   0  0  0  0  0  0  0  0  0  0  0  0
  145.6715  134.3415  152.1768 H   0  0  0  0  0  0  0  0  0  0  0  0
  143.7018  135.4290  150.9700 H   0  0  0  0  0  0  0  0  0  0  0  0
  143.6860  132.5157  148.0379 H   0  0  0  0  0  0  0  0  0  0  0  0
  145.6306  131.2848  149.0964 H   0  0  0  0  0  0  0  0  0  0  0  0
  149.3768  129.1066  154.0013 H   0  0  0  0  0  0  0  0  0  0  0  0
  150.6129  130.2910  153.6491 H   0  0  0  0  0  0  0  0  0  0  0  0
  151.2065  129.0543  155.6831 H   0  0  0  0  0  0  0  0  0  0  0  0
  149.6743  129.4449  156.4396 H   0  0  0  0  0  0  0  0  0  0  0  0
  151.7166  131.3731  155.6245 H   0  0  0  0  0  0  0  0  0  0  0  0
  142.8924  134.4484  149.0352 H   0  0  0  0  0  0  0  0  0  0  0  0
  1  2  1  0  0  0  0
  1 22  1  0  0  0  0
  1 23  1  0  0  0  0
  1 24  1  0  0  0  0
  2  3  1  0  0  0  0
  3  4  2  0  0  0  0
  3  5  1  0  0  0  0
  5  6  1  0  0  0  0
  5 25  1  0  0  0  0
  5 26  1  0  0  0  0
  6 21  1  0  0  0  0
  6  7  1  0  0  0  0
  6 42  1  0  0  0  0
  7  8  1  0  0  0  0
  7 27  1  0  0  0  0
  7 28  1  0  0  0  0
  8  9  1  0  0  0  0
  8 29  1  0  0  0  0
  8 30  1  0  0  0  0
  9 10  1  0  0  0  0
  9 20  1  0  0  0  0
  9 31  1  0  0  0  0
 10 11  1  0  0  0  0
 10 32  1  0  0  0  0
 11 12  2  0  0  0  0
 11 13  1  0  0  0  0
 13 14  1  0  0  0  0
 13 33  1  0  0  0  0
 14 19  1  0  0  0  0
 14 15  2  0  0  0  0
 15 16  1  0  0  0  0
 15 34  1  0  0  0  0
 16 17  2  0  0  0  0
 16 35  1  0  0  0  0
 17 18  1  0  0  0  0
 17 43  1  0  0  0  0
 18 19  2  0  0  0  0
 18 36  1  0  0  0  0
 19 37  1  0  0  0  0
 20 21  1  0  0  0  0
 20 38  1  0  0  0  0
 20 39  1  0  0  0  0
 21 40  1  0  0  0  0
 21 41  1  0  0  0  0
M  CHG  1   2  -1
M  CHG  1   6   1
M  CHG  1  17   1
M  END
> <s_m_source_file>
AV-unprocessed.smi

> <i_m_source_file_index>
1929

> <i_lp_mmshare_version>
43012

> <i_f3d_flags>
0

> <s_epik_input>
W0NIM11bTkhdQyg9TylbQ0gyXU4xW0NIMl1bQ0gyXVtDSF0oW0NIMl1bQ0gyXTEpW05IXUMoPU8pW05IXWMyW2NIXVtjSF1uW2NIXVtjSF0y

> <s_epik_cmdline>
J2VwaWtfcHl0aG9uJywgJy1waCcsICc3LjAnLCAnLXRuJywgJzgnLCAnLW1hJywgJzIwMCcsICctbWV0YWxfYmluZGluZycsICctaW1hZScsICc8aW5maWxlLm1hZT4nLCAnLW9tYWUnLCAnPG91dGZpbGUubWFlPic=

> <r_epik_Ionization_Penalty>
7.25133

> <r_epik_Ionization_Penalty_Charging>
7.25131

> <r_epik_Ionization_Penalty_Neutral>
1.84563e-05

> <r_epik_State_Penalty>
8.093

> <r_epik_Charging_Adjusted_Penalty>
15.3443

> <i_epik_Tot_Q>
1

> <i_epik_Tot_abs_Q>
3

> <r_epik_Metal_State_Penalty>
4.12368

> <b_epik_Metal_Only>
1

> <s_lp_Force_Field>
OPLS_2005

> <r_lp_Energy>
21.0398

> <b_lp_Chiralities_Consistent>
1

> <s_lp_Variant>
AV-unprocessed.smi:1929-9

> <Gold.Version>
5.8.1

> <Gold.Id.Protein>
6NUR|6NUR_protein|mol2

> <Gold.PLP.Fitness>
48.7853

> <Gold.PLP.PLP>
-35.5979

> <Gold.PLP.part.hbond>
-4.5394

> <Gold.PLP.part.metal>
0.0000

> <Gold.PLP.part.buried>
-5.4480

> <Gold.PLP.part.nonpolar>
-27.1761

> <Gold.PLP.part.repulsive>
0.2483

> <Gold.PLP.ligand.clash>
0.0000

> <Gold.PLP.ligand.torsion>
1.2250

> <Gold.PLP.Chemscore.Hbond>
5.1920

> <Gold.PLP.Chemscore.CHOScore>
0.0000

> <Gold.PLP.Chemscore.Metal>
0.0000

> <Gold.Chemscore.Hbonds>
donor molecule, donor type, donor heavy atom, donor atom, acceptor molecule, acceptor atom, score
      L1  H    10    32       P1 10747  0.94
      L1  H    13    33       P1 10747  1.00
      L1  H    17    43       P1 10186  1.18
      P1  H  6896  6909       L1     2  1.00

> <Gold.PLP.Chemscore.Internal.Correction>
0.0615

> <Gold.Rescore>
     Score         DG    S(hbond)    S(metal)    S(lipo)     H(rot)  DE(clash)    DE(int)     intcor
     18.80     -21.29       3.34        0.00      76.10       1.66       0.08       2.40       ----

> <Gold.Chemscore.Fitness>
18.8026

> <Gold.Chemscore.DG>
-21.2894

> <Gold.Chemscore.ZeroCoef>
-5.4800

> <Gold.Chemscore.Hbond>
3.3378

> <Gold.Chemscore.Metal>
0.0000

> <Gold.Chemscore.Lipo>
76.1048

> <Gold.Chemscore.Internal_Hbond>
0.0000

> <Gold.Chemscore.DEClash>
0.0824

> <Gold.Chemscore.DEInternal>
2.4044

> <Gold.Chemscore.Rot>
1.6574

> <Gold.Chemscore.Internal.Correction>
   9.000000E+99

> <Gold.Chemscore.Hbonds>
donor molecule, donor type, donor heavy atom, donor atom, acceptor molecule, acceptor atom, score
      L1  H    10    32       P1 10747  0.66
      L1  H    13    33       P1 10747  1.00
      L1  H    17    43       P1 10186  0.59
      P1  H  6896  6909       L1     2  0.02

> <Gold.Chemscore.Hbond.Weighted>
-11.1481

> <Gold.Chemscore.Metal.Weighted>
-0.0000

> <Gold.Chemscore.Lipo.Weighted>
-8.9043

> <Gold.Chemscore.Internal_Hbond.Weighted>
0.0000

> <Gold.Chemscore.DEClash.Weighted>
0.0824

> <Gold.Chemscore.DEInternal.Weighted>
2.4044

> <Gold.Chemscore.Rot.Weighted>
4.2430

> <Gold.Chemscore.Internal.Correction.Weighted>
   9.000000E+99

> <Gold.Protein.RotatedTorsions>
[ 6907 6896 6895 6894 ] final -102.09 input  -60.11 | X-H torsion
[ 7974 7965 7964 7962 ] final -147.86 input  175.53 | X-H torsion
[ 8008 7997 7996 7995 ] final   98.85 input   59.86 | X-H torsion
[ 10167 10162 10161 10158 ] final  -59.72 input  -65.29 | X-H torsion
[ 10718 10713 10712 10709 ] final  122.80 input   66.30 | X-H torsion
[ 10763 10752 10751 10750 ] final   48.89 input  -60.55 | X-H torsion
[ 11005 11000 10999 10996 ] final  107.50 input  -57.11 | X-H torsion

> <Gold.Protein.ActiveResidues>
 VAL166  LYS551  ARG553  GLY616  TRP617  ASP618  TYR619  PRO620  LYS621  CYS622 
 ASP623  PHE694  ASN695  SER759  ASP760  ASP761  ALA762  ILE779  LEU786  VAL792 
 PHE793  MET794  SER795  GLU796  ALA797  LYS798  CYS799  TRP800  GLU811  SER814 

> <Gold.Protein.RotatedAtoms>
  150.7182  134.0634  159.3838 H   0  0  0  0  0  0  0  0  0  0  0  0  # atno 6907 bound_to 6896
  151.8614  135.0520  160.0479 H   0  0  0  0  0  0  0  0  0  0  0  0  # atno 6908 bound_to 6896
  152.2714  133.5350  159.5478 H   0  0  0  0  0  0  0  0  0  0  0  0  # atno 6909 bound_to 6896
  144.8066  140.5272  143.5671 H   0  0  0  0  0  0  0  0  0  0  0  0  # atno 7974 bound_to 7965
  156.1046  140.3237  155.7988 H   0  0  0  0  0  0  0  0  0  0  0  0  # atno 8008 bound_to 7997
  155.4779  140.0551  157.2988 H   0  0  0  0  0  0  0  0  0  0  0  0  # atno 8009 bound_to 7997
  154.4719  140.2015  155.9989 H   0  0  0  0  0  0  0  0  0  0  0  0  # atno 8010 bound_to 7997
  140.6117  143.2389  151.5694 H   0  0  0  0  0  0  0  0  0  0  0  0  # atno 10167 bound_to 10162
  157.5714  131.1083  150.8360 H   0  0  0  0  0  0  0  0  0  0  0  0  # atno 10718 bound_to 10713
  152.9789  135.5929  154.4000 H   0  0  0  0  0  0  0  0  0  0  0  0  # atno 10763 bound_to 10752
  154.3647  135.2767  155.2302 H   0  0  0  0  0  0  0  0  0  0  0  0  # atno 10764 bound_to 10752
  154.4284  135.6042  153.6108 H   0  0  0  0  0  0  0  0  0  0  0  0  # atno 10765 bound_to 10752
  139.8829  134.9402  156.5828 H   0  0  0  0  0  0  0  0  0  0  0  0  # atno 11005 bound_to 11000
  145.5423  139.1475  143.3440 LP  0  0  0  0  0  0  0  0  0  0  0  0  # atno 17320 bound_to 7965
  146.2358  140.5563  142.8955 LP  0  0  0  0  0  0  0  0  0  0  0  0  # atno 17321 bound_to 7965
  139.5366  144.2763  152.1264 LP  0  0  0  0  0  0  0  0  0  0  0  0  # atno 17342 bound_to 10162
  140.1964  144.4701  150.6453 LP  0  0  0  0  0  0  0  0  0  0  0  0  # atno 17343 bound_to 10162
  156.8830  130.5186  149.5290 LP  0  0  0  0  0  0  0  0  0  0  0  0  # atno 17370 bound_to 10713
  156.0759  130.5782  150.9473 LP  0  0  0  0  0  0  0  0  0  0  0  0  # atno 17371 bound_to 10713
  140.8014  133.8502  155.8730 LP  0  0  0  0  0  0  0  0  0  0  0  0  # atno 17394 bound_to 11000
  140.9589  134.1681  157.4669 LP  0  0  0  0  0  0  0  0  0  0  0  0  # atno 17395 bound_to 11000

$$$$
