AV-unprocessed.smi:1866|AV-procd|sdf|7556|dock8
  -GOLD-   22720 9273D 1   1.00000     0.00000
 Structure written by MMmdl.
 30 31  0  0  0  0  0  0  0  0  1 V2000
  147.5587  141.6495  155.5982 C   0  0  0  0  0  0  0  0  0  0  0  0
  147.0849  140.3873  154.9625 C   0  0  0  0  0  0  0  0  0  0  0  0
  145.8376  139.9242  155.1108 N   0  0  0  0  0  0  0  0  0  0  0  0
  145.6338  138.7335  154.4274 N   0  0  0  0  0  0  0  0  0  0  0  0
  146.7377  138.3325  153.7819 C   0  0  0  0  0  0  0  0  0  0  0  0
  146.8103  137.1461  153.0048 N   0  0  0  0  0  0  0  0  0  0  0  0
  145.8991  136.1630  152.8981 C   0  0  0  0  0  0  0  0  0  0  0  0
  144.8121  136.1333  153.4760 O   0  0  0  0  0  0  0  0  0  0  0  0
  146.3232  135.1969  152.0705 N   0  0  0  0  0  0  0  0  0  0  0  0
  145.5667  134.0005  151.7061 C   0  0  2  0  0  0  0  0  0  0  0  0
  146.4372  133.0217  150.8952 C   0  0  0  0  0  0  0  0  0  0  0  0
  145.5822  131.8706  150.3576 C   0  0  0  0  0  0  0  0  0  0  0  0
  144.4370  132.4126  149.4869 C   0  0  0  0  0  0  0  0  0  0  0  0
  143.7415  133.5511  150.0891 N   0  0  0  0  0  0  0  0  0  0  0  0
  144.2235  134.3623  151.0473 C   0  0  0  0  0  0  0  0  0  0  0  0
  143.5957  135.3508  151.4240 O   0  0  0  0  0  0  0  0  0  0  0  0
  148.1294  139.3873  153.9602 S   0  0  0  0  0  0  0  0  0  0  0  0
  146.7154  142.2357  155.9652 H   0  0  0  0  0  0  0  0  0  0  0  0
  148.1103  142.2488  154.8737 H   0  0  0  0  0  0  0  0  0  0  0  0
  148.2164  141.4193  156.4366 H   0  0  0  0  0  0  0  0  0  0  0  0
  147.6556  137.0338  152.4651 H   0  0  0  0  0  0  0  0  0  0  0  0
  147.2271  135.3060  151.6348 H   0  0  0  0  0  0  0  0  0  0  0  0
  145.2815  133.4916  152.6291 H   0  0  0  0  0  0  0  0  0  0  0  0
  146.9114  133.5428  150.0619 H   0  0  0  0  0  0  0  0  0  0  0  0
  147.2430  132.6270  151.5150 H   0  0  0  0  0  0  0  0  0  0  0  0
  146.1953  131.1755  149.7836 H   0  0  0  0  0  0  0  0  0  0  0  0
  145.1707  131.3041  151.1942 H   0  0  0  0  0  0  0  0  0  0  0  0
  144.8324  132.7381  148.5241 H   0  0  0  0  0  0  0  0  0  0  0  0
  143.7162  131.6220  149.2777 H   0  0  0  0  0  0  0  0  0  0  0  0
  142.8397  133.7831  149.6983 H   0  0  0  0  0  0  0  0  0  0  0  0
  1  2  1  0  0  0  0
  1 18  1  0  0  0  0
  1 19  1  0  0  0  0
  1 20  1  0  0  0  0
  2 17  1  0  0  0  0
  2  3  2  0  0  0  0
  3  4  1  0  0  0  0
  4  5  2  0  0  0  0
  5  6  1  0  0  0  0
  5 17  1  0  0  0  0
  6  7  1  0  0  0  0
  6 21  1  0  0  0  0
  7  8  2  0  0  0  0
  7  9  1  0  0  0  0
  9 10  1  0  0  0  0
  9 22  1  0  0  0  0
 10 15  1  0  0  0  0
 10 11  1  0  0  0  0
 10 23  1  0  0  0  0
 11 12  1  0  0  0  0
 11 24  1  0  0  0  0
 11 25  1  0  0  0  0
 12 13  1  0  0  0  0
 12 26  1  0  0  0  0
 12 27  1  0  0  0  0
 13 14  1  0  0  0  0
 13 28  1  0  0  0  0
 13 29  1  0  0  0  0
 14 15  1  0  0  0  0
 14 30  1  0  0  0  0
 15 16  2  0  0  0  0
M  END
> <s_m_source_file>
AV-unprocessed.smi

> <i_m_source_file_index>
1866

> <i_lp_mmshare_version>
43012

> <i_f3d_flags>
0

> <s_epik_input>
W0NIM11jMW5uYyhzMSlbTkhdQyg9TylbTkhdW0NAQEhdMltDSDJdW0NIMl1bQ0gyXVtOSF1DMj1P

> <s_epik_cmdline>
J2VwaWtfcHl0aG9uJywgJy1waCcsICc3LjAnLCAnLXRuJywgJzgnLCAnLW1hJywgJzIwMCcsICctbWV0YWxfYmluZGluZycsICctaW1hZScsICc8aW5maWxlLm1hZT4nLCAnLW9tYWUnLCAnPG91dGZpbGUubWFlPic=

> <r_lp_tautomer_probability>
1

> <r_epik_Ionization_Penalty>
0.00093002

> <r_epik_Ionization_Penalty_Charging>
0

> <r_epik_Ionization_Penalty_Neutral>
0.00093002

> <r_epik_State_Penalty>
-0

> <r_epik_Charging_Adjusted_Penalty>
0

> <i_epik_Tot_Q>
0

> <i_epik_Tot_abs_Q>
0

> <r_epik_Metal_State_Penalty>
0.280775

> <b_epik_Metal_Only>
0

> <s_lp_Force_Field>
OPLS_2005

> <r_lp_Energy>
8.18213

> <b_lp_Chiralities_Consistent>
1

> <s_lp_Variant>
AV-unprocessed.smi:1866-1

> <Gold.Version>
5.8.1

> <Gold.Id.Protein>
6NUR|6NUR_protein|mol2

> <Gold.PLP.Fitness>
30.9431

> <Gold.PLP.PLP>
-22.3548

> <Gold.PLP.part.hbond>
-3.0000

> <Gold.PLP.part.metal>
0.0000

> <Gold.PLP.part.buried>
-4.1804

> <Gold.PLP.part.nonpolar>
-16.1569

> <Gold.PLP.part.repulsive>
0.5549

> <Gold.PLP.ligand.clash>
0.0000

> <Gold.PLP.ligand.torsion>
0.0470

> <Gold.PLP.Chemscore.Hbond>
2.8800

> <Gold.PLP.Chemscore.CHOScore>
0.0000

> <Gold.PLP.Chemscore.Metal>
0.0000

> <Gold.Chemscore.Hbonds>
donor molecule, donor type, donor heavy atom, donor atom, acceptor molecule, acceptor atom, score
      L1  H     6    21       P1  7948  1.00
      L1  H     9    22       P1  7948  0.88
      L1  H    14    30       P1 10186  1.00

> <Gold.PLP.Chemscore.Internal.Correction>
0.0424

> <Gold.Rescore>
     Score         DG    S(hbond)    S(metal)    S(lipo)     H(rot)  DE(clash)    DE(int)     intcor
     13.47     -17.69       2.89        0.00      43.91       1.00       0.00       4.22       ----

> <Gold.Chemscore.Fitness>
13.4724

> <Gold.Chemscore.DG>
-17.6948

> <Gold.Chemscore.ZeroCoef>
-5.4800

> <Gold.Chemscore.Hbond>
2.8856

> <Gold.Chemscore.Metal>
0.0000

> <Gold.Chemscore.Lipo>
43.9055

> <Gold.Chemscore.Internal_Hbond>
0.0000

> <Gold.Chemscore.DEClash>
0.0009

> <Gold.Chemscore.DEInternal>
4.2215

> <Gold.Chemscore.Rot>
1.0000

> <Gold.Chemscore.Internal.Correction>
   9.000000E+99

> <Gold.Chemscore.Hbonds>
donor molecule, donor type, donor heavy atom, donor atom, acceptor molecule, acceptor atom, score
      L1  H     6    21       P1  7948  0.98
      L1  H     9    22       P1  7948  0.82
      L1  H    14    30       P1 10186  0.99

> <Gold.Chemscore.Hbond.Weighted>
-9.6379

> <Gold.Chemscore.Metal.Weighted>
-0.0000

> <Gold.Chemscore.Lipo.Weighted>
-5.1369

> <Gold.Chemscore.Internal_Hbond.Weighted>
0.0000

> <Gold.Chemscore.DEClash.Weighted>
0.0009

> <Gold.Chemscore.DEInternal.Weighted>
4.2215

> <Gold.Chemscore.Rot.Weighted>
2.5600

> <Gold.Chemscore.Internal.Correction.Weighted>
   9.000000E+99

> <Gold.Protein.RotatedTorsions>
[ 6907 6896 6895 6894 ] final  152.37 input  -60.11 | X-H torsion
[ 7974 7965 7964 7962 ] final -132.76 input  175.53 | X-H torsion
[ 8008 7997 7996 7995 ] final -103.15 input   59.86 | X-H torsion
[ 10167 10162 10161 10158 ] final  -89.52 input  -65.29 | X-H torsion
[ 10718 10713 10712 10709 ] final -126.58 input   66.30 | X-H torsion
[ 10763 10752 10751 10750 ] final   -6.01 input  -60.55 | X-H torsion
[ 11005 11000 10999 10996 ] final  -26.16 input  -57.11 | X-H torsion

> <Gold.Protein.ActiveResidues>
 VAL166  LYS551  ARG553  GLY616  TRP617  ASP618  TYR619  PRO620  LYS621  CYS622 
 ASP623  PHE694  ASN695  SER759  ASP760  ASP761  ALA762  ILE779  LEU786  VAL792 
 PHE793  MET794  SER795  GLU796  ALA797  LYS798  CYS799  TRP800  GLU811  SER814 

> <Gold.Protein.RotatedAtoms>
  152.0877  133.4184  159.4529 H   0  0  0  0  0  0  0  0  0  0  0  0  # atno 6907 bound_to 6896
  150.6862  134.2908  159.4675 H   0  0  0  0  0  0  0  0  0  0  0  0  # atno 6908 bound_to 6896
  152.0756  134.9504  160.0624 H   0  0  0  0  0  0  0  0  0  0  0  0  # atno 6909 bound_to 6896
  144.9256  140.7067  143.4938 H   0  0  0  0  0  0  0  0  0  0  0  0  # atno 7974 bound_to 7965
  154.8668  140.0424  157.1699 H   0  0  0  0  0  0  0  0  0  0  0  0  # atno 8008 bound_to 7997
  154.8782  140.2968  155.5420 H   0  0  0  0  0  0  0  0  0  0  0  0  # atno 8009 bound_to 7997
  156.2999  140.2416  156.3780 H   0  0  0  0  0  0  0  0  0  0  0  0  # atno 8010 bound_to 7997
  140.3640  143.2827  151.9580 H   0  0  0  0  0  0  0  0  0  0  0  0  # atno 10167 bound_to 10162
  156.1778  130.6711  151.0265 H   0  0  0  0  0  0  0  0  0  0  0  0  # atno 10718 bound_to 10713
  153.4064  135.7006  153.6389 H   0  0  0  0  0  0  0  0  0  0  0  0  # atno 10763 bound_to 10752
  153.4901  135.3674  155.2488 H   0  0  0  0  0  0  0  0  0  0  0  0  # atno 10764 bound_to 10752
  154.8714  135.4087  154.3409 H   0  0  0  0  0  0  0  0  0  0  0  0  # atno 10765 bound_to 10752
  140.9004  133.7528  156.0536 H   0  0  0  0  0  0  0  0  0  0  0  0  # atno 11005 bound_to 11000
  145.3225  139.1784  143.4580 LP  0  0  0  0  0  0  0  0  0  0  0  0  # atno 17320 bound_to 7965
  146.3224  140.3244  142.8635 LP  0  0  0  0  0  0  0  0  0  0  0  0  # atno 17321 bound_to 7965
  139.4811  144.5967  151.7678 LP  0  0  0  0  0  0  0  0  0  0  0  0  # atno 17342 bound_to 10162
  140.5099  144.1041  150.5992 LP  0  0  0  0  0  0  0  0  0  0  0  0  # atno 17343 bound_to 10162
  157.6848  131.0828  150.7273 LP  0  0  0  0  0  0  0  0  0  0  0  0  # atno 17370 bound_to 10713
  156.7331  130.4716  149.5495 LP  0  0  0  0  0  0  0  0  0  0  0  0  # atno 17371 bound_to 10713
  140.8237  134.3259  157.5373 LP  0  0  0  0  0  0  0  0  0  0  0  0  # atno 17394 bound_to 11000
  139.8741  134.9324  156.3553 LP  0  0  0  0  0  0  0  0  0  0  0  0  # atno 17395 bound_to 11000

$$$$
