AV-unprocessed.smi:2212|AV-procd|sdf|8953|dock6
  -GOLD-   2272012173D 1   1.00000     0.00000
 Structure written by MMmdl.
 31 32  0  0  0  0  0  0  0  0  1 V2000
  153.4730  142.3912  159.5368 C   0  0  0  0  0  0  0  0  0  0  0  0
  152.1266  142.3273  159.0851 O   0  0  0  0  0  0  0  0  0  0  0  0
  151.3682  143.5317  159.2042 C   0  0  0  0  0  0  0  0  0  0  0  0
  149.9133  143.3422  158.7521 C   0  0  0  0  0  0  0  0  0  0  0  0
  149.8583  142.7295  157.4311 N   0  0  0  0  0  0  0  0  0  0  0  0
  150.1540  141.4498  157.1666 C   0  0  0  0  0  0  0  0  0  0  0  0
  150.5293  140.6758  158.0530 O   0  0  0  0  0  0  0  0  0  0  0  0
  149.9997  141.1903  155.8138 N   0  0  0  0  0  0  0  0  0  0  0  0
  150.2655  140.0017  155.3683 C   0  0  0  0  0  0  0  0  0  0  0  0
  150.1503  139.5389  154.0674 N   0  0  0  0  0  0  0  0  0  0  0  0
  150.5471  138.2304  154.0448 C   0  0  0  0  0  0  0  0  0  0  0  0
  150.8993  137.8832  155.2794 C   0  0  0  0  0  0  0  0  0  0  0  0
  150.7389  138.9469  156.1149 O   0  0  0  0  0  0  0  0  0  0  0  0
  151.6105  144.1092  160.6115 C   0  0  0  0  0  0  0  0  0  0  0  0
  151.8221  145.4821  159.9705 C   0  0  0  0  0  0  0  0  0  0  0  0
  152.1574  144.7450  158.6730 C   0  0  0  0  0  0  0  0  0  0  0  0
  153.9113  141.3945  159.4945 H   0  0  0  0  0  0  0  0  0  0  0  0
  153.5413  142.7390  160.5676 H   0  0  0  0  0  0  0  0  0  0  0  0
  154.0814  143.0391  158.9060 H   0  0  0  0  0  0  0  0  0  0  0  0
  149.3807  142.7037  159.4587 H   0  0  0  0  0  0  0  0  0  0  0  0
  149.3752  144.2904  158.7391 H   0  0  0  0  0  0  0  0  0  0  0  0
  149.5630  143.3198  156.6667 H   0  0  0  0  0  0  0  0  0  0  0  0
  149.8351  140.0421  153.2505 H   0  0  0  0  0  0  0  0  0  0  0  0
  150.5347  137.6715  153.1207 H   0  0  0  0  0  0  0  0  0  0  0  0
  151.2676  136.9619  155.7062 H   0  0  0  0  0  0  0  0  0  0  0  0
  150.7549  144.0541  161.2854 H   0  0  0  0  0  0  0  0  0  0  0  0
  152.5160  143.7260  161.0858 H   0  0  0  0  0  0  0  0  0  0  0  0
  150.9027  146.0660  159.9024 H   0  0  0  0  0  0  0  0  0  0  0  0
  152.6429  146.0624  160.3927 H   0  0  0  0  0  0  0  0  0  0  0  0
  153.2272  144.5549  158.5695 H   0  0  0  0  0  0  0  0  0  0  0  0
  151.7432  145.2023  157.7740 H   0  0  0  0  0  0  0  0  0  0  0  0
  1  2  1  0  0  0  0
  1 17  1  0  0  0  0
  1 18  1  0  0  0  0
  1 19  1  0  0  0  0
  2  3  1  0  0  0  0
  3 16  1  0  0  0  0
  3  4  1  0  0  0  0
  3 14  1  0  0  0  0
  4  5  1  0  0  0  0
  4 20  1  0  0  0  0
  4 21  1  0  0  0  0
  5 22  1  0  0  0  0
  5  6  1  0  0  0  0
  6  8  1  0  0  0  0
  6  7  2  0  0  0  0
  8  9  2  0  0  0  0
  9 13  1  0  0  0  0
  9 10  1  0  0  0  0
 10 23  1  0  0  0  0
 10 11  1  0  0  0  0
 11 24  1  0  0  0  0
 11 12  2  0  0  0  0
 12 25  1  0  0  0  0
 12 13  1  0  0  0  0
 14 15  1  0  0  0  0
 14 26  1  0  0  0  0
 14 27  1  0  0  0  0
 15 16  1  0  0  0  0
 15 28  1  0  0  0  0
 15 29  1  0  0  0  0
 16 30  1  0  0  0  0
 16 31  1  0  0  0  0
M  END
> <s_m_source_file>
AV-unprocessed.smi

> <i_m_source_file_index>
2212

> <i_lp_mmshare_version>
43012

> <i_f3d_flags>
0

> <s_epik_input>
W0NIMl0xW0NIMl1bQ0gyXUMxKE9bQ0gzXSlbQ0gyXVtOSF1DKD1PKVtOSF1jMm5bY0hdW2NIXW8y

> <s_epik_cmdline>
J2VwaWtfcHl0aG9uJywgJy1waCcsICc3LjAnLCAnLXRuJywgJzgnLCAnLW1hJywgJzIwMCcsICctbWV0YWxfYmluZGluZycsICctaW1hZScsICc8aW5maWxlLm1hZT4nLCAnLW9tYWUnLCAnPG91dGZpbGUubWFlPic=

> <r_lp_tautomer_probability>
0.107061

> <r_epik_Ionization_Penalty>
1.29244

> <r_epik_Ionization_Penalty_Charging>
1.29208

> <r_epik_Ionization_Penalty_Neutral>
0.000357989

> <r_epik_State_Penalty>
2.59896

> <r_epik_Charging_Adjusted_Penalty>
3.89105

> <i_epik_Tot_Q>
0

> <i_epik_Tot_abs_Q>
0

> <r_epik_Metal_State_Penalty>
3.62496

> <b_epik_Metal_Only>
0

> <s_lp_Force_Field>
OPLS_2005

> <r_lp_Energy>
40.2308

> <b_lp_Chiralities_Consistent>
1

> <s_lp_Variant>
AV-unprocessed.smi:2212-3

> <Gold.Version>
5.8.1

> <Gold.Id.Protein>
6NUR|6NUR_protein|mol2

> <Gold.PLP.Fitness>
41.7863

> <Gold.PLP.PLP>
-33.1863

> <Gold.PLP.part.hbond>
-2.0000

> <Gold.PLP.part.metal>
0.0000

> <Gold.PLP.part.buried>
-6.1526

> <Gold.PLP.part.nonpolar>
-27.2452

> <Gold.PLP.part.repulsive>
1.8359

> <Gold.PLP.ligand.clash>
0.0000

> <Gold.PLP.ligand.torsion>
0.2764

> <Gold.PLP.Chemscore.Hbond>
1.8613

> <Gold.PLP.Chemscore.CHOScore>
1.1000

> <Gold.PLP.Chemscore.Metal>
0.0000

> <Gold.Chemscore.Hbonds>
donor molecule, donor type, donor heavy atom, donor atom, acceptor molecule, acceptor atom, score
      L1  H     5    22       P1  8028  1.00
      L1  H    10    23       P1  7957  0.77
      L1  C    11    24       P1  7948  0.52
      L1  C    11    24       P1  7949  0.52

> <Gold.PLP.Chemscore.Internal.Correction>
0.2692

> <Gold.Rescore>
     Score         DG    S(hbond)    S(metal)    S(lipo)     H(rot)  DE(clash)    DE(int)     intcor
     13.17     -15.50       1.66        0.00      74.14       1.64       0.00       2.33       ----

> <Gold.Chemscore.Fitness>
13.1666

> <Gold.Chemscore.DG>
-15.4972

> <Gold.Chemscore.ZeroCoef>
-5.4800

> <Gold.Chemscore.Hbond>
1.6599

> <Gold.Chemscore.Metal>
0.0000

> <Gold.Chemscore.Lipo>
74.1381

> <Gold.Chemscore.Internal_Hbond>
0.0000

> <Gold.Chemscore.DEClash>
0.0038

> <Gold.Chemscore.DEInternal>
2.3267

> <Gold.Chemscore.Rot>
1.6411

> <Gold.Chemscore.Internal.Correction>
   9.000000E+99

> <Gold.Chemscore.Hbonds>
donor molecule, donor type, donor heavy atom, donor atom, acceptor molecule, acceptor atom, score
      L1  H     5    22       P1  8028  1.00
      L1  H    10    23       P1  7957  0.73

> <Gold.Chemscore.Hbond.Weighted>
-5.5441

> <Gold.Chemscore.Metal.Weighted>
-0.0000

> <Gold.Chemscore.Lipo.Weighted>
-8.6742

> <Gold.Chemscore.Internal_Hbond.Weighted>
0.0000

> <Gold.Chemscore.DEClash.Weighted>
0.0038

> <Gold.Chemscore.DEInternal.Weighted>
2.3267

> <Gold.Chemscore.Rot.Weighted>
4.2011

> <Gold.Chemscore.Internal.Correction.Weighted>
   9.000000E+99

> <Gold.Protein.RotatedTorsions>
[ 6907 6896 6895 6894 ] final   61.68 input  -60.11 | X-H torsion
[ 7974 7965 7964 7962 ] final -111.62 input  175.53 | X-H torsion
[ 8008 7997 7996 7995 ] final -129.11 input   59.86 | X-H torsion
[ 10167 10162 10161 10158 ] final   68.44 input  -65.29 | X-H torsion
[ 10718 10713 10712 10709 ] final   68.97 input   66.30 | X-H torsion
[ 10763 10752 10751 10750 ] final -143.26 input  -60.55 | X-H torsion
[ 11005 11000 10999 10996 ] final  129.64 input  -57.11 | X-H torsion

> <Gold.Protein.ActiveResidues>
 VAL166  LYS551  ARG553  GLY616  TRP617  ASP618  TYR619  PRO620  LYS621  CYS622 
 ASP623  PHE694  ASN695  SER759  ASP760  ASP761  ALA762  ILE779  LEU786  VAL792 
 PHE793  MET794  SER795  GLU796  ALA797  LYS798  CYS799  TRP800  GLU811  SER814 

> <Gold.Protein.RotatedAtoms>
  152.4109  134.6126  160.0029 H   0  0  0  0  0  0  0  0  0  0  0  0  # atno 6907 bound_to 6896
  151.6303  133.3327  159.3115 H   0  0  0  0  0  0  0  0  0  0  0  0  # atno 6908 bound_to 6896
  150.8000  134.7128  159.6658 H   0  0  0  0  0  0  0  0  0  0  0  0  # atno 6909 bound_to 6896
  145.1539  140.8843  143.3630 H   0  0  0  0  0  0  0  0  0  0  0  0  # atno 7974 bound_to 7965
  155.2738  140.0441  157.3009 H   0  0  0  0  0  0  0  0  0  0  0  0  # atno 8008 bound_to 7997
  154.5637  140.2353  155.8264 H   0  0  0  0  0  0  0  0  0  0  0  0  # atno 8009 bound_to 7997
  156.2068  140.3010  155.9652 H   0  0  0  0  0  0  0  0  0  0  0  0  # atno 8010 bound_to 7997
  140.0786  144.5090  150.7177 H   0  0  0  0  0  0  0  0  0  0  0  0  # atno 10167 bound_to 10162
  157.6319  130.9401  150.0449 H   0  0  0  0  0  0  0  0  0  0  0  0  # atno 10718 bound_to 10713
  154.8477  135.3473  154.6160 H   0  0  0  0  0  0  0  0  0  0  0  0  # atno 10763 bound_to 10752
  153.6768  135.6982  153.5134 H   0  0  0  0  0  0  0  0  0  0  0  0  # atno 10764 bound_to 10752
  153.2699  135.4296  155.0934 H   0  0  0  0  0  0  0  0  0  0  0  0  # atno 10765 bound_to 10752
  139.9626  134.9598  156.9177 H   0  0  0  0  0  0  0  0  0  0  0  0  # atno 11005 bound_to 11000
  145.0402  139.3266  143.5980 LP  0  0  0  0  0  0  0  0  0  0  0  0  # atno 17320 bound_to 7965
  146.3491  139.9772  142.8699 LP  0  0  0  0  0  0  0  0  0  0  0  0  # atno 17321 bound_to 7965
  140.7089  143.2489  151.4641 LP  0  0  0  0  0  0  0  0  0  0  0  0  # atno 17342 bound_to 10162
  139.5793  144.1747  152.1946 LP  0  0  0  0  0  0  0  0  0  0  0  0  # atno 17343 bound_to 10162
  156.1529  130.3642  149.9411 LP  0  0  0  0  0  0  0  0  0  0  0  0  # atno 17370 bound_to 10713
  156.7427  130.9085  151.3633 LP  0  0  0  0  0  0  0  0  0  0  0  0  # atno 17371 bound_to 10713
  140.5465  134.0668  155.7356 LP  0  0  0  0  0  0  0  0  0  0  0  0  # atno 17394 bound_to 11000
  141.1305  133.9311  157.2546 LP  0  0  0  0  0  0  0  0  0  0  0  0  # atno 17395 bound_to 11000

$$$$
