AV-unprocessed.smi:1081|AV-procd|sdf|4711|dock1
  -GOLD-   22720 3233D 1   1.00000     0.00000
 Structure written by MMmdl.
 53 55  0  0  0  0  0  0  0  0  2 V2000
  147.1888  140.4863  153.1248 O   0  0  0  0  0  0  0  0  0  0  0  0
  147.8446  139.4454  153.1131 C   0  0  0  0  0  0  0  0  0  0  0  0
  147.5551  138.4032  152.3197 N   0  0  0  0  0  0  0  0  0  0  0  0
  146.4280  138.3428  151.3896 C   0  0  0  0  0  0  0  0  0  0  0  0
  145.0840  138.0132  152.0685 C   0  0  0  0  0  0  0  0  0  0  0  0
  144.6966  138.7196  153.0017 O   0  0  0  0  0  0  0  0  0  0  0  0
  144.3693  136.9496  151.6261 N   0  0  0  0  0  0  0  0  0  0  0  0
  144.7951  136.0088  150.5797 C   0  0  0  0  0  0  0  0  0  0  0  0
  145.0879  134.6430  151.2270 C   0  0  0  0  0  0  0  0  0  0  0  0
  143.8621  134.1274  152.0041 C   0  0  0  0  0  0  0  0  0  0  0  0
  143.3107  135.1948  152.9675 C   0  0  0  0  0  0  0  0  0  0  0  0
  143.1004  136.5357  152.2409 C   0  0  0  0  0  0  0  0  0  0  0  0
  148.9241  139.1912  153.8739 N   0  0  0  0  0  0  0  0  0  0  0  0
  149.5519  140.0122  154.8519 C   0  0  0  0  0  0  0  0  0  0  0  0
  150.2805  139.3661  155.8720 C   0  0  0  0  0  0  0  0  0  0  0  0
  150.9260  140.1265  156.8687 C   0  0  0  0  0  0  0  0  0  0  0  0
  150.8384  141.5411  156.8445 C   0  0  0  0  0  0  0  0  0  0  0  0
  151.4568  142.3880  157.7920 N   0  0  0  0  0  0  0  0  0  0  0  0
  151.9953  141.7801  159.0105 C   0  0  0  0  0  0  0  0  0  0  0  0
  152.9902  142.7184  159.7158 C   0  0  0  0  0  0  0  0  0  0  0  0
  152.3743  144.1028  159.9588 C   0  0  0  0  0  0  0  0  0  0  0  0
  151.8702  144.6876  158.6326 C   0  0  0  0  0  0  0  0  0  0  0  0
  150.8837  143.7297  157.9438 C   0  0  0  0  0  0  0  0  0  0  0  0
  150.1268  142.1152  155.8447 N   0  3  0  0  0  0  0  0  0  0  0  0
  149.4950  141.4265  154.8703 C   0  0  0  0  0  0  0  0  0  0  0  0
  148.1401  137.5826  152.3751 H   0  0  0  0  0  0  0  0  0  0  0  0
  146.3495  139.2912  150.8556 H   0  0  0  0  0  0  0  0  0  0  0  0
  146.6484  137.5730  150.6495 H   0  0  0  0  0  0  0  0  0  0  0  0
  143.9950  135.9082  149.8450 H   0  0  0  0  0  0  0  0  0  0  0  0
  145.6653  136.3385  150.0154 H   0  0  0  0  0  0  0  0  0  0  0  0
  145.3763  133.9199  150.4638 H   0  0  0  0  0  0  0  0  0  0  0  0
  145.9384  134.7357  151.9039 H   0  0  0  0  0  0  0  0  0  0  0  0
  143.0814  133.8517  151.2940 H   0  0  0  0  0  0  0  0  0  0  0  0
  144.1154  133.2190  152.5512 H   0  0  0  0  0  0  0  0  0  0  0  0
  142.3723  134.8533  153.4054 H   0  0  0  0  0  0  0  0  0  0  0  0
  144.0065  135.3351  153.7958 H   0  0  0  0  0  0  0  0  0  0  0  0
  142.7034  137.2752  152.9373 H   0  0  0  0  0  0  0  0  0  0  0  0
  142.3426  136.4265  151.4637 H   0  0  0  0  0  0  0  0  0  0  0  0
  149.3475  138.2845  153.7399 H   0  0  0  0  0  0  0  0  0  0  0  0
  150.3463  138.2880  155.8959 H   0  0  0  0  0  0  0  0  0  0  0  0
  151.4696  139.6042  157.6413 H   0  0  0  0  0  0  0  0  0  0  0  0
  151.1709  141.5334  159.6808 H   0  0  0  0  0  0  0  0  0  0  0  0
  152.5139  140.8509  158.7734 H   0  0  0  0  0  0  0  0  0  0  0  0
  153.3099  142.2795  160.6612 H   0  0  0  0  0  0  0  0  0  0  0  0
  153.8878  142.8226  159.1048 H   0  0  0  0  0  0  0  0  0  0  0  0
  151.5483  144.0225  160.6667 H   0  0  0  0  0  0  0  0  0  0  0  0
  153.1105  144.7692  160.4090 H   0  0  0  0  0  0  0  0  0  0  0  0
  151.3924  145.6522  158.8063 H   0  0  0  0  0  0  0  0  0  0  0  0
  152.7169  144.8765  157.9714 H   0  0  0  0  0  0  0  0  0  0  0  0
  150.6008  144.1606  156.9836 H   0  0  0  0  0  0  0  0  0  0  0  0
  149.9695  143.6515  158.5332 H   0  0  0  0  0  0  0  0  0  0  0  0
  148.9770  142.0455  154.1551 H   0  0  0  0  0  0  0  0  0  0  0  0
  150.0660  143.1332  155.8236 H   0  0  0  0  0  0  0  0  0  0  0  0
  1  2  2  0  0  0  0
  2  3  1  0  0  0  0
  2 13  1  0  0  0  0
  3  4  1  0  0  0  0
  3 26  1  0  0  0  0
  4  5  1  0  0  0  0
  4 27  1  0  0  0  0
  4 28  1  0  0  0  0
  5  6  2  0  0  0  0
  5  7  1  0  0  0  0
  7 12  1  0  0  0  0
  7  8  1  0  0  0  0
  8  9  1  0  0  0  0
  8 29  1  0  0  0  0
  8 30  1  0  0  0  0
  9 10  1  0  0  0  0
  9 31  1  0  0  0  0
  9 32  1  0  0  0  0
 10 11  1  0  0  0  0
 10 33  1  0  0  0  0
 10 34  1  0  0  0  0
 11 12  1  0  0  0  0
 11 35  1  0  0  0  0
 11 36  1  0  0  0  0
 12 37  1  0  0  0  0
 12 38  1  0  0  0  0
 13 14  1  0  0  0  0
 13 39  1  0  0  0  0
 14 25  1  0  0  0  0
 14 15  2  0  0  0  0
 15 16  1  0  0  0  0
 15 40  1  0  0  0  0
 16 17  2  0  0  0  0
 16 41  1  0  0  0  0
 17 18  1  0  0  0  0
 17 24  1  0  0  0  0
 18 23  1  0  0  0  0
 18 19  1  0  0  0  0
 19 20  1  0  0  0  0
 19 42  1  0  0  0  0
 19 43  1  0  0  0  0
 20 21  1  0  0  0  0
 20 44  1  0  0  0  0
 20 45  1  0  0  0  0
 21 22  1  0  0  0  0
 21 46  1  0  0  0  0
 21 47  1  0  0  0  0
 22 23  1  0  0  0  0
 22 48  1  0  0  0  0
 22 49  1  0  0  0  0
 23 50  1  0  0  0  0
 23 51  1  0  0  0  0
 24 25  2  0  0  0  0
 24 53  1  0  0  0  0
 25 52  1  0  0  0  0
M  CHG  1  24   1
M  END
> <s_m_source_file>
AV-unprocessed.smi

> <i_m_source_file_index>
1081

> <i_lp_mmshare_version>
43012

> <i_f3d_flags>
0

> <s_epik_input>
W0NIMl0xW0NIMl1bQ0gyXVtDSDJdW0NIMl1OMUMoPU8pW0NIMl1bTkhdQyg9TylbTkhdYzJbY0hdW2NIXWMobltjSF0yKU4zW0NIMl1bQ0gyXVtDSDJdW0NIMl1bQ0gyXTM=

> <s_epik_cmdline>
J2VwaWtfcHl0aG9uJywgJy1waCcsICc3LjAnLCAnLXRuJywgJzgnLCAnLW1hJywgJzIwMCcsICctbWV0YWxfYmluZGluZycsICctaW1hZScsICc8aW5maWxlLm1hZT4nLCAnLW9tYWUnLCAnPG91dGZpbGUubWFlPic=

> <r_lp_tautomer_probability>
0.999994

> <r_epik_Ionization_Penalty>
0.629404

> <r_epik_Ionization_Penalty_Charging>
0.629386

> <r_epik_Ionization_Penalty_Neutral>
1.8855e-05

> <r_epik_State_Penalty>
0.646103

> <r_epik_Charging_Adjusted_Penalty>
1.27549

> <i_epik_Tot_Q>
1

> <i_epik_Tot_abs_Q>
1

> <r_epik_Metal_State_Penalty>
0.824278

> <b_epik_Metal_Only>
0

> <s_lp_Force_Field>
OPLS_2005

> <r_lp_Energy>
42.181

> <b_lp_Chiralities_Consistent>
1

> <s_lp_Variant>
AV-unprocessed.smi:1081-2

> <Gold.Version>
5.8.1

> <Gold.Id.Protein>
6NUR|6NUR_protein|mol2

> <Gold.PLP.Fitness>
60.0485

> <Gold.PLP.PLP>
-51.8224

> <Gold.PLP.part.hbond>
-4.0000

> <Gold.PLP.part.metal>
0.0000

> <Gold.PLP.part.buried>
-3.6614

> <Gold.PLP.part.nonpolar>
-45.5589

> <Gold.PLP.part.repulsive>
0.6314

> <Gold.PLP.ligand.clash>
0.0000

> <Gold.PLP.ligand.torsion>
0.4506

> <Gold.PLP.Chemscore.Hbond>
2.9440

> <Gold.PLP.Chemscore.CHOScore>
0.0000

> <Gold.PLP.Chemscore.Metal>
0.0000

> <Gold.Chemscore.Hbonds>
donor molecule, donor type, donor heavy atom, donor atom, acceptor molecule, acceptor atom, score
      L1  H     3    26       P1  7948  1.00
      L1  H    24    53       P1  8028  1.89

> <Gold.PLP.Chemscore.Internal.Correction>
0.2953

> <Gold.Rescore>
     Score         DG    S(hbond)    S(metal)    S(lipo)     H(rot)  DE(clash)    DE(int)     intcor
     20.16     -23.16       1.93        0.00     122.85       1.23       1.44       1.56       ----

> <Gold.Chemscore.Fitness>
20.1590

> <Gold.Chemscore.DG>
-23.1620

> <Gold.Chemscore.ZeroCoef>
-5.4800

> <Gold.Chemscore.Hbond>
1.9311

> <Gold.Chemscore.Metal>
0.0000

> <Gold.Chemscore.Lipo>
122.8459

> <Gold.Chemscore.Internal_Hbond>
0.0000

> <Gold.Chemscore.DEClash>
1.4450

> <Gold.Chemscore.DEInternal>
1.5580

> <Gold.Chemscore.Rot>
1.2269

> <Gold.Chemscore.Internal.Correction>
   9.000000E+99

> <Gold.Chemscore.Hbonds>
donor molecule, donor type, donor heavy atom, donor atom, acceptor molecule, acceptor atom, score
      L1  H     3    26       P1  7948  0.98
      L1  H    24    53       P1  8028  0.89

> <Gold.Chemscore.Hbond.Weighted>
-6.4499

> <Gold.Chemscore.Metal.Weighted>
-0.0000

> <Gold.Chemscore.Lipo.Weighted>
-14.3730

> <Gold.Chemscore.Internal_Hbond.Weighted>
0.0000

> <Gold.Chemscore.DEClash.Weighted>
1.4450

> <Gold.Chemscore.DEInternal.Weighted>
1.5580

> <Gold.Chemscore.Rot.Weighted>
3.1410

> <Gold.Chemscore.Internal.Correction.Weighted>
   9.000000E+99

> <Gold.Protein.RotatedTorsions>
[ 6907 6896 6895 6894 ] final   66.24 input  -60.11 | X-H torsion
[ 7974 7965 7964 7962 ] final  -62.17 input  175.53 | X-H torsion
[ 8008 7997 7996 7995 ] final  -46.17 input   59.86 | X-H torsion
[ 10167 10162 10161 10158 ] final   -9.48 input  -65.29 | X-H torsion
[ 10718 10713 10712 10709 ] final  113.51 input   66.30 | X-H torsion
[ 10763 10752 10751 10750 ] final  138.46 input  -60.55 | X-H torsion
[ 11005 11000 10999 10996 ] final   96.56 input  -57.11 | X-H torsion

> <Gold.Protein.ActiveResidues>
 VAL166  LYS551  ARG553  GLY616  TRP617  ASP618  TYR619  PRO620  LYS621  CYS622 
 ASP623  PHE694  ASN695  SER759  ASP760  ASP761  ALA762  ILE779  LEU786  VAL792 
 PHE793  MET794  SER795  GLU796  ALA797  LYS798  CYS799  TRP800  GLU811  SER814 

> <Gold.Protein.RotatedAtoms>
  152.4467  134.5480  159.9858 H   0  0  0  0  0  0  0  0  0  0  0  0  # atno 6907 bound_to 6896
  151.5563  133.3404  159.2970 H   0  0  0  0  0  0  0  0  0  0  0  0  # atno 6908 bound_to 6896
  150.8385  134.7700  159.6976 H   0  0  0  0  0  0  0  0  0  0  0  0  # atno 6909 bound_to 6896
  145.7945  140.8690  143.0263 H   0  0  0  0  0  0  0  0  0  0  0  0  # atno 7974 bound_to 7965
  154.4005  140.1378  156.3967 H   0  0  0  0  0  0  0  0  0  0  0  0  # atno 8008 bound_to 7997
  155.7863  140.3480  155.5304 H   0  0  0  0  0  0  0  0  0  0  0  0  # atno 8009 bound_to 7997
  155.8624  140.0958  157.1595 H   0  0  0  0  0  0  0  0  0  0  0  0  # atno 8010 bound_to 7997
  140.7088  143.5853  150.8949 H   0  0  0  0  0  0  0  0  0  0  0  0  # atno 10167 bound_to 10162
  157.6334  131.0985  150.7051 H   0  0  0  0  0  0  0  0  0  0  0  0  # atno 10718 bound_to 10713
  153.8899  135.3034  155.3447 H   0  0  0  0  0  0  0  0  0  0  0  0  # atno 10763 bound_to 10752
  154.7721  135.4880  153.9673 H   0  0  0  0  0  0  0  0  0  0  0  0  # atno 10764 bound_to 10752
  153.1303  135.6802  153.9287 H   0  0  0  0  0  0  0  0  0  0  0  0  # atno 10765 bound_to 10752
  139.8781  134.8957  156.4176 H   0  0  0  0  0  0  0  0  0  0  0  0  # atno 11005 bound_to 11000
  144.6777  140.0171  143.7484 LP  0  0  0  0  0  0  0  0  0  0  0  0  # atno 17320 bound_to 7965
  145.9942  139.3039  143.0966 LP  0  0  0  0  0  0  0  0  0  0  0  0  # atno 17321 bound_to 7965
  139.9579  143.6197  152.3010 LP  0  0  0  0  0  0  0  0  0  0  0  0  # atno 17342 bound_to 10162
  139.6739  144.7659  151.1732 LP  0  0  0  0  0  0  0  0  0  0  0  0  # atno 17343 bound_to 10162
  156.7387  130.4732  149.5482 LP  0  0  0  0  0  0  0  0  0  0  0  0  # atno 17370 bound_to 10713
  156.1554  130.6338  151.0650 LP  0  0  0  0  0  0  0  0  0  0  0  0  # atno 17371 bound_to 10713
  140.9156  133.7681  155.9844 LP  0  0  0  0  0  0  0  0  0  0  0  0  # atno 17394 bound_to 11000
  140.8497  134.2968  157.5280 LP  0  0  0  0  0  0  0  0  0  0  0  0  # atno 17395 bound_to 11000

$$$$
