AV-unprocessed.smi:1929|AV-procd|sdf|7807|dock9
  -GOLD-   22720 9553D 1   1.00000     0.00000
 Structure written by MMmdl.
 43 44  0  0  0  0  0  0  0  0  4 V2000
  144.6352  135.6744  151.9875 C   0  0  0  0  0  0  0  0  0  0  0  0
  145.6079  136.6855  151.5915 N   0  5  0  0  0  0  0  0  0  0  0  0
  145.8880  137.7898  152.3345 C   0  0  0  0  0  0  0  0  0  0  0  0
  145.5302  138.1072  153.4736 O   0  0  0  0  0  0  0  0  0  0  0  0
  146.7755  138.7686  151.5563 C   0  0  0  0  0  0  0  0  0  0  0  0
  147.4793  139.6802  152.4928 N   0  3  2  0  0  0  0  0  0  0  0  0
  148.1374  138.9695  153.6228 C   0  0  0  0  0  0  0  0  0  0  0  0
  148.9604  139.9408  154.4844 C   0  0  0  0  0  0  0  0  0  0  0  0
  148.0905  141.0943  155.0086 C   0  0  1  0  0  0  0  0  0  0  0  0
  148.9193  142.0417  155.7487 N   0  0  0  0  0  0  0  0  0  0  0  0
  149.7621  141.7211  156.7412 C   0  0  0  0  0  0  0  0  0  0  0  0
  149.9196  140.5723  157.1536 O   0  0  0  0  0  0  0  0  0  0  0  0
  150.3807  142.8112  157.2274 N   0  0  0  0  0  0  0  0  0  0  0  0
  151.3603  142.8851  158.2548 C   0  0  0  0  0  0  0  0  0  0  0  0
  151.9195  141.6727  158.7165 C   0  0  0  0  0  0  0  0  0  0  0  0
  152.8824  141.6984  159.7461 C   0  0  0  0  0  0  0  0  0  0  0  0
  153.2542  142.8771  160.2898 N   0  3  0  0  0  0  0  0  0  0  0  0
  152.7370  144.0596  159.8929 C   0  0  0  0  0  0  0  0  0  0  0  0
  151.7708  144.0969  158.8668 C   0  0  0  0  0  0  0  0  0  0  0  0
  147.3883  141.7874  153.8271 C   0  0  0  0  0  0  0  0  0  0  0  0
  146.6014  140.7761  152.9763 C   0  0  0  0  0  0  0  0  0  0  0  0
  144.5520  134.8798  151.2463 H   0  0  0  0  0  0  0  0  0  0  0  0
  143.6335  136.0873  152.1100 H   0  0  0  0  0  0  0  0  0  0  0  0
  144.8955  135.1923  152.9304 H   0  0  0  0  0  0  0  0  0  0  0  0
  147.5015  138.1676  151.0071 H   0  0  0  0  0  0  0  0  0  0  0  0
  146.2227  139.3417  150.8083 H   0  0  0  0  0  0  0  0  0  0  0  0
  147.3808  138.4737  154.2328 H   0  0  0  0  0  0  0  0  0  0  0  0
  148.7988  138.1883  153.2474 H   0  0  0  0  0  0  0  0  0  0  0  0
  149.4097  139.4005  155.3186 H   0  0  0  0  0  0  0  0  0  0  0  0
  149.7863  140.3365  153.8911 H   0  0  0  0  0  0  0  0  0  0  0  0
  147.3345  140.6755  155.6760 H   0  0  0  0  0  0  0  0  0  0  0  0
  148.8481  143.0124  155.4797 H   0  0  0  0  0  0  0  0  0  0  0  0
  150.0776  143.6984  156.8527 H   0  0  0  0  0  0  0  0  0  0  0  0
  151.6207  140.7290  158.2833 H   0  0  0  0  0  0  0  0  0  0  0  0
  153.3611  140.8179  160.1493 H   0  0  0  0  0  0  0  0  0  0  0  0
  153.1040  144.9351  160.4082 H   0  0  0  0  0  0  0  0  0  0  0  0
  151.3553  145.0506  158.5790 H   0  0  0  0  0  0  0  0  0  0  0  0
  146.7125  142.5622  154.1912 H   0  0  0  0  0  0  0  0  0  0  0  0
  148.1259  142.2903  153.1998 H   0  0  0  0  0  0  0  0  0  0  0  0
  146.1575  141.2950  152.1259 H   0  0  0  0  0  0  0  0  0  0  0  0
  145.7785  140.3548  153.5559 H   0  0  0  0  0  0  0  0  0  0  0  0
  148.2120  140.1165  151.9514 H   0  0  0  0  0  0  0  0  0  0  0  0
  153.9512  142.8738  161.0352 H   0  0  0  0  0  0  0  0  0  0  0  0
  1  2  1  0  0  0  0
  1 22  1  0  0  0  0
  1 23  1  0  0  0  0
  1 24  1  0  0  0  0
  2  3  1  0  0  0  0
  3  4  2  0  0  0  0
  3  5  1  0  0  0  0
  5  6  1  0  0  0  0
  5 25  1  0  0  0  0
  5 26  1  0  0  0  0
  6 21  1  0  0  0  0
  6  7  1  0  0  0  0
  6 42  1  0  0  0  0
  7  8  1  0  0  0  0
  7 27  1  0  0  0  0
  7 28  1  0  0  0  0
  8  9  1  0  0  0  0
  8 29  1  0  0  0  0
  8 30  1  0  0  0  0
  9 10  1  0  0  0  0
  9 20  1  0  0  0  0
  9 31  1  0  0  0  0
 10 11  1  0  0  0  0
 10 32  1  0  0  0  0
 11 12  2  0  0  0  0
 11 13  1  0  0  0  0
 13 14  1  0  0  0  0
 13 33  1  0  0  0  0
 14 19  1  0  0  0  0
 14 15  2  0  0  0  0
 15 16  1  0  0  0  0
 15 34  1  0  0  0  0
 16 17  2  0  0  0  0
 16 35  1  0  0  0  0
 17 18  1  0  0  0  0
 17 43  1  0  0  0  0
 18 19  2  0  0  0  0
 18 36  1  0  0  0  0
 19 37  1  0  0  0  0
 20 21  1  0  0  0  0
 20 38  1  0  0  0  0
 20 39  1  0  0  0  0
 21 40  1  0  0  0  0
 21 41  1  0  0  0  0
M  CHG  1   2  -1
M  CHG  1   6   1
M  CHG  1  17   1
M  END
> <s_m_source_file>
AV-unprocessed.smi

> <i_m_source_file_index>
1929

> <i_lp_mmshare_version>
43012

> <i_f3d_flags>
0

> <s_epik_input>
W0NIM11bTkhdQyg9TylbQ0gyXU4xW0NIMl1bQ0gyXVtDSF0oW0NIMl1bQ0gyXTEpW05IXUMoPU8pW05IXWMyW2NIXVtjSF1uW2NIXVtjSF0y

> <s_epik_cmdline>
J2VwaWtfcHl0aG9uJywgJy1waCcsICc3LjAnLCAnLXRuJywgJzgnLCAnLW1hJywgJzIwMCcsICctbWV0YWxfYmluZGluZycsICctaW1hZScsICc8aW5maWxlLm1hZT4nLCAnLW9tYWUnLCAnPG91dGZpbGUubWFlPic=

> <r_epik_Ionization_Penalty>
7.25133

> <r_epik_Ionization_Penalty_Charging>
7.25131

> <r_epik_Ionization_Penalty_Neutral>
1.84563e-05

> <r_epik_State_Penalty>
8.093

> <r_epik_Charging_Adjusted_Penalty>
15.3443

> <i_epik_Tot_Q>
1

> <i_epik_Tot_abs_Q>
3

> <r_epik_Metal_State_Penalty>
4.12368

> <b_epik_Metal_Only>
1

> <s_lp_Force_Field>
OPLS_2005

> <r_lp_Energy>
21.0398

> <b_lp_Chiralities_Consistent>
1

> <s_lp_Variant>
AV-unprocessed.smi:1929-9

> <Gold.Version>
5.8.1

> <Gold.Id.Protein>
6NUR|6NUR_protein|mol2

> <Gold.PLP.Fitness>
45.7520

> <Gold.PLP.PLP>
-37.7731

> <Gold.PLP.part.hbond>
-2.8922

> <Gold.PLP.part.metal>
0.0000

> <Gold.PLP.part.buried>
-3.1280

> <Gold.PLP.part.nonpolar>
-33.6045

> <Gold.PLP.part.repulsive>
0.6908

> <Gold.PLP.ligand.clash>
0.0000

> <Gold.PLP.ligand.torsion>
0.5299

> <Gold.PLP.Chemscore.Hbond>
3.0000

> <Gold.PLP.Chemscore.CHOScore>
0.0000

> <Gold.PLP.Chemscore.Metal>
0.0000

> <Gold.Chemscore.Hbonds>
donor molecule, donor type, donor heavy atom, donor atom, acceptor molecule, acceptor atom, score
      L1  H     6    42       P1  7957  1.00
      L1  H    10    32       P1  8028  1.00
      L1  H    13    33       P1  8028  1.00

> <Gold.PLP.Chemscore.Internal.Correction>
0.0387

> <Gold.Rescore>
     Score         DG    S(hbond)    S(metal)    S(lipo)     H(rot)  DE(clash)    DE(int)     intcor
     16.13     -22.58       2.95        0.00      98.32       1.66       0.69       5.77       ----

> <Gold.Chemscore.Fitness>
16.1309

> <Gold.Chemscore.DG>
-22.5841

> <Gold.Chemscore.ZeroCoef>
-5.4800

> <Gold.Chemscore.Hbond>
2.9473

> <Gold.Chemscore.Metal>
0.0000

> <Gold.Chemscore.Lipo>
98.3190

> <Gold.Chemscore.Internal_Hbond>
0.0000

> <Gold.Chemscore.DEClash>
0.6867

> <Gold.Chemscore.DEInternal>
5.7665

> <Gold.Chemscore.Rot>
1.6574

> <Gold.Chemscore.Internal.Correction>
   9.000000E+99

> <Gold.Chemscore.Hbonds>
donor molecule, donor type, donor heavy atom, donor atom, acceptor molecule, acceptor atom, score
      L1  H     6    42       P1  7957  0.93
      L1  H    10    32       P1  8028  0.99
      L1  H    13    33       P1  8028  0.94

> <Gold.Chemscore.Hbond.Weighted>
-9.8438

> <Gold.Chemscore.Metal.Weighted>
-0.0000

> <Gold.Chemscore.Lipo.Weighted>
-11.5033

> <Gold.Chemscore.Internal_Hbond.Weighted>
0.0000

> <Gold.Chemscore.DEClash.Weighted>
0.6867

> <Gold.Chemscore.DEInternal.Weighted>
5.7665

> <Gold.Chemscore.Rot.Weighted>
4.2430

> <Gold.Chemscore.Internal.Correction.Weighted>
   9.000000E+99

> <Gold.Protein.RotatedTorsions>
[ 6907 6896 6895 6894 ] final  -37.67 input  -60.11 | X-H torsion
[ 7974 7965 7964 7962 ] final   69.73 input  175.53 | X-H torsion
[ 8008 7997 7996 7995 ] final -106.21 input   59.86 | X-H torsion
[ 10167 10162 10161 10158 ] final  116.99 input  -65.29 | X-H torsion
[ 10718 10713 10712 10709 ] final  146.82 input   66.30 | X-H torsion
[ 10763 10752 10751 10750 ] final  -90.95 input  -60.55 | X-H torsion
[ 11005 11000 10999 10996 ] final   17.64 input  -57.11 | X-H torsion

> <Gold.Protein.ActiveResidues>
 VAL166  LYS551  ARG553  GLY616  TRP617  ASP618  TYR619  PRO620  LYS621  CYS622 
 ASP623  PHE694  ASN695  SER759  ASP760  ASP761  ALA762  ILE779  LEU786  VAL792 
 PHE793  MET794  SER795  GLU796  ALA797  LYS798  CYS799  TRP800  GLU811  SER814 

> <Gold.Protein.RotatedAtoms>
  151.0119  134.9403  159.8011 H   0  0  0  0  0  0  0  0  0  0  0  0  # atno 6907 bound_to 6896
  152.5304  134.3017  159.9091 H   0  0  0  0  0  0  0  0  0  0  0  0  # atno 6908 bound_to 6896
  151.3024  133.4075  159.2675 H   0  0  0  0  0  0  0  0  0  0  0  0  # atno 6909 bound_to 6896
  145.7869  139.2915  143.1233 H   0  0  0  0  0  0  0  0  0  0  0  0  # atno 7974 bound_to 7965
  154.9112  140.0410  157.1947 H   0  0  0  0  0  0  0  0  0  0  0  0  # atno 8008 bound_to 7997
  154.8346  140.2904  155.5678 H   0  0  0  0  0  0  0  0  0  0  0  0  # atno 8009 bound_to 7997
  156.2989  140.2494  156.3277 H   0  0  0  0  0  0  0  0  0  0  0  0  # atno 8010 bound_to 7997
  139.6209  144.7101  151.2636 H   0  0  0  0  0  0  0  0  0  0  0  0  # atno 10167 bound_to 10162
  157.3286  131.0916  151.1181 H   0  0  0  0  0  0  0  0  0  0  0  0  # atno 10718 bound_to 10713
  154.6710  135.5286  153.8138 H   0  0  0  0  0  0  0  0  0  0  0  0  # atno 10763 bound_to 10752
  153.0501  135.6529  154.0725 H   0  0  0  0  0  0  0  0  0  0  0  0  # atno 10764 bound_to 10752
  154.0623  135.2960  155.3302 H   0  0  0  0  0  0  0  0  0  0  0  0  # atno 10765 bound_to 10752
  140.4337  134.1393  155.7683 H   0  0  0  0  0  0  0  0  0  0  0  0  # atno 11005 bound_to 11000
  146.0017  140.8514  143.0015 LP  0  0  0  0  0  0  0  0  0  0  0  0  # atno 17320 bound_to 7965
  144.6787  140.2361  143.7349 LP  0  0  0  0  0  0  0  0  0  0  0  0  # atno 17321 bound_to 7965
  140.7381  143.6657  150.8125 LP  0  0  0  0  0  0  0  0  0  0  0  0  # atno 17342 bound_to 10162
  140.0268  143.5485  152.2777 LP  0  0  0  0  0  0  0  0  0  0  0  0  # atno 17343 bound_to 10162
  157.2439  130.6582  149.5901 LP  0  0  0  0  0  0  0  0  0  0  0  0  # atno 17370 bound_to 10713
  155.9693  130.4560  150.5908 LP  0  0  0  0  0  0  0  0  0  0  0  0  # atno 17371 bound_to 10713
  141.1735  133.8562  157.1497 LP  0  0  0  0  0  0  0  0  0  0  0  0  # atno 17394 bound_to 11000
  140.0117  134.9985  157.0408 LP  0  0  0  0  0  0  0  0  0  0  0  0  # atno 17395 bound_to 11000

$$$$
