AV-unprocessed.smi:527|AV-procd|sdf|2829|dock5
  -GOLD-   2262023313D 1   1.00000     0.00000
 Structure written by MMmdl.
 43 44  0  0  0  0  0  0  0  0  2 V2000
  146.2715  130.0226  152.7762 C   0  0  0  0  0  0  0  0  0  0  0  0
  145.6427  131.3451  152.3075 C   0  0  2  0  0  0  0  0  0  0  0  0
  145.2401  131.2929  150.8200 C   0  0  0  0  0  0  0  0  0  0  0  0
  144.5170  132.5786  150.3884 C   0  0  0  0  0  0  0  0  0  0  0  0
  145.3521  133.8290  150.7027 C   0  0  0  0  0  0  0  0  0  0  0  0
  145.7512  133.8773  152.1905 C   0  0  2  0  0  0  0  0  0  0  0  0
  146.5124  135.0965  152.4584 N   0  0  0  0  0  0  0  0  0  0  0  0
  146.1024  136.1137  153.2304 C   0  0  0  0  0  0  0  0  0  0  0  0
  145.0709  136.0792  153.9045 O   0  0  0  0  0  0  0  0  0  0  0  0
  146.9636  137.1477  153.1660 N   0  0  0  0  0  0  0  0  0  0  0  0
  146.7853  138.3941  153.6505 C   0  0  0  0  0  0  0  0  0  0  0  0
  145.7811  138.7899  154.2453 O   0  0  0  0  0  0  0  0  0  0  0  0
  147.9491  139.3637  153.4377 C   0  0  0  0  0  0  0  0  0  0  0  0
  147.5977  140.7189  153.8737 N   0  0  0  0  0  0  0  0  0  0  0  0
  146.4700  141.4303  153.5514 C   0  0  0  0  0  0  0  0  0  0  0  0
  146.5780  142.6422  154.1840 C   0  0  0  0  0  0  0  0  0  0  0  0
  147.7663  142.6205  154.8642 N   0  3  0  0  0  0  0  0  0  0  0  0
  148.3844  141.4500  154.6755 C   0  0  0  0  0  0  0  0  0  0  0  0
  146.5122  132.5921  152.6210 C   0  0  2  0  0  0  0  0  0  0  0  0
  147.9439  132.5095  152.0424 C   0  0  0  0  0  0  0  0  0  0  0  0
  147.1514  129.7602  152.1888 H   0  0  0  0  0  0  0  0  0  0  0  0
  145.5616  129.2003  152.6806 H   0  0  0  0  0  0  0  0  0  0  0  0
  146.5693  130.0774  153.8236 H   0  0  0  0  0  0  0  0  0  0  0  0
  144.7203  131.4569  152.8799 H   0  0  0  0  0  0  0  0  0  0  0  0
  146.1208  131.1379  150.1960 H   0  0  0  0  0  0  0  0  0  0  0  0
  144.5884  130.4369  150.6419 H   0  0  0  0  0  0  0  0  0  0  0  0
  144.2923  132.5392  149.3220 H   0  0  0  0  0  0  0  0  0  0  0  0
  143.5576  132.6444  150.9030 H   0  0  0  0  0  0  0  0  0  0  0  0
  146.2414  133.8429  150.0716 H   0  0  0  0  0  0  0  0  0  0  0  0
  144.7797  134.7202  150.4422 H   0  0  0  0  0  0  0  0  0  0  0  0
  144.8264  133.9337  152.7687 H   0  0  0  0  0  0  0  0  0  0  0  0
  147.4186  135.1665  152.0191 H   0  0  0  0  0  0  0  0  0  0  0  0
  147.8424  136.9681  152.7032 H   0  0  0  0  0  0  0  0  0  0  0  0
  148.8328  139.0398  153.9902 H   0  0  0  0  0  0  0  0  0  0  0  0
  148.2210  139.4003  152.3815 H   0  0  0  0  0  0  0  0  0  0  0  0
  145.6940  141.0324  152.9129 H   0  0  0  0  0  0  0  0  0  0  0  0
  145.9163  143.4961  154.2002 H   0  0  0  0  0  0  0  0  0  0  0  0
  149.3342  141.1550  155.0859 H   0  0  0  0  0  0  0  0  0  0  0  0
  146.6249  132.6313  153.7053 H   0  0  0  0  0  0  0  0  0  0  0  0
  147.9442  132.4404  150.9554 H   0  0  0  0  0  0  0  0  0  0  0  0
  148.4805  131.6433  152.4279 H   0  0  0  0  0  0  0  0  0  0  0  0
  148.5371  133.3819  152.3155 H   0  0  0  0  0  0  0  0  0  0  0  0
  148.1285  143.3798  155.4278 H   0  0  0  0  0  0  0  0  0  0  0  0
  1  2  1  0  0  0  0
  1 21  1  0  0  0  0
  1 22  1  0  0  0  0
  1 23  1  0  0  0  0
  2 19  1  0  0  0  0
  2  3  1  0  0  0  0
  2 24  1  0  0  0  0
  3  4  1  0  0  0  0
  3 25  1  0  0  0  0
  3 26  1  0  0  0  0
  4  5  1  0  0  0  0
  4 27  1  0  0  0  0
  4 28  1  0  0  0  0
  5  6  1  0  0  0  0
  5 29  1  0  0  0  0
  5 30  1  0  0  0  0
  6  7  1  0  0  0  0
  6 19  1  0  0  0  0
  6 31  1  0  0  0  0
  7  8  1  0  0  0  0
  7 32  1  0  0  0  0
  8  9  2  0  0  0  0
  8 10  1  0  0  0  0
 10 11  1  0  0  0  0
 10 33  1  0  0  0  0
 11 12  2  0  0  0  0
 11 13  1  0  0  0  0
 13 14  1  0  0  0  0
 13 34  1  0  0  0  0
 13 35  1  0  0  0  0
 14 18  1  0  0  0  0
 14 15  1  0  0  0  0
 15 16  2  0  0  0  0
 15 36  1  0  0  0  0
 16 17  1  0  0  0  0
 16 37  1  0  0  0  0
 17 18  2  0  0  0  0
 17 43  1  0  0  0  0
 18 38  1  0  0  0  0
 19 20  1  0  0  0  0
 19 39  1  0  0  0  0
 20 40  1  0  0  0  0
 20 41  1  0  0  0  0
 20 42  1  0  0  0  0
M  CHG  1  17   1
M  END
> <s_m_source_file>
AV-unprocessed.smi

> <i_m_source_file_index>
527

> <i_lp_mmshare_version>
43012

> <i_f3d_flags>
0

> <s_epik_input>
W0NIM11bQ0BASF0xW0NIMl1bQ0gyXVtDSDJdW0NASF0oW0NASF0xW0NIM10pW05IXUMoPU8pW05IXUMoPU8pW0NIMl1uMltjSF1bY0hdbltjSF0y

> <s_epik_cmdline>
J2VwaWtfcHl0aG9uJywgJy1waCcsICc3LjAnLCAnLXRuJywgJzgnLCAnLW1hJywgJzIwMCcsICctbWV0YWxfYmluZGluZycsICctaW1hZScsICc8aW5maWxlLm1hZT4nLCAnLW9tYWUnLCAnPG91dGZpbGUubWFlPic=

> <r_lp_tautomer_probability>
1

> <r_epik_Ionization_Penalty>
0.816441

> <r_epik_Ionization_Penalty_Charging>
0

> <r_epik_Ionization_Penalty_Neutral>
0.816441

> <r_epik_State_Penalty>
0.849034

> <r_epik_Charging_Adjusted_Penalty>
0.849034

> <i_epik_Tot_Q>
1

> <i_epik_Tot_abs_Q>
1

> <r_epik_Metal_State_Penalty>
0.984327

> <b_epik_Metal_Only>
0

> <s_lp_Force_Field>
OPLS_2005

> <r_lp_Energy>
18.4408

> <b_lp_Chiralities_Consistent>
1

> <s_lp_Variant>
AV-unprocessed.smi:527-15

> <Gold.Version>
5.8.1

> <Gold.Id.Protein>
6NUR|6NUR_protein|mol2

> <Gold.PLP.Fitness>
44.0644

> <Gold.PLP.PLP>
-29.6663

> <Gold.PLP.part.hbond>
-2.7663

> <Gold.PLP.part.metal>
0.0000

> <Gold.PLP.part.buried>
1.4003

> <Gold.PLP.part.nonpolar>
-29.4078

> <Gold.PLP.part.repulsive>
0.3171

> <Gold.PLP.ligand.clash>
0.0000

> <Gold.PLP.ligand.torsion>
0.2028

> <Gold.PLP.Chemscore.Hbond>
3.9280

> <Gold.PLP.Chemscore.CHOScore>
1.0000

> <Gold.PLP.Chemscore.Metal>
0.0000

> <Gold.Chemscore.Hbonds>
donor molecule, donor type, donor heavy atom, donor atom, acceptor molecule, acceptor atom, score
      L1  H     7    32       P1  7948  0.91
      L1  H    10    33       P1  7948  1.00
      L1  H    17    43       P1  8028  1.98
      L1  C    15    36       P1 10175  0.97

> <Gold.PLP.Chemscore.Internal.Correction>
0.0197

> <Gold.Rescore>
     Score         DG    S(hbond)    S(metal)    S(lipo)     H(rot)  DE(clash)    DE(int)     intcor
     14.02     -18.88       2.69        0.00      74.99       1.71       1.86       3.00       ----

> <Gold.Chemscore.Fitness>
14.0245

> <Gold.Chemscore.DG>
-18.8832

> <Gold.Chemscore.ZeroCoef>
-5.4800

> <Gold.Chemscore.Hbond>
2.6931

> <Gold.Chemscore.Metal>
0.0000

> <Gold.Chemscore.Lipo>
74.9877

> <Gold.Chemscore.Internal_Hbond>
0.0000

> <Gold.Chemscore.DEClash>
1.8596

> <Gold.Chemscore.DEInternal>
2.9990

> <Gold.Chemscore.Rot>
1.7052

> <Gold.Chemscore.Internal.Correction>
   9.000000E+99

> <Gold.Chemscore.Hbonds>
donor molecule, donor type, donor heavy atom, donor atom, acceptor molecule, acceptor atom, score
      L1  H     7    32       P1  7948  0.88
      L1  H    10    33       P1  7948  0.97
      L1  H    17    43       P1  8028  0.72

> <Gold.Chemscore.Hbond.Weighted>
-8.9949

> <Gold.Chemscore.Metal.Weighted>
-0.0000

> <Gold.Chemscore.Lipo.Weighted>
-8.7736

> <Gold.Chemscore.Internal_Hbond.Weighted>
0.0000

> <Gold.Chemscore.DEClash.Weighted>
1.8596

> <Gold.Chemscore.DEInternal.Weighted>
2.9990

> <Gold.Chemscore.Rot.Weighted>
4.3653

> <Gold.Chemscore.Internal.Correction.Weighted>
   9.000000E+99

> <Gold.Protein.RotatedTorsions>
[ 6907 6896 6895 6894 ] final   50.80 input  -60.11 | X-H torsion
[ 7974 7965 7964 7962 ] final   11.51 input  175.53 | X-H torsion
[ 8008 7997 7996 7995 ] final   64.83 input   59.86 | X-H torsion
[ 10167 10162 10161 10158 ] final   87.54 input  -65.29 | X-H torsion
[ 10718 10713 10712 10709 ] final  175.96 input   66.30 | X-H torsion
[ 10763 10752 10751 10750 ] final  -56.20 input  -60.55 | X-H torsion
[ 11005 11000 10999 10996 ] final  -80.89 input  -57.11 | X-H torsion

> <Gold.Protein.ActiveResidues>
 VAL166  LYS551  ARG553  GLY616  TRP617  ASP618  TYR619  PRO620  LYS621  CYS622 
 ASP623  PHE694  ASN695  SER759  ASP760  ASP761  ALA762  ILE779  LEU786  VAL792 
 PHE793  MET794  SER795  GLU796  ALA797  LYS798  CYS799  TRP800  GLU811  SER814 

> <Gold.Protein.RotatedAtoms>
  152.3058  134.7557  160.0347 H   0  0  0  0  0  0  0  0  0  0  0  0  # atno 6907 bound_to 6896
  151.8055  133.3370  159.3548 H   0  0  0  0  0  0  0  0  0  0  0  0  # atno 6908 bound_to 6896
  150.7295  134.5643  159.5902 H   0  0  0  0  0  0  0  0  0  0  0  0  # atno 6909 bound_to 6896
  146.2369  139.9474  142.8475 H   0  0  0  0  0  0  0  0  0  0  0  0  # atno 7974 bound_to 7965
  155.6521  140.3497  155.4752 H   0  0  0  0  0  0  0  0  0  0  0  0  # atno 8008 bound_to 7997
  155.9839  140.1180  157.0724 H   0  0  0  0  0  0  0  0  0  0  0  0  # atno 8009 bound_to 7997
  154.4199  140.1133  156.5459 H   0  0  0  0  0  0  0  0  0  0  0  0  # atno 8010 bound_to 7997
  139.8763  144.6465  150.8893 H   0  0  0  0  0  0  0  0  0  0  0  0  # atno 10167 bound_to 10162
  156.9271  130.9959  151.2994 H   0  0  0  0  0  0  0  0  0  0  0  0  # atno 10718 bound_to 10713
  154.2029  135.6408  153.5092 H   0  0  0  0  0  0  0  0  0  0  0  0  # atno 10763 bound_to 10752
  153.0008  135.5455  154.6296 H   0  0  0  0  0  0  0  0  0  0  0  0  # atno 10764 bound_to 10752
  154.5714  135.2917  155.0797 H   0  0  0  0  0  0  0  0  0  0  0  0  # atno 10765 bound_to 10752
  141.1667  133.7171  156.8341 H   0  0  0  0  0  0  0  0  0  0  0  0  # atno 11005 bound_to 11000
  145.1894  140.9805  143.4219 LP  0  0  0  0  0  0  0  0  0  0  0  0  # atno 17320 bound_to 7965
  144.9870  139.3726  143.6233 LP  0  0  0  0  0  0  0  0  0  0  0  0  # atno 17321 bound_to 7965
  140.7752  143.3622  151.1806 LP  0  0  0  0  0  0  0  0  0  0  0  0  # atno 17342 bound_to 10162
  139.7237  143.9182  152.2995 LP  0  0  0  0  0  0  0  0  0  0  0  0  # atno 17343 bound_to 10162
  157.5870  130.8417  149.8604 LP  0  0  0  0  0  0  0  0  0  0  0  0  # atno 17370 bound_to 10713
  156.0464  130.3727  150.1307 LP  0  0  0  0  0  0  0  0  0  0  0  0  # atno 17371 bound_to 10713
  140.2030  134.8883  157.3190 LP  0  0  0  0  0  0  0  0  0  0  0  0  # atno 17394 bound_to 11000
  140.2167  134.4073  155.7586 LP  0  0  0  0  0  0  0  0  0  0  0  0  # atno 17395 bound_to 11000

$$$$
