AV-unprocessed.smi:1768|AV-procd|sdf|7147|dock5
  -GOLD-   22720 8383D 1   1.00000     0.00000
 Structure written by MMmdl.
 32 33  0  0  0  0  0  0  0  0  2 V2000
  148.4591  141.3585  154.0351 C   0  0  0  0  0  0  0  0  0  0  0  0
  149.3737  140.8567  155.0991 C   0  0  0  0  0  0  0  0  0  0  0  0
  150.6422  140.5171  154.8584 N   0  0  0  0  0  0  0  0  0  0  0  0
  151.2934  140.0828  156.0042 N   0  0  0  0  0  0  0  0  0  0  0  0
  150.5133  140.1080  157.0940 C   0  0  0  0  0  0  0  0  0  0  0  0
  150.9539  139.7233  158.3034 N   0  5  0  0  0  0  0  0  0  0  0  0
  152.1588  140.1451  158.7505 C   0  0  0  0  0  0  0  0  0  0  0  0
  153.2512  139.6364  158.4897 O   0  0  0  0  0  0  0  0  0  0  0  0
  152.0877  141.2254  159.5423 N   0  0  0  0  0  0  0  0  0  0  0  0
  153.2056  141.9340  160.1650 C   0  0  2  0  0  0  0  0  0  0  0  0
  153.2929  141.5327  161.6445 C   0  0  0  0  0  0  0  0  0  0  0  0
  153.0245  143.4539  159.9888 C   0  0  2  0  0  0  0  0  0  0  0  0
  151.8626  144.0557  160.7783 C   0  0  0  0  0  0  0  0  0  0  0  0
  151.5884  145.3501  160.0356 C   0  0  0  0  0  0  0  0  0  0  0  0
  152.1223  145.0831  158.6244 C   0  0  0  0  0  0  0  0  0  0  0  0
  152.6642  143.7675  158.6516 O   0  0  0  0  0  0  0  0  0  0  0  0
  148.8709  140.6635  156.7701 S   0  0  0  0  0  0  0  0  0  0  0  0
  148.8364  142.2983  153.6315 H   0  0  0  0  0  0  0  0  0  0  0  0
  147.4615  141.5277  154.4405 H   0  0  0  0  0  0  0  0  0  0  0  0
  148.3887  140.6309  153.2263 H   0  0  0  0  0  0  0  0  0  0  0  0
  151.1664  141.5981  159.7192 H   0  0  0  0  0  0  0  0  0  0  0  0
  154.1463  141.6519  159.6896 H   0  0  0  0  0  0  0  0  0  0  0  0
  154.1291  142.0285  162.1383 H   0  0  0  0  0  0  0  0  0  0  0  0
  153.4410  140.4575  161.7496 H   0  0  0  0  0  0  0  0  0  0  0  0
  152.3829  141.7985  162.1832 H   0  0  0  0  0  0  0  0  0  0  0  0
  153.9486  143.9800  160.2372 H   0  0  0  0  0  0  0  0  0  0  0  0
  150.9903  143.4033  160.7197 H   0  0  0  0  0  0  0  0  0  0  0  0
  152.0981  144.2116  161.8316 H   0  0  0  0  0  0  0  0  0  0  0  0
  150.5283  145.6051  160.0405 H   0  0  0  0  0  0  0  0  0  0  0  0
  152.1356  146.1757  160.4927 H   0  0  0  0  0  0  0  0  0  0  0  0
  151.3396  145.1500  157.8682 H   0  0  0  0  0  0  0  0  0  0  0  0
  152.9052  145.7972  158.3665 H   0  0  0  0  0  0  0  0  0  0  0  0
  1  2  1  0  0  0  0
  1 18  1  0  0  0  0
  1 19  1  0  0  0  0
  1 20  1  0  0  0  0
  2 17  1  0  0  0  0
  2  3  2  0  0  0  0
  3  4  1  0  0  0  0
  4  5  2  0  0  0  0
  5  6  1  0  0  0  0
  5 17  1  0  0  0  0
  6  7  1  0  0  0  0
  7  8  2  0  0  0  0
  7  9  1  0  0  0  0
  9 10  1  0  0  0  0
  9 21  1  0  0  0  0
 10 11  1  0  0  0  0
 10 12  1  0  0  0  0
 10 22  1  0  0  0  0
 11 23  1  0  0  0  0
 11 24  1  0  0  0  0
 11 25  1  0  0  0  0
 12 16  1  0  0  0  0
 12 13  1  0  0  0  0
 12 26  1  0  0  0  0
 13 14  1  0  0  0  0
 13 27  1  0  0  0  0
 13 28  1  0  0  0  0
 14 15  1  0  0  0  0
 14 29  1  0  0  0  0
 14 30  1  0  0  0  0
 15 16  1  0  0  0  0
 15 31  1  0  0  0  0
 15 32  1  0  0  0  0
M  CHG  1   6  -1
M  END
> <s_m_source_file>
AV-unprocessed.smi

> <i_m_source_file_index>
1768

> <i_lp_mmshare_version>
43012

> <i_f3d_flags>
0

> <s_epik_input>
W0NIM11jMW5uYyhzMSlbTkhdQyg9TylbTkhdW0NASF0oW0NIM10pW0NAQEhdMltDSDJdW0NIMl1bQ0gyXU8y

> <s_epik_cmdline>
J2VwaWtfcHl0aG9uJywgJy1waCcsICc3LjAnLCAnLXRuJywgJzgnLCAnLW1hJywgJzIwMCcsICctbWV0YWxfYmluZGluZycsICctaW1hZScsICc8aW5maWxlLm1hZT4nLCAnLW9tYWUnLCAnPG91dGZpbGUubWFlPic=

> <r_lp_tautomer_probability>
1

> <r_epik_Ionization_Penalty>
4.3376

> <r_epik_Ionization_Penalty_Charging>
4.19392

> <r_epik_Ionization_Penalty_Neutral>
0.143681

> <r_epik_State_Penalty>
4.19342

> <r_epik_Charging_Adjusted_Penalty>
8.38735

> <i_epik_Tot_Q>
-1

> <i_epik_Tot_abs_Q>
1

> <r_epik_Metal_State_Penalty>
0.686065

> <b_epik_Metal_Only>
1

> <s_lp_Force_Field>
OPLS_2005

> <r_lp_Energy>
15.5769

> <b_lp_Chiralities_Consistent>
1

> <s_lp_Variant>
AV-unprocessed.smi:1768-5

> <Gold.Version>
5.8.1

> <Gold.Id.Protein>
6NUR|6NUR_protein|mol2

> <Gold.PLP.Fitness>
41.0499

> <Gold.PLP.PLP>
-37.9028

> <Gold.PLP.part.hbond>
-2.0000

> <Gold.PLP.part.metal>
0.0000

> <Gold.PLP.part.buried>
-6.5415

> <Gold.PLP.part.nonpolar>
-29.5787

> <Gold.PLP.part.repulsive>
0.2198

> <Gold.PLP.ligand.clash>
0.0000

> <Gold.PLP.ligand.torsion>
1.4467

> <Gold.PLP.Chemscore.Hbond>
2.0000

> <Gold.PLP.Chemscore.CHOScore>
0.0000

> <Gold.PLP.Chemscore.Metal>
0.0000

> <Gold.Chemscore.Hbonds>
donor molecule, donor type, donor heavy atom, donor atom, acceptor molecule, acceptor atom, score
      P1  H  7989  7998       L1     3  1.00
      P1  H  7997  8009       L1     8  0.88

> <Gold.PLP.Chemscore.Internal.Correction>
0.0406

> <Gold.Rescore>
     Score         DG    S(hbond)    S(metal)    S(lipo)     H(rot)  DE(clash)    DE(int)     intcor
     17.56     -18.84       1.97        0.00      86.05       1.28       0.00       1.28       ----

> <Gold.Chemscore.Fitness>
17.5594

> <Gold.Chemscore.DG>
-18.8432

> <Gold.Chemscore.ZeroCoef>
-5.4800

> <Gold.Chemscore.Hbond>
1.9657

> <Gold.Chemscore.Metal>
0.0000

> <Gold.Chemscore.Lipo>
86.0547

> <Gold.Chemscore.Internal_Hbond>
0.0000

> <Gold.Chemscore.DEClash>
0.0015

> <Gold.Chemscore.DEInternal>
1.2823

> <Gold.Chemscore.Rot>
1.2776

> <Gold.Chemscore.Internal.Correction>
   9.000000E+99

> <Gold.Chemscore.Hbonds>
donor molecule, donor type, donor heavy atom, donor atom, acceptor molecule, acceptor atom, score
      P1  H  7989  7998       L1     3  0.90
      P1  H  7997  8009       L1     8  0.81

> <Gold.Chemscore.Hbond.Weighted>
-6.5654

> <Gold.Chemscore.Metal.Weighted>
-0.0000

> <Gold.Chemscore.Lipo.Weighted>
-10.0684

> <Gold.Chemscore.Internal_Hbond.Weighted>
0.0000

> <Gold.Chemscore.DEClash.Weighted>
0.0015

> <Gold.Chemscore.DEInternal.Weighted>
1.2823

> <Gold.Chemscore.Rot.Weighted>
3.2706

> <Gold.Chemscore.Internal.Correction.Weighted>
   9.000000E+99

> <Gold.Protein.RotatedTorsions>
[ 6907 6896 6895 6894 ] final -118.16 input  -60.11 | X-H torsion
[ 7974 7965 7964 7962 ] final   21.36 input  175.53 | X-H torsion
[ 8008 7997 7996 7995 ] final  132.86 input   59.86 | X-H torsion
[ 10167 10162 10161 10158 ] final  140.18 input  -65.29 | X-H torsion
[ 10718 10713 10712 10709 ] final   44.60 input   66.30 | X-H torsion
[ 10763 10752 10751 10750 ] final  -54.49 input  -60.55 | X-H torsion
[ 11005 11000 10999 10996 ] final   47.11 input  -57.11 | X-H torsion

> <Gold.Protein.ActiveResidues>
 VAL166  LYS551  ARG553  GLY616  TRP617  ASP618  TYR619  PRO620  LYS621  CYS622 
 ASP623  PHE694  ASN695  SER759  ASP760  ASP761  ALA762  ILE779  LEU786  VAL792 
 PHE793  MET794  SER795  GLU796  ALA797  LYS798  CYS799  TRP800  GLU811  SER814 

> <Gold.Protein.RotatedAtoms>
  150.8197  133.8275  159.3144 H   0  0  0  0  0  0  0  0  0  0  0  0  # atno 6907 bound_to 6896
  151.6037  135.1044  160.0075 H   0  0  0  0  0  0  0  0  0  0  0  0  # atno 6908 bound_to 6896
  152.4286  133.7198  159.6583 H   0  0  0  0  0  0  0  0  0  0  0  0  # atno 6909 bound_to 6896
  146.2074  139.8039  142.8715 H   0  0  0  0  0  0  0  0  0  0  0  0  # atno 7974 bound_to 7965
  156.2987  140.2536  156.3159 H   0  0  0  0  0  0  0  0  0  0  0  0  # atno 8008 bound_to 7997
  154.9282  140.0399  157.2053 H   0  0  0  0  0  0  0  0  0  0  0  0  # atno 8009 bound_to 7997
  154.8244  140.2865  155.5769 H   0  0  0  0  0  0  0  0  0  0  0  0  # atno 8010 bound_to 7997
  139.5056  144.6250  151.5959 H   0  0  0  0  0  0  0  0  0  0  0  0  # atno 10167 bound_to 10162
  157.4286  130.8011  149.7582 H   0  0  0  0  0  0  0  0  0  0  0  0  # atno 10718 bound_to 10713
  154.1757  135.6451  153.5021 H   0  0  0  0  0  0  0  0  0  0  0  0  # atno 10763 bound_to 10752
  153.0072  135.5394  154.6566 H   0  0  0  0  0  0  0  0  0  0  0  0  # atno 10764 bound_to 10752
  154.5917  135.2935  155.0601 H   0  0  0  0  0  0  0  0  0  0  0  0  # atno 10765 bound_to 10752
  140.1309  134.4707  155.8522 H   0  0  0  0  0  0  0  0  0  0  0  0  # atno 11005 bound_to 11000
  145.3267  141.0257  143.3469 LP  0  0  0  0  0  0  0  0  0  0  0  0  # atno 17320 bound_to 7965
  144.8828  139.4881  143.6715 LP  0  0  0  0  0  0  0  0  0  0  0  0  # atno 17321 bound_to 7965
  140.5964  143.9688  150.6357 LP  0  0  0  0  0  0  0  0  0  0  0  0  # atno 17342 bound_to 10162
  140.2886  143.3340  152.1084 LP  0  0  0  0  0  0  0  0  0  0  0  0  # atno 17343 bound_to 10162
  155.9905  130.3944  150.3025 LP  0  0  0  0  0  0  0  0  0  0  0  0  # atno 17370 bound_to 10713
  157.1180  131.0239  151.3021 LP  0  0  0  0  0  0  0  0  0  0  0  0  # atno 17371 bound_to 10713
  141.2170  133.6795  156.7067 LP  0  0  0  0  0  0  0  0  0  0  0  0  # atno 17394 bound_to 11000
  140.2844  134.8291  157.3961 LP  0  0  0  0  0  0  0  0  0  0  0  0  # atno 17395 bound_to 11000

$$$$
