AV-unprocessed.smi:2758|AV-procd|sdf|10625|dock2
  -GOLD-   2272015 73D 1   1.00000     0.00000
 Structure written by MMmdl.
 33 34  0  0  0  0  0  0  0  0  2 V2000
  150.5310  135.7791  155.0509 C   0  0  0  0  0  0  0  0  0  0  0  0
  151.5964  136.7097  155.1273 O   0  0  0  0  0  0  0  0  0  0  0  0
  151.3470  137.8839  154.3722 C   0  0  0  0  0  0  0  0  0  0  0  0
  152.0901  139.0628  155.0167 C   0  0  2  0  0  0  0  0  0  0  0  0
  153.4695  138.7584  155.0610 O   0  0  0  0  0  0  0  0  0  0  0  0
  151.5808  139.3722  156.4388 C   0  0  0  0  0  0  0  0  0  0  0  0
  151.1968  140.7807  156.6173 N   0  0  0  0  0  0  0  0  0  0  0  0
  150.3536  141.5680  155.8899 C   0  0  0  0  0  0  0  0  0  0  0  0
  149.5764  141.1663  154.6815 C   0  0  0  0  0  0  0  0  0  0  0  0
  150.3503  142.8006  156.4719 N   0  3  0  0  0  0  0  0  0  0  0  0
  151.2016  142.8031  157.5781 C   0  0  0  0  0  0  0  0  0  0  0  0
  151.5266  143.8143  158.4771 C   0  0  0  0  0  0  0  0  0  0  0  0
  152.4382  143.4819  159.5008 C   0  0  0  0  0  0  0  0  0  0  0  0
  152.9885  142.1875  159.6026 C   0  0  0  0  0  0  0  0  0  0  0  0
  152.6513  141.1702  158.6853 C   0  0  0  0  0  0  0  0  0  0  0  0
  151.7496  141.5080  157.6767 C   0  0  0  0  0  0  0  0  0  0  0  0
  151.9721  139.9411  154.3814 H   0  0  0  0  0  0  0  0  0  0  0  0
  150.7740  134.8953  155.6406 H   0  0  0  0  0  0  0  0  0  0  0  0
  150.3590  135.4599  154.0222 H   0  0  0  0  0  0  0  0  0  0  0  0
  149.6070  136.2039  155.4453 H   0  0  0  0  0  0  0  0  0  0  0  0
  151.6673  137.7495  153.3374 H   0  0  0  0  0  0  0  0  0  0  0  0
  150.2735  138.0811  154.3600 H   0  0  0  0  0  0  0  0  0  0  0  0
  153.5670  137.8462  155.2865 H   0  0  0  0  0  0  0  0  0  0  0  0
  150.7208  138.7501  156.6903 H   0  0  0  0  0  0  0  0  0  0  0  0
  152.3505  139.1402  157.1757 H   0  0  0  0  0  0  0  0  0  0  0  0
  148.9206  141.9760  154.3608 H   0  0  0  0  0  0  0  0  0  0  0  0
  148.9648  140.2907  154.8990 H   0  0  0  0  0  0  0  0  0  0  0  0
  150.2542  140.9238  153.8629 H   0  0  0  0  0  0  0  0  0  0  0  0
  151.1067  144.8066  158.4009 H   0  0  0  0  0  0  0  0  0  0  0  0
  152.7213  144.2349  160.2220 H   0  0  0  0  0  0  0  0  0  0  0  0
  153.6838  141.9701  160.4007 H   0  0  0  0  0  0  0  0  0  0  0  0
  153.0773  140.1814  158.7711 H   0  0  0  0  0  0  0  0  0  0  0  0
  149.8061  143.5835  156.1326 H   0  0  0  0  0  0  0  0  0  0  0  0
  1  2  1  0  0  0  0
  1 18  1  0  0  0  0
  1 19  1  0  0  0  0
  1 20  1  0  0  0  0
  2  3  1  0  0  0  0
  3  4  1  0  0  0  0
  3 21  1  0  0  0  0
  3 22  1  0  0  0  0
  4 17  1  0  0  0  0
  4  5  1  0  0  0  0
  4  6  1  0  0  0  0
  5 23  1  0  0  0  0
  6  7  1  0  0  0  0
  6 24  1  0  0  0  0
  6 25  1  0  0  0  0
  7 16  1  0  0  0  0
  7  8  1  0  0  0  0
  8  9  1  0  0  0  0
  8 10  2  0  0  0  0
  9 26  1  0  0  0  0
  9 27  1  0  0  0  0
  9 28  1  0  0  0  0
 10 11  1  0  0  0  0
 10 33  1  0  0  0  0
 11 16  2  0  0  0  0
 11 12  1  0  0  0  0
 12 13  2  0  0  0  0
 12 29  1  0  0  0  0
 13 14  1  0  0  0  0
 13 30  1  0  0  0  0
 14 15  2  0  0  0  0
 14 31  1  0  0  0  0
 15 16  1  0  0  0  0
 15 32  1  0  0  0  0
M  CHG  1  10   1
M  END
> <s_m_source_file>
AV-unprocessed.smi

> <i_m_source_file_index>
2758

> <i_lp_mmshare_version>
43012

> <i_f3d_flags>
0

> <s_epik_input>
W0NIM11PW0NIMl1bQ0BASF0oW09IXSlbQ0gyXW4oYyhuMSlbQ0gzXSljKGMxMilbY0hdW2NIXVtjSF1bY0hdMg==

> <s_epik_cmdline>
J2VwaWtfcHl0aG9uJywgJy1waCcsICc3LjAnLCAnLXRuJywgJzgnLCAnLW1hJywgJzIwMCcsICctbWV0YWxfYmluZGluZycsICctaW1hZScsICc8aW5maWxlLm1hZT4nLCAnLW9tYWUnLCAnPG91dGZpbGUubWFlPic=

> <r_epik_Ionization_Penalty>
0.974942

> <r_epik_Ionization_Penalty_Charging>
0.974941

> <r_epik_Ionization_Penalty_Neutral>
8.70205e-07

> <r_epik_State_Penalty>
1.02127

> <r_epik_Charging_Adjusted_Penalty>
1.99621

> <i_epik_Tot_Q>
1

> <i_epik_Tot_abs_Q>
1

> <r_epik_Metal_State_Penalty>
4.99771

> <b_epik_Metal_Only>
0

> <s_lp_Force_Field>
OPLS_2005

> <r_lp_Energy>
10.5024

> <b_lp_Chiralities_Consistent>
1

> <s_lp_Variant>
AV-unprocessed.smi:2758-4

> <Gold.Version>
5.8.1

> <Gold.Id.Protein>
6NUR|6NUR_protein|mol2

> <Gold.PLP.Fitness>
49.6488

> <Gold.PLP.PLP>
-39.5350

> <Gold.PLP.part.hbond>
-3.0000

> <Gold.PLP.part.metal>
0.0000

> <Gold.PLP.part.buried>
-4.8128

> <Gold.PLP.part.nonpolar>
-31.6207

> <Gold.PLP.part.repulsive>
0.1847

> <Gold.PLP.ligand.clash>
0.0000

> <Gold.PLP.ligand.torsion>
0.9501

> <Gold.PLP.Chemscore.Hbond>
4.0000

> <Gold.PLP.Chemscore.CHOScore>
0.0000

> <Gold.PLP.Chemscore.Metal>
0.0000

> <Gold.Chemscore.Hbonds>
donor molecule, donor type, donor heavy atom, donor atom, acceptor molecule, acceptor atom, score
      L1  H    10    33       P1  8028  2.00
      P1  H  7997  8009       L1     5  0.99
      P1  H 10752 10765       L1     2  0.90

> <Gold.PLP.Chemscore.Internal.Correction>
0.0140

> <Gold.Rescore>
     Score         DG    S(hbond)    S(metal)    S(lipo)     H(rot)  DE(clash)    DE(int)     intcor
     18.57     -19.76       2.61        0.00      94.08       2.12       0.03       1.15       ----

> <Gold.Chemscore.Fitness>
18.5717

> <Gold.Chemscore.DG>
-19.7578

> <Gold.Chemscore.ZeroCoef>
-5.4800

> <Gold.Chemscore.Hbond>
2.6051

> <Gold.Chemscore.Metal>
0.0000

> <Gold.Chemscore.Lipo>
94.0788

> <Gold.Chemscore.Internal_Hbond>
0.0000

> <Gold.Chemscore.DEClash>
0.0318

> <Gold.Chemscore.DEInternal>
1.1543

> <Gold.Chemscore.Rot>
2.1213

> <Gold.Chemscore.Internal.Correction>
   9.000000E+99

> <Gold.Chemscore.Hbonds>
donor molecule, donor type, donor heavy atom, donor atom, acceptor molecule, acceptor atom, score
      L1  H    10    33       P1  8028  0.93
      P1  H  7997  8009       L1     5  0.76
      P1  H 10752 10765       L1     2  0.15

> <Gold.Chemscore.Hbond.Weighted>
-8.7012

> <Gold.Chemscore.Metal.Weighted>
-0.0000

> <Gold.Chemscore.Lipo.Weighted>
-11.0072

> <Gold.Chemscore.Internal_Hbond.Weighted>
0.0000

> <Gold.Chemscore.DEClash.Weighted>
0.0318

> <Gold.Chemscore.DEInternal.Weighted>
1.1543

> <Gold.Chemscore.Rot.Weighted>
5.4306

> <Gold.Chemscore.Internal.Correction.Weighted>
   9.000000E+99

> <Gold.Protein.RotatedTorsions>
[ 6907 6896 6895 6894 ] final -163.09 input  -60.11 | X-H torsion
[ 7974 7965 7964 7962 ] final  -53.24 input  175.53 | X-H torsion
[ 8008 7997 7996 7995 ] final -132.45 input   59.86 | X-H torsion
[ 10167 10162 10161 10158 ] final  -17.44 input  -65.29 | X-H torsion
[ 10718 10713 10712 10709 ] final -164.01 input   66.30 | X-H torsion
[ 10763 10752 10751 10750 ] final  165.97 input  -60.55 | X-H torsion
[ 11005 11000 10999 10996 ] final  -21.58 input  -57.11 | X-H torsion

> <Gold.Protein.ActiveResidues>
 VAL166  LYS551  ARG553  GLY616  TRP617  ASP618  TYR619  PRO620  LYS621  CYS622 
 ASP623  PHE694  ASN695  SER759  ASP760  ASP761  ALA762  ILE779  LEU786  VAL792 
 PHE793  MET794  SER795  GLU796  ALA797  LYS798  CYS799  TRP800  GLU811  SER814 

> <Gold.Protein.RotatedAtoms>
  151.3906  133.3790  159.2720 H   0  0  0  0  0  0  0  0  0  0  0  0  # atno 6907 bound_to 6896
  150.9508  134.8909  159.7681 H   0  0  0  0  0  0  0  0  0  0  0  0  # atno 6908 bound_to 6896
  152.5111  134.3861  159.9420 H   0  0  0  0  0  0  0  0  0  0  0  0  # atno 6909 bound_to 6896
  145.8991  140.8009  142.9752 H   0  0  0  0  0  0  0  0  0  0  0  0  # atno 7974 bound_to 7965
  155.3291  140.0466  157.3042 H   0  0  0  0  0  0  0  0  0  0  0  0  # atno 8008 bound_to 7997
  154.5338  140.2265  155.8724 H   0  0  0  0  0  0  0  0  0  0  0  0  # atno 8009 bound_to 7997
  156.1814  140.3073  155.9163 H   0  0  0  0  0  0  0  0  0  0  0  0  # atno 8010 bound_to 7997
  140.7247  143.5015  150.9863 H   0  0  0  0  0  0  0  0  0  0  0  0  # atno 10167 bound_to 10162
  156.6329  130.8937  151.2981 H   0  0  0  0  0  0  0  0  0  0  0  0  # atno 10718 bound_to 10713
  154.3320  135.2754  155.2467 H   0  0  0  0  0  0  0  0  0  0  0  0  # atno 10763 bound_to 10752
  154.4775  135.5867  153.6369 H   0  0  0  0  0  0  0  0  0  0  0  0  # atno 10764 bound_to 10752
  152.9865  135.6103  154.3513 H   0  0  0  0  0  0  0  0  0  0  0  0  # atno 10765 bound_to 10752
  140.8574  133.7812  156.0036 H   0  0  0  0  0  0  0  0  0  0  0  0  # atno 11005 bound_to 11000
  144.6734  140.1648  143.7419 LP  0  0  0  0  0  0  0  0  0  0  0  0  # atno 17320 bound_to 7965
  145.8814  139.2325  143.1603 LP  0  0  0  0  0  0  0  0  0  0  0  0  # atno 17321 bound_to 7965
  139.8725  143.7175  152.3165 LP  0  0  0  0  0  0  0  0  0  0  0  0  # atno 17342 bound_to 10162
  139.7428  144.7555  151.0625 LP  0  0  0  0  0  0  0  0  0  0  0  0  # atno 17343 bound_to 10162
  157.7194  130.9539  150.1381 LP  0  0  0  0  0  0  0  0  0  0  0  0  # atno 17370 bound_to 10713
  156.2220  130.3675  149.8545 LP  0  0  0  0  0  0  0  0  0  0  0  0  # atno 17371 bound_to 10713
  140.8721  134.2714  157.5185 LP  0  0  0  0  0  0  0  0  0  0  0  0  # atno 17394 bound_to 11000
  139.8706  134.9572  156.4263 LP  0  0  0  0  0  0  0  0  0  0  0  0  # atno 17395 bound_to 11000

$$$$
