AV-unprocessed.smi:1983|AV-procd|sdf|8035|dock4
  -GOLD-   2272010233D 1   1.00000     0.00000
 Structure written by MMmdl.
 50 51  0  0  0  0  0  0  0  0  2 V2000
  145.4638  135.2472  155.2934 C   0  0  0  0  0  0  0  0  0  0  0  0
  145.7530  135.2314  153.7841 C   0  0  1  0  0  0  0  0  0  0  0  0
  144.4802  135.3069  152.9149 C   0  0  0  0  0  0  0  0  0  0  0  0
  143.6029  134.2323  153.1856 O   0  0  0  0  0  0  0  0  0  0  0  0
  146.6945  136.2929  153.4356 N   0  0  0  0  0  0  0  0  0  0  0  0
  146.4782  137.6061  153.5930 C   0  0  0  0  0  0  0  0  0  0  0  0
  145.4431  138.0873  154.0546 O   0  0  0  0  0  0  0  0  0  0  0  0
  147.5302  138.3356  153.1955 N   0  0  0  0  0  0  0  0  0  0  0  0
  147.5927  139.7932  153.2367 C   0  0  0  0  0  0  0  0  0  0  0  0
  148.5514  140.3485  154.2807 C   0  0  0  0  0  0  0  0  0  0  0  0
  149.3277  139.4686  155.0658 C   0  0  0  0  0  0  0  0  0  0  0  0
  150.2153  139.9928  156.0276 C   0  0  0  0  0  0  0  0  0  0  0  0
  150.3107  141.3944  156.1914 C   0  0  0  0  0  0  0  0  0  0  0  0
  151.1632  142.0093  157.1175 N   0  0  0  0  0  0  0  0  0  0  0  0
  151.8446  141.0738  158.0028 C   0  0  0  0  0  0  0  0  0  0  0  0
  152.8453  141.8288  158.8970 C   0  0  2  0  0  0  0  0  0  0  0  0
  153.5229  140.9035  159.9132 C   0  0  0  0  0  0  0  0  0  0  0  0
  152.1469  142.8461  159.6115 O   0  0  0  0  0  0  0  0  0  0  0  0
  151.5398  143.8070  158.7500 C   0  0  2  0  0  0  0  0  0  0  0  0
  150.8854  144.8866  159.6182 C   0  0  0  0  0  0  0  0  0  0  0  0
  150.5182  143.0955  157.8422 C   0  0  0  0  0  0  0  0  0  0  0  0
  149.5406  142.2013  155.4290 N   0  3  0  0  0  0  0  0  0  0  0  0
  148.6795  141.7389  154.4968 C   0  0  0  0  0  0  0  0  0  0  0  0
  144.7798  134.4440  155.5687 H   0  0  0  0  0  0  0  0  0  0  0  0
  145.0148  136.1896  155.6093 H   0  0  0  0  0  0  0  0  0  0  0  0
  146.3800  135.1091  155.8682 H   0  0  0  0  0  0  0  0  0  0  0  0
  146.2375  134.2772  153.5681 H   0  0  0  0  0  0  0  0  0  0  0  0
  143.9535  136.2499  153.0648 H   0  0  0  0  0  0  0  0  0  0  0  0
  144.7507  135.2639  151.8595 H   0  0  0  0  0  0  0  0  0  0  0  0
  143.4814  133.7367  152.3901 H   0  0  0  0  0  0  0  0  0  0  0  0
  147.5812  135.9994  153.0523 H   0  0  0  0  0  0  0  0  0  0  0  0
  148.3361  137.8514  152.8273 H   0  0  0  0  0  0  0  0  0  0  0  0
  147.9113  140.1483  152.2566 H   0  0  0  0  0  0  0  0  0  0  0  0
  146.5903  140.1930  153.3998 H   0  0  0  0  0  0  0  0  0  0  0  0
  149.2490  138.3996  154.9308 H   0  0  0  0  0  0  0  0  0  0  0  0
  150.8107  139.3225  156.6301 H   0  0  0  0  0  0  0  0  0  0  0  0
  151.1159  140.5513  158.6241 H   0  0  0  0  0  0  0  0  0  0  0  0
  152.3640  140.3203  157.4091 H   0  0  0  0  0  0  0  0  0  0  0  0
  153.6174  142.2908  158.2789 H   0  0  0  0  0  0  0  0  0  0  0  0
  154.0801  140.1116  159.4123 H   0  0  0  0  0  0  0  0  0  0  0  0
  152.7905  140.4340  160.5706 H   0  0  0  0  0  0  0  0  0  0  0  0
  154.2235  141.4584  160.5376 H   0  0  0  0  0  0  0  0  0  0  0  0
  152.3126  144.2752  158.1375 H   0  0  0  0  0  0  0  0  0  0  0  0
  150.4114  145.6519  159.0029 H   0  0  0  0  0  0  0  0  0  0  0  0
  151.6252  145.3796  160.2493 H   0  0  0  0  0  0  0  0  0  0  0  0
  150.1221  144.4611  160.2704 H   0  0  0  0  0  0  0  0  0  0  0  0
  150.0876  143.8055  157.1347 H   0  0  0  0  0  0  0  0  0  0  0  0
  149.6972  142.6983  158.4412 H   0  0  0  0  0  0  0  0  0  0  0  0
  148.1270  142.4926  153.9547 H   0  0  0  0  0  0  0  0  0  0  0  0
  149.6158  143.2103  155.5607 H   0  0  0  0  0  0  0  0  0  0  0  0
  1  2  1  0  0  0  0
  1 24  1  0  0  0  0
  1 25  1  0  0  0  0
  1 26  1  0  0  0  0
  2  3  1  0  0  0  0
  2  5  1  0  0  0  0
  2 27  1  0  0  0  0
  3  4  1  0  0  0  0
  3 28  1  0  0  0  0
  3 29  1  0  0  0  0
  4 30  1  0  0  0  0
  5  6  1  0  0  0  0
  5 31  1  0  0  0  0
  6  7  2  0  0  0  0
  6  8  1  0  0  0  0
  8  9  1  0  0  0  0
  8 32  1  0  0  0  0
  9 10  1  0  0  0  0
  9 33  1  0  0  0  0
  9 34  1  0  0  0  0
 10 23  1  0  0  0  0
 10 11  2  0  0  0  0
 11 12  1  0  0  0  0
 11 35  1  0  0  0  0
 12 13  2  0  0  0  0
 12 36  1  0  0  0  0
 13 14  1  0  0  0  0
 13 22  1  0  0  0  0
 14 21  1  0  0  0  0
 14 15  1  0  0  0  0
 15 16  1  0  0  0  0
 15 37  1  0  0  0  0
 15 38  1  0  0  0  0
 16 17  1  0  0  0  0
 16 18  1  0  0  0  0
 16 39  1  0  0  0  0
 17 40  1  0  0  0  0
 17 41  1  0  0  0  0
 17 42  1  0  0  0  0
 18 19  1  0  0  0  0
 19 20  1  0  0  0  0
 19 21  1  0  0  0  0
 19 43  1  0  0  0  0
 20 44  1  0  0  0  0
 20 45  1  0  0  0  0
 20 46  1  0  0  0  0
 21 47  1  0  0  0  0
 21 48  1  0  0  0  0
 22 23  2  0  0  0  0
 22 50  1  0  0  0  0
 23 49  1  0  0  0  0
M  CHG  1  22   1
M  END
> <s_m_source_file>
AV-unprocessed.smi

> <i_m_source_file_index>
1983

> <i_lp_mmshare_version>
43012

> <i_f3d_flags>
0

> <s_epik_input>
W09IXVtDSDJdW0NAQEhdKFtDSDNdKVtOSF1DKD1PKVtOSF1bQ0gyXWMxW2NIXVtjSF1jKG5bY0hdMSlOMltDSDJdW0NAQEhdKFtDSDNdKU9bQ0BASF0oW0NIM10pW0NIMl0y

> <s_epik_cmdline>
J2VwaWtfcHl0aG9uJywgJy1waCcsICc3LjAnLCAnLXRuJywgJzgnLCAnLW1hJywgJzIwMCcsICctbWV0YWxfYmluZGluZycsICctaW1hZScsICc8aW5maWxlLm1hZT4nLCAnLW9tYWUnLCAnPG91dGZpbGUubWFlPic=

> <r_lp_tautomer_probability>
0.999994

> <r_epik_Ionization_Penalty>
2.55677

> <r_epik_Ionization_Penalty_Charging>
2.55673

> <r_epik_Ionization_Penalty_Neutral>
3.71772e-05

> <r_epik_State_Penalty>
2.72571

> <r_epik_Charging_Adjusted_Penalty>
5.28244

> <i_epik_Tot_Q>
1

> <i_epik_Tot_abs_Q>
1

> <r_epik_Metal_State_Penalty>
2.73364

> <b_epik_Metal_Only>
0

> <s_lp_Force_Field>
OPLS_2005

> <r_lp_Energy>
22.1941

> <b_lp_Chiralities_Consistent>
1

> <s_lp_Variant>
AV-unprocessed.smi:1983-8

> <Gold.Version>
5.8.1

> <Gold.Id.Protein>
6NUR|6NUR_protein|mol2

> <Gold.PLP.Fitness>
45.1858

> <Gold.PLP.PLP>
-33.9535

> <Gold.PLP.part.hbond>
-3.9749

> <Gold.PLP.part.metal>
0.0000

> <Gold.PLP.part.buried>
-3.2149

> <Gold.PLP.part.nonpolar>
-27.2275

> <Gold.PLP.part.repulsive>
0.4064

> <Gold.PLP.ligand.clash>
0.0000

> <Gold.PLP.ligand.torsion>
0.3268

> <Gold.PLP.Chemscore.Hbond>
3.9040

> <Gold.PLP.Chemscore.CHOScore>
0.0000

> <Gold.PLP.Chemscore.Metal>
0.0000

> <Gold.Chemscore.Hbonds>
donor molecule, donor type, donor heavy atom, donor atom, acceptor molecule, acceptor atom, score
      L1  H     5    31       P1  7948  1.00
      L1  H     8    32       P1  7948  0.91
      L1  H    22    50       P1  8028  1.98

> <Gold.PLP.Chemscore.Internal.Correction>
0.1739

> <Gold.Rescore>
     Score         DG    S(hbond)    S(metal)    S(lipo)     H(rot)  DE(clash)    DE(int)     intcor
     17.50     -19.26       2.86        0.00      94.37       2.66       1.41       0.35       ----

> <Gold.Chemscore.Fitness>
17.4959

> <Gold.Chemscore.DG>
-19.2599

> <Gold.Chemscore.ZeroCoef>
-5.4800

> <Gold.Chemscore.Hbond>
2.8615

> <Gold.Chemscore.Metal>
0.0000

> <Gold.Chemscore.Lipo>
94.3713

> <Gold.Chemscore.Internal_Hbond>
0.0000

> <Gold.Chemscore.DEClash>
1.4132

> <Gold.Chemscore.DEInternal>
0.3507

> <Gold.Chemscore.Rot>
2.6637

> <Gold.Chemscore.Internal.Correction>
   9.000000E+99

> <Gold.Chemscore.Hbonds>
donor molecule, donor type, donor heavy atom, donor atom, acceptor molecule, acceptor atom, score
      L1  H     5    31       P1  7948  0.95
      L1  H     8    32       P1  7948  0.88
      L1  H    22    50       P1  8028  0.94

> <Gold.Chemscore.Hbond.Weighted>
-9.5576

> <Gold.Chemscore.Metal.Weighted>
-0.0000

> <Gold.Chemscore.Lipo.Weighted>
-11.0414

> <Gold.Chemscore.Internal_Hbond.Weighted>
0.0000

> <Gold.Chemscore.DEClash.Weighted>
1.4132

> <Gold.Chemscore.DEInternal.Weighted>
0.3507

> <Gold.Chemscore.Rot.Weighted>
6.8191

> <Gold.Chemscore.Internal.Correction.Weighted>
   9.000000E+99

> <Gold.Protein.RotatedTorsions>
[ 6907 6896 6895 6894 ] final  143.91 input  -60.11 | X-H torsion
[ 7974 7965 7964 7962 ] final  -50.69 input  175.53 | X-H torsion
[ 8008 7997 7996 7995 ] final   88.43 input   59.86 | X-H torsion
[ 10167 10162 10161 10158 ] final   46.07 input  -65.29 | X-H torsion
[ 10718 10713 10712 10709 ] final   80.67 input   66.30 | X-H torsion
[ 10763 10752 10751 10750 ] final -123.99 input  -60.55 | X-H torsion
[ 11005 11000 10999 10996 ] final  151.40 input  -57.11 | X-H torsion

> <Gold.Protein.ActiveResidues>
 VAL166  LYS551  ARG553  GLY616  TRP617  ASP618  TYR619  PRO620  LYS621  CYS622 
 ASP623  PHE694  ASN695  SER759  ASP760  ASP761  ALA762  ILE779  LEU786  VAL792 
 PHE793  MET794  SER795  GLU796  ALA797  LYS798  CYS799  TRP800  GLU811  SER814 

> <Gold.Protein.RotatedAtoms>
  152.2004  133.4836  159.5055 H   0  0  0  0  0  0  0  0  0  0  0  0  # atno 6907 bound_to 6896
  150.6968  134.1598  159.4181 H   0  0  0  0  0  0  0  0  0  0  0  0  # atno 6908 bound_to 6896
  151.9515  135.0166  160.0593 H   0  0  0  0  0  0  0  0  0  0  0  0  # atno 6909 bound_to 6896
  145.9271  140.7783  142.9618 H   0  0  0  0  0  0  0  0  0  0  0  0  # atno 7974 bound_to 7965
  155.9876  140.3371  155.6722 H   0  0  0  0  0  0  0  0  0  0  0  0  # atno 8008 bound_to 7997
  155.6464  140.0701  157.2619 H   0  0  0  0  0  0  0  0  0  0  0  0  # atno 8009 bound_to 7997
  154.4210  140.1733  156.1615 H   0  0  0  0  0  0  0  0  0  0  0  0  # atno 8010 bound_to 7997
  140.3177  144.2744  150.6188 H   0  0  0  0  0  0  0  0  0  0  0  0  # atno 10167 bound_to 10162
  157.6812  130.9970  150.2113 H   0  0  0  0  0  0  0  0  0  0  0  0  # atno 10718 bound_to 10713
  154.8716  135.4079  154.3034 H   0  0  0  0  0  0  0  0  0  0  0  0  # atno 10763 bound_to 10752
  153.3889  135.7014  153.6515 H   0  0  0  0  0  0  0  0  0  0  0  0  # atno 10764 bound_to 10752
  153.5305  135.3668  155.2645 H   0  0  0  0  0  0  0  0  0  0  0  0  # atno 10765 bound_to 10752
  140.1215  134.8860  157.2079 H   0  0  0  0  0  0  0  0  0  0  0  0  # atno 11005 bound_to 11000
  144.6760  140.2067  143.7381 LP  0  0  0  0  0  0  0  0  0  0  0  0  # atno 17320 bound_to 7965
  145.8475  139.2159  143.1791 LP  0  0  0  0  0  0  0  0  0  0  0  0  # atno 17321 bound_to 7965
  140.5512  143.2206  151.7924 LP  0  0  0  0  0  0  0  0  0  0  0  0  # atno 17342 bound_to 10162
  139.4880  144.4474  151.9694 LP  0  0  0  0  0  0  0  0  0  0  0  0  # atno 17343 bound_to 10162
  156.2784  130.3730  149.7960 LP  0  0  0  0  0  0  0  0  0  0  0  0  # atno 17370 bound_to 10713
  156.5656  130.8402  151.3342 LP  0  0  0  0  0  0  0  0  0  0  0  0  # atno 17371 bound_to 10713
  140.2959  134.3187  155.7302 LP  0  0  0  0  0  0  0  0  0  0  0  0  # atno 17394 bound_to 11000
  141.2152  133.7562  156.9570 LP  0  0  0  0  0  0  0  0  0  0  0  0  # atno 17395 bound_to 11000

$$$$
