AV-unprocessed.smi:2005|AV-procd|sdf|8126|dock7
  -GOLD-   2272010363D 1   1.00000     0.00000
 Structure written by MMmdl.
 39 40  0  0  0  0  0  0  0  0  1 V2000
  148.4106  123.1537  150.8842 C   0  0  0  0  0  0  0  0  0  0  0  0
  149.0630  123.8353  152.0958 C   0  0  0  0  0  0  0  0  0  0  0  0
  148.9357  123.0169  153.3892 C   0  0  0  0  0  0  0  0  0  0  0  0
  148.5920  125.2453  152.2722 C   0  0  0  0  0  0  0  0  0  0  0  0
  148.0199  125.6886  153.4000 N   0  0  0  0  0  0  0  0  0  0  0  0
  147.6737  127.0302  153.3251 N   0  0  0  0  0  0  0  0  0  0  0  0
  147.9943  127.5630  152.1383 C   0  0  0  0  0  0  0  0  0  0  0  0
  147.7555  128.9186  151.7905 N   0  0  0  0  0  0  0  0  0  0  0  0
  146.6722  129.6699  152.0551 C   0  0  0  0  0  0  0  0  0  0  0  0
  145.6691  129.2871  152.6581 O   0  0  0  0  0  0  0  0  0  0  0  0
  146.8203  130.9148  151.5791 N   0  0  0  0  0  0  0  0  0  0  0  0
  145.8450  131.9930  151.7115 C   0  0  2  0  0  0  0  0  0  0  0  0
  144.4854  131.5259  151.1601 C   0  0  0  0  0  0  0  0  0  0  0  0
  143.4338  132.6479  151.2159 C   0  0  0  0  0  0  0  0  0  0  0  0
  143.9093  133.9294  150.5063 C   0  0  2  0  0  0  0  0  0  0  0  0
  143.9591  133.7191  149.1086 O   0  0  0  0  0  0  0  0  0  0  0  0
  145.2876  134.3829  151.0229 C   0  0  0  0  0  0  0  0  0  0  0  0
  146.3321  133.2542  150.9695 C   0  0  0  0  0  0  0  0  0  0  0  0
  148.7482  126.4563  151.0041 S   0  0  0  0  0  0  0  0  0  0  0  0
  148.5964  123.7180  149.9699 H   0  0  0  0  0  0  0  0  0  0  0  0
  147.3307  123.0694  151.0105 H   0  0  0  0  0  0  0  0  0  0  0  0
  148.8070  122.1486  150.7379 H   0  0  0  0  0  0  0  0  0  0  0  0
  150.1298  123.8936  151.8758 H   0  0  0  0  0  0  0  0  0  0  0  0
  149.4785  123.4905  154.2080 H   0  0  0  0  0  0  0  0  0  0  0  0
  149.3421  122.0135  153.2602 H   0  0  0  0  0  0  0  0  0  0  0  0
  147.8936  122.9160  153.6945 H   0  0  0  0  0  0  0  0  0  0  0  0
  148.5046  129.3746  151.2912 H   0  0  0  0  0  0  0  0  0  0  0  0
  147.6787  131.1396  151.0976 H   0  0  0  0  0  0  0  0  0  0  0  0
  145.7174  132.2323  152.7691 H   0  0  0  0  0  0  0  0  0  0  0  0
  144.6004  131.1880  150.1291 H   0  0  0  0  0  0  0  0  0  0  0  0
  144.1293  130.6650  151.7269 H   0  0  0  0  0  0  0  0  0  0  0  0
  142.4939  132.3027  150.7834 H   0  0  0  0  0  0  0  0  0  0  0  0
  143.2199  132.8792  152.2601 H   0  0  0  0  0  0  0  0  0  0  0  0
  143.1834  134.7240  150.6817 H   0  0  0  0  0  0  0  0  0  0  0  0
  144.7221  134.1587  148.7656 H   0  0  0  0  0  0  0  0  0  0  0  0
  145.6395  135.2462  150.4571 H   0  0  0  0  0  0  0  0  0  0  0  0
  145.1861  134.7190  152.0556 H   0  0  0  0  0  0  0  0  0  0  0  0
  147.2684  133.6072  151.4029 H   0  0  0  0  0  0  0  0  0  0  0  0
  146.5498  133.0096  149.9289 H   0  0  0  0  0  0  0  0  0  0  0  0
  1  2  1  0  0  0  0
  1 20  1  0  0  0  0
  1 21  1  0  0  0  0
  1 22  1  0  0  0  0
  2  3  1  0  0  0  0
  2  4  1  0  0  0  0
  2 23  1  0  0  0  0
  3 24  1  0  0  0  0
  3 25  1  0  0  0  0
  3 26  1  0  0  0  0
  4 19  1  0  0  0  0
  4  5  2  0  0  0  0
  5  6  1  0  0  0  0
  6  7  2  0  0  0  0
  7  8  1  0  0  0  0
  7 19  1  0  0  0  0
  8  9  1  0  0  0  0
  8 27  1  0  0  0  0
  9 10  2  0  0  0  0
  9 11  1  0  0  0  0
 11 12  1  0  0  0  0
 11 28  1  0  0  0  0
 12 18  1  0  0  0  0
 12 13  1  0  0  0  0
 12 29  1  0  0  0  0
 13 14  1  0  0  0  0
 13 30  1  0  0  0  0
 13 31  1  0  0  0  0
 14 15  1  0  0  0  0
 14 32  1  0  0  0  0
 14 33  1  0  0  0  0
 15 16  1  0  0  0  0
 15 17  1  0  0  0  0
 15 34  1  0  0  0  0
 16 35  1  0  0  0  0
 17 18  1  0  0  0  0
 17 36  1  0  0  0  0
 17 37  1  0  0  0  0
 18 38  1  0  0  0  0
 18 39  1  0  0  0  0
M  END
> <s_m_source_file>
AV-unprocessed.smi

> <i_m_source_file_index>
2005

> <i_lp_mmshare_version>
43012

> <i_f3d_flags>
0

> <s_epik_input>
W0NIM11bQ0hdKFtDSDNdKWMxbm5jKHMxKVtOSF1DKD1PKVtOSF1bQ0BASF0yW0NIMl1bQ0gyXVtDQEBIXShbT0hdKVtDSDJdW0NIMl0y

> <s_epik_cmdline>
J2VwaWtfcHl0aG9uJywgJy1waCcsICc3LjAnLCAnLXRuJywgJzgnLCAnLW1hJywgJzIwMCcsICctbWV0YWxfYmluZGluZycsICctaW1hZScsICc8aW5maWxlLm1hZT4nLCAnLW9tYWUnLCAnPG91dGZpbGUubWFlPic=

> <r_lp_tautomer_probability>
1

> <r_epik_Ionization_Penalty>
0.000372581

> <r_epik_Ionization_Penalty_Charging>
0

> <r_epik_Ionization_Penalty_Neutral>
0.000372581

> <r_epik_State_Penalty>
-0

> <r_epik_Charging_Adjusted_Penalty>
0

> <i_epik_Tot_Q>
0

> <i_epik_Tot_abs_Q>
0

> <r_epik_Metal_State_Penalty>
0.186152

> <b_epik_Metal_Only>
0

> <s_lp_Force_Field>
OPLS_2005

> <r_lp_Energy>
3.3573

> <b_lp_Chiralities_Consistent>
1

> <s_lp_Variant>
AV-unprocessed.smi:2005-2

> <Gold.Version>
5.8.1

> <Gold.Id.Protein>
6NUR|6NUR_protein|mol2

> <Gold.PLP.Fitness>
46.1640

> <Gold.PLP.PLP>
-38.7544

> <Gold.PLP.part.hbond>
-5.1234

> <Gold.PLP.part.metal>
0.0000

> <Gold.PLP.part.buried>
-5.9417

> <Gold.PLP.part.nonpolar>
-28.7126

> <Gold.PLP.part.repulsive>
0.2885

> <Gold.PLP.ligand.clash>
0.0000

> <Gold.PLP.ligand.torsion>
0.3827

> <Gold.PLP.Chemscore.Hbond>
2.6993

> <Gold.PLP.Chemscore.CHOScore>
0.0000

> <Gold.PLP.Chemscore.Metal>
0.0000

> <Gold.Chemscore.Hbonds>
donor molecule, donor type, donor heavy atom, donor atom, acceptor molecule, acceptor atom, score
      L1  H     8    27       P1 10747  0.71
      L1  H    11    28       P1 10747  1.00
      L1  H    16    35       P1  7921  1.00

> <Gold.PLP.Chemscore.Internal.Correction>
0.0772

> <Gold.Rescore>
     Score         DG    S(hbond)    S(metal)    S(lipo)     H(rot)  DE(clash)    DE(int)     intcor
     13.19     -15.82       2.10        0.00      66.13       1.72       0.88       1.76       ----

> <Gold.Chemscore.Fitness>
13.1862

> <Gold.Chemscore.DG>
-15.8248

> <Gold.Chemscore.ZeroCoef>
-5.4800

> <Gold.Chemscore.Hbond>
2.0995

> <Gold.Chemscore.Metal>
0.0000

> <Gold.Chemscore.Lipo>
66.1317

> <Gold.Chemscore.Internal_Hbond>
0.0000

> <Gold.Chemscore.DEClash>
0.8828

> <Gold.Chemscore.DEInternal>
1.7558

> <Gold.Chemscore.Rot>
1.7207

> <Gold.Chemscore.Internal.Correction>
   9.000000E+99

> <Gold.Chemscore.Hbonds>
donor molecule, donor type, donor heavy atom, donor atom, acceptor molecule, acceptor atom, score
      L1  H     8    27       P1 10747  0.09
      L1  H    11    28       P1 10747  0.95
      L1  H    16    35       P1  7921  1.00

> <Gold.Chemscore.Hbond.Weighted>
-7.0125

> <Gold.Chemscore.Metal.Weighted>
-0.0000

> <Gold.Chemscore.Lipo.Weighted>
-7.7374

> <Gold.Chemscore.Internal_Hbond.Weighted>
0.0000

> <Gold.Chemscore.DEClash.Weighted>
0.8828

> <Gold.Chemscore.DEInternal.Weighted>
1.7558

> <Gold.Chemscore.Rot.Weighted>
4.4051

> <Gold.Chemscore.Internal.Correction.Weighted>
   9.000000E+99

> <Gold.Protein.RotatedTorsions>
[ 6907 6896 6895 6894 ] final  118.43 input  -60.11 | X-H torsion
[ 7974 7965 7964 7962 ] final  166.88 input  175.53 | X-H torsion
[ 8008 7997 7996 7995 ] final -147.47 input   59.86 | X-H torsion
[ 10167 10162 10161 10158 ] final  165.08 input  -65.29 | X-H torsion
[ 10718 10713 10712 10709 ] final  -23.49 input   66.30 | X-H torsion
[ 10763 10752 10751 10750 ] final -159.45 input  -60.55 | X-H torsion
[ 11005 11000 10999 10996 ] final -179.47 input  -57.11 | X-H torsion

> <Gold.Protein.ActiveResidues>
 VAL166  LYS551  ARG553  GLY616  TRP617  ASP618  TYR619  PRO620  LYS621  CYS622 
 ASP623  PHE694  ASN695  SER759  ASP760  ASP761  ALA762  ILE779  LEU786  VAL792 
 PHE793  MET794  SER795  GLU796  ALA797  LYS798  CYS799  TRP800  GLU811  SER814 

> <Gold.Protein.RotatedAtoms>
  152.4544  133.7693  159.6789 H   0  0  0  0  0  0  0  0  0  0  0  0  # atno 6907 bound_to 6896
  150.8465  133.7843  159.3047 H   0  0  0  0  0  0  0  0  0  0  0  0  # atno 6908 bound_to 6896
  151.5452  135.1071  159.9988 H   0  0  0  0  0  0  0  0  0  0  0  0  # atno 6909 bound_to 6896
  144.7445  139.8679  143.6386 H   0  0  0  0  0  0  0  0  0  0  0  0  # atno 7974 bound_to 7965
  155.5760  140.0639  157.2795 H   0  0  0  0  0  0  0  0  0  0  0  0  # atno 8008 bound_to 7997
  154.4346  140.1860  156.0974 H   0  0  0  0  0  0  0  0  0  0  0  0  # atno 8009 bound_to 7997
  156.0341  140.3303  155.7175 H   0  0  0  0  0  0  0  0  0  0  0  0  # atno 8010 bound_to 7997
  139.4900  144.4168  151.9234 H   0  0  0  0  0  0  0  0  0  0  0  0  # atno 10167 bound_to 10162
  156.4904  130.4565  149.6759 H   0  0  0  0  0  0  0  0  0  0  0  0  # atno 10718 bound_to 10713
  154.7474  135.3083  154.8620 H   0  0  0  0  0  0  0  0  0  0  0  0  # atno 10763 bound_to 10752
  153.9417  135.6774  153.4748 H   0  0  0  0  0  0  0  0  0  0  0  0  # atno 10764 bound_to 10752
  153.1070  135.4884  154.8896 H   0  0  0  0  0  0  0  0  0  0  0  0  # atno 10765 bound_to 10752
  140.4183  134.6629  157.4650 H   0  0  0  0  0  0  0  0  0  0  0  0  # atno 11005 bound_to 11000
  146.1301  139.4335  143.0174 LP  0  0  0  0  0  0  0  0  0  0  0  0  # atno 17320 bound_to 7965
  145.7176  141.0086  143.1420 LP  0  0  0  0  0  0  0  0  0  0  0  0  # atno 17321 bound_to 7965
  140.3611  144.2971  150.5933 LP  0  0  0  0  0  0  0  0  0  0  0  0  # atno 17342 bound_to 10162
  140.5402  143.2225  151.8098 LP  0  0  0  0  0  0  0  0  0  0  0  0  # atno 17343 bound_to 10162
  156.3432  130.7393  151.2341 LP  0  0  0  0  0  0  0  0  0  0  0  0  # atno 17370 bound_to 10713
  157.7474  131.0398  150.4566 LP  0  0  0  0  0  0  0  0  0  0  0  0  # atno 17371 bound_to 10713
  140.0218  134.6535  155.9228 LP  0  0  0  0  0  0  0  0  0  0  0  0  # atno 17394 bound_to 11000
  141.1794  133.6544  156.4959 LP  0  0  0  0  0  0  0  0  0  0  0  0  # atno 17395 bound_to 11000

$$$$
