AV-unprocessed.smi:3229|AV-procd|sdf|12327|dock3
  -GOLD-   2272018173D 1   1.00000     0.00000
 Structure written by MMmdl.
 35 36  0  0  0  0  0  0  0  0  1 V2000
  151.3894  142.8735  159.1767 C   0  0  0  0  0  0  0  0  0  0  0  0
  150.5878  142.9815  157.8748 C   0  0  0  0  0  0  0  0  0  0  0  0
  150.7829  141.8146  156.9637 C   0  0  0  0  0  0  0  0  0  0  0  0
  150.3233  141.6712  155.6780 C   0  0  0  0  0  0  0  0  0  0  0  0
  150.6723  140.4562  155.0855 N   0  0  0  0  0  0  0  0  0  0  0  0
  151.3812  139.6736  155.9036 C   0  0  0  0  0  0  0  0  0  0  0  0
  151.9140  138.3325  155.5115 C   0  0  0  0  0  0  0  0  0  0  0  0
  151.5731  137.9230  154.0649 C   0  0  0  0  0  0  0  0  0  0  0  0
  150.7663  136.7088  153.9947 N   0  0  0  0  0  0  0  0  0  0  0  0
  150.8791  135.6562  154.8196 C   0  0  0  0  0  0  0  0  0  0  0  0
  151.7141  135.5972  155.7227 O   0  0  0  0  0  0  0  0  0  0  0  0
  149.8779  134.5123  154.6127 C   0  0  2  0  0  0  0  0  0  0  0  0
  150.5171  133.1608  154.2778 C   0  0  0  0  0  0  0  0  0  0  0  0
  149.4105  132.4840  153.5010 C   0  0  0  0  0  0  0  0  0  0  0  0
  148.8315  133.6474  152.7029 C   0  0  0  0  0  0  0  0  0  0  0  0
  149.0168  134.8063  153.5113 O   0  0  0  0  0  0  0  0  0  0  0  0
  151.6836  140.4087  157.4731 S   0  0  0  0  0  0  0  0  0  0  0  0
  151.2274  143.7491  159.8057 H   0  0  0  0  0  0  0  0  0  0  0  0
  152.4586  142.8013  158.9748 H   0  0  0  0  0  0  0  0  0  0  0  0
  151.0957  141.9939  159.7500 H   0  0  0  0  0  0  0  0  0  0  0  0
  149.5279  143.0818  158.1100 H   0  0  0  0  0  0  0  0  0  0  0  0
  150.8693  143.8986  157.3561 H   0  0  0  0  0  0  0  0  0  0  0  0
  149.7432  142.3823  155.1085 H   0  0  0  0  0  0  0  0  0  0  0  0
  152.9961  138.3373  155.6445 H   0  0  0  0  0  0  0  0  0  0  0  0
  151.5264  137.5890  156.2093 H   0  0  0  0  0  0  0  0  0  0  0  0
  151.0043  138.7211  153.5876 H   0  0  0  0  0  0  0  0  0  0  0  0
  152.4857  137.8032  153.4791 H   0  0  0  0  0  0  0  0  0  0  0  0
  150.0504  136.6743  153.2831 H   0  0  0  0  0  0  0  0  0  0  0  0
  149.2587  134.4152  155.5059 H   0  0  0  0  0  0  0  0  0  0  0  0
  151.3977  133.2814  153.6441 H   0  0  0  0  0  0  0  0  0  0  0  0
  150.8080  132.5997  155.1665 H   0  0  0  0  0  0  0  0  0  0  0  0
  149.7633  131.6668  152.8711 H   0  0  0  0  0  0  0  0  0  0  0  0
  148.6602  132.0890  154.1873 H   0  0  0  0  0  0  0  0  0  0  0  0
  149.3866  133.7830  151.7738 H   0  0  0  0  0  0  0  0  0  0  0  0
  147.7813  133.4990  152.4510 H   0  0  0  0  0  0  0  0  0  0  0  0
  1  2  1  0  0  0  0
  1 18  1  0  0  0  0
  1 19  1  0  0  0  0
  1 20  1  0  0  0  0
  2  3  1  0  0  0  0
  2 21  1  0  0  0  0
  2 22  1  0  0  0  0
  3 17  1  0  0  0  0
  3  4  2  0  0  0  0
  4  5  1  0  0  0  0
  4 23  1  0  0  0  0
  5  6  2  0  0  0  0
  6  7  1  0  0  0  0
  6 17  1  0  0  0  0
  7  8  1  0  0  0  0
  7 24  1  0  0  0  0
  7 25  1  0  0  0  0
  8  9  1  0  0  0  0
  8 26  1  0  0  0  0
  8 27  1  0  0  0  0
  9 10  1  0  0  0  0
  9 28  1  0  0  0  0
 10 11  2  0  0  0  0
 10 12  1  0  0  0  0
 12 16  1  0  0  0  0
 12 13  1  0  0  0  0
 12 29  1  0  0  0  0
 13 14  1  0  0  0  0
 13 30  1  0  0  0  0
 13 31  1  0  0  0  0
 14 15  1  0  0  0  0
 14 32  1  0  0  0  0
 14 33  1  0  0  0  0
 15 16  1  0  0  0  0
 15 34  1  0  0  0  0
 15 35  1  0  0  0  0
M  END
> <s_m_source_file>
AV-unprocessed.smi

> <i_m_source_file_index>
3229

> <i_lp_mmshare_version>
43012

> <i_f3d_flags>
0

> <s_epik_input>
W0NIM11bQ0gyXWMxW2NIXW5jKHMxKVtDSDJdW0NIMl1bTkhdQyg9TylbQ0BASF0yW0NIMl1bQ0gyXVtDSDJdTzI=

> <s_epik_cmdline>
J2VwaWtfcHl0aG9uJywgJy1waCcsICc3LjAnLCAnLXRuJywgJzgnLCAnLW1hJywgJzIwMCcsICctbWV0YWxfYmluZGluZycsICctaW1hZScsICc8aW5maWxlLm1hZT4nLCAnLW9tYWUnLCAnPG91dGZpbGUubWFlPic=

> <r_epik_Ionization_Penalty>
0.000508191

> <r_epik_Ionization_Penalty_Charging>
0

> <r_epik_Ionization_Penalty_Neutral>
0.000508191

> <r_epik_State_Penalty>
0.000316483

> <r_epik_Charging_Adjusted_Penalty>
0.000316483

> <i_epik_Tot_Q>
0

> <i_epik_Tot_abs_Q>
0

> <r_epik_Metal_State_Penalty>
-0

> <b_epik_Metal_Only>
0

> <s_lp_Force_Field>
OPLS_2005

> <r_lp_Energy>
9.62318

> <b_lp_Chiralities_Consistent>
1

> <s_lp_Variant>
AV-unprocessed.smi:3229-1

> <Gold.Version>
5.8.1

> <Gold.Id.Protein>
6NUR|6NUR_protein|mol2

> <Gold.PLP.Fitness>
44.0831

> <Gold.PLP.PLP>
-33.7345

> <Gold.PLP.part.hbond>
-4.0000

> <Gold.PLP.part.metal>
0.0000

> <Gold.PLP.part.buried>
-3.8382

> <Gold.PLP.part.nonpolar>
-27.5131

> <Gold.PLP.part.repulsive>
1.6432

> <Gold.PLP.ligand.clash>
0.0000

> <Gold.PLP.ligand.torsion>
0.6037

> <Gold.PLP.Chemscore.Hbond>
2.8406

> <Gold.PLP.Chemscore.CHOScore>
1.0000

> <Gold.PLP.Chemscore.Metal>
0.0000

> <Gold.Chemscore.Hbonds>
donor molecule, donor type, donor heavy atom, donor atom, acceptor molecule, acceptor atom, score
      L1  H     9    28       P1  7948  0.70
      P1  H  7989  7998       L1     5  1.00
      P1  H 10752 10763       L1    11  0.80
      L1  C     4    23       P1  8028  0.97

> <Gold.PLP.Chemscore.Internal.Correction>
0.0344

> <Gold.Rescore>
     Score         DG    S(hbond)    S(metal)    S(lipo)     H(rot)  DE(clash)    DE(int)     intcor
     14.10     -17.15       1.88        0.00      81.28       1.60       1.01       2.03       ----

> <Gold.Chemscore.Fitness>
14.1021

> <Gold.Chemscore.DG>
-17.1465

> <Gold.Chemscore.ZeroCoef>
-5.4800

> <Gold.Chemscore.Hbond>
1.8753

> <Gold.Chemscore.Metal>
0.0000

> <Gold.Chemscore.Lipo>
81.2764

> <Gold.Chemscore.Internal_Hbond>
0.0000

> <Gold.Chemscore.DEClash>
1.0110

> <Gold.Chemscore.DEInternal>
2.0334

> <Gold.Chemscore.Rot>
1.6040

> <Gold.Chemscore.Internal.Correction>
   9.000000E+99

> <Gold.Chemscore.Hbonds>
donor molecule, donor type, donor heavy atom, donor atom, acceptor molecule, acceptor atom, score
      L1  H     9    28       P1  7948  0.07
      P1  H  7989  7998       L1     5  0.44
      P1  H 10752 10763       L1    11  0.11

> <Gold.Chemscore.Hbond.Weighted>
-6.2634

> <Gold.Chemscore.Metal.Weighted>
-0.0000

> <Gold.Chemscore.Lipo.Weighted>
-9.5093

> <Gold.Chemscore.Internal_Hbond.Weighted>
0.0000

> <Gold.Chemscore.DEClash.Weighted>
1.0110

> <Gold.Chemscore.DEInternal.Weighted>
2.0334

> <Gold.Chemscore.Rot.Weighted>
4.1062

> <Gold.Chemscore.Internal.Correction.Weighted>
   9.000000E+99

> <Gold.Protein.RotatedTorsions>
[ 6907 6896 6895 6894 ] final -167.17 input  -60.11 | X-H torsion
[ 7974 7965 7964 7962 ] final  -78.57 input  175.53 | X-H torsion
[ 8008 7997 7996 7995 ] final  169.32 input   59.86 | X-H torsion
[ 10167 10162 10161 10158 ] final  135.75 input  -65.29 | X-H torsion
[ 10718 10713 10712 10709 ] final  126.22 input   66.30 | X-H torsion
[ 10763 10752 10751 10750 ] final   70.21 input  -60.55 | X-H torsion
[ 11005 11000 10999 10996 ] final  124.68 input  -57.11 | X-H torsion

> <Gold.Protein.ActiveResidues>
 VAL166  LYS551  ARG553  GLY616  TRP617  ASP618  TYR619  PRO620  LYS621  CYS622 
 ASP623  PHE694  ASN695  SER759  ASP760  ASP761  ALA762  ILE779  LEU786  VAL792 
 PHE793  MET794  SER795  GLU796  ALA797  LYS798  CYS799  TRP800  GLU811  SER814 

> <Gold.Protein.RotatedAtoms>
  151.4552  133.3607  159.2800 H   0  0  0  0  0  0  0  0  0  0  0  0  # atno 6907 bound_to 6896
  150.9063  134.8480  159.7405 H   0  0  0  0  0  0  0  0  0  0  0  0  # atno 6908 bound_to 6896
  152.4908  134.4478  159.9616 H   0  0  0  0  0  0  0  0  0  0  0  0  # atno 6909 bound_to 6896
  145.5847  140.9441  143.1325 H   0  0  0  0  0  0  0  0  0  0  0  0  # atno 7974 bound_to 7965
  156.1468  140.1567  156.8834 H   0  0  0  0  0  0  0  0  0  0  0  0  # atno 8008 bound_to 7997
  154.5035  140.0819  156.7884 H   0  0  0  0  0  0  0  0  0  0  0  0  # atno 8009 bound_to 7997
  155.3974  140.3413  155.4257 H   0  0  0  0  0  0  0  0  0  0  0  0  # atno 8010 bound_to 7997
  139.5205  144.6500  151.5328 H   0  0  0  0  0  0  0  0  0  0  0  0  # atno 10167 bound_to 10162
  157.5438  131.1096  150.8816 H   0  0  0  0  0  0  0  0  0  0  0  0  # atno 10718 bound_to 10713
  153.0329  135.5182  154.7406 H   0  0  0  0  0  0  0  0  0  0  0  0  # atno 10763 bound_to 10752
  154.6407  135.2912  155.0110 H   0  0  0  0  0  0  0  0  0  0  0  0  # atno 10764 bound_to 10752
  154.1029  135.6633  153.4924 H   0  0  0  0  0  0  0  0  0  0  0  0  # atno 10765 bound_to 10752
  139.9370  134.9639  156.8446 H   0  0  0  0  0  0  0  0  0  0  0  0  # atno 11005 bound_to 11000
  144.7378  139.7535  143.7322 LP  0  0  0  0  0  0  0  0  0  0  0  0  # atno 17320 bound_to 7965
  146.1691  139.4834  142.9939 LP  0  0  0  0  0  0  0  0  0  0  0  0  # atno 17321 bound_to 7965
  140.6302  143.9091  150.6598 LP  0  0  0  0  0  0  0  0  0  0  0  0  # atno 17342 bound_to 10162
  140.2393  143.3676  152.1500 LP  0  0  0  0  0  0  0  0  0  0  0  0  # atno 17343 bound_to 10162
  156.9361  130.5367  149.5279 LP  0  0  0  0  0  0  0  0  0  0  0  0  # atno 17370 bound_to 10713
  156.0518  130.5586  150.9006 LP  0  0  0  0  0  0  0  0  0  0  0  0  # atno 17371 bound_to 10713
  140.6049  134.0137  155.7552 LP  0  0  0  0  0  0  0  0  0  0  0  0  # atno 17394 bound_to 11000
  141.0989  133.9800  157.3114 LP  0  0  0  0  0  0  0  0  0  0  0  0  # atno 17395 bound_to 11000

$$$$
