AV-unprocessed.smi:1434|AV-procd|sdf|5855|dock2
  -GOLD-   22720 5523D 1   1.00000     0.00000
 Structure written by MMmdl.
 44 45  0  0  0  0  0  0  0  0  3 V2000
  153.4637  137.2485  158.8429 C   0  0  0  0  0  0  0  0  0  0  0  0
  154.5671  137.7933  157.4797 S   0  0  0  0  0  0  0  0  0  0  0  0
  155.6421  138.5689  158.1192 O   0  0  0  0  0  0  0  0  0  0  0  0
  154.9558  136.5652  156.7675 O   0  0  0  0  0  0  0  0  0  0  0  0
  153.5476  138.7217  156.6254 N   0  5  0  0  0  0  0  0  0  0  0  0
  152.5925  138.1055  155.7155 C   0  0  2  0  0  0  0  0  0  0  0  0
  151.8352  139.1787  154.8883 C   0  0  0  0  0  0  0  0  0  0  0  0
  150.6304  138.6098  154.0918 C   0  0  0  0  0  0  0  0  0  0  0  0
  149.6859  137.7596  154.9711 C   0  0  0  0  0  0  0  0  0  0  0  0
  150.5085  136.7191  155.6286 N   0  0  0  0  0  0  0  0  0  0  0  0
  150.3629  135.3767  155.4681 C   0  0  0  0  0  0  0  0  0  0  0  0
  151.2481  134.5617  155.7321 O   0  0  0  0  0  0  0  0  0  0  0  0
  149.1855  134.9948  154.9464 N   0  0  0  0  0  0  0  0  0  0  0  0
  148.8245  133.6165  154.6449 C   0  0  0  0  0  0  0  0  0  0  0  0
  148.9716  133.3313  153.1445 C   0  0  0  0  0  0  0  0  0  0  0  0
  147.6380  133.0357  152.4857 C   0  0  0  0  0  0  0  0  0  0  0  0
  146.9419  131.8277  152.7083 C   0  0  0  0  0  0  0  0  0  0  0  0
  145.7003  131.6207  152.0717 C   0  0  0  0  0  0  0  0  0  0  0  0
  145.1810  132.6246  151.2282 C   0  0  0  0  0  0  0  0  0  0  0  0
  145.9173  133.8124  151.0426 C   0  0  0  0  0  0  0  0  0  0  0  0
  147.1033  133.9734  151.6700 N   0  3  0  0  0  0  0  0  0  0  0  0
  151.5431  137.2908  156.5217 C   0  0  0  0  0  0  0  0  0  0  0  0
  154.0201  136.6014  159.5198 H   0  0  0  0  0  0  0  0  0  0  0  0
  152.6186  136.6995  158.4282 H   0  0  0  0  0  0  0  0  0  0  0  0
  153.1012  138.1196  159.3879 H   0  0  0  0  0  0  0  0  0  0  0  0
  153.0840  137.4194  155.0242 H   0  0  0  0  0  0  0  0  0  0  0  0
  151.4648  139.9540  155.5607 H   0  0  0  0  0  0  0  0  0  0  0  0
  152.5184  139.6763  154.1998 H   0  0  0  0  0  0  0  0  0  0  0  0
  150.0718  139.4316  153.6432 H   0  0  0  0  0  0  0  0  0  0  0  0
  150.9898  138.0031  153.2582 H   0  0  0  0  0  0  0  0  0  0  0  0
  149.2278  138.3851  155.7386 H   0  0  0  0  0  0  0  0  0  0  0  0
  148.8599  137.3785  154.3710 H   0  0  0  0  0  0  0  0  0  0  0  0
  148.5066  135.7111  154.7330 H   0  0  0  0  0  0  0  0  0  0  0  0
  149.4632  132.9385  155.2137 H   0  0  0  0  0  0  0  0  0  0  0  0
  147.7971  133.4391  154.9665 H   0  0  0  0  0  0  0  0  0  0  0  0
  149.4330  134.1835  152.6436 H   0  0  0  0  0  0  0  0  0  0  0  0
  149.6405  132.4833  152.9900 H   0  0  0  0  0  0  0  0  0  0  0  0
  147.3505  131.0694  153.3605 H   0  0  0  0  0  0  0  0  0  0  0  0
  145.1522  130.7033  152.2299 H   0  0  0  0  0  0  0  0  0  0  0  0
  144.2313  132.4860  150.7322 H   0  0  0  0  0  0  0  0  0  0  0  0
  145.5959  134.6326  150.4175 H   0  0  0  0  0  0  0  0  0  0  0  0
  152.0540  136.5252  157.1077 H   0  0  0  0  0  0  0  0  0  0  0  0
  151.0493  137.9338  157.2524 H   0  0  0  0  0  0  0  0  0  0  0  0
  147.6178  134.8421  151.5227 H   0  0  0  0  0  0  0  0  0  0  0  0
  1  2  1  0  0  0  0
  1 23  1  0  0  0  0
  1 24  1  0  0  0  0
  1 25  1  0  0  0  0
  2  3  2  0  0  0  0
  2  4  2  0  0  0  0
  2  5  1  0  0  0  0
  5  6  1  0  0  0  0
  6 22  1  0  0  0  0
  6  7  1  0  0  0  0
  6 26  1  0  0  0  0
  7  8  1  0  0  0  0
  7 27  1  0  0  0  0
  7 28  1  0  0  0  0
  8  9  1  0  0  0  0
  8 29  1  0  0  0  0
  8 30  1  0  0  0  0
  9 10  1  0  0  0  0
  9 31  1  0  0  0  0
  9 32  1  0  0  0  0
 10 11  1  0  0  0  0
 10 22  1  0  0  0  0
 11 12  2  0  0  0  0
 11 13  1  0  0  0  0
 13 14  1  0  0  0  0
 13 33  1  0  0  0  0
 14 15  1  0  0  0  0
 14 34  1  0  0  0  0
 14 35  1  0  0  0  0
 15 16  1  0  0  0  0
 15 36  1  0  0  0  0
 15 37  1  0  0  0  0
 16 21  1  0  0  0  0
 16 17  2  0  0  0  0
 17 18  1  0  0  0  0
 17 38  1  0  0  0  0
 18 19  2  0  0  0  0
 18 39  1  0  0  0  0
 19 20  1  0  0  0  0
 19 40  1  0  0  0  0
 20 21  2  0  0  0  0
 20 41  1  0  0  0  0
 21 44  1  0  0  0  0
 22 42  1  0  0  0  0
 22 43  1  0  0  0  0
M  CHG  1   5  -1
M  CHG  1  21   1
M  END
> <s_m_source_file>
AV-unprocessed.smi

> <i_m_source_file_index>
1434

> <i_lp_mmshare_version>
43012

> <i_f3d_flags>
0

> <s_epik_input>
W0NIM11TKD1PKSg9TylbTkhdW0NAQEhdMVtDSDJdW0NIMl1bQ0gyXU4oW0NIMl0xKUMoPU8pW05IXVtDSDJdW0NIMl1jMltjSF1bY0hdW2NIXVtjSF1uMg==

> <s_epik_cmdline>
J2VwaWtfcHl0aG9uJywgJy1waCcsICc3LjAnLCAnLXRuJywgJzgnLCAnLW1hJywgJzIwMCcsICctbWV0YWxfYmluZGluZycsICctaW1hZScsICc8aW5maWxlLm1hZT4nLCAnLW9tYWUnLCAnPG91dGZpbGUubWFlPic=

> <r_epik_Ionization_Penalty>
8.07847

> <r_epik_Ionization_Penalty_Charging>
8.0784

> <r_epik_Ionization_Penalty_Neutral>
6.25603e-05

> <r_epik_State_Penalty>
8.17261

> <r_epik_Charging_Adjusted_Penalty>
16.251

> <i_epik_Tot_Q>
0

> <i_epik_Tot_abs_Q>
2

> <r_epik_Metal_State_Penalty>
4.14042

> <b_epik_Metal_Only>
1

> <s_lp_Force_Field>
OPLS_2005

> <r_lp_Energy>
29.5402

> <b_lp_Chiralities_Consistent>
1

> <s_lp_Variant>
AV-unprocessed.smi:1434-7

> <Gold.Version>
5.8.1

> <Gold.Id.Protein>
6NUR|6NUR_protein|mol2

> <Gold.PLP.Fitness>
47.5987

> <Gold.PLP.PLP>
-33.2926

> <Gold.PLP.part.hbond>
-4.9586

> <Gold.PLP.part.metal>
0.0000

> <Gold.PLP.part.buried>
-1.6981

> <Gold.PLP.part.nonpolar>
-26.1648

> <Gold.PLP.part.repulsive>
0.1123

> <Gold.PLP.ligand.clash>
0.0000

> <Gold.PLP.ligand.torsion>
1.3230

> <Gold.PLP.Chemscore.Hbond>
5.3008

> <Gold.PLP.Chemscore.CHOScore>
0.0000

> <Gold.PLP.Chemscore.Metal>
0.0000

> <Gold.Chemscore.Hbonds>
donor molecule, donor type, donor heavy atom, donor atom, acceptor molecule, acceptor atom, score
      L1  H    21    44       P1  7948  2.00
      P1  H  7997  8008       L1     5  1.79
      P1  H  7997  8010       L1     3  0.58
      P1  H 10752 10763       L1     4  0.87
      P1  H 10752 10765       L1    12  0.16

> <Gold.PLP.Chemscore.Internal.Correction>
1.0498

> <Gold.Rescore>
     Score         DG    S(hbond)    S(metal)    S(lipo)     H(rot)  DE(clash)    DE(int)     intcor
     16.23     -19.04       2.80        0.00      74.45       1.77       1.16       1.65       ----

> <Gold.Chemscore.Fitness>
16.2252

> <Gold.Chemscore.DG>
-19.0360

> <Gold.Chemscore.ZeroCoef>
-5.4800

> <Gold.Chemscore.Hbond>
2.8042

> <Gold.Chemscore.Metal>
0.0000

> <Gold.Chemscore.Lipo>
74.4530

> <Gold.Chemscore.Internal_Hbond>
0.0000

> <Gold.Chemscore.DEClash>
1.1581

> <Gold.Chemscore.DEInternal>
1.6527

> <Gold.Chemscore.Rot>
1.7661

> <Gold.Chemscore.Internal.Correction>
   9.000000E+99

> <Gold.Chemscore.Hbonds>
donor molecule, donor type, donor heavy atom, donor atom, acceptor molecule, acceptor atom, score
      L1  H    21    44       P1  7948  0.34
      P1  H  7997  8008       L1     5  0.30
      P1  H  7997  8010       L1     3  0.38
      P1  H 10752 10763       L1     4  0.80
      P1  H 10752 10765       L1    12  0.03

> <Gold.Chemscore.Hbond.Weighted>
-9.3661

> <Gold.Chemscore.Metal.Weighted>
-0.0000

> <Gold.Chemscore.Lipo.Weighted>
-8.7110

> <Gold.Chemscore.Internal_Hbond.Weighted>
0.0000

> <Gold.Chemscore.DEClash.Weighted>
1.1581

> <Gold.Chemscore.DEInternal.Weighted>
1.6527

> <Gold.Chemscore.Rot.Weighted>
4.5211

> <Gold.Chemscore.Internal.Correction.Weighted>
   9.000000E+99

> <Gold.Protein.RotatedTorsions>
[ 6907 6896 6895 6894 ] final   56.31 input  -60.11 | X-H torsion
[ 7974 7965 7964 7962 ] final   61.67 input  175.53 | X-H torsion
[ 8008 7997 7996 7995 ] final  -50.97 input   59.86 | X-H torsion
[ 10167 10162 10161 10158 ] final   16.06 input  -65.29 | X-H torsion
[ 10718 10713 10712 10709 ] final   34.37 input   66.30 | X-H torsion
[ 10763 10752 10751 10750 ] final  175.69 input  -60.55 | X-H torsion
[ 11005 11000 10999 10996 ] final -145.33 input  -57.11 | X-H torsion

> <Gold.Protein.ActiveResidues>
 VAL166  LYS551  ARG553  GLY616  TRP617  ASP618  TYR619  PRO620  LYS621  CYS622 
 ASP623  PHE694  ASN695  SER759  ASP760  ASP761  ALA762  ILE779  LEU786  VAL792 
 PHE793  MET794  SER795  GLU796  ALA797  LYS798  CYS799  TRP800  GLU811  SER814 

> <Gold.Protein.RotatedAtoms>
  152.3624  134.6853  160.0202 H   0  0  0  0  0  0  0  0  0  0  0  0  # atno 6907 bound_to 6896
  151.7172  133.3308  159.3314 H   0  0  0  0  0  0  0  0  0  0  0  0  # atno 6908 bound_to 6896
  150.7614  134.6414  159.6284 H   0  0  0  0  0  0  0  0  0  0  0  0  # atno 6909 bound_to 6896
  145.8821  139.3451  143.0700 H   0  0  0  0  0  0  0  0  0  0  0  0  # atno 7974 bound_to 7965
  154.4073  140.1259  156.4752 H   0  0  0  0  0  0  0  0  0  0  0  0  # atno 8008 bound_to 7997
  155.7139  140.3493  155.4966 H   0  0  0  0  0  0  0  0  0  0  0  0  # atno 8009 bound_to 7997
  155.9275  140.1063  157.1148 H   0  0  0  0  0  0  0  0  0  0  0  0  # atno 8010 bound_to 7997
  140.5824  143.8956  150.6801 H   0  0  0  0  0  0  0  0  0  0  0  0  # atno 10167 bound_to 10162
  157.3095  130.7392  149.6716 H   0  0  0  0  0  0  0  0  0  0  0  0  # atno 10718 bound_to 10713
  154.4711  135.2771  155.1642 H   0  0  0  0  0  0  0  0  0  0  0  0  # atno 10763 bound_to 10752
  154.3391  135.6174  153.5591 H   0  0  0  0  0  0  0  0  0  0  0  0  # atno 10764 bound_to 10752
  152.9864  135.5784  154.5092 H   0  0  0  0  0  0  0  0  0  0  0  0  # atno 10765 bound_to 10752
  140.7934  134.2942  157.5005 H   0  0  0  0  0  0  0  0  0  0  0  0  # atno 11005 bound_to 11000
  145.9011  140.9242  143.0502 LP  0  0  0  0  0  0  0  0  0  0  0  0  # atno 17320 bound_to 7965
  144.6727  140.1033  143.7459 LP  0  0  0  0  0  0  0  0  0  0  0  0  # atno 17321 bound_to 7965
  140.2458  143.3630  152.1448 LP  0  0  0  0  0  0  0  0  0  0  0  0  # atno 17342 bound_to 10162
  139.5177  144.6996  151.5532 LP  0  0  0  0  0  0  0  0  0  0  0  0  # atno 17343 bound_to 10162
  155.9677  130.4256  150.4660 LP  0  0  0  0  0  0  0  0  0  0  0  0  # atno 17370 bound_to 10713
  157.2655  131.0576  151.2293 LP  0  0  0  0  0  0  0  0  0  0  0  0  # atno 17371 bound_to 10713
  139.8729  134.9388  156.3723 LP  0  0  0  0  0  0  0  0  0  0  0  0  # atno 17394 bound_to 11000
  140.9367  133.7542  156.0094 LP  0  0  0  0  0  0  0  0  0  0  0  0  # atno 17395 bound_to 11000

$$$$
