AV-unprocessed.smi:530|AV-procd|sdf|2843|dock6
  -GOLD-   2262023333D 1   1.00000     0.00000
 Structure written by MMmdl.
 35 37  0  0  0  0  0  0  0  0  1 V2000
  151.9994  138.4599  159.0653 C   0  0  0  0  0  0  0  0  0  0  0  0
  152.0508  139.9525  158.9785 C   0  0  0  0  0  0  0  0  0  0  0  0
  152.8294  140.6848  159.7753 N   0  0  0  0  0  0  0  0  0  0  0  0
  152.5653  141.9742  159.3546 C   0  0  0  0  0  0  0  0  0  0  0  0
  153.0793  143.2111  159.8057 C   0  0  0  0  0  0  0  0  0  0  0  0
  152.6534  144.4193  159.2159 C   0  0  0  0  0  0  0  0  0  0  0  0
  151.7090  144.4083  158.1689 C   0  0  0  0  0  0  0  0  0  0  0  0
  151.1857  143.1869  157.7029 C   0  0  0  0  0  0  0  0  0  0  0  0
  151.6148  141.9836  158.2942 C   0  0  0  0  0  0  0  0  0  0  0  0
  151.3071  140.6434  158.0800 N   0  0  0  0  0  0  0  0  0  0  0  0
  150.3791  140.1144  157.0896 C   0  0  0  0  0  0  0  0  0  0  0  0
  150.5721  140.7364  155.6921 C   0  0  1  0  0  0  0  0  0  0  0  0
  151.7567  140.2401  155.0985 O   0  0  0  0  0  0  0  0  0  0  0  0
  149.3501  140.5067  154.8164 C   0  0  0  0  0  0  0  0  0  0  0  0
  148.5389  141.5906  154.4137 C   0  0  0  0  0  0  0  0  0  0  0  0
  147.4145  141.3699  153.5945 C   0  0  0  0  0  0  0  0  0  0  0  0
  147.0962  140.0653  153.1712 C   0  0  0  0  0  0  0  0  0  0  0  0
  147.9039  138.9816  153.5658 C   0  0  0  0  0  0  0  0  0  0  0  0
  149.0286  139.2018  154.3847 C   0  0  0  0  0  0  0  0  0  0  0  0
  152.6681  138.0997  159.8477 H   0  0  0  0  0  0  0  0  0  0  0  0
  152.3090  138.0145  158.1198 H   0  0  0  0  0  0  0  0  0  0  0  0
  150.9885  138.1272  159.3002 H   0  0  0  0  0  0  0  0  0  0  0  0
  153.8022  143.2300  160.6078 H   0  0  0  0  0  0  0  0  0  0  0  0
  153.0523  145.3589  159.5691 H   0  0  0  0  0  0  0  0  0  0  0  0
  151.3861  145.3382  157.7238 H   0  0  0  0  0  0  0  0  0  0  0  0
  150.4598  143.1748  156.9034 H   0  0  0  0  0  0  0  0  0  0  0  0
  150.5028  139.0316  157.0427 H   0  0  0  0  0  0  0  0  0  0  0  0
  149.3607  140.2842  157.4397 H   0  0  0  0  0  0  0  0  0  0  0  0
  150.7124  141.8122  155.8004 H   0  0  0  0  0  0  0  0  0  0  0  0
  151.9193  139.3723  155.4353 H   0  0  0  0  0  0  0  0  0  0  0  0
  148.7781  142.5955  154.7295 H   0  0  0  0  0  0  0  0  0  0  0  0
  146.7970  142.2022  153.2900 H   0  0  0  0  0  0  0  0  0  0  0  0
  146.2343  139.8962  152.5428 H   0  0  0  0  0  0  0  0  0  0  0  0
  147.6619  137.9809  153.2392 H   0  0  0  0  0  0  0  0  0  0  0  0
  149.6444  138.3642  154.6785 H   0  0  0  0  0  0  0  0  0  0  0  0
  1  2  1  0  0  0  0
  1 20  1  0  0  0  0
  1 21  1  0  0  0  0
  1 22  1  0  0  0  0
  2 10  1  0  0  0  0
  2  3  2  0  0  0  0
  3  4  1  0  0  0  0
  4  9  2  0  0  0  0
  4  5  1  0  0  0  0
  5  6  2  0  0  0  0
  5 23  1  0  0  0  0
  6  7  1  0  0  0  0
  6 24  1  0  0  0  0
  7  8  2  0  0  0  0
  7 25  1  0  0  0  0
  8  9  1  0  0  0  0
  8 26  1  0  0  0  0
  9 10  1  0  0  0  0
 10 11  1  0  0  0  0
 11 12  1  0  0  0  0
 11 27  1  0  0  0  0
 11 28  1  0  0  0  0
 12 13  1  0  0  0  0
 12 14  1  0  0  0  0
 12 29  1  0  0  0  0
 13 30  1  0  0  0  0
 14 19  1  0  0  0  0
 14 15  2  0  0  0  0
 15 16  1  0  0  0  0
 15 31  1  0  0  0  0
 16 17  2  0  0  0  0
 16 32  1  0  0  0  0
 17 18  1  0  0  0  0
 17 33  1  0  0  0  0
 18 19  2  0  0  0  0
 18 34  1  0  0  0  0
 19 35  1  0  0  0  0
M  END
> <s_m_source_file>
AV-unprocessed.smi

> <i_m_source_file_index>
530

> <i_lp_mmshare_version>
43012

> <i_f3d_flags>
0

> <s_epik_input>
W2NIXTFbY0hdW2NIXVtjSF1jKGMxMiluKGMobjIpW0NIM10pW0NIMl1bQ0BIXShbT0hdKWMzW2NIXVtjSF1bY0hdW2NIXVtjSF0z

> <s_epik_cmdline>
J2VwaWtfcHl0aG9uJywgJy1waCcsICc3LjAnLCAnLXRuJywgJzgnLCAnLW1hJywgJzIwMCcsICctbWV0YWxfYmluZGluZycsICctaW1hZScsICc8aW5maWxlLm1hZT4nLCAnLW9tYWUnLCAnPG91dGZpbGUubWFlPic=

> <r_epik_Ionization_Penalty>
0.129663

> <r_epik_Ionization_Penalty_Charging>
0

> <r_epik_Ionization_Penalty_Neutral>
0.129663

> <r_epik_State_Penalty>
0.119073

> <r_epik_Charging_Adjusted_Penalty>
0.119073

> <i_epik_Tot_Q>
0

> <i_epik_Tot_abs_Q>
0

> <r_epik_Metal_State_Penalty>
0.000131867

> <b_epik_Metal_Only>
0

> <s_lp_Force_Field>
OPLS_2005

> <r_lp_Energy>
11.6979

> <b_lp_Chiralities_Consistent>
1

> <s_lp_Variant>
AV-unprocessed.smi:530-2

> <Gold.Version>
5.8.1

> <Gold.Id.Protein>
6NUR|6NUR_protein|mol2

> <Gold.PLP.Fitness>
47.8472

> <Gold.PLP.PLP>
-45.7708

> <Gold.PLP.part.hbond>
-1.0000

> <Gold.PLP.part.metal>
0.0000

> <Gold.PLP.part.buried>
-4.1154

> <Gold.PLP.part.nonpolar>
-39.5136

> <Gold.PLP.part.repulsive>
0.0000

> <Gold.PLP.ligand.clash>
0.0000

> <Gold.PLP.ligand.torsion>
0.3420

> <Gold.PLP.Chemscore.Hbond>
0.9120

> <Gold.PLP.Chemscore.CHOScore>
0.0000

> <Gold.PLP.Chemscore.Metal>
0.0000

> <Gold.Chemscore.Hbonds>
donor molecule, donor type, donor heavy atom, donor atom, acceptor molecule, acceptor atom, score
      P1  H  7989  7998       L1    13  0.88

> <Gold.PLP.Chemscore.Internal.Correction>
0.0245

> <Gold.Rescore>
     Score         DG    S(hbond)    S(metal)    S(lipo)     H(rot)  DE(clash)    DE(int)     intcor
     17.79     -18.11       0.75        0.00     123.69       1.70       0.08       0.23       ----

> <Gold.Chemscore.Fitness>
17.7950

> <Gold.Chemscore.DG>
-18.1093

> <Gold.Chemscore.ZeroCoef>
-5.4800

> <Gold.Chemscore.Hbond>
0.7524

> <Gold.Chemscore.Metal>
0.0000

> <Gold.Chemscore.Lipo>
123.6889

> <Gold.Chemscore.Internal_Hbond>
0.0000

> <Gold.Chemscore.DEClash>
0.0815

> <Gold.Chemscore.DEInternal>
0.2328

> <Gold.Chemscore.Rot>
1.7013

> <Gold.Chemscore.Internal.Correction>
   9.000000E+99

> <Gold.Chemscore.Hbonds>
donor molecule, donor type, donor heavy atom, donor atom, acceptor molecule, acceptor atom, score
      P1  H  7989  7998       L1    13  0.30

> <Gold.Chemscore.Hbond.Weighted>
-2.5130

> <Gold.Chemscore.Metal.Weighted>
-0.0000

> <Gold.Chemscore.Lipo.Weighted>
-14.4716

> <Gold.Chemscore.Internal_Hbond.Weighted>
0.0000

> <Gold.Chemscore.DEClash.Weighted>
0.0815

> <Gold.Chemscore.DEInternal.Weighted>
0.2328

> <Gold.Chemscore.Rot.Weighted>
4.3554

> <Gold.Chemscore.Internal.Correction.Weighted>
   9.000000E+99

> <Gold.Protein.RotatedTorsions>
[ 6907 6896 6895 6894 ] final -156.88 input  -60.11 | X-H torsion
[ 7974 7965 7964 7962 ] final   -2.74 input  175.53 | X-H torsion
[ 8008 7997 7996 7995 ] final  102.47 input   59.86 | X-H torsion
[ 10167 10162 10161 10158 ] final -134.79 input  -65.29 | X-H torsion
[ 10718 10713 10712 10709 ] final -103.46 input   66.30 | X-H torsion
[ 10763 10752 10751 10750 ] final   34.37 input  -60.55 | X-H torsion
[ 11005 11000 10999 10996 ] final   47.19 input  -57.11 | X-H torsion

> <Gold.Protein.ActiveResidues>
 VAL166  LYS551  ARG553  GLY616  TRP617  ASP618  TYR619  PRO620  LYS621  CYS622 
 ASP623  PHE694  ASN695  SER759  ASP760  ASP761  ALA762  ILE779  LEU786  VAL792 
 PHE793  MET794  SER795  GLU796  ALA797  LYS798  CYS799  TRP800  GLU811  SER814 

> <Gold.Protein.RotatedAtoms>
  151.2943  133.4151  159.2634 H   0  0  0  0  0  0  0  0  0  0  0  0  # atno 6907 bound_to 6896
  151.0250  134.9498  159.8090 H   0  0  0  0  0  0  0  0  0  0  0  0  # atno 6908 bound_to 6896
  152.5333  134.2905  159.9094 H   0  0  0  0  0  0  0  0  0  0  0  0  # atno 6909 bound_to 6896
  146.2400  140.1617  142.8332 H   0  0  0  0  0  0  0  0  0  0  0  0  # atno 7974 bound_to 7965
  156.1395  140.3181  155.8473 H   0  0  0  0  0  0  0  0  0  0  0  0  # atno 8008 bound_to 7997
  155.4181  140.0510  157.3044 H   0  0  0  0  0  0  0  0  0  0  0  0  # atno 8009 bound_to 7997
  154.4965  140.2112  155.9449 H   0  0  0  0  0  0  0  0  0  0  0  0  # atno 8010 bound_to 7997
  139.8844  143.6799  152.2622 H   0  0  0  0  0  0  0  0  0  0  0  0  # atno 10167 bound_to 10162
  156.0266  130.5468  150.7255 H   0  0  0  0  0  0  0  0  0  0  0  0  # atno 10718 bound_to 10713
  153.0167  135.6362  154.1657 H   0  0  0  0  0  0  0  0  0  0  0  0  # atno 10763 bound_to 10752
  154.1396  135.2835  155.3166 H   0  0  0  0  0  0  0  0  0  0  0  0  # atno 10764 bound_to 10752
  154.6134  135.5549  153.7559 H   0  0  0  0  0  0  0  0  0  0  0  0  # atno 10765 bound_to 10752
  140.1302  134.4716  155.8528 H   0  0  0  0  0  0  0  0  0  0  0  0  # atno 11005 bound_to 11000
  145.0084  140.8693  143.5239 LP  0  0  0  0  0  0  0  0  0  0  0  0  # atno 17320 bound_to 7965
  145.1646  139.2438  143.5373 LP  0  0  0  0  0  0  0  0  0  0  0  0  # atno 17321 bound_to 7965
  139.7166  144.7610  151.1024 LP  0  0  0  0  0  0  0  0  0  0  0  0  # atno 17342 bound_to 10162
  140.7738  143.5261  150.9478 LP  0  0  0  0  0  0  0  0  0  0  0  0  # atno 17343 bound_to 10162
  157.4860  131.0907  151.0481 LP  0  0  0  0  0  0  0  0  0  0  0  0  # atno 17370 bound_to 10713
  157.0901  130.5939  149.5438 LP  0  0  0  0  0  0  0  0  0  0  0  0  # atno 17371 bound_to 10713
  141.2168  133.6793  156.7054 LP  0  0  0  0  0  0  0  0  0  0  0  0  # atno 17394 bound_to 11000
  140.2852  134.8284  157.3969 LP  0  0  0  0  0  0  0  0  0  0  0  0  # atno 17395 bound_to 11000

$$$$
