AV-unprocessed.smi:1346|AV-procd|sdf|5512|dock7
  -GOLD-   22720 5 93D 1   1.00000     0.00000
 Structure written by MMmdl.
 47 48  0  0  0  0  0  0  0  0  1 V2000
  146.8490  138.9667  152.1452 C   0  0  0  0  0  0  0  0  0  0  0  0
  146.7447  139.0867  153.6387 C   0  0  0  0  0  0  0  0  0  0  0  0
  146.0506  138.1874  154.3152 N   0  0  0  0  0  0  0  0  0  0  0  0
  146.1399  138.5652  155.6581 O   0  0  0  0  0  0  0  0  0  0  0  0
  146.8906  139.6928  155.7387 C   0  0  0  0  0  0  0  0  0  0  0  0
  147.1033  140.2501  157.1057 C   0  0  0  0  0  0  0  0  0  0  0  0
  147.3069  140.0786  154.4935 C   0  0  0  0  0  0  0  0  0  0  0  0
  148.1552  141.2629  154.1038 C   0  0  0  0  0  0  0  0  0  0  0  0
  149.5067  141.1991  154.8164 C   0  0  0  0  0  0  0  0  0  0  0  0
  150.2785  140.2684  154.5867 O   0  0  0  0  0  0  0  0  0  0  0  0
  149.7829  142.1991  155.6683 N   0  0  0  0  0  0  0  0  0  0  0  0
  151.0272  142.3527  156.4136 C   0  0  0  0  0  0  0  0  0  0  0  0
  151.1446  141.2965  157.5210 C   0  0  0  0  0  0  0  0  0  0  0  0
  152.2475  141.6148  158.3563 O   0  0  0  0  0  0  0  0  0  0  0  0
  151.8897  142.0906  159.6463 C   0  0  2  0  0  0  0  0  0  0  0  0
  151.4092  143.5520  159.5213 C   0  0  0  0  0  0  0  0  0  0  0  0
  151.1373  144.1771  160.8973 C   0  0  0  0  0  0  0  0  0  0  0  0
  152.3777  144.0864  161.7969 C   0  0  0  0  0  0  0  0  0  0  0  0
  152.8563  142.6327  161.9314 C   0  0  0  0  0  0  0  0  0  0  0  0
  153.1347  141.9914  160.5568 C   0  0  1  0  0  0  0  0  0  0  0  0
  153.6037  140.5368  160.7226 C   0  0  0  0  0  0  0  0  0  0  0  0
  147.7633  139.4299  151.7734 H   0  0  0  0  0  0  0  0  0  0  0  0
  146.0064  139.4551  151.6555 H   0  0  0  0  0  0  0  0  0  0  0  0
  146.8599  137.9231  151.8295 H   0  0  0  0  0  0  0  0  0  0  0  0
  147.5730  141.2326  157.0627 H   0  0  0  0  0  0  0  0  0  0  0  0
  147.7471  139.5948  157.6924 H   0  0  0  0  0  0  0  0  0  0  0  0
  146.1549  140.3537  157.6330 H   0  0  0  0  0  0  0  0  0  0  0  0
  148.3220  141.2890  153.0264 H   0  0  0  0  0  0  0  0  0  0  0  0
  147.6694  142.2066  154.3532 H   0  0  0  0  0  0  0  0  0  0  0  0
  149.0846  142.9170  155.7953 H   0  0  0  0  0  0  0  0  0  0  0  0
  151.8487  142.2299  155.7075 H   0  0  0  0  0  0  0  0  0  0  0  0
  151.1219  143.3589  156.8250 H   0  0  0  0  0  0  0  0  0  0  0  0
  150.2132  141.2457  158.0859 H   0  0  0  0  0  0  0  0  0  0  0  0
  151.3085  140.3125  157.0798 H   0  0  0  0  0  0  0  0  0  0  0  0
  151.0960  141.4738  160.0734 H   0  0  0  0  0  0  0  0  0  0  0  0
  152.1657  144.1401  158.9998 H   0  0  0  0  0  0  0  0  0  0  0  0
  150.5060  143.6097  158.9140 H   0  0  0  0  0  0  0  0  0  0  0  0
  150.8378  145.2189  160.7800 H   0  0  0  0  0  0  0  0  0  0  0  0
  150.2999  143.6650  161.3732 H   0  0  0  0  0  0  0  0  0  0  0  0
  153.1784  144.6991  161.3806 H   0  0  0  0  0  0  0  0  0  0  0  0
  152.1540  144.4971  162.7819 H   0  0  0  0  0  0  0  0  0  0  0  0
  153.7563  142.6025  162.5466 H   0  0  0  0  0  0  0  0  0  0  0  0
  152.1014  142.0516  162.4629 H   0  0  0  0  0  0  0  0  0  0  0  0
  153.9453  142.5496  160.0853 H   0  0  0  0  0  0  0  0  0  0  0  0
  152.8275  139.9196  161.1757 H   0  0  0  0  0  0  0  0  0  0  0  0
  154.4881  140.4799  161.3581 H   0  0  0  0  0  0  0  0  0  0  0  0
  153.8640  140.0915  159.7619 H   0  0  0  0  0  0  0  0  0  0  0  0
  1  2  1  0  0  0  0
  1 22  1  0  0  0  0
  1 23  1  0  0  0  0
  1 24  1  0  0  0  0
  2  7  1  0  0  0  0
  2  3  2  0  0  0  0
  3  4  1  0  0  0  0
  4  5  1  0  0  0  0
  5  6  1  0  0  0  0
  5  7  2  0  0  0  0
  6 25  1  0  0  0  0
  6 26  1  0  0  0  0
  6 27  1  0  0  0  0
  7  8  1  0  0  0  0
  8  9  1  0  0  0  0
  8 28  1  0  0  0  0
  8 29  1  0  0  0  0
  9 10  2  0  0  0  0
  9 11  1  0  0  0  0
 11 12  1  0  0  0  0
 11 30  1  0  0  0  0
 12 13  1  0  0  0  0
 12 31  1  0  0  0  0
 12 32  1  0  0  0  0
 13 14  1  0  0  0  0
 13 33  1  0  0  0  0
 13 34  1  0  0  0  0
 14 15  1  0  0  0  0
 15 20  1  0  0  0  0
 15 16  1  0  0  0  0
 15 35  1  0  0  0  0
 16 17  1  0  0  0  0
 16 36  1  0  0  0  0
 16 37  1  0  0  0  0
 17 18  1  0  0  0  0
 17 38  1  0  0  0  0
 17 39  1  0  0  0  0
 18 19  1  0  0  0  0
 18 40  1  0  0  0  0
 18 41  1  0  0  0  0
 19 20  1  0  0  0  0
 19 42  1  0  0  0  0
 19 43  1  0  0  0  0
 20 21  1  0  0  0  0
 20 44  1  0  0  0  0
 21 45  1  0  0  0  0
 21 46  1  0  0  0  0
 21 47  1  0  0  0  0
M  END
> <s_m_source_file>
AV-unprocessed.smi

> <i_m_source_file_index>
1346

> <i_lp_mmshare_version>
43012

> <i_f3d_flags>
0

> <s_epik_input>
W0NIM11jMW5vYyhbQ0gzXSljMVtDSDJdQyg9TylbTkhdW0NIMl1bQ0gyXU9bQ0BASF0yW0NIMl1bQ0gyXVtDSDJdW0NIMl1bQ0BIXTJbQ0gzXQ==

> <s_epik_cmdline>
J2VwaWtfcHl0aG9uJywgJy1waCcsICc3LjAnLCAnLXRuJywgJzgnLCAnLW1hJywgJzIwMCcsICctbWV0YWxfYmluZGluZycsICctaW1hZScsICc8aW5maWxlLm1hZT4nLCAnLW9tYWUnLCAnPG91dGZpbGUubWFlPic=

> <r_lp_tautomer_probability>
1

> <r_epik_Ionization_Penalty>
3.26154e-08

> <r_epik_Ionization_Penalty_Charging>
0

> <r_epik_Ionization_Penalty_Neutral>
3.26154e-08

> <r_epik_State_Penalty>
-0

> <r_epik_Charging_Adjusted_Penalty>
0

> <i_epik_Tot_Q>
0

> <i_epik_Tot_abs_Q>
0

> <r_epik_Metal_State_Penalty>
-0

> <b_epik_Metal_Only>
0

> <s_lp_Force_Field>
OPLS_2005

> <r_lp_Energy>
5.71646

> <b_lp_Chiralities_Consistent>
1

> <s_lp_Variant>
AV-unprocessed.smi:1346-1

> <Gold.Version>
5.8.1

> <Gold.Id.Protein>
6NUR|6NUR_protein|mol2

> <Gold.PLP.Fitness>
46.0611

> <Gold.PLP.PLP>
-41.4823

> <Gold.PLP.part.hbond>
-2.0000

> <Gold.PLP.part.metal>
0.0000

> <Gold.PLP.part.buried>
-5.1421

> <Gold.PLP.part.nonpolar>
-33.6238

> <Gold.PLP.part.repulsive>
0.3860

> <Gold.PLP.ligand.clash>
0.0000

> <Gold.PLP.ligand.torsion>
0.5584

> <Gold.PLP.Chemscore.Hbond>
1.8640

> <Gold.PLP.Chemscore.CHOScore>
0.0000

> <Gold.PLP.Chemscore.Metal>
0.0000

> <Gold.Chemscore.Hbonds>
donor molecule, donor type, donor heavy atom, donor atom, acceptor molecule, acceptor atom, score
      L1  H    11    30       P1  8028  0.82
      P1  H  7989  7998       L1    10  1.00

> <Gold.PLP.Chemscore.Internal.Correction>
0.1036

> <Gold.Rescore>
     Score         DG    S(hbond)    S(metal)    S(lipo)     H(rot)  DE(clash)    DE(int)     intcor
     19.50     -20.58       1.70        0.00     118.37       1.74       0.55       0.52       ----

> <Gold.Chemscore.Fitness>
19.5045

> <Gold.Chemscore.DG>
-20.5798

> <Gold.Chemscore.ZeroCoef>
-5.4800

> <Gold.Chemscore.Hbond>
1.7042

> <Gold.Chemscore.Metal>
0.0000

> <Gold.Chemscore.Lipo>
118.3746

> <Gold.Chemscore.Internal_Hbond>
0.0000

> <Gold.Chemscore.DEClash>
0.5510

> <Gold.Chemscore.DEInternal>
0.5243

> <Gold.Chemscore.Rot>
1.7352

> <Gold.Chemscore.Internal.Correction>
   9.000000E+99

> <Gold.Chemscore.Hbonds>
donor molecule, donor type, donor heavy atom, donor atom, acceptor molecule, acceptor atom, score
      L1  H    11    30       P1  8028  0.81
      P1  H  7989  7998       L1    10  0.64

> <Gold.Chemscore.Hbond.Weighted>
-5.6920

> <Gold.Chemscore.Metal.Weighted>
-0.0000

> <Gold.Chemscore.Lipo.Weighted>
-13.8498

> <Gold.Chemscore.Internal_Hbond.Weighted>
0.0000

> <Gold.Chemscore.DEClash.Weighted>
0.5510

> <Gold.Chemscore.DEInternal.Weighted>
0.5243

> <Gold.Chemscore.Rot.Weighted>
4.4420

> <Gold.Chemscore.Internal.Correction.Weighted>
   9.000000E+99

> <Gold.Protein.RotatedTorsions>
[ 6907 6896 6895 6894 ] final  -53.60 input  -60.11 | X-H torsion
[ 7974 7965 7964 7962 ] final   82.17 input  175.53 | X-H torsion
[ 8008 7997 7996 7995 ] final -165.21 input   59.86 | X-H torsion
[ 10167 10162 10161 10158 ] final  177.43 input  -65.29 | X-H torsion
[ 10718 10713 10712 10709 ] final   49.70 input   66.30 | X-H torsion
[ 10763 10752 10751 10750 ] final  -30.09 input  -60.55 | X-H torsion
[ 11005 11000 10999 10996 ] final  -40.43 input  -57.11 | X-H torsion

> <Gold.Protein.ActiveResidues>
 VAL166  LYS551  ARG553  GLY616  TRP617  ASP618  TYR619  PRO620  LYS621  CYS622 
 ASP623  PHE694  ASN695  SER759  ASP760  ASP761  ALA762  ILE779  LEU786  VAL792 
 PHE793  MET794  SER795  GLU796  ALA797  LYS798  CYS799  TRP800  GLU811  SER814 

> <Gold.Protein.RotatedAtoms>
  150.8413  134.7705  159.6933 H   0  0  0  0  0  0  0  0  0  0  0  0  # atno 6907 bound_to 6896
  152.4499  134.5412  159.9849 H   0  0  0  0  0  0  0  0  0  0  0  0  # atno 6908 bound_to 6896
  151.5551  133.3373  159.2996 H   0  0  0  0  0  0  0  0  0  0  0  0  # atno 6909 bound_to 6896
  145.6285  139.2400  143.2098 H   0  0  0  0  0  0  0  0  0  0  0  0  # atno 7974 bound_to 7965
  155.8465  140.0956  157.1701 H   0  0  0  0  0  0  0  0  0  0  0  0  # atno 8008 bound_to 7997
  154.3984  140.1391  156.3854 H   0  0  0  0  0  0  0  0  0  0  0  0  # atno 8009 bound_to 7997
  155.8007  140.3453  155.5404 H   0  0  0  0  0  0  0  0  0  0  0  0  # atno 8010 bound_to 7997
  139.5253  144.2799  152.0556 H   0  0  0  0  0  0  0  0  0  0  0  0  # atno 10167 bound_to 10162
  157.4812  130.8316  149.8095 H   0  0  0  0  0  0  0  0  0  0  0  0  # atno 10718 bound_to 10713
  153.7753  135.6909  153.4898 H   0  0  0  0  0  0  0  0  0  0  0  0  # atno 10763 bound_to 10752
  153.1847  135.4493  155.0072 H   0  0  0  0  0  0  0  0  0  0  0  0  # atno 10764 bound_to 10752
  154.8102  135.3374  154.7260 H   0  0  0  0  0  0  0  0  0  0  0  0  # atno 10765 bound_to 10752
  141.0174  133.6879  156.2320 H   0  0  0  0  0  0  0  0  0  0  0  0  # atno 11005 bound_to 11000
  146.1375  140.7103  142.9383 LP  0  0  0  0  0  0  0  0  0  0  0  0  # atno 17320 bound_to 7965
  144.7203  140.4349  143.7013 LP  0  0  0  0  0  0  0  0  0  0  0  0  # atno 17321 bound_to 7965
  140.2255  144.4423  150.6323 LP  0  0  0  0  0  0  0  0  0  0  0  0  # atno 17342 bound_to 10162
  140.6390  143.2200  151.6331 LP  0  0  0  0  0  0  0  0  0  0  0  0  # atno 17343 bound_to 10162
  156.0123  130.3828  150.2225 LP  0  0  0  0  0  0  0  0  0  0  0  0  # atno 17370 bound_to 10713
  157.0411  131.0035  151.3283 LP  0  0  0  0  0  0  0  0  0  0  0  0  # atno 17371 bound_to 10713
  140.6632  134.4946  157.5584 LP  0  0  0  0  0  0  0  0  0  0  0  0  # atno 17394 bound_to 11000
  139.9125  134.8315  156.1479 LP  0  0  0  0  0  0  0  0  0  0  0  0  # atno 17395 bound_to 11000

$$$$
