AV-unprocessed.smi:1863|AV-procd|sdf|7550|dock8
  -GOLD-   22720 9263D 1   1.00000     0.00000
 Structure written by MMmdl.
 37 38  0  0  0  0  0  0  0  0  1 V2000
  151.1052  145.0114  159.0088 C   0  0  0  0  0  0  0  0  0  0  0  0
  151.0620  143.4890  158.8171 C   0  0  2  0  0  0  0  0  0  0  0  0
  152.4835  142.9084  158.6522 C   0  0  0  0  0  0  0  0  0  0  0  0
  152.9720  142.2816  159.8797 N   0  0  0  0  0  0  0  0  0  0  0  0
  153.0079  143.0254  161.1277 C   0  0  0  0  0  0  0  0  0  0  0  0
  153.3672  141.9855  162.1976 C   0  0  0  0  0  0  0  0  0  0  0  0
  153.9062  140.7731  161.4315 C   0  0  0  0  0  0  0  0  0  0  0  0
  153.4918  141.0534  159.9971 C   0  0  0  0  0  0  0  0  0  0  0  0
  153.6307  140.2331  159.0906 O   0  0  0  0  0  0  0  0  0  0  0  0
  150.2463  143.2000  157.6387 N   0  0  0  0  0  0  0  0  0  0  0  0
  149.9738  141.9778  157.1582 C   0  0  0  0  0  0  0  0  0  0  0  0
  150.3792  140.9365  157.6745 O   0  0  0  0  0  0  0  0  0  0  0  0
  149.2399  142.0524  156.0351 N   0  0  0  0  0  0  0  0  0  0  0  0
  148.7660  140.9883  155.2222 C   0  0  0  0  0  0  0  0  0  0  0  0
  147.7885  141.2821  154.2493 C   0  0  0  0  0  0  0  0  0  0  0  0
  147.2901  140.2422  153.4419 C   0  0  0  0  0  0  0  0  0  0  0  0
  147.7840  138.9395  153.6476 C   0  0  0  0  0  0  0  0  0  0  0  0
  148.7072  138.6374  154.5846 N   0  0  0  0  0  0  0  0  0  0  0  0
  149.1832  139.6405  155.3538 C   0  0  0  0  0  0  0  0  0  0  0  0
  151.6779  145.2789  159.8973 H   0  0  0  0  0  0  0  0  0  0  0  0
  150.1019  145.4210  159.1315 H   0  0  0  0  0  0  0  0  0  0  0  0
  151.5662  145.5077  158.1539 H   0  0  0  0  0  0  0  0  0  0  0  0
  150.6064  143.0657  159.7143 H   0  0  0  0  0  0  0  0  0  0  0  0
  152.5209  142.2040  157.8192 H   0  0  0  0  0  0  0  0  0  0  0  0
  153.1775  143.7096  158.3940 H   0  0  0  0  0  0  0  0  0  0  0  0
  153.7728  143.8003  161.0629 H   0  0  0  0  0  0  0  0  0  0  0  0
  152.0505  143.5051  161.3356 H   0  0  0  0  0  0  0  0  0  0  0  0
  154.0921  142.3747  162.9132 H   0  0  0  0  0  0  0  0  0  0  0  0
  152.4742  141.7005  162.7559 H   0  0  0  0  0  0  0  0  0  0  0  0
  154.9934  140.7157  161.4902 H   0  0  0  0  0  0  0  0  0  0  0  0
  153.4836  139.8351  161.7930 H   0  0  0  0  0  0  0  0  0  0  0  0
  149.8782  143.9960  157.1389 H   0  0  0  0  0  0  0  0  0  0  0  0
  149.0607  142.9812  155.6825 H   0  0  0  0  0  0  0  0  0  0  0  0
  147.4273  142.2917  154.1170 H   0  0  0  0  0  0  0  0  0  0  0  0
  146.5471  140.4383  152.6833 H   0  0  0  0  0  0  0  0  0  0  0  0
  147.4241  138.1171  153.0472 H   0  0  0  0  0  0  0  0  0  0  0  0
  149.8984  139.3346  156.1013 H   0  0  0  0  0  0  0  0  0  0  0  0
  1  2  1  0  0  0  0
  1 20  1  0  0  0  0
  1 21  1  0  0  0  0
  1 22  1  0  0  0  0
  2  3  1  0  0  0  0
  2 10  1  0  0  0  0
  2 23  1  0  0  0  0
  3  4  1  0  0  0  0
  3 24  1  0  0  0  0
  3 25  1  0  0  0  0
  4  8  1  0  0  0  0
  4  5  1  0  0  0  0
  5  6  1  0  0  0  0
  5 26  1  0  0  0  0
  5 27  1  0  0  0  0
  6  7  1  0  0  0  0
  6 28  1  0  0  0  0
  6 29  1  0  0  0  0
  7  8  1  0  0  0  0
  7 30  1  0  0  0  0
  7 31  1  0  0  0  0
  8  9  2  0  0  0  0
 10 11  1  0  0  0  0
 10 32  1  0  0  0  0
 11 12  2  0  0  0  0
 11 13  1  0  0  0  0
 13 14  1  0  0  0  0
 13 33  1  0  0  0  0
 14 19  1  0  0  0  0
 14 15  2  0  0  0  0
 15 16  1  0  0  0  0
 15 34  1  0  0  0  0
 16 17  2  0  0  0  0
 16 35  1  0  0  0  0
 17 18  1  0  0  0  0
 17 36  1  0  0  0  0
 18 19  2  0  0  0  0
 19 37  1  0  0  0  0
M  END
> <s_m_source_file>
AV-unprocessed.smi

> <i_m_source_file_index>
1863

> <i_lp_mmshare_version>
43012

> <i_f3d_flags>
0

> <s_epik_input>
Tz1DMVtDSDJdW0NIMl1bQ0gyXU4xW0NIMl1bQ0BASF0oW0NIM10pW05IXUMoPU8pW05IXWMyW2NIXVtjSF1bY0hdbltjSF0y

> <s_epik_cmdline>
J2VwaWtfcHl0aG9uJywgJy1waCcsICc3LjAnLCAnLXRuJywgJzgnLCAnLW1hJywgJzIwMCcsICctbWV0YWxfYmluZGluZycsICctaW1hZScsICc8aW5maWxlLm1hZT4nLCAnLW9tYWUnLCAnPG91dGZpbGUubWFlPic=

> <r_epik_Ionization_Penalty>
0.0047799

> <r_epik_Ionization_Penalty_Charging>
0

> <r_epik_Ionization_Penalty_Neutral>
0.0047799

> <r_epik_State_Penalty>
0.0034394

> <r_epik_Charging_Adjusted_Penalty>
0.0034394

> <i_epik_Tot_Q>
0

> <i_epik_Tot_abs_Q>
0

> <r_epik_Metal_State_Penalty>
-0

> <b_epik_Metal_Only>
0

> <s_lp_Force_Field>
OPLS_2005

> <r_lp_Energy>
22.2943

> <b_lp_Chiralities_Consistent>
1

> <s_lp_Variant>
AV-unprocessed.smi:1863-1

> <Gold.Version>
5.8.1

> <Gold.Id.Protein>
6NUR|6NUR_protein|mol2

> <Gold.PLP.Fitness>
50.5942

> <Gold.PLP.PLP>
-40.4029

> <Gold.PLP.part.hbond>
-3.0000

> <Gold.PLP.part.metal>
0.0000

> <Gold.PLP.part.buried>
-2.1720

> <Gold.PLP.part.nonpolar>
-35.1379

> <Gold.PLP.part.repulsive>
0.3225

> <Gold.PLP.ligand.clash>
0.0000

> <Gold.PLP.ligand.torsion>
0.6745

> <Gold.PLP.Chemscore.Hbond>
2.8406

> <Gold.PLP.Chemscore.CHOScore>
1.0000

> <Gold.PLP.Chemscore.Metal>
0.0000

> <Gold.Chemscore.Hbonds>
donor molecule, donor type, donor heavy atom, donor atom, acceptor molecule, acceptor atom, score
      L1  H    10    32       P1  8028  1.00
      L1  H    13    33       P1  8028  1.00
      P1  H  7997  8008       L1     9  0.48
      L1  C    17    36       P1  7948  0.55

> <Gold.PLP.Chemscore.Internal.Correction>
0.0186

> <Gold.Rescore>
     Score         DG    S(hbond)    S(metal)    S(lipo)     H(rot)  DE(clash)    DE(int)     intcor
     19.80     -21.86       2.82        0.00      93.35       1.54       0.09       1.97       ----

> <Gold.Chemscore.Fitness>
19.7995

> <Gold.Chemscore.DG>
-21.8561

> <Gold.Chemscore.ZeroCoef>
-5.4800

> <Gold.Chemscore.Hbond>
2.8154

> <Gold.Chemscore.Metal>
0.0000

> <Gold.Chemscore.Lipo>
93.3524

> <Gold.Chemscore.Internal_Hbond>
0.0000

> <Gold.Chemscore.DEClash>
0.0859

> <Gold.Chemscore.DEInternal>
1.9708

> <Gold.Chemscore.Rot>
1.5428

> <Gold.Chemscore.Internal.Correction>
   9.000000E+99

> <Gold.Chemscore.Hbonds>
donor molecule, donor type, donor heavy atom, donor atom, acceptor molecule, acceptor atom, score
      L1  H    10    32       P1  8028  0.78
      L1  H    13    33       P1  8028  1.00
      P1  H  7997  8008       L1     9  0.47

> <Gold.Chemscore.Hbond.Weighted>
-9.4036

> <Gold.Chemscore.Metal.Weighted>
-0.0000

> <Gold.Chemscore.Lipo.Weighted>
-10.9222

> <Gold.Chemscore.Internal_Hbond.Weighted>
0.0000

> <Gold.Chemscore.DEClash.Weighted>
0.0859

> <Gold.Chemscore.DEInternal.Weighted>
1.9708

> <Gold.Chemscore.Rot.Weighted>
3.9497

> <Gold.Chemscore.Internal.Correction.Weighted>
   9.000000E+99

> <Gold.Protein.RotatedTorsions>
[ 6907 6896 6895 6894 ] final   27.14 input  -60.11 | X-H torsion
[ 7974 7965 7964 7962 ] final  -68.01 input  175.53 | X-H torsion
[ 8008 7997 7996 7995 ] final  -97.61 input   59.86 | X-H torsion
[ 10167 10162 10161 10158 ] final   33.06 input  -65.29 | X-H torsion
[ 10718 10713 10712 10709 ] final  -94.87 input   66.30 | X-H torsion
[ 10763 10752 10751 10750 ] final   71.34 input  -60.55 | X-H torsion
[ 11005 11000 10999 10996 ] final   48.77 input  -57.11 | X-H torsion

> <Gold.Protein.ActiveResidues>
 VAL166  LYS551  ARG553  GLY616  TRP617  ASP618  TYR619  PRO620  LYS621  CYS622 
 ASP623  PHE694  ASN695  SER759  ASP760  ASP761  ALA762  ILE779  LEU786  VAL792 
 PHE793  MET794  SER795  GLU796  ALA797  LYS798  CYS799  TRP800  GLU811  SER814 

> <Gold.Protein.RotatedAtoms>
  151.9979  134.9944  160.0563 H   0  0  0  0  0  0  0  0  0  0  0  0  # atno 6907 bound_to 6896
  152.1547  133.4539  159.4839 H   0  0  0  0  0  0  0  0  0  0  0  0  # atno 6908 bound_to 6896
  150.6880  134.2064  159.4385 H   0  0  0  0  0  0  0  0  0  0  0  0  # atno 6909 bound_to 6896
  145.7219  140.9035  143.0625 H   0  0  0  0  0  0  0  0  0  0  0  0  # atno 7974 bound_to 7965
  154.7901  140.0461  157.1194 H   0  0  0  0  0  0  0  0  0  0  0  0  # atno 8008 bound_to 7997
  154.9601  140.3076  155.5015 H   0  0  0  0  0  0  0  0  0  0  0  0  # atno 8009 bound_to 7997
  156.2948  140.2272  156.4686 H   0  0  0  0  0  0  0  0  0  0  0  0  # atno 8010 bound_to 7997
  140.4442  144.1143  150.6179 H   0  0  0  0  0  0  0  0  0  0  0  0  # atno 10167 bound_to 10162
  156.0034  130.5085  150.5991 H   0  0  0  0  0  0  0  0  0  0  0  0  # atno 10718 bound_to 10713
  153.0393  135.5140  154.7578 H   0  0  0  0  0  0  0  0  0  0  0  0  # atno 10763 bound_to 10752
  154.6529  135.2927  154.9967 H   0  0  0  0  0  0  0  0  0  0  0  0  # atno 10764 bound_to 10752
  154.0845  135.6659  153.4895 H   0  0  0  0  0  0  0  0  0  0  0  0  # atno 10765 bound_to 10752
  140.1161  134.4890  155.8636 H   0  0  0  0  0  0  0  0  0  0  0  0  # atno 11005 bound_to 11000
  144.6914  139.9214  143.7468 LP  0  0  0  0  0  0  0  0  0  0  0  0  # atno 17320 bound_to 7965
  146.0618  139.3611  143.0577 LP  0  0  0  0  0  0  0  0  0  0  0  0  # atno 17321 bound_to 7965
  140.4283  143.2580  151.9628 LP  0  0  0  0  0  0  0  0  0  0  0  0  # atno 17342 bound_to 10162
  139.4791  144.5768  151.7999 LP  0  0  0  0  0  0  0  0  0  0  0  0  # atno 17343 bound_to 10162
  157.3843  131.0786  151.1449 LP  0  0  0  0  0  0  0  0  0  0  0  0  # atno 17370 bound_to 10713
  157.2161  130.6460  149.5793 LP  0  0  0  0  0  0  0  0  0  0  0  0  # atno 17371 bound_to 10713
  141.2141  133.6744  156.6799 LP  0  0  0  0  0  0  0  0  0  0  0  0  # atno 17394 bound_to 11000
  140.3026  134.8151  157.4110 LP  0  0  0  0  0  0  0  0  0  0  0  0  # atno 17395 bound_to 11000

$$$$
