AV-unprocessed.smi:36|AV-procd|sdf|296|dock7
  -GOLD-   2262016 93D 1   1.00000     0.00000
 Structure written by MMmdl.
 63 66  0  0  0  0  0  0  0  0  2 V2000
  147.6373  133.2113  161.7845 C   0  0  0  0  0  0  0  0  0  0  0  0
  146.6626  134.3798  161.5610 C   0  0  0  0  0  0  0  0  0  0  0  0
  145.2204  133.9140  161.8208 C   0  0  0  0  0  0  0  0  0  0  0  0
  147.0113  135.5395  162.5087 C   0  0  0  0  0  0  0  0  0  0  0  0
  146.8049  134.9900  159.7558 Si  0  0  0  0  0  0  0  0  0  0  0  0
  145.3585  136.1400  159.3123 C   0  0  0  0  0  0  0  0  0  0  0  0
  148.4519  135.8917  159.4648 C   0  0  0  0  0  0  0  0  0  0  0  0
  146.7623  133.6343  158.7420 O   0  0  0  0  0  0  0  0  0  0  0  0
  147.7486  132.6223  158.7311 C   0  0  0  0  0  0  0  0  0  0  0  0
  148.0845  132.2551  157.2767 C   0  0  1  0  0  0  0  0  0  0  0  0
  147.9359  133.3729  156.4023 O   0  0  0  0  0  0  0  0  0  0  0  0
  148.9265  133.3744  155.4175 C   0  0  1  0  0  0  0  0  0  0  0  0
  149.8137  134.5574  155.6461 N   0  0  0  0  0  0  0  0  0  0  0  0
  151.1366  134.6018  155.9097 C   0  0  0  0  0  0  0  0  0  0  0  0
  151.6896  135.8019  156.0766 N   0  0  0  0  0  0  0  0  0  0  0  0
  150.5986  136.6400  155.8994 C   0  0  0  0  0  0  0  0  0  0  0  0
  150.4584  138.0549  155.9333 C   0  0  0  0  0  0  0  0  0  0  0  0
  151.4849  138.8820  156.1835 N   0  5  0  0  0  0  0  0  0  0  0  0
  151.3208  140.2235  156.0592 C   0  0  0  0  0  0  0  0  0  0  0  0
  150.8302  140.8415  155.1119 O   0  0  0  0  0  0  0  0  0  0  0  0
  151.7438  140.9897  157.2843 C   0  0  0  0  0  0  0  0  0  0  0  0
  152.4474  140.3270  158.3162 C   0  0  0  0  0  0  0  0  0  0  0  0
  152.8339  141.0200  159.4799 C   0  0  0  0  0  0  0  0  0  0  0  0
  152.5121  142.3821  159.6292 C   0  0  0  0  0  0  0  0  0  0  0  0
  151.7991  143.0493  158.6156 C   0  0  0  0  0  0  0  0  0  0  0  0
  151.4123  142.3569  157.4515 C   0  0  0  0  0  0  0  0  0  0  0  0
  149.2136  138.5542  155.7218 N   0  0  0  0  0  0  0  0  0  0  0  0
  148.1861  137.7313  155.4809 C   0  0  0  0  0  0  0  0  0  0  0  0
  148.1757  136.3964  155.4129 N   0  0  0  0  0  0  0  0  0  0  0  0
  149.4211  135.8834  155.6327 C   0  0  0  0  0  0  0  0  0  0  0  0
  149.7278  132.0789  155.5734 C   0  0  0  0  0  0  0  0  0  0  0  0
  149.4991  131.7126  157.0277 C   0  0  1  0  0  0  0  0  0  0  0  0
  150.4715  132.3081  157.8667 O   0  0  0  0  0  0  0  0  0  0  0  0
  147.5814  132.8392  162.8080 H   0  0  0  0  0  0  0  0  0  0  0  0
  148.6687  133.5130  161.6013 H   0  0  0  0  0  0  0  0  0  0  0  0
  147.4154  132.3763  161.1194 H   0  0  0  0  0  0  0  0  0  0  0  0
  144.9445  133.0883  161.1646 H   0  0  0  0  0  0  0  0  0  0  0  0
  144.5072  134.7213  161.6510 H   0  0  0  0  0  0  0  0  0  0  0  0
  145.0928  133.5726  162.8486 H   0  0  0  0  0  0  0  0  0  0  0  0
  146.9224  135.2394  163.5534 H   0  0  0  0  0  0  0  0  0  0  0  0
  146.3477  136.3910  162.3526 H   0  0  0  0  0  0  0  0  0  0  0  0
  148.0331  135.8867  162.3535 H   0  0  0  0  0  0  0  0  0  0  0  0
  145.3246  137.0120  159.9646 H   0  0  0  0  0  0  0  0  0  0  0  0
  144.3992  135.6306  159.3995 H   0  0  0  0  0  0  0  0  0  0  0  0
  145.4379  136.5062  158.2895 H   0  0  0  0  0  0  0  0  0  0  0  0
  148.5515  136.7635  160.1111 H   0  0  0  0  0  0  0  0  0  0  0  0
  148.5400  136.2396  158.4359 H   0  0  0  0  0  0  0  0  0  0  0  0
  149.3045  135.2419  159.6607 H   0  0  0  0  0  0  0  0  0  0  0  0
  148.6383  132.9336  159.2791 H   0  0  0  0  0  0  0  0  0  0  0  0
  147.3368  131.7570  159.2508 H   0  0  0  0  0  0  0  0  0  0  0  0
  147.3808  131.4954  156.9326 H   0  0  0  0  0  0  0  0  0  0  0  0
  148.5112  133.5285  154.4208 H   0  0  0  0  0  0  0  0  0  0  0  0
  151.7326  133.7048  155.9797 H   0  0  0  0  0  0  0  0  0  0  0  0
  152.7014  139.2812  158.2179 H   0  0  0  0  0  0  0  0  0  0  0  0
  153.3767  140.5048  160.2586 H   0  0  0  0  0  0  0  0  0  0  0  0
  152.8081  142.9134  160.5216 H   0  0  0  0  0  0  0  0  0  0  0  0
  151.5457  144.0928  158.7310 H   0  0  0  0  0  0  0  0  0  0  0  0
  150.8567  142.8854  156.6900 H   0  0  0  0  0  0  0  0  0  0  0  0
  147.2331  138.2130  155.3209 H   0  0  0  0  0  0  0  0  0  0  0  0
  149.2785  131.3260  154.9248 H   0  0  0  0  0  0  0  0  0  0  0  0
  150.7751  132.1979  155.2912 H   0  0  0  0  0  0  0  0  0  0  0  0
  149.5436  130.6338  157.1797 H   0  0  0  0  0  0  0  0  0  0  0  0
  151.3291  132.0503  157.5647 H   0  0  0  0  0  0  0  0  0  0  0  0
  1  2  1  0  0  0  0
  1 34  1  0  0  0  0
  1 35  1  0  0  0  0
  1 36  1  0  0  0  0
  2  3  1  0  0  0  0
  2  4  1  0  0  0  0
  2  5  1  0  0  0  0
  3 37  1  0  0  0  0
  3 38  1  0  0  0  0
  3 39  1  0  0  0  0
  4 40  1  0  0  0  0
  4 41  1  0  0  0  0
  4 42  1  0  0  0  0
  5  6  1  0  0  0  0
  5  7  1  0  0  0  0
  5  8  1  0  0  0  0
  6 43  1  0  0  0  0
  6 44  1  0  0  0  0
  6 45  1  0  0  0  0
  7 46  1  0  0  0  0
  7 47  1  0  0  0  0
  7 48  1  0  0  0  0
  8  9  1  0  0  0  0
  9 10  1  0  0  0  0
  9 49  1  0  0  0  0
  9 50  1  0  0  0  0
 10 32  1  0  0  0  0
 10 11  1  0  0  0  0
 10 51  1  0  0  0  0
 11 12  1  0  0  0  0
 12 13  1  0  0  0  0
 12 31  1  0  0  0  0
 12 52  1  0  0  0  0
 13 30  1  0  0  0  0
 13 14  1  0  0  0  0
 14 15  2  0  0  0  0
 14 53  1  0  0  0  0
 15 16  1  0  0  0  0
 16 30  2  0  0  0  0
 16 17  1  0  0  0  0
 17 18  1  0  0  0  0
 17 27  2  0  0  0  0
 18 19  1  0  0  0  0
 19 20  2  0  0  0  0
 19 21  1  0  0  0  0
 21 26  1  0  0  0  0
 21 22  2  0  0  0  0
 22 23  1  0  0  0  0
 22 54  1  0  0  0  0
 23 24  2  0  0  0  0
 23 55  1  0  0  0  0
 24 25  1  0  0  0  0
 24 56  1  0  0  0  0
 25 26  2  0  0  0  0
 25 57  1  0  0  0  0
 26 58  1  0  0  0  0
 27 28  1  0  0  0  0
 28 29  2  0  0  0  0
 28 59  1  0  0  0  0
 29 30  1  0  0  0  0
 31 32  1  0  0  0  0
 31 60  1  0  0  0  0
 31 61  1  0  0  0  0
 32 33  1  0  0  0  0
 32 62  1  0  0  0  0
 33 63  1  0  0  0  0
M  CHG  1  18  -1
M  END
> <s_m_source_file>
AV-unprocessed.smi

> <i_m_source_file_index>
36

> <i_lp_mmshare_version>
43012

> <i_f3d_flags>
0

> <s_epik_input>
W0NIM11DKFtDSDNdKShbQ0gzXSlbU2ldKFtDSDNdKShbQ0gzXSlPW0NIMl1bQ0BASF0xT1tDQEhdKFtDSDJdW0NASF0xW09IXSluKFtjSF1uMiljKGMyMyluW2NIXW5jM1tOSF1DKD1PKWM0W2NIXVtjSF1bY0hdW2NIXVtjSF00

> <s_epik_cmdline>
J2VwaWtfcHl0aG9uJywgJy1waCcsICc3LjAnLCAnLXRuJywgJzgnLCAnLW1hJywgJzIwMCcsICctbWV0YWxfYmluZGluZycsICctaW1hZScsICc8aW5maWxlLm1hZT4nLCAnLW9tYWUnLCAnPG91dGZpbGUubWFlPic=

> <r_lp_tautomer_probability>
1

> <r_epik_Ionization_Penalty>
4.75685

> <r_epik_Ionization_Penalty_Charging>
3.55822

> <r_epik_Ionization_Penalty_Neutral>
1.19863

> <r_epik_State_Penalty>
3.564

> <r_epik_Charging_Adjusted_Penalty>
7.12222

> <i_epik_Tot_Q>
-1

> <i_epik_Tot_abs_Q>
1

> <r_epik_Metal_State_Penalty>
0.523258

> <b_epik_Metal_Only>
1

> <s_epik_Chemistry_Notes>
This compound contains an acetal/aminal-like group ( X-CH(R)-Y where X, Y are N, S, or O) that may be acid/base labile, releasing an aldehyde.

> <s_lp_Force_Field>
OPLS_2005

> <r_lp_Energy>
35.5948

> <b_lp_Chiralities_Consistent>
1

> <s_lp_Variant>
AV-unprocessed.smi:36-18

> <Gold.Version>
5.8.1

> <Gold.Id.Protein>
6NUR|6NUR_protein|mol2

> <Gold.PLP.Fitness>
50.0477

> <Gold.PLP.PLP>
-44.6637

> <Gold.PLP.part.hbond>
-3.0000

> <Gold.PLP.part.metal>
0.0000

> <Gold.PLP.part.buried>
-5.3967

> <Gold.PLP.part.nonpolar>
-35.6020

> <Gold.PLP.part.repulsive>
0.1549

> <Gold.PLP.ligand.clash>
0.0000

> <Gold.PLP.ligand.torsion>
1.5195

> <Gold.PLP.Chemscore.Hbond>
2.7340

> <Gold.PLP.Chemscore.CHOScore>
0.0000

> <Gold.PLP.Chemscore.Metal>
0.0000

> <Gold.Chemscore.Hbonds>
donor molecule, donor type, donor heavy atom, donor atom, acceptor molecule, acceptor atom, score
      P1  H  6896  6909       L1    33  0.85
      P1  H  7989  7998       L1    20  0.80
      P1  H 10752 10764       L1    15  0.80

> <Gold.PLP.Chemscore.Internal.Correction>
0.2211

> <Gold.Rescore>
     Score         DG    S(hbond)    S(metal)    S(lipo)     H(rot)  DE(clash)    DE(int)     intcor
     15.44     -18.39       2.09        0.00     109.20       2.67       0.09       2.86       ----

> <Gold.Chemscore.Fitness>
15.4411

> <Gold.Chemscore.DG>
-18.3924

> <Gold.Chemscore.ZeroCoef>
-5.4800

> <Gold.Chemscore.Hbond>
2.0872

> <Gold.Chemscore.Metal>
0.0000

> <Gold.Chemscore.Lipo>
109.2043

> <Gold.Chemscore.Internal_Hbond>
0.0000

> <Gold.Chemscore.DEClash>
0.0884

> <Gold.Chemscore.DEInternal>
2.8629

> <Gold.Chemscore.Rot>
2.6702

> <Gold.Chemscore.Internal.Correction>
   9.000000E+99

> <Gold.Chemscore.Hbonds>
donor molecule, donor type, donor heavy atom, donor atom, acceptor molecule, acceptor atom, score
      P1  H  6896  6909       L1    33  0.15
      P1  H  7989  7998       L1    20  0.79
      P1  H 10752 10764       L1    15  0.12

> <Gold.Chemscore.Hbond.Weighted>
-6.9713

> <Gold.Chemscore.Metal.Weighted>
-0.0000

> <Gold.Chemscore.Lipo.Weighted>
-12.7769

> <Gold.Chemscore.Internal_Hbond.Weighted>
0.0000

> <Gold.Chemscore.DEClash.Weighted>
0.0884

> <Gold.Chemscore.DEInternal.Weighted>
2.8629

> <Gold.Chemscore.Rot.Weighted>
6.8358

> <Gold.Chemscore.Internal.Correction.Weighted>
   9.000000E+99

> <Gold.Protein.RotatedTorsions>
[ 6907 6896 6895 6894 ] final  -21.32 input  -60.11 | X-H torsion
[ 7974 7965 7964 7962 ] final -140.38 input  175.53 | X-H torsion
[ 8008 7997 7996 7995 ] final -130.08 input   59.86 | X-H torsion
[ 10167 10162 10161 10158 ] final  -11.98 input  -65.29 | X-H torsion
[ 10718 10713 10712 10709 ] final   63.06 input   66.30 | X-H torsion
[ 10763 10752 10751 10750 ] final  -24.13 input  -60.55 | X-H torsion
[ 11005 11000 10999 10996 ] final   80.48 input  -57.11 | X-H torsion

> <Gold.Protein.ActiveResidues>
 VAL166  LYS551  ARG553  GLY616  TRP617  ASP618  TYR619  PRO620  LYS621  CYS622 
 ASP623  PHE694  ASN695  SER759  ASP760  ASP761  ALA762  ILE779  LEU786  VAL792 
 PHE793  MET794  SER795  GLU796  ALA797  LYS798  CYS799  TRP800  GLU811  SER814 

> <Gold.Protein.RotatedAtoms>
  151.2351  135.0568  159.9002 H   0  0  0  0  0  0  0  0  0  0  0  0  # atno 6907 bound_to 6896
  152.5400  134.0495  159.8114 H   0  0  0  0  0  0  0  0  0  0  0  0  # atno 6908 bound_to 6896
  151.0680  133.5440  159.2660 H   0  0  0  0  0  0  0  0  0  0  0  0  # atno 6909 bound_to 6896
  144.8602  140.6206  143.5333 H   0  0  0  0  0  0  0  0  0  0  0  0  # atno 7974 bound_to 7965
  155.2898  140.0448  157.3022 H   0  0  0  0  0  0  0  0  0  0  0  0  # atno 8008 bound_to 7997
  154.5548  140.2328  155.8396 H   0  0  0  0  0  0  0  0  0  0  0  0  # atno 8009 bound_to 7997
  156.1997  140.3029  155.9509 H   0  0  0  0  0  0  0  0  0  0  0  0  # atno 8010 bound_to 7997
  140.7151  143.5581  150.9226 H   0  0  0  0  0  0  0  0  0  0  0  0  # atno 10167 bound_to 10162
  157.5944  130.9084  149.9667 H   0  0  0  0  0  0  0  0  0  0  0  0  # atno 10718 bound_to 10713
  153.6789  135.6968  153.5124 H   0  0  0  0  0  0  0  0  0  0  0  0  # atno 10763 bound_to 10752
  153.2500  135.4278  155.0786 H   0  0  0  0  0  0  0  0  0  0  0  0  # atno 10764 bound_to 10752
  154.8405  135.3529  154.6333 H   0  0  0  0  0  0  0  0  0  0  0  0  # atno 10765 bound_to 10752
  139.9133  134.7923  156.1914 H   0  0  0  0  0  0  0  0  0  0  0  0  # atno 11005 bound_to 11000
  145.4328  139.1546  143.4013 LP  0  0  0  0  0  0  0  0  0  0  0  0  # atno 17320 bound_to 7965
  146.2854  140.4445  142.8760 LP  0  0  0  0  0  0  0  0  0  0  0  0  # atno 17321 bound_to 7965
  139.9306  143.6498  152.3077 LP  0  0  0  0  0  0  0  0  0  0  0  0  # atno 17342 bound_to 10162
  139.6947  144.7643  151.1377 LP  0  0  0  0  0  0  0  0  0  0  0  0  # atno 17343 bound_to 10162
  156.1005  130.3656  150.0228 LP  0  0  0  0  0  0  0  0  0  0  0  0  # atno 17370 bound_to 10713
  156.8344  130.9403  151.3635 LP  0  0  0  0  0  0  0  0  0  0  0  0  # atno 17371 bound_to 10713
  141.0581  133.6855  156.1899 LP  0  0  0  0  0  0  0  0  0  0  0  0  # atno 17394 bound_to 11000
  140.6705  134.4873  157.5587 LP  0  0  0  0  0  0  0  0  0  0  0  0  # atno 17395 bound_to 11000

$$$$
