AV-unprocessed.smi:3143|AV-procd|sdf|11977|dock6
  -GOLD-   2272017373D 1   1.00000     0.00000
 Structure written by MMmdl.
 37 38  0  0  0  0  0  0  0  0  1 V2000
  151.4419  139.0585  157.1131 C   0  0  0  0  0  0  0  0  0  0  0  0
  150.5776  140.3281  157.1530 C   0  0  1  0  0  0  0  0  0  0  0  0
  151.3415  141.4268  157.7732 N   0  0  0  0  0  0  0  0  0  0  0  0
  152.0180  141.0399  159.0066 C   0  0  0  0  0  0  0  0  0  0  0  0
  153.1067  142.0718  159.3346 C   0  0  0  0  0  0  0  0  0  0  0  0
  152.5403  143.3807  159.5964 N   0  0  0  0  0  0  0  0  0  0  0  0
  152.5139  144.4843  158.7698 C   0  0  0  0  0  0  0  0  0  0  0  0
  151.8784  145.4845  159.4481 C   0  0  0  0  0  0  0  0  0  0  0  0
  151.5483  144.8888  160.6977 C   0  0  0  0  0  0  0  0  0  0  0  0
  151.9454  143.6294  160.7830 N   0  0  0  0  0  0  0  0  0  0  0  0
  150.0696  140.6591  155.7310 C   0  0  0  0  0  0  0  0  0  0  0  0
  150.8027  140.4187  154.7701 O   0  0  0  0  0  0  0  0  0  0  0  0
  148.8431  141.2023  155.5694 N   0  0  0  0  0  0  0  0  0  0  0  0
  148.3009  141.5734  154.2630 C   0  0  0  0  0  0  0  0  0  0  0  0
  147.0281  142.3692  154.5501 C   0  0  0  0  0  0  0  0  0  0  0  0
  146.5732  141.8596  155.9098 C   0  0  0  0  0  0  0  0  0  0  0  0
  147.8736  141.4934  156.6257 C   0  0  0  0  0  0  0  0  0  0  0  0
  150.8900  138.2156  156.6949 H   0  0  0  0  0  0  0  0  0  0  0  0
  151.7627  138.7714  158.1149 H   0  0  0  0  0  0  0  0  0  0  0  0
  152.3380  139.2020  156.5075 H   0  0  0  0  0  0  0  0  0  0  0  0
  149.7370  140.1236  157.8145 H   0  0  0  0  0  0  0  0  0  0  0  0
  152.0180  141.8113  157.1297 H   0  0  0  0  0  0  0  0  0  0  0  0
  151.3125  140.9764  159.8358 H   0  0  0  0  0  0  0  0  0  0  0  0
  152.4676  140.0535  158.8834 H   0  0  0  0  0  0  0  0  0  0  0  0
  153.6767  141.7611  160.2116 H   0  0  0  0  0  0  0  0  0  0  0  0
  153.8157  142.1580  158.5095 H   0  0  0  0  0  0  0  0  0  0  0  0
  152.9452  144.4665  157.7797 H   0  0  0  0  0  0  0  0  0  0  0  0
  151.6794  146.4887  159.1043 H   0  0  0  0  0  0  0  0  0  0  0  0
  151.0348  145.3304  161.5389 H   0  0  0  0  0  0  0  0  0  0  0  0
  149.0092  142.1592  153.6747 H   0  0  0  0  0  0  0  0  0  0  0  0
  148.0670  140.6651  153.7056 H   0  0  0  0  0  0  0  0  0  0  0  0
  147.2687  143.4309  154.6203 H   0  0  0  0  0  0  0  0  0  0  0  0
  146.2697  142.2485  153.7762 H   0  0  0  0  0  0  0  0  0  0  0  0
  145.9787  142.5903  156.4590 H   0  0  0  0  0  0  0  0  0  0  0  0
  145.9636  140.9648  155.7778 H   0  0  0  0  0  0  0  0  0  0  0  0
  147.7239  140.6441  157.2938 H   0  0  0  0  0  0  0  0  0  0  0  0
  148.2323  142.3378  157.2162 H   0  0  0  0  0  0  0  0  0  0  0  0
  1  2  1  0  0  0  0
  1 18  1  0  0  0  0
  1 19  1  0  0  0  0
  1 20  1  0  0  0  0
  2  3  1  0  0  0  0
  2 11  1  0  0  0  0
  2 21  1  0  0  0  0
  3  4  1  0  0  0  0
  3 22  1  0  0  0  0
  4  5  1  0  0  0  0
  4 23  1  0  0  0  0
  4 24  1  0  0  0  0
  5  6  1  0  0  0  0
  5 25  1  0  0  0  0
  5 26  1  0  0  0  0
  6 10  1  0  0  0  0
  6  7  1  0  0  0  0
  7  8  2  0  0  0  0
  7 27  1  0  0  0  0
  8  9  1  0  0  0  0
  8 28  1  0  0  0  0
  9 10  2  0  0  0  0
  9 29  1  0  0  0  0
 11 12  2  0  0  0  0
 11 13  1  0  0  0  0
 13 17  1  0  0  0  0
 13 14  1  0  0  0  0
 14 15  1  0  0  0  0
 14 30  1  0  0  0  0
 14 31  1  0  0  0  0
 15 16  1  0  0  0  0
 15 32  1  0  0  0  0
 15 33  1  0  0  0  0
 16 17  1  0  0  0  0
 16 34  1  0  0  0  0
 16 35  1  0  0  0  0
 17 36  1  0  0  0  0
 17 37  1  0  0  0  0
M  END
> <s_m_source_file>
AV-unprocessed.smi

> <i_m_source_file_index>
3143

> <i_lp_mmshare_version>
43012

> <i_f3d_flags>
0

> <s_epik_input>
W0NIMl0xW0NIMl1bQ0gyXVtDSDJdTjFDKD1PKVtDQEhdKFtDSDNdKVtOSF1bQ0gyXVtDSDJdbjJbY0hdW2NIXVtjSF1uMg==

> <s_epik_cmdline>
J2VwaWtfcHl0aG9uJywgJy1waCcsICc3LjAnLCAnLXRuJywgJzgnLCAnLW1hJywgJzIwMCcsICctbWV0YWxfYmluZGluZycsICctaW1hZScsICc8aW5maWxlLm1hZT4nLCAnLW9tYWUnLCAnPG91dGZpbGUubWFlPic=

> <r_lp_tautomer_probability>
1

> <r_epik_Ionization_Penalty>
0.733724

> <r_epik_Ionization_Penalty_Charging>
0

> <r_epik_Ionization_Penalty_Neutral>
0.733724

> <r_epik_State_Penalty>
0.75825

> <r_epik_Charging_Adjusted_Penalty>
0.75825

> <i_epik_Tot_Q>
0

> <i_epik_Tot_abs_Q>
0

> <r_epik_Metal_State_Penalty>
0.757598

> <b_epik_Metal_Only>
0

> <s_lp_Force_Field>
OPLS_2005

> <r_lp_Energy>
31.5048

> <b_lp_Chiralities_Consistent>
1

> <s_lp_Variant>
AV-unprocessed.smi:3143-4

> <Gold.Version>
5.8.1

> <Gold.Id.Protein>
6NUR|6NUR_protein|mol2

> <Gold.PLP.Fitness>
40.8534

> <Gold.PLP.PLP>
-39.9953

> <Gold.PLP.part.hbond>
-1.0000

> <Gold.PLP.part.metal>
0.0000

> <Gold.PLP.part.buried>
-4.8118

> <Gold.PLP.part.nonpolar>
-34.6157

> <Gold.PLP.part.repulsive>
0.1603

> <Gold.PLP.ligand.clash>
0.0000

> <Gold.PLP.ligand.torsion>
1.0900

> <Gold.PLP.Chemscore.Hbond>
1.0000

> <Gold.PLP.Chemscore.CHOScore>
0.0000

> <Gold.PLP.Chemscore.Metal>
0.0000

> <Gold.Chemscore.Hbonds>
donor molecule, donor type, donor heavy atom, donor atom, acceptor molecule, acceptor atom, score
      P1  H  7989  7998       L1    12  1.00

> <Gold.PLP.Chemscore.Internal.Correction>
0.0380

> <Gold.Rescore>
     Score         DG    S(hbond)    S(metal)    S(lipo)     H(rot)  DE(clash)    DE(int)     intcor
     13.78     -14.78       1.00        0.00      89.75       1.77       0.04       0.95       ----

> <Gold.Chemscore.Fitness>
13.7848

> <Gold.Chemscore.DG>
-14.7810

> <Gold.Chemscore.ZeroCoef>
-5.4800

> <Gold.Chemscore.Hbond>
0.9994

> <Gold.Chemscore.Metal>
0.0000

> <Gold.Chemscore.Lipo>
89.7505

> <Gold.Chemscore.Internal_Hbond>
0.0000

> <Gold.Chemscore.DEClash>
0.0447

> <Gold.Chemscore.DEInternal>
0.9516

> <Gold.Chemscore.Rot>
1.7726

> <Gold.Chemscore.Internal.Correction>
   9.000000E+99

> <Gold.Chemscore.Hbonds>
donor molecule, donor type, donor heavy atom, donor atom, acceptor molecule, acceptor atom, score
      P1  H  7989  7998       L1    12  0.96

> <Gold.Chemscore.Hbond.Weighted>
-3.3380

> <Gold.Chemscore.Metal.Weighted>
-0.0000

> <Gold.Chemscore.Lipo.Weighted>
-10.5008

> <Gold.Chemscore.Internal_Hbond.Weighted>
0.0000

> <Gold.Chemscore.DEClash.Weighted>
0.0447

> <Gold.Chemscore.DEInternal.Weighted>
0.9516

> <Gold.Chemscore.Rot.Weighted>
4.5378

> <Gold.Chemscore.Internal.Correction.Weighted>
   9.000000E+99

> <Gold.Protein.RotatedTorsions>
[ 6907 6896 6895 6894 ] final   41.58 input  -60.11 | X-H torsion
[ 7974 7965 7964 7962 ] final   95.94 input  175.53 | X-H torsion
[ 8008 7997 7996 7995 ] final -176.90 input   59.86 | X-H torsion
[ 10167 10162 10161 10158 ] final  -88.71 input  -65.29 | X-H torsion
[ 10718 10713 10712 10709 ] final -136.46 input   66.30 | X-H torsion
[ 10763 10752 10751 10750 ] final  -50.99 input  -60.55 | X-H torsion
[ 11005 11000 10999 10996 ] final  153.18 input  -57.11 | X-H torsion

> <Gold.Protein.ActiveResidues>
 VAL166  LYS551  ARG553  GLY616  TRP617  ASP618  TYR619  PRO620  LYS621  CYS622 
 ASP623  PHE694  ASN695  SER759  ASP760  ASP761  ALA762  ILE779  LEU786  VAL792 
 PHE793  MET794  SER795  GLU796  ALA797  LYS798  CYS799  TRP800  GLU811  SER814 

> <Gold.Protein.RotatedAtoms>
  152.1971  134.8621  160.0511 H   0  0  0  0  0  0  0  0  0  0  0  0  # atno 6907 bound_to 6896
  151.9488  133.3655  159.4000 H   0  0  0  0  0  0  0  0  0  0  0  0  # atno 6908 bound_to 6896
  150.6947  134.4286  159.5282 H   0  0  0  0  0  0  0  0  0  0  0  0  # atno 6909 bound_to 6896
  145.4455  139.2297  143.3068 H   0  0  0  0  0  0  0  0  0  0  0  0  # atno 7974 bound_to 7965
  156.0005  140.1219  157.0552 H   0  0  0  0  0  0  0  0  0  0  0  0  # atno 8008 bound_to 7997
  154.4241  140.1108  156.5758 H   0  0  0  0  0  0  0  0  0  0  0  0  # atno 8009 bound_to 7997
  155.6219  140.3472  155.4657 H   0  0  0  0  0  0  0  0  0  0  0  0  # atno 8010 bound_to 7997
  140.3720  143.2790  151.9489 H   0  0  0  0  0  0  0  0  0  0  0  0  # atno 10167 bound_to 10162
  156.2773  130.7300  151.1286 H   0  0  0  0  0  0  0  0  0  0  0  0  # atno 10718 bound_to 10713
  154.1193  135.6537  153.4900 H   0  0  0  0  0  0  0  0  0  0  0  0  # atno 10763 bound_to 10752
  153.0230  135.5266  154.7113 H   0  0  0  0  0  0  0  0  0  0  0  0  # atno 10764 bound_to 10752
  154.6316  135.2977  155.0180 H   0  0  0  0  0  0  0  0  0  0  0  0  # atno 10765 bound_to 10752
  140.1374  134.8761  157.2286 H   0  0  0  0  0  0  0  0  0  0  0  0  # atno 11005 bound_to 11000
  146.2533  140.5208  142.8884 LP  0  0  0  0  0  0  0  0  0  0  0  0  # atno 17320 bound_to 7965
  144.8094  140.6359  143.6425 LP  0  0  0  0  0  0  0  0  0  0  0  0  # atno 17321 bound_to 7965
  139.4803  144.5898  151.7791 LP  0  0  0  0  0  0  0  0  0  0  0  0  # atno 17342 bound_to 10162
  140.5024  144.1149  150.5974 LP  0  0  0  0  0  0  0  0  0  0  0  0  # atno 17343 bound_to 10162
  157.7303  131.0617  150.5732 LP  0  0  0  0  0  0  0  0  0  0  0  0  # atno 17370 bound_to 10713
  156.5834  130.4310  149.5967 LP  0  0  0  0  0  0  0  0  0  0  0  0  # atno 17371 bound_to 10713
  140.2765  134.3400  155.7357 LP  0  0  0  0  0  0  0  0  0  0  0  0  # atno 17394 bound_to 11000
  141.2180  133.7453  156.9300 LP  0  0  0  0  0  0  0  0  0  0  0  0  # atno 17395 bound_to 11000

$$$$
