AV-unprocessed.smi:686|AV-procd|sdf|3339|dock6
  -GOLD-   22720 0313D 1   1.00000     0.00000
 Structure written by MMmdl.
 41 42  0  0  0  0  0  0  0  0  2 V2000
  151.3035  140.4630  155.7767 C   0  0  0  0  0  0  0  0  0  0  0  0
  150.5672  141.7265  156.2423 C   0  0  2  0  0  0  0  0  0  0  0  0
  151.4975  142.8864  156.5972 C   0  0  0  0  0  0  0  0  0  0  0  0
  150.7130  143.7396  157.5122 N   0  3  2  0  0  0  0  0  0  0  0  0
  151.4982  144.7520  158.2739 C   0  0  0  0  0  0  0  0  0  0  0  0
  152.8073  144.1501  158.8186 C   0  0  0  0  0  0  0  0  0  0  0  0
  150.6810  145.3478  159.4356 C   0  0  0  0  0  0  0  0  0  0  0  0
  149.9242  142.8026  158.3438 C   0  0  0  0  0  0  0  0  0  0  0  0
  149.7155  141.5267  157.5068 C   0  0  1  0  0  0  0  0  0  0  0  0
  148.3058  141.3487  157.1475 N   0  0  0  0  0  0  0  0  0  0  0  0
  147.8969  140.0832  156.0482 S   0  0  0  0  0  0  0  0  0  0  0  0
  148.5986  140.3560  154.7851 O   0  0  0  0  0  0  0  0  0  0  0  0
  148.1076  138.8029  156.7416 O   0  0  0  0  0  0  0  0  0  0  0  0
  146.0880  140.3319  155.8041 C   0  0  0  0  0  0  0  0  0  0  0  0
  145.8457  141.6644  155.1550 C   0  0  0  0  0  0  0  0  0  0  0  0
  146.4118  142.1798  153.9561 C   0  0  0  0  0  0  0  0  0  0  0  0
  145.8420  143.4149  153.8401 C   0  0  0  0  0  0  0  0  0  0  0  0
  144.9950  143.6462  154.8749 O   0  0  0  0  0  0  0  0  0  0  0  0
  145.0030  142.5221  155.7084 N   0  0  0  0  0  0  0  0  0  0  0  0
  151.9797  140.0897  156.5464 H   0  0  0  0  0  0  0  0  0  0  0  0
  151.8938  140.6616  154.8818 H   0  0  0  0  0  0  0  0  0  0  0  0
  150.5978  139.6666  155.5387 H   0  0  0  0  0  0  0  0  0  0  0  0
  149.9252  142.0688  155.4281 H   0  0  0  0  0  0  0  0  0  0  0  0
  152.3849  142.5179  157.1154 H   0  0  0  0  0  0  0  0  0  0  0  0
  151.8223  143.4272  155.7077 H   0  0  0  0  0  0  0  0  0  0  0  0
  151.7570  145.5651  157.5938 H   0  0  0  0  0  0  0  0  0  0  0  0
  153.3580  144.8828  159.4093 H   0  0  0  0  0  0  0  0  0  0  0  0
  153.4734  143.8265  158.0186 H   0  0  0  0  0  0  0  0  0  0  0  0
  152.6118  143.2901  159.4599 H   0  0  0  0  0  0  0  0  0  0  0  0
  151.2820  146.0482  160.0166 H   0  0  0  0  0  0  0  0  0  0  0  0
  150.3318  144.5700  160.1157 H   0  0  0  0  0  0  0  0  0  0  0  0
  149.8111  145.9012  159.0821 H   0  0  0  0  0  0  0  0  0  0  0  0
  150.4815  142.5494  159.2473 H   0  0  0  0  0  0  0  0  0  0  0  0
  148.9871  143.2656  158.6555 H   0  0  0  0  0  0  0  0  0  0  0  0
  150.0569  140.6554  158.0687 H   0  0  0  0  0  0  0  0  0  0  0  0
  147.8911  142.2323  156.8507 H   0  0  0  0  0  0  0  0  0  0  0  0
  145.7098  139.5215  155.1814 H   0  0  0  0  0  0  0  0  0  0  0  0
  145.5953  140.2651  156.7747 H   0  0  0  0  0  0  0  0  0  0  0  0
  147.1241  141.7180  153.2886 H   0  0  0  0  0  0  0  0  0  0  0  0
  145.9325  144.2089  153.1136 H   0  0  0  0  0  0  0  0  0  0  0  0
  150.0497  144.2381  156.9363 H   0  0  0  0  0  0  0  0  0  0  0  0
  1  2  1  0  0  0  0
  1 20  1  0  0  0  0
  1 21  1  0  0  0  0
  1 22  1  0  0  0  0
  2  9  1  0  0  0  0
  2  3  1  0  0  0  0
  2 23  1  0  0  0  0
  3  4  1  0  0  0  0
  3 24  1  0  0  0  0
  3 25  1  0  0  0  0
  4  5  1  0  0  0  0
  4  8  1  0  0  0  0
  4 41  1  0  0  0  0
  5  6  1  0  0  0  0
  5  7  1  0  0  0  0
  5 26  1  0  0  0  0
  6 27  1  0  0  0  0
  6 28  1  0  0  0  0
  6 29  1  0  0  0  0
  7 30  1  0  0  0  0
  7 31  1  0  0  0  0
  7 32  1  0  0  0  0
  8  9  1  0  0  0  0
  8 33  1  0  0  0  0
  8 34  1  0  0  0  0
  9 10  1  0  0  0  0
  9 35  1  0  0  0  0
 10 11  1  0  0  0  0
 10 36  1  0  0  0  0
 11 12  2  0  0  0  0
 11 13  2  0  0  0  0
 11 14  1  0  0  0  0
 14 15  1  0  0  0  0
 14 37  1  0  0  0  0
 14 38  1  0  0  0  0
 15 19  2  0  0  0  0
 15 16  1  0  0  0  0
 16 17  2  0  0  0  0
 16 39  1  0  0  0  0
 17 18  1  0  0  0  0
 17 40  1  0  0  0  0
 18 19  1  0  0  0  0
M  CHG  1   4   1
M  END
> <s_m_source_file>
AV-unprocessed.smi

> <i_m_source_file_index>
686

> <i_lp_mmshare_version>
43012

> <i_f3d_flags>
0

> <s_epik_input>
W0NIM11bQ0BASF0xW0NIMl1OKFtDSF0oW0NIM10pW0NIM10pW0NIMl1bQ0BIXTFbTkhdUyg9TykoPU8pW0NIMl1jMltjSF1bY0hdb24y

> <s_epik_cmdline>
J2VwaWtfcHl0aG9uJywgJy1waCcsICc3LjAnLCAnLXRuJywgJzgnLCAnLW1hJywgJzIwMCcsICctbWV0YWxfYmluZGluZycsICctaW1hZScsICc8aW5maWxlLm1hZT4nLCAnLW9tYWUnLCAnPG91dGZpbGUubWFlPic=

> <r_epik_Ionization_Penalty>
0.00200818

> <r_epik_Ionization_Penalty_Charging>
0.000701289

> <r_epik_Ionization_Penalty_Neutral>
0.00130689

> <r_epik_State_Penalty>
0.00131314

> <r_epik_Charging_Adjusted_Penalty>
0.00201443

> <i_epik_Tot_Q>
1

> <i_epik_Tot_abs_Q>
1

> <r_epik_Metal_State_Penalty>
0.310831

> <b_epik_Metal_Only>
0

> <s_lp_Force_Field>
OPLS_2005

> <r_lp_Energy>
20.8584

> <b_lp_Chiralities_Consistent>
1

> <s_lp_Variant>
AV-unprocessed.smi:686-3

> <Gold.Version>
5.8.1

> <Gold.Id.Protein>
6NUR|6NUR_protein|mol2

> <Gold.PLP.Fitness>
37.8638

> <Gold.PLP.PLP>
-32.5695

> <Gold.PLP.part.hbond>
-1.0000

> <Gold.PLP.part.metal>
0.0000

> <Gold.PLP.part.buried>
-6.2410

> <Gold.PLP.part.nonpolar>
-25.4494

> <Gold.PLP.part.repulsive>
0.4304

> <Gold.PLP.ligand.clash>
0.0000

> <Gold.PLP.ligand.torsion>
0.4495

> <Gold.PLP.Chemscore.Hbond>
2.0000

> <Gold.PLP.Chemscore.CHOScore>
0.0000

> <Gold.PLP.Chemscore.Metal>
0.0000

> <Gold.Chemscore.Hbonds>
donor molecule, donor type, donor heavy atom, donor atom, acceptor molecule, acceptor atom, score
      L1  H     4    41       P1  8028  2.00

> <Gold.PLP.Chemscore.Internal.Correction>
0.1933

> <Gold.Rescore>
     Score         DG    S(hbond)    S(metal)    S(lipo)     H(rot)  DE(clash)    DE(int)     intcor
     10.35     -14.60       0.99        0.00      91.35       1.91       1.43       2.81       ----

> <Gold.Chemscore.Fitness>
10.3542

> <Gold.Chemscore.DG>
-14.5970

> <Gold.Chemscore.ZeroCoef>
-5.4800

> <Gold.Chemscore.Hbond>
0.9948

> <Gold.Chemscore.Metal>
0.0000

> <Gold.Chemscore.Lipo>
91.3503

> <Gold.Chemscore.Internal_Hbond>
0.0000

> <Gold.Chemscore.DEClash>
1.4310

> <Gold.Chemscore.DEInternal>
2.8119

> <Gold.Chemscore.Rot>
1.9115

> <Gold.Chemscore.Internal.Correction>
   9.000000E+99

> <Gold.Chemscore.Hbonds>
donor molecule, donor type, donor heavy atom, donor atom, acceptor molecule, acceptor atom, score
      L1  H     4    41       P1  8028  0.88

> <Gold.Chemscore.Hbond.Weighted>
-3.3225

> <Gold.Chemscore.Metal.Weighted>
-0.0000

> <Gold.Chemscore.Lipo.Weighted>
-10.6880

> <Gold.Chemscore.Internal_Hbond.Weighted>
0.0000

> <Gold.Chemscore.DEClash.Weighted>
1.4310

> <Gold.Chemscore.DEInternal.Weighted>
2.8119

> <Gold.Chemscore.Rot.Weighted>
4.8935

> <Gold.Chemscore.Internal.Correction.Weighted>
   9.000000E+99

> <Gold.Protein.RotatedTorsions>
[ 6907 6896 6895 6894 ] final   31.12 input  -60.11 | X-H torsion
[ 7974 7965 7964 7962 ] final -133.15 input  175.53 | X-H torsion
[ 8008 7997 7996 7995 ] final  154.02 input   59.86 | X-H torsion
[ 10167 10162 10161 10158 ] final  114.60 input  -65.29 | X-H torsion
[ 10718 10713 10712 10709 ] final -104.84 input   66.30 | X-H torsion
[ 10763 10752 10751 10750 ] final   71.93 input  -60.55 | X-H torsion
[ 11005 11000 10999 10996 ] final  -22.75 input  -57.11 | X-H torsion

> <Gold.Protein.ActiveResidues>
 VAL166  LYS551  ARG553  GLY616  TRP617  ASP618  TYR619  PRO620  LYS621  CYS622 
 ASP623  PHE694  ASN695  SER759  ASP760  ASP761  ALA762  ILE779  LEU786  VAL792 
 PHE793  MET794  SER795  GLU796  ALA797  LYS798  CYS799  TRP800  GLU811  SER814 

> <Gold.Protein.RotatedAtoms>
  152.0557  134.9626  160.0574 H   0  0  0  0  0  0  0  0  0  0  0  0  # atno 6907 bound_to 6896
  152.1009  133.4244  159.4595 H   0  0  0  0  0  0  0  0  0  0  0  0  # atno 6908 bound_to 6896
  150.6839  134.2680  159.4620 H   0  0  0  0  0  0  0  0  0  0  0  0  # atno 6909 bound_to 6896
  144.9220  140.7025  143.4959 H   0  0  0  0  0  0  0  0  0  0  0  0  # atno 7974 bound_to 7965
  156.2552  140.1978  156.6581 H   0  0  0  0  0  0  0  0  0  0  0  0  # atno 8008 bound_to 7997
  154.6486  140.0575  156.9954 H   0  0  0  0  0  0  0  0  0  0  0  0  # atno 8009 bound_to 7997
  155.1453  140.3246  155.4446 H   0  0  0  0  0  0  0  0  0  0  0  0  # atno 8010 bound_to 7997
  139.6377  144.7121  151.2301 H   0  0  0  0  0  0  0  0  0  0  0  0  # atno 10167 bound_to 10162
  156.0321  130.5534  150.7453 H   0  0  0  0  0  0  0  0  0  0  0  0  # atno 10718 bound_to 10713
  153.0428  135.5119  154.7667 H   0  0  0  0  0  0  0  0  0  0  0  0  # atno 10763 bound_to 10752
  154.6591  135.2936  154.9892 H   0  0  0  0  0  0  0  0  0  0  0  0  # atno 10764 bound_to 10752
  154.0750  135.6672  153.4882 H   0  0  0  0  0  0  0  0  0  0  0  0  # atno 10765 bound_to 10752
  140.8687  133.7736  156.0160 H   0  0  0  0  0  0  0  0  0  0  0  0  # atno 11005 bound_to 11000
  145.3281  139.1768  143.4551 LP  0  0  0  0  0  0  0  0  0  0  0  0  # atno 17320 bound_to 7965
  146.3209  140.3307  142.8640 LP  0  0  0  0  0  0  0  0  0  0  0  0  # atno 17321 bound_to 7965
  140.7474  143.6367  150.8372 LP  0  0  0  0  0  0  0  0  0  0  0  0  # atno 17342 bound_to 10162
  140.0000  143.5754  152.2879 LP  0  0  0  0  0  0  0  0  0  0  0  0  # atno 17343 bound_to 10162
  157.5012  131.0918  151.0312 LP  0  0  0  0  0  0  0  0  0  0  0  0  # atno 17370 bound_to 10713
  157.0693  130.5857  149.5399 LP  0  0  0  0  0  0  0  0  0  0  0  0  # atno 17371 bound_to 10713
  140.8599  134.2853  157.5239 LP  0  0  0  0  0  0  0  0  0  0  0  0  # atno 17394 bound_to 11000
  139.8711  134.9512  156.4079 LP  0  0  0  0  0  0  0  0  0  0  0  0  # atno 17395 bound_to 11000

$$$$
