AV-unprocessed.smi:1814|AV-procd|sdf|7349|dock6
  -GOLD-   22720 9 13D 1   1.00000     0.00000
 Structure written by MMmdl.
 31 32  0  0  0  0  0  0  0  0  1 V2000
  150.8686  140.7167  156.2062 O   0  0  0  0  0  0  0  0  0  0  0  0
  150.2906  141.7989  156.1008 C   0  0  0  0  0  0  0  0  0  0  0  0
  150.5207  142.8805  156.8658 N   0  0  0  0  0  0  0  0  0  0  0  0
  151.4518  143.0223  157.9280 C   0  0  0  0  0  0  0  0  0  0  0  0
  152.0797  142.0016  158.5236 N   0  0  0  0  0  0  0  0  0  0  0  0
  152.9400  142.4335  159.5360 C   0  0  0  0  0  0  0  0  0  0  0  0
  152.9554  143.7965  159.6988 C   0  0  0  0  0  0  0  0  0  0  0  0
  151.8812  144.5960  158.5823 S   0  0  0  0  0  0  0  0  0  0  0  0
  149.3395  142.0437  155.1874 N   0  0  0  0  0  0  0  0  0  0  0  0
  148.8560  141.0861  154.1970 C   0  0  2  0  0  0  0  0  0  0  0  0
  147.5360  141.5746  153.5668 C   0  0  0  0  0  0  0  0  0  0  0  0
  146.9747  140.5504  152.5645 C   0  0  0  0  0  0  0  0  0  0  0  0
  146.8139  139.1498  153.1856 C   0  0  2  0  0  0  0  0  0  0  0  0
  145.7563  139.1526  154.1245 O   0  0  0  0  0  0  0  0  0  0  0  0
  148.1154  138.6755  153.8593 C   0  0  0  0  0  0  0  0  0  0  0  0
  148.6650  139.7091  154.8582 C   0  0  0  0  0  0  0  0  0  0  0  0
  149.9707  143.7012  156.6598 H   0  0  0  0  0  0  0  0  0  0  0  0
  153.5058  141.7005  160.0918 H   0  0  0  0  0  0  0  0  0  0  0  0
  153.5313  144.3757  160.4051 H   0  0  0  0  0  0  0  0  0  0  0  0
  148.9188  142.9611  155.1730 H   0  0  0  0  0  0  0  0  0  0  0  0
  149.6054  140.9814  153.4100 H   0  0  0  0  0  0  0  0  0  0  0  0
  146.7989  141.7592  154.3496 H   0  0  0  0  0  0  0  0  0  0  0  0
  147.6903  142.5284  153.0607 H   0  0  0  0  0  0  0  0  0  0  0  0
  146.0218  140.8999  152.1653 H   0  0  0  0  0  0  0  0  0  0  0  0
  147.6534  140.4842  151.7130 H   0  0  0  0  0  0  0  0  0  0  0  0
  146.5403  138.4423  152.4024 H   0  0  0  0  0  0  0  0  0  0  0  0
  145.0096  139.5815  153.7350 H   0  0  0  0  0  0  0  0  0  0  0  0
  147.9565  137.7189  154.3584 H   0  0  0  0  0  0  0  0  0  0  0  0
  148.8676  138.4949  153.0903 H   0  0  0  0  0  0  0  0  0  0  0  0
  149.6134  139.3551  155.2641 H   0  0  0  0  0  0  0  0  0  0  0  0
  147.9821  139.7955  155.7046 H   0  0  0  0  0  0  0  0  0  0  0  0
  1  2  2  0  0  0  0
  2  3  1  0  0  0  0
  2  9  1  0  0  0  0
  3  4  1  0  0  0  0
  3 17  1  0  0  0  0
  4  8  1  0  0  0  0
  4  5  2  0  0  0  0
  5  6  1  0  0  0  0
  6  7  2  0  0  0  0
  6 18  1  0  0  0  0
  7  8  1  0  0  0  0
  7 19  1  0  0  0  0
  9 10  1  0  0  0  0
  9 20  1  0  0  0  0
 10 16  1  0  0  0  0
 10 11  1  0  0  0  0
 10 21  1  0  0  0  0
 11 12  1  0  0  0  0
 11 22  1  0  0  0  0
 11 23  1  0  0  0  0
 12 13  1  0  0  0  0
 12 24  1  0  0  0  0
 12 25  1  0  0  0  0
 13 14  1  0  0  0  0
 13 15  1  0  0  0  0
 13 26  1  0  0  0  0
 14 27  1  0  0  0  0
 15 16  1  0  0  0  0
 15 28  1  0  0  0  0
 15 29  1  0  0  0  0
 16 30  1  0  0  0  0
 16 31  1  0  0  0  0
M  END
> <s_m_source_file>
AV-unprocessed.smi

> <i_m_source_file_index>
1814

> <i_lp_mmshare_version>
43012

> <i_f3d_flags>
0

> <s_epik_input>
czFbY0hdW2NIXW5jMVtOSF1DKD1PKVtOSF1bQ0BASF0yW0NIMl1bQ0gyXVtDQEBIXShbT0hdKVtDSDJdW0NIMl0y

> <s_epik_cmdline>
J2VwaWtfcHl0aG9uJywgJy1waCcsICc3LjAnLCAnLXRuJywgJzgnLCAnLW1hJywgJzIwMCcsICctbWV0YWxfYmluZGluZycsICctaW1hZScsICc8aW5maWxlLm1hZT4nLCAnLW9tYWUnLCAnPG91dGZpbGUubWFlPic=

> <r_lp_tautomer_probability>
0.999

> <r_epik_Ionization_Penalty>
0.000428518

> <r_epik_Ionization_Penalty_Charging>
0

> <r_epik_Ionization_Penalty_Neutral>
0.000428518

> <r_epik_State_Penalty>
0.000177984

> <r_epik_Charging_Adjusted_Penalty>
0.000177984

> <i_epik_Tot_Q>
0

> <i_epik_Tot_abs_Q>
0

> <r_epik_Metal_State_Penalty>
-0

> <b_epik_Metal_Only>
0

> <s_lp_Force_Field>
OPLS_2005

> <r_lp_Energy>
9.0844

> <b_lp_Chiralities_Consistent>
1

> <s_lp_Variant>
AV-unprocessed.smi:1814-2

> <Gold.Version>
5.8.1

> <Gold.Id.Protein>
6NUR|6NUR_protein|mol2

> <Gold.PLP.Fitness>
41.2753

> <Gold.PLP.PLP>
-32.7671

> <Gold.PLP.part.hbond>
-3.0000

> <Gold.PLP.part.metal>
0.0000

> <Gold.PLP.part.buried>
-3.3567

> <Gold.PLP.part.nonpolar>
-26.9098

> <Gold.PLP.part.repulsive>
0.2534

> <Gold.PLP.ligand.clash>
0.0000

> <Gold.PLP.ligand.torsion>
0.2473

> <Gold.PLP.Chemscore.Hbond>
3.0000

> <Gold.PLP.Chemscore.CHOScore>
0.0000

> <Gold.PLP.Chemscore.Metal>
0.0000

> <Gold.Chemscore.Hbonds>
donor molecule, donor type, donor heavy atom, donor atom, acceptor molecule, acceptor atom, score
      L1  H     3    17       P1  8028  1.00
      L1  H     9    20       P1  8028  1.00
      L1  H    14    27       P1 10175  0.99

> <Gold.PLP.Chemscore.Internal.Correction>
0.0028

> <Gold.Rescore>
     Score         DG    S(hbond)    S(metal)    S(lipo)     H(rot)  DE(clash)    DE(int)     intcor
     17.81     -20.98       2.96        0.00      80.70       1.50       0.41       2.76       ----

> <Gold.Chemscore.Fitness>
17.8134

> <Gold.Chemscore.DG>
-20.9801

> <Gold.Chemscore.ZeroCoef>
-5.4800

> <Gold.Chemscore.Hbond>
2.9641

> <Gold.Chemscore.Metal>
0.0000

> <Gold.Chemscore.Lipo>
80.6957

> <Gold.Chemscore.Internal_Hbond>
0.0000

> <Gold.Chemscore.DEClash>
0.4056

> <Gold.Chemscore.DEInternal>
2.7612

> <Gold.Chemscore.Rot>
1.5006

> <Gold.Chemscore.Internal.Correction>
   9.000000E+99

> <Gold.Chemscore.Hbonds>
donor molecule, donor type, donor heavy atom, donor atom, acceptor molecule, acceptor atom, score
      L1  H     3    17       P1  8028  0.98
      L1  H     9    20       P1  8028  0.97
      L1  H    14    27       P1 10175  0.92

> <Gold.Chemscore.Hbond.Weighted>
-9.9003

> <Gold.Chemscore.Metal.Weighted>
-0.0000

> <Gold.Chemscore.Lipo.Weighted>
-9.4414

> <Gold.Chemscore.Internal_Hbond.Weighted>
0.0000

> <Gold.Chemscore.DEClash.Weighted>
0.4056

> <Gold.Chemscore.DEInternal.Weighted>
2.7612

> <Gold.Chemscore.Rot.Weighted>
3.8415

> <Gold.Chemscore.Internal.Correction.Weighted>
   9.000000E+99

> <Gold.Protein.RotatedTorsions>
[ 6907 6896 6895 6894 ] final  167.57 input  -60.11 | X-H torsion
[ 7974 7965 7964 7962 ] final    1.15 input  175.53 | X-H torsion
[ 8008 7997 7996 7995 ] final -178.70 input   59.86 | X-H torsion
[ 10167 10162 10161 10158 ] final -126.16 input  -65.29 | X-H torsion
[ 10718 10713 10712 10709 ] final  -77.17 input   66.30 | X-H torsion
[ 10763 10752 10751 10750 ] final -169.35 input  -60.55 | X-H torsion
[ 11005 11000 10999 10996 ] final   71.09 input  -57.11 | X-H torsion

> <Gold.Protein.ActiveResidues>
 VAL166  LYS551  ARG553  GLY616  TRP617  ASP618  TYR619  PRO620  LYS621  CYS622 
 ASP623  PHE694  ASN695  SER759  ASP760  ASP761  ALA762  ILE779  LEU786  VAL792 
 PHE793  MET794  SER795  GLU796  ALA797  LYS798  CYS799  TRP800  GLU811  SER814 

> <Gold.Protein.RotatedAtoms>
  151.8612  133.3457  159.3704 H   0  0  0  0  0  0  0  0  0  0  0  0  # atno 6907 bound_to 6896
  150.7178  134.5204  159.5660 H   0  0  0  0  0  0  0  0  0  0  0  0  # atno 6908 bound_to 6896
  152.2718  134.7925  160.0464 H   0  0  0  0  0  0  0  0  0  0  0  0  # atno 6909 bound_to 6896
  146.2439  140.1031  142.8347 H   0  0  0  0  0  0  0  0  0  0  0  0  # atno 7974 bound_to 7965
  156.0219  140.1263  157.0348 H   0  0  0  0  0  0  0  0  0  0  0  0  # atno 8008 bound_to 7997
  154.4315  140.1067  156.6046 H   0  0  0  0  0  0  0  0  0  0  0  0  # atno 8009 bound_to 7997
  155.5932  140.3469  155.4574 H   0  0  0  0  0  0  0  0  0  0  0  0  # atno 8010 bound_to 7997
  139.9744  143.5810  152.2401 H   0  0  0  0  0  0  0  0  0  0  0  0  # atno 10167 bound_to 10162
  156.0153  130.4484  150.3304 H   0  0  0  0  0  0  0  0  0  0  0  0  # atno 10718 bound_to 10713
  154.6532  135.2914  154.9960 H   0  0  0  0  0  0  0  0  0  0  0  0  # atno 10763 bound_to 10752
  154.1046  135.6571  153.4878 H   0  0  0  0  0  0  0  0  0  0  0  0  # atno 10764 bound_to 10752
  153.0388  135.5250  154.7450 H   0  0  0  0  0  0  0  0  0  0  0  0  # atno 10765 bound_to 10752
  139.9562  134.7140  156.0747 H   0  0  0  0  0  0  0  0  0  0  0  0  # atno 11005 bound_to 11000
  145.0552  140.9047  143.4972 LP  0  0  0  0  0  0  0  0  0  0  0  0  # atno 17320 bound_to 7965
  145.1136  139.2740  143.5625 LP  0  0  0  0  0  0  0  0  0  0  0  0  # atno 17321 bound_to 7965
  139.6457  144.7658  151.2249 LP  0  0  0  0  0  0  0  0  0  0  0  0  # atno 17342 bound_to 10162
  140.7511  143.6244  150.8483 LP  0  0  0  0  0  0  0  0  0  0  0  0  # atno 17343 bound_to 10162
  157.1402  131.0294  151.2931 LP  0  0  0  0  0  0  0  0  0  0  0  0  # atno 17370 bound_to 10713
  157.4478  130.7581  149.7124 LP  0  0  0  0  0  0  0  0  0  0  0  0  # atno 17371 bound_to 10713
  141.1234  133.6606  156.3273 LP  0  0  0  0  0  0  0  0  0  0  0  0  # atno 17394 bound_to 11000
  140.5603  134.5940  157.5432 LP  0  0  0  0  0  0  0  0  0  0  0  0  # atno 17395 bound_to 11000

$$$$
