AV-unprocessed.smi:3191|AV-procd|sdf|12196|dock5
  -GOLD-   2272018 33D 1   1.00000     0.00000
 Structure written by MMmdl.
 36 37  0  0  0  0  0  0  0  0  2 V2000
  145.6195  130.6073  151.0302 C   0  0  0  0  0  0  0  0  0  0  0  0
  145.0209  131.9376  150.8895 N   0  0  0  0  0  0  0  0  0  0  0  0
  143.8705  132.1325  150.2323 C   0  0  0  0  0  0  0  0  0  0  0  0
  143.6130  133.4417  150.2817 N   0  3  0  0  0  0  0  0  0  0  0  0
  144.6011  134.0882  150.9721 C   0  0  0  0  0  0  0  0  0  0  0  0
  145.5062  133.1345  151.3676 C   0  0  0  0  0  0  0  0  0  0  0  0
  146.7708  133.2588  152.1547 C   0  0  0  0  0  0  0  0  0  0  0  0
  146.5579  132.8734  153.6284 C   0  0  0  0  0  0  0  0  0  0  0  0
  147.7332  132.2108  154.1806 N   0  0  0  0  0  0  0  0  0  0  0  0
  148.9867  132.6830  154.0993 C   0  0  0  0  0  0  0  0  0  0  0  0
  149.2629  133.7394  153.5288 O   0  0  0  0  0  0  0  0  0  0  0  0
  150.0049  131.8079  154.7628 C   0  0  1  0  0  0  0  0  0  0  0  0
  149.5113  130.6006  155.5335 C   0  0  0  0  0  0  0  0  0  0  0  0
  150.2673  130.3973  154.2393 C   0  0  0  0  0  0  0  0  0  0  0  0
  149.5417  129.8142  153.0326 C   0  0  0  0  0  0  0  0  0  0  0  0
  151.6941  129.8786  154.2781 C   0  0  0  0  0  0  0  0  0  0  0  0
  150.8689  132.3290  155.1731 H   0  0  0  0  0  0  0  0  0  0  0  0
  144.9653  129.8510  150.5946 H   0  0  0  0  0  0  0  0  0  0  0  0
  145.7682  130.3878  152.0874 H   0  0  0  0  0  0  0  0  0  0  0  0
  146.5806  130.5925  150.5154 H   0  0  0  0  0  0  0  0  0  0  0  0
  143.2671  131.3816  149.7539 H   0  0  0  0  0  0  0  0  0  0  0  0
  144.5883  135.1567  151.1308 H   0  0  0  0  0  0  0  0  0  0  0  0
  147.5392  132.6345  151.6977 H   0  0  0  0  0  0  0  0  0  0  0  0
  147.1278  134.2871  152.0857 H   0  0  0  0  0  0  0  0  0  0  0  0
  146.3568  133.7655  154.2220 H   0  0  0  0  0  0  0  0  0  0  0  0
  145.6861  132.2265  153.7390 H   0  0  0  0  0  0  0  0  0  0  0  0
  147.5844  131.3348  154.6605 H   0  0  0  0  0  0  0  0  0  0  0  0
  150.0215  130.3731  156.4674 H   0  0  0  0  0  0  0  0  0  0  0  0
  148.4449  130.3819  155.5355 H   0  0  0  0  0  0  0  0  0  0  0  0
  149.6990  128.7365  152.9783 H   0  0  0  0  0  0  0  0  0  0  0  0
  149.9162  130.2644  152.1129 H   0  0  0  0  0  0  0  0  0  0  0  0
  148.4668  129.9817  153.0887 H   0  0  0  0  0  0  0  0  0  0  0  0
  151.7026  128.7912  154.3579 H   0  0  0  0  0  0  0  0  0  0  0  0
  152.2315  130.2850  155.1356 H   0  0  0  0  0  0  0  0  0  0  0  0
  152.2271  130.1665  153.3714 H   0  0  0  0  0  0  0  0  0  0  0  0
  142.8037  133.8875  149.8678 H   0  0  0  0  0  0  0  0  0  0  0  0
  1  2  1  0  0  0  0
  1 18  1  0  0  0  0
  1 19  1  0  0  0  0
  1 20  1  0  0  0  0
  2  6  1  0  0  0  0
  2  3  1  0  0  0  0
  3  4  2  0  0  0  0
  3 21  1  0  0  0  0
  4  5  1  0  0  0  0
  4 36  1  0  0  0  0
  5  6  2  0  0  0  0
  5 22  1  0  0  0  0
  6  7  1  0  0  0  0
  7  8  1  0  0  0  0
  7 23  1  0  0  0  0
  7 24  1  0  0  0  0
  8  9  1  0  0  0  0
  8 25  1  0  0  0  0
  8 26  1  0  0  0  0
  9 10  1  0  0  0  0
  9 27  1  0  0  0  0
 10 11  2  0  0  0  0
 10 12  1  0  0  0  0
 12 17  1  0  0  0  0
 12 14  1  0  0  0  0
 12 13  1  0  0  0  0
 13 14  1  0  0  0  0
 13 28  1  0  0  0  0
 13 29  1  0  0  0  0
 14 15  1  0  0  0  0
 14 16  1  0  0  0  0
 15 30  1  0  0  0  0
 15 31  1  0  0  0  0
 15 32  1  0  0  0  0
 16 33  1  0  0  0  0
 16 34  1  0  0  0  0
 16 35  1  0  0  0  0
M  CHG  1   4   1
M  END
> <s_m_source_file>
AV-unprocessed.smi

> <i_m_source_file_index>
3191

> <i_lp_mmshare_version>
43012

> <i_f3d_flags>
0

> <s_epik_input>
W0NIM11uMVtjSF1uW2NIXWMxW0NIMl1bQ0gyXVtOSF1DKD1PKVtDQEBIXShbQ0gyXTIpQzIoW0NIM10pW0NIM10=

> <s_epik_cmdline>
J2VwaWtfcHl0aG9uJywgJy1waCcsICc3LjAnLCAnLXRuJywgJzgnLCAnLW1hJywgJzIwMCcsICctbWV0YWxfYmluZGluZycsICctaW1hZScsICc8aW5maWxlLm1hZT4nLCAnLW9tYWUnLCAnPG91dGZpbGUubWFlPic=

> <r_lp_tautomer_probability>
1

> <r_epik_Ionization_Penalty>
0.153817

> <r_epik_Ionization_Penalty_Charging>
0

> <r_epik_Ionization_Penalty_Neutral>
0.153817

> <r_epik_State_Penalty>
0.14311

> <r_epik_Charging_Adjusted_Penalty>
0.14311

> <i_epik_Tot_Q>
1

> <i_epik_Tot_abs_Q>
1

> <r_epik_Metal_State_Penalty>
0.464688

> <b_epik_Metal_Only>
0

> <s_lp_Force_Field>
OPLS_2005

> <r_lp_Energy>
13.4151

> <b_lp_Chiralities_Consistent>
1

> <s_lp_Variant>
AV-unprocessed.smi:3191-1

> <Gold.Version>
5.8.1

> <Gold.Id.Protein>
6NUR|6NUR_protein|mol2

> <Gold.PLP.Fitness>
37.9377

> <Gold.PLP.PLP>
-30.0511

> <Gold.PLP.part.hbond>
-1.0000

> <Gold.PLP.part.metal>
0.0000

> <Gold.PLP.part.buried>
-5.1245

> <Gold.PLP.part.nonpolar>
-24.4675

> <Gold.PLP.part.repulsive>
0.5065

> <Gold.PLP.ligand.clash>
0.0000

> <Gold.PLP.ligand.torsion>
0.6011

> <Gold.PLP.Chemscore.Hbond>
2.0000

> <Gold.PLP.Chemscore.CHOScore>
1.0000

> <Gold.PLP.Chemscore.Metal>
0.0000

> <Gold.Chemscore.Hbonds>
donor molecule, donor type, donor heavy atom, donor atom, acceptor molecule, acceptor atom, score
      L1  H     4    36       P1 10186  2.00
      L1  C     3    21       P1 10952  0.67

> <Gold.PLP.Chemscore.Internal.Correction>
0.0888

> <Gold.Rescore>
     Score         DG    S(hbond)    S(metal)    S(lipo)     H(rot)  DE(clash)    DE(int)     intcor
      9.07     -10.93       0.99        0.00      56.84       1.76       0.03       1.83       ----

> <Gold.Chemscore.Fitness>
9.0673

> <Gold.Chemscore.DG>
-10.9293

> <Gold.Chemscore.ZeroCoef>
-5.4800

> <Gold.Chemscore.Hbond>
0.9863

> <Gold.Chemscore.Metal>
0.0000

> <Gold.Chemscore.Lipo>
56.8418

> <Gold.Chemscore.Internal_Hbond>
0.0000

> <Gold.Chemscore.DEClash>
0.0272

> <Gold.Chemscore.DEInternal>
1.8348

> <Gold.Chemscore.Rot>
1.7561

> <Gold.Chemscore.Internal.Correction>
   9.000000E+99

> <Gold.Chemscore.Hbonds>
donor molecule, donor type, donor heavy atom, donor atom, acceptor molecule, acceptor atom, score
      L1  H     4    36       P1 10186  1.00

> <Gold.Chemscore.Hbond.Weighted>
-3.2944

> <Gold.Chemscore.Metal.Weighted>
-0.0000

> <Gold.Chemscore.Lipo.Weighted>
-6.6505

> <Gold.Chemscore.Internal_Hbond.Weighted>
0.0000

> <Gold.Chemscore.DEClash.Weighted>
0.0272

> <Gold.Chemscore.DEInternal.Weighted>
1.8348

> <Gold.Chemscore.Rot.Weighted>
4.4956

> <Gold.Chemscore.Internal.Correction.Weighted>
   9.000000E+99

> <Gold.Protein.RotatedTorsions>
[ 6907 6896 6895 6894 ] final  103.89 input  -60.11 | X-H torsion
[ 7974 7965 7964 7962 ] final   67.48 input  175.53 | X-H torsion
[ 8008 7997 7996 7995 ] final  146.72 input   59.86 | X-H torsion
[ 10167 10162 10161 10158 ] final   94.43 input  -65.29 | X-H torsion
[ 10718 10713 10712 10709 ] final -160.80 input   66.30 | X-H torsion
[ 10763 10752 10751 10750 ] final -135.56 input  -60.55 | X-H torsion
[ 11005 11000 10999 10996 ] final  -42.51 input  -57.11 | X-H torsion

> <Gold.Protein.ActiveResidues>
 VAL166  LYS551  ARG553  GLY616  TRP617  ASP618  TYR619  PRO620  LYS621  CYS622 
 ASP623  PHE694  ASN695  SER759  ASP760  ASP761  ALA762  ILE779  LEU786  VAL792 
 PHE793  MET794  SER795  GLU796  ALA797  LYS798  CYS799  TRP800  GLU811  SER814 

> <Gold.Protein.RotatedAtoms>
  152.5281  133.9758  159.7783 H   0  0  0  0  0  0  0  0  0  0  0  0  # atno 6907 bound_to 6896
  151.0021  133.6038  159.2700 H   0  0  0  0  0  0  0  0  0  0  0  0  # atno 6908 bound_to 6896
  151.3143  135.0808  159.9336 H   0  0  0  0  0  0  0  0  0  0  0  0  # atno 6909 bound_to 6896
  145.8141  139.3048  143.1081 H   0  0  0  0  0  0  0  0  0  0  0  0  # atno 7974 bound_to 7965
  156.2847  140.2175  156.5421 H   0  0  0  0  0  0  0  0  0  0  0  0  # atno 8008 bound_to 7997
  154.7361  140.0491  157.0792 H   0  0  0  0  0  0  0  0  0  0  0  0  # atno 8009 bound_to 7997
  155.0291  140.3133  155.4768 H   0  0  0  0  0  0  0  0  0  0  0  0  # atno 8010 bound_to 7997
  139.8085  144.6784  150.9672 H   0  0  0  0  0  0  0  0  0  0  0  0  # atno 10167 bound_to 10162
  156.5873  130.8755  151.2880 H   0  0  0  0  0  0  0  0  0  0  0  0  # atno 10718 bound_to 10713
  154.8700  135.3699  154.4918 H   0  0  0  0  0  0  0  0  0  0  0  0  # atno 10763 bound_to 10752
  153.5565  135.7024  153.5572 H   0  0  0  0  0  0  0  0  0  0  0  0  # atno 10764 bound_to 10752
  153.3667  135.4032  155.1722 H   0  0  0  0  0  0  0  0  0  0  0  0  # atno 10765 bound_to 10752
  141.0320  133.6816  156.2604 H   0  0  0  0  0  0  0  0  0  0  0  0  # atno 11005 bound_to 11000
  145.9745  140.8733  143.0145 LP  0  0  0  0  0  0  0  0  0  0  0  0  # atno 17320 bound_to 7965
  144.6754  140.1993  143.7389 LP  0  0  0  0  0  0  0  0  0  0  0  0  # atno 17321 bound_to 7965
  140.7818  143.4209  151.0843 LP  0  0  0  0  0  0  0  0  0  0  0  0  # atno 17342 bound_to 10162
  139.7877  143.8263  152.3147 LP  0  0  0  0  0  0  0  0  0  0  0  0  # atno 17343 bound_to 10162
  157.7312  130.9697  150.1870 LP  0  0  0  0  0  0  0  0  0  0  0  0  # atno 17370 bound_to 10713
  156.2580  130.3707  149.8161 LP  0  0  0  0  0  0  0  0  0  0  0  0  # atno 17371 bound_to 10713
  140.6389  134.5187  157.5567 LP  0  0  0  0  0  0  0  0  0  0  0  0  # atno 17394 bound_to 11000
  139.9215  134.8140  156.1198 LP  0  0  0  0  0  0  0  0  0  0  0  0  # atno 17395 bound_to 11000

$$$$
