AV-unprocessed.smi:1158|AV-procd|sdf|4913|dock5
  -GOLD-   22720 3493D 1   1.00000     0.00000
 Structure written by MMmdl.
 43 44  0  0  0  0  0  0  0  0  2 V2000
  151.4849  138.1504  154.5243 C   0  0  0  0  0  0  0  0  0  0  0  0
  150.1607  138.1948  154.0041 O   0  0  0  0  0  0  0  0  0  0  0  0
  149.4514  139.3767  154.1046 C   0  0  0  0  0  0  0  0  0  0  0  0
  150.0393  140.4312  154.7232 N   0  0  0  0  0  0  0  0  0  0  0  0
  149.3459  141.5833  154.8273 C   0  0  0  0  0  0  0  0  0  0  0  0
  148.0389  141.7430  154.3320 C   0  0  0  0  0  0  0  0  0  0  0  0
  147.4273  140.6512  153.6885 C   0  0  0  0  0  0  0  0  0  0  0  0
  148.1479  139.4390  153.5581 C   0  0  0  0  0  0  0  0  0  0  0  0
  147.6263  138.2675  152.9425 N   0  0  0  0  0  0  0  0  0  0  0  0
  146.3479  137.8705  152.8288 C   0  0  0  0  0  0  0  0  0  0  0  0
  145.3691  138.4712  153.2703 O   0  0  0  0  0  0  0  0  0  0  0  0
  146.2624  136.7187  152.1484 N   0  0  0  0  0  0  0  0  0  0  0  0
  145.0229  136.0164  151.8178 C   0  0  2  0  0  0  0  0  0  0  0  0
  144.3808  135.3637  153.0566 C   0  0  0  0  0  0  0  0  0  0  0  0
  145.2129  134.1781  153.5757 C   0  0  0  0  0  0  0  0  0  0  0  0
  145.4334  133.1606  152.5143 N   0  3  2  0  0  0  0  0  0  0  0  0
  146.1275  131.9568  153.0433 C   0  0  0  0  0  0  0  0  0  0  0  0
  146.1676  130.7841  152.0475 C   0  0  0  0  0  0  0  0  0  0  0  0
  146.4216  129.6256  152.6542 F   0  0  0  0  0  0  0  0  0  0  0  0
  144.9897  130.6855  151.4329 F   0  0  0  0  0  0  0  0  0  0  0  0
  146.0947  133.7525  151.3202 C   0  0  0  0  0  0  0  0  0  0  0  0
  145.2882  134.9375  150.7555 C   0  0  0  0  0  0  0  0  0  0  0  0
  151.8991  137.1542  154.3709 H   0  0  0  0  0  0  0  0  0  0  0  0
  151.5001  138.3529  155.5962 H   0  0  0  0  0  0  0  0  0  0  0  0
  152.1373  138.8617  154.0158 H   0  0  0  0  0  0  0  0  0  0  0  0
  149.8460  142.4000  155.3264 H   0  0  0  0  0  0  0  0  0  0  0  0
  147.5152  142.6803  154.4472 H   0  0  0  0  0  0  0  0  0  0  0  0
  146.4182  140.7637  153.3242 H   0  0  0  0  0  0  0  0  0  0  0  0
  148.3100  137.6981  152.4656 H   0  0  0  0  0  0  0  0  0  0  0  0
  147.1212  136.3068  151.8138 H   0  0  0  0  0  0  0  0  0  0  0  0
  144.3257  136.7439  151.3983 H   0  0  0  0  0  0  0  0  0  0  0  0
  144.2399  136.0980  153.8506 H   0  0  0  0  0  0  0  0  0  0  0  0
  143.3824  135.0101  152.7960 H   0  0  0  0  0  0  0  0  0  0  0  0
  146.1754  134.5270  153.9533 H   0  0  0  0  0  0  0  0  0  0  0  0
  144.6907  133.7243  154.4188 H   0  0  0  0  0  0  0  0  0  0  0  0
  147.1309  132.2128  153.3869 H   0  0  0  0  0  0  0  0  0  0  0  0
  145.5829  131.6129  153.9239 H   0  0  0  0  0  0  0  0  0  0  0  0
  146.9192  130.9314  151.2713 H   0  0  0  0  0  0  0  0  0  0  0  0
  147.1052  134.0703  151.5817 H   0  0  0  0  0  0  0  0  0  0  0  0
  146.1930  133.0073  150.5335 H   0  0  0  0  0  0  0  0  0  0  0  0
  144.3348  134.5691  150.3743 H   0  0  0  0  0  0  0  0  0  0  0  0
  145.8079  135.3700  149.8995 H   0  0  0  0  0  0  0  0  0  0  0  0
  144.5154  132.8571  152.2212 H   0  0  0  0  0  0  0  0  0  0  0  0
  1  2  1  0  0  0  0
  1 23  1  0  0  0  0
  1 24  1  0  0  0  0
  1 25  1  0  0  0  0
  2  3  1  0  0  0  0
  3  8  1  0  0  0  0
  3  4  2  0  0  0  0
  4  5  1  0  0  0  0
  5  6  2  0  0  0  0
  5 26  1  0  0  0  0
  6  7  1  0  0  0  0
  6 27  1  0  0  0  0
  7  8  2  0  0  0  0
  7 28  1  0  0  0  0
  8  9  1  0  0  0  0
  9 10  1  0  0  0  0
  9 29  1  0  0  0  0
 10 11  2  0  0  0  0
 10 12  1  0  0  0  0
 12 13  1  0  0  0  0
 12 30  1  0  0  0  0
 13 22  1  0  0  0  0
 13 14  1  0  0  0  0
 13 31  1  0  0  0  0
 14 15  1  0  0  0  0
 14 32  1  0  0  0  0
 14 33  1  0  0  0  0
 15 16  1  0  0  0  0
 15 34  1  0  0  0  0
 15 35  1  0  0  0  0
 16 17  1  0  0  0  0
 16 21  1  0  0  0  0
 16 43  1  0  0  0  0
 17 18  1  0  0  0  0
 17 36  1  0  0  0  0
 17 37  1  0  0  0  0
 18 19  1  0  0  0  0
 18 20  1  0  0  0  0
 18 38  1  0  0  0  0
 21 22  1  0  0  0  0
 21 39  1  0  0  0  0
 21 40  1  0  0  0  0
 22 41  1  0  0  0  0
 22 42  1  0  0  0  0
M  CHG  1  16   1
M  END
> <s_m_source_file>
AV-unprocessed.smi

> <i_m_source_file_index>
1158

> <i_lp_mmshare_version>
43012

> <i_f3d_flags>
0

> <s_epik_input>
W0NIM11PYzFuW2NIXVtjSF1bY0hdYzFbTkhdQyg9TylbTkhdW0NIXTJbQ0gyXVtDSDJdTihbQ0gyXVtDSF0oRilGKVtDSDJdW0NIMl0y

> <s_epik_cmdline>
J2VwaWtfcHl0aG9uJywgJy1waCcsICc3LjAnLCAnLXRuJywgJzgnLCAnLW1hJywgJzIwMCcsICctbWV0YWxfYmluZGluZycsICctaW1hZScsICc8aW5maWxlLm1hZT4nLCAnLW9tYWUnLCAnPG91dGZpbGUubWFlPic=

> <r_lp_tautomer_probability>
1

> <r_epik_Ionization_Penalty>
0.802109

> <r_epik_Ionization_Penalty_Charging>
0.802031

> <r_epik_Ionization_Penalty_Neutral>
7.83352e-05

> <r_epik_State_Penalty>
0.833408

> <r_epik_Charging_Adjusted_Penalty>
1.63544

> <i_epik_Tot_Q>
1

> <i_epik_Tot_abs_Q>
1

> <r_epik_Metal_State_Penalty>
0.833416

> <b_epik_Metal_Only>
0

> <s_lp_Force_Field>
OPLS_2005

> <r_lp_Energy>
20.396

> <b_lp_Chiralities_Consistent>
1

> <s_lp_Variant>
AV-unprocessed.smi:1158-3

> <Gold.Version>
5.8.1

> <Gold.Id.Protein>
6NUR|6NUR_protein|mol2

> <Gold.PLP.Fitness>
45.6142

> <Gold.PLP.PLP>
-35.0638

> <Gold.PLP.part.hbond>
-3.5178

> <Gold.PLP.part.metal>
0.0000

> <Gold.PLP.part.buried>
-2.7293

> <Gold.PLP.part.nonpolar>
-32.9020

> <Gold.PLP.part.repulsive>
3.2203

> <Gold.PLP.ligand.clash>
0.0000

> <Gold.PLP.ligand.torsion>
0.5020

> <Gold.PLP.Chemscore.Hbond>
2.9440

> <Gold.PLP.Chemscore.CHOScore>
0.8986

> <Gold.PLP.Chemscore.Metal>
0.0000

> <Gold.Chemscore.Hbonds>
donor molecule, donor type, donor heavy atom, donor atom, acceptor molecule, acceptor atom, score
      L1  H     9    29       P1  7948  1.00
      L1  H    12    30       P1  7948  1.00
      P1  H  7989  7998       L1     4  0.91
      L1  C     5    26       P1  8028  0.90

> <Gold.PLP.Chemscore.Internal.Correction>
0.0264

> <Gold.Rescore>
     Score         DG    S(hbond)    S(metal)    S(lipo)     H(rot)  DE(clash)    DE(int)     intcor
     14.11     -16.03       1.95        0.00      68.98       1.58       0.53       1.39       ----

> <Gold.Chemscore.Fitness>
14.1104

> <Gold.Chemscore.DG>
-16.0325

> <Gold.Chemscore.ZeroCoef>
-5.4800

> <Gold.Chemscore.Hbond>
1.9518

> <Gold.Chemscore.Metal>
0.0000

> <Gold.Chemscore.Lipo>
68.9793

> <Gold.Chemscore.Internal_Hbond>
0.0000

> <Gold.Chemscore.DEClash>
0.5294

> <Gold.Chemscore.DEInternal>
1.3927

> <Gold.Chemscore.Rot>
1.5770

> <Gold.Chemscore.Internal.Correction>
   9.000000E+99

> <Gold.Chemscore.Hbonds>
donor molecule, donor type, donor heavy atom, donor atom, acceptor molecule, acceptor atom, score
      L1  H     9    29       P1  7948  0.98
      L1  H    12    30       P1  7948  0.94
      P1  H  7989  7998       L1     4  0.15

> <Gold.Chemscore.Hbond.Weighted>
-6.5190

> <Gold.Chemscore.Metal.Weighted>
-0.0000

> <Gold.Chemscore.Lipo.Weighted>
-8.0706

> <Gold.Chemscore.Internal_Hbond.Weighted>
0.0000

> <Gold.Chemscore.DEClash.Weighted>
0.5294

> <Gold.Chemscore.DEInternal.Weighted>
1.3927

> <Gold.Chemscore.Rot.Weighted>
4.0371

> <Gold.Chemscore.Internal.Correction.Weighted>
   9.000000E+99

> <Gold.Protein.RotatedTorsions>
[ 6907 6896 6895 6894 ] final  160.28 input  -60.11 | X-H torsion
[ 7974 7965 7964 7962 ] final  -77.47 input  175.53 | X-H torsion
[ 8008 7997 7996 7995 ] final   19.41 input   59.86 | X-H torsion
[ 10167 10162 10161 10158 ] final   93.21 input  -65.29 | X-H torsion
[ 10718 10713 10712 10709 ] final -162.22 input   66.30 | X-H torsion
[ 10763 10752 10751 10750 ] final  176.70 input  -60.55 | X-H torsion
[ 11005 11000 10999 10996 ] final -156.65 input  -57.11 | X-H torsion

> <Gold.Protein.ActiveResidues>
 VAL166  LYS551  ARG553  GLY616  TRP617  ASP618  TYR619  PRO620  LYS621  CYS622 
 ASP623  PHE694  ASN695  SER759  ASP760  ASP761  ALA762  ILE779  LEU786  VAL792 
 PHE793  MET794  SER795  GLU796  ALA797  LYS798  CYS799  TRP800  GLU811  SER814 

> <Gold.Protein.RotatedAtoms>
  151.9731  133.3732  159.4078 H   0  0  0  0  0  0  0  0  0  0  0  0  # atno 6907 bound_to 6896
  150.6946  134.4119  159.5175 H   0  0  0  0  0  0  0  0  0  0  0  0  # atno 6908 bound_to 6896
  152.1826  134.8741  160.0575 H   0  0  0  0  0  0  0  0  0  0  0  0  # atno 6909 bound_to 6896
  145.5993  140.9412  143.1250 H   0  0  0  0  0  0  0  0  0  0  0  0  # atno 7974 bound_to 7965
  154.9203  140.3026  155.5220 H   0  0  0  0  0  0  0  0  0  0  0  0  # atno 8008 bound_to 7997
  156.3010  140.2373  156.4188 H   0  0  0  0  0  0  0  0  0  0  0  0  # atno 8009 bound_to 7997
  154.8338  140.0417  157.1483 H   0  0  0  0  0  0  0  0  0  0  0  0  # atno 8010 bound_to 7997
  139.8202  144.6734  150.9528 H   0  0  0  0  0  0  0  0  0  0  0  0  # atno 10167 bound_to 10162
  156.6074  130.8836  151.2928 H   0  0  0  0  0  0  0  0  0  0  0  0  # atno 10718 bound_to 10713
  154.4847  135.2776  155.1544 H   0  0  0  0  0  0  0  0  0  0  0  0  # atno 10763 bound_to 10752
  154.3240  135.6204  153.5524 H   0  0  0  0  0  0  0  0  0  0  0  0  # atno 10764 bound_to 10752
  152.9880  135.5749  154.5255 H   0  0  0  0  0  0  0  0  0  0  0  0  # atno 10765 bound_to 10752
  140.6732  134.4225  157.5230 H   0  0  0  0  0  0  0  0  0  0  0  0  # atno 11005 bound_to 11000
  144.7317  139.7706  143.7344 LP  0  0  0  0  0  0  0  0  0  0  0  0  # atno 17320 bound_to 7965
  146.1588  139.4696  143.0001 LP  0  0  0  0  0  0  0  0  0  0  0  0  # atno 17321 bound_to 7965
  140.7813  143.4099  151.1010 LP  0  0  0  0  0  0  0  0  0  0  0  0  # atno 17342 bound_to 10162
  139.7760  143.8425  152.3129 LP  0  0  0  0  0  0  0  0  0  0  0  0  # atno 17343 bound_to 10162
  157.7263  130.9628  150.1652 LP  0  0  0  0  0  0  0  0  0  0  0  0  # atno 17370 bound_to 10713
  156.2418  130.3692  149.8328 LP  0  0  0  0  0  0  0  0  0  0  0  0  # atno 17371 bound_to 10713
  139.8975  134.8635  156.2042 LP  0  0  0  0  0  0  0  0  0  0  0  0  # atno 17394 bound_to 11000
  141.0376  133.6955  156.1540 LP  0  0  0  0  0  0  0  0  0  0  0  0  # atno 17395 bound_to 11000

$$$$
