AV-unprocessed.smi:2353|AV-procd|sdf|9382|dock4
  -GOLD-   2272013 13D 1   1.00000     0.00000
 Structure written by MMmdl.
 46 48  0  0  0  0  0  0  0  0  2 V2000
  152.7051  143.9705  161.6157 C   0  0  0  0  0  0  0  0  0  0  0  0
  152.1879  143.4102  160.3068 C   0  0  0  0  0  0  0  0  0  0  0  0
  151.2387  144.1264  159.5523 C   0  0  0  0  0  0  0  0  0  0  0  0
  150.7682  143.6010  158.3355 C   0  0  0  0  0  0  0  0  0  0  0  0
  151.2414  142.3581  157.8664 C   0  0  0  0  0  0  0  0  0  0  0  0
  150.7207  141.8057  156.5527 C   0  0  0  0  0  0  0  0  0  0  0  0
  152.1927  141.6272  158.6153 C   0  0  0  0  0  0  0  0  0  0  0  0
  152.6118  140.4175  158.1005 O   0  0  0  0  0  0  0  0  0  0  0  0
  153.5994  139.6815  158.8097 C   0  0  0  0  0  0  0  0  0  0  0  0
  153.4654  138.1945  158.4411 C   0  0  2  0  0  0  0  0  0  0  0  0
  154.4560  137.4919  159.1673 O   0  0  0  0  0  0  0  0  0  0  0  0
  153.7197  137.9491  156.9371 C   0  0  0  0  0  0  0  0  0  0  0  0
  152.4741  137.6892  156.2054 N   0  0  0  0  0  0  0  0  0  0  0  0
  152.0037  136.3950  156.3393 N   0  0  0  0  0  0  0  0  0  0  0  0
  150.9042  136.0250  155.7652 C   0  0  0  0  0  0  0  0  0  0  0  0
  150.3615  134.6819  155.8824 N   0  0  0  0  0  0  0  0  0  0  0  0
  149.2152  134.1402  155.3518 C   0  0  0  0  0  0  0  0  0  0  0  0
  149.1779  132.8355  155.7735 C   0  0  0  0  0  0  0  0  0  0  0  0
  150.2967  132.6376  156.5392 N   0  3  0  0  0  0  0  0  0  0  0  0
  151.0184  133.7617  156.6070 C   0  0  0  0  0  0  0  0  0  0  0  0
  150.1539  136.9756  154.9590 C   0  0  0  0  0  0  0  0  0  0  0  0
  150.6212  138.2364  154.8342 C   0  0  0  0  0  0  0  0  0  0  0  0
  151.8557  138.6714  155.4856 C   0  0  0  0  0  0  0  0  0  0  0  0
  152.2961  139.8172  155.3992 O   0  0  0  0  0  0  0  0  0  0  0  0
  152.6620  142.1678  159.8397 C   0  0  0  0  0  0  0  0  0  0  0  0
  152.1251  144.8375  161.9339 H   0  0  0  0  0  0  0  0  0  0  0  0
  153.7459  144.2764  161.5086 H   0  0  0  0  0  0  0  0  0  0  0  0
  152.6473  143.2170  162.4015 H   0  0  0  0  0  0  0  0  0  0  0  0
  150.8691  145.0795  159.9017 H   0  0  0  0  0  0  0  0  0  0  0  0
  150.0407  144.1577  157.7630 H   0  0  0  0  0  0  0  0  0  0  0  0
  150.1930  140.8666  156.7217 H   0  0  0  0  0  0  0  0  0  0  0  0
  151.5466  141.6174  155.8661 H   0  0  0  0  0  0  0  0  0  0  0  0
  150.0320  142.5005  156.0713 H   0  0  0  0  0  0  0  0  0  0  0  0
  154.5808  140.0443  158.5004 H   0  0  0  0  0  0  0  0  0  0  0  0
  153.5141  139.8240  159.8887 H   0  0  0  0  0  0  0  0  0  0  0  0
  152.4733  137.8391  158.7231 H   0  0  0  0  0  0  0  0  0  0  0  0
  154.8858  136.8879  158.5814 H   0  0  0  0  0  0  0  0  0  0  0  0
  154.2064  138.8205  156.4952 H   0  0  0  0  0  0  0  0  0  0  0  0
  154.4318  137.1335  156.7956 H   0  0  0  0  0  0  0  0  0  0  0  0
  148.5225  134.6894  154.7321 H   0  0  0  0  0  0  0  0  0  0  0  0
  148.4564  132.0525  155.5902 H   0  0  0  0  0  0  0  0  0  0  0  0
  151.9430  133.8853  157.1437 H   0  0  0  0  0  0  0  0  0  0  0  0
  149.2379  136.6966  154.4626 H   0  0  0  0  0  0  0  0  0  0  0  0
  150.0679  138.9467  154.2373 H   0  0  0  0  0  0  0  0  0  0  0  0
  153.3910  141.6459  160.4409 H   0  0  0  0  0  0  0  0  0  0  0  0
  150.5438  131.7661  156.9914 H   0  0  0  0  0  0  0  0  0  0  0  0
  1  2  1  0  0  0  0
  1 26  1  0  0  0  0
  1 27  1  0  0  0  0
  1 28  1  0  0  0  0
  2 25  1  0  0  0  0
  2  3  2  0  0  0  0
  3  4  1  0  0  0  0
  3 29  1  0  0  0  0
  4  5  2  0  0  0  0
  4 30  1  0  0  0  0
  5  6  1  0  0  0  0
  5  7  1  0  0  0  0
  6 31  1  0  0  0  0
  6 32  1  0  0  0  0
  6 33  1  0  0  0  0
  7  8  1  0  0  0  0
  7 25  2  0  0  0  0
  8  9  1  0  0  0  0
  9 10  1  0  0  0  0
  9 34  1  0  0  0  0
  9 35  1  0  0  0  0
 10 11  1  0  0  0  0
 10 12  1  0  0  0  0
 10 36  1  0  0  0  0
 11 37  1  0  0  0  0
 12 13  1  0  0  0  0
 12 38  1  0  0  0  0
 12 39  1  0  0  0  0
 13 23  1  0  0  0  0
 13 14  1  0  0  0  0
 14 15  2  0  0  0  0
 15 16  1  0  0  0  0
 15 21  1  0  0  0  0
 16 20  1  0  0  0  0
 16 17  1  0  0  0  0
 17 18  2  0  0  0  0
 17 40  1  0  0  0  0
 18 19  1  0  0  0  0
 18 41  1  0  0  0  0
 19 20  2  0  0  0  0
 19 46  1  0  0  0  0
 20 42  1  0  0  0  0
 21 22  2  0  0  0  0
 21 43  1  0  0  0  0
 22 23  1  0  0  0  0
 22 44  1  0  0  0  0
 23 24  2  0  0  0  0
 25 45  1  0  0  0  0
M  CHG  1  19   1
M  END
> <s_m_source_file>
AV-unprocessed.smi

> <i_m_source_file_index>
2353

> <i_lp_mmshare_version>
43012

> <i_f3d_flags>
0

> <s_epik_input>
W0NIM11jMVtjSF1bY0hdYyhbQ0gzXSljKFtjSF0xKU9bQ0gyXVtDQEhdKFtPSF0pW0NIMl1uMm5jKFtjSF1bY0hdYzI9TyktbjNbY0hdW2NIXW5bY0hdMw==

> <s_epik_cmdline>
J2VwaWtfcHl0aG9uJywgJy1waCcsICc3LjAnLCAnLXRuJywgJzgnLCAnLW1hJywgJzIwMCcsICctbWV0YWxfYmluZGluZycsICctaW1hZScsICc8aW5maWxlLm1hZT4nLCAnLW9tYWUnLCAnPG91dGZpbGUubWFlPic=

> <r_lp_tautomer_probability>
1

> <r_epik_Ionization_Penalty>
1.66053

> <r_epik_Ionization_Penalty_Charging>
2.43903e-09

> <r_epik_Ionization_Penalty_Neutral>
1.66053

> <r_epik_State_Penalty>
1.76336

> <r_epik_Charging_Adjusted_Penalty>
1.76336

> <i_epik_Tot_Q>
1

> <i_epik_Tot_abs_Q>
1

> <r_epik_Metal_State_Penalty>
1.79856

> <b_epik_Metal_Only>
0

> <s_lp_Force_Field>
OPLS_2005

> <r_lp_Energy>
37.6947

> <b_lp_Chiralities_Consistent>
1

> <s_lp_Variant>
AV-unprocessed.smi:2353-3

> <Gold.Version>
5.8.1

> <Gold.Id.Protein>
6NUR|6NUR_protein|mol2

> <Gold.PLP.Fitness>
53.4053

> <Gold.PLP.PLP>
-45.6815

> <Gold.PLP.part.hbond>
-3.5714

> <Gold.PLP.part.metal>
0.0000

> <Gold.PLP.part.buried>
-2.7505

> <Gold.PLP.part.nonpolar>
-39.0444

> <Gold.PLP.part.repulsive>
0.0521

> <Gold.PLP.ligand.clash>
0.0000

> <Gold.PLP.ligand.torsion>
1.0483

> <Gold.PLP.Chemscore.Hbond>
2.2501

> <Gold.PLP.Chemscore.CHOScore>
1.0000

> <Gold.PLP.Chemscore.Metal>
0.0000

> <Gold.Chemscore.Hbonds>
donor molecule, donor type, donor heavy atom, donor atom, acceptor molecule, acceptor atom, score
      P1  H  7989  7998       L1    24  0.32
      P1  H  7997  8008       L1    24  0.42
      P1  H 10752 10764       L1    14  0.95

> <Gold.PLP.Chemscore.Internal.Correction>
0.0700

> <Gold.Rescore>
     Score         DG    S(hbond)    S(metal)    S(lipo)     H(rot)  DE(clash)    DE(int)     intcor
     14.65     -15.50       0.98        0.00     115.85       2.65       0.01       0.84       ----

> <Gold.Chemscore.Fitness>
14.6510

> <Gold.Chemscore.DG>
-15.5013

> <Gold.Chemscore.ZeroCoef>
-5.4800

> <Gold.Chemscore.Hbond>
0.9763

> <Gold.Chemscore.Metal>
0.0000

> <Gold.Chemscore.Lipo>
115.8460

> <Gold.Chemscore.Internal_Hbond>
0.0000

> <Gold.Chemscore.DEClash>
0.0063

> <Gold.Chemscore.DEInternal>
0.8440

> <Gold.Chemscore.Rot>
2.6537

> <Gold.Chemscore.Internal.Correction>
   9.000000E+99

> <Gold.Chemscore.Hbonds>
donor molecule, donor type, donor heavy atom, donor atom, acceptor molecule, acceptor atom, score
      P1  H  7989  7998       L1    24  0.27
      P1  H  7997  8008       L1    24  0.39
      P1  H 10752 10764       L1    14  0.05

> <Gold.Chemscore.Hbond.Weighted>
-3.2608

> <Gold.Chemscore.Metal.Weighted>
-0.0000

> <Gold.Chemscore.Lipo.Weighted>
-13.5540

> <Gold.Chemscore.Internal_Hbond.Weighted>
0.0000

> <Gold.Chemscore.DEClash.Weighted>
0.0063

> <Gold.Chemscore.DEInternal.Weighted>
0.8440

> <Gold.Chemscore.Rot.Weighted>
6.7935

> <Gold.Chemscore.Internal.Correction.Weighted>
   9.000000E+99

> <Gold.Protein.RotatedTorsions>
[ 6907 6896 6895 6894 ] final -147.81 input  -60.11 | X-H torsion
[ 7974 7965 7964 7962 ] final  177.00 input  175.53 | X-H torsion
[ 8008 7997 7996 7995 ] final  -42.86 input   59.86 | X-H torsion
[ 10167 10162 10161 10158 ] final  -99.56 input  -65.29 | X-H torsion
[ 10718 10713 10712 10709 ] final  -34.12 input   66.30 | X-H torsion
[ 10763 10752 10751 10750 ] final  -17.40 input  -60.55 | X-H torsion
[ 11005 11000 10999 10996 ] final  -51.51 input  -57.11 | X-H torsion

> <Gold.Protein.ActiveResidues>
 VAL166  LYS551  ARG553  GLY616  TRP617  ASP618  TYR619  PRO620  LYS621  CYS622 
 ASP623  PHE694  ASN695  SER759  ASP760  ASP761  ALA762  ILE779  LEU786  VAL792 
 PHE793  MET794  SER795  GLU796  ALA797  LYS798  CYS799  TRP800  GLU811  SER814 

> <Gold.Protein.RotatedAtoms>
  151.1610  133.4845  159.2594 H   0  0  0  0  0  0  0  0  0  0  0  0  # atno 6907 bound_to 6896
  151.1454  135.0200  159.8655 H   0  0  0  0  0  0  0  0  0  0  0  0  # atno 6908 bound_to 6896
  152.5463  134.1499  159.8567 H   0  0  0  0  0  0  0  0  0  0  0  0  # atno 6909 bound_to 6896
  144.7175  140.0181  143.6440 H   0  0  0  0  0  0  0  0  0  0  0  0  # atno 7974 bound_to 7965
  154.3998  140.1462  156.3425 H   0  0  0  0  0  0  0  0  0  0  0  0  # atno 8008 bound_to 7997
  155.8343  140.3464  155.5571 H   0  0  0  0  0  0  0  0  0  0  0  0  # atno 8009 bound_to 7997
  155.8154  140.0890  157.1870 H   0  0  0  0  0  0  0  0  0  0  0  0  # atno 8010 bound_to 7997
  140.2611  143.3407  152.0624 H   0  0  0  0  0  0  0  0  0  0  0  0  # atno 10167 bound_to 10162
  156.3544  130.4313  149.7677 H   0  0  0  0  0  0  0  0  0  0  0  0  # atno 10718 bound_to 10713
  153.5732  135.7007  153.5495 H   0  0  0  0  0  0  0  0  0  0  0  0  # atno 10763 bound_to 10752
  153.3326  135.4043  155.1507 H   0  0  0  0  0  0  0  0  0  0  0  0  # atno 10764 bound_to 10752
  154.8630  135.3722  154.5256 H   0  0  0  0  0  0  0  0  0  0  0  0  # atno 10765 bound_to 10752
  141.0875  133.6639  156.3888 H   0  0  0  0  0  0  0  0  0  0  0  0  # atno 11005 bound_to 11000
  146.0203  139.3245  143.0817 LP  0  0  0  0  0  0  0  0  0  0  0  0  # atno 17320 bound_to 7965
  145.8576  140.9493  143.0717 LP  0  0  0  0  0  0  0  0  0  0  0  0  # atno 17321 bound_to 7965
  139.5016  144.6718  151.6225 LP  0  0  0  0  0  0  0  0  0  0  0  0  # atno 17342 bound_to 10162
  140.5965  143.9687  150.6358 LP  0  0  0  0  0  0  0  0  0  0  0  0  # atno 17343 bound_to 10162
  156.4865  130.8065  151.3077 LP  0  0  0  0  0  0  0  0  0  0  0  0  # atno 17370 bound_to 10713
  157.7465  130.9989  150.2870 LP  0  0  0  0  0  0  0  0  0  0  0  0  # atno 17371 bound_to 10713
  140.5330  134.6194  157.5356 LP  0  0  0  0  0  0  0  0  0  0  0  0  # atno 17394 bound_to 11000
  139.9695  134.7316  156.0070 LP  0  0  0  0  0  0  0  0  0  0  0  0  # atno 17395 bound_to 11000

$$$$
