AV-unprocessed.smi:1419|AV-procd|sdf|5782|dock3
  -GOLD-   22720 5423D 1   1.00000     0.00000
 Structure written by MMmdl.
 41 42  0  0  0  0  0  0  0  0  1 V2000
  145.5528  134.0111  153.3628 C   0  0  0  0  0  0  0  0  0  0  0  0
  146.7517  133.8825  152.4138 C   0  0  2  0  0  0  0  0  0  0  0  0
  146.6629  132.6015  151.5593 C   0  0  0  0  0  0  0  0  0  0  0  0
  145.3708  132.4508  150.9135 N   0  0  0  0  0  0  0  0  0  0  0  0
  144.7988  133.2947  149.9706 C   0  0  0  0  0  0  0  0  0  0  0  0
  143.5803  132.7461  149.6401 C   0  0  0  0  0  0  0  0  0  0  0  0
  143.3797  131.5756  150.3682 N   0  0  0  0  0  0  0  0  0  0  0  0
  144.4801  131.4670  151.1009 C   0  0  0  0  0  0  0  0  0  0  0  0
  147.9866  133.8819  153.1964 N   0  0  0  0  0  0  0  0  0  0  0  0
  148.3548  132.9491  154.0917 C   0  0  0  0  0  0  0  0  0  0  0  0
  147.7205  131.9065  154.2589 O   0  0  0  0  0  0  0  0  0  0  0  0
  149.4844  133.2460  154.7798 N   0  0  0  0  0  0  0  0  0  0  0  0
  149.9981  134.5890  155.0789 C   0  0  0  0  0  0  0  0  0  0  0  0
  149.7080  134.8917  156.5620 C   0  0  2  0  0  0  0  0  0  0  0  0
  150.2569  136.2567  156.9905 C   0  0  0  0  0  0  0  0  0  0  0  0
  150.3224  133.8918  157.3790 O   0  0  0  0  0  0  0  0  0  0  0  0
  149.9636  132.5382  157.0808 C   0  0  1  0  0  0  0  0  0  0  0  0
  148.5369  132.2173  157.5627 C   0  0  0  0  0  0  0  0  0  0  0  0
  150.2014  132.2517  155.5820 C   0  0  0  0  0  0  0  0  0  0  0  0
  144.6146  134.0277  152.8077 H   0  0  0  0  0  0  0  0  0  0  0  0
  145.6080  134.9333  153.9425 H   0  0  0  0  0  0  0  0  0  0  0  0
  145.5091  133.1775  154.0649 H   0  0  0  0  0  0  0  0  0  0  0  0
  146.7280  134.7438  151.7438 H   0  0  0  0  0  0  0  0  0  0  0  0
  147.4401  132.5982  150.7933 H   0  0  0  0  0  0  0  0  0  0  0  0
  146.8333  131.7218  152.1811 H   0  0  0  0  0  0  0  0  0  0  0  0
  145.2958  134.1865  149.6178 H   0  0  0  0  0  0  0  0  0  0  0  0
  142.8385  133.1009  148.9399 H   0  0  0  0  0  0  0  0  0  0  0  0
  144.6457  130.6469  151.7841 H   0  0  0  0  0  0  0  0  0  0  0  0
  148.5797  134.6932  153.1013 H   0  0  0  0  0  0  0  0  0  0  0  0
  151.0729  134.6126  154.8927 H   0  0  0  0  0  0  0  0  0  0  0  0
  149.5768  135.3730  154.4497 H   0  0  0  0  0  0  0  0  0  0  0  0
  148.6310  134.8909  156.7326 H   0  0  0  0  0  0  0  0  0  0  0  0
  149.8039  137.0611  156.4106 H   0  0  0  0  0  0  0  0  0  0  0  0
  151.3370  136.3092  156.8508 H   0  0  0  0  0  0  0  0  0  0  0  0
  150.0471  136.4474  158.0434 H   0  0  0  0  0  0  0  0  0  0  0  0
  150.6436  131.9074  157.6539 H   0  0  0  0  0  0  0  0  0  0  0  0
  148.3063  131.1624  157.4117 H   0  0  0  0  0  0  0  0  0  0  0  0
  147.7798  132.7925  157.0324 H   0  0  0  0  0  0  0  0  0  0  0  0
  148.4291  132.4301  158.6264 H   0  0  0  0  0  0  0  0  0  0  0  0
  149.9155  131.2267  155.3411 H   0  0  0  0  0  0  0  0  0  0  0  0
  151.2671  132.3185  155.3580 H   0  0  0  0  0  0  0  0  0  0  0  0
  1  2  1  0  0  0  0
  1 20  1  0  0  0  0
  1 21  1  0  0  0  0
  1 22  1  0  0  0  0
  2  3  1  0  0  0  0
  2  9  1  0  0  0  0
  2 23  1  0  0  0  0
  3  4  1  0  0  0  0
  3 24  1  0  0  0  0
  3 25  1  0  0  0  0
  4  8  1  0  0  0  0
  4  5  1  0  0  0  0
  5  6  2  0  0  0  0
  5 26  1  0  0  0  0
  6  7  1  0  0  0  0
  6 27  1  0  0  0  0
  7  8  2  0  0  0  0
  8 28  1  0  0  0  0
  9 10  1  0  0  0  0
  9 29  1  0  0  0  0
 10 11  2  0  0  0  0
 10 12  1  0  0  0  0
 12 19  1  0  0  0  0
 12 13  1  0  0  0  0
 13 14  1  0  0  0  0
 13 30  1  0  0  0  0
 13 31  1  0  0  0  0
 14 15  1  0  0  0  0
 14 16  1  0  0  0  0
 14 32  1  0  0  0  0
 15 33  1  0  0  0  0
 15 34  1  0  0  0  0
 15 35  1  0  0  0  0
 16 17  1  0  0  0  0
 17 18  1  0  0  0  0
 17 19  1  0  0  0  0
 17 36  1  0  0  0  0
 18 37  1  0  0  0  0
 18 38  1  0  0  0  0
 18 39  1  0  0  0  0
 19 40  1  0  0  0  0
 19 41  1  0  0  0  0
M  END
> <s_m_source_file>
AV-unprocessed.smi

> <i_m_source_file_index>
1419

> <i_lp_mmshare_version>
43012

> <i_f3d_flags>
0

> <s_epik_input>
W2NIXTFuW2NIXVtjSF1uMVtDSDJdW0NAQEhdKFtDSDNdKVtOSF1DKD1PKU4yW0NIMl1bQ0BASF0oW0NIM10pT1tDQEBIXShbQ0gzXSlbQ0gyXTI=

> <s_epik_cmdline>
J2VwaWtfcHl0aG9uJywgJy1waCcsICc3LjAnLCAnLXRuJywgJzgnLCAnLW1hJywgJzIwMCcsICctbWV0YWxfYmluZGluZycsICctaW1hZScsICc8aW5maWxlLm1hZT4nLCAnLW9tYWUnLCAnPG91dGZpbGUubWFlPic=

> <r_lp_tautomer_probability>
1

> <r_epik_Ionization_Penalty>
0.625124

> <r_epik_Ionization_Penalty_Charging>
0.625093

> <r_epik_Ionization_Penalty_Neutral>
3.17415e-05

> <r_epik_State_Penalty>
0.641455

> <r_epik_Charging_Adjusted_Penalty>
1.26655

> <i_epik_Tot_Q>
0

> <i_epik_Tot_abs_Q>
0

> <r_epik_Metal_State_Penalty>
0.307717

> <b_epik_Metal_Only>
0

> <s_lp_Force_Field>
OPLS_2005

> <r_lp_Energy>
29.9288

> <b_lp_Chiralities_Consistent>
1

> <s_lp_Variant>
AV-unprocessed.smi:1419-9

> <Gold.Version>
5.8.1

> <Gold.Id.Protein>
6NUR|6NUR_protein|mol2

> <Gold.PLP.Fitness>
41.9958

> <Gold.PLP.PLP>
-29.1407

> <Gold.PLP.part.hbond>
-3.0000

> <Gold.PLP.part.metal>
0.0000

> <Gold.PLP.part.buried>
-1.0887

> <Gold.PLP.part.nonpolar>
-26.0323

> <Gold.PLP.part.repulsive>
0.7084

> <Gold.PLP.ligand.clash>
0.0000

> <Gold.PLP.ligand.torsion>
0.2518

> <Gold.PLP.Chemscore.Hbond>
2.5600

> <Gold.PLP.Chemscore.CHOScore>
1.8732

> <Gold.PLP.Chemscore.Metal>
0.0000

> <Gold.Chemscore.Hbonds>
donor molecule, donor type, donor heavy atom, donor atom, acceptor molecule, acceptor atom, score
      L1  H     9    29       P1  7948  0.83
      P1  H  6896  6908       L1    16  0.83
      P1  H 10785 10796       L1     7  0.63
      L1  C     5    26       P1  7921  1.00
      L1  C     6    27       P1 10186  0.89

> <Gold.PLP.Chemscore.Internal.Correction>
0.0591

> <Gold.Rescore>
     Score         DG    S(hbond)    S(metal)    S(lipo)     H(rot)  DE(clash)    DE(int)     intcor
     12.37     -14.91       2.10        0.00      55.15       1.58       0.65       1.88       ----

> <Gold.Chemscore.Fitness>
12.3734

> <Gold.Chemscore.DG>
-14.9073

> <Gold.Chemscore.ZeroCoef>
-5.4800

> <Gold.Chemscore.Hbond>
2.0994

> <Gold.Chemscore.Metal>
0.0000

> <Gold.Chemscore.Lipo>
55.1478

> <Gold.Chemscore.Internal_Hbond>
0.0000

> <Gold.Chemscore.DEClash>
0.6546

> <Gold.Chemscore.DEInternal>
1.8793

> <Gold.Chemscore.Rot>
1.5769

> <Gold.Chemscore.Internal.Correction>
   9.000000E+99

> <Gold.Chemscore.Hbonds>
donor molecule, donor type, donor heavy atom, donor atom, acceptor molecule, acceptor atom, score
      L1  H     9    29       P1  7948  0.28
      P1  H  6896  6908       L1    16  0.21
      P1  H 10785 10796       L1     7  0.16

> <Gold.Chemscore.Hbond.Weighted>
-7.0119

> <Gold.Chemscore.Metal.Weighted>
-0.0000

> <Gold.Chemscore.Lipo.Weighted>
-6.4523

> <Gold.Chemscore.Internal_Hbond.Weighted>
0.0000

> <Gold.Chemscore.DEClash.Weighted>
0.6546

> <Gold.Chemscore.DEInternal.Weighted>
1.8793

> <Gold.Chemscore.Rot.Weighted>
4.0369

> <Gold.Chemscore.Internal.Correction.Weighted>
   9.000000E+99

> <Gold.Protein.RotatedTorsions>
[ 6907 6896 6895 6894 ] final  111.34 input  -60.11 | X-H torsion
[ 7974 7965 7964 7962 ] final  -18.73 input  175.53 | X-H torsion
[ 8008 7997 7996 7995 ] final  -34.42 input   59.86 | X-H torsion
[ 10167 10162 10161 10158 ] final  -76.24 input  -65.29 | X-H torsion
[ 10718 10713 10712 10709 ] final   37.38 input   66.30 | X-H torsion
[ 10763 10752 10751 10750 ] final   52.71 input  -60.55 | X-H torsion
[ 11005 11000 10999 10996 ] final  -85.28 input  -57.11 | X-H torsion

> <Gold.Protein.ActiveResidues>
 VAL166  LYS551  ARG553  GLY616  TRP617  ASP618  TYR619  PRO620  LYS621  CYS622 
 ASP623  PHE694  ASN695  SER759  ASP760  ASP761  ALA762  ILE779  LEU786  VAL792 
 PHE793  MET794  SER795  GLU796  ALA797  LYS798  CYS799  TRP800  GLU811  SER814 

> <Gold.Protein.RotatedAtoms>
  152.4974  133.8671  159.7279 H   0  0  0  0  0  0  0  0  0  0  0  0  # atno 6907 bound_to 6896
  150.9168  133.6921  159.2848 H   0  0  0  0  0  0  0  0  0  0  0  0  # atno 6908 bound_to 6896
  151.4312  135.1014  159.9695 H   0  0  0  0  0  0  0  0  0  0  0  0  # atno 6909 bound_to 6896
  146.1877  140.3963  142.8470 H   0  0  0  0  0  0  0  0  0  0  0  0  # atno 7974 bound_to 7965
  154.4121  140.1684  156.2046 H   0  0  0  0  0  0  0  0  0  0  0  0  # atno 8008 bound_to 7997
  155.9495  140.3402  155.6372 H   0  0  0  0  0  0  0  0  0  0  0  0  # atno 8009 bound_to 7997
  155.6887  140.0731  157.2447 H   0  0  0  0  0  0  0  0  0  0  0  0  # atno 8010 bound_to 7997
  140.4874  143.2388  151.7962 H   0  0  0  0  0  0  0  0  0  0  0  0  # atno 10167 bound_to 10162
  157.3463  130.7574  149.6946 H   0  0  0  0  0  0  0  0  0  0  0  0  # atno 10718 bound_to 10713
  152.9790  135.5803  154.4623 H   0  0  0  0  0  0  0  0  0  0  0  0  # atno 10763 bound_to 10752
  154.4197  135.2771  155.1985 H   0  0  0  0  0  0  0  0  0  0  0  0  # atno 10764 bound_to 10752
  154.3739  135.6161  153.5808 H   0  0  0  0  0  0  0  0  0  0  0  0  # atno 10765 bound_to 10752
  141.1643  133.7391  156.8992 H   0  0  0  0  0  0  0  0  0  0  0  0  # atno 11005 bound_to 11000
  144.8428  140.6883  143.6218 LP  0  0  0  0  0  0  0  0  0  0  0  0  # atno 17320 bound_to 7965
  145.3888  139.1621  143.4240 LP  0  0  0  0  0  0  0  0  0  0  0  0  # atno 17321 bound_to 7965
  139.4844  144.4694  151.9444 LP  0  0  0  0  0  0  0  0  0  0  0  0  # atno 17342 bound_to 10162
  140.3780  144.2772  150.5912 LP  0  0  0  0  0  0  0  0  0  0  0  0  # atno 17343 bound_to 10162
  155.9715  130.4153  150.4176 LP  0  0  0  0  0  0  0  0  0  0  0  0  # atno 17370 bound_to 10713
  157.2232  131.0487  151.2534 LP  0  0  0  0  0  0  0  0  0  0  0  0  # atno 17371 bound_to 10713
  140.1595  134.9175  157.2696 LP  0  0  0  0  0  0  0  0  0  0  0  0  # atno 17394 bound_to 11000
  140.2628  134.3551  155.7400 LP  0  0  0  0  0  0  0  0  0  0  0  0  # atno 17395 bound_to 11000

$$$$
