AV-unprocessed.smi:2616|AV-procd|sdf|10216|dock9
  -GOLD-   2272014223D 1   1.00000     0.00000
 Structure written by MMmdl.
 26 27  0  0  0  0  0  0  0  0  2 V2000
  147.6547  137.2529  160.7014 O   0  0  0  0  0  0  0  0  0  0  0  0
  148.3539  136.5488  159.9414 C   0  0  0  0  0  0  0  0  0  0  0  0
  148.3356  135.2994  160.0324 O   0  5  0  0  0  0  0  0  0  0  0  0
  149.2459  137.1822  158.8908 C   0  0  0  0  0  0  0  0  0  0  0  0
  150.5400  136.7816  158.9425 N   0  0  0  0  0  0  0  0  0  0  0  0
  151.4256  137.2759  158.0611 C   0  0  0  0  0  0  0  0  0  0  0  0
  151.0819  138.2031  157.0666 C   0  0  0  0  0  0  0  0  0  0  0  0
  152.2991  138.7778  155.9793 Cl  0  0  0  0  0  0  0  0  0  0  0  0
  149.7419  138.6414  156.9842 C   0  0  0  0  0  0  0  0  0  0  0  0
  149.4160  139.5716  155.9818 N   0  0  0  0  0  0  0  0  0  0  0  0
  150.1051  140.8534  156.0152 C   0  0  0  0  0  0  0  0  0  0  0  0
  149.3560  141.8596  155.1245 C   0  0  0  0  0  0  0  0  0  0  0  0
  149.2039  141.3217  153.8123 O   0  0  0  0  0  0  0  0  0  0  0  0
  148.4418  140.1163  153.8076 C   0  0  0  0  0  0  0  0  0  0  0  0
  149.1572  139.0457  154.6495 C   0  0  0  0  0  0  0  0  0  0  0  0
  148.7932  138.1255  157.9133 C   0  0  0  0  0  0  0  0  0  0  0  0
  147.1403  138.6553  157.8211 Cl  0  0  0  0  0  0  0  0  0  0  0  0
  152.4409  136.9192  158.1536 H   0  0  0  0  0  0  0  0  0  0  0  0
  150.1603  141.2230  157.0398 H   0  0  0  0  0  0  0  0  0  0  0  0
  151.1273  140.7392  155.6560 H   0  0  0  0  0  0  0  0  0  0  0  0
  148.3775  142.0965  155.5451 H   0  0  0  0  0  0  0  0  0  0  0  0
  149.9118  142.7952  155.0643 H   0  0  0  0  0  0  0  0  0  0  0  0
  147.4395  140.3080  154.1943 H   0  0  0  0  0  0  0  0  0  0  0  0
  148.3258  139.7710  152.7804 H   0  0  0  0  0  0  0  0  0  0  0  0
  150.0940  138.7684  154.1675 H   0  0  0  0  0  0  0  0  0  0  0  0
  148.5460  138.1448  154.7145 H   0  0  0  0  0  0  0  0  0  0  0  0
  1  2  2  0  0  0  0
  2  3  1  0  0  0  0
  2  4  1  0  0  0  0
  4 16  1  0  0  0  0
  4  5  2  0  0  0  0
  5  6  1  0  0  0  0
  6  7  2  0  0  0  0
  6 18  1  0  0  0  0
  7  8  1  0  0  0  0
  7  9  1  0  0  0  0
  9 10  1  0  0  0  0
  9 16  2  0  0  0  0
 10 15  1  0  0  0  0
 10 11  1  0  0  0  0
 11 12  1  0  0  0  0
 11 19  1  0  0  0  0
 11 20  1  0  0  0  0
 12 13  1  0  0  0  0
 12 21  1  0  0  0  0
 12 22  1  0  0  0  0
 13 14  1  0  0  0  0
 14 15  1  0  0  0  0
 14 23  1  0  0  0  0
 14 24  1  0  0  0  0
 15 25  1  0  0  0  0
 15 26  1  0  0  0  0
 16 17  1  0  0  0  0
M  CHG  1   3  -1
M  END
> <s_m_source_file>
AV-unprocessed.smi

> <i_m_source_file_index>
2616

> <i_lp_mmshare_version>
43012

> <i_f3d_flags>
0

> <s_epik_input>
Tz1DKFtPSF0pYzFuW2NIXWMoQ2wpYyhjMUNsKU4yW0NIMl1bQ0gyXU9bQ0gyXVtDSDJdMg==

> <s_epik_cmdline>
J2VwaWtfcHl0aG9uJywgJy1waCcsICc3LjAnLCAnLXRuJywgJzgnLCAnLW1hJywgJzIwMCcsICctbWV0YWxfYmluZGluZycsICctaW1hZScsICc8aW5maWxlLm1hZT4nLCAnLW9tYWUnLCAnPG91dGZpbGUubWFlPic=

> <r_epik_Ionization_Penalty>
0.00232884

> <r_epik_Ionization_Penalty_Charging>
7.03121e-06

> <r_epik_Ionization_Penalty_Neutral>
0.00232181

> <r_epik_State_Penalty>
0.00160212

> <r_epik_Charging_Adjusted_Penalty>
0.00160915

> <i_epik_Tot_Q>
-1

> <i_epik_Tot_abs_Q>
1

> <r_epik_Metal_State_Penalty>
-0

> <b_epik_Metal_Only>
0

> <s_lp_Force_Field>
OPLS_2005

> <r_lp_Energy>
33.645

> <b_lp_Chiralities_Consistent>
1

> <s_lp_Variant>
AV-unprocessed.smi:2616-1

> <Gold.Version>
5.8.1

> <Gold.Id.Protein>
6NUR|6NUR_protein|mol2

> <Gold.PLP.Fitness>
33.5829

> <Gold.PLP.PLP>
-20.0052

> <Gold.PLP.part.hbond>
-5.0000

> <Gold.PLP.part.metal>
0.0000

> <Gold.PLP.part.buried>
-0.1732

> <Gold.PLP.part.nonpolar>
-16.2938

> <Gold.PLP.part.repulsive>
1.2162

> <Gold.PLP.ligand.clash>
0.0000

> <Gold.PLP.ligand.torsion>
1.2839

> <Gold.PLP.Chemscore.Hbond>
5.2240

> <Gold.PLP.Chemscore.CHOScore>
0.0000

> <Gold.PLP.Chemscore.Metal>
0.0000

> <Gold.Chemscore.Hbonds>
donor molecule, donor type, donor heavy atom, donor atom, acceptor molecule, acceptor atom, score
      P1  H  6896  6909       L1     5  0.98
      P1  H  6931  6943       L1     1  1.35
      P1  H  6934  6947       L1     1  1.89
      P1  H  8011  8017       L1    13  0.83

> <Gold.PLP.Chemscore.Internal.Correction>
0.4736

> <Gold.Rescore>
     Score         DG    S(hbond)    S(metal)    S(lipo)     H(rot)  DE(clash)    DE(int)     intcor
     15.20     -18.42       3.01        0.00      46.49       1.00       1.09       2.14       ----

> <Gold.Chemscore.Fitness>
15.1960

> <Gold.Chemscore.DG>
-18.4203

> <Gold.Chemscore.ZeroCoef>
-5.4800

> <Gold.Chemscore.Hbond>
3.0123

> <Gold.Chemscore.Metal>
0.0000

> <Gold.Chemscore.Lipo>
46.4884

> <Gold.Chemscore.Internal_Hbond>
0.0000

> <Gold.Chemscore.DEClash>
1.0893

> <Gold.Chemscore.DEInternal>
2.1351

> <Gold.Chemscore.Rot>
1.0000

> <Gold.Chemscore.Internal.Correction>
   9.000000E+99

> <Gold.Chemscore.Hbonds>
donor molecule, donor type, donor heavy atom, donor atom, acceptor molecule, acceptor atom, score
      P1  H  6896  6909       L1     5  0.80
      P1  H  6931  6943       L1     1  0.33
      P1  H  6934  6947       L1     1  0.91
      P1  H  8011  8017       L1    13  0.76

> <Gold.Chemscore.Hbond.Weighted>
-10.0612

> <Gold.Chemscore.Metal.Weighted>
-0.0000

> <Gold.Chemscore.Lipo.Weighted>
-5.4391

> <Gold.Chemscore.Internal_Hbond.Weighted>
0.0000

> <Gold.Chemscore.DEClash.Weighted>
1.0893

> <Gold.Chemscore.DEInternal.Weighted>
2.1351

> <Gold.Chemscore.Rot.Weighted>
2.5600

> <Gold.Chemscore.Internal.Correction.Weighted>
   9.000000E+99

> <Gold.Protein.RotatedTorsions>
[ 6907 6896 6895 6894 ] final   75.69 input  -60.11 | X-H torsion
[ 7974 7965 7964 7962 ] final   94.82 input  175.53 | X-H torsion
[ 8008 7997 7996 7995 ] final  168.48 input   59.86 | X-H torsion
[ 10167 10162 10161 10158 ] final  165.78 input  -65.29 | X-H torsion
[ 10718 10713 10712 10709 ] final  -21.82 input   66.30 | X-H torsion
[ 10763 10752 10751 10750 ] final  -89.63 input  -60.55 | X-H torsion
[ 11005 11000 10999 10996 ] final   96.19 input  -57.11 | X-H torsion

> <Gold.Protein.ActiveResidues>
 VAL166  LYS551  ARG553  GLY616  TRP617  ASP618  TYR619  PRO620  LYS621  CYS622 
 ASP623  PHE694  ASN695  SER759  ASP760  ASP761  ALA762  ILE779  LEU786  VAL792 
 PHE793  MET794  SER795  GLU796  ALA797  LYS798  CYS799  TRP800  GLU811  SER814 

> <Gold.Protein.RotatedAtoms>
  152.5038  134.4082  159.9439 H   0  0  0  0  0  0  0  0  0  0  0  0  # atno 6907 bound_to 6896
  151.4049  133.3739  159.2744 H   0  0  0  0  0  0  0  0  0  0  0  0  # atno 6908 bound_to 6896
  150.9334  134.8770  159.7625 H   0  0  0  0  0  0  0  0  0  0  0  0  # atno 6909 bound_to 6896
  145.4604  139.2287  143.2990 H   0  0  0  0  0  0  0  0  0  0  0  0  # atno 7974 bound_to 7965
  156.1543  140.1589  156.8719 H   0  0  0  0  0  0  0  0  0  0  0  0  # atno 8008 bound_to 7997
  154.5100  140.0803  156.8007 H   0  0  0  0  0  0  0  0  0  0  0  0  # atno 8009 bound_to 7997
  155.3835  140.3406  155.4250 H   0  0  0  0  0  0  0  0  0  0  0  0  # atno 8010 bound_to 7997
  139.4912  144.4096  151.9314 H   0  0  0  0  0  0  0  0  0  0  0  0  # atno 10167 bound_to 10162
  156.5129  130.4614  149.6638 H   0  0  0  0  0  0  0  0  0  0  0  0  # atno 10718 bound_to 10713
  154.6573  135.5334  153.7974 H   0  0  0  0  0  0  0  0  0  0  0  0  # atno 10763 bound_to 10752
  153.0421  135.6497  154.0926 H   0  0  0  0  0  0  0  0  0  0  0  0  # atno 10764 bound_to 10752
  154.0838  135.2945  155.3265 H   0  0  0  0  0  0  0  0  0  0  0  0  # atno 10765 bound_to 10752
  139.8783  134.8938  156.4122 H   0  0  0  0  0  0  0  0  0  0  0  0  # atno 11005 bound_to 11000
  146.2454  140.5372  142.8916 LP  0  0  0  0  0  0  0  0  0  0  0  0  # atno 17320 bound_to 7965
  144.8006  140.6206  143.6480 LP  0  0  0  0  0  0  0  0  0  0  0  0  # atno 17321 bound_to 7965
  140.3537  144.3057  150.5945 LP  0  0  0  0  0  0  0  0  0  0  0  0  # atno 17342 bound_to 10162
  140.5463  143.2214  151.8002 LP  0  0  0  0  0  0  0  0  0  0  0  0  # atno 17343 bound_to 10162
  156.3223  130.7287  151.2201 LP  0  0  0  0  0  0  0  0  0  0  0  0  # atno 17370 bound_to 10713
  157.7448  131.0452  150.4833 LP  0  0  0  0  0  0  0  0  0  0  0  0  # atno 17371 bound_to 10713
  140.9192  133.7657  155.9886 LP  0  0  0  0  0  0  0  0  0  0  0  0  # atno 17394 bound_to 11000
  140.8458  134.3012  157.5295 LP  0  0  0  0  0  0  0  0  0  0  0  0  # atno 17395 bound_to 11000

$$$$
