AV-unprocessed.smi:1999|AV-procd|sdf|8092|dock10
  -GOLD-   2272010313D 1   1.00000     0.00000
 Structure written by MMmdl.
 38 39  0  0  0  0  0  0  0  0  1 V2000
  143.4800  132.7245  150.6209 C   0  0  0  0  0  0  0  0  0  0  0  0
  144.0871  133.9710  151.1678 C   0  0  0  0  0  0  0  0  0  0  0  0
  143.3725  134.9093  151.8010 N   0  0  0  0  0  0  0  0  0  0  0  0
  144.1577  135.9722  152.2248 N   0  0  0  0  0  0  0  0  0  0  0  0
  145.4465  135.8025  151.8989 C   0  0  0  0  0  0  0  0  0  0  0  0
  146.4704  136.7330  152.2175 N   0  0  0  0  0  0  0  0  0  0  0  0
  146.4046  137.7961  153.0382 C   0  0  0  0  0  0  0  0  0  0  0  0
  145.3991  138.1663  153.6451 O   0  0  0  0  0  0  0  0  0  0  0  0
  147.5910  138.4158  153.1235 N   0  0  0  0  0  0  0  0  0  0  0  0
  147.8842  139.5742  153.9630 C   0  0  2  0  0  0  0  0  0  0  0  0
  146.9902  140.7576  153.5535 C   0  0  0  0  0  0  0  0  0  0  0  0
  149.3850  139.9059  153.8331 C   0  0  0  0  0  0  0  0  0  0  0  0
  150.2312  139.4729  154.9455 N   0  0  0  0  0  0  0  0  0  0  0  0
  151.3711  138.6693  154.5068 C   0  0  0  0  0  0  0  0  0  0  0  0
  152.2706  138.2548  155.6844 C   0  0  0  0  0  0  0  0  0  0  0  0
  152.7048  139.4131  156.3890 O   0  0  0  0  0  0  0  0  0  0  0  0
  151.6200  140.1957  156.8760 C   0  0  0  0  0  0  0  0  0  0  0  0
  150.7254  140.6206  155.6993 C   0  0  0  0  0  0  0  0  0  0  0  0
  145.8065  134.3183  151.0334 S   0  0  0  0  0  0  0  0  0  0  0  0
  142.3915  132.7915  150.6274 H   0  0  0  0  0  0  0  0  0  0  0  0
  143.7815  131.8686  151.2248 H   0  0  0  0  0  0  0  0  0  0  0  0
  143.8131  132.5656  149.5953 H   0  0  0  0  0  0  0  0  0  0  0  0
  147.3657  136.5543  151.7877 H   0  0  0  0  0  0  0  0  0  0  0  0
  148.3593  138.0440  152.5845 H   0  0  0  0  0  0  0  0  0  0  0  0
  147.6625  139.3058  154.9962 H   0  0  0  0  0  0  0  0  0  0  0  0
  147.1717  141.6261  154.1872 H   0  0  0  0  0  0  0  0  0  0  0  0
  145.9331  140.5060  153.6453 H   0  0  0  0  0  0  0  0  0  0  0  0
  147.1736  141.0562  152.5208 H   0  0  0  0  0  0  0  0  0  0  0  0
  149.7693  139.4783  152.9056 H   0  0  0  0  0  0  0  0  0  0  0  0
  149.4774  140.9871  153.7191 H   0  0  0  0  0  0  0  0  0  0  0  0
  151.0296  137.7668  154.0016 H   0  0  0  0  0  0  0  0  0  0  0  0
  151.9623  139.2304  153.7814 H   0  0  0  0  0  0  0  0  0  0  0  0
  151.7350  137.5883  156.3620 H   0  0  0  0  0  0  0  0  0  0  0  0
  153.1426  137.7103  155.3215 H   0  0  0  0  0  0  0  0  0  0  0  0
  151.0492  139.6240  157.6095 H   0  0  0  0  0  0  0  0  0  0  0  0
  152.0144  141.0730  157.3890 H   0  0  0  0  0  0  0  0  0  0  0  0
  151.2900  141.2813  155.0395 H   0  0  0  0  0  0  0  0  0  0  0  0
  149.8856  141.2034  156.0795 H   0  0  0  0  0  0  0  0  0  0  0  0
  1  2  1  0  0  0  0
  1 20  1  0  0  0  0
  1 21  1  0  0  0  0
  1 22  1  0  0  0  0
  2 19  1  0  0  0  0
  2  3  2  0  0  0  0
  3  4  1  0  0  0  0
  4  5  2  0  0  0  0
  5  6  1  0  0  0  0
  5 19  1  0  0  0  0
  6  7  1  0  0  0  0
  6 23  1  0  0  0  0
  7  8  2  0  0  0  0
  7  9  1  0  0  0  0
  9 10  1  0  0  0  0
  9 24  1  0  0  0  0
 10 11  1  0  0  0  0
 10 12  1  0  0  0  0
 10 25  1  0  0  0  0
 11 26  1  0  0  0  0
 11 27  1  0  0  0  0
 11 28  1  0  0  0  0
 12 13  1  0  0  0  0
 12 29  1  0  0  0  0
 12 30  1  0  0  0  0
 13 18  1  0  0  0  0
 13 14  1  0  0  0  0
 14 15  1  0  0  0  0
 14 31  1  0  0  0  0
 14 32  1  0  0  0  0
 15 16  1  0  0  0  0
 15 33  1  0  0  0  0
 15 34  1  0  0  0  0
 16 17  1  0  0  0  0
 17 18  1  0  0  0  0
 17 35  1  0  0  0  0
 17 36  1  0  0  0  0
 18 37  1  0  0  0  0
 18 38  1  0  0  0  0
M  END
> <s_m_source_file>
AV-unprocessed.smi

> <i_m_source_file_index>
1999

> <i_lp_mmshare_version>
43012

> <i_f3d_flags>
0

> <s_epik_input>
W0NIM11jMW5uYyhzMSlbTkhdQyg9TylbTkhdW0NASF0oW0NIM10pW0NIMl1OMltDSDJdW0NIMl1PW0NIMl1bQ0gyXTI=

> <s_epik_cmdline>
J2VwaWtfcHl0aG9uJywgJy1waCcsICc3LjAnLCAnLXRuJywgJzgnLCAnLW1hJywgJzIwMCcsICctbWV0YWxfYmluZGluZycsICctaW1hZScsICc8aW5maWxlLm1hZT4nLCAnLW9tYWUnLCAnPG91dGZpbGUubWFlPic=

> <r_lp_tautomer_probability>
1

> <r_epik_Ionization_Penalty>
0.221412

> <r_epik_Ionization_Penalty_Charging>
0

> <r_epik_Ionization_Penalty_Neutral>
0.221412

> <r_epik_State_Penalty>
0.209349

> <r_epik_Charging_Adjusted_Penalty>
0.209349

> <i_epik_Tot_Q>
0

> <i_epik_Tot_abs_Q>
0

> <r_epik_Metal_State_Penalty>
0.56886

> <b_epik_Metal_Only>
0

> <s_lp_Force_Field>
OPLS_2005

> <r_lp_Energy>
22.1143

> <b_lp_Chiralities_Consistent>
1

> <s_lp_Variant>
AV-unprocessed.smi:1999-1

> <Gold.Version>
5.8.1

> <Gold.Id.Protein>
6NUR|6NUR_protein|mol2

> <Gold.PLP.Fitness>
34.5947

> <Gold.PLP.PLP>
-28.9450

> <Gold.PLP.part.hbond>
-3.2607

> <Gold.PLP.part.metal>
0.0000

> <Gold.PLP.part.buried>
-0.8393

> <Gold.PLP.part.nonpolar>
-25.4238

> <Gold.PLP.part.repulsive>
0.6437

> <Gold.PLP.ligand.clash>
0.0000

> <Gold.PLP.ligand.torsion>
1.3649

> <Gold.PLP.Chemscore.Hbond>
2.7840

> <Gold.PLP.Chemscore.CHOScore>
0.0000

> <Gold.PLP.Chemscore.Metal>
0.0000

> <Gold.Chemscore.Hbonds>
donor molecule, donor type, donor heavy atom, donor atom, acceptor molecule, acceptor atom, score
      L1  H     6    23       P1  7948  1.00
      L1  H     9    24       P1  7948  0.78
      P1  H  7997  8008       L1    16  1.00

> <Gold.PLP.Chemscore.Internal.Correction>
0.0275

> <Gold.Rescore>
     Score         DG    S(hbond)    S(metal)    S(lipo)     H(rot)  DE(clash)    DE(int)     intcor
     14.36     -18.57       2.68        0.00      69.91       1.58       1.57       2.64       ----

> <Gold.Chemscore.Fitness>
14.3617

> <Gold.Chemscore.DG>
-18.5709

> <Gold.Chemscore.ZeroCoef>
-5.4800

> <Gold.Chemscore.Hbond>
2.6842

> <Gold.Chemscore.Metal>
0.0000

> <Gold.Chemscore.Lipo>
69.9122

> <Gold.Chemscore.Internal_Hbond>
0.0000

> <Gold.Chemscore.DEClash>
1.5654

> <Gold.Chemscore.DEInternal>
2.6437

> <Gold.Chemscore.Rot>
1.5837

> <Gold.Chemscore.Internal.Correction>
   9.000000E+99

> <Gold.Chemscore.Hbonds>
donor molecule, donor type, donor heavy atom, donor atom, acceptor molecule, acceptor atom, score
      L1  H     6    23       P1  7948  0.96
      L1  H     9    24       P1  7948  0.73
      P1  H  7997  8008       L1    16  0.97

> <Gold.Chemscore.Hbond.Weighted>
-8.9653

> <Gold.Chemscore.Metal.Weighted>
-0.0000

> <Gold.Chemscore.Lipo.Weighted>
-8.1797

> <Gold.Chemscore.Internal_Hbond.Weighted>
0.0000

> <Gold.Chemscore.DEClash.Weighted>
1.5654

> <Gold.Chemscore.DEInternal.Weighted>
2.6437

> <Gold.Chemscore.Rot.Weighted>
4.0542

> <Gold.Chemscore.Internal.Correction.Weighted>
   9.000000E+99

> <Gold.Protein.RotatedTorsions>
[ 6907 6896 6895 6894 ] final  138.08 input  -60.11 | X-H torsion
[ 7974 7965 7964 7962 ] final    4.72 input  175.53 | X-H torsion
[ 8008 7997 7996 7995 ] final  -33.98 input   59.86 | X-H torsion
[ 10167 10162 10161 10158 ] final   72.29 input  -65.29 | X-H torsion
[ 10718 10713 10712 10709 ] final  -45.85 input   66.30 | X-H torsion
[ 10763 10752 10751 10750 ] final   -3.84 input  -60.55 | X-H torsion
[ 11005 11000 10999 10996 ] final -157.52 input  -57.11 | X-H torsion

> <Gold.Protein.ActiveResidues>
 VAL166  LYS551  ARG553  GLY616  TRP617  ASP618  TYR619  PRO620  LYS621  CYS622 
 ASP623  PHE694  ASN695  SER759  ASP760  ASP761  ALA762  ILE779  LEU786  VAL792 
 PHE793  MET794  SER795  GLU796  ALA797  LYS798  CYS799  TRP800  GLU811  SER814 

> <Gold.Protein.RotatedAtoms>
  152.2707  133.5379  159.5436 H   0  0  0  0  0  0  0  0  0  0  0  0  # atno 6907 bound_to 6896
  150.7158  134.0702  159.3871 H   0  0  0  0  0  0  0  0  0  0  0  0  # atno 6908 bound_to 6896
  151.8617  135.0522  160.0521 H   0  0  0  0  0  0  0  0  0  0  0  0  # atno 6909 bound_to 6896
  146.2443  140.0492  142.8376 H   0  0  0  0  0  0  0  0  0  0  0  0  # atno 7974 bound_to 7965
  154.4133  140.1696  156.1976 H   0  0  0  0  0  0  0  0  0  0  0  0  # atno 8008 bound_to 7997
  155.9551  140.3398  155.6418 H   0  0  0  0  0  0  0  0  0  0  0  0  # atno 8009 bound_to 7997
  155.6820  140.0724  157.2472 H   0  0  0  0  0  0  0  0  0  0  0  0  # atno 8010 bound_to 7997
  140.0368  144.5421  150.7464 H   0  0  0  0  0  0  0  0  0  0  0  0  # atno 10167 bound_to 10162
  156.2241  130.4168  149.8955 H   0  0  0  0  0  0  0  0  0  0  0  0  # atno 10718 bound_to 10713
  153.3768  135.6997  153.6595 H   0  0  0  0  0  0  0  0  0  0  0  0  # atno 10763 bound_to 10752
  153.5223  135.3609  155.2638 H   0  0  0  0  0  0  0  0  0  0  0  0  # atno 10764 bound_to 10752
  154.8688  135.4161  154.3058 H   0  0  0  0  0  0  0  0  0  0  0  0  # atno 10765 bound_to 10752
  140.6637  134.4321  157.5234 H   0  0  0  0  0  0  0  0  0  0  0  0  # atno 11005 bound_to 11000
  145.0999  140.9339  143.4719 LP  0  0  0  0  0  0  0  0  0  0  0  0  # atno 17320 bound_to 7965
  145.0683  139.3051  143.5845 LP  0  0  0  0  0  0  0  0  0  0  0  0  # atno 17321 bound_to 7965
  140.7278  143.2655  151.4060 LP  0  0  0  0  0  0  0  0  0  0  0  0  # atno 17342 bound_to 10162
  139.6039  144.1237  152.2228 LP  0  0  0  0  0  0  0  0  0  0  0  0  # atno 17343 bound_to 10162
  156.6592  130.8775  151.3544 LP  0  0  0  0  0  0  0  0  0  0  0  0  # atno 17370 bound_to 10713
  157.7102  130.9431  150.1063 LP  0  0  0  0  0  0  0  0  0  0  0  0  # atno 17371 bound_to 10713
  139.9004  134.8569  156.1920 LP  0  0  0  0  0  0  0  0  0  0  0  0  # atno 17394 bound_to 11000
  141.0445  133.6920  156.1658 LP  0  0  0  0  0  0  0  0  0  0  0  0  # atno 17395 bound_to 11000

$$$$
