AV-unprocessed.smi:614|AV-procd|sdf|3069|dock5
  -GOLD-   2262023593D 1   1.00000     0.00000
 Structure written by MMmdl.
 44 45  0  0  0  0  0  0  0  0  1 V2000
  144.4546  132.3543  149.9590 C   0  0  0  0  0  0  0  0  0  0  0  0
  144.5599  133.5336  150.7907 N   0  0  0  0  0  0  0  0  0  0  0  0
  143.5648  134.1845  151.4914 C   0  0  0  0  0  0  0  0  0  0  0  0
  144.1400  135.2477  152.1278 C   0  0  0  0  0  0  0  0  0  0  0  0
  145.5074  135.1563  151.7468 C   0  0  0  0  0  0  0  0  0  0  0  0
  146.4519  136.1083  152.2097 N   0  0  0  0  0  0  0  0  0  0  0  0
  146.2445  137.1194  153.0703 C   0  0  0  0  0  0  0  0  0  0  0  0
  145.1580  137.4040  153.5726 O   0  0  0  0  0  0  0  0  0  0  0  0
  147.3866  137.7878  153.3060 N   0  0  0  0  0  0  0  0  0  0  0  0
  147.6187  138.9402  154.1905 C   0  0  2  0  0  0  0  0  0  0  0  0
  147.0127  138.5034  155.5450 C   0  0  0  0  0  0  0  0  0  0  0  0
  146.7702  140.1495  153.6906 C   0  0  0  0  0  0  0  0  0  0  0  0
  146.9509  140.4621  152.3239 O   0  0  0  0  0  0  0  0  0  0  0  0
  149.1507  139.2615  154.3425 C   0  0  0  0  0  0  0  0  0  0  0  0
  150.0546  138.0095  154.4889 C   0  0  0  0  0  0  0  0  0  0  0  0
  151.5457  138.3844  154.5110 C   0  0  0  0  0  0  0  0  0  0  0  0
  151.8524  139.3929  155.6274 C   0  0  0  0  0  0  0  0  0  0  0  0
  150.9634  140.6386  155.5024 C   0  0  0  0  0  0  0  0  0  0  0  0
  149.4736  140.2597  155.4834 C   0  0  0  0  0  0  0  0  0  0  0  0
  145.7606  134.1299  150.9462 N   0  0  0  0  0  0  0  0  0  0  0  0
  143.4266  131.9906  149.9533 H   0  0  0  0  0  0  0  0  0  0  0  0
  145.1062  131.5705  150.3460 H   0  0  0  0  0  0  0  0  0  0  0  0
  144.7508  132.5960  148.9378 H   0  0  0  0  0  0  0  0  0  0  0  0
  142.5408  133.8410  151.4780 H   0  0  0  0  0  0  0  0  0  0  0  0
  143.6570  135.9745  152.7638 H   0  0  0  0  0  0  0  0  0  0  0  0
  147.3912  135.9991  151.8576 H   0  0  0  0  0  0  0  0  0  0  0  0
  148.2056  137.4545  152.8194 H   0  0  0  0  0  0  0  0  0  0  0  0
  147.0841  139.2843  156.3015 H   0  0  0  0  0  0  0  0  0  0  0  0
  147.4942  137.6113  155.9452 H   0  0  0  0  0  0  0  0  0  0  0  0
  145.9525  138.2678  155.4407 H   0  0  0  0  0  0  0  0  0  0  0  0
  145.7084  139.9903  153.8838 H   0  0  0  0  0  0  0  0  0  0  0  0
  147.0423  141.0503  154.2418 H   0  0  0  0  0  0  0  0  0  0  0  0
  147.8098  140.1710  152.0590 H   0  0  0  0  0  0  0  0  0  0  0  0
  149.4713  139.7467  153.4204 H   0  0  0  0  0  0  0  0  0  0  0  0
  149.8146  137.4736  155.4070 H   0  0  0  0  0  0  0  0  0  0  0  0
  149.8867  137.3098  153.6706 H   0  0  0  0  0  0  0  0  0  0  0  0
  152.1520  137.4883  154.6449 H   0  0  0  0  0  0  0  0  0  0  0  0
  151.8296  138.8081  153.5470 H   0  0  0  0  0  0  0  0  0  0  0  0
  151.6911  138.9242  156.5990 H   0  0  0  0  0  0  0  0  0  0  0  0
  152.9036  139.6800  155.5917 H   0  0  0  0  0  0  0  0  0  0  0  0
  151.1625  141.3204  156.3297 H   0  0  0  0  0  0  0  0  0  0  0  0
  151.2154  141.1790  154.5891 H   0  0  0  0  0  0  0  0  0  0  0  0
  148.8826  141.1693  155.3809 H   0  0  0  0  0  0  0  0  0  0  0  0
  149.2120  139.8298  156.4499 H   0  0  0  0  0  0  0  0  0  0  0  0
  1  2  1  0  0  0  0
  1 21  1  0  0  0  0
  1 22  1  0  0  0  0
  1 23  1  0  0  0  0
  2 20  1  0  0  0  0
  2  3  1  0  0  0  0
  3  4  2  0  0  0  0
  3 24  1  0  0  0  0
  4  5  1  0  0  0  0
  4 25  1  0  0  0  0
  5  6  1  0  0  0  0
  5 20  2  0  0  0  0
  6  7  1  0  0  0  0
  6 26  1  0  0  0  0
  7  8  2  0  0  0  0
  7  9  1  0  0  0  0
  9 10  1  0  0  0  0
  9 27  1  0  0  0  0
 10 11  1  0  0  0  0
 10 12  1  0  0  0  0
 10 14  1  0  0  0  0
 11 28  1  0  0  0  0
 11 29  1  0  0  0  0
 11 30  1  0  0  0  0
 12 13  1  0  0  0  0
 12 31  1  0  0  0  0
 12 32  1  0  0  0  0
 13 33  1  0  0  0  0
 14 19  1  0  0  0  0
 14 15  1  0  0  0  0
 14 34  1  0  0  0  0
 15 16  1  0  0  0  0
 15 35  1  0  0  0  0
 15 36  1  0  0  0  0
 16 17  1  0  0  0  0
 16 37  1  0  0  0  0
 16 38  1  0  0  0  0
 17 18  1  0  0  0  0
 17 39  1  0  0  0  0
 17 40  1  0  0  0  0
 18 19  1  0  0  0  0
 18 41  1  0  0  0  0
 18 42  1  0  0  0  0
 19 43  1  0  0  0  0
 19 44  1  0  0  0  0
M  END
> <s_m_source_file>
AV-unprocessed.smi

> <i_m_source_file_index>
614

> <i_lp_mmshare_version>
43012

> <i_f3d_flags>
0

> <s_epik_input>
W0NIM11uMVtjSF1bY0hdYyhuMSlbTkhdQyg9TylbTkhdW0NAQF0oW0NIM10pKFtDSDJdW09IXSlbQ0hdMltDSDJdW0NIMl1bQ0gyXVtDSDJdW0NIMl0y

> <s_epik_cmdline>
J2VwaWtfcHl0aG9uJywgJy1waCcsICc3LjAnLCAnLXRuJywgJzgnLCAnLW1hJywgJzIwMCcsICctbWV0YWxfYmluZGluZycsICctaW1hZScsICc8aW5maWxlLm1hZT4nLCAnLW9tYWUnLCAnPG91dGZpbGUubWFlPic=

> <r_lp_tautomer_probability>
1

> <r_epik_Ionization_Penalty>
3.66621e-05

> <r_epik_Ionization_Penalty_Charging>
0

> <r_epik_Ionization_Penalty_Neutral>
3.66621e-05

> <r_epik_State_Penalty>
-0

> <r_epik_Charging_Adjusted_Penalty>
0

> <i_epik_Tot_Q>
0

> <i_epik_Tot_abs_Q>
0

> <r_epik_Metal_State_Penalty>
-0

> <b_epik_Metal_Only>
0

> <s_lp_Force_Field>
OPLS_2005

> <r_lp_Energy>
19.716

> <b_lp_Chiralities_Consistent>
1

> <s_lp_Variant>
AV-unprocessed.smi:614-2

> <Gold.Version>
5.8.1

> <Gold.Id.Protein>
6NUR|6NUR_protein|mol2

> <Gold.PLP.Fitness>
42.4955

> <Gold.PLP.PLP>
-31.8388

> <Gold.PLP.part.hbond>
-3.0545

> <Gold.PLP.part.metal>
0.0000

> <Gold.PLP.part.buried>
-3.1616

> <Gold.PLP.part.nonpolar>
-25.7332

> <Gold.PLP.part.repulsive>
0.3770

> <Gold.PLP.ligand.clash>
0.0000

> <Gold.PLP.ligand.torsion>
0.4515

> <Gold.PLP.Chemscore.Hbond>
2.9760

> <Gold.PLP.Chemscore.CHOScore>
0.8396

> <Gold.PLP.Chemscore.Metal>
0.0000

> <Gold.Chemscore.Hbonds>
donor molecule, donor type, donor heavy atom, donor atom, acceptor molecule, acceptor atom, score
      L1  H     6    26       P1  7948  1.00
      L1  H     9    27       P1  7948  0.99
      L1  H    13    33       P1  7957  1.00
      L1  C     3    24       P1 10186  0.82

> <Gold.PLP.Chemscore.Internal.Correction>
0.1128

> <Gold.Rescore>
     Score         DG    S(hbond)    S(metal)    S(lipo)     H(rot)  DE(clash)    DE(int)     intcor
     14.76     -18.09       2.89        0.00      70.48       2.07       0.16       3.17       ----

> <Gold.Chemscore.Fitness>
14.7567

> <Gold.Chemscore.DG>
-18.0859

> <Gold.Chemscore.ZeroCoef>
-5.4800

> <Gold.Chemscore.Hbond>
2.8925

> <Gold.Chemscore.Metal>
0.0000

> <Gold.Chemscore.Lipo>
70.4848

> <Gold.Chemscore.Internal_Hbond>
0.0000

> <Gold.Chemscore.DEClash>
0.1560

> <Gold.Chemscore.DEInternal>
3.1732

> <Gold.Chemscore.Rot>
2.0710

> <Gold.Chemscore.Internal.Correction>
   9.000000E+99

> <Gold.Chemscore.Hbonds>
donor molecule, donor type, donor heavy atom, donor atom, acceptor molecule, acceptor atom, score
      L1  H     6    26       P1  7948  0.94
      L1  H     9    27       P1  7948  0.94
      L1  H    13    33       P1  7957  0.97

> <Gold.Chemscore.Hbond.Weighted>
-9.6609

> <Gold.Chemscore.Metal.Weighted>
-0.0000

> <Gold.Chemscore.Lipo.Weighted>
-8.2467

> <Gold.Chemscore.Internal_Hbond.Weighted>
0.0000

> <Gold.Chemscore.DEClash.Weighted>
0.1560

> <Gold.Chemscore.DEInternal.Weighted>
3.1732

> <Gold.Chemscore.Rot.Weighted>
5.3017

> <Gold.Chemscore.Internal.Correction.Weighted>
   9.000000E+99

> <Gold.Protein.RotatedTorsions>
[ 6907 6896 6895 6894 ] final -134.04 input  -60.11 | X-H torsion
[ 7974 7965 7964 7962 ] final -119.57 input  175.53 | X-H torsion
[ 8008 7997 7996 7995 ] final -105.28 input   59.86 | X-H torsion
[ 10167 10162 10161 10158 ] final   73.02 input  -65.29 | X-H torsion
[ 10718 10713 10712 10709 ] final -174.42 input   66.30 | X-H torsion
[ 10763 10752 10751 10750 ] final  -22.39 input  -60.55 | X-H torsion
[ 11005 11000 10999 10996 ] final -133.70 input  -57.11 | X-H torsion

> <Gold.Protein.ActiveResidues>
 VAL166  LYS551  ARG553  GLY616  TRP617  ASP618  TYR619  PRO620  LYS621  CYS622 
 ASP623  PHE694  ASN695  SER759  ASP760  ASP761  ALA762  ILE779  LEU786  VAL792 
 PHE793  MET794  SER795  GLU796  ALA797  LYS798  CYS799  TRP800  GLU811  SER814 

> <Gold.Protein.RotatedAtoms>
  150.9811  133.6244  159.2722 H   0  0  0  0  0  0  0  0  0  0  0  0  # atno 6907 bound_to 6896
  151.3499  135.0881  159.9409 H   0  0  0  0  0  0  0  0  0  0  0  0  # atno 6908 bound_to 6896
  152.5216  133.9406  159.7679 H   0  0  0  0  0  0  0  0  0  0  0  0  # atno 6909 bound_to 6896
  145.0611  140.8290  143.4152 H   0  0  0  0  0  0  0  0  0  0  0  0  # atno 7974 bound_to 7965
  154.8975  140.0414  157.1874 H   0  0  0  0  0  0  0  0  0  0  0  0  # atno 8008 bound_to 7997
  154.8478  140.2924  155.5597 H   0  0  0  0  0  0  0  0  0  0  0  0  # atno 8009 bound_to 7997
  156.2995  140.2470  156.3431 H   0  0  0  0  0  0  0  0  0  0  0  0  # atno 8010 bound_to 7997
  140.0290  144.5481  150.7522 H   0  0  0  0  0  0  0  0  0  0  0  0  # atno 10167 bound_to 10162
  156.7848  130.9496  151.3120 H   0  0  0  0  0  0  0  0  0  0  0  0  # atno 10718 bound_to 10713
  153.6512  135.6981  153.5208 H   0  0  0  0  0  0  0  0  0  0  0  0  # atno 10763 bound_to 10752
  153.2705  135.4216  155.0982 H   0  0  0  0  0  0  0  0  0  0  0  0  # atno 10764 bound_to 10752
  154.8476  135.3577  154.6057 H   0  0  0  0  0  0  0  0  0  0  0  0  # atno 10765 bound_to 10752
  140.9057  134.1633  157.4428 H   0  0  0  0  0  0  0  0  0  0  0  0  # atno 11005 bound_to 11000
  145.1408  139.2573  143.5491 LP  0  0  0  0  0  0  0  0  0  0  0  0  # atno 17320 bound_to 7965
  146.3524  140.1084  142.8605 LP  0  0  0  0  0  0  0  0  0  0  0  0  # atno 17321 bound_to 7965
  140.7310  143.2690  151.3951 LP  0  0  0  0  0  0  0  0  0  0  0  0  # atno 17342 bound_to 10162
  139.6089  144.1140  152.2278 LP  0  0  0  0  0  0  0  0  0  0  0  0  # atno 17343 bound_to 10162
  157.6629  130.8982  149.9869 LP  0  0  0  0  0  0  0  0  0  0  0  0  # atno 17370 bound_to 10713
  156.1196  130.3646  149.9910 LP  0  0  0  0  0  0  0  0  0  0  0  0  # atno 17371 bound_to 10713
  139.8749  134.9916  156.5555 LP  0  0  0  0  0  0  0  0  0  0  0  0  # atno 17394 bound_to 11000
  140.8174  133.8380  155.8865 LP  0  0  0  0  0  0  0  0  0  0  0  0  # atno 17395 bound_to 11000

$$$$
