AV-unprocessed.smi:980|AV-procd|sdf|4312|dock4
  -GOLD-   22720 2223D 1   1.00000     0.00000
 Structure written by MMmdl.
 44 45  0  0  0  0  0  0  0  0  1 V2000
  154.9485  132.4667  163.3608 C   0  0  0  0  0  0  0  0  0  0  0  0
  155.3438  133.6600  162.4648 C   0  0  0  0  0  0  0  0  0  0  0  0
  156.8243  133.4889  162.0710 C   0  0  0  0  0  0  0  0  0  0  0  0
  154.4576  133.6219  161.2040 C   0  0  0  0  0  0  0  0  0  0  0  0
  155.1504  134.9768  163.1909 C   0  0  0  0  0  0  0  0  0  0  0  0
  154.7310  135.1789  164.4864 C   0  0  0  0  0  0  0  0  0  0  0  0
  154.6335  136.8691  164.8957 S   0  0  0  0  0  0  0  0  0  0  0  0
  155.1919  137.2598  163.2768 C   0  0  0  0  0  0  0  0  0  0  0  0
  155.3514  138.6577  162.7816 C   0  0  0  0  0  0  0  0  0  0  0  0
  154.5868  138.9017  161.4705 C   0  0  0  0  0  0  0  0  0  0  0  0
  154.1900  140.2971  161.3240 N   0  0  0  0  0  0  0  0  0  0  0  0
  153.4501  140.7896  160.3185 C   0  0  0  0  0  0  0  0  0  0  0  0
  153.0319  140.1002  159.3878 O   0  0  0  0  0  0  0  0  0  0  0  0
  153.1286  142.2891  160.3769 C   0  0  1  0  0  0  0  0  0  0  0  0
  152.1606  142.7003  159.2441 C   0  0  0  0  0  0  0  0  0  0  0  0
  151.6339  144.1131  159.4272 C   0  0  0  0  0  0  0  0  0  0  0  0
  151.7163  144.7885  160.5865 C   0  0  0  0  0  0  0  0  0  0  0  0
  152.3388  144.2134  161.8466 C   0  0  0  0  0  0  0  0  0  0  0  0
  152.5508  142.6906  161.7493 C   0  0  0  0  0  0  0  0  0  0  0  0
  155.4022  136.1810  162.5195 N   0  0  0  0  0  0  0  0  0  0  0  0
  155.0882  131.5174  162.8423 H   0  0  0  0  0  0  0  0  0  0  0  0
  153.9010  132.5197  163.6601 H   0  0  0  0  0  0  0  0  0  0  0  0
  155.5524  132.4305  164.2684 H   0  0  0  0  0  0  0  0  0  0  0  0
  157.4724  133.5105  162.9480 H   0  0  0  0  0  0  0  0  0  0  0  0
  157.1561  134.2807  161.3984 H   0  0  0  0  0  0  0  0  0  0  0  0
  156.9928  132.5401  161.5604 H   0  0  0  0  0  0  0  0  0  0  0  0
  154.5662  132.6776  160.6695 H   0  0  0  0  0  0  0  0  0  0  0  0
  154.7155  134.4198  160.5068 H   0  0  0  0  0  0  0  0  0  0  0  0
  153.4031  133.7364  161.4578 H   0  0  0  0  0  0  0  0  0  0  0  0
  154.4658  134.4395  165.2272 H   0  0  0  0  0  0  0  0  0  0  0  0
  154.9979  139.3407  163.5548 H   0  0  0  0  0  0  0  0  0  0  0  0
  156.4151  138.8600  162.6487 H   0  0  0  0  0  0  0  0  0  0  0  0
  155.1885  138.5927  160.6138 H   0  0  0  0  0  0  0  0  0  0  0  0
  153.6827  138.2926  161.4506 H   0  0  0  0  0  0  0  0  0  0  0  0
  154.4900  140.9344  162.0474 H   0  0  0  0  0  0  0  0  0  0  0  0
  154.0605  142.8413  160.2398 H   0  0  0  0  0  0  0  0  0  0  0  0
  152.6729  142.6431  158.2829 H   0  0  0  0  0  0  0  0  0  0  0  0
  151.3045  142.0263  159.1879 H   0  0  0  0  0  0  0  0  0  0  0  0
  151.1637  144.5731  158.5704 H   0  0  0  0  0  0  0  0  0  0  0  0
  151.3360  145.7976  160.6483 H   0  0  0  0  0  0  0  0  0  0  0  0
  153.2920  144.7165  162.0118 H   0  0  0  0  0  0  0  0  0  0  0  0
  151.7036  144.4466  162.7013 H   0  0  0  0  0  0  0  0  0  0  0  0
  151.5940  142.1883  161.9025 H   0  0  0  0  0  0  0  0  0  0  0  0
  153.2041  142.3593  162.5578 H   0  0  0  0  0  0  0  0  0  0  0  0
  1  2  1  0  0  0  0
  1 21  1  0  0  0  0
  1 22  1  0  0  0  0
  1 23  1  0  0  0  0
  2  3  1  0  0  0  0
  2  4  1  0  0  0  0
  2  5  1  0  0  0  0
  3 24  1  0  0  0  0
  3 25  1  0  0  0  0
  3 26  1  0  0  0  0
  4 27  1  0  0  0  0
  4 28  1  0  0  0  0
  4 29  1  0  0  0  0
  5 20  1  0  0  0  0
  5  6  2  0  0  0  0
  6  7  1  0  0  0  0
  6 30  1  0  0  0  0
  7  8  1  0  0  0  0
  8  9  1  0  0  0  0
  8 20  2  0  0  0  0
  9 10  1  0  0  0  0
  9 31  1  0  0  0  0
  9 32  1  0  0  0  0
 10 11  1  0  0  0  0
 10 33  1  0  0  0  0
 10 34  1  0  0  0  0
 11 12  1  0  0  0  0
 11 35  1  0  0  0  0
 12 13  2  0  0  0  0
 12 14  1  0  0  0  0
 14 19  1  0  0  0  0
 14 15  1  0  0  0  0
 14 36  1  0  0  0  0
 15 16  1  0  0  0  0
 15 37  1  0  0  0  0
 15 38  1  0  0  0  0
 16 17  2  0  0  0  0
 16 39  1  0  0  0  0
 17 18  1  0  0  0  0
 17 40  1  0  0  0  0
 18 19  1  0  0  0  0
 18 41  1  0  0  0  0
 18 42  1  0  0  0  0
 19 43  1  0  0  0  0
 19 44  1  0  0  0  0
M  END
> <s_m_source_file>
AV-unprocessed.smi

> <i_m_source_file_index>
980

> <i_lp_mmshare_version>
43012

> <i_f3d_flags>
0

> <s_epik_input>
W0NIM11DKFtDSDNdKShbQ0gzXSljMVtjSF1zYyhuMSlbQ0gyXVtDSDJdW05IXUMoPU8pW0NAQEhdMltDSDJdW0NIXT1bQ0hdW0NIMl1bQ0gyXTI=

> <s_epik_cmdline>
J2VwaWtfcHl0aG9uJywgJy1waCcsICc3LjAnLCAnLXRuJywgJzgnLCAnLW1hJywgJzIwMCcsICctbWV0YWxfYmluZGluZycsICctaW1hZScsICc8aW5maWxlLm1hZT4nLCAnLW9tYWUnLCAnPG91dGZpbGUubWFlPic=

> <r_epik_Ionization_Penalty>
0.000809238

> <r_epik_Ionization_Penalty_Charging>
0

> <r_epik_Ionization_Penalty_Neutral>
0.000809238

> <r_epik_State_Penalty>
0.000520038

> <r_epik_Charging_Adjusted_Penalty>
0.000520038

> <i_epik_Tot_Q>
0

> <i_epik_Tot_abs_Q>
0

> <r_epik_Metal_State_Penalty>
-0

> <b_epik_Metal_Only>
0

> <s_lp_Force_Field>
OPLS_2005

> <r_lp_Energy>
-0.741004

> <b_lp_Chiralities_Consistent>
1

> <s_lp_Variant>
AV-unprocessed.smi:980-2

> <Gold.Version>
5.8.1

> <Gold.Id.Protein>
6NUR|6NUR_protein|mol2

> <Gold.PLP.Fitness>
45.2918

> <Gold.PLP.PLP>
-45.9696

> <Gold.PLP.part.hbond>
-0.9347

> <Gold.PLP.part.metal>
0.0000

> <Gold.PLP.part.buried>
-4.3827

> <Gold.PLP.part.nonpolar>
-40.4394

> <Gold.PLP.part.repulsive>
0.0026

> <Gold.PLP.ligand.clash>
0.0000

> <Gold.PLP.ligand.torsion>
0.3580

> <Gold.PLP.Chemscore.Hbond>
0.0000

> <Gold.PLP.Chemscore.CHOScore>
0.0000

> <Gold.PLP.Chemscore.Metal>
0.0000

> <Gold.PLP.Chemscore.Internal.Correction>
0.0382

> <Gold.Rescore>
     Score         DG    S(hbond)    S(metal)    S(lipo)     H(rot)  DE(clash)    DE(int)     intcor
     16.85     -17.49       0.00        0.00     133.49       1.41       0.11       0.53       ----

> <Gold.Chemscore.Fitness>
16.8492

> <Gold.Chemscore.DG>
-17.4890

> <Gold.Chemscore.ZeroCoef>
-5.4800

> <Gold.Chemscore.Hbond>
0.0000

> <Gold.Chemscore.Metal>
0.0000

> <Gold.Chemscore.Lipo>
133.4850

> <Gold.Chemscore.Internal_Hbond>
0.0000

> <Gold.Chemscore.DEClash>
0.1060

> <Gold.Chemscore.DEInternal>
0.5337

> <Gold.Chemscore.Rot>
1.4097

> <Gold.Chemscore.Internal.Correction>
   9.000000E+99

> <Gold.Chemscore.Hbond.Weighted>
-0.0000

> <Gold.Chemscore.Metal.Weighted>
-0.0000

> <Gold.Chemscore.Lipo.Weighted>
-15.6177

> <Gold.Chemscore.Internal_Hbond.Weighted>
0.0000

> <Gold.Chemscore.DEClash.Weighted>
0.1060

> <Gold.Chemscore.DEInternal.Weighted>
0.5337

> <Gold.Chemscore.Rot.Weighted>
3.6087

> <Gold.Chemscore.Internal.Correction.Weighted>
   9.000000E+99

> <Gold.Protein.RotatedTorsions>
[ 6907 6896 6895 6894 ] final  123.34 input  -60.11 | X-H torsion
[ 7974 7965 7964 7962 ] final    1.73 input  175.53 | X-H torsion
[ 8008 7997 7996 7995 ] final   77.51 input   59.86 | X-H torsion
[ 10167 10162 10161 10158 ] final  -99.67 input  -65.29 | X-H torsion
[ 10718 10713 10712 10709 ] final  -24.85 input   66.30 | X-H torsion
[ 10763 10752 10751 10750 ] final    2.57 input  -60.55 | X-H torsion
[ 11005 11000 10999 10996 ] final   12.97 input  -57.11 | X-H torsion

> <Gold.Protein.ActiveResidues>
 VAL166  LYS551  ARG553  GLY616  TRP617  ASP618  TYR619  PRO620  LYS621  CYS622 
 ASP623  PHE694  ASN695  SER759  ASP760  ASP761  ALA762  ILE779  LEU786  VAL792 
 PHE793  MET794  SER795  GLU796  ALA797  LYS798  CYS799  TRP800  GLU811  SER814 

> <Gold.Protein.RotatedAtoms>
  152.4170  133.7054  159.6447 H   0  0  0  0  0  0  0  0  0  0  0  0  # atno 6907 bound_to 6896
  150.8047  133.8522  159.3217 H   0  0  0  0  0  0  0  0  0  0  0  0  # atno 6908 bound_to 6896
  151.6249  135.1030  160.0161 H   0  0  0  0  0  0  0  0  0  0  0  0  # atno 6909 bound_to 6896
  146.2441  140.0943  142.8350 H   0  0  0  0  0  0  0  0  0  0  0  0  # atno 7974 bound_to 7965
  155.8426  140.3461  155.5641 H   0  0  0  0  0  0  0  0  0  0  0  0  # atno 8008 bound_to 7997
  155.8124  140.0901  157.1916 H   0  0  0  0  0  0  0  0  0  0  0  0  # atno 8009 bound_to 7997
  154.4005  140.1445  156.3390 H   0  0  0  0  0  0  0  0  0  0  0  0  # atno 8010 bound_to 7997
  140.2600  143.3414  152.0635 H   0  0  0  0  0  0  0  0  0  0  0  0  # atno 10167 bound_to 10162
  156.4721  130.4526  149.6863 H   0  0  0  0  0  0  0  0  0  0  0  0  # atno 10718 bound_to 10713
  153.2939  135.6950  153.7267 H   0  0  0  0  0  0  0  0  0  0  0  0  # atno 10763 bound_to 10752
  153.6207  135.3428  155.3010 H   0  0  0  0  0  0  0  0  0  0  0  0  # atno 10764 bound_to 10752
  154.8532  135.4385  154.2030 H   0  0  0  0  0  0  0  0  0  0  0  0  # atno 10765 bound_to 10752
  140.4860  134.0888  155.7761 H   0  0  0  0  0  0  0  0  0  0  0  0  # atno 11005 bound_to 11000
  145.0623  140.9096  143.4931 LP  0  0  0  0  0  0  0  0  0  0  0  0  # atno 17320 bound_to 7965
  145.1061  139.2789  143.5661 LP  0  0  0  0  0  0  0  0  0  0  0  0  # atno 17321 bound_to 7965
  139.5020  144.6725  151.6208 LP  0  0  0  0  0  0  0  0  0  0  0  0  # atno 17342 bound_to 10162
  140.5973  143.9672  150.6363 LP  0  0  0  0  0  0  0  0  0  0  0  0  # atno 17343 bound_to 10162
  156.3607  130.7480  151.2452 LP  0  0  0  0  0  0  0  0  0  0  0  0  # atno 17370 bound_to 10713
  157.7490  131.0351  150.4347 LP  0  0  0  0  0  0  0  0  0  0  0  0  # atno 17371 bound_to 10713
  141.1508  133.8973  157.2103 LP  0  0  0  0  0  0  0  0  0  0  0  0  # atno 17394 bound_to 11000
  139.9798  135.0102  156.9721 LP  0  0  0  0  0  0  0  0  0  0  0  0  # atno 17395 bound_to 11000

$$$$
