AV-unprocessed.smi:762|AV-procd|sdf|3633|dock6
  -GOLD-   22720 1 23D 1   1.00000     0.00000
 Structure written by MMmdl.
 42 44  0  0  0  0  0  0  0  0  1 V2000
  151.3285  140.3914  155.1851 O   0  0  0  0  0  0  0  0  0  0  0  0
  150.6788  140.7164  156.1789 C   0  0  0  0  0  0  0  0  0  0  0  0
  151.3065  140.6149  157.5692 C   0  0  0  0  0  0  0  0  0  0  0  0
  151.5776  141.9464  158.2476 C   0  0  0  0  0  0  0  0  0  0  0  0
  152.0882  142.0237  159.4920 C   0  0  0  0  0  0  0  0  0  0  0  0
  152.3253  143.3255  160.2359 C   0  0  0  0  0  0  0  0  0  0  0  0
  151.5784  144.5063  159.5938 C   0  0  0  0  0  0  0  0  0  0  0  0
  151.7288  144.4916  158.0676 C   0  0  0  0  0  0  0  0  0  0  0  0
  151.1809  143.1884  157.4574 C   0  0  0  0  0  0  0  0  0  0  0  0
  149.4135  141.1593  156.1220 N   0  0  0  0  0  0  0  0  0  0  0  0
  148.6342  141.3055  154.8990 C   0  0  0  0  0  0  0  0  0  0  0  0
  147.1458  140.9983  155.1346 C   0  0  0  0  0  0  0  0  0  0  0  0
  146.3045  142.1230  154.7689 N   0  0  0  0  0  0  0  0  0  0  0  0
  146.2312  142.7562  153.5882 C   0  0  0  0  0  0  0  0  0  0  0  0
  145.3758  143.7768  153.5474 N   0  0  0  0  0  0  0  0  0  0  0  0
  144.8370  143.8291  154.8174 N   0  0  0  0  0  0  0  0  0  0  0  0
  145.4090  142.8252  155.4931 C   0  0  0  0  0  0  0  0  0  0  0  0
  145.1330  142.5354  156.9340 C   0  0  0  0  0  0  0  0  0  0  0  0
  145.2405  143.6193  157.9838 C   0  0  0  0  0  0  0  0  0  0  0  0
  146.2502  142.5019  157.9533 C   0  0  0  0  0  0  0  0  0  0  0  0
  150.6185  140.0408  158.1914 H   0  0  0  0  0  0  0  0  0  0  0  0
  152.2278  140.0317  157.5339 H   0  0  0  0  0  0  0  0  0  0  0  0
  152.3566  141.1195  160.0187 H   0  0  0  0  0  0  0  0  0  0  0  0
  152.0108  143.2088  161.2732 H   0  0  0  0  0  0  0  0  0  0  0  0
  153.3985  143.5177  160.2484 H   0  0  0  0  0  0  0  0  0  0  0  0
  150.5193  144.4498  159.8493 H   0  0  0  0  0  0  0  0  0  0  0  0
  151.9454  145.4476  160.0039 H   0  0  0  0  0  0  0  0  0  0  0  0
  151.2197  145.3500  157.6280 H   0  0  0  0  0  0  0  0  0  0  0  0
  152.7842  144.5961  157.8129 H   0  0  0  0  0  0  0  0  0  0  0  0
  151.5305  143.0961  156.4287 H   0  0  0  0  0  0  0  0  0  0  0  0
  150.0918  143.2269  157.4176 H   0  0  0  0  0  0  0  0  0  0  0  0
  148.9548  141.4011  156.9886 H   0  0  0  0  0  0  0  0  0  0  0  0
  148.7605  142.3124  154.4970 H   0  0  0  0  0  0  0  0  0  0  0  0
  149.0446  140.6227  154.1552 H   0  0  0  0  0  0  0  0  0  0  0  0
  146.8404  140.1196  154.5659 H   0  0  0  0  0  0  0  0  0  0  0  0
  146.9630  140.7691  156.1851 H   0  0  0  0  0  0  0  0  0  0  0  0
  146.8240  142.4640  152.7338 H   0  0  0  0  0  0  0  0  0  0  0  0
  144.3316  141.8058  157.0327 H   0  0  0  0  0  0  0  0  0  0  0  0
  145.5791  144.6037  157.6679 H   0  0  0  0  0  0  0  0  0  0  0  0
  144.5056  143.6134  158.7862 H   0  0  0  0  0  0  0  0  0  0  0  0
  146.1921  141.7492  158.7367 H   0  0  0  0  0  0  0  0  0  0  0  0
  147.2554  142.7452  157.6141 H   0  0  0  0  0  0  0  0  0  0  0  0
  1  2  2  0  0  0  0
  2  3  1  0  0  0  0
  2 10  1  0  0  0  0
  3  4  1  0  0  0  0
  3 21  1  0  0  0  0
  3 22  1  0  0  0  0
  4  9  1  0  0  0  0
  4  5  2  0  0  0  0
  5  6  1  0  0  0  0
  5 23  1  0  0  0  0
  6  7  1  0  0  0  0
  6 24  1  0  0  0  0
  6 25  1  0  0  0  0
  7  8  1  0  0  0  0
  7 26  1  0  0  0  0
  7 27  1  0  0  0  0
  8  9  1  0  0  0  0
  8 28  1  0  0  0  0
  8 29  1  0  0  0  0
  9 30  1  0  0  0  0
  9 31  1  0  0  0  0
 10 11  1  0  0  0  0
 10 32  1  0  0  0  0
 11 12  1  0  0  0  0
 11 33  1  0  0  0  0
 11 34  1  0  0  0  0
 12 13  1  0  0  0  0
 12 35  1  0  0  0  0
 12 36  1  0  0  0  0
 13 17  1  0  0  0  0
 13 14  1  0  0  0  0
 14 15  2  0  0  0  0
 14 37  1  0  0  0  0
 15 16  1  0  0  0  0
 16 17  2  0  0  0  0
 17 18  1  0  0  0  0
 18 20  1  0  0  0  0
 18 19  1  0  0  0  0
 18 38  1  0  0  0  0
 19 20  1  0  0  0  0
 19 39  1  0  0  0  0
 19 40  1  0  0  0  0
 20 41  1  0  0  0  0
 20 42  1  0  0  0  0
M  END
> <s_m_source_file>
AV-unprocessed.smi

> <i_m_source_file_index>
762

> <i_lp_mmshare_version>
43012

> <i_f3d_flags>
0

> <s_epik_input>
W0NIMl0xW0NIMl1bQ0gyXVtDSDJdW0NIXT1DMVtDSDJdQyg9TylbTkhdW0NIMl1bQ0gyXW4yW2NIXW5uYzJbQ0hdM1tDSDJdW0NIMl0z

> <s_epik_cmdline>
J2VwaWtfcHl0aG9uJywgJy1waCcsICc3LjAnLCAnLXRuJywgJzgnLCAnLW1hJywgJzIwMCcsICctbWV0YWxfYmluZGluZycsICctaW1hZScsICc8aW5maWxlLm1hZT4nLCAnLW9tYWUnLCAnPG91dGZpbGUubWFlPic=

> <r_lp_tautomer_probability>
1

> <r_epik_Ionization_Penalty>
0.000270947

> <r_epik_Ionization_Penalty_Charging>
0

> <r_epik_Ionization_Penalty_Neutral>
0.000270947

> <r_epik_State_Penalty>
-0

> <r_epik_Charging_Adjusted_Penalty>
0

> <i_epik_Tot_Q>
0

> <i_epik_Tot_abs_Q>
0

> <r_epik_Metal_State_Penalty>
-0

> <b_epik_Metal_Only>
0

> <s_lp_Force_Field>
OPLS_2005

> <r_lp_Energy>
11.3747

> <b_lp_Chiralities_Consistent>
1

> <s_lp_Variant>
AV-unprocessed.smi:762-1

> <Gold.Version>
5.8.1

> <Gold.Id.Protein>
6NUR|6NUR_protein|mol2

> <Gold.PLP.Fitness>
42.9178

> <Gold.PLP.PLP>
-41.1650

> <Gold.PLP.part.hbond>
-1.0000

> <Gold.PLP.part.metal>
0.0000

> <Gold.PLP.part.buried>
-7.2958

> <Gold.PLP.part.nonpolar>
-34.3040

> <Gold.PLP.part.repulsive>
0.4825

> <Gold.PLP.ligand.clash>
0.0000

> <Gold.PLP.ligand.torsion>
0.7057

> <Gold.PLP.Chemscore.Hbond>
0.9920

> <Gold.PLP.Chemscore.CHOScore>
0.0000

> <Gold.PLP.Chemscore.Metal>
0.0000

> <Gold.Chemscore.Hbonds>
donor molecule, donor type, donor heavy atom, donor atom, acceptor molecule, acceptor atom, score
      P1  H  7989  7998       L1     1  0.98

> <Gold.PLP.Chemscore.Internal.Correction>
0.1882

> <Gold.Rescore>
     Score         DG    S(hbond)    S(metal)    S(lipo)     H(rot)  DE(clash)    DE(int)     intcor
     12.01     -13.68       0.99        0.00      87.91       2.10       0.10       1.57       ----

> <Gold.Chemscore.Fitness>
12.0133

> <Gold.Chemscore.DG>
-13.6840

> <Gold.Chemscore.ZeroCoef>
-5.4800

> <Gold.Chemscore.Hbond>
0.9886

> <Gold.Chemscore.Metal>
0.0000

> <Gold.Chemscore.Lipo>
87.9137

> <Gold.Chemscore.Internal_Hbond>
0.0000

> <Gold.Chemscore.DEClash>
0.1034

> <Gold.Chemscore.DEInternal>
1.5673

> <Gold.Chemscore.Rot>
2.1031

> <Gold.Chemscore.Internal.Correction>
   9.000000E+99

> <Gold.Chemscore.Hbonds>
donor molecule, donor type, donor heavy atom, donor atom, acceptor molecule, acceptor atom, score
      P1  H  7989  7998       L1     1  0.93

> <Gold.Chemscore.Hbond.Weighted>
-3.3019

> <Gold.Chemscore.Metal.Weighted>
-0.0000

> <Gold.Chemscore.Lipo.Weighted>
-10.2859

> <Gold.Chemscore.Internal_Hbond.Weighted>
0.0000

> <Gold.Chemscore.DEClash.Weighted>
0.1034

> <Gold.Chemscore.DEInternal.Weighted>
1.5673

> <Gold.Chemscore.Rot.Weighted>
5.3838

> <Gold.Chemscore.Internal.Correction.Weighted>
   9.000000E+99

> <Gold.Protein.RotatedTorsions>
[ 6907 6896 6895 6894 ] final  -69.27 input  -60.11 | X-H torsion
[ 7974 7965 7964 7962 ] final  109.11 input  175.53 | X-H torsion
[ 8008 7997 7996 7995 ] final -139.64 input   59.86 | X-H torsion
[ 10167 10162 10161 10158 ] final -147.22 input  -65.29 | X-H torsion
[ 10718 10713 10712 10709 ] final -155.48 input   66.30 | X-H torsion
[ 10763 10752 10751 10750 ] final  131.77 input  -60.55 | X-H torsion
[ 11005 11000 10999 10996 ] final -129.32 input  -57.11 | X-H torsion

> <Gold.Protein.ActiveResidues>
 VAL166  LYS551  ARG553  GLY616  TRP617  ASP618  TYR619  PRO620  LYS621  CYS622 
 ASP623  PHE694  ASN695  SER759  ASP760  ASP761  ALA762  ILE779  LEU786  VAL792 
 PHE793  MET794  SER795  GLU796  ALA797  LYS798  CYS799  TRP800  GLU811  SER814 

> <Gold.Protein.RotatedAtoms>
  150.7314  134.5620  159.5846 H   0  0  0  0  0  0  0  0  0  0  0  0  # atno 6907 bound_to 6896
  152.3081  134.7527  160.0352 H   0  0  0  0  0  0  0  0  0  0  0  0  # atno 6908 bound_to 6896
  151.8085  133.3343  159.3585 H   0  0  0  0  0  0  0  0  0  0  0  0  # atno 6909 bound_to 6896
  145.2720  139.2663  143.3961 H   0  0  0  0  0  0  0  0  0  0  0  0  # atno 7974 bound_to 7965
  155.4483  140.0537  157.3004 H   0  0  0  0  0  0  0  0  0  0  0  0  # atno 8008 bound_to 7997
  154.4788  140.2072  155.9769 H   0  0  0  0  0  0  0  0  0  0  0  0  # atno 8009 bound_to 7997
  156.1174  140.3194  155.8164 H   0  0  0  0  0  0  0  0  0  0  0  0  # atno 8010 bound_to 7997
  139.7641  143.8333  152.2613 H   0  0  0  0  0  0  0  0  0  0  0  0  # atno 10167 bound_to 10162
  156.5134  130.8445  151.2655 H   0  0  0  0  0  0  0  0  0  0  0  0  # atno 10718 bound_to 10713
  153.7798  135.3170  155.3364 H   0  0  0  0  0  0  0  0  0  0  0  0  # atno 10763 bound_to 10752
  154.8166  135.4632  154.0662 H   0  0  0  0  0  0  0  0  0  0  0  0  # atno 10764 bound_to 10752
  153.1947  135.6914  153.8392 H   0  0  0  0  0  0  0  0  0  0  0  0  # atno 10765 bound_to 10752
  140.9442  134.1153  157.4123 H   0  0  0  0  0  0  0  0  0  0  0  0  # atno 11005 bound_to 11000
  146.3243  140.3165  142.8630 LP  0  0  0  0  0  0  0  0  0  0  0  0  # atno 17320 bound_to 7965
  144.9327  140.7992  143.5679 LP  0  0  0  0  0  0  0  0  0  0  0  0  # atno 17321 bound_to 7965
  139.8348  144.7237  150.9405 LP  0  0  0  0  0  0  0  0  0  0  0  0  # atno 17342 bound_to 10162
  140.7809  143.4037  151.1107 LP  0  0  0  0  0  0  0  0  0  0  0  0  # atno 17343 bound_to 10162
  157.7447  130.9942  150.2699 LP  0  0  0  0  0  0  0  0  0  0  0  0  # atno 17370 bound_to 10713
  156.3218  130.3787  149.7568 LP  0  0  0  0  0  0  0  0  0  0  0  0  # atno 17371 bound_to 10713
  139.8828  135.0046  156.6259 LP  0  0  0  0  0  0  0  0  0  0  0  0  # atno 17394 bound_to 11000
  140.7693  133.8752  155.8479 LP  0  0  0  0  0  0  0  0  0  0  0  0  # atno 17395 bound_to 11000

$$$$
