AV-unprocessed.smi:1795|AV-procd|sdf|7238|dock1
  -GOLD-   22720 8483D 1   1.00000     0.00000
 Structure written by MMmdl.
 47 48  0  0  0  0  0  0  0  0  1 V2000
  152.4847  145.2566  158.1635 C   0  0  0  0  0  0  0  0  0  0  0  0
  151.9268  143.9503  158.7383 C   0  0  1  0  0  0  0  0  0  0  0  0
  151.2328  143.0918  157.6640 C   0  0  0  0  0  0  0  0  0  0  0  0
  150.7533  141.8048  158.1798 N   0  0  0  0  0  0  0  0  0  0  0  0
  150.1094  140.9805  157.1300 C   0  0  2  0  0  0  0  0  0  0  0  0
  150.9255  140.9414  155.8129 C   0  0  0  0  0  0  0  0  0  0  0  0
  148.6536  141.4237  156.8009 C   0  0  0  0  0  0  0  0  0  0  0  0
  148.2343  142.6205  157.5253 N   0  0  0  0  0  0  0  0  0  0  0  0
  147.2204  142.6727  158.4025 C   0  0  0  0  0  0  0  0  0  0  0  0
  146.5239  141.6961  158.6843 O   0  0  0  0  0  0  0  0  0  0  0  0
  146.9493  144.0449  159.0357 C   0  0  0  0  0  0  0  0  0  0  0  0
  145.7900  144.0502  159.9438 N   0  0  0  0  0  0  0  0  0  0  0  0
  144.5650  144.5059  159.4167 C   0  0  0  0  0  0  0  0  0  0  0  0
  143.4450  144.5460  160.1556 C   0  0  0  0  0  0  0  0  0  0  0  0
  143.5173  144.1061  161.5287 C   0  0  0  0  0  0  0  0  0  0  0  0
  144.6831  143.6653  162.0422 C   0  0  0  0  0  0  0  0  0  0  0  0
  145.9093  143.6166  161.2369 C   0  0  0  0  0  0  0  0  0  0  0  0
  146.9773  143.2107  161.6962 O   0  0  0  0  0  0  0  0  0  0  0  0
  151.8876  141.1251  158.8158 C   0  0  0  0  0  0  0  0  0  0  0  0
  152.5859  141.9878  159.8843 C   0  0  1  0  0  0  0  0  0  0  0  0
  153.8172  141.2921  160.4745 C   0  0  0  0  0  0  0  0  0  0  0  0
  153.0061  143.2124  159.2967 O   0  0  0  0  0  0  0  0  0  0  0  0
  151.6899  145.8671  157.7338 H   0  0  0  0  0  0  0  0  0  0  0  0
  153.2186  145.0621  157.3809 H   0  0  0  0  0  0  0  0  0  0  0  0
  152.9735  145.8463  158.9392 H   0  0  0  0  0  0  0  0  0  0  0  0
  151.2146  144.1927  159.5290 H   0  0  0  0  0  0  0  0  0  0  0  0
  150.4037  143.6791  157.2734 H   0  0  0  0  0  0  0  0  0  0  0  0
  151.9202  142.9220  156.8336 H   0  0  0  0  0  0  0  0  0  0  0  0
  150.0577  139.9557  157.5004 H   0  0  0  0  0  0  0  0  0  0  0  0
  150.4203  140.3824  155.0262 H   0  0  0  0  0  0  0  0  0  0  0  0
  151.8878  140.4470  155.9371 H   0  0  0  0  0  0  0  0  0  0  0  0
  151.1087  141.9470  155.4333 H   0  0  0  0  0  0  0  0  0  0  0  0
  148.5176  141.6402  155.7424 H   0  0  0  0  0  0  0  0  0  0  0  0
  147.9578  140.6190  157.0409 H   0  0  0  0  0  0  0  0  0  0  0  0
  148.7534  143.4679  157.3457 H   0  0  0  0  0  0  0  0  0  0  0  0
  147.8429  144.3815  159.5650 H   0  0  0  0  0  0  0  0  0  0  0  0
  146.8060  144.7673  158.2312 H   0  0  0  0  0  0  0  0  0  0  0  0
  144.5940  144.8096  158.3802 H   0  0  0  0  0  0  0  0  0  0  0  0
  142.5137  144.8937  159.7332 H   0  0  0  0  0  0  0  0  0  0  0  0
  142.6321  144.1293  162.1472 H   0  0  0  0  0  0  0  0  0  0  0  0
  144.7176  143.3392  163.0714 H   0  0  0  0  0  0  0  0  0  0  0  0
  151.5594  140.2160  159.3152 H   0  0  0  0  0  0  0  0  0  0  0  0
  152.6119  140.8270  158.0559 H   0  0  0  0  0  0  0  0  0  0  0  0
  151.8856  142.2042  160.6931 H   0  0  0  0  0  0  0  0  0  0  0  0
  153.5452  140.3501  160.9514 H   0  0  0  0  0  0  0  0  0  0  0  0
  154.2956  141.9196  161.2270 H   0  0  0  0  0  0  0  0  0  0  0  0
  154.5562  141.0756  159.7025 H   0  0  0  0  0  0  0  0  0  0  0  0
  1  2  1  0  0  0  0
  1 23  1  0  0  0  0
  1 24  1  0  0  0  0
  1 25  1  0  0  0  0
  2 22  1  0  0  0  0
  2  3  1  0  0  0  0
  2 26  1  0  0  0  0
  3  4  1  0  0  0  0
  3 27  1  0  0  0  0
  3 28  1  0  0  0  0
  4  5  1  0  0  0  0
  4 19  1  0  0  0  0
  5  6  1  0  0  0  0
  5  7  1  0  0  0  0
  5 29  1  0  0  0  0
  6 30  1  0  0  0  0
  6 31  1  0  0  0  0
  6 32  1  0  0  0  0
  7  8  1  0  0  0  0
  7 33  1  0  0  0  0
  7 34  1  0  0  0  0
  8  9  1  0  0  0  0
  8 35  1  0  0  0  0
  9 10  2  0  0  0  0
  9 11  1  0  0  0  0
 11 12  1  0  0  0  0
 11 36  1  0  0  0  0
 11 37  1  0  0  0  0
 12 17  1  0  0  0  0
 12 13  1  0  0  0  0
 13 14  2  0  0  0  0
 13 38  1  0  0  0  0
 14 15  1  0  0  0  0
 14 39  1  0  0  0  0
 15 16  2  0  0  0  0
 15 40  1  0  0  0  0
 16 17  1  0  0  0  0
 16 41  1  0  0  0  0
 17 18  2  0  0  0  0
 19 20  1  0  0  0  0
 19 42  1  0  0  0  0
 19 43  1  0  0  0  0
 20 21  1  0  0  0  0
 20 22  1  0  0  0  0
 20 44  1  0  0  0  0
 21 45  1  0  0  0  0
 21 46  1  0  0  0  0
 21 47  1  0  0  0  0
M  END
> <s_m_source_file>
AV-unprocessed.smi

> <i_m_source_file_index>
1795

> <i_lp_mmshare_version>
43012

> <i_f3d_flags>
0

> <s_epik_input>
W0NIM11bQ0BASF0xW0NIMl1OKFtDSDJdW0NASF0oTzEpW0NIM10pW0NASF0oW0NIM10pW0NIMl1bTkhdQyg9TylbQ0gyXW4yW2NIXVtjSF1bY0hdW2NIXWMyPU8=

> <s_epik_cmdline>
J2VwaWtfcHl0aG9uJywgJy1waCcsICc3LjAnLCAnLXRuJywgJzgnLCAnLW1hJywgJzIwMCcsICctbWV0YWxfYmluZGluZycsICctaW1hZScsICc8aW5maWxlLm1hZT4nLCAnLW9tYWUnLCAnPG91dGZpbGUubWFlPic=

> <r_lp_tautomer_probability>
1

> <r_epik_Ionization_Penalty>
0.237383

> <r_epik_Ionization_Penalty_Charging>
3.58805e-07

> <r_epik_Ionization_Penalty_Neutral>
0.237382

> <r_epik_State_Penalty>
0.228245

> <r_epik_Charging_Adjusted_Penalty>
0.228245

> <i_epik_Tot_Q>
0

> <i_epik_Tot_abs_Q>
0

> <r_epik_Metal_State_Penalty>
0.228221

> <b_epik_Metal_Only>
0

> <s_lp_Force_Field>
OPLS_2005

> <r_lp_Energy>
36.5545

> <b_lp_Chiralities_Consistent>
1

> <s_lp_Variant>
AV-unprocessed.smi:1795-2

> <Gold.Version>
5.8.1

> <Gold.Id.Protein>
6NUR|6NUR_protein|mol2

> <Gold.PLP.Fitness>
44.0232

> <Gold.PLP.PLP>
-41.0739

> <Gold.PLP.part.hbond>
-3.3710

> <Gold.PLP.part.metal>
0.0000

> <Gold.PLP.part.buried>
-4.5353

> <Gold.PLP.part.nonpolar>
-32.8254

> <Gold.PLP.part.repulsive>
0.1794

> <Gold.PLP.ligand.clash>
0.0000

> <Gold.PLP.ligand.torsion>
1.3569

> <Gold.PLP.Chemscore.Hbond>
1.8718

> <Gold.PLP.Chemscore.CHOScore>
0.0000

> <Gold.PLP.Chemscore.Metal>
0.0000

> <Gold.Chemscore.Hbonds>
donor molecule, donor type, donor heavy atom, donor atom, acceptor molecule, acceptor atom, score
      L1  H     8    35       P1  8028  0.54
      P1  H  6933  6944       L1    18  0.91
      P1  H  6934  6946       L1    10  0.37

> <Gold.PLP.Chemscore.Internal.Correction>
0.0478

> <Gold.Rescore>
     Score         DG    S(hbond)    S(metal)    S(lipo)     H(rot)  DE(clash)    DE(int)     intcor
     15.95     -18.27       1.43        0.00     108.33       1.83       0.75       1.57       ----

> <Gold.Chemscore.Fitness>
15.9524

> <Gold.Chemscore.DG>
-18.2706

> <Gold.Chemscore.ZeroCoef>
-5.4800

> <Gold.Chemscore.Hbond>
1.4335

> <Gold.Chemscore.Metal>
0.0000

> <Gold.Chemscore.Lipo>
108.3339

> <Gold.Chemscore.Internal_Hbond>
0.0000

> <Gold.Chemscore.DEClash>
0.7479

> <Gold.Chemscore.DEInternal>
1.5704

> <Gold.Chemscore.Rot>
1.8251

> <Gold.Chemscore.Internal.Correction>
   9.000000E+99

> <Gold.Chemscore.Hbonds>
donor molecule, donor type, donor heavy atom, donor atom, acceptor molecule, acceptor atom, score
      L1  H     8    35       P1  8028  0.12
      P1  H  6933  6944       L1    18  0.90
      P1  H  6934  6946       L1    10  0.32

> <Gold.Chemscore.Hbond.Weighted>
-4.7880

> <Gold.Chemscore.Metal.Weighted>
-0.0000

> <Gold.Chemscore.Lipo.Weighted>
-12.6751

> <Gold.Chemscore.Internal_Hbond.Weighted>
0.0000

> <Gold.Chemscore.DEClash.Weighted>
0.7479

> <Gold.Chemscore.DEInternal.Weighted>
1.5704

> <Gold.Chemscore.Rot.Weighted>
4.6724

> <Gold.Chemscore.Internal.Correction.Weighted>
   9.000000E+99

> <Gold.Protein.RotatedTorsions>
[ 6907 6896 6895 6894 ] final -133.63 input  -60.11 | X-H torsion
[ 7974 7965 7964 7962 ] final  172.67 input  175.53 | X-H torsion
[ 8008 7997 7996 7995 ] final  -77.23 input   59.86 | X-H torsion
[ 10167 10162 10161 10158 ] final -164.35 input  -65.29 | X-H torsion
[ 10718 10713 10712 10709 ] final    5.86 input   66.30 | X-H torsion
[ 10763 10752 10751 10750 ] final  175.32 input  -60.55 | X-H torsion
[ 11005 11000 10999 10996 ] final   28.56 input  -57.11 | X-H torsion

> <Gold.Protein.ActiveResidues>
 VAL166  LYS551  ARG553  GLY616  TRP617  ASP618  TYR619  PRO620  LYS621  CYS622 
 ASP623  PHE694  ASN695  SER759  ASP760  ASP761  ALA762  ILE779  LEU786  VAL792 
 PHE793  MET794  SER795  GLU796  ALA797  LYS798  CYS799  TRP800  GLU811  SER814 

> <Gold.Protein.RotatedAtoms>
  150.9763  133.6291  159.2729 H   0  0  0  0  0  0  0  0  0  0  0  0  # atno 6907 bound_to 6896
  151.3562  135.0893  159.9429 H   0  0  0  0  0  0  0  0  0  0  0  0  # atno 6908 bound_to 6896
  152.5200  133.9346  159.7651 H   0  0  0  0  0  0  0  0  0  0  0  0  # atno 6909 bound_to 6896
  144.7262  139.9534  143.6432 H   0  0  0  0  0  0  0  0  0  0  0  0  # atno 7974 bound_to 7965
  154.5577  140.0714  156.8770 H   0  0  0  0  0  0  0  0  0  0  0  0  # atno 8008 bound_to 7997
  155.2870  140.3375  155.4236 H   0  0  0  0  0  0  0  0  0  0  0  0  # atno 8009 bound_to 7997
  156.2016  140.1724  156.7873 H   0  0  0  0  0  0  0  0  0  0  0  0  # atno 8010 bound_to 7997
  139.6257  144.0538  152.1972 H   0  0  0  0  0  0  0  0  0  0  0  0  # atno 10167 bound_to 10162
  156.9136  130.5765  149.5647 H   0  0  0  0  0  0  0  0  0  0  0  0  # atno 10718 bound_to 10713
  154.4660  135.2769  155.1678 H   0  0  0  0  0  0  0  0  0  0  0  0  # atno 10763 bound_to 10752
  154.3447  135.6163  153.5617 H   0  0  0  0  0  0  0  0  0  0  0  0  # atno 10764 bound_to 10752
  152.9859  135.5797  154.5031 H   0  0  0  0  0  0  0  0  0  0  0  0  # atno 10765 bound_to 10752
  140.3142  134.2615  155.7728 H   0  0  0  0  0  0  0  0  0  0  0  0  # atno 11005 bound_to 11000
  146.0694  139.3683  143.0532 LP  0  0  0  0  0  0  0  0  0  0  0  0  # atno 17320 bound_to 7965
  145.7988  140.9780  143.1010 LP  0  0  0  0  0  0  0  0  0  0  0  0  # atno 17321 bound_to 7965
  140.0191  144.6167  150.7582 LP  0  0  0  0  0  0  0  0  0  0  0  0  # atno 17342 bound_to 10162
  140.7409  143.2811  151.3597 LP  0  0  0  0  0  0  0  0  0  0  0  0  # atno 17343 bound_to 10162
  156.0524  130.5591  150.9018 LP  0  0  0  0  0  0  0  0  0  0  0  0  # atno 17370 bound_to 10713
  157.5952  131.0943  150.9053 LP  0  0  0  0  0  0  0  0  0  0  0  0  # atno 17371 bound_to 10713
  141.2101  133.7729  156.9952 LP  0  0  0  0  0  0  0  0  0  0  0  0  # atno 17394 bound_to 11000
  140.0998  134.9542  157.1905 LP  0  0  0  0  0  0  0  0  0  0  0  0  # atno 17395 bound_to 11000

$$$$
