AV-unprocessed.smi:2536|AV-procd|sdf|9978|dock2
  -GOLD-   2272014 23D 1   1.00000     0.00000
 Structure written by MMmdl.
 32 33  0  0  0  0  0  0  0  0  1 V2000
  150.9766  137.5296  154.3119 C   0  0  0  0  0  0  0  0  0  0  0  0
  150.9822  138.9108  154.9389 C   0  0  0  0  0  0  0  0  0  0  0  0
  150.1191  139.9230  154.4673 C   0  0  0  0  0  0  0  0  0  0  0  0
  150.1019  141.1591  155.0108 N   0  0  0  0  0  0  0  0  0  0  0  0
  150.9412  141.3888  156.0225 C   0  0  0  0  0  0  0  0  0  0  0  0
  150.8913  142.6643  156.5563 N   0  0  0  0  0  0  0  0  0  0  0  0
  151.6951  143.1366  157.6768 C   0  0  2  0  0  0  0  0  0  0  0  0
  151.5101  142.2522  158.9221 C   0  0  0  0  0  0  0  0  0  0  0  0
  152.2968  142.8404  160.0980 C   0  0  0  0  0  0  0  0  0  0  0  0
  151.9182  144.3146  160.3107 C   0  0  0  0  0  0  0  0  0  0  0  0
  152.1385  145.0495  159.1112 O   0  0  0  0  0  0  0  0  0  0  0  0
  151.3408  144.5951  158.0224 C   0  0  0  0  0  0  0  0  0  0  0  0
  151.8030  140.5109  156.5482 N   0  0  0  0  0  0  0  0  0  0  0  0
  151.8315  139.2698  156.0143 C   0  0  0  0  0  0  0  0  0  0  0  0
  152.8218  138.3109  156.6502 C   0  0  0  0  0  0  0  0  0  0  0  0
  150.2364  137.4629  153.5142 H   0  0  0  0  0  0  0  0  0  0  0  0
  150.7355  136.7732  155.0592 H   0  0  0  0  0  0  0  0  0  0  0  0
  151.9531  137.3004  153.8848 H   0  0  0  0  0  0  0  0  0  0  0  0
  149.4353  139.7429  153.6509 H   0  0  0  0  0  0  0  0  0  0  0  0
  150.1856  143.2853  156.1882 H   0  0  0  0  0  0  0  0  0  0  0  0
  152.7444  143.1115  157.3797 H   0  0  0  0  0  0  0  0  0  0  0  0
  150.4527  142.1944  159.1843 H   0  0  0  0  0  0  0  0  0  0  0  0
  151.8407  141.2314  158.7283 H   0  0  0  0  0  0  0  0  0  0  0  0
  152.1050  142.2665  161.0048 H   0  0  0  0  0  0  0  0  0  0  0  0
  153.3661  142.7638  159.8983 H   0  0  0  0  0  0  0  0  0  0  0  0
  150.8762  144.4076  160.6207 H   0  0  0  0  0  0  0  0  0  0  0  0
  152.5264  144.7468  161.1054 H   0  0  0  0  0  0  0  0  0  0  0  0
  151.5291  145.2411  157.1643 H   0  0  0  0  0  0  0  0  0  0  0  0
  150.2826  144.6960  158.2700 H   0  0  0  0  0  0  0  0  0  0  0  0
  152.8678  137.3502  156.1398 H   0  0  0  0  0  0  0  0  0  0  0  0
  152.5469  138.1267  157.6890 H   0  0  0  0  0  0  0  0  0  0  0  0
  153.8229  138.7425  156.6359 H   0  0  0  0  0  0  0  0  0  0  0  0
  1  2  1  0  0  0  0
  1 16  1  0  0  0  0
  1 17  1  0  0  0  0
  1 18  1  0  0  0  0
  2 14  1  0  0  0  0
  2  3  2  0  0  0  0
  3  4  1  0  0  0  0
  3 19  1  0  0  0  0
  4  5  2  0  0  0  0
  5  6  1  0  0  0  0
  5 13  1  0  0  0  0
  6  7  1  0  0  0  0
  6 20  1  0  0  0  0
  7 12  1  0  0  0  0
  7  8  1  0  0  0  0
  7 21  1  0  0  0  0
  8  9  1  0  0  0  0
  8 22  1  0  0  0  0
  8 23  1  0  0  0  0
  9 10  1  0  0  0  0
  9 24  1  0  0  0  0
  9 25  1  0  0  0  0
 10 11  1  0  0  0  0
 10 26  1  0  0  0  0
 10 27  1  0  0  0  0
 11 12  1  0  0  0  0
 12 28  1  0  0  0  0
 12 29  1  0  0  0  0
 13 14  2  0  0  0  0
 14 15  1  0  0  0  0
 15 30  1  0  0  0  0
 15 31  1  0  0  0  0
 15 32  1  0  0  0  0
M  END
> <s_m_source_file>
AV-unprocessed.smi

> <i_m_source_file_index>
2536

> <i_lp_mmshare_version>
43012

> <i_f3d_flags>
0

> <s_epik_input>
W0NIM11jMVtjSF1uYyhuYzFbQ0gzXSlbTkhdW0NAQEhdMltDSDJdW0NIMl1bQ0gyXU9bQ0gyXTI=

> <s_epik_cmdline>
J2VwaWtfcHl0aG9uJywgJy1waCcsICc3LjAnLCAnLXRuJywgJzgnLCAnLW1hJywgJzIwMCcsICctbWV0YWxfYmluZGluZycsICctaW1hZScsICc8aW5maWxlLm1hZT4nLCAnLW9tYWUnLCAnPG91dGZpbGUubWFlPic=

> <r_lp_tautomer_probability>
1

> <r_epik_Ionization_Penalty>
0.00982357

> <r_epik_Ionization_Penalty_Charging>
0

> <r_epik_Ionization_Penalty_Neutral>
0.00982357

> <r_epik_State_Penalty>
0.0064698

> <r_epik_Charging_Adjusted_Penalty>
0.0064698

> <i_epik_Tot_Q>
0

> <i_epik_Tot_abs_Q>
0

> <r_epik_Metal_State_Penalty>
-0

> <b_epik_Metal_Only>
0

> <s_lp_Force_Field>
OPLS_2005

> <r_lp_Energy>
1.83983

> <b_lp_Chiralities_Consistent>
1

> <s_lp_Variant>
AV-unprocessed.smi:2536-1

> <Gold.Version>
5.8.1

> <Gold.Id.Protein>
6NUR|6NUR_protein|mol2

> <Gold.PLP.Fitness>
38.8773

> <Gold.PLP.PLP>
-32.8942

> <Gold.PLP.part.hbond>
-2.0000

> <Gold.PLP.part.metal>
0.0000

> <Gold.PLP.part.buried>
-2.1866

> <Gold.PLP.part.nonpolar>
-27.5512

> <Gold.PLP.part.repulsive>
0.2429

> <Gold.PLP.ligand.clash>
0.0000

> <Gold.PLP.ligand.torsion>
0.0100

> <Gold.PLP.Chemscore.Hbond>
1.0000

> <Gold.PLP.Chemscore.CHOScore>
1.0000

> <Gold.PLP.Chemscore.Metal>
0.0000

> <Gold.Chemscore.Hbonds>
donor molecule, donor type, donor heavy atom, donor atom, acceptor molecule, acceptor atom, score
      L1  H     6    20       P1  8028  1.00
      L1  C     3    19       P1  7957  1.00

> <Gold.PLP.Chemscore.Internal.Correction>
0.0031

> <Gold.Rescore>
     Score         DG    S(hbond)    S(metal)    S(lipo)     H(rot)  DE(clash)    DE(int)     intcor
     15.57     -16.98       1.00        0.00      91.61       1.00       0.14       1.27       ----

> <Gold.Chemscore.Fitness>
15.5675

> <Gold.Chemscore.DG>
-16.9783

> <Gold.Chemscore.ZeroCoef>
-5.4800

> <Gold.Chemscore.Hbond>
0.9999

> <Gold.Chemscore.Metal>
0.0000

> <Gold.Chemscore.Lipo>
91.6116

> <Gold.Chemscore.Internal_Hbond>
0.0000

> <Gold.Chemscore.DEClash>
0.1403

> <Gold.Chemscore.DEInternal>
1.2705

> <Gold.Chemscore.Rot>
1.0000

> <Gold.Chemscore.Internal.Correction>
   9.000000E+99

> <Gold.Chemscore.Hbonds>
donor molecule, donor type, donor heavy atom, donor atom, acceptor molecule, acceptor atom, score
      L1  H     6    20       P1  8028  0.96

> <Gold.Chemscore.Hbond.Weighted>
-3.3397

> <Gold.Chemscore.Metal.Weighted>
-0.0000

> <Gold.Chemscore.Lipo.Weighted>
-10.7186

> <Gold.Chemscore.Internal_Hbond.Weighted>
0.0000

> <Gold.Chemscore.DEClash.Weighted>
0.1403

> <Gold.Chemscore.DEInternal.Weighted>
1.2705

> <Gold.Chemscore.Rot.Weighted>
2.5600

> <Gold.Chemscore.Internal.Correction.Weighted>
   9.000000E+99

> <Gold.Protein.RotatedTorsions>
[ 6907 6896 6895 6894 ] final   93.78 input  -60.11 | X-H torsion
[ 7974 7965 7964 7962 ] final  157.82 input  175.53 | X-H torsion
[ 8008 7997 7996 7995 ] final  -73.97 input   59.86 | X-H torsion
[ 10167 10162 10161 10158 ] final   39.50 input  -65.29 | X-H torsion
[ 10718 10713 10712 10709 ] final -127.22 input   66.30 | X-H torsion
[ 10763 10752 10751 10750 ] final -127.16 input  -60.55 | X-H torsion
[ 11005 11000 10999 10996 ] final   69.32 input  -57.11 | X-H torsion

> <Gold.Protein.ActiveResidues>
 VAL166  LYS551  ARG553  GLY616  TRP617  ASP618  TYR619  PRO620  LYS621  CYS622 
 ASP623  PHE694  ASN695  SER759  ASP760  ASP761  ALA762  ILE779  LEU786  VAL792 
 PHE793  MET794  SER795  GLU796  ALA797  LYS798  CYS799  TRP800  GLU811  SER814 

> <Gold.Protein.RotatedAtoms>
  152.5451  134.1295  159.8432 H   0  0  0  0  0  0  0  0  0  0  0  0  # atno 6907 bound_to 6896
  151.1342  133.5009  159.2606 H   0  0  0  0  0  0  0  0  0  0  0  0  # atno 6908 bound_to 6896
  151.1642  135.0298  159.8778 H   0  0  0  0  0  0  0  0  0  0  0  0  # atno 6909 bound_to 6896
  144.7881  139.7393  143.6232 H   0  0  0  0  0  0  0  0  0  0  0  0  # atno 7974 bound_to 7965
  154.5291  140.0769  156.8313 H   0  0  0  0  0  0  0  0  0  0  0  0  # atno 8008 bound_to 7997
  155.3412  140.3407  155.4221 H   0  0  0  0  0  0  0  0  0  0  0  0  # atno 8009 bound_to 7997
  156.1763  140.1637  156.8343 H   0  0  0  0  0  0  0  0  0  0  0  0  # atno 8010 bound_to 7997
  140.3834  144.1950  150.6130 H   0  0  0  0  0  0  0  0  0  0  0  0  # atno 10167 bound_to 10162
  156.1837  130.6749  151.0337 H   0  0  0  0  0  0  0  0  0  0  0  0  # atno 10718 bound_to 10713
  154.8750  135.3971  154.3548 H   0  0  0  0  0  0  0  0  0  0  0  0  # atno 10763 bound_to 10752
  153.4329  135.7025  153.6224 H   0  0  0  0  0  0  0  0  0  0  0  0  # atno 10764 bound_to 10752
  153.4838  135.3763  155.2426 H   0  0  0  0  0  0  0  0  0  0  0  0  # atno 10765 bound_to 10752
  139.9660  134.6980  156.0545 H   0  0  0  0  0  0  0  0  0  0  0  0  # atno 11005 bound_to 11000
  146.2121  139.5485  142.9674 LP  0  0  0  0  0  0  0  0  0  0  0  0  # atno 17320 bound_to 7965
  145.5867  141.0375  143.2092 LP  0  0  0  0  0  0  0  0  0  0  0  0  # atno 17321 bound_to 7965
  140.4914  143.2346  151.8812 LP  0  0  0  0  0  0  0  0  0  0  0  0  # atno 17342 bound_to 10162
  139.4794  144.5161  151.8866 LP  0  0  0  0  0  0  0  0  0  0  0  0  # atno 17343 bound_to 10162
  157.6885  131.0817  150.7176 LP  0  0  0  0  0  0  0  0  0  0  0  0  # atno 17370 bound_to 10713
  156.7233  130.4687  149.5517 LP  0  0  0  0  0  0  0  0  0  0  0  0  # atno 17371 bound_to 10713
  141.1340  133.6579  156.3541 LP  0  0  0  0  0  0  0  0  0  0  0  0  # atno 17394 bound_to 11000
  140.5395  134.6134  157.5375 LP  0  0  0  0  0  0  0  0  0  0  0  0  # atno 17395 bound_to 11000

$$$$
