AV-unprocessed.smi:2510|AV-procd|sdf|9879|dock3
  -GOLD-   2272013513D 1   1.00000     0.00000
 Structure written by MMmdl.
 48 49  0  0  0  0  0  0  0  0  1 V2000
  149.6042  139.7886  157.1507 C   0  0  0  0  0  0  0  0  0  0  0  0
  148.5807  138.8494  156.4971 C   0  0  0  0  0  0  0  0  0  0  0  0
  148.7010  138.6913  154.9651 C   0  0  0  0  0  0  0  0  0  0  0  0
  150.0478  137.9615  154.6614 C   0  0  0  0  0  0  0  0  0  0  0  0
  151.3281  138.8012  154.8128 C   0  0  0  0  0  0  0  0  0  0  0  0
  147.4249  138.1007  154.2958 C   0  0  2  0  0  0  0  0  0  0  0  0
  147.5019  136.6839  153.9621 N   0  0  0  0  0  0  0  0  0  0  0  0
  147.0442  135.6934  154.7424 C   0  0  0  0  0  0  0  0  0  0  0  0
  146.3870  135.8824  155.7656 O   0  0  0  0  0  0  0  0  0  0  0  0
  147.4172  134.2725  154.3202 C   0  0  0  0  0  0  0  0  0  0  0  0
  146.6887  133.8953  153.0689 C   0  0  0  0  0  0  0  0  0  0  0  0
  145.8280  132.8675  152.8004 C   0  0  0  0  0  0  0  0  0  0  0  0
  145.5072  133.0269  151.4206 C   0  0  0  0  0  0  0  0  0  0  0  0
  144.6124  132.1715  150.5734 C   0  0  0  0  0  0  0  0  0  0  0  0
  146.1114  134.0739  150.8786 N   0  0  0  0  0  0  0  0  0  0  0  0
  146.8252  134.5970  151.8924 N   0  0  0  0  0  0  0  0  0  0  0  0
  147.6758  139.0159  153.0925 C   0  0  1  0  0  0  0  0  0  0  0  0
  146.5010  139.5054  152.2553 C   0  0  0  0  0  0  0  0  0  0  0  0
  148.3740  139.9472  154.1029 C   0  0  1  0  0  0  0  0  0  0  0  0
  147.4620  140.8196  154.7644 O   0  0  0  0  0  0  0  0  0  0  0  0
  147.1339  141.9686  154.0022 C   0  0  0  0  0  0  0  0  0  0  0  0
  147.3987  135.4189  151.7663 H   0  0  0  0  0  0  0  0  0  0  0  0
  149.3355  139.9800  158.1898 H   0  0  0  0  0  0  0  0  0  0  0  0
  149.6504  140.7509  156.6402 H   0  0  0  0  0  0  0  0  0  0  0  0
  150.6020  139.3523  157.1570 H   0  0  0  0  0  0  0  0  0  0  0  0
  148.6314  137.8754  156.9852 H   0  0  0  0  0  0  0  0  0  0  0  0
  147.5883  139.2258  156.7474 H   0  0  0  0  0  0  0  0  0  0  0  0
  150.1447  137.0716  155.2844 H   0  0  0  0  0  0  0  0  0  0  0  0
  150.0673  137.5768  153.6424 H   0  0  0  0  0  0  0  0  0  0  0  0
  152.2092  138.1631  154.7413 H   0  0  0  0  0  0  0  0  0  0  0  0
  151.3800  139.3250  155.7649 H   0  0  0  0  0  0  0  0  0  0  0  0
  151.4120  139.5434  154.0193 H   0  0  0  0  0  0  0  0  0  0  0  0
  146.5038  138.3727  154.8176 H   0  0  0  0  0  0  0  0  0  0  0  0
  148.0234  136.4364  153.1339 H   0  0  0  0  0  0  0  0  0  0  0  0
  148.4938  134.2088  154.1568 H   0  0  0  0  0  0  0  0  0  0  0  0
  147.1789  133.5806  155.1291 H   0  0  0  0  0  0  0  0  0  0  0  0
  145.4896  132.1046  153.4859 H   0  0  0  0  0  0  0  0  0  0  0  0
  144.0761  131.4415  151.1802 H   0  0  0  0  0  0  0  0  0  0  0  0
  145.1882  131.6235  149.8271 H   0  0  0  0  0  0  0  0  0  0  0  0
  143.8706  132.7742  150.0482 H   0  0  0  0  0  0  0  0  0  0  0  0
  148.4357  138.5774  152.4418 H   0  0  0  0  0  0  0  0  0  0  0  0
  145.7158  139.9357  152.8774 H   0  0  0  0  0  0  0  0  0  0  0  0
  146.0569  138.6874  151.6883 H   0  0  0  0  0  0  0  0  0  0  0  0
  146.8153  140.2670  151.5418 H   0  0  0  0  0  0  0  0  0  0  0  0
  149.2450  140.4692  153.7077 H   0  0  0  0  0  0  0  0  0  0  0  0
  146.4046  142.5702  154.5441 H   0  0  0  0  0  0  0  0  0  0  0  0
  146.7015  141.7029  153.0375 H   0  0  0  0  0  0  0  0  0  0  0  0
  148.0162  142.5862  153.8299 H   0  0  0  0  0  0  0  0  0  0  0  0
  1  2  1  0  0  0  0
  1 23  1  0  0  0  0
  1 24  1  0  0  0  0
  1 25  1  0  0  0  0
  2  3  1  0  0  0  0
  2 26  1  0  0  0  0
  2 27  1  0  0  0  0
  3 19  1  0  0  0  0
  3  4  1  0  0  0  0
  3  6  1  0  0  0  0
  4  5  1  0  0  0  0
  4 28  1  0  0  0  0
  4 29  1  0  0  0  0
  5 30  1  0  0  0  0
  5 31  1  0  0  0  0
  5 32  1  0  0  0  0
  6  7  1  0  0  0  0
  6 17  1  0  0  0  0
  6 33  1  0  0  0  0
  7  8  1  0  0  0  0
  7 34  1  0  0  0  0
  8  9  2  0  0  0  0
  8 10  1  0  0  0  0
 10 35  1  0  0  0  0
 10 36  1  0  0  0  0
 10 11  1  0  0  0  0
 11 16  1  0  0  0  0
 11 12  2  0  0  0  0
 12 13  1  0  0  0  0
 12 37  1  0  0  0  0
 13 14  1  0  0  0  0
 13 15  2  0  0  0  0
 14 38  1  0  0  0  0
 14 39  1  0  0  0  0
 14 40  1  0  0  0  0
 15 16  1  0  0  0  0
 16 22  1  0  0  0  0
 17 18  1  0  0  0  0
 17 19  1  0  0  0  0
 17 41  1  0  0  0  0
 18 42  1  0  0  0  0
 18 43  1  0  0  0  0
 18 44  1  0  0  0  0
 19 20  1  0  0  0  0
 19 45  1  0  0  0  0
 20 21  1  0  0  0  0
 21 46  1  0  0  0  0
 21 47  1  0  0  0  0
 21 48  1  0  0  0  0
M  END
> <s_m_source_file>
AV-unprocessed.smi

> <i_m_source_file_index>
2510

> <i_lp_mmshare_version>
43012

> <i_f3d_flags>
0

> <s_epik_input>
W0NIM11PW0NAQEhdMVtDQEhdKFtDSDNdKVtDQEBIXShDMShbQ0gyXVtDSDNdKVtDSDJdW0NIM10pW05IXUMoPU8pW0NIMl1jMltjSF1jKFtDSDNdKVtuSF1uMg==

> <s_epik_cmdline>
J2VwaWtfcHl0aG9uJywgJy1waCcsICc3LjAnLCAnLXRuJywgJzgnLCAnLW1hJywgJzIwMCcsICctbWV0YWxfYmluZGluZycsICctaW1hZScsICc8aW5maWxlLm1hZT4nLCAnLW9tYWUnLCAnPG91dGZpbGUubWFlPic=

> <r_lp_tautomer_probability>
0.5

> <r_epik_Ionization_Penalty>
0.000134763

> <r_epik_Ionization_Penalty_Charging>
0

> <r_epik_Ionization_Penalty_Neutral>
0.000134763

> <r_epik_State_Penalty>
0.41068

> <r_epik_Charging_Adjusted_Penalty>
0.41068

> <i_epik_Tot_Q>
0

> <i_epik_Tot_abs_Q>
0

> <r_epik_Metal_State_Penalty>
0.410661

> <b_epik_Metal_Only>
0

> <s_lp_Force_Field>
OPLS_2005

> <r_lp_Energy>
26.7648

> <b_lp_Chiralities_Consistent>
1

> <s_lp_Variant>
AV-unprocessed.smi:2510-10

> <Gold.Version>
5.8.1

> <Gold.Id.Protein>
6NUR|6NUR_protein|mol2

> <Gold.PLP.Fitness>
31.1298

> <Gold.PLP.PLP>
-25.9489

> <Gold.PLP.part.hbond>
-2.0000

> <Gold.PLP.part.metal>
0.0000

> <Gold.PLP.part.buried>
-0.9289

> <Gold.PLP.part.nonpolar>
-24.2171

> <Gold.PLP.part.repulsive>
0.3583

> <Gold.PLP.ligand.clash>
0.0000

> <Gold.PLP.ligand.torsion>
0.7432

> <Gold.PLP.Chemscore.Hbond>
1.9920

> <Gold.PLP.Chemscore.CHOScore>
0.0000

> <Gold.PLP.Chemscore.Metal>
0.0000

> <Gold.Chemscore.Hbonds>
donor molecule, donor type, donor heavy atom, donor atom, acceptor molecule, acceptor atom, score
      L1  H     7    34       P1  7948  1.00
      L1  H    16    22       P1  7948  1.00

> <Gold.PLP.Chemscore.Internal.Correction>
0.6913

> <Gold.Rescore>
     Score         DG    S(hbond)    S(metal)    S(lipo)     H(rot)  DE(clash)    DE(int)     intcor
     14.75     -16.26       1.97        0.00      75.56       1.81       0.63       0.88       ----

> <Gold.Chemscore.Fitness>
14.7518

> <Gold.Chemscore.DG>
-16.2631

> <Gold.Chemscore.ZeroCoef>
-5.4800

> <Gold.Chemscore.Hbond>
1.9689

> <Gold.Chemscore.Metal>
0.0000

> <Gold.Chemscore.Lipo>
75.5632

> <Gold.Chemscore.Internal_Hbond>
0.0000

> <Gold.Chemscore.DEClash>
0.6348

> <Gold.Chemscore.DEInternal>
0.8765

> <Gold.Chemscore.Rot>
1.8102

> <Gold.Chemscore.Internal.Correction>
   9.000000E+99

> <Gold.Chemscore.Hbonds>
donor molecule, donor type, donor heavy atom, donor atom, acceptor molecule, acceptor atom, score
      L1  H     7    34       P1  7948  0.98
      L1  H    16    22       P1  7948  0.93

> <Gold.Chemscore.Hbond.Weighted>
-6.5763

> <Gold.Chemscore.Metal.Weighted>
-0.0000

> <Gold.Chemscore.Lipo.Weighted>
-8.8409

> <Gold.Chemscore.Internal_Hbond.Weighted>
0.0000

> <Gold.Chemscore.DEClash.Weighted>
0.6348

> <Gold.Chemscore.DEInternal.Weighted>
0.8765

> <Gold.Chemscore.Rot.Weighted>
4.6341

> <Gold.Chemscore.Internal.Correction.Weighted>
   9.000000E+99

> <Gold.Protein.RotatedTorsions>
[ 6907 6896 6895 6894 ] final  155.04 input  -60.11 | X-H torsion
[ 7974 7965 7964 7962 ] final  -18.96 input  175.53 | X-H torsion
[ 8008 7997 7996 7995 ] final -159.69 input   59.86 | X-H torsion
[ 10167 10162 10161 10158 ] final  -81.07 input  -65.29 | X-H torsion
[ 10718 10713 10712 10709 ] final   24.79 input   66.30 | X-H torsion
[ 10763 10752 10751 10750 ] final   29.88 input  -60.55 | X-H torsion
[ 11005 11000 10999 10996 ] final -176.79 input  -57.11 | X-H torsion

> <Gold.Protein.ActiveResidues>
 VAL166  LYS551  ARG553  GLY616  TRP617  ASP618  TYR619  PRO620  LYS621  CYS622 
 ASP623  PHE694  ASN695  SER759  ASP760  ASP761  ALA762  ILE779  LEU786  VAL792 
 PHE793  MET794  SER795  GLU796  ALA797  LYS798  CYS799  TRP800  GLU811  SER814 

> <Gold.Protein.RotatedAtoms>
  152.0498  133.4014  159.4371 H   0  0  0  0  0  0  0  0  0  0  0  0  # atno 6907 bound_to 6896
  150.6871  134.3320  159.4840 H   0  0  0  0  0  0  0  0  0  0  0  0  # atno 6908 bound_to 6896
  152.1129  134.9261  160.0616 H   0  0  0  0  0  0  0  0  0  0  0  0  # atno 6909 bound_to 6896
  146.1866  140.3994  142.8474 H   0  0  0  0  0  0  0  0  0  0  0  0  # atno 7974 bound_to 7965
  155.7663  140.0846  157.2130 H   0  0  0  0  0  0  0  0  0  0  0  0  # atno 8008 bound_to 7997
  154.3999  140.1533  156.2948 H   0  0  0  0  0  0  0  0  0  0  0  0  # atno 8009 bound_to 7997
  155.8790  140.3421  155.5877 H   0  0  0  0  0  0  0  0  0  0  0  0  # atno 8010 bound_to 7997
  140.4445  143.2503  151.8578 H   0  0  0  0  0  0  0  0  0  0  0  0  # atno 10167 bound_to 10162
  157.1846  130.6818  149.6126 H   0  0  0  0  0  0  0  0  0  0  0  0  # atno 10718 bound_to 10713
  153.0404  135.6478  154.0959 H   0  0  0  0  0  0  0  0  0  0  0  0  # atno 10763 bound_to 10752
  154.0666  135.2884  155.3317 H   0  0  0  0  0  0  0  0  0  0  0  0  # atno 10764 bound_to 10752
  154.6622  135.5387  153.8097 H   0  0  0  0  0  0  0  0  0  0  0  0  # atno 10765 bound_to 10752
  140.4482  134.6368  157.4789 H   0  0  0  0  0  0  0  0  0  0  0  0  # atno 11005 bound_to 11000
  144.8408  140.6854  143.6230 LP  0  0  0  0  0  0  0  0  0  0  0  0  # atno 17320 bound_to 7965
  145.3921  139.1614  143.4223 LP  0  0  0  0  0  0  0  0  0  0  0  0  # atno 17321 bound_to 7965
  139.4792  144.5191  151.8827 LP  0  0  0  0  0  0  0  0  0  0  0  0  # atno 17342 bound_to 10162
  140.4279  144.2155  150.5887 LP  0  0  0  0  0  0  0  0  0  0  0  0  # atno 17343 bound_to 10162
  155.9719  130.4635  150.6184 LP  0  0  0  0  0  0  0  0  0  0  0  0  # atno 17370 bound_to 10713
  157.3919  131.0797  151.1386 LP  0  0  0  0  0  0  0  0  0  0  0  0  # atno 17371 bound_to 10713
  140.0024  134.6815  155.9508 LP  0  0  0  0  0  0  0  0  0  0  0  0  # atno 17394 bound_to 11000
  141.1676  133.6537  156.4534 LP  0  0  0  0  0  0  0  0  0  0  0  0  # atno 17395 bound_to 11000

$$$$
