AV-unprocessed.smi:282|AV-procd|sdf|2118|dock1
  -GOLD-   2262021413D 1   1.00000     0.00000
 Structure written by MMmdl.
 65 69  0  0  0  0  0  0  0  0  2 V2000
  149.8145  130.4297  155.3266 C   0  0  0  0  0  0  0  0  0  0  0  0
  149.1415  131.8089  155.3578 C   0  0  0  0  0  0  0  0  0  0  0  0
  148.5887  132.2785  153.9857 C   0  0  1  0  0  0  0  0  0  0  0  0
  147.5605  131.2669  153.4270 C   0  0  0  0  0  0  0  0  0  0  0  0
  146.9595  131.7199  152.1479 N   0  3  1  0  0  0  0  0  0  0  0  0
  146.0117  130.7176  151.5954 C   0  0  0  0  0  0  0  0  0  0  0  0
  145.4747  131.1511  150.2225 C   0  0  0  0  0  0  0  0  0  0  0  0
  144.8178  132.5336  150.3070 C   0  0  0  0  0  0  0  0  0  0  0  0
  145.8100  133.5458  150.8924 C   0  0  0  0  0  0  0  0  0  0  0  0
  146.3541  133.0765  152.2565 C   0  0  2  0  0  0  0  0  0  0  0  0
  147.3829  134.0793  152.8039 C   0  0  0  0  0  0  0  0  0  0  0  0
  147.9751  133.6119  154.0523 N   0  0  0  0  0  0  0  0  0  0  0  0
  148.7165  134.5909  154.6178 C   0  0  0  0  0  0  0  0  0  0  0  0
  150.0365  134.3406  154.7944 N   0  0  0  0  0  0  0  0  0  0  0  0
  150.8236  135.2711  155.3426 C   0  0  0  0  0  0  0  0  0  0  0  0
  150.4974  136.4910  155.7750 N   0  0  0  0  0  0  0  0  0  0  0  0
  149.1681  136.7435  155.6019 C   0  0  0  0  0  0  0  0  0  0  0  0
  148.2106  135.8519  155.0423 C   0  0  0  0  0  0  0  0  0  0  0  0
  146.9534  136.4424  155.0444 N   0  0  0  0  0  0  0  0  0  0  0  0
  147.1571  137.6177  155.5736 C   0  0  0  0  0  0  0  0  0  0  0  0
  148.4621  137.8918  155.9186 N   0  0  0  0  0  0  0  0  0  0  0  0
  148.9637  139.1186  156.5231 C   0  0  0  0  0  0  0  0  0  0  0  0
  149.4804  140.1914  155.5121 C   0  0  0  0  0  0  0  0  0  0  0  0
  148.3024  140.9931  154.8965 C   0  0  0  0  0  0  0  0  0  0  0  0
  148.7382  142.1654  154.2371 O   0  0  0  0  0  0  0  0  0  0  0  0
  150.4458  141.1736  156.2221 C   0  0  0  0  0  0  0  0  0  0  0  0
  151.8035  140.5350  156.5676 C   0  0  0  0  0  0  0  0  0  0  0  0
  152.4085  140.0127  155.3921 O   0  0  0  0  0  0  0  0  0  0  0  0
  151.6351  138.9854  154.7861 C   0  0  0  0  0  0  0  0  0  0  0  0
  150.2715  139.5480  154.3451 C   0  0  0  0  0  0  0  0  0  0  0  0
  150.2664  130.2030  156.2927 H   0  0  0  0  0  0  0  0  0  0  0  0
  150.6047  130.3940  154.5764 H   0  0  0  0  0  0  0  0  0  0  0  0
  149.1036  129.6331  155.1099 H   0  0  0  0  0  0  0  0  0  0  0  0
  148.3415  131.8082  156.0992 H   0  0  0  0  0  0  0  0  0  0  0  0
  149.8895  132.5108  155.7264 H   0  0  0  0  0  0  0  0  0  0  0  0
  149.4191  132.3307  153.2810 H   0  0  0  0  0  0  0  0  0  0  0  0
  148.0366  130.3015  153.2568 H   0  0  0  0  0  0  0  0  0  0  0  0
  146.7651  131.1051  154.1569 H   0  0  0  0  0  0  0  0  0  0  0  0
  146.5135  129.7539  151.5000 H   0  0  0  0  0  0  0  0  0  0  0  0
  145.1840  130.5758  152.2923 H   0  0  0  0  0  0  0  0  0  0  0  0
  146.2904  131.1743  149.4986 H   0  0  0  0  0  0  0  0  0  0  0  0
  144.7549  130.4189  149.8554 H   0  0  0  0  0  0  0  0  0  0  0  0
  144.4882  132.8561  149.3190 H   0  0  0  0  0  0  0  0  0  0  0  0
  143.9266  132.4834  150.9341 H   0  0  0  0  0  0  0  0  0  0  0  0
  146.6355  133.6885  150.1935 H   0  0  0  0  0  0  0  0  0  0  0  0
  145.3246  134.5166  150.9974 H   0  0  0  0  0  0  0  0  0  0  0  0
  145.5224  133.0171  152.9613 H   0  0  0  0  0  0  0  0  0  0  0  0
  148.1749  134.2343  152.0694 H   0  0  0  0  0  0  0  0  0  0  0  0
  146.9027  135.0468  152.9609 H   0  0  0  0  0  0  0  0  0  0  0  0
  151.8640  135.0011  155.4480 H   0  0  0  0  0  0  0  0  0  0  0  0
  146.3547  138.3254  155.7233 H   0  0  0  0  0  0  0  0  0  0  0  0
  148.1602  139.5372  157.1301 H   0  0  0  0  0  0  0  0  0  0  0  0
  149.7405  138.8413  157.2343 H   0  0  0  0  0  0  0  0  0  0  0  0
  147.7651  140.3838  154.1689 H   0  0  0  0  0  0  0  0  0  0  0  0
  147.5716  141.2678  155.6571 H   0  0  0  0  0  0  0  0  0  0  0  0
  148.6206  142.8992  154.8206 H   0  0  0  0  0  0  0  0  0  0  0  0
  150.6324  142.0328  155.5765 H   0  0  0  0  0  0  0  0  0  0  0  0
  149.9878  141.5730  157.1277 H   0  0  0  0  0  0  0  0  0  0  0  0
  152.4673  141.2877  156.9931 H   0  0  0  0  0  0  0  0  0  0  0  0
  151.7000  139.7521  157.3193 H   0  0  0  0  0  0  0  0  0  0  0  0
  152.1772  138.6088  153.9185 H   0  0  0  0  0  0  0  0  0  0  0  0
  151.5250  138.1457  155.4721 H   0  0  0  0  0  0  0  0  0  0  0  0
  149.6852  138.7718  153.8543 H   0  0  0  0  0  0  0  0  0  0  0  0
  150.4583  140.2997  153.5770 H   0  0  0  0  0  0  0  0  0  0  0  0
  147.7184  131.7974  151.4860 H   0  0  0  0  0  0  0  0  0  0  0  0
  1  2  1  0  0  0  0
  1 31  1  0  0  0  0
  1 32  1  0  0  0  0
  1 33  1  0  0  0  0
  2  3  1  0  0  0  0
  2 34  1  0  0  0  0
  2 35  1  0  0  0  0
  3 12  1  0  0  0  0
  3  4  1  0  0  0  0
  3 36  1  0  0  0  0
  4  5  1  0  0  0  0
  4 37  1  0  0  0  0
  4 38  1  0  0  0  0
  5 10  1  0  0  0  0
  5  6  1  0  0  0  0
  5 65  1  0  0  0  0
  6  7  1  0  0  0  0
  6 39  1  0  0  0  0
  6 40  1  0  0  0  0
  7  8  1  0  0  0  0
  7 41  1  0  0  0  0
  7 42  1  0  0  0  0
  8  9  1  0  0  0  0
  8 43  1  0  0  0  0
  8 44  1  0  0  0  0
  9 10  1  0  0  0  0
  9 45  1  0  0  0  0
  9 46  1  0  0  0  0
 10 11  1  0  0  0  0
 10 47  1  0  0  0  0
 11 12  1  0  0  0  0
 11 48  1  0  0  0  0
 11 49  1  0  0  0  0
 12 13  1  0  0  0  0
 13 18  1  0  0  0  0
 13 14  2  0  0  0  0
 14 15  1  0  0  0  0
 15 16  2  0  0  0  0
 15 50  1  0  0  0  0
 16 17  1  0  0  0  0
 17 21  1  0  0  0  0
 17 18  2  0  0  0  0
 18 19  1  0  0  0  0
 19 20  2  0  0  0  0
 20 21  1  0  0  0  0
 20 51  1  0  0  0  0
 21 22  1  0  0  0  0
 22 23  1  0  0  0  0
 22 52  1  0  0  0  0
 22 53  1  0  0  0  0
 23 30  1  0  0  0  0
 23 24  1  0  0  0  0
 23 26  1  0  0  0  0
 24 25  1  0  0  0  0
 24 54  1  0  0  0  0
 24 55  1  0  0  0  0
 25 56  1  0  0  0  0
 26 27  1  0  0  0  0
 26 57  1  0  0  0  0
 26 58  1  0  0  0  0
 27 28  1  0  0  0  0
 27 59  1  0  0  0  0
 27 60  1  0  0  0  0
 28 29  1  0  0  0  0
 29 30  1  0  0  0  0
 29 61  1  0  0  0  0
 29 62  1  0  0  0  0
 30 63  1  0  0  0  0
 30 64  1  0  0  0  0
M  CHG  1   5   1
M  END
> <s_m_source_file>
AV-unprocessed.smi

> <i_m_source_file_index>
282

> <i_lp_mmshare_version>
43012

> <i_f3d_flags>
0

> <s_epik_input>
W0NIMl0xW0NIMl1bQ0gyXVtDSDJdW0NAQEhdKE4xMilbQ0gyXU4oW0NAQEhdKFtDSDJdMilbQ0gyXVtDSDNdKWMobltjSF1uMyljKGMzNCluW2NIXW40W0NIMl1DNShbQ0gyXVtPSF0pW0NIMl1bQ0gyXU9bQ0gyXVtDSDJdNQ==

> <s_epik_cmdline>
J2VwaWtfcHl0aG9uJywgJy1waCcsICc3LjAnLCAnLXRuJywgJzgnLCAnLW1hJywgJzIwMCcsICctbWV0YWxfYmluZGluZycsICctaW1hZScsICc8aW5maWxlLm1hZT4nLCAnLW9tYWUnLCAnPG91dGZpbGUubWFlPic=

> <r_lp_tautomer_probability>
1

> <r_epik_Ionization_Penalty>
0.00308583

> <r_epik_Ionization_Penalty_Charging>
0.00300384

> <r_epik_Ionization_Penalty_Neutral>
8.19894e-05

> <r_epik_State_Penalty>
-0

> <r_epik_Charging_Adjusted_Penalty>
0.00300384

> <i_epik_Tot_Q>
1

> <i_epik_Tot_abs_Q>
1

> <r_epik_Metal_State_Penalty>
-0

> <b_epik_Metal_Only>
0

> <s_lp_Force_Field>
OPLS_2005

> <r_lp_Energy>
55.6254

> <b_lp_Chiralities_Consistent>
1

> <s_lp_Variant>
AV-unprocessed.smi:282-2

> <Gold.Version>
5.8.1

> <Gold.Id.Protein>
6NUR|6NUR_protein|mol2

> <Gold.PLP.Fitness>
46.5137

> <Gold.PLP.PLP>
-38.6071

> <Gold.PLP.part.hbond>
-4.6538

> <Gold.PLP.part.metal>
0.0000

> <Gold.PLP.part.buried>
-2.1994

> <Gold.PLP.part.nonpolar>
-32.7324

> <Gold.PLP.part.repulsive>
0.3435

> <Gold.PLP.ligand.clash>
0.2290

> <Gold.PLP.ligand.torsion>
0.9870

> <Gold.PLP.Chemscore.Hbond>
3.2806

> <Gold.PLP.Chemscore.CHOScore>
0.0000

> <Gold.PLP.Chemscore.Metal>
0.0000

> <Gold.Chemscore.Hbonds>
donor molecule, donor type, donor heavy atom, donor atom, acceptor molecule, acceptor atom, score
      L1  H     5    65       P1 10747  0.94
      L1  H    25    56       P1  8028  1.00
      P1  H  7997  8008       L1    28  0.80
      P1  H  8011  8017       L1    25  0.19

> <Gold.PLP.Chemscore.Internal.Correction>
0.2677

> <Gold.Rescore>
     Score         DG    S(hbond)    S(metal)    S(lipo)     H(rot)  DE(clash)    DE(int)     intcor
     17.25     -21.02       2.77        0.00     107.49       2.46       1.46       2.31       ----

> <Gold.Chemscore.Fitness>
17.2469

> <Gold.Chemscore.DG>
-21.0165

> <Gold.Chemscore.ZeroCoef>
-5.4800

> <Gold.Chemscore.Hbond>
2.7700

> <Gold.Chemscore.Metal>
0.0000

> <Gold.Chemscore.Lipo>
107.4885

> <Gold.Chemscore.Internal_Hbond>
0.0000

> <Gold.Chemscore.DEClash>
1.4573

> <Gold.Chemscore.DEInternal>
2.3123

> <Gold.Chemscore.Rot>
2.4576

> <Gold.Chemscore.Internal.Correction>
   9.000000E+99

> <Gold.Chemscore.Hbonds>
donor molecule, donor type, donor heavy atom, donor atom, acceptor molecule, acceptor atom, score
      L1  H     5    65       P1 10747  0.89
      L1  H    25    56       P1  8028  0.96
      P1  H  7997  8008       L1    28  0.18
      P1  H  8011  8017       L1    25  0.18

> <Gold.Chemscore.Hbond.Weighted>
-9.2518

> <Gold.Chemscore.Metal.Weighted>
-0.0000

> <Gold.Chemscore.Lipo.Weighted>
-12.5762

> <Gold.Chemscore.Internal_Hbond.Weighted>
0.0000

> <Gold.Chemscore.DEClash.Weighted>
1.4573

> <Gold.Chemscore.DEInternal.Weighted>
2.3123

> <Gold.Chemscore.Rot.Weighted>
6.2915

> <Gold.Chemscore.Internal.Correction.Weighted>
   9.000000E+99

> <Gold.Protein.RotatedTorsions>
[ 6907 6896 6895 6894 ] final  -68.39 input  -60.11 | X-H torsion
[ 7974 7965 7964 7962 ] final  -90.55 input  175.53 | X-H torsion
[ 8008 7997 7996 7995 ] final  -19.68 input   59.86 | X-H torsion
[ 10167 10162 10161 10158 ] final  159.39 input  -65.29 | X-H torsion
[ 10718 10713 10712 10709 ] final   52.76 input   66.30 | X-H torsion
[ 10763 10752 10751 10750 ] final  -80.96 input  -60.55 | X-H torsion
[ 11005 11000 10999 10996 ] final    5.71 input  -57.11 | X-H torsion

> <Gold.Protein.ActiveResidues>
 VAL166  LYS551  ARG553  GLY616  TRP617  ASP618  TYR619  PRO620  LYS621  CYS622 
 ASP623  PHE694  ASN695  SER759  ASP760  ASP761  ALA762  ILE779  LEU786  VAL792 
 PHE793  MET794  SER795  GLU796  ALA797  LYS798  CYS799  TRP800  GLU811  SER814 

> <Gold.Protein.RotatedAtoms>
  150.7358  134.5745  159.5906 H   0  0  0  0  0  0  0  0  0  0  0  0  # atno 6907 bound_to 6896
  152.3175  134.7418  160.0331 H   0  0  0  0  0  0  0  0  0  0  0  0  # atno 6908 bound_to 6896
  151.7945  133.3327  159.3545 H   0  0  0  0  0  0  0  0  0  0  0  0  # atno 6909 bound_to 6896
  145.4249  140.9553  143.2160 H   0  0  0  0  0  0  0  0  0  0  0  0  # atno 7974 bound_to 7965
  154.4820  140.2082  155.9741 H   0  0  0  0  0  0  0  0  0  0  0  0  # atno 8008 bound_to 7997
  156.1179  140.3218  155.8136 H   0  0  0  0  0  0  0  0  0  0  0  0  # atno 8009 bound_to 7997
  155.4519  140.0517  157.2991 H   0  0  0  0  0  0  0  0  0  0  0  0  # atno 8010 bound_to 7997
  139.4832  144.4735  151.8544 H   0  0  0  0  0  0  0  0  0  0  0  0  # atno 10167 bound_to 10162
  157.5104  130.8497  149.8428 H   0  0  0  0  0  0  0  0  0  0  0  0  # atno 10718 bound_to 10713
  154.5576  135.5643  153.6978 H   0  0  0  0  0  0  0  0  0  0  0  0  # atno 10763 bound_to 10752
  153.0008  135.6266  154.2289 H   0  0  0  0  0  0  0  0  0  0  0  0  # atno 10764 bound_to 10752
  154.2225  135.2869  155.2899 H   0  0  0  0  0  0  0  0  0  0  0  0  # atno 10765 bound_to 10752
  140.5677  134.0132  155.7996 H   0  0  0  0  0  0  0  0  0  0  0  0  # atno 11005 bound_to 11000
  144.8221  139.5774  143.6982 LP  0  0  0  0  0  0  0  0  0  0  0  0  # atno 17320 bound_to 7965
  146.2637  139.6470  142.9344 LP  0  0  0  0  0  0  0  0  0  0  0  0  # atno 17321 bound_to 7965
  140.4205  144.2249  150.5887 LP  0  0  0  0  0  0  0  0  0  0  0  0  # atno 17342 bound_to 10162
  140.4878  143.2357  151.8862 LP  0  0  0  0  0  0  0  0  0  0  0  0  # atno 17343 bound_to 10162
  156.0285  130.3772  150.1753 LP  0  0  0  0  0  0  0  0  0  0  0  0  # atno 17370 bound_to 10713
  156.9942  130.9903  151.3407 LP  0  0  0  0  0  0  0  0  0  0  0  0  # atno 17371 bound_to 10713
  141.1075  133.9669  157.2970 LP  0  0  0  0  0  0  0  0  0  0  0  0  # atno 17394 bound_to 11000
  139.9377  135.0195  156.8608 LP  0  0  0  0  0  0  0  0  0  0  0  0  # atno 17395 bound_to 11000

$$$$
