AV-unprocessed.smi:1209|AV-procd|sdf|5074|dock9
  -GOLD-   22720 4123D 1   1.00000     0.00000
 Structure written by MMmdl.
 49 51  0  0  0  0  0  0  0  0  2 V2000
  146.5404  145.2347  160.9929 C   0  0  0  0  0  0  0  0  0  0  0  0
  146.7411  144.2036  159.9357 C   0  0  0  0  0  0  0  0  0  0  0  0
  146.0821  143.9191  158.7735 C   0  0  0  0  0  0  0  0  0  0  0  0
  146.7972  142.8093  158.2452 C   0  0  0  0  0  0  0  0  0  0  0  0
  146.5354  142.0545  156.9711 C   0  0  0  0  0  0  0  0  0  0  0  0
  147.7391  142.0225  156.1004 N   0  3  2  0  0  0  0  0  0  0  0  0
  147.4143  141.7018  154.6901 C   0  0  0  0  0  0  0  0  0  0  0  0
  148.8205  141.1539  156.6320 C   0  0  0  0  0  0  0  0  0  0  0  0
  150.2174  141.6043  156.1608 C   0  0  2  0  0  0  0  0  0  0  0  0
  150.5335  140.9256  154.9607 O   0  0  0  0  0  0  0  0  0  0  0  0
  151.3021  141.3065  157.2133 C   0  0  0  0  0  0  0  0  0  0  0  0
  151.3795  142.3393  158.2305 N   0  0  0  0  0  0  0  0  0  0  0  0
  150.7350  143.5222  158.2451 C   0  0  0  0  0  0  0  0  0  0  0  0
  150.9504  144.3190  159.2878 N   0  0  0  0  0  0  0  0  0  0  0  0
  151.8450  143.5700  160.0329 C   0  0  0  0  0  0  0  0  0  0  0  0
  152.4712  143.8487  161.2673 C   0  0  0  0  0  0  0  0  0  0  0  0
  153.3622  142.9214  161.8536 C   0  0  0  0  0  0  0  0  0  0  0  0
  154.0106  143.2604  163.1841 C   0  0  0  0  0  0  0  0  0  0  0  0
  153.6414  141.6935  161.2013 C   0  0  0  0  0  0  0  0  0  0  0  0
  154.5959  140.6828  161.8115 C   0  0  0  0  0  0  0  0  0  0  0  0
  153.0252  141.3998  159.9671 C   0  0  0  0  0  0  0  0  0  0  0  0
  152.1372  142.3285  159.3964 C   0  0  0  0  0  0  0  0  0  0  0  0
  147.8072  142.4599  159.0248 N   0  0  0  0  0  0  0  0  0  0  0  0
  147.7779  143.3442  160.1087 O   0  0  0  0  0  0  0  0  0  0  0  0
  145.5643  145.7101  160.8935 H   0  0  0  0  0  0  0  0  0  0  0  0
  147.3034  146.0102  160.9247 H   0  0  0  0  0  0  0  0  0  0  0  0
  146.5987  144.7887  161.9859 H   0  0  0  0  0  0  0  0  0  0  0  0
  145.2208  144.4269  158.3653 H   0  0  0  0  0  0  0  0  0  0  0  0
  146.2274  141.0421  157.2287 H   0  0  0  0  0  0  0  0  0  0  0  0
  145.6980  142.4873  156.4206 H   0  0  0  0  0  0  0  0  0  0  0  0
  147.0094  140.6926  154.6032 H   0  0  0  0  0  0  0  0  0  0  0  0
  148.3052  141.7673  154.0647 H   0  0  0  0  0  0  0  0  0  0  0  0
  146.6839  142.3994  154.2802 H   0  0  0  0  0  0  0  0  0  0  0  0
  148.7654  141.1413  157.7218 H   0  0  0  0  0  0  0  0  0  0  0  0
  148.6653  140.1224  156.3108 H   0  0  0  0  0  0  0  0  0  0  0  0
  150.2209  142.6734  155.9515 H   0  0  0  0  0  0  0  0  0  0  0  0
  149.7272  140.6544  154.5474 H   0  0  0  0  0  0  0  0  0  0  0  0
  151.0936  140.3590  157.7117 H   0  0  0  0  0  0  0  0  0  0  0  0
  152.2796  141.2026  156.7399 H   0  0  0  0  0  0  0  0  0  0  0  0
  150.0654  143.8130  157.4486 H   0  0  0  0  0  0  0  0  0  0  0  0
  152.2600  144.7848  161.7632 H   0  0  0  0  0  0  0  0  0  0  0  0
  155.0959  143.2877  163.0844 H   0  0  0  0  0  0  0  0  0  0  0  0
  153.7497  142.5164  163.9371 H   0  0  0  0  0  0  0  0  0  0  0  0
  153.6836  144.2344  163.5498 H   0  0  0  0  0  0  0  0  0  0  0  0
  154.7023  139.8022  161.1772 H   0  0  0  0  0  0  0  0  0  0  0  0
  154.2306  140.3525  162.7841 H   0  0  0  0  0  0  0  0  0  0  0  0
  155.5853  141.1212  161.9431 H   0  0  0  0  0  0  0  0  0  0  0  0
  153.2299  140.4688  159.4596 H   0  0  0  0  0  0  0  0  0  0  0  0
  148.1195  142.9586  156.0947 H   0  0  0  0  0  0  0  0  0  0  0  0
  1  2  1  0  0  0  0
  1 25  1  0  0  0  0
  1 26  1  0  0  0  0
  1 27  1  0  0  0  0
  2 24  1  0  0  0  0
  2  3  2  0  0  0  0
  3  4  1  0  0  0  0
  3 28  1  0  0  0  0
  4  5  1  0  0  0  0
  4 23  2  0  0  0  0
  5  6  1  0  0  0  0
  5 29  1  0  0  0  0
  5 30  1  0  0  0  0
  6  7  1  0  0  0  0
  6  8  1  0  0  0  0
  6 49  1  0  0  0  0
  7 31  1  0  0  0  0
  7 32  1  0  0  0  0
  7 33  1  0  0  0  0
  8  9  1  0  0  0  0
  8 34  1  0  0  0  0
  8 35  1  0  0  0  0
  9 10  1  0  0  0  0
  9 11  1  0  0  0  0
  9 36  1  0  0  0  0
 10 37  1  0  0  0  0
 11 12  1  0  0  0  0
 11 38  1  0  0  0  0
 11 39  1  0  0  0  0
 12 22  1  0  0  0  0
 12 13  1  0  0  0  0
 13 14  2  0  0  0  0
 13 40  1  0  0  0  0
 14 15  1  0  0  0  0
 15 22  2  0  0  0  0
 15 16  1  0  0  0  0
 16 17  2  0  0  0  0
 16 41  1  0  0  0  0
 17 18  1  0  0  0  0
 17 19  1  0  0  0  0
 18 42  1  0  0  0  0
 18 43  1  0  0  0  0
 18 44  1  0  0  0  0
 19 20  1  0  0  0  0
 19 21  2  0  0  0  0
 20 45  1  0  0  0  0
 20 46  1  0  0  0  0
 20 47  1  0  0  0  0
 21 22  1  0  0  0  0
 21 48  1  0  0  0  0
 23 24  1  0  0  0  0
M  CHG  1   6   1
M  END
> <s_m_source_file>
AV-unprocessed.smi

> <i_m_source_file_index>
1209

> <i_lp_mmshare_version>
43012

> <i_f3d_flags>
0

> <s_epik_input>
W0NIM11jMVtjSF1jKG5vMSlbQ0gyXU4oW0NIM10pW0NIMl1bQ0BIXShbT0hdKVtDSDJdbihbY0hdbjIpYyhjMjMpW2NIXWMoW0NIM10pYyhbY0hdMylbQ0gzXQ==

> <s_epik_cmdline>
J2VwaWtfcHl0aG9uJywgJy1waCcsICc3LjAnLCAnLXRuJywgJzgnLCAnLW1hJywgJzIwMCcsICctbWV0YWxfYmluZGluZycsICctaW1hZScsICc8aW5maWxlLm1hZT4nLCAnLW9tYWUnLCAnPG91dGZpbGUubWFlPic=

> <r_epik_Ionization_Penalty>
2.05249

> <r_epik_Ionization_Penalty_Charging>
1.96618

> <r_epik_Ionization_Penalty_Neutral>
0.0863156

> <r_epik_State_Penalty>
2.19215

> <r_epik_Charging_Adjusted_Penalty>
4.15833

> <i_epik_Tot_Q>
1

> <i_epik_Tot_abs_Q>
1

> <r_epik_Metal_State_Penalty>
2.17654

> <b_epik_Metal_Only>
0

> <s_lp_Force_Field>
OPLS_2005

> <r_lp_Energy>
8.61119

> <b_lp_Chiralities_Consistent>
1

> <s_lp_Variant>
AV-unprocessed.smi:1209-6

> <Gold.Version>
5.8.1

> <Gold.Id.Protein>
6NUR|6NUR_protein|mol2

> <Gold.PLP.Fitness>
61.9036

> <Gold.PLP.PLP>
-50.3724

> <Gold.PLP.part.hbond>
-4.5788

> <Gold.PLP.part.metal>
0.0000

> <Gold.PLP.part.buried>
-5.9738

> <Gold.PLP.part.nonpolar>
-39.2883

> <Gold.PLP.part.repulsive>
0.3009

> <Gold.PLP.ligand.clash>
0.0000

> <Gold.PLP.ligand.torsion>
1.0924

> <Gold.PLP.Chemscore.Hbond>
3.5504

> <Gold.PLP.Chemscore.CHOScore>
1.0000

> <Gold.PLP.Chemscore.Metal>
0.0000

> <Gold.Chemscore.Hbonds>
donor molecule, donor type, donor heavy atom, donor atom, acceptor molecule, acceptor atom, score
      L1  H     6    49       P1  8028  2.00
      P1  H  6933  6944       L1    24  1.00
      P1  H  7989  7998       L1    10  0.73
      L1  C    13    40       P1  8028  1.00

> <Gold.PLP.Chemscore.Internal.Correction>
0.0648

> <Gold.Rescore>
     Score         DG    S(hbond)    S(metal)    S(lipo)     H(rot)  DE(clash)    DE(int)     intcor
     15.21     -19.45       1.73        0.00     125.50       2.53       1.64       2.60       ----

> <Gold.Chemscore.Fitness>
15.2128

> <Gold.Chemscore.DG>
-19.4500

> <Gold.Chemscore.ZeroCoef>
-5.4800

> <Gold.Chemscore.Hbond>
1.7281

> <Gold.Chemscore.Metal>
0.0000

> <Gold.Chemscore.Lipo>
125.4971

> <Gold.Chemscore.Internal_Hbond>
0.0000

> <Gold.Chemscore.DEClash>
1.6359

> <Gold.Chemscore.DEInternal>
2.6013

> <Gold.Chemscore.Rot>
2.5332

> <Gold.Chemscore.Internal.Correction>
   9.000000E+99

> <Gold.Chemscore.Hbonds>
donor molecule, donor type, donor heavy atom, donor atom, acceptor molecule, acceptor atom, score
      L1  H     6    49       P1  8028  0.69
      P1  H  6933  6944       L1    24  0.33
      P1  H  7989  7998       L1    10  0.16

> <Gold.Chemscore.Hbond.Weighted>
-5.7720

> <Gold.Chemscore.Metal.Weighted>
-0.0000

> <Gold.Chemscore.Lipo.Weighted>
-14.6832

> <Gold.Chemscore.Internal_Hbond.Weighted>
0.0000

> <Gold.Chemscore.DEClash.Weighted>
1.6359

> <Gold.Chemscore.DEInternal.Weighted>
2.6013

> <Gold.Chemscore.Rot.Weighted>
6.4851

> <Gold.Chemscore.Internal.Correction.Weighted>
   9.000000E+99

> <Gold.Protein.RotatedTorsions>
[ 6907 6896 6895 6894 ] final  -95.84 input  -60.11 | X-H torsion
[ 7974 7965 7964 7962 ] final  146.63 input  175.53 | X-H torsion
[ 8008 7997 7996 7995 ] final  153.62 input   59.86 | X-H torsion
[ 10167 10162 10161 10158 ] final   53.30 input  -65.29 | X-H torsion
[ 10718 10713 10712 10709 ] final   12.45 input   66.30 | X-H torsion
[ 10763 10752 10751 10750 ] final    2.83 input  -60.55 | X-H torsion
[ 11005 11000 10999 10996 ] final  113.44 input  -57.11 | X-H torsion

> <Gold.Protein.ActiveResidues>
 VAL166  LYS551  ARG553  GLY616  TRP617  ASP618  TYR619  PRO620  LYS621  CYS622 
 ASP623  PHE694  ASN695  SER759  ASP760  ASP761  ALA762  ILE779  LEU786  VAL792 
 PHE793  MET794  SER795  GLU796  ALA797  LYS798  CYS799  TRP800  GLU811  SER814 

> <Gold.Protein.RotatedAtoms>
  150.6974  134.1595  159.4170 H   0  0  0  0  0  0  0  0  0  0  0  0  # atno 6907 bound_to 6896
  151.9575  135.0137  160.0555 H   0  0  0  0  0  0  0  0  0  0  0  0  # atno 6908 bound_to 6896
  152.1956  133.4769  159.5068 H   0  0  0  0  0  0  0  0  0  0  0  0  # atno 6909 bound_to 6896
  144.8656  139.5928  143.5910 H   0  0  0  0  0  0  0  0  0  0  0  0  # atno 7974 bound_to 7965
  156.2572  140.1988  156.6519 H   0  0  0  0  0  0  0  0  0  0  0  0  # atno 8008 bound_to 7997
  154.6530  140.0569  157.0002 H   0  0  0  0  0  0  0  0  0  0  0  0  # atno 8009 bound_to 7997
  155.1390  140.3241  155.4459 H   0  0  0  0  0  0  0  0  0  0  0  0  # atno 8010 bound_to 7997
  140.2422  144.3571  150.6376 H   0  0  0  0  0  0  0  0  0  0  0  0  # atno 10167 bound_to 10162
  157.0104  130.6114  149.5707 H   0  0  0  0  0  0  0  0  0  0  0  0  # atno 10718 bound_to 10713
  153.2908  135.6948  153.7295 H   0  0  0  0  0  0  0  0  0  0  0  0  # atno 10763 bound_to 10752
  153.6247  135.3421  155.3023 H   0  0  0  0  0  0  0  0  0  0  0  0  # atno 10764 bound_to 10752
  154.8523  135.4394  154.1990 H   0  0  0  0  0  0  0  0  0  0  0  0  # atno 10765 bound_to 10752
  139.8953  134.9550  156.6739 H   0  0  0  0  0  0  0  0  0  0  0  0  # atno 11005 bound_to 11000
  146.2893  139.7093  142.9172 LP  0  0  0  0  0  0  0  0  0  0  0  0  # atno 17320 bound_to 7965
  145.4228  141.0408  143.2954 LP  0  0  0  0  0  0  0  0  0  0  0  0  # atno 17321 bound_to 7965
  140.6105  143.2169  151.6896 LP  0  0  0  0  0  0  0  0  0  0  0  0  # atno 17342 bound_to 10162
  139.5073  144.3649  152.0526 LP  0  0  0  0  0  0  0  0  0  0  0  0  # atno 17343 bound_to 10162
  156.0138  130.5231  150.8072 LP  0  0  0  0  0  0  0  0  0  0  0  0  # atno 17370 bound_to 10713
  157.5325  131.0937  150.9936 LP  0  0  0  0  0  0  0  0  0  0  0  0  # atno 17371 bound_to 10713
  140.7352  133.9025  155.8239 LP  0  0  0  0  0  0  0  0  0  0  0  0  # atno 17394 bound_to 11000
  141.0122  134.1005  157.4210 LP  0  0  0  0  0  0  0  0  0  0  0  0  # atno 17395 bound_to 11000

$$$$
