AV-unprocessed.smi:1421|AV-procd|sdf|5791|dock7
  -GOLD-   22720 5443D 1   1.00000     0.00000
 Structure written by MMmdl.
 44 45  0  0  0  0  0  0  0  0  2 V2000
  147.4587  134.8796  162.0012 C   0  0  0  0  0  0  0  0  0  0  0  0
  147.1070  136.6838  162.1461 S   0  0  0  0  0  0  0  0  0  0  0  0
  145.6475  136.7733  162.3010 O   0  0  0  0  0  0  0  0  0  0  0  0
  147.9237  137.1734  163.2696 O   0  0  0  0  0  0  0  0  0  0  0  0
  147.5739  137.2501  160.6945 N   0  5  0  0  0  0  0  0  0  0  0  0
  147.4209  136.4520  159.4866 C   0  0  0  0  0  0  0  0  0  0  0  0
  148.4035  136.9520  158.4052 C   0  0  0  0  0  0  0  0  0  0  0  0
  147.7193  137.3608  157.0919 C   0  0  0  0  0  0  0  0  0  0  0  0
  146.5054  137.5744  157.0512 O   0  0  0  0  0  0  0  0  0  0  0  0
  148.5071  137.4312  156.0078 N   0  0  0  0  0  0  0  0  0  0  0  0
  148.0533  137.8100  154.6764 C   0  0  0  0  0  0  0  0  0  0  0  0
  147.9817  139.3233  154.4866 C   0  0  0  0  0  0  0  0  0  0  0  0
  146.8012  139.9037  153.9695 C   0  0  0  0  0  0  0  0  0  0  0  0
  146.7458  141.2936  153.7643 C   0  0  0  0  0  0  0  0  0  0  0  0
  147.8832  142.0577  154.0777 C   0  0  0  0  0  0  0  0  0  0  0  0
  149.0203  141.5213  154.5655 N   0  0  0  0  0  0  0  0  0  0  0  0
  149.0796  140.1821  154.7678 C   0  0  0  0  0  0  0  0  0  0  0  0
  150.2740  139.6681  155.3037 N   0  0  0  0  0  0  0  0  0  0  0  0
  151.1004  138.8558  154.4172 C   0  0  0  0  0  0  0  0  0  0  0  0
  152.2462  138.2149  155.2189 C   0  0  0  0  0  0  0  0  0  0  0  0
  152.9968  139.2335  155.8747 O   0  0  0  0  0  0  0  0  0  0  0  0
  152.2008  139.9837  156.7887 C   0  0  0  0  0  0  0  0  0  0  0  0
  151.0470  140.6653  156.0331 C   0  0  0  0  0  0  0  0  0  0  0  0
  147.0893  134.3723  162.8916 H   0  0  0  0  0  0  0  0  0  0  0  0
  148.5317  134.7125  161.9165 H   0  0  0  0  0  0  0  0  0  0  0  0
  146.9537  134.4797  161.1225 H   0  0  0  0  0  0  0  0  0  0  0  0
  147.6085  135.3945  159.6756 H   0  0  0  0  0  0  0  0  0  0  0  0
  146.4027  136.5099  159.0993 H   0  0  0  0  0  0  0  0  0  0  0  0
  148.9756  137.7991  158.7881 H   0  0  0  0  0  0  0  0  0  0  0  0
  149.1315  136.1717  158.1789 H   0  0  0  0  0  0  0  0  0  0  0  0
  149.4889  137.2225  156.1173 H   0  0  0  0  0  0  0  0  0  0  0  0
  148.7070  137.3320  153.9479 H   0  0  0  0  0  0  0  0  0  0  0  0
  147.0535  137.4079  154.5063 H   0  0  0  0  0  0  0  0  0  0  0  0
  145.9448  139.2924  153.7245 H   0  0  0  0  0  0  0  0  0  0  0  0
  145.8554  141.7618  153.3715 H   0  0  0  0  0  0  0  0  0  0  0  0
  147.8815  143.1278  153.9325 H   0  0  0  0  0  0  0  0  0  0  0  0
  150.4915  138.0831  153.9463 H   0  0  0  0  0  0  0  0  0  0  0  0
  151.5132  139.4772  153.6210 H   0  0  0  0  0  0  0  0  0  0  0  0
  151.8586  137.5049  155.9516 H   0  0  0  0  0  0  0  0  0  0  0  0
  152.9063  137.6588  154.5533 H   0  0  0  0  0  0  0  0  0  0  0  0
  151.8180  139.3307  157.5746 H   0  0  0  0  0  0  0  0  0  0  0  0
  152.8267  140.7329  157.2736 H   0  0  0  0  0  0  0  0  0  0  0  0
  151.4434  141.3973  155.3279 H   0  0  0  0  0  0  0  0  0  0  0  0
  150.4101  141.2080  156.7327 H   0  0  0  0  0  0  0  0  0  0  0  0
  1  2  1  0  0  0  0
  1 24  1  0  0  0  0
  1 25  1  0  0  0  0
  1 26  1  0  0  0  0
  2  3  2  0  0  0  0
  2  4  2  0  0  0  0
  2  5  1  0  0  0  0
  5  6  1  0  0  0  0
  6  7  1  0  0  0  0
  6 27  1  0  0  0  0
  6 28  1  0  0  0  0
  7  8  1  0  0  0  0
  7 29  1  0  0  0  0
  7 30  1  0  0  0  0
  8  9  2  0  0  0  0
  8 10  1  0  0  0  0
 10 11  1  0  0  0  0
 10 31  1  0  0  0  0
 11 12  1  0  0  0  0
 11 32  1  0  0  0  0
 11 33  1  0  0  0  0
 12 17  1  0  0  0  0
 12 13  2  0  0  0  0
 13 14  1  0  0  0  0
 13 34  1  0  0  0  0
 14 15  2  0  0  0  0
 14 35  1  0  0  0  0
 15 16  1  0  0  0  0
 15 36  1  0  0  0  0
 16 17  2  0  0  0  0
 17 18  1  0  0  0  0
 18 23  1  0  0  0  0
 18 19  1  0  0  0  0
 19 20  1  0  0  0  0
 19 37  1  0  0  0  0
 19 38  1  0  0  0  0
 20 21  1  0  0  0  0
 20 39  1  0  0  0  0
 20 40  1  0  0  0  0
 21 22  1  0  0  0  0
 22 23  1  0  0  0  0
 22 41  1  0  0  0  0
 22 42  1  0  0  0  0
 23 43  1  0  0  0  0
 23 44  1  0  0  0  0
M  CHG  1   5  -1
M  END
> <s_m_source_file>
AV-unprocessed.smi

> <i_m_source_file_index>
1421

> <i_lp_mmshare_version>
43012

> <i_f3d_flags>
0

> <s_epik_input>
W0NIM11TKD1PKSg9TylbTkhdW0NIMl1bQ0gyXUMoPU8pW05IXVtDSDJdYzFbY0hdW2NIXVtjSF1uYzFOMltDSDJdW0NIMl1PW0NIMl1bQ0gyXTI=

> <s_epik_cmdline>
J2VwaWtfcHl0aG9uJywgJy1waCcsICc3LjAnLCAnLXRuJywgJzgnLCAnLW1hJywgJzIwMCcsICctbWV0YWxfYmluZGluZycsICctaW1hZScsICc8aW5maWxlLm1hZT4nLCAnLW9tYWUnLCAnPG91dGZpbGUubWFlPic=

> <r_lp_tautomer_probability>
1

> <r_epik_Ionization_Penalty>
6.31253

> <r_epik_Ionization_Penalty_Charging>
6.30704

> <r_epik_Ionization_Penalty_Neutral>
0.00548981

> <r_epik_State_Penalty>
6.31049

> <r_epik_Charging_Adjusted_Penalty>
12.6175

> <i_epik_Tot_Q>
-1

> <i_epik_Tot_abs_Q>
1

> <r_epik_Metal_State_Penalty>
2.24651

> <b_epik_Metal_Only>
1

> <s_lp_Force_Field>
OPLS_2005

> <r_lp_Energy>
12.571

> <b_lp_Chiralities_Consistent>
1

> <s_lp_Variant>
AV-unprocessed.smi:1421-2

> <Gold.Version>
5.8.1

> <Gold.Id.Protein>
6NUR|6NUR_protein|mol2

> <Gold.PLP.Fitness>
44.5451

> <Gold.PLP.PLP>
-34.9062

> <Gold.PLP.part.hbond>
-4.3081

> <Gold.PLP.part.metal>
0.0000

> <Gold.PLP.part.buried>
-5.2855

> <Gold.PLP.part.nonpolar>
-26.0816

> <Gold.PLP.part.repulsive>
0.2240

> <Gold.PLP.ligand.clash>
0.0000

> <Gold.PLP.ligand.torsion>
2.0087

> <Gold.PLP.Chemscore.Hbond>
3.2720

> <Gold.PLP.Chemscore.CHOScore>
0.8614

> <Gold.PLP.Chemscore.Metal>
0.0000

> <Gold.Chemscore.Hbonds>
donor molecule, donor type, donor heavy atom, donor atom, acceptor molecule, acceptor atom, score
      P1  H  6931  6943       L1     4  0.30
      P1  H  6934  6947       L1     5  1.98
      P1  H  7997  8010       L1    21  0.94
      L1  C    15    36       P1  8028  0.86

> <Gold.PLP.Chemscore.Internal.Correction>
1.2561

> <Gold.Rescore>
     Score         DG    S(hbond)    S(metal)    S(lipo)     H(rot)  DE(clash)    DE(int)     intcor
      9.52     -12.79       1.83        0.00      64.16       2.46       0.01       3.25       ----

> <Gold.Chemscore.Fitness>
9.5248

> <Gold.Chemscore.DG>
-12.7863

> <Gold.Chemscore.ZeroCoef>
-5.4800

> <Gold.Chemscore.Hbond>
1.8275

> <Gold.Chemscore.Metal>
0.0000

> <Gold.Chemscore.Lipo>
64.1584

> <Gold.Chemscore.Internal_Hbond>
0.0000

> <Gold.Chemscore.DEClash>
0.0118

> <Gold.Chemscore.DEInternal>
3.2497

> <Gold.Chemscore.Rot>
2.4625

> <Gold.Chemscore.Internal.Correction>
   9.000000E+99

> <Gold.Chemscore.Hbonds>
donor molecule, donor type, donor heavy atom, donor atom, acceptor molecule, acceptor atom, score
      P1  H  6931  6943       L1     4  0.01
      P1  H  6934  6947       L1     5  0.24
      P1  H  7997  8010       L1    21  0.20

> <Gold.Chemscore.Hbond.Weighted>
-6.1038

> <Gold.Chemscore.Metal.Weighted>
-0.0000

> <Gold.Chemscore.Lipo.Weighted>
-7.5065

> <Gold.Chemscore.Internal_Hbond.Weighted>
0.0000

> <Gold.Chemscore.DEClash.Weighted>
0.0118

> <Gold.Chemscore.DEInternal.Weighted>
3.2497

> <Gold.Chemscore.Rot.Weighted>
6.3040

> <Gold.Chemscore.Internal.Correction.Weighted>
   9.000000E+99

> <Gold.Protein.RotatedTorsions>
[ 6907 6896 6895 6894 ] final  -15.92 input  -60.11 | X-H torsion
[ 7974 7965 7964 7962 ] final   92.46 input  175.53 | X-H torsion
[ 8008 7997 7996 7995 ] final  104.02 input   59.86 | X-H torsion
[ 10167 10162 10161 10158 ] final  -61.45 input  -65.29 | X-H torsion
[ 10718 10713 10712 10709 ] final  -53.10 input   66.30 | X-H torsion
[ 10763 10752 10751 10750 ] final -160.39 input  -60.55 | X-H torsion
[ 11005 11000 10999 10996 ] final   22.88 input  -57.11 | X-H torsion

> <Gold.Protein.ActiveResidues>
 VAL166  LYS551  ARG553  GLY616  TRP617  ASP618  TYR619  PRO620  LYS621  CYS622 
 ASP623  PHE694  ASN695  SER759  ASP760  ASP761  ALA762  ILE779  LEU786  VAL792 
 PHE793  MET794  SER795  GLU796  ALA797  LYS798  CYS799  TRP800  GLU811  SER814 

> <Gold.Protein.RotatedAtoms>
  151.3165  135.0807  159.9290 H   0  0  0  0  0  0  0  0  0  0  0  0  # atno 6907 bound_to 6896
  152.5266  133.9682  159.7760 H   0  0  0  0  0  0  0  0  0  0  0  0  # atno 6908 bound_to 6896
  150.9995  133.6017  159.2727 H   0  0  0  0  0  0  0  0  0  0  0  0  # atno 6909 bound_to 6896
  145.4921  139.2276  143.2824 H   0  0  0  0  0  0  0  0  0  0  0  0  # atno 7974 bound_to 7965
  156.1536  140.3155  155.8688 H   0  0  0  0  0  0  0  0  0  0  0  0  # atno 8008 bound_to 7997
  155.3923  140.0494  157.3057 H   0  0  0  0  0  0  0  0  0  0  0  0  # atno 8009 bound_to 7997
  154.5080  140.2154  155.9223 H   0  0  0  0  0  0  0  0  0  0  0  0  # atno 8010 bound_to 7997
  140.6005  143.2360  151.5939 H   0  0  0  0  0  0  0  0  0  0  0  0  # atno 10167 bound_to 10162
  156.1564  130.4150  149.9862 H   0  0  0  0  0  0  0  0  0  0  0  0  # atno 10718 bound_to 10713
  154.7394  135.3065  154.8754 H   0  0  0  0  0  0  0  0  0  0  0  0  # atno 10763 bound_to 10752
  153.9573  135.6757  153.4749 H   0  0  0  0  0  0  0  0  0  0  0  0  # atno 10764 bound_to 10752
  153.0994  135.4919  154.8763 H   0  0  0  0  0  0  0  0  0  0  0  0  # atno 10765 bound_to 10752
  140.3757  134.1974  155.7665 H   0  0  0  0  0  0  0  0  0  0  0  0  # atno 11005 bound_to 11000
  146.2278  140.5715  142.8989 LP  0  0  0  0  0  0  0  0  0  0  0  0  # atno 17320 bound_to 7965
  144.7828  140.5875  143.6594 LP  0  0  0  0  0  0  0  0  0  0  0  0  # atno 17321 bound_to 7965
  139.5288  144.2979  152.1098 LP  0  0  0  0  0  0  0  0  0  0  0  0  # atno 17342 bound_to 10162
  140.2158  144.4516  150.6364 LP  0  0  0  0  0  0  0  0  0  0  0  0  # atno 17343 bound_to 10162
  156.7704  130.9184  151.3644 LP  0  0  0  0  0  0  0  0  0  0  0  0  # atno 17370 bound_to 10713
  157.6698  130.9041  150.0015 LP  0  0  0  0  0  0  0  0  0  0  0  0  # atno 17371 bound_to 10713
  141.1940  133.8138  157.0775 LP  0  0  0  0  0  0  0  0  0  0  0  0  # atno 17394 bound_to 11000
  140.0517  134.9802  157.1148 LP  0  0  0  0  0  0  0  0  0  0  0  0  # atno 17395 bound_to 11000

$$$$
