AV-unprocessed.smi:2622|AV-procd|sdf|10228|dock10
  -GOLD-   2272014233D 1   1.00000     0.00000
 Structure written by MMmdl.
 27 28  0  0  0  0  0  0  0  0  3 V2000
  151.4886  139.4786  158.1237 O   0  0  0  0  0  0  0  0  0  0  0  0
  152.4021  140.2968  158.3711 C   0  0  0  0  0  0  0  0  0  0  0  0
  153.5466  139.9126  158.6974 O   0  5  0  0  0  0  0  0  0  0  0  0
  152.0906  141.7748  158.2666 C   0  0  0  0  0  0  0  0  0  0  0  0
  152.9319  142.6981  158.9384 C   0  0  0  0  0  0  0  0  0  0  0  0
  152.6781  144.0816  158.8672 C   0  0  0  0  0  0  0  0  0  0  0  0
  151.5780  144.5343  158.1200 C   0  0  0  0  0  0  0  0  0  0  0  0
  150.7899  143.6417  157.4884 N   0  3  0  0  0  0  0  0  0  0  0  0
  150.9888  142.2997  157.5237 C   0  0  0  0  0  0  0  0  0  0  0  0
  150.0737  141.5061  156.8124 N   0  0  0  0  0  0  0  0  0  0  0  0
  148.7279  141.5046  157.3691 C   0  0  0  0  0  0  0  0  0  0  0  0
  147.8599  140.4735  156.6283 C   0  0  0  0  0  0  0  0  0  0  0  0
  147.8793  140.7504  155.2302 O   0  0  0  0  0  0  0  0  0  0  0  0
  149.1939  140.6668  154.6861 C   0  0  0  0  0  0  0  0  0  0  0  0
  150.1001  141.7045  155.3698 C   0  0  0  0  0  0  0  0  0  0  0  0
  153.7800  142.3584  159.5152 H   0  0  0  0  0  0  0  0  0  0  0  0
  153.3200  144.7829  159.3798 H   0  0  0  0  0  0  0  0  0  0  0  0
  151.3050  145.5734  158.0084 H   0  0  0  0  0  0  0  0  0  0  0  0
  148.7683  141.2668  158.4328 H   0  0  0  0  0  0  0  0  0  0  0  0
  148.2877  142.4980  157.2746 H   0  0  0  0  0  0  0  0  0  0  0  0
  148.2177  139.4593  156.8138 H   0  0  0  0  0  0  0  0  0  0  0  0
  146.8317  140.5199  156.9871 H   0  0  0  0  0  0  0  0  0  0  0  0
  149.5898  139.6582  154.8177 H   0  0  0  0  0  0  0  0  0  0  0  0
  149.1491  140.8547  153.6134 H   0  0  0  0  0  0  0  0  0  0  0  0
  149.7593  142.7120  155.1281 H   0  0  0  0  0  0  0  0  0  0  0  0
  151.1230  141.6103  155.0029 H   0  0  0  0  0  0  0  0  0  0  0  0
  149.9971  143.9954  156.9528 H   0  0  0  0  0  0  0  0  0  0  0  0
  1  2  2  0  0  0  0
  2  3  1  0  0  0  0
  2  4  1  0  0  0  0
  4  9  1  0  0  0  0
  4  5  2  0  0  0  0
  5  6  1  0  0  0  0
  5 16  1  0  0  0  0
  6  7  2  0  0  0  0
  6 17  1  0  0  0  0
  7  8  1  0  0  0  0
  7 18  1  0  0  0  0
  8  9  2  0  0  0  0
  8 27  1  0  0  0  0
  9 10  1  0  0  0  0
 10 15  1  0  0  0  0
 10 11  1  0  0  0  0
 11 12  1  0  0  0  0
 11 19  1  0  0  0  0
 11 20  1  0  0  0  0
 12 13  1  0  0  0  0
 12 21  1  0  0  0  0
 12 22  1  0  0  0  0
 13 14  1  0  0  0  0
 14 15  1  0  0  0  0
 14 23  1  0  0  0  0
 14 24  1  0  0  0  0
 15 25  1  0  0  0  0
 15 26  1  0  0  0  0
M  CHG  1   3  -1
M  CHG  1   8   1
M  END
> <s_m_source_file>
AV-unprocessed.smi

> <i_m_source_file_index>
2622

> <i_lp_mmshare_version>
43012

> <i_f3d_flags>
0

> <s_epik_input>
Tz1DKFtPSF0pYzFbY0hdW2NIXVtjSF1uYzFOMltDSDJdW0NIMl1PW0NIMl1bQ0gyXTI=

> <s_epik_cmdline>
J2VwaWtfcHl0aG9uJywgJy1waCcsICc3LjAnLCAnLXRuJywgJzgnLCAnLW1hJywgJzIwMCcsICctbWV0YWxfYmluZGluZycsICctaW1hZScsICc8aW5maWxlLm1hZT4nLCAnLW9tYWUnLCAnPG91dGZpbGUubWFlPic=

> <r_epik_Ionization_Penalty>
2.51472

> <r_epik_Ionization_Penalty_Charging>
2.51472

> <r_epik_Ionization_Penalty_Neutral>
3.20239e-12

> <r_epik_State_Penalty>
2.68069

> <r_epik_Charging_Adjusted_Penalty>
5.19542

> <i_epik_Tot_Q>
0

> <i_epik_Tot_abs_Q>
2

> <r_epik_Metal_State_Penalty>
6.76699

> <b_epik_Metal_Only>
0

> <s_lp_Force_Field>
OPLS_2005

> <r_lp_Energy>
23.1971

> <b_lp_Chiralities_Consistent>
1

> <s_lp_Variant>
AV-unprocessed.smi:2622-2

> <Gold.Version>
5.8.1

> <Gold.Id.Protein>
6NUR|6NUR_protein|mol2

> <Gold.PLP.Fitness>
39.1191

> <Gold.PLP.PLP>
-27.4826

> <Gold.PLP.part.hbond>
-2.0000

> <Gold.PLP.part.metal>
0.0000

> <Gold.PLP.part.buried>
-3.6217

> <Gold.PLP.part.nonpolar>
-21.2827

> <Gold.PLP.part.repulsive>
0.1441

> <Gold.PLP.ligand.clash>
0.0000

> <Gold.PLP.ligand.torsion>
0.2627

> <Gold.PLP.Chemscore.Hbond>
4.0000

> <Gold.PLP.Chemscore.CHOScore>
0.0000

> <Gold.PLP.Chemscore.Metal>
0.0000

> <Gold.Chemscore.Hbonds>
donor molecule, donor type, donor heavy atom, donor atom, acceptor molecule, acceptor atom, score
      L1  H     8    27       P1  8028  2.00
      P1  H  7997  8010       L1     3  2.00

> <Gold.PLP.Chemscore.Internal.Correction>
0.1618

> <Gold.Rescore>
     Score         DG    S(hbond)    S(metal)    S(lipo)     H(rot)  DE(clash)    DE(int)     intcor
     15.50     -17.28       1.93        0.00      67.73       1.00       0.07       1.71       ----

> <Gold.Chemscore.Fitness>
15.4998

> <Gold.Chemscore.DG>
-17.2812

> <Gold.Chemscore.ZeroCoef>
-5.4800

> <Gold.Chemscore.Hbond>
1.9271

> <Gold.Chemscore.Metal>
0.0000

> <Gold.Chemscore.Lipo>
67.7324

> <Gold.Chemscore.Internal_Hbond>
0.0000

> <Gold.Chemscore.DEClash>
0.0677

> <Gold.Chemscore.DEInternal>
1.7136

> <Gold.Chemscore.Rot>
1.0000

> <Gold.Chemscore.Internal.Correction>
   9.000000E+99

> <Gold.Chemscore.Hbonds>
donor molecule, donor type, donor heavy atom, donor atom, acceptor molecule, acceptor atom, score
      L1  H     8    27       P1  8028  0.94
      P1  H  7997  8010       L1     3  0.64

> <Gold.Chemscore.Hbond.Weighted>
-6.4365

> <Gold.Chemscore.Metal.Weighted>
-0.0000

> <Gold.Chemscore.Lipo.Weighted>
-7.9247

> <Gold.Chemscore.Internal_Hbond.Weighted>
0.0000

> <Gold.Chemscore.DEClash.Weighted>
0.0677

> <Gold.Chemscore.DEInternal.Weighted>
1.7136

> <Gold.Chemscore.Rot.Weighted>
2.5600

> <Gold.Chemscore.Internal.Correction.Weighted>
   9.000000E+99

> <Gold.Protein.RotatedTorsions>
[ 6907 6896 6895 6894 ] final -161.24 input  -60.11 | X-H torsion
[ 7974 7965 7964 7962 ] final  -22.88 input  175.53 | X-H torsion
[ 8008 7997 7996 7995 ] final   26.01 input   59.86 | X-H torsion
[ 10167 10162 10161 10158 ] final   -2.76 input  -65.29 | X-H torsion
[ 10718 10713 10712 10709 ] final  116.93 input   66.30 | X-H torsion
[ 10763 10752 10751 10750 ] final -109.66 input  -60.55 | X-H torsion
[ 11005 11000 10999 10996 ] final  -51.98 input  -57.11 | X-H torsion

> <Gold.Protein.ActiveResidues>
 VAL166  LYS551  ARG553  GLY616  TRP617  ASP618  TYR619  PRO620  LYS621  CYS622 
 ASP623  PHE694  ASN695  SER759  ASP760  ASP761  ALA762  ILE779  LEU786  VAL792 
 PHE793  MET794  SER795  GLU796  ALA797  LYS798  CYS799  TRP800  GLU811  SER814 

> <Gold.Protein.RotatedAtoms>
  151.3615  133.3888  159.2689 H   0  0  0  0  0  0  0  0  0  0  0  0  # atno 6907 bound_to 6896
  150.9722  134.9093  159.7805 H   0  0  0  0  0  0  0  0  0  0  0  0  # atno 6908 bound_to 6896
  152.5188  134.3577  159.9326 H   0  0  0  0  0  0  0  0  0  0  0  0  # atno 6909 bound_to 6896
  146.1649  140.4540  142.8556 H   0  0  0  0  0  0  0  0  0  0  0  0  # atno 7974 bound_to 7965
  155.0206  140.3147  155.4795 H   0  0  0  0  0  0  0  0  0  0  0  0  # atno 8008 bound_to 7997
  156.2893  140.2198  156.5265 H   0  0  0  0  0  0  0  0  0  0  0  0  # atno 8009 bound_to 7997
  154.7456  140.0470  157.0837 H   0  0  0  0  0  0  0  0  0  0  0  0  # atno 8010 bound_to 7997
  140.6863  143.6620  150.8259 H   0  0  0  0  0  0  0  0  0  0  0  0  # atno 10167 bound_to 10162
  157.6129  131.1031  150.7543 H   0  0  0  0  0  0  0  0  0  0  0  0  # atno 10718 bound_to 10713
  154.8206  135.4592  154.0767 H   0  0  0  0  0  0  0  0  0  0  0  0  # atno 10763 bound_to 10752
  153.2124  135.6883  153.8104 H   0  0  0  0  0  0  0  0  0  0  0  0  # atno 10764 bound_to 10752
  153.7551  135.3292  155.3304 H   0  0  0  0  0  0  0  0  0  0  0  0  # atno 10765 bound_to 10752
  141.0900  133.6634  156.3957 H   0  0  0  0  0  0  0  0  0  0  0  0  # atno 11005 bound_to 11000
  144.8078  140.6332  143.6435 LP  0  0  0  0  0  0  0  0  0  0  0  0  # atno 17320 bound_to 7965
  145.4493  139.1525  143.3927 LP  0  0  0  0  0  0  0  0  0  0  0  0  # atno 17321 bound_to 7965
  140.0327  143.5427  152.2753 LP  0  0  0  0  0  0  0  0  0  0  0  0  # atno 17342 bound_to 10162
  139.6225  144.7631  151.2709 LP  0  0  0  0  0  0  0  0  0  0  0  0  # atno 17343 bound_to 10162
  156.7917  130.4892  149.5384 LP  0  0  0  0  0  0  0  0  0  0  0  0  # atno 17370 bound_to 10713
  156.1239  130.6129  151.0234 LP  0  0  0  0  0  0  0  0  0  0  0  0  # atno 17371 bound_to 10713
  140.5274  134.6246  157.5338 LP  0  0  0  0  0  0  0  0  0  0  0  0  # atno 17394 bound_to 11000
  139.9724  134.7270  156.0014 LP  0  0  0  0  0  0  0  0  0  0  0  0  # atno 17395 bound_to 11000

$$$$
