AV-unprocessed.smi:1782|AV-procd|sdf|7191|dock4
  -GOLD-   22720 8433D 1   1.00000     0.00000
 Structure written by MMmdl.
 42 44  0  0  0  0  0  0  0  0  2 V2000
  148.7857  141.7064  156.9865 O   0  0  0  0  0  0  0  0  0  0  0  0
  149.4816  141.4177  156.0123 C   0  0  0  0  0  0  0  0  0  0  0  0
  151.0041  141.6095  156.0536 C   0  0  0  0  0  0  0  0  0  0  0  0
  151.4861  142.0815  157.3632 N   0  0  0  0  0  0  0  0  0  0  0  0
  151.1068  143.3779  157.7548 C   0  0  0  0  0  0  0  0  0  0  0  0
  151.4983  143.9045  158.9228 C   0  0  0  0  0  0  0  0  0  0  0  0
  152.3331  143.1053  159.7862 C   0  0  0  0  0  0  0  0  0  0  0  0
  152.7139  141.8545  159.4373 C   0  0  0  0  0  0  0  0  0  0  0  0
  153.6072  140.9998  160.3336 C   0  0  0  0  0  0  0  0  0  0  0  0
  154.8544  140.9762  159.8622 F   0  0  0  0  0  0  0  0  0  0  0  0
  153.6396  141.4914  161.5730 F   0  0  0  0  0  0  0  0  0  0  0  0
  153.1747  139.7401  160.4070 F   0  0  0  0  0  0  0  0  0  0  0  0
  152.2733  141.2821  158.1487 C   0  0  0  0  0  0  0  0  0  0  0  0
  152.5910  140.1474  157.7873 O   0  0  0  0  0  0  0  0  0  0  0  0
  148.9774  140.9142  154.8760 N   0  0  0  0  0  0  0  0  0  0  0  0
  147.5580  140.6845  154.6310 C   0  0  1  0  0  0  0  0  0  0  0  0
  146.8199  140.0044  155.7884 C   0  0  0  0  0  0  0  0  0  0  0  0
  145.3829  140.5464  155.7056 C   0  0  0  0  0  0  0  0  0  0  0  0
  145.3840  141.6064  154.6706 N   0  3  1  0  0  0  0  0  0  0  0  0
  144.4801  142.7396  154.9594 C   0  0  0  0  0  0  0  0  0  0  0  0
  144.8549  144.0094  154.2333 C   0  0  0  0  0  0  0  0  0  0  0  0
  145.1457  143.8668  155.7117 C   0  0  0  0  0  0  0  0  0  0  0  0
  146.7908  141.9928  154.4671 C   0  0  0  0  0  0  0  0  0  0  0  0
  151.4713  140.6606  155.7869 H   0  0  0  0  0  0  0  0  0  0  0  0
  151.3106  142.3075  155.2719 H   0  0  0  0  0  0  0  0  0  0  0  0
  150.4881  143.9131  157.0490 H   0  0  0  0  0  0  0  0  0  0  0  0
  151.2009  144.9030  159.2079 H   0  0  0  0  0  0  0  0  0  0  0  0
  152.6551  143.5309  160.7248 H   0  0  0  0  0  0  0  0  0  0  0  0
  149.6185  140.6958  154.1265 H   0  0  0  0  0  0  0  0  0  0  0  0
  147.4335  140.0906  153.7229 H   0  0  0  0  0  0  0  0  0  0  0  0
  146.8596  138.9168  155.7189 H   0  0  0  0  0  0  0  0  0  0  0  0
  147.2621  140.2899  156.7443 H   0  0  0  0  0  0  0  0  0  0  0  0
  144.6734  139.7670  155.4261 H   0  0  0  0  0  0  0  0  0  0  0  0
  145.0762  140.9422  156.6751 H   0  0  0  0  0  0  0  0  0  0  0  0
  143.4346  142.4950  155.1396 H   0  0  0  0  0  0  0  0  0  0  0  0
  145.7010  143.9811  153.5488 H   0  0  0  0  0  0  0  0  0  0  0  0
  144.0480  144.6809  153.9466 H   0  0  0  0  0  0  0  0  0  0  0  0
  144.5301  144.4448  156.3982 H   0  0  0  0  0  0  0  0  0  0  0  0
  146.1856  143.7446  156.0101 H   0  0  0  0  0  0  0  0  0  0  0  0
  147.0899  142.7123  155.2323 H   0  0  0  0  0  0  0  0  0  0  0  0
  146.9439  142.4498  153.4888 H   0  0  0  0  0  0  0  0  0  0  0  0
  145.0766  141.1729  153.8117 H   0  0  0  0  0  0  0  0  0  0  0  0
  1  2  2  0  0  0  0
  2  3  1  0  0  0  0
  2 15  1  0  0  0  0
  3  4  1  0  0  0  0
  3 24  1  0  0  0  0
  3 25  1  0  0  0  0
  4 13  1  0  0  0  0
  4  5  1  0  0  0  0
  5  6  2  0  0  0  0
  5 26  1  0  0  0  0
  6  7  1  0  0  0  0
  6 27  1  0  0  0  0
  7  8  2  0  0  0  0
  7 28  1  0  0  0  0
  8  9  1  0  0  0  0
  8 13  1  0  0  0  0
  9 10  1  0  0  0  0
  9 11  1  0  0  0  0
  9 12  1  0  0  0  0
 13 14  2  0  0  0  0
 15 16  1  0  0  0  0
 15 29  1  0  0  0  0
 16 23  1  0  0  0  0
 16 17  1  0  0  0  0
 16 30  1  0  0  0  0
 17 18  1  0  0  0  0
 17 31  1  0  0  0  0
 17 32  1  0  0  0  0
 18 19  1  0  0  0  0
 18 33  1  0  0  0  0
 18 34  1  0  0  0  0
 19 20  1  0  0  0  0
 19 23  1  0  0  0  0
 19 42  1  0  0  0  0
 20 22  1  0  0  0  0
 20 21  1  0  0  0  0
 20 35  1  0  0  0  0
 21 22  1  0  0  0  0
 21 36  1  0  0  0  0
 21 37  1  0  0  0  0
 22 38  1  0  0  0  0
 22 39  1  0  0  0  0
 23 40  1  0  0  0  0
 23 41  1  0  0  0  0
M  CHG  1  19   1
M  END
> <s_m_source_file>
AV-unprocessed.smi

> <i_m_source_file_index>
1782

> <i_lp_mmshare_version>
43012

> <i_f3d_flags>
0

> <s_epik_input>
W0NIMl0xW0NIMl1bQ0hdMU4oW0NIMl0yKVtDSDJdW0NIMl1bQ0BIXTJbTkhdQyg9TylbQ0gyXW4zW2NIXVtjSF1bY0hdYyhDKEYpKEYpRiljMz1P

> <s_epik_cmdline>
J2VwaWtfcHl0aG9uJywgJy1waCcsICc3LjAnLCAnLXRuJywgJzgnLCAnLW1hJywgJzIwMCcsICctbWV0YWxfYmluZGluZycsICctaW1hZScsICc8aW5maWxlLm1hZT4nLCAnLW9tYWUnLCAnPG91dGZpbGUubWFlPic=

> <r_lp_tautomer_probability>
1

> <r_epik_Ionization_Penalty>
0.00106789

> <r_epik_Ionization_Penalty_Charging>
0.00106781

> <r_epik_Ionization_Penalty_Neutral>
8.2288e-08

> <r_epik_State_Penalty>
0.000699156

> <r_epik_Charging_Adjusted_Penalty>
0.00176697

> <i_epik_Tot_Q>
1

> <i_epik_Tot_abs_Q>
1

> <r_epik_Metal_State_Penalty>
-0

> <b_epik_Metal_Only>
0

> <s_lp_Force_Field>
OPLS_2005

> <r_lp_Energy>
45.6714

> <b_lp_Chiralities_Consistent>
1

> <s_lp_Variant>
AV-unprocessed.smi:1782-4

> <Gold.Version>
5.8.1

> <Gold.Id.Protein>
6NUR|6NUR_protein|mol2

> <Gold.PLP.Fitness>
51.3697

> <Gold.PLP.PLP>
-41.4122

> <Gold.PLP.part.hbond>
-2.0000

> <Gold.PLP.part.metal>
0.0000

> <Gold.PLP.part.buried>
-6.4706

> <Gold.PLP.part.nonpolar>
-33.5914

> <Gold.PLP.part.repulsive>
0.2574

> <Gold.PLP.ligand.clash>
0.3868

> <Gold.PLP.ligand.torsion>
1.4532

> <Gold.PLP.Chemscore.Hbond>
2.8865

> <Gold.PLP.Chemscore.CHOScore>
1.0000

> <Gold.PLP.Chemscore.Metal>
0.0000

> <Gold.Chemscore.Hbonds>
donor molecule, donor type, donor heavy atom, donor atom, acceptor molecule, acceptor atom, score
      L1  H    19    42       P1 10175  1.98
      P1  H  7997  8009       L1    14  0.76
      L1  C     5    26       P1  8028  1.00

> <Gold.PLP.Chemscore.Internal.Correction>
1.5912

> <Gold.Rescore>
     Score         DG    S(hbond)    S(metal)    S(lipo)     H(rot)  DE(clash)    DE(int)     intcor
     11.02     -16.36       1.74        0.00      82.99       1.81       0.22       5.12       ----

> <Gold.Chemscore.Fitness>
11.0221

> <Gold.Chemscore.DG>
-16.3574

> <Gold.Chemscore.ZeroCoef>
-5.4800

> <Gold.Chemscore.Hbond>
1.7371

> <Gold.Chemscore.Metal>
0.0000

> <Gold.Chemscore.Lipo>
82.9853

> <Gold.Chemscore.Internal_Hbond>
0.0000

> <Gold.Chemscore.DEClash>
0.2197

> <Gold.Chemscore.DEInternal>
5.1156

> <Gold.Chemscore.Rot>
1.8101

> <Gold.Chemscore.Internal.Correction>
   9.000000E+99

> <Gold.Chemscore.Hbonds>
donor molecule, donor type, donor heavy atom, donor atom, acceptor molecule, acceptor atom, score
      L1  H    19    42       P1 10175  0.54
      P1  H  7997  8009       L1    14  0.62

> <Gold.Chemscore.Hbond.Weighted>
-5.8018

> <Gold.Chemscore.Metal.Weighted>
-0.0000

> <Gold.Chemscore.Lipo.Weighted>
-9.7093

> <Gold.Chemscore.Internal_Hbond.Weighted>
0.0000

> <Gold.Chemscore.DEClash.Weighted>
0.2197

> <Gold.Chemscore.DEInternal.Weighted>
5.1156

> <Gold.Chemscore.Rot.Weighted>
4.6338

> <Gold.Chemscore.Internal.Correction.Weighted>
   9.000000E+99

> <Gold.Protein.RotatedTorsions>
[ 6907 6896 6895 6894 ] final -121.86 input  -60.11 | X-H torsion
[ 7974 7965 7964 7962 ] final   11.36 input  175.53 | X-H torsion
[ 8008 7997 7996 7995 ] final  158.46 input   59.86 | X-H torsion
[ 10167 10162 10161 10158 ] final  -32.86 input  -65.29 | X-H torsion
[ 10718 10713 10712 10709 ] final   -1.02 input   66.30 | X-H torsion
[ 10763 10752 10751 10750 ] final  114.67 input  -60.55 | X-H torsion
[ 11005 11000 10999 10996 ] final   33.96 input  -57.11 | X-H torsion

> <Gold.Protein.ActiveResidues>
 VAL166  LYS551  ARG553  GLY616  TRP617  ASP618  TYR619  PRO620  LYS621  CYS622 
 ASP623  PHE694  ASN695  SER759  ASP760  ASP761  ALA762  ILE779  LEU786  VAL792 
 PHE793  MET794  SER795  GLU796  ALA797  LYS798  CYS799  TRP800  GLU811  SER814 

> <Gold.Protein.RotatedAtoms>
  150.8522  133.7770  159.3021 H   0  0  0  0  0  0  0  0  0  0  0  0  # atno 6907 bound_to 6896
  151.5438  135.1066  159.9942 H   0  0  0  0  0  0  0  0  0  0  0  0  # atno 6908 bound_to 6896
  152.4561  133.7683  159.6841 H   0  0  0  0  0  0  0  0  0  0  0  0  # atno 6909 bound_to 6896
  146.2372  139.9497  142.8472 H   0  0  0  0  0  0  0  0  0  0  0  0  # atno 7974 bound_to 7965
  156.2301  140.1858  156.7263 H   0  0  0  0  0  0  0  0  0  0  0  0  # atno 8008 bound_to 7997
  154.6008  140.0636  156.9394 H   0  0  0  0  0  0  0  0  0  0  0  0  # atno 8009 bound_to 7997
  155.2177  140.3305  155.4322 H   0  0  0  0  0  0  0  0  0  0  0  0  # atno 8010 bound_to 7997
  140.7214  143.3663  151.1864 H   0  0  0  0  0  0  0  0  0  0  0  0  # atno 10167 bound_to 10162
  156.8119  130.5427  149.5708 H   0  0  0  0  0  0  0  0  0  0  0  0  # atno 10718 bound_to 10713
  153.5108  135.3618  155.2585 H   0  0  0  0  0  0  0  0  0  0  0  0  # atno 10763 bound_to 10752
  154.8742  135.4022  154.3371 H   0  0  0  0  0  0  0  0  0  0  0  0  # atno 10764 bound_to 10752
  153.4024  135.7075  153.6483 H   0  0  0  0  0  0  0  0  0  0  0  0  # atno 10765 bound_to 10752
  140.2577  134.3229  155.7868 H   0  0  0  0  0  0  0  0  0  0  0  0  # atno 11005 bound_to 11000
  145.1874  140.9795  143.4231 LP  0  0  0  0  0  0  0  0  0  0  0  0  # atno 17320 bound_to 7965
  144.9888  139.3710  143.6225 LP  0  0  0  0  0  0  0  0  0  0  0  0  # atno 17321 bound_to 7965
  139.7225  143.9200  152.2991 LP  0  0  0  0  0  0  0  0  0  0  0  0  # atno 17342 bound_to 10162
  139.8962  144.6938  150.8715 LP  0  0  0  0  0  0  0  0  0  0  0  0  # atno 17343 bound_to 10162
  156.1040  130.5990  150.9940 LP  0  0  0  0  0  0  0  0  0  0  0  0  # atno 17370 bound_to 10713
  157.6501  131.0898  150.8068 LP  0  0  0  0  0  0  0  0  0  0  0  0  # atno 17371 bound_to 10713
  141.2194  133.7391  156.9137 LP  0  0  0  0  0  0  0  0  0  0  0  0  # atno 17394 bound_to 11000
  140.1495  134.9239  157.2574 LP  0  0  0  0  0  0  0  0  0  0  0  0  # atno 17395 bound_to 11000

$$$$
