AV-unprocessed.smi:745|AV-procd|sdf|3574|dock1
  -GOLD-   22720 0563D 1   1.00000     0.00000
 Structure written by MMmdl.
 42 43  0  0  0  0  0  0  0  0  2 V2000
  146.3619  142.2597  154.3170 C   0  0  0  0  0  0  0  0  0  0  0  0
  147.4822  141.3303  154.8148 C   0  0  2  0  0  0  0  0  0  0  0  0
  148.4938  142.1634  155.4666 N   0  0  0  0  0  0  0  0  0  0  0  0
  149.3979  141.7458  156.3667 C   0  0  0  0  0  0  0  0  0  0  0  0
  149.5064  140.5738  156.7289 O   0  0  0  0  0  0  0  0  0  0  0  0
  150.1551  142.7670  156.8045 N   0  0  0  0  0  0  0  0  0  0  0  0
  151.2081  142.7329  157.7575 C   0  0  0  0  0  0  0  0  0  0  0  0
  151.8048  143.9834  158.0359 C   0  0  0  0  0  0  0  0  0  0  0  0
  152.8577  144.0564  158.9685 C   0  0  0  0  0  0  0  0  0  0  0  0
  153.2879  142.8752  159.5990 C   0  0  0  0  0  0  0  0  0  0  0  0
  152.6414  141.6713  159.2636 C   0  0  0  0  0  0  0  0  0  0  0  0
  151.6324  141.5990  158.3699 N   0  0  0  0  0  0  0  0  0  0  0  0
  148.1163  140.4710  153.6811 C   0  0  2  0  0  0  0  0  0  0  0  0
  147.0887  139.6388  152.8812 C   0  0  0  0  0  0  0  0  0  0  0  0
  146.5315  138.4585  153.6993 C   0  0  0  0  0  0  0  0  0  0  0  0
  147.6253  137.5824  154.1884 N   0  3  2  0  0  0  0  0  0  0  0  0
  147.1172  136.3944  154.9076 C   0  0  0  0  0  0  0  0  0  0  0  0
  148.6362  138.3284  154.9775 C   0  0  0  0  0  0  0  0  0  0  0  0
  149.2173  139.4988  154.1645 C   0  0  0  0  0  0  0  0  0  0  0  0
  145.5020  141.7012  153.9493 H   0  0  0  0  0  0  0  0  0  0  0  0
  146.7099  142.9099  153.5135 H   0  0  0  0  0  0  0  0  0  0  0  0
  145.9986  142.8977  155.1237 H   0  0  0  0  0  0  0  0  0  0  0  0
  147.0342  140.6667  155.5544 H   0  0  0  0  0  0  0  0  0  0  0  0
  148.4873  143.1446  155.2287 H   0  0  0  0  0  0  0  0  0  0  0  0
  149.9482  143.6772  156.4204 H   0  0  0  0  0  0  0  0  0  0  0  0
  151.4613  144.8815  157.5433 H   0  0  0  0  0  0  0  0  0  0  0  0
  153.3259  145.0027  159.1960 H   0  0  0  0  0  0  0  0  0  0  0  0
  154.0919  142.8910  160.3200 H   0  0  0  0  0  0  0  0  0  0  0  0
  152.9420  140.7419  159.7241 H   0  0  0  0  0  0  0  0  0  0  0  0
  148.5862  141.1667  152.9841 H   0  0  0  0  0  0  0  0  0  0  0  0
  146.2734  140.2596  152.5125 H   0  0  0  0  0  0  0  0  0  0  0  0
  147.5742  139.2439  151.9876 H   0  0  0  0  0  0  0  0  0  0  0  0
  145.9407  138.8188  154.5423 H   0  0  0  0  0  0  0  0  0  0  0  0
  145.8556  137.8739  153.0738 H   0  0  0  0  0  0  0  0  0  0  0  0
  146.5917  136.6837  155.8188 H   0  0  0  0  0  0  0  0  0  0  0  0
  147.9381  135.7312  155.1819 H   0  0  0  0  0  0  0  0  0  0  0  0
  146.4286  135.8284  154.2796 H   0  0  0  0  0  0  0  0  0  0  0  0
  148.1868  138.6885  155.9035 H   0  0  0  0  0  0  0  0  0  0  0  0
  149.4424  137.6521  155.2641 H   0  0  0  0  0  0  0  0  0  0  0  0
  149.7403  139.0957  153.2961 H   0  0  0  0  0  0  0  0  0  0  0  0
  149.9816  140.0160  154.7439 H   0  0  0  0  0  0  0  0  0  0  0  0
  148.1024  137.2372  153.3678 H   0  0  0  0  0  0  0  0  0  0  0  0
  1  2  1  0  0  0  0
  1 20  1  0  0  0  0
  1 21  1  0  0  0  0
  1 22  1  0  0  0  0
  2  3  1  0  0  0  0
  2 13  1  0  0  0  0
  2 23  1  0  0  0  0
  3  4  1  0  0  0  0
  3 24  1  0  0  0  0
  4  5  2  0  0  0  0
  4  6  1  0  0  0  0
  6  7  1  0  0  0  0
  6 25  1  0  0  0  0
  7 12  1  0  0  0  0
  7  8  2  0  0  0  0
  8  9  1  0  0  0  0
  8 26  1  0  0  0  0
  9 10  2  0  0  0  0
  9 27  1  0  0  0  0
 10 11  1  0  0  0  0
 10 28  1  0  0  0  0
 11 12  2  0  0  0  0
 11 29  1  0  0  0  0
 13 19  1  0  0  0  0
 13 14  1  0  0  0  0
 13 30  1  0  0  0  0
 14 15  1  0  0  0  0
 14 31  1  0  0  0  0
 14 32  1  0  0  0  0
 15 16  1  0  0  0  0
 15 33  1  0  0  0  0
 15 34  1  0  0  0  0
 16 17  1  0  0  0  0
 16 18  1  0  0  0  0
 16 42  1  0  0  0  0
 17 35  1  0  0  0  0
 17 36  1  0  0  0  0
 17 37  1  0  0  0  0
 18 19  1  0  0  0  0
 18 38  1  0  0  0  0
 18 39  1  0  0  0  0
 19 40  1  0  0  0  0
 19 41  1  0  0  0  0
M  CHG  1  16   1
M  END
> <s_m_source_file>
AV-unprocessed.smi

> <i_m_source_file_index>
745

> <i_lp_mmshare_version>
43012

> <i_f3d_flags>
0

> <s_epik_input>
W0NIMl0xW0NIMl1OKFtDSDNdKVtDSDJdW0NIMl1bQ0hdMVtDQEhdKFtDSDNdKVtOSF1DKD1PKVtOSF1jMltjSF1bY0hdW2NIXVtjSF1uMg==

> <s_epik_cmdline>
J2VwaWtfcHl0aG9uJywgJy1waCcsICc3LjAnLCAnLXRuJywgJzgnLCAnLW1hJywgJzIwMCcsICctbWV0YWxfYmluZGluZycsICctaW1hZScsICc8aW5maWxlLm1hZT4nLCAnLW9tYWUnLCAnPG91dGZpbGUubWFlPic=

> <r_epik_Ionization_Penalty>
0.0011087

> <r_epik_Ionization_Penalty_Charging>
0.00106265

> <r_epik_Ionization_Penalty_Neutral>
4.60506e-05

> <r_epik_State_Penalty>
0.000695551

> <r_epik_Charging_Adjusted_Penalty>
0.0017582

> <i_epik_Tot_Q>
1

> <i_epik_Tot_abs_Q>
1

> <r_epik_Metal_State_Penalty>
-0

> <b_epik_Metal_Only>
0

> <s_lp_Force_Field>
OPLS_2005

> <r_lp_Energy>
21.1146

> <b_lp_Chiralities_Consistent>
1

> <s_lp_Variant>
AV-unprocessed.smi:745-3

> <Gold.Version>
5.8.1

> <Gold.Id.Protein>
6NUR|6NUR_protein|mol2

> <Gold.PLP.Fitness>
46.0062

> <Gold.PLP.PLP>
-34.5739

> <Gold.PLP.part.hbond>
-3.0000

> <Gold.PLP.part.metal>
0.0000

> <Gold.PLP.part.buried>
0.0900

> <Gold.PLP.part.nonpolar>
-32.2581

> <Gold.PLP.part.repulsive>
0.2034

> <Gold.PLP.ligand.clash>
0.0000

> <Gold.PLP.ligand.torsion>
0.2812

> <Gold.PLP.Chemscore.Hbond>
3.9920

> <Gold.PLP.Chemscore.CHOScore>
0.0000

> <Gold.PLP.Chemscore.Metal>
0.0000

> <Gold.Chemscore.Hbonds>
donor molecule, donor type, donor heavy atom, donor atom, acceptor molecule, acceptor atom, score
      L1  H     3    24       P1  8028  0.99
      L1  H     6    25       P1  8028  1.00
      L1  H    16    42       P1  7948  2.00

> <Gold.PLP.Chemscore.Internal.Correction>
0.0187

> <Gold.Rescore>
     Score         DG    S(hbond)    S(metal)    S(lipo)     H(rot)  DE(clash)    DE(int)     intcor
     19.24     -22.36       2.90        0.00      88.98       1.26       0.15       2.97       ----

> <Gold.Chemscore.Fitness>
19.2394

> <Gold.Chemscore.DG>
-22.3609

> <Gold.Chemscore.ZeroCoef>
-5.4800

> <Gold.Chemscore.Hbond>
2.9029

> <Gold.Chemscore.Metal>
0.0000

> <Gold.Chemscore.Lipo>
88.9842

> <Gold.Chemscore.Internal_Hbond>
0.0000

> <Gold.Chemscore.DEClash>
0.1531

> <Gold.Chemscore.DEInternal>
2.9684

> <Gold.Chemscore.Rot>
1.2601

> <Gold.Chemscore.Internal.Correction>
   9.000000E+99

> <Gold.Chemscore.Hbonds>
donor molecule, donor type, donor heavy atom, donor atom, acceptor molecule, acceptor atom, score
      L1  H     3    24       P1  8028  0.94
      L1  H     6    25       P1  8028  0.95
      L1  H    16    42       P1  7948  0.97

> <Gold.Chemscore.Hbond.Weighted>
-9.6957

> <Gold.Chemscore.Metal.Weighted>
-0.0000

> <Gold.Chemscore.Lipo.Weighted>
-10.4112

> <Gold.Chemscore.Internal_Hbond.Weighted>
0.0000

> <Gold.Chemscore.DEClash.Weighted>
0.1531

> <Gold.Chemscore.DEInternal.Weighted>
2.9684

> <Gold.Chemscore.Rot.Weighted>
3.2260

> <Gold.Chemscore.Internal.Correction.Weighted>
   9.000000E+99

> <Gold.Protein.RotatedTorsions>
[ 6907 6896 6895 6894 ] final  -23.88 input  -60.11 | X-H torsion
[ 7974 7965 7964 7962 ] final   95.04 input  175.53 | X-H torsion
[ 8008 7997 7996 7995 ] final  -71.21 input   59.86 | X-H torsion
[ 10167 10162 10161 10158 ] final  -76.45 input  -65.29 | X-H torsion
[ 10718 10713 10712 10709 ] final -155.73 input   66.30 | X-H torsion
[ 10763 10752 10751 10750 ] final  103.23 input  -60.55 | X-H torsion
[ 11005 11000 10999 10996 ] final  -55.21 input  -57.11 | X-H torsion

> <Gold.Protein.ActiveResidues>
 VAL166  LYS551  ARG553  GLY616  TRP617  ASP618  TYR619  PRO620  LYS621  CYS622 
 ASP623  PHE694  ASN695  SER759  ASP760  ASP761  ALA762  ILE779  LEU786  VAL792 
 PHE793  MET794  SER795  GLU796  ALA797  LYS798  CYS799  TRP800  GLU811  SER814 

> <Gold.Protein.RotatedAtoms>
  151.1976  135.0429  159.8858 H   0  0  0  0  0  0  0  0  0  0  0  0  # atno 6907 bound_to 6896
  152.5435  134.0886  159.8277 H   0  0  0  0  0  0  0  0  0  0  0  0  # atno 6908 bound_to 6896
  151.1022  133.5187  159.2641 H   0  0  0  0  0  0  0  0  0  0  0  0  # atno 6909 bound_to 6896
  145.4575  139.2289  143.3006 H   0  0  0  0  0  0  0  0  0  0  0  0  # atno 7974 bound_to 7965
  154.5070  140.0820  156.7914 H   0  0  0  0  0  0  0  0  0  0  0  0  # atno 8008 bound_to 7997
  155.3871  140.3430  155.4231 H   0  0  0  0  0  0  0  0  0  0  0  0  # atno 8009 bound_to 7997
  156.1527  140.1563  156.8730 H   0  0  0  0  0  0  0  0  0  0  0  0  # atno 8010 bound_to 7997
  140.4855  143.2392  151.7990 H   0  0  0  0  0  0  0  0  0  0  0  0  # atno 10167 bound_to 10162
  156.5169  130.8460  151.2667 H   0  0  0  0  0  0  0  0  0  0  0  0  # atno 10718 bound_to 10713
  153.3500  135.3983  155.1638 H   0  0  0  0  0  0  0  0  0  0  0  0  # atno 10763 bound_to 10752
  154.8660  135.3654  154.5235 H   0  0  0  0  0  0  0  0  0  0  0  0  # atno 10764 bound_to 10752
  153.5686  135.7079  153.5575 H   0  0  0  0  0  0  0  0  0  0  0  0  # atno 10765 bound_to 10752
  141.1063  133.6613  156.4435 H   0  0  0  0  0  0  0  0  0  0  0  0  # atno 11005 bound_to 11000
  146.2470  140.5341  142.8910 LP  0  0  0  0  0  0  0  0  0  0  0  0  # atno 17320 bound_to 7965
  144.8023  140.6236  143.6470 LP  0  0  0  0  0  0  0  0  0  0  0  0  # atno 17321 bound_to 7965
  139.4841  144.4717  151.9417 LP  0  0  0  0  0  0  0  0  0  0  0  0  # atno 17342 bound_to 10162
  140.3803  144.2745  150.5909 LP  0  0  0  0  0  0  0  0  0  0  0  0  # atno 17343 bound_to 10162
  157.7442  130.9930  150.2658 LP  0  0  0  0  0  0  0  0  0  0  0  0  # atno 17370 bound_to 10713
  156.3187  130.3782  149.7595 LP  0  0  0  0  0  0  0  0  0  0  0  0  # atno 17371 bound_to 10713
  140.4894  134.6590  157.5204 LP  0  0  0  0  0  0  0  0  0  0  0  0  # atno 17394 bound_to 11000
  139.9935  134.6948  155.9650 LP  0  0  0  0  0  0  0  0  0  0  0  0  # atno 17395 bound_to 11000

$$$$
