AV-unprocessed.smi:2865|AV-procd|sdf|11018|dock9
  -GOLD-   2272015483D 1   1.00000     0.00000
 Structure written by MMmdl.
 38 41  0  0  0  0  0  0  0  0  1 V2000
  145.7634  138.3532  153.9108 O   0  0  0  0  0  0  0  0  0  0  0  0
  146.6492  137.8014  153.2623 C   0  0  0  0  0  0  0  0  0  0  0  0
  147.9610  138.0987  153.3440 N   0  0  0  0  0  0  0  0  0  0  0  0
  148.5982  139.1151  154.1052 C   0  0  0  0  0  0  0  0  0  0  0  0
  149.9963  139.0545  154.2839 C   0  0  0  0  0  0  0  0  0  0  0  0
  150.6715  139.9937  154.9806 N   0  0  0  0  0  0  0  0  0  0  0  0
  149.9517  140.9905  155.5024 C   0  0  0  0  0  0  0  0  0  0  0  0
  150.7076  142.0519  156.2398 C   0  0  0  0  0  0  0  0  0  0  0  0
  151.5877  141.6993  157.4217 C   0  0  0  0  0  0  0  0  0  0  0  0
  150.3078  142.4557  157.6444 C   0  0  0  0  0  0  0  0  0  0  0  0
  148.6333  141.1673  155.3818 N   0  0  0  0  0  0  0  0  0  0  0  0
  147.9493  140.2320  154.6878 C   0  0  0  0  0  0  0  0  0  0  0  0
  146.3654  136.8000  152.4114 N   0  0  0  0  0  0  0  0  0  0  0  0
  145.0540  136.2339  152.0908 C   0  0  1  0  0  0  0  0  0  0  0  0
  145.1155  135.1700  150.9868 C   0  0  0  0  0  0  0  0  0  0  0  0
  144.5328  133.9413  151.6978 C   0  0  2  0  0  0  0  0  0  0  0  0
  143.0295  134.0909  151.9751 C   0  0  0  0  0  0  0  0  0  0  0  0
  143.0183  135.1166  153.1088 C   0  0  0  0  0  0  0  0  0  0  0  0
  144.5149  135.4120  153.2739 C   0  0  1  0  0  0  0  0  0  0  0  0
  145.0581  134.1312  152.9988 O   0  0  0  0  0  0  0  0  0  0  0  0
  148.5801  137.5068  152.8096 H   0  0  0  0  0  0  0  0  0  0  0  0
  150.5804  138.2484  153.8645 H   0  0  0  0  0  0  0  0  0  0  0  0
  151.0511  142.8334  155.5646 H   0  0  0  0  0  0  0  0  0  0  0  0
  151.6166  140.6597  157.7428 H   0  0  0  0  0  0  0  0  0  0  0  0
  152.5210  142.2474  157.5327 H   0  0  0  0  0  0  0  0  0  0  0  0
  150.3850  143.5095  157.9041 H   0  0  0  0  0  0  0  0  0  0  0  0
  149.4851  141.9193  158.1134 H   0  0  0  0  0  0  0  0  0  0  0  0
  146.8900  140.4103  154.5949 H   0  0  0  0  0  0  0  0  0  0  0  0
  147.1521  136.3636  151.9526 H   0  0  0  0  0  0  0  0  0  0  0  0
  144.3553  137.0356  151.8446 H   0  0  0  0  0  0  0  0  0  0  0  0
  144.5419  135.4480  150.1019 H   0  0  0  0  0  0  0  0  0  0  0  0
  146.1422  134.9734  150.6748 H   0  0  0  0  0  0  0  0  0  0  0  0
  144.8063  132.9922  151.2362 H   0  0  0  0  0  0  0  0  0  0  0  0
  142.4774  134.4240  151.0957 H   0  0  0  0  0  0  0  0  0  0  0  0
  142.6002  133.1464  152.3113 H   0  0  0  0  0  0  0  0  0  0  0  0
  142.4385  136.0089  152.8703 H   0  0  0  0  0  0  0  0  0  0  0  0
  142.6086  134.6763  154.0185 H   0  0  0  0  0  0  0  0  0  0  0  0
  144.7742  135.8102  154.2557 H   0  0  0  0  0  0  0  0  0  0  0  0
  1  2  2  0  0  0  0
  2  3  1  0  0  0  0
  2 13  1  0  0  0  0
  3  4  1  0  0  0  0
  3 21  1  0  0  0  0
  4 12  1  0  0  0  0
  4  5  2  0  0  0  0
  5  6  1  0  0  0  0
  5 22  1  0  0  0  0
  6  7  2  0  0  0  0
  7  8  1  0  0  0  0
  7 11  1  0  0  0  0
  8 10  1  0  0  0  0
  8  9  1  0  0  0  0
  8 23  1  0  0  0  0
  9 10  1  0  0  0  0
  9 24  1  0  0  0  0
  9 25  1  0  0  0  0
 10 26  1  0  0  0  0
 10 27  1  0  0  0  0
 11 12  2  0  0  0  0
 12 28  1  0  0  0  0
 13 14  1  0  0  0  0
 13 29  1  0  0  0  0
 14 19  1  0  0  0  0
 14 15  1  0  0  0  0
 14 30  1  0  0  0  0
 15 16  1  0  0  0  0
 15 31  1  0  0  0  0
 15 32  1  0  0  0  0
 16 20  1  0  0  0  0
 16 17  1  0  0  0  0
 16 33  1  0  0  0  0
 17 18  1  0  0  0  0
 17 34  1  0  0  0  0
 17 35  1  0  0  0  0
 18 19  1  0  0  0  0
 18 36  1  0  0  0  0
 18 37  1  0  0  0  0
 19 20  1  0  0  0  0
 19 38  1  0  0  0  0
M  END
> <s_m_source_file>
AV-unprocessed.smi

> <i_m_source_file_index>
2865

> <i_lp_mmshare_version>
43012

> <i_f3d_flags>
0

> <s_epik_input>
W0NIMl0xW0NIMl1bQ0BIXShPMilbQ0BASF0oW0NIMl1bQ0BASF0xMilbTkhdQyg9TylbTkhdYzNbY0hdbmMobltjSF0zKVtDSF00W0NIMl1bQ0gyXTQ=

> <s_epik_cmdline>
J2VwaWtfcHl0aG9uJywgJy1waCcsICc3LjAnLCAnLXRuJywgJzgnLCAnLW1hJywgJzIwMCcsICctbWV0YWxfYmluZGluZycsICctaW1hZScsICc8aW5maWxlLm1hZT4nLCAnLW9tYWUnLCAnPG91dGZpbGUubWFlPic=

> <r_lp_tautomer_probability>
1

> <r_epik_Ionization_Penalty>
2.43104e-05

> <r_epik_Ionization_Penalty_Charging>
0

> <r_epik_Ionization_Penalty_Neutral>
2.43104e-05

> <r_epik_State_Penalty>
-0

> <r_epik_Charging_Adjusted_Penalty>
0

> <i_epik_Tot_Q>
0

> <i_epik_Tot_abs_Q>
0

> <r_epik_Metal_State_Penalty>
-0

> <b_epik_Metal_Only>
0

> <s_lp_Force_Field>
OPLS_2005

> <r_lp_Energy>
45.9934

> <b_lp_Chiralities_Consistent>
1

> <s_lp_Variant>
AV-unprocessed.smi:2865-4

> <Gold.Version>
5.8.1

> <Gold.Id.Protein>
6NUR|6NUR_protein|mol2

> <Gold.PLP.Fitness>
37.8242

> <Gold.PLP.PLP>
-29.1747

> <Gold.PLP.part.hbond>
-3.0000

> <Gold.PLP.part.metal>
0.0000

> <Gold.PLP.part.buried>
-4.2864

> <Gold.PLP.part.nonpolar>
-22.3369

> <Gold.PLP.part.repulsive>
0.4580

> <Gold.PLP.ligand.clash>
0.0000

> <Gold.PLP.ligand.torsion>
0.1886

> <Gold.PLP.Chemscore.Hbond>
2.9600

> <Gold.PLP.Chemscore.CHOScore>
0.0000

> <Gold.PLP.Chemscore.Metal>
0.0000

> <Gold.Chemscore.Hbonds>
donor molecule, donor type, donor heavy atom, donor atom, acceptor molecule, acceptor atom, score
      L1  H     3    21       P1  7948  1.00
      L1  H    13    29       P1  7948  0.94
      P1  H  7989  7998       L1     6  1.00

> <Gold.PLP.Chemscore.Internal.Correction>
0.1467

> <Gold.Rescore>
     Score         DG    S(hbond)    S(metal)    S(lipo)     H(rot)  DE(clash)    DE(int)     intcor
     15.71     -17.29       2.06        0.00      68.28       1.20       0.30       1.28       ----

> <Gold.Chemscore.Fitness>
15.7083

> <Gold.Chemscore.DG>
-17.2890

> <Gold.Chemscore.ZeroCoef>
-5.4800

> <Gold.Chemscore.Hbond>
2.0645

> <Gold.Chemscore.Metal>
0.0000

> <Gold.Chemscore.Lipo>
68.2802

> <Gold.Chemscore.Internal_Hbond>
0.0000

> <Gold.Chemscore.DEClash>
0.2961

> <Gold.Chemscore.DEInternal>
1.2846

> <Gold.Chemscore.Rot>
1.2012

> <Gold.Chemscore.Internal.Correction>
   9.000000E+99

> <Gold.Chemscore.Hbonds>
donor molecule, donor type, donor heavy atom, donor atom, acceptor molecule, acceptor atom, score
      L1  H     3    21       P1  7948  0.98
      L1  H    13    29       P1  7948  0.92
      P1  H  7989  7998       L1     6  0.10

> <Gold.Chemscore.Hbond.Weighted>
-6.8954

> <Gold.Chemscore.Metal.Weighted>
-0.0000

> <Gold.Chemscore.Lipo.Weighted>
-7.9888

> <Gold.Chemscore.Internal_Hbond.Weighted>
0.0000

> <Gold.Chemscore.DEClash.Weighted>
0.2961

> <Gold.Chemscore.DEInternal.Weighted>
1.2846

> <Gold.Chemscore.Rot.Weighted>
3.0752

> <Gold.Chemscore.Internal.Correction.Weighted>
   9.000000E+99

> <Gold.Protein.RotatedTorsions>
[ 6907 6896 6895 6894 ] final  107.17 input  -60.11 | X-H torsion
[ 7974 7965 7964 7962 ] final   39.14 input  175.53 | X-H torsion
[ 8008 7997 7996 7995 ] final   64.71 input   59.86 | X-H torsion
[ 10167 10162 10161 10158 ] final -139.09 input  -65.29 | X-H torsion
[ 10718 10713 10712 10709 ] final   36.13 input   66.30 | X-H torsion
[ 10763 10752 10751 10750 ] final  -97.93 input  -60.55 | X-H torsion
[ 11005 11000 10999 10996 ] final  -48.28 input  -57.11 | X-H torsion

> <Gold.Protein.ActiveResidues>
 VAL166  LYS551  ARG553  GLY616  TRP617  ASP618  TYR619  PRO620  LYS621  CYS622 
 ASP623  PHE694  ASN695  SER759  ASP760  ASP761  ALA762  ILE779  LEU786  VAL792 
 PHE793  MET794  SER795  GLU796  ALA797  LYS798  CYS799  TRP800  GLU811  SER814 

> <Gold.Protein.RotatedAtoms>
  152.5165  133.9273  159.7563 H   0  0  0  0  0  0  0  0  0  0  0  0  # atno 6907 bound_to 6896
  150.9631  133.6415  159.2758 H   0  0  0  0  0  0  0  0  0  0  0  0  # atno 6908 bound_to 6896
  151.3653  135.0917  159.9500 H   0  0  0  0  0  0  0  0  0  0  0  0  # atno 6909 bound_to 6896
  146.1007  139.5687  142.9416 H   0  0  0  0  0  0  0  0  0  0  0  0  # atno 7974 bound_to 7965
  155.6503  140.3497  155.4746 H   0  0  0  0  0  0  0  0  0  0  0  0  # atno 8008 bound_to 7997
  155.9853  140.1182  157.0712 H   0  0  0  0  0  0  0  0  0  0  0  0  # atno 8009 bound_to 7997
  154.4203  140.1130  156.5477 H   0  0  0  0  0  0  0  0  0  0  0  0  # atno 8010 bound_to 7997
  139.8413  143.7318  152.2663 H   0  0  0  0  0  0  0  0  0  0  0  0  # atno 10167 bound_to 10162
  157.3311  130.7498  149.6848 H   0  0  0  0  0  0  0  0  0  0  0  0  # atno 10718 bound_to 10713
  154.7370  135.5028  153.9059 H   0  0  0  0  0  0  0  0  0  0  0  0  # atno 10763 bound_to 10752
  153.1005  135.6684  153.9690 H   0  0  0  0  0  0  0  0  0  0  0  0  # atno 10764 bound_to 10752
  153.9477  135.3061  155.3419 H   0  0  0  0  0  0  0  0  0  0  0  0  # atno 10765 bound_to 10752
  141.0691  133.6684  156.3419 H   0  0  0  0  0  0  0  0  0  0  0  0  # atno 11005 bound_to 11000
  145.5859  141.0376  143.2096 LP  0  0  0  0  0  0  0  0  0  0  0  0  # atno 17320 bound_to 7965
  144.7431  139.7395  143.7303 LP  0  0  0  0  0  0  0  0  0  0  0  0  # atno 17321 bound_to 7965
  139.7556  144.7522  151.0441 LP  0  0  0  0  0  0  0  0  0  0  0  0  # atno 17342 bound_to 10162
  140.7797  143.4810  151.0018 LP  0  0  0  0  0  0  0  0  0  0  0  0  # atno 17343 bound_to 10162
  155.9696  130.4195  150.4377 LP  0  0  0  0  0  0  0  0  0  0  0  0  # atno 17370 bound_to 10713
  157.2410  131.0525  151.2437 LP  0  0  0  0  0  0  0  0  0  0  0  0  # atno 17371 bound_to 10713
  140.5710  134.5840  157.5457 LP  0  0  0  0  0  0  0  0  0  0  0  0  # atno 17394 bound_to 11000
  139.9506  134.7624  156.0458 LP  0  0  0  0  0  0  0  0  0  0  0  0  # atno 17395 bound_to 11000

$$$$
