AV-unprocessed.smi:1413|AV-procd|sdf|5751|dock9
  -GOLD-   22720 5393D 1   1.00000     0.00000
 Structure written by MMmdl.
 53 55  0  0  0  0  0  0  0  0  1 V2000
  151.5773  144.9767  158.5971 C   0  0  0  0  0  0  0  0  0  0  0  0
  152.1960  143.5917  158.3813 C   0  0  2  0  0  0  0  0  0  0  0  0
  151.2135  142.6208  157.6991 C   0  0  0  0  0  0  0  0  0  0  0  0
  151.7892  141.2812  157.6226 N   0  0  0  0  0  0  0  0  0  0  0  0
  151.1075  140.3752  156.7820 C   0  0  0  0  0  0  0  0  0  0  0  0
  151.7002  139.9469  155.5709 C   0  0  0  0  0  0  0  0  0  0  0  0
  151.0062  139.0408  154.7460 C   0  0  0  0  0  0  0  0  0  0  0  0
  149.7353  138.5772  155.1566 C   0  0  0  0  0  0  0  0  0  0  0  0
  148.9322  137.6802  154.4028 N   0  0  0  0  0  0  0  0  0  0  0  0
  147.7203  137.1896  154.7128 C   0  0  0  0  0  0  0  0  0  0  0  0
  147.0856  137.4596  155.7321 O   0  0  0  0  0  0  0  0  0  0  0  0
  147.2719  136.3703  153.7507 N   0  0  0  0  0  0  0  0  0  0  0  0
  145.9746  135.6940  153.7286 C   0  0  1  0  0  0  0  0  0  0  0  0
  144.8745  136.6980  154.1022 C   0  0  0  0  0  0  0  0  0  0  0  0
  145.7106  135.0393  152.3564 C   0  0  2  0  0  0  0  0  0  0  0  0
  145.5227  136.0080  151.1792 C   0  0  0  0  0  0  0  0  0  0  0  0
  144.4461  135.3553  150.3223 C   0  0  0  0  0  0  0  0  0  0  0  0
  144.1700  134.0242  151.0176 C   0  0  0  0  0  0  0  0  0  0  0  0
  144.5123  134.2751  152.3701 O   0  0  0  0  0  0  0  0  0  0  0  0
  149.2210  139.0705  156.3719 C   0  0  0  0  0  0  0  0  0  0  0  0
  149.8846  139.9350  157.1673 N   0  0  0  0  0  0  0  0  0  0  0  0
  152.2760  140.7878  158.9089 C   0  0  0  0  0  0  0  0  0  0  0  0
  153.2333  141.8103  159.5492 C   0  0  2  0  0  0  0  0  0  0  0  0
  153.6788  141.3832  160.9515 C   0  0  0  0  0  0  0  0  0  0  0  0
  152.5704  143.0675  159.6527 O   0  0  0  0  0  0  0  0  0  0  0  0
  151.2821  145.4263  157.6488 H   0  0  0  0  0  0  0  0  0  0  0  0
  152.2872  145.6503  159.0778 H   0  0  0  0  0  0  0  0  0  0  0  0
  150.6918  144.9183  159.2307 H   0  0  0  0  0  0  0  0  0  0  0  0
  153.0891  143.7037  157.7639 H   0  0  0  0  0  0  0  0  0  0  0  0
  150.2827  142.5685  158.2654 H   0  0  0  0  0  0  0  0  0  0  0  0
  150.9611  143.0044  156.7113 H   0  0  0  0  0  0  0  0  0  0  0  0
  152.6787  140.2925  155.2721 H   0  0  0  0  0  0  0  0  0  0  0  0
  151.4547  138.7296  153.8153 H   0  0  0  0  0  0  0  0  0  0  0  0
  149.2890  137.4401  153.4895 H   0  0  0  0  0  0  0  0  0  0  0  0
  147.8727  136.2057  152.9564 H   0  0  0  0  0  0  0  0  0  0  0  0
  145.9520  134.9041  154.4812 H   0  0  0  0  0  0  0  0  0  0  0  0
  143.8965  136.2167  154.1263 H   0  0  0  0  0  0  0  0  0  0  0  0
  144.8236  137.5187  153.3857 H   0  0  0  0  0  0  0  0  0  0  0  0
  145.0530  137.1280  155.0883 H   0  0  0  0  0  0  0  0  0  0  0  0
  146.5328  134.3624  152.1153 H   0  0  0  0  0  0  0  0  0  0  0  0
  145.1873  136.9935  151.5011 H   0  0  0  0  0  0  0  0  0  0  0  0
  146.4559  136.1451  150.6323 H   0  0  0  0  0  0  0  0  0  0  0  0
  143.5473  135.9732  150.3260 H   0  0  0  0  0  0  0  0  0  0  0  0
  144.7562  135.2198  149.2858 H   0  0  0  0  0  0  0  0  0  0  0  0
  143.1330  133.7032  150.9176 H   0  0  0  0  0  0  0  0  0  0  0  0
  144.8129  133.2374  150.6199 H   0  0  0  0  0  0  0  0  0  0  0  0
  148.2489  138.7569  156.7236 H   0  0  0  0  0  0  0  0  0  0  0  0
  151.4270  140.6020  159.5684 H   0  0  0  0  0  0  0  0  0  0  0  0
  152.7973  139.8393  158.7722 H   0  0  0  0  0  0  0  0  0  0  0  0
  154.1209  141.9243  158.9241 H   0  0  0  0  0  0  0  0  0  0  0  0
  154.2017  140.4269  160.9219 H   0  0  0  0  0  0  0  0  0  0  0  0
  152.8258  141.2781  161.6223 H   0  0  0  0  0  0  0  0  0  0  0  0
  154.3560  142.1190  161.3860 H   0  0  0  0  0  0  0  0  0  0  0  0
  1  2  1  0  0  0  0
  1 26  1  0  0  0  0
  1 27  1  0  0  0  0
  1 28  1  0  0  0  0
  2 25  1  0  0  0  0
  2  3  1  0  0  0  0
  2 29  1  0  0  0  0
  3  4  1  0  0  0  0
  3 30  1  0  0  0  0
  3 31  1  0  0  0  0
  4  5  1  0  0  0  0
  4 22  1  0  0  0  0
  5 21  1  0  0  0  0
  5  6  2  0  0  0  0
  6  7  1  0  0  0  0
  6 32  1  0  0  0  0
  7  8  2  0  0  0  0
  7 33  1  0  0  0  0
  8  9  1  0  0  0  0
  8 20  1  0  0  0  0
  9 10  1  0  0  0  0
  9 34  1  0  0  0  0
 10 11  2  0  0  0  0
 10 12  1  0  0  0  0
 12 13  1  0  0  0  0
 12 35  1  0  0  0  0
 13 14  1  0  0  0  0
 13 15  1  0  0  0  0
 13 36  1  0  0  0  0
 14 37  1  0  0  0  0
 14 38  1  0  0  0  0
 14 39  1  0  0  0  0
 15 19  1  0  0  0  0
 15 16  1  0  0  0  0
 15 40  1  0  0  0  0
 16 17  1  0  0  0  0
 16 41  1  0  0  0  0
 16 42  1  0  0  0  0
 17 18  1  0  0  0  0
 17 43  1  0  0  0  0
 17 44  1  0  0  0  0
 18 19  1  0  0  0  0
 18 45  1  0  0  0  0
 18 46  1  0  0  0  0
 20 21  2  0  0  0  0
 20 47  1  0  0  0  0
 22 23  1  0  0  0  0
 22 48  1  0  0  0  0
 22 49  1  0  0  0  0
 23 24  1  0  0  0  0
 23 25  1  0  0  0  0
 23 50  1  0  0  0  0
 24 51  1  0  0  0  0
 24 52  1  0  0  0  0
 24 53  1  0  0  0  0
M  END
> <s_m_source_file>
AV-unprocessed.smi

> <i_m_source_file_index>
1413

> <i_lp_mmshare_version>
43012

> <i_f3d_flags>
0

> <s_epik_input>
W0NIM11bQ0BASF0xW0NIMl1OKFtDSDJdW0NASF0oTzEpW0NIM10pYzJbY0hdW2NIXWMoW2NIXW4yKVtOSF1DKD1PKVtOSF1bQ0BIXShbQ0gzXSlbQ0BASF0zW0NIMl1bQ0gyXVtDSDJdTzM=

> <s_epik_cmdline>
J2VwaWtfcHl0aG9uJywgJy1waCcsICc3LjAnLCAnLXRuJywgJzgnLCAnLW1hJywgJzIwMCcsICctbWV0YWxfYmluZGluZycsICctaW1hZScsICc8aW5maWxlLm1hZT4nLCAnLW9tYWUnLCAnPG91dGZpbGUubWFlPic=

> <r_lp_tautomer_probability>
1

> <r_epik_Ionization_Penalty>
0.00271172

> <r_epik_Ionization_Penalty_Charging>
0

> <r_epik_Ionization_Penalty_Neutral>
0.00271172

> <r_epik_State_Penalty>
0.00186503

> <r_epik_Charging_Adjusted_Penalty>
0.00186503

> <i_epik_Tot_Q>
0

> <i_epik_Tot_abs_Q>
0

> <r_epik_Metal_State_Penalty>
-0

> <b_epik_Metal_Only>
0

> <s_lp_Force_Field>
OPLS_2005

> <r_lp_Energy>
35.2684

> <b_lp_Chiralities_Consistent>
1

> <s_lp_Variant>
AV-unprocessed.smi:1413-4

> <Gold.Version>
5.8.1

> <Gold.Id.Protein>
6NUR|6NUR_protein|mol2

> <Gold.PLP.Fitness>
48.5138

> <Gold.PLP.PLP>
-43.1264

> <Gold.PLP.part.hbond>
-2.0000

> <Gold.PLP.part.metal>
0.0000

> <Gold.PLP.part.buried>
-4.9741

> <Gold.PLP.part.nonpolar>
-36.2002

> <Gold.PLP.part.repulsive>
0.1112

> <Gold.PLP.ligand.clash>
0.0000

> <Gold.PLP.ligand.torsion>
0.3208

> <Gold.PLP.Chemscore.Hbond>
1.8960

> <Gold.PLP.Chemscore.CHOScore>
0.0000

> <Gold.PLP.Chemscore.Metal>
0.0000

> <Gold.Chemscore.Hbonds>
donor molecule, donor type, donor heavy atom, donor atom, acceptor molecule, acceptor atom, score
      L1  H     9    34       P1  7948  0.90
      L1  H    12    35       P1  7948  1.00

> <Gold.PLP.Chemscore.Internal.Correction>
0.3410

> <Gold.Rescore>
     Score         DG    S(hbond)    S(metal)    S(lipo)     H(rot)  DE(clash)    DE(int)     intcor
     18.42     -21.52       1.94        0.00     111.24       1.35       0.29       2.80       ----

> <Gold.Chemscore.Fitness>
18.4180

> <Gold.Chemscore.DG>
-21.5161

> <Gold.Chemscore.ZeroCoef>
-5.4800

> <Gold.Chemscore.Hbond>
1.9369

> <Gold.Chemscore.Metal>
0.0000

> <Gold.Chemscore.Lipo>
111.2427

> <Gold.Chemscore.Internal_Hbond>
0.0000

> <Gold.Chemscore.DEClash>
0.2944

> <Gold.Chemscore.DEInternal>
2.8038

> <Gold.Chemscore.Rot>
1.3471

> <Gold.Chemscore.Internal.Correction>
   9.000000E+99

> <Gold.Chemscore.Hbonds>
donor molecule, donor type, donor heavy atom, donor atom, acceptor molecule, acceptor atom, score
      L1  H     9    34       P1  7948  0.80
      L1  H    12    35       P1  7948  0.93

> <Gold.Chemscore.Hbond.Weighted>
-6.4692

> <Gold.Chemscore.Metal.Weighted>
-0.0000

> <Gold.Chemscore.Lipo.Weighted>
-13.0154

> <Gold.Chemscore.Internal_Hbond.Weighted>
0.0000

> <Gold.Chemscore.DEClash.Weighted>
0.2944

> <Gold.Chemscore.DEInternal.Weighted>
2.8038

> <Gold.Chemscore.Rot.Weighted>
3.4485

> <Gold.Chemscore.Internal.Correction.Weighted>
   9.000000E+99

> <Gold.Protein.RotatedTorsions>
[ 6907 6896 6895 6894 ] final  120.22 input  -60.11 | X-H torsion
[ 7974 7965 7964 7962 ] final -151.47 input  175.53 | X-H torsion
[ 8008 7997 7996 7995 ] final  -92.20 input   59.86 | X-H torsion
[ 10167 10162 10161 10158 ] final -166.60 input  -65.29 | X-H torsion
[ 10718 10713 10712 10709 ] final  120.60 input   66.30 | X-H torsion
[ 10763 10752 10751 10750 ] final -136.11 input  -60.55 | X-H torsion
[ 11005 11000 10999 10996 ] final   84.84 input  -57.11 | X-H torsion

> <Gold.Protein.ActiveResidues>
 VAL166  LYS551  ARG553  GLY616  TRP617  ASP618  TYR619  PRO620  LYS621  CYS622 
 ASP623  PHE694  ASN695  SER759  ASP760  ASP761  ALA762  ILE779  LEU786  VAL792 
 PHE793  MET794  SER795  GLU796  ALA797  LYS798  CYS799  TRP800  GLU811  SER814 

> <Gold.Protein.RotatedAtoms>
  152.4414  133.7455  159.6664 H   0  0  0  0  0  0  0  0  0  0  0  0  # atno 6907 bound_to 6896
  150.8305  133.8088  159.3106 H   0  0  0  0  0  0  0  0  0  0  0  0  # atno 6908 bound_to 6896
  151.5743  135.1063  160.0054 H   0  0  0  0  0  0  0  0  0  0  0  0  # atno 6909 bound_to 6896
  144.7848  140.4794  143.5814 H   0  0  0  0  0  0  0  0  0  0  0  0  # atno 7974 bound_to 7965
  154.7202  140.0511  157.0632 H   0  0  0  0  0  0  0  0  0  0  0  0  # atno 8008 bound_to 7997
  155.0438  140.3171  155.4696 H   0  0  0  0  0  0  0  0  0  0  0  0  # atno 8009 bound_to 7997
  156.2814  140.2128  156.5562 H   0  0  0  0  0  0  0  0  0  0  0  0  # atno 8010 bound_to 7997
  139.6104  144.0826  152.1836 H   0  0  0  0  0  0  0  0  0  0  0  0  # atno 10167 bound_to 10162
  157.5879  131.1068  150.8058 H   0  0  0  0  0  0  0  0  0  0  0  0  # atno 10718 bound_to 10713
  154.8690  135.3682  154.5007 H   0  0  0  0  0  0  0  0  0  0  0  0  # atno 10763 bound_to 10752
  153.5648  135.7022  153.5536 H   0  0  0  0  0  0  0  0  0  0  0  0  # atno 10764 bound_to 10752
  153.3595  135.4050  155.1671 H   0  0  0  0  0  0  0  0  0  0  0  0  # atno 10765 bound_to 10752
  139.8989  134.8244  156.2500 H   0  0  0  0  0  0  0  0  0  0  0  0  # atno 11005 bound_to 11000
  145.5951  139.1499  143.3160 LP  0  0  0  0  0  0  0  0  0  0  0  0  # atno 17320 bound_to 7965
  146.2075  140.6075  142.9074 LP  0  0  0  0  0  0  0  0  0  0  0  0  # atno 17321 bound_to 7965
  140.0443  144.5982  150.7386 LP  0  0  0  0  0  0  0  0  0  0  0  0  # atno 17342 bound_to 10162
  140.7315  143.2695  151.3934 LP  0  0  0  0  0  0  0  0  0  0  0  0  # atno 17343 bound_to 10162
  156.8488  130.5073  149.5314 LP  0  0  0  0  0  0  0  0  0  0  0  0  # atno 17370 bound_to 10713
  156.0930  130.5910  150.9765 LP  0  0  0  0  0  0  0  0  0  0  0  0  # atno 17371 bound_to 10713
  141.0230  133.7030  156.1300 LP  0  0  0  0  0  0  0  0  0  0  0  0  # atno 17394 bound_to 11000
  140.7206  134.4362  157.5575 LP  0  0  0  0  0  0  0  0  0  0  0  0  # atno 17395 bound_to 11000

$$$$
