AV-unprocessed.smi:3159|AV-procd|sdf|12050|dock3
  -GOLD-   2272017473D 1   1.00000     0.00000
 Structure written by MMmdl.
 35 36  0  0  0  0  0  0  0  0  1 V2000
  153.3535  142.0787  160.8074 C   0  0  0  0  0  0  0  0  0  0  0  0
  152.5825  142.5472  159.6088 C   0  0  0  0  0  0  0  0  0  0  0  0
  151.5415  141.8659  158.9140 C   0  0  0  0  0  0  0  0  0  0  0  0
  151.2125  142.7485  157.9214 C   0  0  0  0  0  0  0  0  0  0  0  0
  150.2717  142.6233  156.9474 N   0  0  0  0  0  0  0  0  0  0  0  0
  150.2238  141.7447  155.9306 C   0  0  0  0  0  0  0  0  0  0  0  0
  151.0572  140.8670  155.7054 O   0  0  0  0  0  0  0  0  0  0  0  0
  149.1373  141.9453  155.1706 N   0  0  0  0  0  0  0  0  0  0  0  0
  148.7800  141.1752  153.9829 C   0  0  0  0  0  0  0  0  0  0  0  0
  147.4916  140.3578  154.1943 C   0  0  1  0  0  0  0  0  0  0  0  0
  147.1452  139.3940  153.0755 C   0  0  0  0  0  0  0  0  0  0  0  0
  146.1786  138.4365  153.7664 C   0  0  0  0  0  0  0  0  0  0  0  0
  146.5647  138.4106  155.1379 O   0  0  0  0  0  0  0  0  0  0  0  0
  147.5564  139.4024  155.3850 C   0  0  0  0  0  0  0  0  0  0  0  0
  152.0130  143.8654  158.0370 N   0  0  0  0  0  0  0  0  0  0  0  0
  152.0577  145.0738  157.2360 C   0  0  0  0  0  0  0  0  0  0  0  0
  152.8583  143.7344  159.0816 N   0  0  0  0  0  0  0  0  0  0  0  0
  152.9217  141.1675  161.2219 H   0  0  0  0  0  0  0  0  0  0  0  0
  153.3546  142.8324  161.5951 H   0  0  0  0  0  0  0  0  0  0  0  0
  154.3905  141.8655  160.5467 H   0  0  0  0  0  0  0  0  0  0  0  0
  151.1228  140.8938  159.1263 H   0  0  0  0  0  0  0  0  0  0  0  0
  149.5108  143.2843  156.9989 H   0  0  0  0  0  0  0  0  0  0  0  0
  148.5074  142.6898  155.4316 H   0  0  0  0  0  0  0  0  0  0  0  0
  148.6864  141.8248  153.1107 H   0  0  0  0  0  0  0  0  0  0  0  0
  149.6069  140.4979  153.7681 H   0  0  0  0  0  0  0  0  0  0  0  0
  146.6505  141.0375  154.3426 H   0  0  0  0  0  0  0  0  0  0  0  0
  146.7055  139.8828  152.2056 H   0  0  0  0  0  0  0  0  0  0  0  0
  148.0358  138.8547  152.7498 H   0  0  0  0  0  0  0  0  0  0  0  0
  145.1577  138.8143  153.7025 H   0  0  0  0  0  0  0  0  0  0  0  0
  146.1986  137.4386  153.3279 H   0  0  0  0  0  0  0  0  0  0  0  0
  148.5290  138.9106  155.4339 H   0  0  0  0  0  0  0  0  0  0  0  0
  147.3856  139.9070  156.3362 H   0  0  0  0  0  0  0  0  0  0  0  0
  151.2983  145.0483  156.4546 H   0  0  0  0  0  0  0  0  0  0  0  0
  153.0390  145.1692  156.7703 H   0  0  0  0  0  0  0  0  0  0  0  0
  151.8788  145.9418  157.8712 H   0  0  0  0  0  0  0  0  0  0  0  0
  1  2  1  0  0  0  0
  1 18  1  0  0  0  0
  1 19  1  0  0  0  0
  1 20  1  0  0  0  0
  2 17  2  0  0  0  0
  2  3  1  0  0  0  0
  3  4  2  0  0  0  0
  3 21  1  0  0  0  0
  4  5  1  0  0  0  0
  4 15  1  0  0  0  0
  5  6  1  0  0  0  0
  5 22  1  0  0  0  0
  6  7  2  0  0  0  0
  6  8  1  0  0  0  0
  8  9  1  0  0  0  0
  8 23  1  0  0  0  0
  9 10  1  0  0  0  0
  9 24  1  0  0  0  0
  9 25  1  0  0  0  0
 10 14  1  0  0  0  0
 10 11  1  0  0  0  0
 10 26  1  0  0  0  0
 11 12  1  0  0  0  0
 11 27  1  0  0  0  0
 11 28  1  0  0  0  0
 12 13  1  0  0  0  0
 12 29  1  0  0  0  0
 12 30  1  0  0  0  0
 13 14  1  0  0  0  0
 14 31  1  0  0  0  0
 14 32  1  0  0  0  0
 15 16  1  0  0  0  0
 15 17  1  0  0  0  0
 16 33  1  0  0  0  0
 16 34  1  0  0  0  0
 16 35  1  0  0  0  0
M  END
> <s_m_source_file>
AV-unprocessed.smi

> <i_m_source_file_index>
3159

> <i_lp_mmshare_version>
43012

> <i_f3d_flags>
0

> <s_epik_input>
W0NIM11jMVtjSF1jKG4objEpW0NIM10pW05IXUMoPU8pW05IXVtDSDJdW0NAQEhdMltDSDJdW0NIMl1PW0NIMl0y

> <s_epik_cmdline>
J2VwaWtfcHl0aG9uJywgJy1waCcsICc3LjAnLCAnLXRuJywgJzgnLCAnLW1hJywgJzIwMCcsICctbWV0YWxfYmluZGluZycsICctaW1hZScsICc8aW5maWxlLm1hZT4nLCAnLW9tYWUnLCAnPG91dGZpbGUubWFlPic=

> <r_lp_tautomer_probability>
1

> <r_epik_Ionization_Penalty>
9.40319e-05

> <r_epik_Ionization_Penalty_Charging>
0

> <r_epik_Ionization_Penalty_Neutral>
9.40319e-05

> <r_epik_State_Penalty>
-0

> <r_epik_Charging_Adjusted_Penalty>
0

> <i_epik_Tot_Q>
0

> <i_epik_Tot_abs_Q>
0

> <r_epik_Metal_State_Penalty>
-0

> <b_epik_Metal_Only>
0

> <s_lp_Force_Field>
OPLS_2005

> <r_lp_Energy>
19.8906

> <b_lp_Chiralities_Consistent>
1

> <s_lp_Variant>
AV-unprocessed.smi:3159-2

> <Gold.Version>
5.8.1

> <Gold.Id.Protein>
6NUR|6NUR_protein|mol2

> <Gold.PLP.Fitness>
36.1560

> <Gold.PLP.PLP>
-32.0668

> <Gold.PLP.part.hbond>
-3.0000

> <Gold.PLP.part.metal>
0.0000

> <Gold.PLP.part.buried>
-3.3181

> <Gold.PLP.part.nonpolar>
-24.9930

> <Gold.PLP.part.repulsive>
0.3049

> <Gold.PLP.ligand.clash>
0.0000

> <Gold.PLP.ligand.torsion>
0.6524

> <Gold.PLP.Chemscore.Hbond>
1.7961

> <Gold.PLP.Chemscore.CHOScore>
0.0000

> <Gold.PLP.Chemscore.Metal>
0.0000

> <Gold.Chemscore.Hbonds>
donor molecule, donor type, donor heavy atom, donor atom, acceptor molecule, acceptor atom, score
      L1  H     5    22       P1  8028  0.59
      L1  H     8    23       P1  8028  0.55
      P1  H  7989  7998       L1     7  0.30

> <Gold.PLP.Chemscore.Internal.Correction>
0.0057

> <Gold.Rescore>
     Score         DG    S(hbond)    S(metal)    S(lipo)     H(rot)  DE(clash)    DE(int)     intcor
     13.83     -16.37       1.64        0.00      73.45       1.25       1.83       0.70       ----

> <Gold.Chemscore.Fitness>
13.8297

> <Gold.Chemscore.DG>
-16.3654

> <Gold.Chemscore.ZeroCoef>
-5.4800

> <Gold.Chemscore.Hbond>
1.6425

> <Gold.Chemscore.Metal>
0.0000

> <Gold.Chemscore.Lipo>
73.4528

> <Gold.Chemscore.Internal_Hbond>
0.0000

> <Gold.Chemscore.DEClash>
1.8318

> <Gold.Chemscore.DEInternal>
0.7039

> <Gold.Chemscore.Rot>
1.2478

> <Gold.Chemscore.Internal.Correction>
   9.000000E+99

> <Gold.Chemscore.Hbonds>
donor molecule, donor type, donor heavy atom, donor atom, acceptor molecule, acceptor atom, score
      L1  H     5    22       P1  8028  0.55
      L1  H     8    23       P1  8028  0.53
      P1  H  7989  7998       L1     7  0.22

> <Gold.Chemscore.Hbond.Weighted>
-5.4859

> <Gold.Chemscore.Metal.Weighted>
-0.0000

> <Gold.Chemscore.Lipo.Weighted>
-8.5940

> <Gold.Chemscore.Internal_Hbond.Weighted>
0.0000

> <Gold.Chemscore.DEClash.Weighted>
1.8318

> <Gold.Chemscore.DEInternal.Weighted>
0.7039

> <Gold.Chemscore.Rot.Weighted>
3.1944

> <Gold.Chemscore.Internal.Correction.Weighted>
   9.000000E+99

> <Gold.Protein.RotatedTorsions>
[ 6907 6896 6895 6894 ] final   75.92 input  -60.11 | X-H torsion
[ 7974 7965 7964 7962 ] final   53.13 input  175.53 | X-H torsion
[ 8008 7997 7996 7995 ] final -105.72 input   59.86 | X-H torsion
[ 10167 10162 10161 10158 ] final   46.79 input  -65.29 | X-H torsion
[ 10718 10713 10712 10709 ] final  -62.69 input   66.30 | X-H torsion
[ 10763 10752 10751 10750 ] final -140.52 input  -60.55 | X-H torsion
[ 11005 11000 10999 10996 ] final   25.05 input  -57.11 | X-H torsion

> <Gold.Protein.ActiveResidues>
 VAL166  LYS551  ARG553  GLY616  TRP617  ASP618  TYR619  PRO620  LYS621  CYS622 
 ASP623  PHE694  ASN695  SER759  ASP760  ASP761  ALA762  ILE779  LEU786  VAL792 
 PHE793  MET794  SER795  GLU796  ALA797  LYS798  CYS799  TRP800  GLU811  SER814 

> <Gold.Protein.RotatedAtoms>
  152.5049  134.4048  159.9428 H   0  0  0  0  0  0  0  0  0  0  0  0  # atno 6907 bound_to 6896
  151.4013  133.3750  159.2740 H   0  0  0  0  0  0  0  0  0  0  0  0  # atno 6908 bound_to 6896
  150.9359  134.8793  159.7640 H   0  0  0  0  0  0  0  0  0  0  0  0  # atno 6909 bound_to 6896
  145.9743  139.4179  143.0171 H   0  0  0  0  0  0  0  0  0  0  0  0  # atno 7974 bound_to 7965
  154.9040  140.0412  157.1909 H   0  0  0  0  0  0  0  0  0  0  0  0  # atno 8008 bound_to 7997
  154.8415  140.2915  155.5635 H   0  0  0  0  0  0  0  0  0  0  0  0  # atno 8009 bound_to 7997
  156.2992  140.2482  156.3358 H   0  0  0  0  0  0  0  0  0  0  0  0  # atno 8010 bound_to 7997
  140.3103  144.2828  150.6201 H   0  0  0  0  0  0  0  0  0  0  0  0  # atno 10167 bound_to 10162
  156.0839  130.4212  150.1171 H   0  0  0  0  0  0  0  0  0  0  0  0  # atno 10718 bound_to 10713
  154.8576  135.3551  154.5721 H   0  0  0  0  0  0  0  0  0  0  0  0  # atno 10763 bound_to 10752
  153.6334  135.7001  153.5272 H   0  0  0  0  0  0  0  0  0  0  0  0  # atno 10764 bound_to 10752
  153.3031  135.4200  155.1229 H   0  0  0  0  0  0  0  0  0  0  0  0  # atno 10765 bound_to 10752
  140.3521  134.2217  155.7679 H   0  0  0  0  0  0  0  0  0  0  0  0  # atno 11005 bound_to 11000
  145.7861  140.9835  143.1073 LP  0  0  0  0  0  0  0  0  0  0  0  0  # atno 17320 bound_to 7965
  144.6845  139.9625  143.7480 LP  0  0  0  0  0  0  0  0  0  0  0  0  # atno 17321 bound_to 7965
  140.5574  143.2197  151.7824 LP  0  0  0  0  0  0  0  0  0  0  0  0  # atno 17342 bound_to 10162
  139.4895  144.4395  151.9780 LP  0  0  0  0  0  0  0  0  0  0  0  0  # atno 17343 bound_to 10162
  156.9196  130.9678  151.3550 LP  0  0  0  0  0  0  0  0  0  0  0  0  # atno 17370 bound_to 10713
  157.5966  130.8482  149.8738 LP  0  0  0  0  0  0  0  0  0  0  0  0  # atno 17371 bound_to 10713
  141.2009  133.7976  157.0467 LP  0  0  0  0  0  0  0  0  0  0  0  0  # atno 17394 bound_to 11000
  140.0695  134.9710  157.1442 LP  0  0  0  0  0  0  0  0  0  0  0  0  # atno 17395 bound_to 11000

$$$$
