AV-unprocessed.smi:266|AV-procd|sdf|2037|dock8
  -GOLD-   2262021253D 1   1.00000     0.00000
 Structure written by MMmdl.
 52 55  0  0  0  0  0  0  0  0  1 V2000
  145.9772  131.6975  149.0735 C   0  0  0  0  0  0  0  0  0  0  0  0
  145.8885  132.6729  150.2601 C   0  0  2  0  0  0  0  0  0  0  0  0
  145.8977  131.8765  151.4466 O   0  0  0  0  0  0  0  0  0  0  0  0
  144.8037  132.2178  152.2857 C   0  0  0  0  0  0  0  0  0  0  0  0
  143.7548  132.7474  151.3203 C   0  0  0  0  0  0  0  0  0  0  0  0
  144.6024  133.5357  150.3279 C   0  0  2  0  0  0  0  0  0  0  0  0
  143.9178  133.5992  149.0891 O   0  0  0  0  0  0  0  0  0  0  0  0
  144.9283  134.9844  150.7815 C   0  0  0  0  0  0  0  0  0  0  0  0
  145.0208  135.1562  152.2238 N   0  0  0  0  0  0  0  0  0  0  0  0
  146.1375  134.9599  153.0036 C   0  0  0  0  0  0  0  0  0  0  0  0
  145.9709  135.1804  154.2784 N   0  0  0  0  0  0  0  0  0  0  0  0
  144.6440  135.5808  154.3879 C   0  0  0  0  0  0  0  0  0  0  0  0
  143.8029  135.9788  155.4690 C   0  0  0  0  0  0  0  0  0  0  0  0
  144.1768  136.0647  156.7690 N   0  0  0  0  0  0  0  0  0  0  0  0
  143.2201  136.8055  157.5797 C   0  0  0  0  0  0  0  0  0  0  0  0
  144.8334  134.9203  157.4005 C   0  0  0  0  0  0  0  0  0  0  0  0
  145.5601  135.2627  158.7189 C   0  0  1  0  0  0  0  0  0  0  0  0
  146.0836  134.0174  159.4636 C   0  0  0  0  0  0  0  0  0  0  0  0
  147.0294  134.4756  160.5784 C   0  0  0  0  0  0  0  0  0  0  0  0
  147.8573  135.9790  159.9386 S   0  0  0  0  0  0  0  0  0  0  0  0
  147.6453  137.0817  160.8886 O   0  0  0  0  0  0  0  0  0  0  0  0
  149.2069  135.6358  159.4654 O   0  0  0  0  0  0  0  0  0  0  0  0
  146.7556  136.1990  158.4905 C   0  0  0  0  0  0  0  0  0  0  0  0
  142.5135  136.2895  155.1814 N   0  0  0  0  0  0  0  0  0  0  0  0
  142.0728  136.2381  153.9213 C   0  0  0  0  0  0  0  0  0  0  0  0
  142.7408  135.8996  152.8175 N   0  0  0  0  0  0  0  0  0  0  0  0
  144.0330  135.5697  153.1010 C   0  0  0  0  0  0  0  0  0  0  0  0
  146.0208  132.2303  148.1234 H   0  0  0  0  0  0  0  0  0  0  0  0
  145.1191  131.0251  149.0456 H   0  0  0  0  0  0  0  0  0  0  0  0
  146.8759  131.0842  149.1440 H   0  0  0  0  0  0  0  0  0  0  0  0
  146.7764  133.3068  150.2546 H   0  0  0  0  0  0  0  0  0  0  0  0
  144.4548  131.3572  152.8568 H   0  0  0  0  0  0  0  0  0  0  0  0
  145.1121  132.9919  152.9893 H   0  0  0  0  0  0  0  0  0  0  0  0
  143.2756  131.9023  150.8232 H   0  0  0  0  0  0  0  0  0  0  0  0
  142.9697  133.3213  151.8105 H   0  0  0  0  0  0  0  0  0  0  0  0
  144.4276  134.1239  148.4907 H   0  0  0  0  0  0  0  0  0  0  0  0
  145.8729  135.3133  150.3465 H   0  0  0  0  0  0  0  0  0  0  0  0
  144.1719  135.6738  150.4039 H   0  0  0  0  0  0  0  0  0  0  0  0
  147.0839  134.6360  152.5952 H   0  0  0  0  0  0  0  0  0  0  0  0
  143.0768  137.8161  157.1956 H   0  0  0  0  0  0  0  0  0  0  0  0
  143.5707  136.8906  158.6086 H   0  0  0  0  0  0  0  0  0  0  0  0
  142.2538  136.2996  157.5908 H   0  0  0  0  0  0  0  0  0  0  0  0
  144.0775  134.1609  157.6030 H   0  0  0  0  0  0  0  0  0  0  0  0
  145.5250  134.4639  156.6927 H   0  0  0  0  0  0  0  0  0  0  0  0
  144.8804  135.7838  159.3933 H   0  0  0  0  0  0  0  0  0  0  0  0
  145.2696  133.4107  159.8616 H   0  0  0  0  0  0  0  0  0  0  0  0
  146.6378  133.3881  158.7658 H   0  0  0  0  0  0  0  0  0  0  0  0
  146.4690  134.7534  161.4712 H   0  0  0  0  0  0  0  0  0  0  0  0
  147.7686  133.7216  160.8492 H   0  0  0  0  0  0  0  0  0  0  0  0
  147.3162  135.9109  157.6007 H   0  0  0  0  0  0  0  0  0  0  0  0
  146.4644  137.2451  158.3935 H   0  0  0  0  0  0  0  0  0  0  0  0
  141.0367  136.5068  153.7767 H   0  0  0  0  0  0  0  0  0  0  0  0
  1  2  1  0  0  0  0
  1 28  1  0  0  0  0
  1 29  1  0  0  0  0
  1 30  1  0  0  0  0
  2  6  1  0  0  0  0
  2  3  1  0  0  0  0
  2 31  1  0  0  0  0
  3  4  1  0  0  0  0
  4  5  1  0  0  0  0
  4 32  1  0  0  0  0
  4 33  1  0  0  0  0
  5  6  1  0  0  0  0
  5 34  1  0  0  0  0
  5 35  1  0  0  0  0
  6  7  1  0  0  0  0
  6  8  1  0  0  0  0
  7 36  1  0  0  0  0
  8  9  1  0  0  0  0
  8 37  1  0  0  0  0
  8 38  1  0  0  0  0
  9 27  1  0  0  0  0
  9 10  1  0  0  0  0
 10 11  2  0  0  0  0
 10 39  1  0  0  0  0
 11 12  1  0  0  0  0
 12 27  2  0  0  0  0
 12 13  1  0  0  0  0
 13 14  1  0  0  0  0
 13 24  2  0  0  0  0
 14 15  1  0  0  0  0
 14 16  1  0  0  0  0
 15 40  1  0  0  0  0
 15 41  1  0  0  0  0
 15 42  1  0  0  0  0
 16 17  1  0  0  0  0
 16 43  1  0  0  0  0
 16 44  1  0  0  0  0
 17 23  1  0  0  0  0
 17 18  1  0  0  0  0
 17 45  1  0  0  0  0
 18 19  1  0  0  0  0
 18 46  1  0  0  0  0
 18 47  1  0  0  0  0
 19 20  1  0  0  0  0
 19 48  1  0  0  0  0
 19 49  1  0  0  0  0
 20 21  2  0  0  0  0
 20 22  2  0  0  0  0
 20 23  1  0  0  0  0
 23 50  1  0  0  0  0
 23 51  1  0  0  0  0
 24 25  1  0  0  0  0
 25 26  2  0  0  0  0
 25 52  1  0  0  0  0
 26 27  1  0  0  0  0
M  END
> <s_m_source_file>
AV-unprocessed.smi

> <i_m_source_file_index>
266

> <i_lp_mmshare_version>
43012

> <i_f3d_flags>
0

> <s_epik_input>
W0NIMl0xW0NIMl1PW0NAQEhdKFtDSDNdKVtDQEBdMShbT0hdKVtDSDJdbihbY0hdbjIpYyhjMjMpbltjSF1uYzNOKFtDSDNdKVtDSDJdW0NAQEhdKFtDSDJdNClbQ0gyXVtDSDJdUzQoPU8pPU8=

> <s_epik_cmdline>
J2VwaWtfcHl0aG9uJywgJy1waCcsICc3LjAnLCAnLXRuJywgJzgnLCAnLW1hJywgJzIwMCcsICctbWV0YWxfYmluZGluZycsICctaW1hZScsICc8aW5maWxlLm1hZT4nLCAnLW9tYWUnLCAnPG91dGZpbGUubWFlPic=

> <r_lp_tautomer_probability>
1

> <r_epik_Ionization_Penalty>
0.00155497

> <r_epik_Ionization_Penalty_Charging>
0

> <r_epik_Ionization_Penalty_Neutral>
0.00155497

> <r_epik_State_Penalty>
-0

> <r_epik_Charging_Adjusted_Penalty>
0

> <i_epik_Tot_Q>
0

> <i_epik_Tot_abs_Q>
0

> <r_epik_Metal_State_Penalty>
-0

> <b_epik_Metal_Only>
0

> <s_lp_Force_Field>
OPLS_2005

> <r_lp_Energy>
32.6677

> <b_lp_Chiralities_Consistent>
1

> <s_lp_Variant>
AV-unprocessed.smi:266-7

> <Gold.Version>
5.8.1

> <Gold.Id.Protein>
6NUR|6NUR_protein|mol2

> <Gold.PLP.Fitness>
45.2862

> <Gold.PLP.PLP>
-32.7104

> <Gold.PLP.part.hbond>
-5.0777

> <Gold.PLP.part.metal>
0.0000

> <Gold.PLP.part.buried>
-4.8563

> <Gold.PLP.part.nonpolar>
-21.0870

> <Gold.PLP.part.repulsive>
0.3882

> <Gold.PLP.ligand.clash>
0.0000

> <Gold.PLP.ligand.torsion>
1.1774

> <Gold.PLP.Chemscore.Hbond>
3.7687

> <Gold.PLP.Chemscore.CHOScore>
1.0000

> <Gold.PLP.Chemscore.Metal>
0.0000

> <Gold.Chemscore.Hbonds>
donor molecule, donor type, donor heavy atom, donor atom, acceptor molecule, acceptor atom, score
      L1  H     7    36       P1  7921  1.00
      P1  H  6896  6907       L1    22  1.00
      P1  H  6931  6943       L1    21  0.79
      P1  H  6934  6947       L1    21  0.94
      L1  C    10    39       P1  7948  0.90

> <Gold.PLP.Chemscore.Internal.Correction>
0.6244

> <Gold.Rescore>
     Score         DG    S(hbond)    S(metal)    S(lipo)     H(rot)  DE(clash)    DE(int)     intcor
     15.45     -17.89       3.73        0.00      59.95       2.76       0.13       2.31       ----

> <Gold.Chemscore.Fitness>
15.4499

> <Gold.Chemscore.DG>
-17.8867

> <Gold.Chemscore.ZeroCoef>
-5.4800

> <Gold.Chemscore.Hbond>
3.7328

> <Gold.Chemscore.Metal>
0.0000

> <Gold.Chemscore.Lipo>
59.9508

> <Gold.Chemscore.Internal_Hbond>
0.0000

> <Gold.Chemscore.DEClash>
0.1305

> <Gold.Chemscore.DEInternal>
2.3064

> <Gold.Chemscore.Rot>
2.7637

> <Gold.Chemscore.Internal.Correction>
   9.000000E+99

> <Gold.Chemscore.Hbonds>
donor molecule, donor type, donor heavy atom, donor atom, acceptor molecule, acceptor atom, score
      L1  H     7    36       P1  7921  0.93
      P1  H  6896  6907       L1    22  0.98
      P1  H  6931  6943       L1    21  0.75
      P1  H  6934  6947       L1    21  0.88

> <Gold.Chemscore.Hbond.Weighted>
-12.4675

> <Gold.Chemscore.Metal.Weighted>
-0.0000

> <Gold.Chemscore.Lipo.Weighted>
-7.0142

> <Gold.Chemscore.Internal_Hbond.Weighted>
0.0000

> <Gold.Chemscore.DEClash.Weighted>
0.1305

> <Gold.Chemscore.DEInternal.Weighted>
2.3064

> <Gold.Chemscore.Rot.Weighted>
7.0750

> <Gold.Chemscore.Internal.Correction.Weighted>
   9.000000E+99

> <Gold.Protein.RotatedTorsions>
[ 6907 6896 6895 6894 ] final  -74.95 input  -60.11 | X-H torsion
[ 7974 7965 7964 7962 ] final  132.79 input  175.53 | X-H torsion
[ 8008 7997 7996 7995 ] final  -33.25 input   59.86 | X-H torsion
[ 10167 10162 10161 10158 ] final  -16.17 input  -65.29 | X-H torsion
[ 10718 10713 10712 10709 ] final   46.52 input   66.30 | X-H torsion
[ 10763 10752 10751 10750 ] final  146.37 input  -60.55 | X-H torsion
[ 11005 11000 10999 10996 ] final -169.76 input  -57.11 | X-H torsion

> <Gold.Protein.ActiveResidues>
 VAL166  LYS551  ARG553  GLY616  TRP617  ASP618  TYR619  PRO620  LYS621  CYS622 
 ASP623  PHE694  ASN695  SER759  ASP760  ASP761  ALA762  ILE779  LEU786  VAL792 
 PHE793  MET794  SER795  GLU796  ALA797  LYS798  CYS799  TRP800  GLU811  SER814 

> <Gold.Protein.RotatedAtoms>
  150.7075  134.4793  159.5462 H   0  0  0  0  0  0  0  0  0  0  0  0  # atno 6907 bound_to 6896
  152.2433  134.8203  160.0466 H   0  0  0  0  0  0  0  0  0  0  0  0  # atno 6908 bound_to 6896
  151.8977  133.3495  159.3857 H   0  0  0  0  0  0  0  0  0  0  0  0  # atno 6909 bound_to 6896
  144.9932  139.4385  143.5329 H   0  0  0  0  0  0  0  0  0  0  0  0  # atno 7974 bound_to 7965
  154.4154  140.1715  156.1859 H   0  0  0  0  0  0  0  0  0  0  0  0  # atno 8008 bound_to 7997
  155.9644  140.3391  155.6495 H   0  0  0  0  0  0  0  0  0  0  0  0  # atno 8009 bound_to 7997
  155.6707  140.0711  157.2512 H   0  0  0  0  0  0  0  0  0  0  0  0  # atno 8010 bound_to 7997
  140.7230  143.5144  150.9710 H   0  0  0  0  0  0  0  0  0  0  0  0  # atno 10167 bound_to 10162
  157.4490  130.8127  149.7769 H   0  0  0  0  0  0  0  0  0  0  0  0  # atno 10718 bound_to 10713
  154.0208  135.2906  155.3381 H   0  0  0  0  0  0  0  0  0  0  0  0  # atno 10763 bound_to 10752
  154.7047  135.5174  153.8581 H   0  0  0  0  0  0  0  0  0  0  0  0  # atno 10764 bound_to 10752
  153.0682  135.6638  154.0430 H   0  0  0  0  0  0  0  0  0  0  0  0  # atno 10765 bound_to 10752
  140.5271  134.5652  157.5064 H   0  0  0  0  0  0  0  0  0  0  0  0  # atno 11005 bound_to 11000
  146.3436  139.9276  142.8758 LP  0  0  0  0  0  0  0  0  0  0  0  0  # atno 17320 bound_to 7965
  145.2256  140.9953  143.4020 LP  0  0  0  0  0  0  0  0  0  0  0  0  # atno 17321 bound_to 7965
  139.8859  143.7014  152.3151 LP  0  0  0  0  0  0  0  0  0  0  0  0  # atno 17342 bound_to 10162
  139.7313  144.7582  151.0798 LP  0  0  0  0  0  0  0  0  0  0  0  0  # atno 17343 bound_to 10162
  155.9979  130.3897  150.2722 LP  0  0  0  0  0  0  0  0  0  0  0  0  # atno 17370 bound_to 10713
  157.0892  131.0165  151.3128 LP  0  0  0  0  0  0  0  0  0  0  0  0  # atno 17371 bound_to 10713
  139.9574  134.7511  156.0311 LP  0  0  0  0  0  0  0  0  0  0  0  0  # atno 17394 bound_to 11000
  141.1302  133.6588  156.3444 LP  0  0  0  0  0  0  0  0  0  0  0  0  # atno 17395 bound_to 11000

$$$$
