AV-unprocessed.smi:955|AV-procd|sdf|4259|dock7
  -GOLD-   22720 2163D 1   1.00000     0.00000
 Structure written by MMmdl.
 29 29  0  0  0  0  0  0  0  0  1 V2000
  153.6650  138.7362  155.0061 C   0  0  0  0  0  0  0  0  0  0  0  0
  152.1807  139.1038  154.8455 C   0  0  2  0  0  0  0  0  0  0  0  0
  151.7052  139.6159  156.1287 N   0  0  0  0  0  0  0  0  0  0  0  0
  151.1946  140.8405  156.3402 C   0  0  0  0  0  0  0  0  0  0  0  0
  151.0789  141.6795  155.4456 O   0  0  0  0  0  0  0  0  0  0  0  0
  150.7346  141.1485  157.7770 C   0  0  2  0  0  0  0  0  0  0  0  0
  149.2017  141.2526  157.9138 C   0  0  0  0  0  0  0  0  0  0  0  0
  151.4060  142.3354  158.2974 N   0  0  0  0  0  0  0  0  0  0  0  0
  151.3390  143.6277  157.8167 C   0  0  0  0  0  0  0  0  0  0  0  0
  152.0985  144.4114  158.6369 C   0  0  0  0  0  0  0  0  0  0  0  0
  152.5930  143.5005  159.6111 C   0  0  0  0  0  0  0  0  0  0  0  0
  152.1730  142.2622  159.4104 N   0  0  0  0  0  0  0  0  0  0  0  0
  151.4158  137.8275  154.4591 C   0  0  0  0  0  0  0  0  0  0  0  0
  150.5510  137.9279  153.4472 N   0  0  0  0  0  0  0  0  0  0  0  0
  151.6110  136.7651  155.0487 O   0  0  0  0  0  0  0  0  0  0  0  0
  154.0809  138.3474  154.0757 H   0  0  0  0  0  0  0  0  0  0  0  0
  153.8172  137.9823  155.7803 H   0  0  0  0  0  0  0  0  0  0  0  0
  154.2530  139.6125  155.2812 H   0  0  0  0  0  0  0  0  0  0  0  0
  152.0715  139.8637  154.0690 H   0  0  0  0  0  0  0  0  0  0  0  0
  151.7568  138.9844  156.9147 H   0  0  0  0  0  0  0  0  0  0  0  0
  151.0552  140.3051  158.3906 H   0  0  0  0  0  0  0  0  0  0  0  0
  148.7142  140.3281  157.6028 H   0  0  0  0  0  0  0  0  0  0  0  0
  148.7921  142.0625  157.3088 H   0  0  0  0  0  0  0  0  0  0  0  0
  148.9162  141.4374  158.9496 H   0  0  0  0  0  0  0  0  0  0  0  0
  150.7607  143.8802  156.9399 H   0  0  0  0  0  0  0  0  0  0  0  0
  152.2716  145.4741  158.5555 H   0  0  0  0  0  0  0  0  0  0  0  0
  153.2371  143.7014  160.4544 H   0  0  0  0  0  0  0  0  0  0  0  0
  150.0260  137.1180  153.1508 H   0  0  0  0  0  0  0  0  0  0  0  0
  150.4285  138.8140  152.9792 H   0  0  0  0  0  0  0  0  0  0  0  0
  1  2  1  0  0  0  0
  1 16  1  0  0  0  0
  1 17  1  0  0  0  0
  1 18  1  0  0  0  0
  2  3  1  0  0  0  0
  2 13  1  0  0  0  0
  2 19  1  0  0  0  0
  3  4  1  0  0  0  0
  3 20  1  0  0  0  0
  4  5  2  0  0  0  0
  4  6  1  0  0  0  0
  6  7  1  0  0  0  0
  6  8  1  0  0  0  0
  6 21  1  0  0  0  0
  7 22  1  0  0  0  0
  7 23  1  0  0  0  0
  7 24  1  0  0  0  0
  8 12  1  0  0  0  0
  8  9  1  0  0  0  0
  9 10  2  0  0  0  0
  9 25  1  0  0  0  0
 10 11  1  0  0  0  0
 10 26  1  0  0  0  0
 11 12  2  0  0  0  0
 11 27  1  0  0  0  0
 13 14  1  0  0  0  0
 13 15  2  0  0  0  0
 14 28  1  0  0  0  0
 14 29  1  0  0  0  0
M  END
> <s_m_source_file>
AV-unprocessed.smi

> <i_m_source_file_index>
955

> <i_lp_mmshare_version>
43012

> <i_f3d_flags>
0

> <s_epik_input>
W05IMl1DKD1PKVtDQEhdKFtDSDNdKVtOSF1DKD1PKVtDQEhdKFtDSDNdKW4xW2NIXVtjSF1bY0hdbjE=

> <s_epik_cmdline>
J2VwaWtfcHl0aG9uJywgJy1waCcsICc3LjAnLCAnLXRuJywgJzgnLCAnLW1hJywgJzIwMCcsICctbWV0YWxfYmluZGluZycsICctaW1hZScsICc8aW5maWxlLm1hZT4nLCAnLW9tYWUnLCAnPG91dGZpbGUubWFlPic=

> <r_lp_tautomer_probability>
1

> <r_epik_Ionization_Penalty>
2.8146e-05

> <r_epik_Ionization_Penalty_Charging>
0

> <r_epik_Ionization_Penalty_Neutral>
2.8146e-05

> <r_epik_State_Penalty>
-0

> <r_epik_Charging_Adjusted_Penalty>
0

> <i_epik_Tot_Q>
0

> <i_epik_Tot_abs_Q>
0

> <r_epik_Metal_State_Penalty>
-0

> <b_epik_Metal_Only>
0

> <s_lp_Force_Field>
OPLS_2005

> <r_lp_Energy>
4.37159

> <b_lp_Chiralities_Consistent>
1

> <s_lp_Variant>
AV-unprocessed.smi:955-1

> <Gold.Version>
5.8.1

> <Gold.Id.Protein>
6NUR|6NUR_protein|mol2

> <Gold.PLP.Fitness>
41.0572

> <Gold.PLP.PLP>
-29.7384

> <Gold.PLP.part.hbond>
-5.0000

> <Gold.PLP.part.metal>
0.0000

> <Gold.PLP.part.buried>
3.1329

> <Gold.PLP.part.nonpolar>
-27.6080

> <Gold.PLP.part.repulsive>
0.4714

> <Gold.PLP.ligand.clash>
0.0000

> <Gold.PLP.ligand.torsion>
0.4354

> <Gold.PLP.Chemscore.Hbond>
3.0238

> <Gold.PLP.Chemscore.CHOScore>
1.0000

> <Gold.PLP.Chemscore.Metal>
0.0000

> <Gold.Chemscore.Hbonds>
donor molecule, donor type, donor heavy atom, donor atom, acceptor molecule, acceptor atom, score
      L1  H    14    28       P1  7948  0.84
      L1  H    14    29       P1  7957  0.27
      P1  H  7989  7998       L1     5  0.23
      P1  H 10752 10765       L1    15  1.00
      L1  C     9    25       P1  8028  1.00

> <Gold.PLP.Chemscore.Internal.Correction>
0.1182

> <Gold.Rescore>
     Score         DG    S(hbond)    S(metal)    S(lipo)     H(rot)  DE(clash)    DE(int)     intcor
     13.04     -15.99       2.61        0.00      65.68       2.30       2.08       0.87       ----

> <Gold.Chemscore.Fitness>
13.0415

> <Gold.Chemscore.DG>
-15.9881

> <Gold.Chemscore.ZeroCoef>
-5.4800

> <Gold.Chemscore.Hbond>
2.6062

> <Gold.Chemscore.Metal>
0.0000

> <Gold.Chemscore.Lipo>
65.6779

> <Gold.Chemscore.Internal_Hbond>
0.0000

> <Gold.Chemscore.DEClash>
2.0811

> <Gold.Chemscore.DEInternal>
0.8655

> <Gold.Chemscore.Rot>
2.2972

> <Gold.Chemscore.Internal.Correction>
   9.000000E+99

> <Gold.Chemscore.Hbonds>
donor molecule, donor type, donor heavy atom, donor atom, acceptor molecule, acceptor atom, score
      L1  H    14    28       P1  7948  0.14
      L1  H    14    29       P1  7957  0.11
      P1  H  7989  7998       L1     5  0.20
      P1  H 10752 10765       L1    15  0.98

> <Gold.Chemscore.Hbond.Weighted>
-8.7047

> <Gold.Chemscore.Metal.Weighted>
-0.0000

> <Gold.Chemscore.Lipo.Weighted>
-7.6843

> <Gold.Chemscore.Internal_Hbond.Weighted>
0.0000

> <Gold.Chemscore.DEClash.Weighted>
2.0811

> <Gold.Chemscore.DEInternal.Weighted>
0.8655

> <Gold.Chemscore.Rot.Weighted>
5.8809

> <Gold.Chemscore.Internal.Correction.Weighted>
   9.000000E+99

> <Gold.Protein.RotatedTorsions>
[ 6907 6896 6895 6894 ] final  130.27 input  -60.11 | X-H torsion
[ 7974 7965 7964 7962 ] final   70.28 input  175.53 | X-H torsion
[ 8008 7997 7996 7995 ] final  112.55 input   59.86 | X-H torsion
[ 10167 10162 10161 10158 ] final  146.36 input  -65.29 | X-H torsion
[ 10718 10713 10712 10709 ] final   97.92 input   66.30 | X-H torsion
[ 10763 10752 10751 10750 ] final  176.02 input  -60.55 | X-H torsion
[ 11005 11000 10999 10996 ] final   37.99 input  -57.11 | X-H torsion

> <Gold.Protein.ActiveResidues>
 VAL166  LYS551  ARG553  GLY616  TRP617  ASP618  TYR619  PRO620  LYS621  CYS622 
 ASP623  PHE694  ASN695  SER759  ASP760  ASP761  ALA762  ILE779  LEU786  VAL792 
 PHE793  MET794  SER795  GLU796  ALA797  LYS798  CYS799  TRP800  GLU811  SER814 

> <Gold.Protein.RotatedAtoms>
  152.3542  133.6217  159.5967 H   0  0  0  0  0  0  0  0  0  0  0  0  # atno 6907 bound_to 6896
  150.7558  133.9526  159.3499 H   0  0  0  0  0  0  0  0  0  0  0  0  # atno 6908 bound_to 6896
  151.7373  135.0863  160.0361 H   0  0  0  0  0  0  0  0  0  0  0  0  # atno 6909 bound_to 6896
  145.7801  139.2883  143.1271 H   0  0  0  0  0  0  0  0  0  0  0  0  # atno 7974 bound_to 7965
  156.2199  140.2997  155.9928 H   0  0  0  0  0  0  0  0  0  0  0  0  # atno 8008 bound_to 7997
  155.2508  140.0426  157.3003 H   0  0  0  0  0  0  0  0  0  0  0  0  # atno 8009 bound_to 7997
  154.5825  140.2379  155.8042 H   0  0  0  0  0  0  0  0  0  0  0  0  # atno 8010 bound_to 7997
  139.4908  144.5835  151.6825 H   0  0  0  0  0  0  0  0  0  0  0  0  # atno 10167 bound_to 10162
  157.6904  131.0624  150.4718 H   0  0  0  0  0  0  0  0  0  0  0  0  # atno 10718 bound_to 10713
  154.4755  135.2773  155.1610 H   0  0  0  0  0  0  0  0  0  0  0  0  # atno 10763 bound_to 10752
  154.3342  135.6184  153.5569 H   0  0  0  0  0  0  0  0  0  0  0  0  # atno 10764 bound_to 10752
  152.9869  135.5773  154.5145 H   0  0  0  0  0  0  0  0  0  0  0  0  # atno 10765 bound_to 10752
  140.2171  134.3686  155.8022 H   0  0  0  0  0  0  0  0  0  0  0  0  # atno 11005 bound_to 11000
  146.0083  140.8458  142.9984 LP  0  0  0  0  0  0  0  0  0  0  0  0  # atno 17320 bound_to 7965
  144.6798  140.2453  143.7338 LP  0  0  0  0  0  0  0  0  0  0  0  0  # atno 17321 bound_to 7965
  140.5446  144.0524  150.6102 LP  0  0  0  0  0  0  0  0  0  0  0  0  # atno 17342 bound_to 10162
  140.3558  143.2937  152.0438 LP  0  0  0  0  0  0  0  0  0  0  0  0  # atno 17343 bound_to 10162
  156.5055  130.4127  149.6329 LP  0  0  0  0  0  0  0  0  0  0  0  0  # atno 17370 bound_to 10713
  156.3288  130.7320  151.2246 LP  0  0  0  0  0  0  0  0  0  0  0  0  # atno 17371 bound_to 10713
  141.2224  133.7173  156.8514 LP  0  0  0  0  0  0  0  0  0  0  0  0  # atno 17394 bound_to 11000
  140.1889  134.8980  157.3037 LP  0  0  0  0  0  0  0  0  0  0  0  0  # atno 17395 bound_to 11000

$$$$
