AV-unprocessed.smi:2089|AV-procd|sdf|8531|dock6
  -GOLD-   2272011253D 1   1.00000     0.00000
 Structure written by MMmdl.
 40 41  0  0  0  0  0  0  0  0  2 V2000
  152.6135  137.8582  156.6159 C   0  0  0  0  0  0  0  0  0  0  0  0
  152.1111  138.4651  154.9539 S   0  0  0  0  0  0  0  0  0  0  0  0
  152.9568  139.6084  154.5784 O   0  0  0  0  0  0  0  0  0  0  0  0
  152.0073  137.3046  154.0560 O   0  0  0  0  0  0  0  0  0  0  0  0
  150.5094  139.0632  155.2343 N   0  0  0  0  0  0  0  0  0  0  0  0
  150.3096  140.5175  155.3053 C   0  0  0  0  0  0  0  0  0  0  0  0
  149.2209  140.8340  154.2845 C   0  0  0  0  0  0  0  0  0  0  0  0
  148.3690  139.5743  154.2898 C   0  0  0  0  0  0  0  0  0  0  0  0
  149.3962  138.4484  154.4903 C   0  0  2  0  0  0  0  0  0  0  0  0
  148.8034  137.2155  155.1831 C   0  0  0  0  0  0  0  0  0  0  0  0
  148.8684  137.0961  156.4069 O   0  0  0  0  0  0  0  0  0  0  0  0
  148.2507  136.2894  154.3865 N   0  0  0  0  0  0  0  0  0  0  0  0
  147.6899  135.0320  154.8592 C   0  0  0  0  0  0  0  0  0  0  0  0
  148.0998  133.8739  153.9397 C   0  0  0  0  0  0  0  0  0  0  0  0
  147.0172  133.5324  152.9340 C   0  0  0  0  0  0  0  0  0  0  0  0
  146.3883  132.2685  152.9053 C   0  0  0  0  0  0  0  0  0  0  0  0
  145.3951  132.0155  151.9361 C   0  0  0  0  0  0  0  0  0  0  0  0
  145.0536  133.0285  151.0163 C   0  0  0  0  0  0  0  0  0  0  0  0
  145.7148  134.2714  151.0889 C   0  0  0  0  0  0  0  0  0  0  0  0
  146.6605  134.4757  152.0322 N   0  3  0  0  0  0  0  0  0  0  0  0
  153.6143  137.4308  156.5578 H   0  0  0  0  0  0  0  0  0  0  0  0
  151.9129  137.0934  156.9501 H   0  0  0  0  0  0  0  0  0  0  0  0
  152.6158  138.6840  157.3266 H   0  0  0  0  0  0  0  0  0  0  0  0
  149.9815  140.7755  156.3127 H   0  0  0  0  0  0  0  0  0  0  0  0
  151.2298  141.0644  155.0983 H   0  0  0  0  0  0  0  0  0  0  0  0
  148.6541  141.7314  154.5333 H   0  0  0  0  0  0  0  0  0  0  0  0
  149.6663  140.9773  153.2989 H   0  0  0  0  0  0  0  0  0  0  0  0
  147.6545  139.6211  155.1134 H   0  0  0  0  0  0  0  0  0  0  0  0
  147.8034  139.4599  153.3647 H   0  0  0  0  0  0  0  0  0  0  0  0
  149.7745  138.1636  153.5065 H   0  0  0  0  0  0  0  0  0  0  0  0
  148.2459  136.4561  153.3905 H   0  0  0  0  0  0  0  0  0  0  0  0
  148.0392  134.8467  155.8761 H   0  0  0  0  0  0  0  0  0  0  0  0
  146.6022  135.1106  154.8997 H   0  0  0  0  0  0  0  0  0  0  0  0
  149.0170  134.1271  153.4058 H   0  0  0  0  0  0  0  0  0  0  0  0
  148.3230  132.9852  154.5322 H   0  0  0  0  0  0  0  0  0  0  0  0
  146.6629  131.5005  153.6140 H   0  0  0  0  0  0  0  0  0  0  0  0
  144.9017  131.0553  151.8979 H   0  0  0  0  0  0  0  0  0  0  0  0
  144.2964  132.8541  150.2657 H   0  0  0  0  0  0  0  0  0  0  0  0
  145.5179  135.1015  150.4259 H   0  0  0  0  0  0  0  0  0  0  0  0
  147.1274  135.3826  152.0658 H   0  0  0  0  0  0  0  0  0  0  0  0
  1  2  1  0  0  0  0
  1 21  1  0  0  0  0
  1 22  1  0  0  0  0
  1 23  1  0  0  0  0
  2  3  2  0  0  0  0
  2  4  2  0  0  0  0
  2  5  1  0  0  0  0
  5  9  1  0  0  0  0
  5  6  1  0  0  0  0
  6  7  1  0  0  0  0
  6 24  1  0  0  0  0
  6 25  1  0  0  0  0
  7  8  1  0  0  0  0
  7 26  1  0  0  0  0
  7 27  1  0  0  0  0
  8  9  1  0  0  0  0
  8 28  1  0  0  0  0
  8 29  1  0  0  0  0
  9 10  1  0  0  0  0
  9 30  1  0  0  0  0
 10 11  2  0  0  0  0
 10 12  1  0  0  0  0
 12 13  1  0  0  0  0
 12 31  1  0  0  0  0
 13 14  1  0  0  0  0
 13 32  1  0  0  0  0
 13 33  1  0  0  0  0
 14 15  1  0  0  0  0
 14 34  1  0  0  0  0
 14 35  1  0  0  0  0
 15 20  1  0  0  0  0
 15 16  2  0  0  0  0
 16 17  1  0  0  0  0
 16 36  1  0  0  0  0
 17 18  2  0  0  0  0
 17 37  1  0  0  0  0
 18 19  1  0  0  0  0
 18 38  1  0  0  0  0
 19 20  2  0  0  0  0
 19 39  1  0  0  0  0
 20 40  1  0  0  0  0
M  CHG  1  20   1
M  END
> <s_m_source_file>
AV-unprocessed.smi

> <i_m_source_file_index>
2089

> <i_lp_mmshare_version>
43012

> <i_f3d_flags>
0

> <s_epik_input>
W0NIM11TKD1PKSg9TylOMVtDSDJdW0NIMl1bQ0gyXVtDQEhdMUMoPU8pW05IXVtDSDJdW0NIMl1jMltjSF1bY0hdW2NIXVtjSF1uMg==

> <s_epik_cmdline>
J2VwaWtfcHl0aG9uJywgJy1waCcsICc3LjAnLCAnLXRuJywgJzgnLCAnLW1hJywgJzIwMCcsICctbWV0YWxfYmluZGluZycsICctaW1hZScsICc8aW5maWxlLm1hZT4nLCAnLW9tYWUnLCAnPG91dGZpbGUubWFlPic=

> <r_epik_Ionization_Penalty>
1.90116

> <r_epik_Ionization_Penalty_Charging>
1.90116

> <r_epik_Ionization_Penalty_Neutral>
1.4017e-07

> <r_epik_State_Penalty>
2.02245

> <r_epik_Charging_Adjusted_Penalty>
3.9236

> <i_epik_Tot_Q>
1

> <i_epik_Tot_abs_Q>
1

> <r_epik_Metal_State_Penalty>
2.04621

> <b_epik_Metal_Only>
0

> <s_lp_Force_Field>
OPLS_2005

> <r_lp_Energy>
13.4041

> <b_lp_Chiralities_Consistent>
1

> <s_lp_Variant>
AV-unprocessed.smi:2089-4

> <Gold.Version>
5.8.1

> <Gold.Id.Protein>
6NUR|6NUR_protein|mol2

> <Gold.PLP.Fitness>
45.4945

> <Gold.PLP.PLP>
-32.1761

> <Gold.PLP.part.hbond>
-5.0000

> <Gold.PLP.part.metal>
0.0000

> <Gold.PLP.part.buried>
-0.7266

> <Gold.PLP.part.nonpolar>
-25.5085

> <Gold.PLP.part.repulsive>
0.3075

> <Gold.PLP.ligand.clash>
0.0000

> <Gold.PLP.ligand.torsion>
1.4571

> <Gold.PLP.Chemscore.Hbond>
5.2480

> <Gold.PLP.Chemscore.CHOScore>
0.0000

> <Gold.PLP.Chemscore.Metal>
0.0000

> <Gold.Chemscore.Hbonds>
donor molecule, donor type, donor heavy atom, donor atom, acceptor molecule, acceptor atom, score
      L1  H    12    31       P1  7948  0.98
      L1  H    20    40       P1  7948  1.60
      P1  H  7989  7998       L1     3  0.34
      P1  H  7997  8008       L1     3  0.93
      P1  H 10752 10764       L1     4  0.98

> <Gold.PLP.Chemscore.Internal.Correction>
0.4886

> <Gold.Rescore>
     Score         DG    S(hbond)    S(metal)    S(lipo)     H(rot)  DE(clash)    DE(int)     intcor
     19.36     -20.88       3.89        0.00      64.44       2.00       0.07       1.45       ----

> <Gold.Chemscore.Fitness>
19.3619

> <Gold.Chemscore.DG>
-20.8842

> <Gold.Chemscore.ZeroCoef>
-5.4800

> <Gold.Chemscore.Hbond>
3.8911

> <Gold.Chemscore.Metal>
0.0000

> <Gold.Chemscore.Lipo>
64.4359

> <Gold.Chemscore.Internal_Hbond>
0.0000

> <Gold.Chemscore.DEClash>
0.0721

> <Gold.Chemscore.DEInternal>
1.4502

> <Gold.Chemscore.Rot>
2.0043

> <Gold.Chemscore.Internal.Correction>
   9.000000E+99

> <Gold.Chemscore.Hbonds>
donor molecule, donor type, donor heavy atom, donor atom, acceptor molecule, acceptor atom, score
      L1  H    12    31       P1  7948  0.93
      L1  H    20    40       P1  7948  0.77
      P1  H  7989  7998       L1     3  0.16
      P1  H  7997  8008       L1     3  0.88
      P1  H 10752 10764       L1     4  0.93

> <Gold.Chemscore.Hbond.Weighted>
-12.9961

> <Gold.Chemscore.Metal.Weighted>
-0.0000

> <Gold.Chemscore.Lipo.Weighted>
-7.5390

> <Gold.Chemscore.Internal_Hbond.Weighted>
0.0000

> <Gold.Chemscore.DEClash.Weighted>
0.0721

> <Gold.Chemscore.DEInternal.Weighted>
1.4502

> <Gold.Chemscore.Rot.Weighted>
5.1309

> <Gold.Chemscore.Internal.Correction.Weighted>
   9.000000E+99

> <Gold.Protein.RotatedTorsions>
[ 6907 6896 6895 6894 ] final   21.83 input  -60.11 | X-H torsion
[ 7974 7965 7964 7962 ] final   58.79 input  175.53 | X-H torsion
[ 8008 7997 7996 7995 ] final   -6.92 input   59.86 | X-H torsion
[ 10167 10162 10161 10158 ] final  139.77 input  -65.29 | X-H torsion
[ 10718 10713 10712 10709 ] final  -73.11 input   66.30 | X-H torsion
[ 10763 10752 10751 10750 ] final  -85.04 input  -60.55 | X-H torsion
[ 11005 11000 10999 10996 ] final -150.23 input  -57.11 | X-H torsion

> <Gold.Protein.ActiveResidues>
 VAL166  LYS551  ARG553  GLY616  TRP617  ASP618  TYR619  PRO620  LYS621  CYS622 
 ASP623  PHE694  ASN695  SER759  ASP760  ASP761  ALA762  ILE779  LEU786  VAL792 
 PHE793  MET794  SER795  GLU796  ALA797  LYS798  CYS799  TRP800  GLU811  SER814 

> <Gold.Protein.RotatedAtoms>
  151.9178  135.0311  160.0519 H   0  0  0  0  0  0  0  0  0  0  0  0  # atno 6907 bound_to 6896
  152.2225  133.4990  159.5179 H   0  0  0  0  0  0  0  0  0  0  0  0  # atno 6908 bound_to 6896
  150.7003  134.1240  159.4088 H   0  0  0  0  0  0  0  0  0  0  0  0  # atno 6909 bound_to 6896
  145.9143  139.3678  143.0517 H   0  0  0  0  0  0  0  0  0  0  0  0  # atno 7974 bound_to 7965
  154.5890  140.2420  155.7947 H   0  0  0  0  0  0  0  0  0  0  0  0  # atno 8008 bound_to 7997
  156.2233  140.2990  155.9961 H   0  0  0  0  0  0  0  0  0  0  0  0  # atno 8009 bound_to 7997
  155.2408  140.0407  157.2965 H   0  0  0  0  0  0  0  0  0  0  0  0  # atno 8010 bound_to 7997
  139.5069  144.6275  151.5901 H   0  0  0  0  0  0  0  0  0  0  0  0  # atno 10167 bound_to 10162
  156.0293  130.4387  150.2693 H   0  0  0  0  0  0  0  0  0  0  0  0  # atno 10718 bound_to 10713
  154.6065  135.5499  153.7428 H   0  0  0  0  0  0  0  0  0  0  0  0  # atno 10763 bound_to 10752
  153.0176  135.6379  154.1640 H   0  0  0  0  0  0  0  0  0  0  0  0  # atno 10764 bound_to 10752
  154.1579  135.2899  155.3097 H   0  0  0  0  0  0  0  0  0  0  0  0  # atno 10765 bound_to 10752
  140.7423  134.3500  157.5144 H   0  0  0  0  0  0  0  0  0  0  0  0  # atno 11005 bound_to 11000
  145.8632  140.9463  143.0689 LP  0  0  0  0  0  0  0  0  0  0  0  0  # atno 17320 bound_to 7965
  144.6746  140.0557  143.7477 LP  0  0  0  0  0  0  0  0  0  0  0  0  # atno 17321 bound_to 7965
  140.5996  143.9633  150.6377 LP  0  0  0  0  0  0  0  0  0  0  0  0  # atno 17342 bound_to 10162
  140.2840  143.3369  152.1124 LP  0  0  0  0  0  0  0  0  0  0  0  0  # atno 17343 bound_to 10162
  157.0796  131.0139  151.3161 LP  0  0  0  0  0  0  0  0  0  0  0  0  # atno 17370 bound_to 10713
  157.4938  130.7838  149.7534 LP  0  0  0  0  0  0  0  0  0  0  0  0  # atno 17371 bound_to 10713
  139.8803  134.9089  156.2978 LP  0  0  0  0  0  0  0  0  0  0  0  0  # atno 17394 bound_to 11000
  140.9825  133.7258  156.0693 LP  0  0  0  0  0  0  0  0  0  0  0  0  # atno 17395 bound_to 11000

$$$$
