AV-unprocessed.smi:524|AV-procd|sdf|2805|dock3
  -GOLD-   2262023283D 1   1.00000     0.00000
 Structure written by MMmdl.
 43 45  0  0  0  0  0  0  0  0  1 V2000
  144.7063  137.8696  160.7124 C   0  0  0  0  0  0  0  0  0  0  0  0
  145.8729  137.8937  159.9097 O   0  0  0  0  0  0  0  0  0  0  0  0
  145.8664  136.8859  158.9118 C   0  0  0  0  0  0  0  0  0  0  0  0
  147.0076  137.1325  157.9152 C   0  0  0  0  0  0  0  0  0  0  0  0
  148.3069  137.1978  158.5818 N   0  0  0  0  0  0  0  0  0  0  0  0
  148.7030  136.5792  159.7291 C   0  0  0  0  0  0  0  0  0  0  0  0
  147.8440  135.7746  160.4803 N   0  0  0  0  0  0  0  0  0  0  0  0
  147.2766  134.4904  160.0665 C   0  0  0  0  0  0  0  0  0  0  0  0
  147.4737  133.4078  161.1433 C   0  0  0  0  0  0  0  0  0  0  0  0
  146.8424  133.8505  162.4704 C   0  0  0  0  0  0  0  0  0  0  0  0
  147.3496  135.2480  162.8532 C   0  0  0  0  0  0  0  0  0  0  0  0
  147.1600  136.2356  161.6879 C   0  0  0  0  0  0  0  0  0  0  0  0
  149.9878  136.7635  160.0458 N   0  0  0  0  0  0  0  0  0  0  0  0
  150.4458  137.5861  159.0297 C   0  0  0  0  0  0  0  0  0  0  0  0
  149.4592  137.8514  158.1366 C   0  0  0  0  0  0  0  0  0  0  0  0
  149.6918  138.6624  156.9323 C   0  0  0  0  0  0  0  0  0  0  0  0
  148.8241  138.9103  156.0985 O   0  0  0  0  0  0  0  0  0  0  0  0
  150.9684  139.1048  156.8276 N   0  0  0  0  0  0  0  0  0  0  0  0
  152.0036  138.8762  157.6920 C   0  0  0  0  0  0  0  0  0  0  0  0
  153.1163  139.3420  157.4481 O   0  0  0  0  0  0  0  0  0  0  0  0
  151.7452  138.1204  158.8079 N   0  0  0  0  0  0  0  0  0  0  0  0
  152.7869  137.8167  159.7914 C   0  0  0  0  0  0  0  0  0  0  0  0
  151.1819  139.6632  156.0140 H   0  0  0  0  0  0  0  0  0  0  0  0
  144.7639  138.6560  161.4649 H   0  0  0  0  0  0  0  0  0  0  0  0
  144.6032  136.9150  161.2298 H   0  0  0  0  0  0  0  0  0  0  0  0
  143.8119  138.0426  160.1125 H   0  0  0  0  0  0  0  0  0  0  0  0
  145.9825  135.9035  159.3714 H   0  0  0  0  0  0  0  0  0  0  0  0
  144.9093  136.8885  158.3882 H   0  0  0  0  0  0  0  0  0  0  0  0
  147.0208  136.3523  157.1575 H   0  0  0  0  0  0  0  0  0  0  0  0
  146.8264  138.0480  157.3601 H   0  0  0  0  0  0  0  0  0  0  0  0
  146.2110  134.6266  159.8762 H   0  0  0  0  0  0  0  0  0  0  0  0
  147.7025  134.1737  159.1154 H   0  0  0  0  0  0  0  0  0  0  0  0
  147.0304  132.4674  160.8148 H   0  0  0  0  0  0  0  0  0  0  0  0
  148.5371  133.2155  161.2883 H   0  0  0  0  0  0  0  0  0  0  0  0
  145.7568  133.8730  162.3681 H   0  0  0  0  0  0  0  0  0  0  0  0
  147.0690  133.1327  163.2592 H   0  0  0  0  0  0  0  0  0  0  0  0
  146.8234  135.6071  163.7380 H   0  0  0  0  0  0  0  0  0  0  0  0
  148.4061  135.1957  163.1194 H   0  0  0  0  0  0  0  0  0  0  0  0
  147.5474  137.2136  161.9760 H   0  0  0  0  0  0  0  0  0  0  0  0
  146.0993  136.3728  161.4732 H   0  0  0  0  0  0  0  0  0  0  0  0
  153.6866  138.4233  159.6808 H   0  0  0  0  0  0  0  0  0  0  0  0
  153.0784  136.7690  159.7111 H   0  0  0  0  0  0  0  0  0  0  0  0
  152.4128  137.9848  160.8021 H   0  0  0  0  0  0  0  0  0  0  0  0
  1  2  1  0  0  0  0
  1 24  1  0  0  0  0
  1 25  1  0  0  0  0
  1 26  1  0  0  0  0
  2  3  1  0  0  0  0
  3  4  1  0  0  0  0
  3 27  1  0  0  0  0
  3 28  1  0  0  0  0
  4  5  1  0  0  0  0
  4 29  1  0  0  0  0
  4 30  1  0  0  0  0
  5 15  1  0  0  0  0
  5  6  1  0  0  0  0
  6  7  1  0  0  0  0
  6 13  2  0  0  0  0
  7 12  1  0  0  0  0
  7  8  1  0  0  0  0
  8  9  1  0  0  0  0
  8 31  1  0  0  0  0
  8 32  1  0  0  0  0
  9 10  1  0  0  0  0
  9 33  1  0  0  0  0
  9 34  1  0  0  0  0
 10 11  1  0  0  0  0
 10 35  1  0  0  0  0
 10 36  1  0  0  0  0
 11 12  1  0  0  0  0
 11 37  1  0  0  0  0
 11 38  1  0  0  0  0
 12 39  1  0  0  0  0
 12 40  1  0  0  0  0
 13 14  1  0  0  0  0
 14 21  1  0  0  0  0
 14 15  2  0  0  0  0
 15 16  1  0  0  0  0
 16 17  2  0  0  0  0
 16 18  1  0  0  0  0
 18 23  1  0  0  0  0
 18 19  1  0  0  0  0
 19 20  2  0  0  0  0
 19 21  1  0  0  0  0
 21 22  1  0  0  0  0
 22 41  1  0  0  0  0
 22 42  1  0  0  0  0
 22 43  1  0  0  0  0
M  END
> <s_m_source_file>
AV-unprocessed.smi

> <i_m_source_file_index>
524

> <i_lp_mmshare_version>
43012

> <i_f3d_flags>
0

> <s_epik_input>
W0NIM11uMWMoPU8pW25IXWMoPU8pYyhjMTIpbihbQ0gyXVtDSDJdT1tDSDNdKWMobjIpTjNbQ0gyXVtDSDJdW0NIMl1bQ0gyXVtDSDJdMw==

> <s_epik_cmdline>
J2VwaWtfcHl0aG9uJywgJy1waCcsICc3LjAnLCAnLXRuJywgJzgnLCAnLW1hJywgJzIwMCcsICctbWV0YWxfYmluZGluZycsICctaW1hZScsICc8aW5maWxlLm1hZT4nLCAnLW9tYWUnLCAnPG91dGZpbGUubWFlPic=

> <r_lp_tautomer_probability>
1

> <r_epik_Ionization_Penalty>
0.000298119

> <r_epik_Ionization_Penalty_Charging>
0.000125384

> <r_epik_Ionization_Penalty_Neutral>
0.000172735

> <r_epik_State_Penalty>
-0

> <r_epik_Charging_Adjusted_Penalty>
0.000125384

> <i_epik_Tot_Q>
0

> <i_epik_Tot_abs_Q>
0

> <r_epik_Metal_State_Penalty>
0.0954001

> <b_epik_Metal_Only>
0

> <s_lp_Force_Field>
OPLS_2005

> <r_lp_Energy>
37.2528

> <b_lp_Chiralities_Consistent>
1

> <s_lp_Variant>
AV-unprocessed.smi:524-1

> <Gold.Version>
5.8.1

> <Gold.Id.Protein>
6NUR|6NUR_protein|mol2

> <Gold.PLP.Fitness>
38.2930

> <Gold.PLP.PLP>
-32.5955

> <Gold.PLP.part.hbond>
-3.8325

> <Gold.PLP.part.metal>
0.0000

> <Gold.PLP.part.buried>
-3.9416

> <Gold.PLP.part.nonpolar>
-26.0123

> <Gold.PLP.part.repulsive>
0.0394

> <Gold.PLP.ligand.clash>
0.0000

> <Gold.PLP.ligand.torsion>
1.7713

> <Gold.PLP.Chemscore.Hbond>
2.9120

> <Gold.PLP.Chemscore.CHOScore>
0.0000

> <Gold.PLP.Chemscore.Metal>
0.0000

> <Gold.Chemscore.Hbonds>
donor molecule, donor type, donor heavy atom, donor atom, acceptor molecule, acceptor atom, score
      P1  H  6896  6909       L1    13  1.00
      P1  H  6934  6947       L1     2  0.91
      P1  H  7997  8010       L1    20  1.00

> <Gold.PLP.Chemscore.Internal.Correction>
0.5041

> <Gold.Rescore>
     Score         DG    S(hbond)    S(metal)    S(lipo)     H(rot)  DE(clash)    DE(int)     intcor
     12.69     -15.84       2.79        0.00      41.36       1.48       0.01       3.15       ----

> <Gold.Chemscore.Fitness>
12.6852

> <Gold.Chemscore.DG>
-15.8401

> <Gold.Chemscore.ZeroCoef>
-5.4800

> <Gold.Chemscore.Hbond>
2.7897

> <Gold.Chemscore.Metal>
0.0000

> <Gold.Chemscore.Lipo>
41.3617

> <Gold.Chemscore.Internal_Hbond>
0.0000

> <Gold.Chemscore.DEClash>
0.0096

> <Gold.Chemscore.DEInternal>
3.1452

> <Gold.Chemscore.Rot>
1.4832

> <Gold.Chemscore.Internal.Correction>
   9.000000E+99

> <Gold.Chemscore.Hbonds>
donor molecule, donor type, donor heavy atom, donor atom, acceptor molecule, acceptor atom, score
      P1  H  6896  6909       L1    13  0.40
      P1  H  6934  6947       L1     2  0.43
      P1  H  7997  8010       L1    20  1.00

> <Gold.Chemscore.Hbond.Weighted>
-9.3177

> <Gold.Chemscore.Metal.Weighted>
-0.0000

> <Gold.Chemscore.Lipo.Weighted>
-4.8393

> <Gold.Chemscore.Internal_Hbond.Weighted>
0.0000

> <Gold.Chemscore.DEClash.Weighted>
0.0096

> <Gold.Chemscore.DEInternal.Weighted>
3.1452

> <Gold.Chemscore.Rot.Weighted>
3.7970

> <Gold.Chemscore.Internal.Correction.Weighted>
   9.000000E+99

> <Gold.Protein.RotatedTorsions>
[ 6907 6896 6895 6894 ] final   91.85 input  -60.11 | X-H torsion
[ 7974 7965 7964 7962 ] final  -34.06 input  175.53 | X-H torsion
[ 8008 7997 7996 7995 ] final   45.67 input   59.86 | X-H torsion
[ 10167 10162 10161 10158 ] final  121.86 input  -65.29 | X-H torsion
[ 10718 10713 10712 10709 ] final -139.48 input   66.30 | X-H torsion
[ 10763 10752 10751 10750 ] final  -70.65 input  -60.55 | X-H torsion
[ 11005 11000 10999 10996 ] final  -70.28 input  -57.11 | X-H torsion

> <Gold.Protein.ActiveResidues>
 VAL166  LYS551  ARG553  GLY616  TRP617  ASP618  TYR619  PRO620  LYS621  CYS622 
 ASP623  PHE694  ASN695  SER759  ASP760  ASP761  ALA762  ILE779  LEU786  VAL792 
 PHE793  MET794  SER795  GLU796  ALA797  LYS798  CYS799  TRP800  GLU811  SER814 

> <Gold.Protein.RotatedAtoms>
  152.5451  134.1593  159.8550 H   0  0  0  0  0  0  0  0  0  0  0  0  # atno 6907 bound_to 6896
  151.1612  133.4836  159.2602 H   0  0  0  0  0  0  0  0  0  0  0  0  # atno 6908 bound_to 6896
  151.1371  135.0171  159.8663 H   0  0  0  0  0  0  0  0  0  0  0  0  # atno 6909 bound_to 6896
  146.0860  140.5992  142.8886 H   0  0  0  0  0  0  0  0  0  0  0  0  # atno 7974 bound_to 7965
  155.3398  140.3407  155.4239 H   0  0  0  0  0  0  0  0  0  0  0  0  # atno 8008 bound_to 7997
  156.1819  140.1667  156.8294 H   0  0  0  0  0  0  0  0  0  0  0  0  # atno 8009 bound_to 7997
  154.5343  140.0738  156.8383 H   0  0  0  0  0  0  0  0  0  0  0  0  # atno 8010 bound_to 7997
  139.5894  144.7019  151.3328 H   0  0  0  0  0  0  0  0  0  0  0  0  # atno 10167 bound_to 10162
  156.3112  130.7483  151.1559 H   0  0  0  0  0  0  0  0  0  0  0  0  # atno 10718 bound_to 10713
  154.4207  135.5987  153.6008 H   0  0  0  0  0  0  0  0  0  0  0  0  # atno 10763 bound_to 10752
  152.9794  135.5951  154.3958 H   0  0  0  0  0  0  0  0  0  0  0  0  # atno 10764 bound_to 10752
  154.3783  135.2841  155.2204 H   0  0  0  0  0  0  0  0  0  0  0  0  # atno 10765 bound_to 10752
  141.1571  133.6786  156.6728 H   0  0  0  0  0  0  0  0  0  0  0  0  # atno 11005 bound_to 11000
  144.7326  140.4717  143.6926 LP  0  0  0  0  0  0  0  0  0  0  0  0  # atno 17320 bound_to 7965
  145.6128  139.1515  143.3066 LP  0  0  0  0  0  0  0  0  0  0  0  0  # atno 17321 bound_to 7965
  140.7160  143.7266  150.7655 LP  0  0  0  0  0  0  0  0  0  0  0  0  # atno 17342 bound_to 10162
  140.0818  143.4961  152.2526 LP  0  0  0  0  0  0  0  0  0  0  0  0  # atno 17343 bound_to 10162
  157.7391  131.0533  150.5251 LP  0  0  0  0  0  0  0  0  0  0  0  0  # atno 17370 bound_to 10713
  156.5390  130.4203  149.6163 LP  0  0  0  0  0  0  0  0  0  0  0  0  # atno 17371 bound_to 10713
  140.3162  134.8046  157.4216 LP  0  0  0  0  0  0  0  0  0  0  0  0  # atno 17394 bound_to 11000
  140.1136  134.5312  155.8244 LP  0  0  0  0  0  0  0  0  0  0  0  0  # atno 17395 bound_to 11000

$$$$
