AV-unprocessed.smi:1277|AV-procd|sdf|5346|dock1
  -GOLD-   22720 4483D 1   1.00000     0.00000
 Structure written by MMmdl.
 43 44  0  0  0  0  0  0  0  0  1 V2000
  148.9074  132.9586  153.4852 C   0  0  0  0  0  0  0  0  0  0  0  0
  149.1057  134.1580  154.2128 O   0  0  0  0  0  0  0  0  0  0  0  0
  149.9494  133.9768  155.3376 C   0  0  0  0  0  0  0  0  0  0  0  0
  150.0155  135.2856  156.1288 C   0  0  0  0  0  0  0  0  0  0  0  0
  150.2513  136.3569  155.2201 O   0  0  0  0  0  0  0  0  0  0  0  0
  150.7428  137.5465  155.7170 C   0  0  0  0  0  0  0  0  0  0  0  0
  151.5031  138.3703  154.8633 C   0  0  0  0  0  0  0  0  0  0  0  0
  152.0106  139.5852  155.3624 C   0  0  0  0  0  0  0  0  0  0  0  0
  151.7458  139.9345  156.7077 C   0  0  0  0  0  0  0  0  0  0  0  0
  152.1802  141.1427  157.3146 N   0  0  0  0  0  0  0  0  0  0  0  0
  151.5250  141.9101  158.2041 C   0  0  0  0  0  0  0  0  0  0  0  0
  150.3720  141.7043  158.5853 O   0  0  0  0  0  0  0  0  0  0  0  0
  152.2905  143.1524  158.7011 C   0  0  1  0  0  0  0  0  0  0  0  0
  151.5304  144.4291  158.3085 C   0  0  0  0  0  0  0  0  0  0  0  0
  151.8854  145.4367  159.3851 C   0  0  0  0  0  0  0  0  0  0  0  0
  152.1428  144.5966  160.6352 C   0  0  0  0  0  0  0  0  0  0  0  0
  152.4636  143.2461  160.1648 N   0  0  0  0  0  0  0  0  0  0  0  0
  152.9171  142.2621  160.9796 C   0  0  0  0  0  0  0  0  0  0  0  0
  152.9939  142.5345  162.4838 C   0  0  0  0  0  0  0  0  0  0  0  0
  153.2832  141.1622  160.5654 O   0  0  0  0  0  0  0  0  0  0  0  0
  150.9611  139.0491  157.4746 C   0  0  0  0  0  0  0  0  0  0  0  0
  150.4738  137.8822  157.0032 N   0  0  0  0  0  0  0  0  0  0  0  0
  153.2883  143.1717  158.2583 H   0  0  0  0  0  0  0  0  0  0  0  0
  148.2524  133.1499  152.6354 H   0  0  0  0  0  0  0  0  0  0  0  0
  148.4387  132.1937  154.1057 H   0  0  0  0  0  0  0  0  0  0  0  0
  149.8515  132.5693  153.1018 H   0  0  0  0  0  0  0  0  0  0  0  0
  149.5606  133.1783  155.9713 H   0  0  0  0  0  0  0  0  0  0  0  0
  150.9498  133.6854  155.0140 H   0  0  0  0  0  0  0  0  0  0  0  0
  149.0772  135.4388  156.6647 H   0  0  0  0  0  0  0  0  0  0  0  0
  150.8205  135.2293  156.8636 H   0  0  0  0  0  0  0  0  0  0  0  0
  151.6903  138.0781  153.8404 H   0  0  0  0  0  0  0  0  0  0  0  0
  152.5750  140.2286  154.7050 H   0  0  0  0  0  0  0  0  0  0  0  0
  153.0739  141.4915  156.9999 H   0  0  0  0  0  0  0  0  0  0  0  0
  151.7931  144.7801  157.3099 H   0  0  0  0  0  0  0  0  0  0  0  0
  150.4511  144.2662  158.3252 H   0  0  0  0  0  0  0  0  0  0  0  0
  152.8039  145.9525  159.1020 H   0  0  0  0  0  0  0  0  0  0  0  0
  151.1132  146.1923  159.5328 H   0  0  0  0  0  0  0  0  0  0  0  0
  152.9455  145.0299  161.2336 H   0  0  0  0  0  0  0  0  0  0  0  0
  151.2430  144.5547  161.2503 H   0  0  0  0  0  0  0  0  0  0  0  0
  152.0266  142.8552  162.8711 H   0  0  0  0  0  0  0  0  0  0  0  0
  153.7330  143.3061  162.6997 H   0  0  0  0  0  0  0  0  0  0  0  0
  153.2858  141.6326  163.0226 H   0  0  0  0  0  0  0  0  0  0  0  0
  150.7196  139.2802  158.5019 H   0  0  0  0  0  0  0  0  0  0  0  0
  1  2  1  0  0  0  0
  1 24  1  0  0  0  0
  1 25  1  0  0  0  0
  1 26  1  0  0  0  0
  2  3  1  0  0  0  0
  3  4  1  0  0  0  0
  3 27  1  0  0  0  0
  3 28  1  0  0  0  0
  4  5  1  0  0  0  0
  4 29  1  0  0  0  0
  4 30  1  0  0  0  0
  5  6  1  0  0  0  0
  6 22  1  0  0  0  0
  6  7  2  0  0  0  0
  7  8  1  0  0  0  0
  7 31  1  0  0  0  0
  8  9  2  0  0  0  0
  8 32  1  0  0  0  0
  9 10  1  0  0  0  0
  9 21  1  0  0  0  0
 10 11  1  0  0  0  0
 10 33  1  0  0  0  0
 11 12  2  0  0  0  0
 11 13  1  0  0  0  0
 13 23  1  0  0  0  0
 13 17  1  0  0  0  0
 13 14  1  0  0  0  0
 14 15  1  0  0  0  0
 14 34  1  0  0  0  0
 14 35  1  0  0  0  0
 15 16  1  0  0  0  0
 15 36  1  0  0  0  0
 15 37  1  0  0  0  0
 16 17  1  0  0  0  0
 16 38  1  0  0  0  0
 16 39  1  0  0  0  0
 17 18  1  0  0  0  0
 18 19  1  0  0  0  0
 18 20  2  0  0  0  0
 19 40  1  0  0  0  0
 19 41  1  0  0  0  0
 19 42  1  0  0  0  0
 21 22  2  0  0  0  0
 21 43  1  0  0  0  0
M  END
> <s_m_source_file>
AV-unprocessed.smi

> <i_m_source_file_index>
1277

> <i_lp_mmshare_version>
43012

> <i_f3d_flags>
0

> <s_epik_input>
W0NIM11PW0NIMl1bQ0gyXU9jMVtjSF1bY0hdYyhbY0hdbjEpW05IXUMoPU8pW0NAQEhdMltDSDJdW0NIMl1bQ0gyXU4yQyg9TylbQ0gzXQ==

> <s_epik_cmdline>
J2VwaWtfcHl0aG9uJywgJy1waCcsICc3LjAnLCAnLXRuJywgJzgnLCAnLW1hJywgJzIwMCcsICctbWV0YWxfYmluZGluZycsICctaW1hZScsICc8aW5maWxlLm1hZT4nLCAnLW9tYWUnLCAnPG91dGZpbGUubWFlPic=

> <r_lp_tautomer_probability>
1

> <r_epik_Ionization_Penalty>
1.62854e-05

> <r_epik_Ionization_Penalty_Charging>
0

> <r_epik_Ionization_Penalty_Neutral>
1.62854e-05

> <r_epik_State_Penalty>
-0

> <r_epik_Charging_Adjusted_Penalty>
0

> <i_epik_Tot_Q>
0

> <i_epik_Tot_abs_Q>
0

> <r_epik_Metal_State_Penalty>
-0

> <b_epik_Metal_Only>
0

> <s_lp_Force_Field>
OPLS_2005

> <r_lp_Energy>
20.2537

> <b_lp_Chiralities_Consistent>
1

> <s_lp_Variant>
AV-unprocessed.smi:1277-2

> <Gold.Version>
5.8.1

> <Gold.Id.Protein>
6NUR|6NUR_protein|mol2

> <Gold.PLP.Fitness>
45.4163

> <Gold.PLP.PLP>
-46.8214

> <Gold.PLP.part.hbond>
0.0000

> <Gold.PLP.part.metal>
0.0000

> <Gold.PLP.part.buried>
-3.6868

> <Gold.PLP.part.nonpolar>
-42.8088

> <Gold.PLP.part.repulsive>
0.4372

> <Gold.PLP.ligand.clash>
0.0000

> <Gold.PLP.ligand.torsion>
0.7849

> <Gold.PLP.Chemscore.Hbond>
0.0000

> <Gold.PLP.Chemscore.CHOScore>
0.0000

> <Gold.PLP.Chemscore.Metal>
0.0000

> <Gold.PLP.Chemscore.Internal.Correction>
0.1646

> <Gold.Rescore>
     Score         DG    S(hbond)    S(metal)    S(lipo)     H(rot)  DE(clash)    DE(int)     intcor
      9.62     -12.31       0.00        0.00      99.71       1.89       0.07       2.62       ----

> <Gold.Chemscore.Fitness>
9.6226

> <Gold.Chemscore.DG>
-12.3115

> <Gold.Chemscore.ZeroCoef>
-5.4800

> <Gold.Chemscore.Hbond>
0.0000

> <Gold.Chemscore.Metal>
0.0000

> <Gold.Chemscore.Lipo>
99.7072

> <Gold.Chemscore.Internal_Hbond>
0.0000

> <Gold.Chemscore.DEClash>
0.0727

> <Gold.Chemscore.DEInternal>
2.6162

> <Gold.Chemscore.Rot>
1.8884

> <Gold.Chemscore.Internal.Correction>
   9.000000E+99

> <Gold.Chemscore.Hbond.Weighted>
-0.0000

> <Gold.Chemscore.Metal.Weighted>
-0.0000

> <Gold.Chemscore.Lipo.Weighted>
-11.6657

> <Gold.Chemscore.Internal_Hbond.Weighted>
0.0000

> <Gold.Chemscore.DEClash.Weighted>
0.0727

> <Gold.Chemscore.DEInternal.Weighted>
2.6162

> <Gold.Chemscore.Rot.Weighted>
4.8342

> <Gold.Chemscore.Internal.Correction.Weighted>
   9.000000E+99

> <Gold.Protein.RotatedTorsions>
[ 6907 6896 6895 6894 ] final  -68.22 input  -60.11 | X-H torsion
[ 7974 7965 7964 7962 ] final -117.33 input  175.53 | X-H torsion
[ 8008 7997 7996 7995 ] final  145.41 input   59.86 | X-H torsion
[ 10167 10162 10161 10158 ] final  114.81 input  -65.29 | X-H torsion
[ 10718 10713 10712 10709 ] final   14.42 input   66.30 | X-H torsion
[ 10763 10752 10751 10750 ] final  -66.88 input  -60.55 | X-H torsion
[ 11005 11000 10999 10996 ] final   36.00 input  -57.11 | X-H torsion

> <Gold.Protein.ActiveResidues>
 VAL166  LYS551  ARG553  GLY616  TRP617  ASP618  TYR619  PRO620  LYS621  CYS622 
 ASP623  PHE694  ASN695  SER759  ASP760  ASP761  ALA762  ILE779  LEU786  VAL792 
 PHE793  MET794  SER795  GLU796  ALA797  LYS798  CYS799  TRP800  GLU811  SER814 

> <Gold.Protein.RotatedAtoms>
  150.7368  134.5771  159.5919 H   0  0  0  0  0  0  0  0  0  0  0  0  # atno 6907 bound_to 6896
  152.3194  134.7396  160.0326 H   0  0  0  0  0  0  0  0  0  0  0  0  # atno 6908 bound_to 6896
  151.7917  133.3324  159.3537 H   0  0  0  0  0  0  0  0  0  0  0  0  # atno 6909 bound_to 6896
  145.0864  140.8461  143.4008 H   0  0  0  0  0  0  0  0  0  0  0  0  # atno 7974 bound_to 7965
  156.2884  140.2210  156.5211 H   0  0  0  0  0  0  0  0  0  0  0  0  # atno 8008 bound_to 7997
  154.7528  140.0479  157.0930 H   0  0  0  0  0  0  0  0  0  0  0  0  # atno 8009 bound_to 7997
  155.0088  140.3110  155.4841 H   0  0  0  0  0  0  0  0  0  0  0  0  # atno 8010 bound_to 7997
  139.6362  144.7120  151.2330 H   0  0  0  0  0  0  0  0  0  0  0  0  # atno 10167 bound_to 10162
  157.0389  130.6223  149.5747 H   0  0  0  0  0  0  0  0  0  0  0  0  # atno 10718 bound_to 10713
  154.3663  135.6105  153.5717 H   0  0  0  0  0  0  0  0  0  0  0  0  # atno 10763 bound_to 10752
  152.9791  135.5827  154.4574 H   0  0  0  0  0  0  0  0  0  0  0  0  # atno 10764 bound_to 10752
  154.4320  135.2848  155.1883 H   0  0  0  0  0  0  0  0  0  0  0  0  # atno 10765 bound_to 10752
  140.2369  134.3461  155.7941 H   0  0  0  0  0  0  0  0  0  0  0  0  # atno 11005 bound_to 11000
  145.1117  139.2752  143.5634 LP  0  0  0  0  0  0  0  0  0  0  0  0  # atno 17320 bound_to 7965
  146.3531  140.0715  142.8623 LP  0  0  0  0  0  0  0  0  0  0  0  0  # atno 17321 bound_to 7965
  140.7466  143.6392  150.8350 LP  0  0  0  0  0  0  0  0  0  0  0  0  # atno 17342 bound_to 10162
  140.0024  143.5730  152.2870 LP  0  0  0  0  0  0  0  0  0  0  0  0  # atno 17343 bound_to 10162
  156.0044  130.5129  150.7780 LP  0  0  0  0  0  0  0  0  0  0  0  0  # atno 17370 bound_to 10713
  157.5120  131.0926  151.0187 LP  0  0  0  0  0  0  0  0  0  0  0  0  # atno 17371 bound_to 10713
  141.2213  133.7277  156.8823 LP  0  0  0  0  0  0  0  0  0  0  0  0  # atno 17394 bound_to 11000
  140.1693  134.9111  157.2813 LP  0  0  0  0  0  0  0  0  0  0  0  0  # atno 17395 bound_to 11000

$$$$
