AV-unprocessed.smi:36|AV-procd|sdf|287|dock2
  -GOLD-   2262016 73D 1   1.00000     0.00000
 Structure written by MMmdl.
 64 67  0  0  0  0  0  0  0  0  1 V2000
  144.5120  132.2471  151.0557 C   0  0  0  0  0  0  0  0  0  0  0  0
  145.4404  133.2967  151.6888 C   0  0  0  0  0  0  0  0  0  0  0  0
  145.7201  132.9230  153.1547 C   0  0  0  0  0  0  0  0  0  0  0  0
  146.7611  133.3692  150.9047 C   0  0  0  0  0  0  0  0  0  0  0  0
  144.5789  135.0006  151.6422 Si  0  0  0  0  0  0  0  0  0  0  0  0
  144.3870  135.6136  149.8515 C   0  0  0  0  0  0  0  0  0  0  0  0
  142.8738  134.9340  152.4758 C   0  0  0  0  0  0  0  0  0  0  0  0
  145.5453  136.0814  152.5180 O   0  0  0  0  0  0  0  0  0  0  0  0
  145.0571  137.1927  153.2414 C   0  0  0  0  0  0  0  0  0  0  0  0
  146.1857  138.2190  153.4051 C   0  0  2  0  0  0  0  0  0  0  0  0
  145.7593  139.2702  154.2642 O   0  0  0  0  0  0  0  0  0  0  0  0
  146.4922  140.4281  153.9946 C   0  0  1  0  0  0  0  0  0  0  0  0
  147.4607  140.6531  155.1128 N   0  0  0  0  0  0  0  0  0  0  0  0
  147.3200  141.4586  156.1845 C   0  0  0  0  0  0  0  0  0  0  0  0
  148.3448  141.4620  157.0333 N   0  0  0  0  0  0  0  0  0  0  0  0
  149.2310  140.5665  156.4437 C   0  0  0  0  0  0  0  0  0  0  0  0
  150.5711  140.1178  156.8801 C   0  0  0  0  0  0  0  0  0  0  0  0
  151.0384  140.6042  157.9899 N   0  0  0  0  0  0  0  0  0  0  0  0
  152.2998  140.2332  158.4385 C   0  0  0  0  0  0  0  0  0  0  0  0
  153.0985  139.4423  157.9286 O   0  0  0  0  0  0  0  0  0  0  0  0
  152.6632  140.8432  159.7543 C   0  0  0  0  0  0  0  0  0  0  0  0
  153.5939  140.2044  160.6017 C   0  0  0  0  0  0  0  0  0  0  0  0
  153.9371  140.7839  161.8389 C   0  0  0  0  0  0  0  0  0  0  0  0
  153.3514  142.0022  162.2335 C   0  0  0  0  0  0  0  0  0  0  0  0
  152.4227  142.6422  161.3905 C   0  0  0  0  0  0  0  0  0  0  0  0
  152.0794  142.0648  160.1525 C   0  0  0  0  0  0  0  0  0  0  0  0
  151.0917  139.2050  155.9534 N   0  0  0  0  0  0  0  0  0  0  0  0
  150.4524  138.7632  154.7845 C   0  0  0  0  0  0  0  0  0  0  0  0
  149.2685  139.1484  154.3891 N   0  0  0  0  0  0  0  0  0  0  0  0
  148.7098  140.0618  155.2719 C   0  0  0  0  0  0  0  0  0  0  0  0
  147.2495  140.1945  152.6813 C   0  0  0  0  0  0  0  0  0  0  0  0
  146.5494  138.9689  152.1251 C   0  0  1  0  0  0  0  0  0  0  0  0
  147.4165  138.2249  151.2942 O   0  0  0  0  0  0  0  0  0  0  0  0
  144.9610  131.2536  151.0811 H   0  0  0  0  0  0  0  0  0  0  0  0
  144.2963  132.4827  150.0135 H   0  0  0  0  0  0  0  0  0  0  0  0
  143.5599  132.1914  151.5842 H   0  0  0  0  0  0  0  0  0  0  0  0
  144.7992  132.8933  153.7381 H   0  0  0  0  0  0  0  0  0  0  0  0
  146.3856  133.6435  153.6306 H   0  0  0  0  0  0  0  0  0  0  0  0
  146.1908  131.9425  153.2316 H   0  0  0  0  0  0  0  0  0  0  0  0
  147.2814  132.4110  150.9166 H   0  0  0  0  0  0  0  0  0  0  0  0
  147.4353  134.1136  151.3293 H   0  0  0  0  0  0  0  0  0  0  0  0
  146.5894  133.6367  149.8620 H   0  0  0  0  0  0  0  0  0  0  0  0
  143.7280  134.9631  149.2772 H   0  0  0  0  0  0  0  0  0  0  0  0
  145.3424  135.6438  149.3289 H   0  0  0  0  0  0  0  0  0  0  0  0
  143.9630  136.6165  149.8129 H   0  0  0  0  0  0  0  0  0  0  0  0
  142.2118  134.2263  151.9778 H   0  0  0  0  0  0  0  0  0  0  0  0
  142.3828  135.9068  152.4564 H   0  0  0  0  0  0  0  0  0  0  0  0
  142.9497  134.6305  153.5195 H   0  0  0  0  0  0  0  0  0  0  0  0
  144.2139  137.6313  152.7071 H   0  0  0  0  0  0  0  0  0  0  0  0
  144.6865  136.8625  154.2121 H   0  0  0  0  0  0  0  0  0  0  0  0
  147.0782  137.7565  153.8265 H   0  0  0  0  0  0  0  0  0  0  0  0
  145.8407  141.3025  153.9897 H   0  0  0  0  0  0  0  0  0  0  0  0
  146.4422  142.0649  156.3517 H   0  0  0  0  0  0  0  0  0  0  0  0
  154.0496  139.2704  160.3058 H   0  0  0  0  0  0  0  0  0  0  0  0
  154.6504  140.2938  162.4849 H   0  0  0  0  0  0  0  0  0  0  0  0
  153.6149  142.4460  163.1821 H   0  0  0  0  0  0  0  0  0  0  0  0
  151.9734  143.5764  161.6934 H   0  0  0  0  0  0  0  0  0  0  0  0
  151.3666  142.5630  159.5113 H   0  0  0  0  0  0  0  0  0  0  0  0
  151.0353  138.0463  154.2044 H   0  0  0  0  0  0  0  0  0  0  0  0
  147.1861  141.0663  152.0296 H   0  0  0  0  0  0  0  0  0  0  0  0
  148.3007  139.9850  152.8905 H   0  0  0  0  0  0  0  0  0  0  0  0
  145.6520  139.2601  151.5775 H   0  0  0  0  0  0  0  0  0  0  0  0
  147.8064  137.5341  151.8077 H   0  0  0  0  0  0  0  0  0  0  0  0
  152.0087  138.8292  156.1471 H   0  0  0  0  0  0  0  0  0  0  0  0
  1  2  1  0  0  0  0
  1 34  1  0  0  0  0
  1 35  1  0  0  0  0
  1 36  1  0  0  0  0
  2  3  1  0  0  0  0
  2  4  1  0  0  0  0
  2  5  1  0  0  0  0
  3 37  1  0  0  0  0
  3 38  1  0  0  0  0
  3 39  1  0  0  0  0
  4 40  1  0  0  0  0
  4 41  1  0  0  0  0
  4 42  1  0  0  0  0
  5  6  1  0  0  0  0
  5  7  1  0  0  0  0
  5  8  1  0  0  0  0
  6 43  1  0  0  0  0
  6 44  1  0  0  0  0
  6 45  1  0  0  0  0
  7 46  1  0  0  0  0
  7 47  1  0  0  0  0
  7 48  1  0  0  0  0
  8  9  1  0  0  0  0
  9 10  1  0  0  0  0
  9 49  1  0  0  0  0
  9 50  1  0  0  0  0
 10 32  1  0  0  0  0
 10 11  1  0  0  0  0
 10 51  1  0  0  0  0
 11 12  1  0  0  0  0
 12 13  1  0  0  0  0
 12 31  1  0  0  0  0
 12 52  1  0  0  0  0
 13 30  1  0  0  0  0
 13 14  1  0  0  0  0
 14 15  2  0  0  0  0
 14 53  1  0  0  0  0
 15 16  1  0  0  0  0
 16 30  2  0  0  0  0
 16 17  1  0  0  0  0
 17 18  2  0  0  0  0
 17 27  1  0  0  0  0
 18 19  1  0  0  0  0
 19 20  2  0  0  0  0
 19 21  1  0  0  0  0
 21 26  1  0  0  0  0
 21 22  2  0  0  0  0
 22 23  1  0  0  0  0
 22 54  1  0  0  0  0
 23 24  2  0  0  0  0
 23 55  1  0  0  0  0
 24 25  1  0  0  0  0
 24 56  1  0  0  0  0
 25 26  2  0  0  0  0
 25 57  1  0  0  0  0
 26 58  1  0  0  0  0
 27 28  1  0  0  0  0
 27 64  1  0  0  0  0
 28 29  2  0  0  0  0
 28 59  1  0  0  0  0
 29 30  1  0  0  0  0
 31 32  1  0  0  0  0
 31 60  1  0  0  0  0
 31 61  1  0  0  0  0
 32 33  1  0  0  0  0
 32 62  1  0  0  0  0
 33 63  1  0  0  0  0
M  END
> <s_m_source_file>
AV-unprocessed.smi

> <i_m_source_file_index>
36

> <i_lp_mmshare_version>
43012

> <i_f3d_flags>
0

> <s_epik_input>
W0NIM11DKFtDSDNdKShbQ0gzXSlbU2ldKFtDSDNdKShbQ0gzXSlPW0NIMl1bQ0BASF0xT1tDQEhdKFtDSDJdW0NASF0xW09IXSluKFtjSF1uMiljKGMyMyluW2NIXW5jM1tOSF1DKD1PKWM0W2NIXVtjSF1bY0hdW2NIXVtjSF00

> <s_epik_cmdline>
J2VwaWtfcHl0aG9uJywgJy1waCcsICc3LjAnLCAnLXRuJywgJzgnLCAnLW1hJywgJzIwMCcsICctbWV0YWxfYmluZGluZycsICctaW1hZScsICc8aW5maWxlLm1hZT4nLCAnLW9tYWUnLCAnPG91dGZpbGUubWFlPic=

> <r_epik_Ionization_Penalty>
0.0850405

> <r_epik_Ionization_Penalty_Charging>
0.0850403

> <r_epik_Ionization_Penalty_Neutral>
1.47497e-07

> <r_epik_State_Penalty>
2.6133

> <r_epik_Charging_Adjusted_Penalty>
2.69834

> <i_epik_Tot_Q>
0

> <i_epik_Tot_abs_Q>
0

> <r_epik_Metal_State_Penalty>
2.92945

> <b_epik_Metal_Only>
0

> <s_epik_Chemistry_Notes>
This compound contains an acetal/aminal-like group ( X-CH(R)-Y where X, Y are N, S, or O) that may be acid/base labile, releasing an aldehyde.

> <s_lp_Force_Field>
OPLS_2005

> <r_lp_Energy>
46.6166

> <b_lp_Chiralities_Consistent>
1

> <s_lp_Variant>
AV-unprocessed.smi:36-9

> <Gold.Version>
5.8.1

> <Gold.Id.Protein>
6NUR|6NUR_protein|mol2

> <Gold.PLP.Fitness>
58.7379

> <Gold.PLP.PLP>
-53.2815

> <Gold.PLP.part.hbond>
-3.7499

> <Gold.PLP.part.metal>
0.0000

> <Gold.PLP.part.buried>
-4.9442

> <Gold.PLP.part.nonpolar>
-45.3685

> <Gold.PLP.part.repulsive>
0.5833

> <Gold.PLP.ligand.clash>
0.0000

> <Gold.PLP.ligand.torsion>
1.7710

> <Gold.PLP.Chemscore.Hbond>
2.8480

> <Gold.PLP.Chemscore.CHOScore>
0.0000

> <Gold.PLP.Chemscore.Metal>
0.0000

> <Gold.Chemscore.Hbonds>
donor molecule, donor type, donor heavy atom, donor atom, acceptor molecule, acceptor atom, score
      L1  H    33    63       P1  7948  0.90
      P1  H  7954  7966       L1    33  0.85
      P1  H  7997  8009       L1    20  1.00

> <Gold.PLP.Chemscore.Internal.Correction>
0.4544

> <Gold.Rescore>
     Score         DG    S(hbond)    S(metal)    S(lipo)     H(rot)  DE(clash)    DE(int)     intcor
     16.35     -21.04       2.31        0.00     126.18       2.70       1.16       3.53       ----

> <Gold.Chemscore.Fitness>
16.3522

> <Gold.Chemscore.DG>
-21.0402

> <Gold.Chemscore.ZeroCoef>
-5.4800

> <Gold.Chemscore.Hbond>
2.3114

> <Gold.Chemscore.Metal>
0.0000

> <Gold.Chemscore.Lipo>
126.1770

> <Gold.Chemscore.Internal_Hbond>
0.0000

> <Gold.Chemscore.DEClash>
1.1559

> <Gold.Chemscore.DEInternal>
3.5321

> <Gold.Chemscore.Rot>
2.7041

> <Gold.Chemscore.Internal.Correction>
   9.000000E+99

> <Gold.Chemscore.Hbonds>
donor molecule, donor type, donor heavy atom, donor atom, acceptor molecule, acceptor atom, score
      L1  H    33    63       P1  7948  0.88
      P1  H  7954  7966       L1    33  0.14
      P1  H  7997  8009       L1    20  0.98

> <Gold.Chemscore.Hbond.Weighted>
-7.7199

> <Gold.Chemscore.Metal.Weighted>
-0.0000

> <Gold.Chemscore.Lipo.Weighted>
-14.7627

> <Gold.Chemscore.Internal_Hbond.Weighted>
0.0000

> <Gold.Chemscore.DEClash.Weighted>
1.1559

> <Gold.Chemscore.DEInternal.Weighted>
3.5321

> <Gold.Chemscore.Rot.Weighted>
6.9225

> <Gold.Chemscore.Internal.Correction.Weighted>
   9.000000E+99

> <Gold.Protein.RotatedTorsions>
[ 6907 6896 6895 6894 ] final  -55.45 input  -60.11 | X-H torsion
[ 7974 7965 7964 7962 ] final  135.77 input  175.53 | X-H torsion
[ 8008 7997 7996 7995 ] final  168.76 input   59.86 | X-H torsion
[ 10167 10162 10161 10158 ] final  -97.93 input  -65.29 | X-H torsion
[ 10718 10713 10712 10709 ] final -130.97 input   66.30 | X-H torsion
[ 10763 10752 10751 10750 ] final  127.89 input  -60.55 | X-H torsion
[ 11005 11000 10999 10996 ] final  -98.22 input  -57.11 | X-H torsion

> <Gold.Protein.ActiveResidues>
 VAL166  LYS551  ARG553  GLY616  TRP617  ASP618  TYR619  PRO620  LYS621  CYS622 
 ASP623  PHE694  ASN695  SER759  ASP760  ASP761  ALA762  ILE779  LEU786  VAL792 
 PHE793  MET794  SER795  GLU796  ALA797  LYS798  CYS799  TRP800  GLU811  SER814 

> <Gold.Protein.RotatedAtoms>
  150.8250  134.7477  159.6804 H   0  0  0  0  0  0  0  0  0  0  0  0  # atno 6907 bound_to 6896
  152.4362  134.5678  159.9922 H   0  0  0  0  0  0  0  0  0  0  0  0  # atno 6908 bound_to 6896
  151.5853  133.3335  159.3052 H   0  0  0  0  0  0  0  0  0  0  0  0  # atno 6909 bound_to 6896
  144.9631  139.4688  143.5470 H   0  0  0  0  0  0  0  0  0  0  0  0  # atno 7974 bound_to 7965
  156.1518  140.1582  156.8757 H   0  0  0  0  0  0  0  0  0  0  0  0  # atno 8008 bound_to 7997
  154.5078  140.0808  156.7966 H   0  0  0  0  0  0  0  0  0  0  0  0  # atno 8009 bound_to 7997
  155.3881  140.3408  155.4252 H   0  0  0  0  0  0  0  0  0  0  0  0  # atno 8010 bound_to 7997
  140.2782  143.3299  152.0467 H   0  0  0  0  0  0  0  0  0  0  0  0  # atno 10167 bound_to 10162
  156.2197  130.6970  151.0742 H   0  0  0  0  0  0  0  0  0  0  0  0  # atno 10718 bound_to 10713
  153.7167  135.3259  155.3258 H   0  0  0  0  0  0  0  0  0  0  0  0  # atno 10763 bound_to 10752
  154.8368  135.4490  154.1258 H   0  0  0  0  0  0  0  0  0  0  0  0  # atno 10764 bound_to 10752
  153.2367  135.6966  153.7908 H   0  0  0  0  0  0  0  0  0  0  0  0  # atno 10765 bound_to 10752
  141.1352  133.8229  157.0811 H   0  0  0  0  0  0  0  0  0  0  0  0  # atno 11005 bound_to 11000
  146.3359  139.8794  142.8827 LP  0  0  0  0  0  0  0  0  0  0  0  0  # atno 17320 bound_to 7965
  145.2670  141.0096  143.3793 LP  0  0  0  0  0  0  0  0  0  0  0  0  # atno 17321 bound_to 7965
  139.4970  144.6610  151.6465 LP  0  0  0  0  0  0  0  0  0  0  0  0  # atno 17342 bound_to 10162
  140.5833  143.9907  150.6281 LP  0  0  0  0  0  0  0  0  0  0  0  0  # atno 17343 bound_to 10162
  157.7081  131.0747  150.6597 LP  0  0  0  0  0  0  0  0  0  0  0  0  # atno 17370 bound_to 10713
  156.6659  130.4525  149.5672 LP  0  0  0  0  0  0  0  0  0  0  0  0  # atno 17371 bound_to 10713
  140.0451  134.9834  157.1034 LP  0  0  0  0  0  0  0  0  0  0  0  0  # atno 17394 bound_to 11000
  140.4075  134.2016  155.7163 LP  0  0  0  0  0  0  0  0  0  0  0  0  # atno 17395 bound_to 11000

$$$$
