AV-unprocessed.smi:104|AV-procd|sdf|995|dock3
  -GOLD-   2262017573D 1   1.00000     0.00000
 Structure written by MMmdl.
 47 49  0  0  0  0  0  0  0  0  1 V2000
  146.6321  134.8269  162.7262 C   0  0  0  0  0  0  0  0  0  0  0  0
  147.4663  135.5875  161.7039 C   0  0  0  0  0  0  0  0  0  0  0  0
  148.2334  136.4884  162.0445 O   0  0  0  0  0  0  0  0  0  0  0  0
  147.2549  135.1575  160.4496 O   0  0  0  0  0  0  0  0  0  0  0  0
  148.2949  135.2351  159.4869 C   0  0  0  0  0  0  0  0  0  0  0  0
  148.6391  136.7080  159.2284 C   0  0  2  0  0  0  0  0  0  0  0  0
  147.5242  137.3289  158.5807 O   0  0  0  0  0  0  0  0  0  0  0  0
  147.9020  137.8046  157.3280 C   0  0  2  0  0  0  0  0  0  0  0  0
  146.7860  137.6026  156.3564 N   0  0  0  0  0  0  0  0  0  0  0  0
  145.5424  137.0569  156.5767 C   0  0  0  0  0  0  0  0  0  0  0  0
  144.9968  136.4348  158.2921 Br  0  0  0  0  0  0  0  0  0  0  0  0
  144.7298  136.9945  155.5592 N   0  0  0  0  0  0  0  0  0  0  0  0
  145.4781  137.5632  154.5357 C   0  0  0  0  0  0  0  0  0  0  0  0
  145.2320  137.8265  153.1643 C   0  0  0  0  0  0  0  0  0  0  0  0
  144.0782  137.5187  152.5558 N   0  0  0  0  0  0  0  0  0  0  0  0
  146.2059  138.4181  152.4336 N   0  0  0  0  0  0  0  0  0  0  0  0
  147.3656  138.7379  153.0166 C   0  0  0  0  0  0  0  0  0  0  0  0
  147.7408  138.5535  154.2848 N   0  0  0  0  0  0  0  0  0  0  0  0
  146.7608  137.9535  155.0214 C   0  0  0  0  0  0  0  0  0  0  0  0
  149.1246  137.0041  156.9148 C   0  0  1  0  0  0  0  0  0  0  0  0
  149.8880  137.7025  155.9399 O   0  0  0  0  0  0  0  0  0  0  0  0
  150.9257  137.0978  155.3418 C   0  0  0  0  0  0  0  0  0  0  0  0
  151.7198  138.0493  154.4569 C   0  0  0  0  0  0  0  0  0  0  0  0
  151.2454  135.9157  155.4665 O   0  0  0  0  0  0  0  0  0  0  0  0
  149.8230  136.8521  158.2562 C   0  0  1  0  0  0  0  0  0  0  0  0
  150.5703  138.0248  158.5697 O   0  0  0  0  0  0  0  0  0  0  0  0
  151.7483  137.9287  159.2095 C   0  0  0  0  0  0  0  0  0  0  0  0
  152.4474  139.2748  159.3418 C   0  0  0  0  0  0  0  0  0  0  0  0
  152.2467  136.8973  159.6602 O   0  0  0  0  0  0  0  0  0  0  0  0
  146.6221  133.7616  162.4944 H   0  0  0  0  0  0  0  0  0  0  0  0
  145.6052  135.1931  162.7231 H   0  0  0  0  0  0  0  0  0  0  0  0
  147.0431  134.9573  163.7275 H   0  0  0  0  0  0  0  0  0  0  0  0
  149.1665  134.7089  159.8772 H   0  0  0  0  0  0  0  0  0  0  0  0
  148.0183  134.7478  158.5513 H   0  0  0  0  0  0  0  0  0  0  0  0
  148.8451  137.2056  160.1771 H   0  0  0  0  0  0  0  0  0  0  0  0
  148.0761  138.8798  157.3789 H   0  0  0  0  0  0  0  0  0  0  0  0
  143.3352  137.0780  153.0789 H   0  0  0  0  0  0  0  0  0  0  0  0
  143.9547  137.7260  151.5753 H   0  0  0  0  0  0  0  0  0  0  0  0
  148.0979  139.2085  152.3769 H   0  0  0  0  0  0  0  0  0  0  0  0
  148.7904  136.0313  156.5493 H   0  0  0  0  0  0  0  0  0  0  0  0
  151.0472  138.6638  153.8579 H   0  0  0  0  0  0  0  0  0  0  0  0
  152.3697  137.4912  153.7825 H   0  0  0  0  0  0  0  0  0  0  0  0
  152.3381  138.7061  155.0691 H   0  0  0  0  0  0  0  0  0  0  0  0
  150.4721  135.9749  158.2545 H   0  0  0  0  0  0  0  0  0  0  0  0
  152.4707  139.7868  158.3795 H   0  0  0  0  0  0  0  0  0  0  0  0
  153.4730  139.1413  159.6863 H   0  0  0  0  0  0  0  0  0  0  0  0
  151.9206  139.9052  160.0583 H   0  0  0  0  0  0  0  0  0  0  0  0
  1  2  1  0  0  0  0
  1 30  1  0  0  0  0
  1 31  1  0  0  0  0
  1 32  1  0  0  0  0
  2  3  2  0  0  0  0
  2  4  1  0  0  0  0
  4  5  1  0  0  0  0
  5  6  1  0  0  0  0
  5 33  1  0  0  0  0
  5 34  1  0  0  0  0
  6 25  1  0  0  0  0
  6  7  1  0  0  0  0
  6 35  1  0  0  0  0
  7  8  1  0  0  0  0
  8  9  1  0  0  0  0
  8 20  1  0  0  0  0
  8 36  1  0  0  0  0
  9 19  1  0  0  0  0
  9 10  1  0  0  0  0
 10 11  1  0  0  0  0
 10 12  2  0  0  0  0
 12 13  1  0  0  0  0
 13 19  2  0  0  0  0
 13 14  1  0  0  0  0
 14 15  1  0  0  0  0
 14 16  2  0  0  0  0
 15 37  1  0  0  0  0
 15 38  1  0  0  0  0
 16 17  1  0  0  0  0
 17 18  2  0  0  0  0
 17 39  1  0  0  0  0
 18 19  1  0  0  0  0
 20 21  1  0  0  0  0
 20 25  1  0  0  0  0
 20 40  1  0  0  0  0
 21 22  1  0  0  0  0
 22 23  1  0  0  0  0
 22 24  2  0  0  0  0
 23 41  1  0  0  0  0
 23 42  1  0  0  0  0
 23 43  1  0  0  0  0
 25 26  1  0  0  0  0
 25 44  1  0  0  0  0
 26 27  1  0  0  0  0
 27 28  1  0  0  0  0
 27 29  2  0  0  0  0
 28 45  1  0  0  0  0
 28 46  1  0  0  0  0
 28 47  1  0  0  0  0
M  END
> <s_m_source_file>
AV-unprocessed.smi

> <i_m_source_file_index>
104

> <i_lp_mmshare_version>
43012

> <i_f3d_flags>
0

> <s_epik_input>
W0NIM11DKD1PKU9bQ0gyXVtDQEBIXTFPW0NASF0oW0NAQEhdKE9DKD1PKVtDSDNdKVtDQEhdMU9DKD1PKVtDSDNdKW4oYyhCciluMiljKGMyMyluW2NIXW5jM1tOSDJd

> <s_epik_cmdline>
J2VwaWtfcHl0aG9uJywgJy1waCcsICc3LjAnLCAnLXRuJywgJzgnLCAnLW1hJywgJzIwMCcsICctbWV0YWxfYmluZGluZycsICctaW1hZScsICc8aW5maWxlLm1hZT4nLCAnLW9tYWUnLCAnPG91dGZpbGUubWFlPic=

> <r_lp_tautomer_probability>
1

> <r_epik_Ionization_Penalty>
7.36622e-05

> <r_epik_Ionization_Penalty_Charging>
0

> <r_epik_Ionization_Penalty_Neutral>
7.36622e-05

> <r_epik_State_Penalty>
-0

> <r_epik_Charging_Adjusted_Penalty>
0

> <i_epik_Tot_Q>
0

> <i_epik_Tot_abs_Q>
0

> <r_epik_Metal_State_Penalty>
-0

> <b_epik_Metal_Only>
0

> <s_epik_Chemistry_Notes>
This compound has an ester and may undergo hydrolysis at high or low pH. This compound contains an acetal/aminal-like group ( X-CH(R)-Y where X, Y are N, S, or O) that may be acid/base labile, releasing an aldehyde.

> <s_lp_Force_Field>
OPLS_2005

> <r_lp_Energy>
18.6996

> <b_lp_Chiralities_Consistent>
1

> <s_lp_Variant>
AV-unprocessed.smi:104-3

> <Gold.Version>
5.8.1

> <Gold.Id.Protein>
6NUR|6NUR_protein|mol2

> <Gold.PLP.Fitness>
42.7678

> <Gold.PLP.PLP>
-29.7178

> <Gold.PLP.part.hbond>
-5.0000

> <Gold.PLP.part.metal>
0.0000

> <Gold.PLP.part.buried>
-4.6429

> <Gold.PLP.part.nonpolar>
-21.1515

> <Gold.PLP.part.repulsive>
0.5954

> <Gold.PLP.ligand.clash>
0.0000

> <Gold.PLP.ligand.torsion>
1.1007

> <Gold.PLP.Chemscore.Hbond>
3.9913

> <Gold.PLP.Chemscore.CHOScore>
1.0000

> <Gold.PLP.Chemscore.Metal>
0.0000

> <Gold.Chemscore.Hbonds>
donor molecule, donor type, donor heavy atom, donor atom, acceptor molecule, acceptor atom, score
      L1  H    15    38       P1 10171  1.00
      P1  H  6896  6908       L1    29  1.00
      P1  H  6931  6943       L1     3  1.00
      P1  H 10752 10765       L1    24  1.00
      L1  C    17    39       P1  7957  1.00

> <Gold.PLP.Chemscore.Internal.Correction>
0.2777

> <Gold.Rescore>
     Score         DG    S(hbond)    S(metal)    S(lipo)     H(rot)  DE(clash)    DE(int)     intcor
      4.37      -9.85       3.33        0.00      36.39       4.31       0.21       5.26       ----

> <Gold.Chemscore.Fitness>
4.3709

> <Gold.Chemscore.DG>
-9.8464

> <Gold.Chemscore.ZeroCoef>
-5.4800

> <Gold.Chemscore.Hbond>
3.3338

> <Gold.Chemscore.Metal>
0.0000

> <Gold.Chemscore.Lipo>
36.3883

> <Gold.Chemscore.Internal_Hbond>
0.0000

> <Gold.Chemscore.DEClash>
0.2124

> <Gold.Chemscore.DEInternal>
5.2631

> <Gold.Chemscore.Rot>
4.3070

> <Gold.Chemscore.Internal.Correction>
   9.000000E+99

> <Gold.Chemscore.Hbonds>
donor molecule, donor type, donor heavy atom, donor atom, acceptor molecule, acceptor atom, score
      L1  H    15    38       P1 10171  0.99
      P1  H  6896  6908       L1    29  0.97
      P1  H  6931  6943       L1     3  0.99
      P1  H 10752 10765       L1    24  0.85

> <Gold.Chemscore.Hbond.Weighted>
-11.1348

> <Gold.Chemscore.Metal.Weighted>
-0.0000

> <Gold.Chemscore.Lipo.Weighted>
-4.2574

> <Gold.Chemscore.Internal_Hbond.Weighted>
0.0000

> <Gold.Chemscore.DEClash.Weighted>
0.2124

> <Gold.Chemscore.DEInternal.Weighted>
5.2631

> <Gold.Chemscore.Rot.Weighted>
11.0259

> <Gold.Chemscore.Internal.Correction.Weighted>
   9.000000E+99

> <Gold.Protein.RotatedTorsions>
[ 6907 6896 6895 6894 ] final -123.86 input  -60.11 | X-H torsion
[ 7974 7965 7964 7962 ] final  -26.54 input  175.53 | X-H torsion
[ 8008 7997 7996 7995 ] final   39.38 input   59.86 | X-H torsion
[ 10167 10162 10161 10158 ] final  -99.50 input  -65.29 | X-H torsion
[ 10718 10713 10712 10709 ] final   87.09 input   66.30 | X-H torsion
[ 10763 10752 10751 10750 ] final -169.91 input  -60.55 | X-H torsion
[ 11005 11000 10999 10996 ] final  111.38 input  -57.11 | X-H torsion

> <Gold.Protein.ActiveResidues>
 VAL166  LYS551  ARG553  GLY616  TRP617  ASP618  TYR619  PRO620  LYS621  CYS622 
 ASP623  PHE694  ASN695  SER759  ASP760  ASP761  ALA762  ILE779  LEU786  VAL792 
 PHE793  MET794  SER795  GLU796  ALA797  LYS798  CYS799  TRP800  GLU811  SER814 

> <Gold.Protein.RotatedAtoms>
  150.8712  133.7503  159.2960 H   0  0  0  0  0  0  0  0  0  0  0  0  # atno 6907 bound_to 6896
  151.5115  135.1063  159.9864 H   0  0  0  0  0  0  0  0  0  0  0  0  # atno 6908 bound_to 6896
  152.4696  133.7955  159.6980 H   0  0  0  0  0  0  0  0  0  0  0  0  # atno 6909 bound_to 6896
  146.1418  140.5033  142.8648 H   0  0  0  0  0  0  0  0  0  0  0  0  # atno 7974 bound_to 7965
  155.2356  140.3341  155.4298 H   0  0  0  0  0  0  0  0  0  0  0  0  # atno 8008 bound_to 7997
  156.2277  140.1836  156.7367 H   0  0  0  0  0  0  0  0  0  0  0  0  # atno 8009 bound_to 7997
  154.5926  140.0635  156.9244 H   0  0  0  0  0  0  0  0  0  0  0  0  # atno 8010 bound_to 7997
  140.2617  143.3403  152.0619 H   0  0  0  0  0  0  0  0  0  0  0  0  # atno 10167 bound_to 10162
  157.6936  131.0241  150.3070 H   0  0  0  0  0  0  0  0  0  0  0  0  # atno 10718 bound_to 10713
  154.6472  135.2906  155.0031 H   0  0  0  0  0  0  0  0  0  0  0  0  # atno 10763 bound_to 10752
  154.1137  135.6558  153.4894 H   0  0  0  0  0  0  0  0  0  0  0  0  # atno 10764 bound_to 10752
  153.0357  135.5271  154.7364 H   0  0  0  0  0  0  0  0  0  0  0  0  # atno 10765 bound_to 10752
  139.8902  134.9506  156.6423 H   0  0  0  0  0  0  0  0  0  0  0  0  # atno 11005 bound_to 11000
  144.7801  140.5823  143.6611 LP  0  0  0  0  0  0  0  0  0  0  0  0  # atno 17320 bound_to 7965
  145.5028  139.1482  143.3647 LP  0  0  0  0  0  0  0  0  0  0  0  0  # atno 17321 bound_to 7965
  139.5015  144.6714  151.6233 LP  0  0  0  0  0  0  0  0  0  0  0  0  # atno 17342 bound_to 10162
  140.5960  143.9695  150.6355 LP  0  0  0  0  0  0  0  0  0  0  0  0  # atno 17343 bound_to 10162
  156.3577  130.3841  149.7276 LP  0  0  0  0  0  0  0  0  0  0  0  0  # atno 17370 bound_to 10713
  156.4733  130.8007  151.3024 LP  0  0  0  0  0  0  0  0  0  0  0  0  # atno 17371 bound_to 10713
  140.7584  133.8838  155.8399 LP  0  0  0  0  0  0  0  0  0  0  0  0  # atno 17394 bound_to 11000
  140.9942  134.1237  157.4379 LP  0  0  0  0  0  0  0  0  0  0  0  0  # atno 17395 bound_to 11000

$$$$
