AV-unprocessed.smi:2510|AV-procd|sdf|9873|dock10
  -GOLD-   2272013503D 1   1.00000     0.00000
 Structure written by MMmdl.
 48 49  0  0  0  0  0  0  0  0  1 V2000
  149.4319  139.6793  157.3044 C   0  0  0  0  0  0  0  0  0  0  0  0
  150.6275  138.9873  156.6286 C   0  0  0  0  0  0  0  0  0  0  0  0
  150.2912  138.2231  155.3242 C   0  0  0  0  0  0  0  0  0  0  0  0
  151.5616  137.4939  154.8205 C   0  0  0  0  0  0  0  0  0  0  0  0
  152.7803  138.3991  154.5826 C   0  0  0  0  0  0  0  0  0  0  0  0
  148.9643  137.4085  155.4154 C   0  0  2  0  0  0  0  0  0  0  0  0
  148.9357  136.2265  154.5548 N   0  0  0  0  0  0  0  0  0  0  0  0
  148.4746  135.0214  154.9226 C   0  0  0  0  0  0  0  0  0  0  0  0
  147.9395  134.8033  156.0093 O   0  0  0  0  0  0  0  0  0  0  0  0
  148.6687  133.8843  153.9178 C   0  0  0  0  0  0  0  0  0  0  0  0
  147.3294  133.3512  153.4796 C   0  0  0  0  0  0  0  0  0  0  0  0
  146.9244  132.9718  152.1651 C   0  0  0  0  0  0  0  0  0  0  0  0
  145.6417  132.5279  152.3210 C   0  0  0  0  0  0  0  0  0  0  0  0
  144.6608  131.9827  151.3401 C   0  0  0  0  0  0  0  0  0  0  0  0
  145.3471  132.6658  153.6577 N   0  0  0  0  0  0  0  0  0  0  0  0
  146.3682  133.1698  154.3749 N   0  0  0  0  0  0  0  0  0  0  0  0
  148.2073  138.5930  154.7876 C   0  0  2  0  0  0  0  0  0  0  0  0
  147.0400  138.3512  153.8335 C   0  0  0  0  0  0  0  0  0  0  0  0
  149.5645  139.0556  154.2386 C   0  0  1  0  0  0  0  0  0  0  0  0
  149.8186  140.4482  154.3504 O   0  0  0  0  0  0  0  0  0  0  0  0
  148.6735  141.2450  154.1054 C   0  0  0  0  0  0  0  0  0  0  0  0
  144.4664  132.4225  154.0887 H   0  0  0  0  0  0  0  0  0  0  0  0
  149.7688  140.2884  158.1431 H   0  0  0  0  0  0  0  0  0  0  0  0
  148.7164  138.9588  157.6997 H   0  0  0  0  0  0  0  0  0  0  0  0
  148.9023  140.3357  156.6143 H   0  0  0  0  0  0  0  0  0  0  0  0
  151.3700  139.7584  156.4215 H   0  0  0  0  0  0  0  0  0  0  0  0
  151.1151  138.3320  157.3499 H   0  0  0  0  0  0  0  0  0  0  0  0
  151.8353  136.6779  155.4890 H   0  0  0  0  0  0  0  0  0  0  0  0
  151.3569  137.0112  153.8653 H   0  0  0  0  0  0  0  0  0  0  0  0
  153.5852  137.8368  154.1094 H   0  0  0  0  0  0  0  0  0  0  0  0
  153.1767  138.8033  155.5132 H   0  0  0  0  0  0  0  0  0  0  0  0
  152.5328  139.2343  153.9271 H   0  0  0  0  0  0  0  0  0  0  0  0
  148.6314  137.2105  156.4354 H   0  0  0  0  0  0  0  0  0  0  0  0
  149.3564  136.3160  153.6412 H   0  0  0  0  0  0  0  0  0  0  0  0
  149.2427  134.2436  153.0624 H   0  0  0  0  0  0  0  0  0  0  0  0
  149.2607  133.0950  154.3822 H   0  0  0  0  0  0  0  0  0  0  0  0
  147.4965  133.0081  151.2497 H   0  0  0  0  0  0  0  0  0  0  0  0
  145.1400  131.7821  150.3817 H   0  0  0  0  0  0  0  0  0  0  0  0
  143.8494  132.6905  151.1699 H   0  0  0  0  0  0  0  0  0  0  0  0
  144.2281  131.0495  151.7013 H   0  0  0  0  0  0  0  0  0  0  0  0
  147.8978  139.2639  155.5908 H   0  0  0  0  0  0  0  0  0  0  0  0
  147.3583  137.8349  152.9276 H   0  0  0  0  0  0  0  0  0  0  0  0
  146.5775  139.2892  153.5278 H   0  0  0  0  0  0  0  0  0  0  0  0
  146.2663  137.7453  154.3051 H   0  0  0  0  0  0  0  0  0  0  0  0
  149.7609  138.6704  153.2353 H   0  0  0  0  0  0  0  0  0  0  0  0
  148.9442  142.2990  154.1648 H   0  0  0  0  0  0  0  0  0  0  0  0
  147.8943  141.0597  154.8445 H   0  0  0  0  0  0  0  0  0  0  0  0
  148.2669  141.0577  153.1109 H   0  0  0  0  0  0  0  0  0  0  0  0
  1  2  1  0  0  0  0
  1 23  1  0  0  0  0
  1 24  1  0  0  0  0
  1 25  1  0  0  0  0
  2  3  1  0  0  0  0
  2 26  1  0  0  0  0
  2 27  1  0  0  0  0
  3 19  1  0  0  0  0
  3  4  1  0  0  0  0
  3  6  1  0  0  0  0
  4  5  1  0  0  0  0
  4 28  1  0  0  0  0
  4 29  1  0  0  0  0
  5 30  1  0  0  0  0
  5 31  1  0  0  0  0
  5 32  1  0  0  0  0
  6  7  1  0  0  0  0
  6 17  1  0  0  0  0
  6 33  1  0  0  0  0
  7  8  1  0  0  0  0
  7 34  1  0  0  0  0
  8  9  2  0  0  0  0
  8 10  1  0  0  0  0
 10 11  1  0  0  0  0
 10 35  1  0  0  0  0
 10 36  1  0  0  0  0
 11 16  2  0  0  0  0
 11 12  1  0  0  0  0
 12 13  2  0  0  0  0
 12 37  1  0  0  0  0
 13 14  1  0  0  0  0
 13 15  1  0  0  0  0
 14 38  1  0  0  0  0
 14 39  1  0  0  0  0
 14 40  1  0  0  0  0
 15 22  1  0  0  0  0
 15 16  1  0  0  0  0
 17 18  1  0  0  0  0
 17 19  1  0  0  0  0
 17 41  1  0  0  0  0
 18 42  1  0  0  0  0
 18 43  1  0  0  0  0
 18 44  1  0  0  0  0
 19 20  1  0  0  0  0
 19 45  1  0  0  0  0
 20 21  1  0  0  0  0
 21 46  1  0  0  0  0
 21 47  1  0  0  0  0
 21 48  1  0  0  0  0
M  END
> <s_m_source_file>
AV-unprocessed.smi

> <i_m_source_file_index>
2510

> <i_lp_mmshare_version>
43012

> <i_f3d_flags>
0

> <s_epik_input>
W0NIM11PW0NAQEhdMVtDQEhdKFtDSDNdKVtDQEBIXShDMShbQ0gyXVtDSDNdKVtDSDJdW0NIM10pW05IXUMoPU8pW0NIMl1jMltjSF1jKFtDSDNdKVtuSF1uMg==

> <s_epik_cmdline>
J2VwaWtfcHl0aG9uJywgJy1waCcsICc3LjAnLCAnLXRuJywgJzgnLCAnLW1hJywgJzIwMCcsICctbWV0YWxfYmluZGluZycsICctaW1hZScsICc8aW5maWxlLm1hZT4nLCAnLW9tYWUnLCAnPG91dGZpbGUubWFlPic=

> <r_lp_tautomer_probability>
0.5

> <r_epik_Ionization_Penalty>
9.73156e-05

> <r_epik_Ionization_Penalty_Charging>
0

> <r_epik_Ionization_Penalty_Neutral>
9.73156e-05

> <r_epik_State_Penalty>
0.41068

> <r_epik_Charging_Adjusted_Penalty>
0.41068

> <i_epik_Tot_Q>
0

> <i_epik_Tot_abs_Q>
0

> <r_epik_Metal_State_Penalty>
0.410699

> <b_epik_Metal_Only>
0

> <s_lp_Force_Field>
OPLS_2005

> <r_lp_Energy>
25.1692

> <b_lp_Chiralities_Consistent>
1

> <s_lp_Variant>
AV-unprocessed.smi:2510-4

> <Gold.Version>
5.8.1

> <Gold.Id.Protein>
6NUR|6NUR_protein|mol2

> <Gold.PLP.Fitness>
35.6672

> <Gold.PLP.PLP>
-28.8983

> <Gold.PLP.part.hbond>
-2.9887

> <Gold.PLP.part.metal>
0.0000

> <Gold.PLP.part.buried>
-2.8345

> <Gold.PLP.part.nonpolar>
-23.8470

> <Gold.PLP.part.repulsive>
0.2205

> <Gold.PLP.ligand.clash>
0.0000

> <Gold.PLP.ligand.torsion>
0.9146

> <Gold.PLP.Chemscore.Hbond>
2.6800

> <Gold.PLP.Chemscore.CHOScore>
0.0000

> <Gold.PLP.Chemscore.Metal>
0.0000

> <Gold.Chemscore.Hbonds>
donor molecule, donor type, donor heavy atom, donor atom, acceptor molecule, acceptor atom, score
      L1  H     7    34       P1  7948  0.86
      L1  H    15    22       P1 10957  1.00
      P1  H  7989  7998       L1    20  0.81

> <Gold.PLP.Chemscore.Internal.Correction>
0.5580

> <Gold.Rescore>
     Score         DG    S(hbond)    S(metal)    S(lipo)     H(rot)  DE(clash)    DE(int)     intcor
     15.08     -18.92       2.58        0.00      80.73       1.81       0.32       3.53       ----

> <Gold.Chemscore.Fitness>
15.0766

> <Gold.Chemscore.DG>
-18.9203

> <Gold.Chemscore.ZeroCoef>
-5.4800

> <Gold.Chemscore.Hbond>
2.5835

> <Gold.Chemscore.Metal>
0.0000

> <Gold.Chemscore.Lipo>
80.7304

> <Gold.Chemscore.Internal_Hbond>
0.0000

> <Gold.Chemscore.DEClash>
0.3187

> <Gold.Chemscore.DEInternal>
3.5250

> <Gold.Chemscore.Rot>
1.8102

> <Gold.Chemscore.Internal.Correction>
   9.000000E+99

> <Gold.Chemscore.Hbonds>
donor molecule, donor type, donor heavy atom, donor atom, acceptor molecule, acceptor atom, score
      L1  H     7    34       P1  7948  0.70
      L1  H    15    22       P1 10957  0.47
      P1  H  7989  7998       L1    20  0.55

> <Gold.Chemscore.Hbond.Weighted>
-8.6289

> <Gold.Chemscore.Metal.Weighted>
-0.0000

> <Gold.Chemscore.Lipo.Weighted>
-9.4455

> <Gold.Chemscore.Internal_Hbond.Weighted>
0.0000

> <Gold.Chemscore.DEClash.Weighted>
0.3187

> <Gold.Chemscore.DEInternal.Weighted>
3.5250

> <Gold.Chemscore.Rot.Weighted>
4.6341

> <Gold.Chemscore.Internal.Correction.Weighted>
   9.000000E+99

> <Gold.Protein.RotatedTorsions>
[ 6907 6896 6895 6894 ] final -147.54 input  -60.11 | X-H torsion
[ 7974 7965 7964 7962 ] final   19.05 input  175.53 | X-H torsion
[ 8008 7997 7996 7995 ] final   40.25 input   59.86 | X-H torsion
[ 10167 10162 10161 10158 ] final  -30.03 input  -65.29 | X-H torsion
[ 10718 10713 10712 10709 ] final -134.46 input   66.30 | X-H torsion
[ 10763 10752 10751 10750 ] final -118.12 input  -60.55 | X-H torsion
[ 11005 11000 10999 10996 ] final   -4.80 input  -57.11 | X-H torsion

> <Gold.Protein.ActiveResidues>
 VAL166  LYS551  ARG553  GLY616  TRP617  ASP618  TYR619  PRO620  LYS621  CYS622 
 ASP623  PHE694  ASN695  SER759  ASP760  ASP761  ALA762  ILE779  LEU786  VAL792 
 PHE793  MET794  SER795  GLU796  ALA797  LYS798  CYS799  TRP800  GLU811  SER814 

> <Gold.Protein.RotatedAtoms>
  151.1571  133.4869  159.2594 H   0  0  0  0  0  0  0  0  0  0  0  0  # atno 6907 bound_to 6896
  151.1493  135.0219  159.8671 H   0  0  0  0  0  0  0  0  0  0  0  0  # atno 6908 bound_to 6896
  152.5463  134.1457  159.8550 H   0  0  0  0  0  0  0  0  0  0  0  0  # atno 6909 bound_to 6896
  146.2163  139.8369  142.8649 H   0  0  0  0  0  0  0  0  0  0  0  0  # atno 7974 bound_to 7965
  155.2499  140.3351  155.4283 H   0  0  0  0  0  0  0  0  0  0  0  0  # atno 8008 bound_to 7997
  156.2220  140.1813  156.7498 H   0  0  0  0  0  0  0  0  0  0  0  0  # atno 8009 bound_to 7997
  154.5840  140.0649  156.9129 H   0  0  0  0  0  0  0  0  0  0  0  0  # atno 8010 bound_to 7997
  140.7254  143.3881  151.1479 H   0  0  0  0  0  0  0  0  0  0  0  0  # atno 10167 bound_to 10162
  156.2557  130.7180  151.1095 H   0  0  0  0  0  0  0  0  0  0  0  0  # atno 10718 bound_to 10713
  154.8577  135.4285  154.2089 H   0  0  0  0  0  0  0  0  0  0  0  0  # atno 10763 bound_to 10752
  153.3119  135.6976  153.7114 H   0  0  0  0  0  0  0  0  0  0  0  0  # atno 10764 bound_to 10752
  153.6203  135.3503  155.2982 H   0  0  0  0  0  0  0  0  0  0  0  0  # atno 10765 bound_to 10752
  140.6842  133.9127  155.8575 H   0  0  0  0  0  0  0  0  0  0  0  0  # atno 11005 bound_to 11000
  145.2939  141.0175  143.3647 LP  0  0  0  0  0  0  0  0  0  0  0  0  # atno 17320 bound_to 7965
  144.9057  139.4593  143.6611 LP  0  0  0  0  0  0  0  0  0  0  0  0  # atno 17321 bound_to 7965
  139.7481  143.8820  152.3069 LP  0  0  0  0  0  0  0  0  0  0  0  0  # atno 17342 bound_to 10162
  139.8664  144.7091  150.9038 LP  0  0  0  0  0  0  0  0  0  0  0  0  # atno 17343 bound_to 10162
  157.7231  131.0668  150.6048 LP  0  0  0  0  0  0  0  0  0  0  0  0  # atno 17370 bound_to 10713
  156.6132  130.4385  149.5851 LP  0  0  0  0  0  0  0  0  0  0  0  0  # atno 17371 bound_to 10713
  141.0293  134.0779  157.4032 LP  0  0  0  0  0  0  0  0  0  0  0  0  # atno 17394 bound_to 11000
  139.8942  135.0135  156.6941 LP  0  0  0  0  0  0  0  0  0  0  0  0  # atno 17395 bound_to 11000

$$$$
