AV-unprocessed.smi:1120|AV-procd|sdf|4820|dock9
  -GOLD-   22720 3373D 1   1.00000     0.00000
 Structure written by MMmdl.
 49 50  0  0  0  0  0  0  0  0  2 V2000
  149.0848  130.1233  153.5505 C   0  0  0  0  0  0  0  0  0  0  0  0
  149.0762  131.4955  154.2391 C   0  0  2  0  0  0  0  0  0  0  0  0
  149.1060  132.6431  153.2109 C   0  0  0  0  0  0  0  0  0  0  0  0
  149.0978  134.0190  153.8965 C   0  0  0  0  0  0  0  0  0  0  0  0
  150.2605  134.1503  154.8946 C   0  0  1  0  0  0  0  0  0  0  0  0
  150.1818  135.4413  155.5807 N   0  0  0  0  0  0  0  0  0  0  0  0
  151.3677  135.9260  156.7388 S   0  0  0  0  0  0  0  0  0  0  0  0
  151.8592  134.7038  157.3931 O   0  0  0  0  0  0  0  0  0  0  0  0
  152.3033  136.8264  156.0468 O   0  0  0  0  0  0  0  0  0  0  0  0
  150.3828  136.8977  157.9694 C   0  0  0  0  0  0  0  0  0  0  0  0
  149.6927  138.0851  157.2994 C   0  0  0  0  0  0  0  0  0  0  0  0
  148.8696  137.8948  156.4047 O   0  0  0  0  0  0  0  0  0  0  0  0
  150.0376  139.3060  157.7364 N   0  0  0  0  0  0  0  0  0  0  0  0
  149.4823  140.5589  157.2407 C   0  0  0  0  0  0  0  0  0  0  0  0
  150.5659  141.4489  156.6086 C   0  0  0  0  0  0  0  0  0  0  0  0
  151.1870  142.3958  157.6164 C   0  0  0  0  0  0  0  0  0  0  0  0
  151.9773  141.9341  158.6912 C   0  0  0  0  0  0  0  0  0  0  0  0
  152.5171  142.8677  159.6004 C   0  0  0  0  0  0  0  0  0  0  0  0
  152.2547  144.2411  159.4170 C   0  0  0  0  0  0  0  0  0  0  0  0
  151.4574  144.6468  158.3274 C   0  0  0  0  0  0  0  0  0  0  0  0
  150.9583  143.7220  157.4780 N   0  3  0  0  0  0  0  0  0  0  0  0
  150.2440  133.0065  155.9239 C   0  0  0  0  0  0  0  0  0  0  0  0
  150.2456  131.6335  155.2333 C   0  0  0  0  0  0  0  0  0  0  0  0
  149.9957  129.9761  152.9694 H   0  0  0  0  0  0  0  0  0  0  0  0
  148.2375  130.0186  152.8726 H   0  0  0  0  0  0  0  0  0  0  0  0
  149.0225  129.3168  154.2817 H   0  0  0  0  0  0  0  0  0  0  0  0
  148.1451  131.5737  154.8026 H   0  0  0  0  0  0  0  0  0  0  0  0
  149.9954  132.5552  152.5855 H   0  0  0  0  0  0  0  0  0  0  0  0
  148.2494  132.5660  152.5403 H   0  0  0  0  0  0  0  0  0  0  0  0
  149.1611  134.8057  153.1435 H   0  0  0  0  0  0  0  0  0  0  0  0
  148.1470  134.1604  154.4126 H   0  0  0  0  0  0  0  0  0  0  0  0
  151.1973  134.1053  154.3377 H   0  0  0  0  0  0  0  0  0  0  0  0
  149.2458  135.8159  155.7319 H   0  0  0  0  0  0  0  0  0  0  0  0
  149.6665  136.2449  158.4670 H   0  0  0  0  0  0  0  0  0  0  0  0
  151.0730  137.2671  158.7283 H   0  0  0  0  0  0  0  0  0  0  0  0
  150.7284  139.3703  158.4701 H   0  0  0  0  0  0  0  0  0  0  0  0
  148.7181  140.3188  156.5010 H   0  0  0  0  0  0  0  0  0  0  0  0
  148.9773  141.0874  158.0510 H   0  0  0  0  0  0  0  0  0  0  0  0
  151.3547  140.8348  156.1719 H   0  0  0  0  0  0  0  0  0  0  0  0
  150.1414  142.0303  155.7888 H   0  0  0  0  0  0  0  0  0  0  0  0
  152.1660  140.8781  158.8202 H   0  0  0  0  0  0  0  0  0  0  0  0
  153.1242  142.5333  160.4291 H   0  0  0  0  0  0  0  0  0  0  0  0
  152.6582  144.9720  160.1026 H   0  0  0  0  0  0  0  0  0  0  0  0
  151.2052  145.6746  158.1111 H   0  0  0  0  0  0  0  0  0  0  0  0
  151.1080  133.0816  156.5843 H   0  0  0  0  0  0  0  0  0  0  0  0
  149.3605  133.0910  156.5583 H   0  0  0  0  0  0  0  0  0  0  0  0
  150.1896  130.8471  155.9867 H   0  0  0  0  0  0  0  0  0  0  0  0
  151.1928  131.4923  154.7106 H   0  0  0  0  0  0  0  0  0  0  0  0
  150.3835  144.0386  156.6969 H   0  0  0  0  0  0  0  0  0  0  0  0
  1  2  1  0  0  0  0
  1 24  1  0  0  0  0
  1 25  1  0  0  0  0
  1 26  1  0  0  0  0
  2 23  1  0  0  0  0
  2  3  1  0  0  0  0
  2 27  1  0  0  0  0
  3  4  1  0  0  0  0
  3 28  1  0  0  0  0
  3 29  1  0  0  0  0
  4  5  1  0  0  0  0
  4 30  1  0  0  0  0
  4 31  1  0  0  0  0
  5  6  1  0  0  0  0
  5 22  1  0  0  0  0
  5 32  1  0  0  0  0
  6  7  1  0  0  0  0
  6 33  1  0  0  0  0
  7  8  2  0  0  0  0
  7  9  2  0  0  0  0
  7 10  1  0  0  0  0
 10 11  1  0  0  0  0
 10 34  1  0  0  0  0
 10 35  1  0  0  0  0
 11 12  2  0  0  0  0
 11 13  1  0  0  0  0
 13 14  1  0  0  0  0
 13 36  1  0  0  0  0
 14 15  1  0  0  0  0
 14 37  1  0  0  0  0
 14 38  1  0  0  0  0
 15 16  1  0  0  0  0
 15 39  1  0  0  0  0
 15 40  1  0  0  0  0
 16 21  1  0  0  0  0
 16 17  2  0  0  0  0
 17 18  1  0  0  0  0
 17 41  1  0  0  0  0
 18 19  2  0  0  0  0
 18 42  1  0  0  0  0
 19 20  1  0  0  0  0
 19 43  1  0  0  0  0
 20 21  2  0  0  0  0
 20 44  1  0  0  0  0
 21 49  1  0  0  0  0
 22 23  1  0  0  0  0
 22 45  1  0  0  0  0
 22 46  1  0  0  0  0
 23 47  1  0  0  0  0
 23 48  1  0  0  0  0
M  CHG  1  21   1
M  END
> <s_m_source_file>
AV-unprocessed.smi

> <i_m_source_file_index>
1120

> <i_lp_mmshare_version>
43012

> <i_f3d_flags>
0

> <s_epik_input>
W0NIM11bQ0BASF0xW0NIMl1bQ0gyXVtDQEhdKFtDSDJdW0NIMl0xKVtOSF1TKD1PKSg9TylbQ0gyXUMoPU8pW05IXVtDSDJdW0NIMl1jMltjSF1bY0hdW2NIXVtjSF1uMg==

> <s_epik_cmdline>
J2VwaWtfcHl0aG9uJywgJy1waCcsICc3LjAnLCAnLXRuJywgJzgnLCAnLW1hJywgJzIwMCcsICctbWV0YWxfYmluZGluZycsICctaW1hZScsICc8aW5maWxlLm1hZT4nLCAnLW9tYWUnLCAnPG91dGZpbGUubWFlPic=

> <r_epik_Ionization_Penalty>
1.97387

> <r_epik_Ionization_Penalty_Charging>
1.97382

> <r_epik_Ionization_Penalty_Neutral>
4.57635e-05

> <r_epik_State_Penalty>
2.10057

> <r_epik_Charging_Adjusted_Penalty>
4.07439

> <i_epik_Tot_Q>
1

> <i_epik_Tot_abs_Q>
1

> <r_epik_Metal_State_Penalty>
2.15877

> <b_epik_Metal_Only>
0

> <s_lp_Force_Field>
OPLS_2005

> <r_lp_Energy>
9.01473

> <b_lp_Chiralities_Consistent>
1

> <s_lp_Variant>
AV-unprocessed.smi:1120-3

> <Gold.Version>
5.8.1

> <Gold.Id.Protein>
6NUR|6NUR_protein|mol2

> <Gold.PLP.Fitness>
50.4792

> <Gold.PLP.PLP>
-42.1048

> <Gold.PLP.part.hbond>
-3.0000

> <Gold.PLP.part.metal>
0.0000

> <Gold.PLP.part.buried>
-5.3987

> <Gold.PLP.part.nonpolar>
-33.3965

> <Gold.PLP.part.repulsive>
0.1725

> <Gold.PLP.ligand.clash>
0.0000

> <Gold.PLP.ligand.torsion>
0.8824

> <Gold.PLP.Chemscore.Hbond>
3.0000

> <Gold.PLP.Chemscore.CHOScore>
0.0000

> <Gold.PLP.Chemscore.Metal>
0.0000

> <Gold.Chemscore.Hbonds>
donor molecule, donor type, donor heavy atom, donor atom, acceptor molecule, acceptor atom, score
      L1  H    21    49       P1  8028  2.00
      P1  H 10752 10764       L1     9  0.80

> <Gold.PLP.Chemscore.Internal.Correction>
1.1392

> <Gold.Rescore>
     Score         DG    S(hbond)    S(metal)    S(lipo)     H(rot)  DE(clash)    DE(int)     intcor
     14.67     -18.30       1.86        0.00     101.27       2.05       0.03       3.59       ----

> <Gold.Chemscore.Fitness>
14.6749

> <Gold.Chemscore.DG>
-18.3007

> <Gold.Chemscore.ZeroCoef>
-5.4800

> <Gold.Chemscore.Hbond>
1.8593

> <Gold.Chemscore.Metal>
0.0000

> <Gold.Chemscore.Lipo>
101.2749

> <Gold.Chemscore.Internal_Hbond>
0.0000

> <Gold.Chemscore.DEClash>
0.0348

> <Gold.Chemscore.DEInternal>
3.5911

> <Gold.Chemscore.Rot>
2.0463

> <Gold.Chemscore.Internal.Correction>
   9.000000E+99

> <Gold.Chemscore.Hbonds>
donor molecule, donor type, donor heavy atom, donor atom, acceptor molecule, acceptor atom, score
      L1  H    21    49       P1  8028  0.99
      P1  H  6896  6909       L1     8  0.01
      P1  H 10752 10764       L1     9  0.11

> <Gold.Chemscore.Hbond.Weighted>
-6.2101

> <Gold.Chemscore.Metal.Weighted>
-0.0000

> <Gold.Chemscore.Lipo.Weighted>
-11.8492

> <Gold.Chemscore.Internal_Hbond.Weighted>
0.0000

> <Gold.Chemscore.DEClash.Weighted>
0.0348

> <Gold.Chemscore.DEInternal.Weighted>
3.5911

> <Gold.Chemscore.Rot.Weighted>
5.2386

> <Gold.Chemscore.Internal.Correction.Weighted>
   9.000000E+99

> <Gold.Protein.RotatedTorsions>
[ 6907 6896 6895 6894 ] final   12.93 input  -60.11 | X-H torsion
[ 7974 7965 7964 7962 ] final    2.72 input  175.53 | X-H torsion
[ 8008 7997 7996 7995 ] final -105.51 input   59.86 | X-H torsion
[ 10167 10162 10161 10158 ] final   79.08 input  -65.29 | X-H torsion
[ 10718 10713 10712 10709 ] final -139.02 input   66.30 | X-H torsion
[ 10763 10752 10751 10750 ] final  -31.94 input  -60.55 | X-H torsion
[ 11005 11000 10999 10996 ] final -177.76 input  -57.11 | X-H torsion

> <Gold.Protein.ActiveResidues>
 VAL166  LYS551  ARG553  GLY616  TRP617  ASP618  TYR619  PRO620  LYS621  CYS622 
 ASP623  PHE694  ASN695  SER759  ASP760  ASP761  ALA762  ILE779  LEU786  VAL792 
 PHE793  MET794  SER795  GLU796  ALA797  LYS798  CYS799  TRP800  GLU811  SER814 

> <Gold.Protein.RotatedAtoms>
  151.7782  135.0768  160.0369 H   0  0  0  0  0  0  0  0  0  0  0  0  # atno 6907 bound_to 6896
  152.3241  133.5882  159.5773 H   0  0  0  0  0  0  0  0  0  0  0  0  # atno 6908 bound_to 6896
  150.7386  133.9882  159.3640 H   0  0  0  0  0  0  0  0  0  0  0  0  # atno 6909 bound_to 6896
  146.2444  140.0794  142.8358 H   0  0  0  0  0  0  0  0  0  0  0  0  # atno 7974 bound_to 7965
  154.9009  140.0413  157.1893 H   0  0  0  0  0  0  0  0  0  0  0  0  # atno 8008 bound_to 7997
  154.8444  140.2919  155.5617 H   0  0  0  0  0  0  0  0  0  0  0  0  # atno 8009 bound_to 7997
  156.2993  140.2476  156.3392 H   0  0  0  0  0  0  0  0  0  0  0  0  # atno 8010 bound_to 7997
  139.9641  144.5940  150.8045 H   0  0  0  0  0  0  0  0  0  0  0  0  # atno 10167 bound_to 10162
  156.3060  130.7455  151.1519 H   0  0  0  0  0  0  0  0  0  0  0  0  # atno 10718 bound_to 10713
  153.8056  135.6886  153.4849 H   0  0  0  0  0  0  0  0  0  0  0  0  # atno 10763 bound_to 10752
  153.1661  135.4561  154.9837 H   0  0  0  0  0  0  0  0  0  0  0  0  # atno 10764 bound_to 10752
  154.7988  135.3329  154.7541 H   0  0  0  0  0  0  0  0  0  0  0  0  # atno 10765 bound_to 10752
  140.4373  134.6464  157.4741 H   0  0  0  0  0  0  0  0  0  0  0  0  # atno 11005 bound_to 11000
  145.0746  140.9179  143.4861 LP  0  0  0  0  0  0  0  0  0  0  0  0  # atno 17320 bound_to 7965
  145.0935  139.2873  143.5723 LP  0  0  0  0  0  0  0  0  0  0  0  0  # atno 17321 bound_to 7965
  140.7543  143.3025  151.3044 LP  0  0  0  0  0  0  0  0  0  0  0  0  # atno 17342 bound_to 10162
  139.6531  144.0325  152.2640 LP  0  0  0  0  0  0  0  0  0  0  0  0  # atno 17343 bound_to 10162
  157.7379  131.0546  150.5324 LP  0  0  0  0  0  0  0  0  0  0  0  0  # atno 17370 bound_to 10713
  156.5458  130.4219  149.6132 LP  0  0  0  0  0  0  0  0  0  0  0  0  # atno 17371 bound_to 10713
  140.0094  134.6714  155.9405 LP  0  0  0  0  0  0  0  0  0  0  0  0  # atno 17394 bound_to 11000
  141.1720  133.6538  156.4688 LP  0  0  0  0  0  0  0  0  0  0  0  0  # atno 17395 bound_to 11000

$$$$
