AV-unprocessed.smi:1645|AV-procd|sdf|6602|dock6
  -GOLD-   22720 7303D 1   1.00000     0.00000
 Structure written by MMmdl.
 55 58  0  0  0  0  0  0  0  0  2 V2000
  146.9294  136.3011  155.5683 O   0  0  0  0  0  0  0  0  0  0  0  0
  147.4522  136.4238  154.4611 C   0  0  0  0  0  0  0  0  0  0  0  0
  148.3814  137.3387  154.1372 N   0  0  0  0  0  0  0  0  0  0  0  0
  149.0145  138.2893  154.9822 C   0  0  0  0  0  0  0  0  0  0  0  0
  148.7576  138.4185  156.3667 C   0  0  0  0  0  0  0  0  0  0  0  0
  149.4725  139.3806  157.1058 C   0  0  0  0  0  0  0  0  0  0  0  0
  150.4324  140.1864  156.4495 C   0  0  0  0  0  0  0  0  0  0  0  0
  151.1653  141.1500  157.1765 N   0  0  0  0  0  0  0  0  0  0  0  0
  151.8000  140.7213  158.4258 C   0  0  0  0  0  0  0  0  0  0  0  0
  152.8491  141.7430  158.8969 C   0  0  0  0  0  0  0  0  0  0  0  0
  152.2436  143.1505  158.9963 C   0  0  0  0  0  0  0  0  0  0  0  0
  151.6017  143.5420  157.6573 C   0  0  0  0  0  0  0  0  0  0  0  0
  150.5741  142.4897  157.2070 C   0  0  0  0  0  0  0  0  0  0  0  0
  150.6778  140.0569  155.1226 N   0  0  0  0  0  0  0  0  0  0  0  0
  149.9929  139.1319  154.4186 C   0  0  0  0  0  0  0  0  0  0  0  0
  147.1354  135.6590  153.4068 N   0  0  0  0  0  0  0  0  0  0  0  0
  146.1531  134.5787  153.4189 C   0  0  2  0  0  0  0  0  0  0  0  0
  146.5070  133.4461  154.3887 C   0  0  0  0  0  0  0  0  0  0  0  0
  145.8970  132.2144  153.7223 C   0  0  0  0  0  0  0  0  0  0  0  0
  146.1472  132.4490  152.2930 N   0  3  1  0  0  0  0  0  0  0  0  0
  145.5557  131.4859  151.3283 C   0  0  0  0  0  0  0  0  0  0  0  0
  144.1621  131.8940  150.8372 C   0  0  0  0  0  0  0  0  0  0  0  0
  144.2000  133.3189  150.2839 C   0  0  0  0  0  0  0  0  0  0  0  0
  144.6171  134.2671  151.4082 C   0  0  0  0  0  0  0  0  0  0  0  0
  145.9903  133.9066  152.0298 C   0  0  1  0  0  0  0  0  0  0  0  0
  148.6426  137.3859  153.1633 H   0  0  0  0  0  0  0  0  0  0  0  0
  148.0419  137.7936  156.8777 H   0  0  0  0  0  0  0  0  0  0  0  0
  149.2724  139.4939  158.1609 H   0  0  0  0  0  0  0  0  0  0  0  0
  151.0334  140.5945  159.1915 H   0  0  0  0  0  0  0  0  0  0  0  0
  152.2832  139.7529  158.2891 H   0  0  0  0  0  0  0  0  0  0  0  0
  153.2558  141.4414  159.8623 H   0  0  0  0  0  0  0  0  0  0  0  0
  153.6859  141.7546  158.1974 H   0  0  0  0  0  0  0  0  0  0  0  0
  151.4919  143.1727  159.7863 H   0  0  0  0  0  0  0  0  0  0  0  0
  153.0116  143.8733  159.2730 H   0  0  0  0  0  0  0  0  0  0  0  0
  151.1231  144.5178  157.7438 H   0  0  0  0  0  0  0  0  0  0  0  0
  152.3764  143.6433  156.8961 H   0  0  0  0  0  0  0  0  0  0  0  0
  150.1788  142.7791  156.2342 H   0  0  0  0  0  0  0  0  0  0  0  0
  149.7285  142.4790  157.8961 H   0  0  0  0  0  0  0  0  0  0  0  0
  150.2342  139.0662  153.3676 H   0  0  0  0  0  0  0  0  0  0  0  0
  147.6137  135.8320  152.5349 H   0  0  0  0  0  0  0  0  0  0  0  0
  145.1984  134.9879  153.7552 H   0  0  0  0  0  0  0  0  0  0  0  0
  147.5896  133.3257  154.4573 H   0  0  0  0  0  0  0  0  0  0  0  0
  146.1241  133.6147  155.3955 H   0  0  0  0  0  0  0  0  0  0  0  0
  146.3498  131.2849  154.0684 H   0  0  0  0  0  0  0  0  0  0  0  0
  144.8224  132.1679  153.9065 H   0  0  0  0  0  0  0  0  0  0  0  0
  146.2271  131.4321  150.4704 H   0  0  0  0  0  0  0  0  0  0  0  0
  145.5359  130.4856  151.7628 H   0  0  0  0  0  0  0  0  0  0  0  0
  143.8250  131.2024  150.0644 H   0  0  0  0  0  0  0  0  0  0  0  0
  143.4405  131.8251  151.6523 H   0  0  0  0  0  0  0  0  0  0  0  0
  144.8976  133.3872  149.4481 H   0  0  0  0  0  0  0  0  0  0  0  0
  143.2182  133.6003  149.9015 H   0  0  0  0  0  0  0  0  0  0  0  0
  144.6372  135.2932  151.0403 H   0  0  0  0  0  0  0  0  0  0  0  0
  143.8387  134.2361  152.1719 H   0  0  0  0  0  0  0  0  0  0  0  0
  146.7867  134.1959  151.3422 H   0  0  0  0  0  0  0  0  0  0  0  0
  147.1422  132.2939  152.2165 H   0  0  0  0  0  0  0  0  0  0  0  0
  1  2  2  0  0  0  0
  2  3  1  0  0  0  0
  2 16  1  0  0  0  0
  3  4  1  0  0  0  0
  3 26  1  0  0  0  0
  4 15  1  0  0  0  0
  4  5  2  0  0  0  0
  5  6  1  0  0  0  0
  5 27  1  0  0  0  0
  6  7  2  0  0  0  0
  6 28  1  0  0  0  0
  7  8  1  0  0  0  0
  7 14  1  0  0  0  0
  8 13  1  0  0  0  0
  8  9  1  0  0  0  0
  9 10  1  0  0  0  0
  9 29  1  0  0  0  0
  9 30  1  0  0  0  0
 10 11  1  0  0  0  0
 10 31  1  0  0  0  0
 10 32  1  0  0  0  0
 11 12  1  0  0  0  0
 11 33  1  0  0  0  0
 11 34  1  0  0  0  0
 12 13  1  0  0  0  0
 12 35  1  0  0  0  0
 12 36  1  0  0  0  0
 13 37  1  0  0  0  0
 13 38  1  0  0  0  0
 14 15  2  0  0  0  0
 15 39  1  0  0  0  0
 16 17  1  0  0  0  0
 16 40  1  0  0  0  0
 17 25  1  0  0  0  0
 17 18  1  0  0  0  0
 17 41  1  0  0  0  0
 18 19  1  0  0  0  0
 18 42  1  0  0  0  0
 18 43  1  0  0  0  0
 19 20  1  0  0  0  0
 19 44  1  0  0  0  0
 19 45  1  0  0  0  0
 20 25  1  0  0  0  0
 20 21  1  0  0  0  0
 20 55  1  0  0  0  0
 21 22  1  0  0  0  0
 21 46  1  0  0  0  0
 21 47  1  0  0  0  0
 22 23  1  0  0  0  0
 22 48  1  0  0  0  0
 22 49  1  0  0  0  0
 23 24  1  0  0  0  0
 23 50  1  0  0  0  0
 23 51  1  0  0  0  0
 24 25  1  0  0  0  0
 24 52  1  0  0  0  0
 24 53  1  0  0  0  0
 25 54  1  0  0  0  0
M  CHG  1  20   1
M  END
> <s_m_source_file>
AV-unprocessed.smi

> <i_m_source_file_index>
1645

> <i_lp_mmshare_version>
43012

> <i_f3d_flags>
0

> <s_epik_input>
W0NIMl0xW0NIMl1bQ0gyXVtDSDJdW0NASF0oTjEyKVtDQEBIXShbQ0gyXVtDSDJdMilbTkhdQyg9TylbTkhdYzNbY0hdW2NIXWMobltjSF0zKU40W0NIMl1bQ0gyXVtDSDJdW0NIMl1bQ0gyXTQ=

> <s_epik_cmdline>
J2VwaWtfcHl0aG9uJywgJy1waCcsICc3LjAnLCAnLXRuJywgJzgnLCAnLW1hJywgJzIwMCcsICctbWV0YWxfYmluZGluZycsICctaW1hZScsICc8aW5maWxlLm1hZT4nLCAnLW9tYWUnLCAnPG91dGZpbGUubWFlPic=

> <r_lp_tautomer_probability>
1

> <r_epik_Ionization_Penalty>
0.0808019

> <r_epik_Ionization_Penalty_Charging>
0.000974069

> <r_epik_Ionization_Penalty_Neutral>
0.0798278

> <r_epik_State_Penalty>
0.0653665

> <r_epik_Charging_Adjusted_Penalty>
0.0663406

> <i_epik_Tot_Q>
1

> <i_epik_Tot_abs_Q>
1

> <r_epik_Metal_State_Penalty>
0.0585673

> <b_epik_Metal_Only>
0

> <s_lp_Force_Field>
OPLS_2005

> <r_lp_Energy>
57.6774

> <b_lp_Chiralities_Consistent>
1

> <s_lp_Variant>
AV-unprocessed.smi:1645-3

> <Gold.Version>
5.8.1

> <Gold.Id.Protein>
6NUR|6NUR_protein|mol2

> <Gold.PLP.Fitness>
45.5461

> <Gold.PLP.PLP>
-35.6453

> <Gold.PLP.part.hbond>
-2.6942

> <Gold.PLP.part.metal>
0.0000

> <Gold.PLP.part.buried>
-5.1602

> <Gold.PLP.part.nonpolar>
-28.6993

> <Gold.PLP.part.repulsive>
0.1100

> <Gold.PLP.ligand.clash>
0.0000

> <Gold.PLP.ligand.torsion>
0.4830

> <Gold.PLP.Chemscore.Hbond>
2.4866

> <Gold.PLP.Chemscore.CHOScore>
1.0000

> <Gold.PLP.Chemscore.Metal>
0.0000

> <Gold.Chemscore.Hbonds>
donor molecule, donor type, donor heavy atom, donor atom, acceptor molecule, acceptor atom, score
      L1  H     3    26       P1  7948  0.75
      L1  H    16    40       P1  7948  0.94
      P1  H  7989  7998       L1    14  0.75
      L1  C    15    39       P1  7957  1.00

> <Gold.PLP.Chemscore.Internal.Correction>
0.4070

> <Gold.Rescore>
     Score         DG    S(hbond)    S(metal)    S(lipo)     H(rot)  DE(clash)    DE(int)     intcor
     19.99     -21.81       2.25        0.00     101.16       1.17       0.11       1.71       ----

> <Gold.Chemscore.Fitness>
19.9949

> <Gold.Chemscore.DG>
-21.8144

> <Gold.Chemscore.ZeroCoef>
-5.4800

> <Gold.Chemscore.Hbond>
2.2463

> <Gold.Chemscore.Metal>
0.0000

> <Gold.Chemscore.Lipo>
101.1553

> <Gold.Chemscore.Internal_Hbond>
0.0000

> <Gold.Chemscore.DEClash>
0.1084

> <Gold.Chemscore.DEInternal>
1.7111

> <Gold.Chemscore.Rot>
1.1731

> <Gold.Chemscore.Internal.Correction>
   9.000000E+99

> <Gold.Chemscore.Hbonds>
donor molecule, donor type, donor heavy atom, donor atom, acceptor molecule, acceptor atom, score
      L1  H     3    26       P1  7948  0.74
      L1  H    16    40       P1  7948  0.86
      P1  H  7989  7998       L1    14  0.11

> <Gold.Chemscore.Hbond.Weighted>
-7.5025

> <Gold.Chemscore.Metal.Weighted>
-0.0000

> <Gold.Chemscore.Lipo.Weighted>
-11.8352

> <Gold.Chemscore.Internal_Hbond.Weighted>
0.0000

> <Gold.Chemscore.DEClash.Weighted>
0.1084

> <Gold.Chemscore.DEInternal.Weighted>
1.7111

> <Gold.Chemscore.Rot.Weighted>
3.0032

> <Gold.Chemscore.Internal.Correction.Weighted>
   9.000000E+99

> <Gold.Protein.RotatedTorsions>
[ 6907 6896 6895 6894 ] final  114.63 input  -60.11 | X-H torsion
[ 7974 7965 7964 7962 ] final -121.86 input  175.53 | X-H torsion
[ 8008 7997 7996 7995 ] final  -30.76 input   59.86 | X-H torsion
[ 10167 10162 10161 10158 ] final -149.62 input  -65.29 | X-H torsion
[ 10718 10713 10712 10709 ] final   88.60 input   66.30 | X-H torsion
[ 10763 10752 10751 10750 ] final  173.66 input  -60.55 | X-H torsion
[ 11005 11000 10999 10996 ] final  140.36 input  -57.11 | X-H torsion

> <Gold.Protein.ActiveResidues>
 VAL166  LYS551  ARG553  GLY616  TRP617  ASP618  TYR619  PRO620  LYS621  CYS622 
 ASP623  PHE694  ASN695  SER759  ASP760  ASP761  ALA762  ILE779  LEU786  VAL792 
 PHE793  MET794  SER795  GLU796  ALA797  LYS798  CYS799  TRP800  GLU811  SER814 

> <Gold.Protein.RotatedAtoms>
  152.4791  133.8210  159.7052 H   0  0  0  0  0  0  0  0  0  0  0  0  # atno 6907 bound_to 6896
  150.8828  133.7340  159.2934 H   0  0  0  0  0  0  0  0  0  0  0  0  # atno 6908 bound_to 6896
  151.4838  135.1057  159.9837 H   0  0  0  0  0  0  0  0  0  0  0  0  # atno 6909 bound_to 6896
  145.0357  140.8104  143.4297 H   0  0  0  0  0  0  0  0  0  0  0  0  # atno 7974 bound_to 7965
  154.4238  140.1782  156.1458 H   0  0  0  0  0  0  0  0  0  0  0  0  # atno 8008 bound_to 7997
  155.9955  140.3365  155.6769 H   0  0  0  0  0  0  0  0  0  0  0  0  # atno 8009 bound_to 7997
  155.6314  140.0670  157.2638 H   0  0  0  0  0  0  0  0  0  0  0  0  # atno 8010 bound_to 7997
  139.7426  143.8639  152.2566 H   0  0  0  0  0  0  0  0  0  0  0  0  # atno 10167 bound_to 10162
  157.6950  131.0301  150.3300 H   0  0  0  0  0  0  0  0  0  0  0  0  # atno 10718 bound_to 10713
  154.4432  135.2762  155.1833 H   0  0  0  0  0  0  0  0  0  0  0  0  # atno 10763 bound_to 10752
  154.3691  135.6112  153.5734 H   0  0  0  0  0  0  0  0  0  0  0  0  # atno 10764 bound_to 10752
  152.9842  135.5853  154.4763 H   0  0  0  0  0  0  0  0  0  0  0  0  # atno 10765 bound_to 10752
  140.0322  134.9346  157.0684 H   0  0  0  0  0  0  0  0  0  0  0  0  # atno 11005 bound_to 11000
  145.1713  139.2403  143.5341 LP  0  0  0  0  0  0  0  0  0  0  0  0  # atno 17320 bound_to 7965
  146.3504  140.1464  142.8593 LP  0  0  0  0  0  0  0  0  0  0  0  0  # atno 17321 bound_to 7965
  139.8594  144.7125  150.9118 LP  0  0  0  0  0  0  0  0  0  0  0  0  # atno 17342 bound_to 10162
  140.7788  143.3830  151.1442 LP  0  0  0  0  0  0  0  0  0  0  0  0  # atno 17343 bound_to 10162
  156.3775  130.3874  149.7127 LP  0  0  0  0  0  0  0  0  0  0  0  0  # atno 17370 bound_to 10713
  156.4521  130.7911  151.2933 LP  0  0  0  0  0  0  0  0  0  0  0  0  # atno 17371 bound_to 10713
  140.4207  134.1884  155.7164 LP  0  0  0  0  0  0  0  0  0  0  0  0  # atno 17394 bound_to 11000
  141.1837  133.8358  157.1165 LP  0  0  0  0  0  0  0  0  0  0  0  0  # atno 17395 bound_to 11000

$$$$
