AV-unprocessed.smi:2840|AV-procd|sdf|10932|dock8
  -GOLD-   2272015383D 1   1.00000     0.00000
 Structure written by MMmdl.
 36 37  0  0  0  0  0  0  0  0  1 V2000
  151.6126  145.4102  159.2698 C   0  0  0  0  0  0  0  0  0  0  0  0
  152.4952  144.3360  159.9280 C   0  0  1  0  0  0  0  0  0  0  0  0
  152.0030  143.9901  161.3487 C   0  0  0  0  0  0  0  0  0  0  0  0
  152.9230  142.9652  162.0308 C   0  0  0  0  0  0  0  0  0  0  0  0
  153.0699  141.6938  161.1821 C   0  0  0  0  0  0  0  0  0  0  0  0
  153.5582  142.0257  159.7612 C   0  0  0  0  0  0  0  0  0  0  0  0
  152.6553  143.0610  159.0600 C   0  0  1  0  0  0  0  0  0  0  0  0
  151.3630  142.4514  158.7377 N   0  0  0  0  0  0  0  0  0  0  0  0
  150.7779  142.4279  157.5307 C   0  0  0  0  0  0  0  0  0  0  0  0
  151.2580  142.9586  156.5287 O   0  0  0  0  0  0  0  0  0  0  0  0
  149.6145  141.7550  157.5717 N   0  0  0  0  0  0  0  0  0  0  0  0
  148.7183  141.4830  156.5037 C   0  0  0  0  0  0  0  0  0  0  0  0
  149.3232  141.3560  155.2327 C   0  0  0  0  0  0  0  0  0  0  0  0
  148.5203  141.0929  154.1058 C   0  0  0  0  0  0  0  0  0  0  0  0
  147.1311  140.9614  154.2795 C   0  0  0  0  0  0  0  0  0  0  0  0
  146.6094  141.0992  155.5790 C   0  0  0  0  0  0  0  0  0  0  0  0
  147.3769  141.3525  156.6601 N   0  0  0  0  0  0  0  0  0  0  0  0
  150.5751  145.0861  159.1877 H   0  0  0  0  0  0  0  0  0  0  0  0
  151.9685  145.6487  158.2671 H   0  0  0  0  0  0  0  0  0  0  0  0
  151.6230  146.3330  159.8501 H   0  0  0  0  0  0  0  0  0  0  0  0
  153.4891  144.7741  160.0319 H   0  0  0  0  0  0  0  0  0  0  0  0
  151.9558  144.8946  161.9561 H   0  0  0  0  0  0  0  0  0  0  0  0
  150.9865  143.5969  161.3057 H   0  0  0  0  0  0  0  0  0  0  0  0
  153.9055  143.4096  162.1951 H   0  0  0  0  0  0  0  0  0  0  0  0
  152.5302  142.7110  163.0156 H   0  0  0  0  0  0  0  0  0  0  0  0
  153.7676  141.0071  161.6622 H   0  0  0  0  0  0  0  0  0  0  0  0
  152.1128  141.1735  161.1335 H   0  0  0  0  0  0  0  0  0  0  0  0
  154.5740  142.4189  159.8189 H   0  0  0  0  0  0  0  0  0  0  0  0
  153.6215  141.1141  159.1655 H   0  0  0  0  0  0  0  0  0  0  0  0
  153.1566  143.3455  158.1333 H   0  0  0  0  0  0  0  0  0  0  0  0
  150.8836  141.9948  159.4997 H   0  0  0  0  0  0  0  0  0  0  0  0
  149.3480  141.3759  158.4681 H   0  0  0  0  0  0  0  0  0  0  0  0
  150.3923  141.4605  155.1170 H   0  0  0  0  0  0  0  0  0  0  0  0
  148.9633  140.9947  153.1256 H   0  0  0  0  0  0  0  0  0  0  0  0
  146.4827  140.7601  153.4398 H   0  0  0  0  0  0  0  0  0  0  0  0
  145.5481  141.0046  155.7553 H   0  0  0  0  0  0  0  0  0  0  0  0
  1  2  1  0  0  0  0
  1 18  1  0  0  0  0
  1 19  1  0  0  0  0
  1 20  1  0  0  0  0
  2  7  1  0  0  0  0
  2  3  1  0  0  0  0
  2 21  1  0  0  0  0
  3  4  1  0  0  0  0
  3 22  1  0  0  0  0
  3 23  1  0  0  0  0
  4  5  1  0  0  0  0
  4 24  1  0  0  0  0
  4 25  1  0  0  0  0
  5  6  1  0  0  0  0
  5 26  1  0  0  0  0
  5 27  1  0  0  0  0
  6  7  1  0  0  0  0
  6 28  1  0  0  0  0
  6 29  1  0  0  0  0
  7  8  1  0  0  0  0
  7 30  1  0  0  0  0
  8  9  1  0  0  0  0
  8 31  1  0  0  0  0
  9 10  2  0  0  0  0
  9 11  1  0  0  0  0
 11 12  1  0  0  0  0
 11 32  1  0  0  0  0
 12 17  1  0  0  0  0
 12 13  2  0  0  0  0
 13 14  1  0  0  0  0
 13 33  1  0  0  0  0
 14 15  2  0  0  0  0
 14 34  1  0  0  0  0
 15 16  1  0  0  0  0
 15 35  1  0  0  0  0
 16 17  2  0  0  0  0
 16 36  1  0  0  0  0
M  END
> <s_m_source_file>
AV-unprocessed.smi

> <i_m_source_file_index>
2840

> <i_lp_mmshare_version>
43012

> <i_f3d_flags>
0

> <s_epik_input>
W0NIM11bQ0BASF0xW0NIMl1bQ0gyXVtDSDJdW0NIMl1bQ0BIXTFbTkhdQyg9TylbTkhdYzJbY0hdW2NIXVtjSF1bY0hdbjI=

> <s_epik_cmdline>
J2VwaWtfcHl0aG9uJywgJy1waCcsICc3LjAnLCAnLXRuJywgJzgnLCAnLW1hJywgJzIwMCcsICctbWV0YWxfYmluZGluZycsICctaW1hZScsICc8aW5maWxlLm1hZT4nLCAnLW9tYWUnLCAnPG91dGZpbGUubWFlPic=

> <r_lp_tautomer_probability>
1

> <r_epik_Ionization_Penalty>
5.29956e-05

> <r_epik_Ionization_Penalty_Charging>
0

> <r_epik_Ionization_Penalty_Neutral>
5.29956e-05

> <r_epik_State_Penalty>
-0

> <r_epik_Charging_Adjusted_Penalty>
0

> <i_epik_Tot_Q>
0

> <i_epik_Tot_abs_Q>
0

> <r_epik_Metal_State_Penalty>
-0

> <b_epik_Metal_Only>
0

> <s_lp_Force_Field>
OPLS_2005

> <r_lp_Energy>
11.7155

> <b_lp_Chiralities_Consistent>
1

> <s_lp_Variant>
AV-unprocessed.smi:2840-2

> <Gold.Version>
5.8.1

> <Gold.Id.Protein>
6NUR|6NUR_protein|mol2

> <Gold.PLP.Fitness>
37.0929

> <Gold.PLP.PLP>
-37.6103

> <Gold.PLP.part.hbond>
0.0000

> <Gold.PLP.part.metal>
0.0000

> <Gold.PLP.part.buried>
-3.0066

> <Gold.PLP.part.nonpolar>
-34.9100

> <Gold.PLP.part.repulsive>
0.4892

> <Gold.PLP.ligand.clash>
0.0000

> <Gold.PLP.ligand.torsion>
0.2622

> <Gold.PLP.Chemscore.Hbond>
0.0000

> <Gold.PLP.Chemscore.CHOScore>
0.0000

> <Gold.PLP.Chemscore.Metal>
0.0000

> <Gold.PLP.Chemscore.Internal.Correction>
0.0069

> <Gold.Rescore>
     Score         DG    S(hbond)    S(metal)    S(lipo)     H(rot)  DE(clash)    DE(int)     intcor
     13.19     -14.83       0.00        0.00     101.80       1.00       0.01       1.63       ----

> <Gold.Chemscore.Fitness>
13.1926

> <Gold.Chemscore.DG>
-14.8306

> <Gold.Chemscore.ZeroCoef>
-5.4800

> <Gold.Chemscore.Hbond>
0.0000

> <Gold.Chemscore.Metal>
0.0000

> <Gold.Chemscore.Lipo>
101.7999

> <Gold.Chemscore.Internal_Hbond>
0.0000

> <Gold.Chemscore.DEClash>
0.0075

> <Gold.Chemscore.DEInternal>
1.6306

> <Gold.Chemscore.Rot>
1.0000

> <Gold.Chemscore.Internal.Correction>
   9.000000E+99

> <Gold.Chemscore.Hbond.Weighted>
-0.0000

> <Gold.Chemscore.Metal.Weighted>
-0.0000

> <Gold.Chemscore.Lipo.Weighted>
-11.9106

> <Gold.Chemscore.Internal_Hbond.Weighted>
0.0000

> <Gold.Chemscore.DEClash.Weighted>
0.0075

> <Gold.Chemscore.DEInternal.Weighted>
1.6306

> <Gold.Chemscore.Rot.Weighted>
2.5600

> <Gold.Chemscore.Internal.Correction.Weighted>
   9.000000E+99

> <Gold.Protein.RotatedTorsions>
[ 6907 6896 6895 6894 ] final -107.25 input  -60.11 | X-H torsion
[ 7974 7965 7964 7962 ] final  -85.13 input  175.53 | X-H torsion
[ 8008 7997 7996 7995 ] final  -50.03 input   59.86 | X-H torsion
[ 10167 10162 10161 10158 ] final  -13.40 input  -65.29 | X-H torsion
[ 10718 10713 10712 10709 ] final  155.98 input   66.30 | X-H torsion
[ 10763 10752 10751 10750 ] final  -19.12 input  -60.55 | X-H torsion
[ 11005 11000 10999 10996 ] final   40.22 input  -57.11 | X-H torsion

> <Gold.Protein.ActiveResidues>
 VAL166  LYS551  ARG553  GLY616  TRP617  ASP618  TYR619  PRO620  LYS621  CYS622 
 ASP623  PHE694  ASN695  SER759  ASP760  ASP761  ALA762  ILE779  LEU786  VAL792 
 PHE793  MET794  SER795  GLU796  ALA797  LYS798  CYS799  TRP800  GLU811  SER814 

> <Gold.Protein.RotatedAtoms>
  150.7433  133.9855  159.3589 H   0  0  0  0  0  0  0  0  0  0  0  0  # atno 6907 bound_to 6896
  151.7799  135.0762  160.0381 H   0  0  0  0  0  0  0  0  0  0  0  0  # atno 6908 bound_to 6896
  152.3281  133.5891  159.5827 H   0  0  0  0  0  0  0  0  0  0  0  0  # atno 6909 bound_to 6896
  145.4974  140.9549  143.1778 H   0  0  0  0  0  0  0  0  0  0  0  0  # atno 7974 bound_to 7965
  154.4054  140.1282  156.4600 H   0  0  0  0  0  0  0  0  0  0  0  0  # atno 8008 bound_to 7997
  155.7283  140.3492  155.5027 H   0  0  0  0  0  0  0  0  0  0  0  0  # atno 8009 bound_to 7997
  155.9151  140.1042  157.1240 H   0  0  0  0  0  0  0  0  0  0  0  0  # atno 8010 bound_to 7997
  140.7181  143.5430  150.9387 H   0  0  0  0  0  0  0  0  0  0  0  0  # atno 10167 bound_to 10162
  157.2111  131.0698  151.1969 H   0  0  0  0  0  0  0  0  0  0  0  0  # atno 10718 bound_to 10713
  153.5998  135.7000  153.5389 H   0  0  0  0  0  0  0  0  0  0  0  0  # atno 10763 bound_to 10752
  153.3106  135.4102  155.1332 H   0  0  0  0  0  0  0  0  0  0  0  0  # atno 10764 bound_to 10752
  154.8584  135.3671  154.5533 H   0  0  0  0  0  0  0  0  0  0  0  0  # atno 10765 bound_to 10752
  140.1952  134.3938  155.8125 H   0  0  0  0  0  0  0  0  0  0  0  0  # atno 11005 bound_to 11000
  144.7799  139.6548  143.7159 LP  0  0  0  0  0  0  0  0  0  0  0  0  # atno 17320 bound_to 7965
  146.2247  139.5701  142.9595 LP  0  0  0  0  0  0  0  0  0  0  0  0  # atno 17321 bound_to 7965
  139.9153  143.6670  152.3107 LP  0  0  0  0  0  0  0  0  0  0  0  0  # atno 17342 bound_to 10162
  139.7068  144.7626  151.1179 LP  0  0  0  0  0  0  0  0  0  0  0  0  # atno 17343 bound_to 10162
  157.3671  130.7161  149.6540 LP  0  0  0  0  0  0  0  0  0  0  0  0  # atno 17370 bound_to 10713
  155.9690  130.4209  150.4445 LP  0  0  0  0  0  0  0  0  0  0  0  0  # atno 17371 bound_to 10713
  141.2227  133.7066  156.8163 LP  0  0  0  0  0  0  0  0  0  0  0  0  # atno 17394 bound_to 11000
  140.2115  134.8824  157.3280 LP  0  0  0  0  0  0  0  0  0  0  0  0  # atno 17395 bound_to 11000

$$$$
