AV-unprocessed.smi:3030|AV-procd|sdf|11540|dock8
  -GOLD-   2272016483D 1   1.00000     0.00000
 Structure written by MMmdl.
 52 53  0  0  0  0  0  0  0  0  1 V2000
  145.6828  143.4889  153.8300 C   0  0  0  0  0  0  0  0  0  0  0  0
  145.7904  142.3756  154.8778 C   0  0  0  0  0  0  0  0  0  0  0  0
  146.8720  141.4503  154.5727 N   0  0  0  0  0  0  0  0  0  0  0  0
  148.1995  141.7851  154.8181 C   0  0  0  0  0  0  0  0  0  0  0  0
  149.2466  140.9990  154.5022 C   0  0  0  0  0  0  0  0  0  0  0  0
  149.0028  139.6966  153.8497 C   0  0  0  0  0  0  0  0  0  0  0  0
  149.9367  138.9534  153.5479 O   0  0  0  0  0  0  0  0  0  0  0  0
  147.5839  139.3404  153.5824 C   0  0  0  0  0  0  0  0  0  0  0  0
  147.3622  138.0963  152.9685 N   0  0  0  0  0  0  0  0  0  0  0  0
  146.4705  137.1370  153.2767 C   0  0  0  0  0  0  0  0  0  0  0  0
  145.6361  137.1880  154.1797 O   0  0  0  0  0  0  0  0  0  0  0  0
  146.5992  136.0876  152.4527 N   0  0  0  0  0  0  0  0  0  0  0  0
  145.8031  134.8626  152.5048 C   0  0  1  0  0  0  0  0  0  0  0  0
  144.8162  134.8516  151.3168 C   0  0  0  0  0  0  0  0  0  0  0  0
  143.9764  133.5627  151.2424 C   0  0  2  0  0  0  0  0  0  0  0  0
  142.8876  133.5010  152.3282 C   0  0  0  0  0  0  0  0  0  0  0  0
  144.8938  132.3265  151.2476 C   0  0  0  0  0  0  0  0  0  0  0  0
  145.8657  132.3225  152.4386 C   0  0  0  0  0  0  0  0  0  0  0  0
  146.7219  133.6100  152.4928 C   0  0  2  0  0  0  0  0  0  0  0  0
  147.7824  133.5947  153.6351 C   0  0  0  0  0  0  0  0  0  0  0  0
  149.0162  132.7472  153.2792 C   0  0  0  0  0  0  0  0  0  0  0  0
  147.2216  133.1864  155.0099 C   0  0  0  0  0  0  0  0  0  0  0  0
  146.6244  140.2255  153.9561 C   0  0  0  0  0  0  0  0  0  0  0  0
  144.8739  144.1761  154.0776 H   0  0  0  0  0  0  0  0  0  0  0  0
  145.4813  143.0796  152.8397 H   0  0  0  0  0  0  0  0  0  0  0  0
  146.6053  144.0673  153.7732 H   0  0  0  0  0  0  0  0  0  0  0  0
  145.9514  142.8103  155.8651 H   0  0  0  0  0  0  0  0  0  0  0  0
  144.8484  141.8289  154.9351 H   0  0  0  0  0  0  0  0  0  0  0  0
  148.3355  142.7431  155.2989 H   0  0  0  0  0  0  0  0  0  0  0  0
  150.2620  141.2991  154.7160 H   0  0  0  0  0  0  0  0  0  0  0  0
  147.9604  137.9117  152.1760 H   0  0  0  0  0  0  0  0  0  0  0  0
  147.3094  136.1331  151.7368 H   0  0  0  0  0  0  0  0  0  0  0  0
  145.2236  134.8535  153.4286 H   0  0  0  0  0  0  0  0  0  0  0  0
  144.1553  135.7182  151.3675 H   0  0  0  0  0  0  0  0  0  0  0  0
  145.3772  134.9573  150.3868 H   0  0  0  0  0  0  0  0  0  0  0  0
  143.4523  133.5729  150.2859 H   0  0  0  0  0  0  0  0  0  0  0  0
  143.3080  133.4900  153.3334 H   0  0  0  0  0  0  0  0  0  0  0  0
  142.2764  132.6049  152.2177 H   0  0  0  0  0  0  0  0  0  0  0  0
  142.2208  134.3610  152.2606 H   0  0  0  0  0  0  0  0  0  0  0  0
  144.2971  131.4139  151.2505 H   0  0  0  0  0  0  0  0  0  0  0  0
  145.4704  132.3067  150.3220 H   0  0  0  0  0  0  0  0  0  0  0  0
  145.3020  132.2034  153.3635 H   0  0  0  0  0  0  0  0  0  0  0  0
  146.5040  131.4436  152.3569 H   0  0  0  0  0  0  0  0  0  0  0  0
  147.2818  133.6505  151.5567 H   0  0  0  0  0  0  0  0  0  0  0  0
  148.1605  134.6109  153.7460 H   0  0  0  0  0  0  0  0  0  0  0  0
  148.7840  131.6829  153.2469 H   0  0  0  0  0  0  0  0  0  0  0  0
  149.8064  132.8829  154.0181 H   0  0  0  0  0  0  0  0  0  0  0  0
  149.4257  133.0319  152.3097 H   0  0  0  0  0  0  0  0  0  0  0  0
  146.8634  132.1572  155.0125 H   0  0  0  0  0  0  0  0  0  0  0  0
  146.3992  133.8302  155.3204 H   0  0  0  0  0  0  0  0  0  0  0  0
  147.9914  133.2623  155.7782 H   0  0  0  0  0  0  0  0  0  0  0  0
  145.5708  140.0451  153.8168 H   0  0  0  0  0  0  0  0  0  0  0  0
  1  2  1  0  0  0  0
  1 24  1  0  0  0  0
  1 25  1  0  0  0  0
  1 26  1  0  0  0  0
  2  3  1  0  0  0  0
  2 27  1  0  0  0  0
  2 28  1  0  0  0  0
  3 23  1  0  0  0  0
  3  4  1  0  0  0  0
  4  5  2  0  0  0  0
  4 29  1  0  0  0  0
  5  6  1  0  0  0  0
  5 30  1  0  0  0  0
  6  7  2  0  0  0  0
  6  8  1  0  0  0  0
  8  9  1  0  0  0  0
  8 23  2  0  0  0  0
  9 10  1  0  0  0  0
  9 31  1  0  0  0  0
 10 11  2  0  0  0  0
 10 12  1  0  0  0  0
 12 13  1  0  0  0  0
 12 32  1  0  0  0  0
 13 19  1  0  0  0  0
 13 14  1  0  0  0  0
 13 33  1  0  0  0  0
 14 15  1  0  0  0  0
 14 34  1  0  0  0  0
 14 35  1  0  0  0  0
 15 16  1  0  0  0  0
 15 17  1  0  0  0  0
 15 36  1  0  0  0  0
 16 37  1  0  0  0  0
 16 38  1  0  0  0  0
 16 39  1  0  0  0  0
 17 18  1  0  0  0  0
 17 40  1  0  0  0  0
 17 41  1  0  0  0  0
 18 19  1  0  0  0  0
 18 42  1  0  0  0  0
 18 43  1  0  0  0  0
 19 20  1  0  0  0  0
 19 44  1  0  0  0  0
 20 21  1  0  0  0  0
 20 22  1  0  0  0  0
 20 45  1  0  0  0  0
 21 46  1  0  0  0  0
 21 47  1  0  0  0  0
 21 48  1  0  0  0  0
 22 49  1  0  0  0  0
 22 50  1  0  0  0  0
 22 51  1  0  0  0  0
 23 52  1  0  0  0  0
M  END
> <s_m_source_file>
AV-unprocessed.smi

> <i_m_source_file_index>
3030

> <i_lp_mmshare_version>
43012

> <i_f3d_flags>
0

> <s_epik_input>
W0NIM11bQ0gyXW4xW2NIXVtjSF1jKD1PKWMoW2NIXTEpW05IXUMoPU8pW05IXVtDQEBIXTJbQ0gyXVtDQEBIXShbQ0gzXSlbQ0gyXVtDSDJdW0NASF0yW0NIXShbQ0gzXSlbQ0gzXQ==

> <s_epik_cmdline>
J2VwaWtfcHl0aG9uJywgJy1waCcsICc3LjAnLCAnLXRuJywgJzgnLCAnLW1hJywgJzIwMCcsICctbWV0YWxfYmluZGluZycsICctaW1hZScsICc8aW5maWxlLm1hZT4nLCAnLW9tYWUnLCAnPG91dGZpbGUubWFlPic=

> <r_lp_tautomer_probability>
1

> <r_epik_Ionization_Penalty>
0.00147933

> <r_epik_Ionization_Penalty_Charging>
0.00145753

> <r_epik_Ionization_Penalty_Neutral>
2.17987e-05

> <r_epik_State_Penalty>
0.00097457

> <r_epik_Charging_Adjusted_Penalty>
0.0024321

> <i_epik_Tot_Q>
0

> <i_epik_Tot_abs_Q>
0

> <r_epik_Metal_State_Penalty>
-0

> <b_epik_Metal_Only>
0

> <s_lp_Force_Field>
OPLS_2005

> <r_lp_Energy>
11.4945

> <b_lp_Chiralities_Consistent>
1

> <s_lp_Variant>
AV-unprocessed.smi:3030-8

> <Gold.Version>
5.8.1

> <Gold.Id.Protein>
6NUR|6NUR_protein|mol2

> <Gold.PLP.Fitness>
45.6912

> <Gold.PLP.PLP>
-36.4993

> <Gold.PLP.part.hbond>
-1.7210

> <Gold.PLP.part.metal>
0.0000

> <Gold.PLP.part.buried>
-3.4541

> <Gold.PLP.part.nonpolar>
-32.9891

> <Gold.PLP.part.repulsive>
0.3835

> <Gold.PLP.ligand.clash>
0.0000

> <Gold.PLP.ligand.torsion>
1.0826

> <Gold.PLP.Chemscore.Hbond>
1.7600

> <Gold.PLP.Chemscore.CHOScore>
2.0000

> <Gold.PLP.Chemscore.Metal>
0.0000

> <Gold.Chemscore.Hbonds>
donor molecule, donor type, donor heavy atom, donor atom, acceptor molecule, acceptor atom, score
      L1  H     9    31       P1  7948  0.54
      L1  H    12    32       P1  7948  0.64
      L1  C     4    29       P1  8028  1.00
      L1  C    23    52       P1 10175  1.00

> <Gold.PLP.Chemscore.Internal.Correction>
0.0771

> <Gold.Rescore>
     Score         DG    S(hbond)    S(metal)    S(lipo)     H(rot)  DE(clash)    DE(int)     intcor
     17.28     -17.95       1.89        0.00      80.43       1.27       0.05       0.62       ----

> <Gold.Chemscore.Fitness>
17.2807

> <Gold.Chemscore.DG>
-17.9530

> <Gold.Chemscore.ZeroCoef>
-5.4800

> <Gold.Chemscore.Hbond>
1.8893

> <Gold.Chemscore.Metal>
0.0000

> <Gold.Chemscore.Lipo>
80.4271

> <Gold.Chemscore.Internal_Hbond>
0.0000

> <Gold.Chemscore.DEClash>
0.0548

> <Gold.Chemscore.DEInternal>
0.6175

> <Gold.Chemscore.Rot>
1.2685

> <Gold.Chemscore.Internal.Correction>
   9.000000E+99

> <Gold.Chemscore.Hbonds>
donor molecule, donor type, donor heavy atom, donor atom, acceptor molecule, acceptor atom, score
      L1  H     9    31       P1  7948  0.53
      L1  H    12    32       P1  7948  0.63

> <Gold.Chemscore.Hbond.Weighted>
-6.3104

> <Gold.Chemscore.Metal.Weighted>
-0.0000

> <Gold.Chemscore.Lipo.Weighted>
-9.4100

> <Gold.Chemscore.Internal_Hbond.Weighted>
0.0000

> <Gold.Chemscore.DEClash.Weighted>
0.0548

> <Gold.Chemscore.DEInternal.Weighted>
0.6175

> <Gold.Chemscore.Rot.Weighted>
3.2474

> <Gold.Chemscore.Internal.Correction.Weighted>
   9.000000E+99

> <Gold.Protein.RotatedTorsions>
[ 6907 6896 6895 6894 ] final  -51.91 input  -60.11 | X-H torsion
[ 7974 7965 7964 7962 ] final  -69.29 input  175.53 | X-H torsion
[ 8008 7997 7996 7995 ] final  -58.75 input   59.86 | X-H torsion
[ 10167 10162 10161 10158 ] final    6.48 input  -65.29 | X-H torsion
[ 10718 10713 10712 10709 ] final   44.59 input   66.30 | X-H torsion
[ 10763 10752 10751 10750 ] final   25.97 input  -60.55 | X-H torsion
[ 11005 11000 10999 10996 ] final  116.83 input  -57.11 | X-H torsion

> <Gold.Protein.ActiveResidues>
 VAL166  LYS551  ARG553  GLY616  TRP617  ASP618  TYR619  PRO620  LYS621  CYS622 
 ASP623  PHE694  ASN695  SER759  ASP760  ASP761  ALA762  ILE779  LEU786  VAL792 
 PHE793  MET794  SER795  GLU796  ALA797  LYS798  CYS799  TRP800  GLU811  SER814 

> <Gold.Protein.RotatedAtoms>
  150.8567  134.7908  159.7050 H   0  0  0  0  0  0  0  0  0  0  0  0  # atno 6907 bound_to 6896
  152.4616  134.5167  159.9780 H   0  0  0  0  0  0  0  0  0  0  0  0  # atno 6908 bound_to 6896
  151.5278  133.3416  159.2948 H   0  0  0  0  0  0  0  0  0  0  0  0  # atno 6909 bound_to 6896
  145.7057  140.9099  143.0707 H   0  0  0  0  0  0  0  0  0  0  0  0  # atno 7974 bound_to 7965
  154.4322  140.1077  156.6006 H   0  0  0  0  0  0  0  0  0  0  0  0  # atno 8008 bound_to 7997
  155.5915  140.3492  155.4549 H   0  0  0  0  0  0  0  0  0  0  0  0  # atno 8009 bound_to 7997
  156.0243  140.1246  157.0314 H   0  0  0  0  0  0  0  0  0  0  0  0  # atno 8010 bound_to 7997
  140.6425  143.7740  150.7449 H   0  0  0  0  0  0  0  0  0  0  0  0  # atno 10167 bound_to 10162
  157.4285  130.8010  149.7581 H   0  0  0  0  0  0  0  0  0  0  0  0  # atno 10718 bound_to 10713
  153.0654  135.6571  154.0365 H   0  0  0  0  0  0  0  0  0  0  0  0  # atno 10763 bound_to 10752
  154.0023  135.2936  155.3403 H   0  0  0  0  0  0  0  0  0  0  0  0  # atno 10764 bound_to 10752
  154.7010  135.5244  153.8596 H   0  0  0  0  0  0  0  0  0  0  0  0  # atno 10765 bound_to 10752
  139.9054  134.9603  156.7258 H   0  0  0  0  0  0  0  0  0  0  0  0  # atno 11005 bound_to 11000
  144.6956  139.9006  143.7458 LP  0  0  0  0  0  0  0  0  0  0  0  0  # atno 17320 bound_to 7965
  146.0758  139.3746  143.0495 LP  0  0  0  0  0  0  0  0  0  0  0  0  # atno 17321 bound_to 7965
  140.1374  143.4471  152.2215 LP  0  0  0  0  0  0  0  0  0  0  0  0  # atno 17342 bound_to 10162
  139.5635  144.7420  151.4089 LP  0  0  0  0  0  0  0  0  0  0  0  0  # atno 17343 bound_to 10162
  155.9905  130.3944  150.3027 LP  0  0  0  0  0  0  0  0  0  0  0  0  # atno 17370 bound_to 10713
  157.1181  131.0239  151.3020 LP  0  0  0  0  0  0  0  0  0  0  0  0  # atno 17371 bound_to 10713
  140.6964  133.9345  155.7997 LP  0  0  0  0  0  0  0  0  0  0  0  0  # atno 17394 bound_to 11000
  141.0404  134.0630  157.3909 LP  0  0  0  0  0  0  0  0  0  0  0  0  # atno 17395 bound_to 11000

$$$$
