AV-unprocessed.smi:48|AV-procd|sdf|451|dock3
  -GOLD-   2262016323D 1   1.00000     0.00000
 Structure written by MMmdl.
 30 32  0  0  0  0  0  0  0  0  1 V2000
  148.4246  138.8961  153.1996 O   0  0  0  0  0  0  0  0  0  0  0  0
  149.4796  138.9229  154.1372 C   0  0  0  0  0  0  0  0  0  0  0  0
  149.1653  139.9255  155.2581 C   0  0  1  0  0  0  0  0  0  0  0  0
  149.8099  139.5211  156.4575 O   0  0  0  0  0  0  0  0  0  0  0  0
  150.0061  140.6262  157.2818 C   0  0  1  0  0  0  0  0  0  0  0  0
  151.3592  140.4824  157.9068 N   0  0  0  0  0  0  0  0  0  0  0  0
  152.3038  139.5631  157.6218 C   0  0  0  0  0  0  0  0  0  0  0  0
  153.4463  139.6254  158.3048 N   0  0  0  0  0  0  0  0  0  0  0  0
  153.2190  140.7183  159.1251 C   0  0  0  0  0  0  0  0  0  0  0  0
  154.0074  141.3588  160.1119 C   0  0  0  0  0  0  0  0  0  0  0  0
  155.5921  140.7902  160.4900 Cl  0  0  0  0  0  0  0  0  0  0  0  0
  153.4893  142.4324  160.7551 N   0  0  0  0  0  0  0  0  0  0  0  0
  152.2577  142.8533  160.4416 C   0  0  0  0  0  0  0  0  0  0  0  0
  151.4029  142.3549  159.5413 N   0  0  0  0  0  0  0  0  0  0  0  0
  151.9276  141.2718  158.8941 C   0  0  0  0  0  0  0  0  0  0  0  0
  149.8706  141.8961  156.4111 C   0  0  1  0  0  0  0  0  0  0  0  0
  150.9649  142.7923  156.4941 O   0  0  0  0  0  0  0  0  0  0  0  0
  149.7424  141.3215  155.0063 C   0  0  2  0  0  0  0  0  0  0  0  0
  148.8481  142.0948  154.2317 O   0  0  0  0  0  0  0  0  0  0  0  0
  148.0907  139.9962  155.4405 H   0  0  0  0  0  0  0  0  0  0  0  0
  149.3070  140.6096  158.1192 H   0  0  0  0  0  0  0  0  0  0  0  0
  148.9531  142.4047  156.7117 H   0  0  0  0  0  0  0  0  0  0  0  0
  150.7163  141.2511  154.5190 H   0  0  0  0  0  0  0  0  0  0  0  0
  148.4289  138.0562  152.7665 H   0  0  0  0  0  0  0  0  0  0  0  0
  149.6597  137.9245  154.5371 H   0  0  0  0  0  0  0  0  0  0  0  0
  150.3814  139.2264  153.6047 H   0  0  0  0  0  0  0  0  0  0  0  0
  152.1428  138.8021  156.8722 H   0  0  0  0  0  0  0  0  0  0  0  0
  151.9057  143.7141  160.9906 H   0  0  0  0  0  0  0  0  0  0  0  0
  150.6693  143.6523  156.2373 H   0  0  0  0  0  0  0  0  0  0  0  0
  148.7890  142.9559  154.6172 H   0  0  0  0  0  0  0  0  0  0  0  0
  1  2  1  0  0  0  0
  1 24  1  0  0  0  0
  2  3  1  0  0  0  0
  2 25  1  0  0  0  0
  2 26  1  0  0  0  0
  3 20  1  0  0  0  0
  3 18  1  0  0  0  0
  3  4  1  0  0  0  0
  4  5  1  0  0  0  0
  5 21  1  0  0  0  0
  5  6  1  0  0  0  0
  5 16  1  0  0  0  0
  6 15  1  0  0  0  0
  6  7  1  0  0  0  0
  7  8  2  0  0  0  0
  7 27  1  0  0  0  0
  8  9  1  0  0  0  0
  9 15  2  0  0  0  0
  9 10  1  0  0  0  0
 10 11  1  0  0  0  0
 10 12  2  0  0  0  0
 12 13  1  0  0  0  0
 13 14  2  0  0  0  0
 13 28  1  0  0  0  0
 14 15  1  0  0  0  0
 16 22  1  0  0  0  0
 16 17  1  0  0  0  0
 16 18  1  0  0  0  0
 17 29  1  0  0  0  0
 18 23  1  0  0  0  0
 18 19  1  0  0  0  0
 19 30  1  0  0  0  0
M  END
> <s_m_source_file>
AV-unprocessed.smi

> <i_m_source_file_index>
48

> <i_lp_mmshare_version>
43012

> <i_f3d_flags>
0

> <s_epik_input>
W09IXVtDSDJdW0NASF0xT1tDQEhdKFtDQEhdKFtPSF0pW0NAQEhdMVtPSF0pbihbY0hdbjIpYyhjMjMpbltjSF1uYzNDbA==

> <s_epik_cmdline>
J2VwaWtfcHl0aG9uJywgJy1waCcsICc3LjAnLCAnLXRuJywgJzgnLCAnLW1hJywgJzIwMCcsICctbWV0YWxfYmluZGluZycsICctaW1hZScsICc8aW5maWxlLm1hZT4nLCAnLW9tYWUnLCAnPG91dGZpbGUubWFlPic=

> <r_lp_tautomer_probability>
1

> <r_epik_Ionization_Penalty>
3.45505e-06

> <r_epik_Ionization_Penalty_Charging>
0

> <r_epik_Ionization_Penalty_Neutral>
3.45505e-06

> <r_epik_State_Penalty>
-0

> <r_epik_Charging_Adjusted_Penalty>
0

> <i_epik_Tot_Q>
0

> <i_epik_Tot_abs_Q>
0

> <r_epik_Metal_State_Penalty>
-0

> <b_epik_Metal_Only>
0

> <s_epik_Chemistry_Notes>
This compound contains an acetal/aminal-like group ( X-CH(R)-Y where X, Y are N, S, or O) that may be acid/base labile, releasing an aldehyde.

> <s_lp_Force_Field>
OPLS_2005

> <r_lp_Energy>
37.1345

> <b_lp_Chiralities_Consistent>
1

> <s_lp_Variant>
AV-unprocessed.smi:48-5

> <Gold.Version>
5.8.1

> <Gold.Id.Protein>
6NUR|6NUR_protein|mol2

> <Gold.PLP.Fitness>
43.4095

> <Gold.PLP.PLP>
-32.7433

> <Gold.PLP.part.hbond>
-6.5351

> <Gold.PLP.part.metal>
0.0000

> <Gold.PLP.part.buried>
-1.4011

> <Gold.PLP.part.nonpolar>
-23.2455

> <Gold.PLP.part.repulsive>
0.0000

> <Gold.PLP.ligand.clash>
0.0063

> <Gold.PLP.ligand.torsion>
0.5124

> <Gold.PLP.Chemscore.Hbond>
3.8959

> <Gold.PLP.Chemscore.CHOScore>
0.0000

> <Gold.PLP.Chemscore.Metal>
0.0000

> <Gold.Chemscore.Hbonds>
donor molecule, donor type, donor heavy atom, donor atom, acceptor molecule, acceptor atom, score
      L1  H     1    24       P1  7948  0.88
      L1  H    17    29       P1  8028  0.61
      L1  H    19    30       P1  8028  1.00
      P1  H  7997  8010       L1     8  1.00
      P1  H  8011  8017       L1    19  0.25

> <Gold.PLP.Chemscore.Internal.Correction>
0.0097

> <Gold.Rescore>
     Score         DG    S(hbond)    S(metal)    S(lipo)     H(rot)  DE(clash)    DE(int)     intcor
     12.03     -13.56       3.52        0.00      51.67       3.80       0.11       1.42       ----

> <Gold.Chemscore.Fitness>
12.0269

> <Gold.Chemscore.DG>
-13.5554

> <Gold.Chemscore.ZeroCoef>
-5.4800

> <Gold.Chemscore.Hbond>
3.5217

> <Gold.Chemscore.Metal>
0.0000

> <Gold.Chemscore.Lipo>
51.6692

> <Gold.Chemscore.Internal_Hbond>
0.0000

> <Gold.Chemscore.DEClash>
0.1078

> <Gold.Chemscore.DEInternal>
1.4208

> <Gold.Chemscore.Rot>
3.8017

> <Gold.Chemscore.Internal.Correction>
   9.000000E+99

> <Gold.Chemscore.Hbonds>
donor molecule, donor type, donor heavy atom, donor atom, acceptor molecule, acceptor atom, score
      L1  H     1    24       P1  7948  0.86
      L1  H    17    29       P1  8028  0.60
      L1  H    19    30       P1  8028  0.93
      P1  H  7997  8010       L1     8  0.45
      P1  H  8011  8017       L1    19  0.07

> <Gold.Chemscore.Hbond.Weighted>
-11.7625

> <Gold.Chemscore.Metal.Weighted>
-0.0000

> <Gold.Chemscore.Lipo.Weighted>
-6.0453

> <Gold.Chemscore.Internal_Hbond.Weighted>
0.0000

> <Gold.Chemscore.DEClash.Weighted>
0.1078

> <Gold.Chemscore.DEInternal.Weighted>
1.4208

> <Gold.Chemscore.Rot.Weighted>
9.7324

> <Gold.Chemscore.Internal.Correction.Weighted>
   9.000000E+99

> <Gold.Protein.RotatedTorsions>
[ 6907 6896 6895 6894 ] final   32.50 input  -60.11 | X-H torsion
[ 7974 7965 7964 7962 ] final   51.26 input  175.53 | X-H torsion
[ 8008 7997 7996 7995 ] final   19.93 input   59.86 | X-H torsion
[ 10167 10162 10161 10158 ] final  120.45 input  -65.29 | X-H torsion
[ 10718 10713 10712 10709 ] final  -95.07 input   66.30 | X-H torsion
[ 10763 10752 10751 10750 ] final   -3.27 input  -60.55 | X-H torsion
[ 11005 11000 10999 10996 ] final  -67.35 input  -57.11 | X-H torsion

> <Gold.Protein.ActiveResidues>
 VAL166  LYS551  ARG553  GLY616  TRP617  ASP618  TYR619  PRO620  LYS621  CYS622 
 ASP623  PHE694  ASN695  SER759  ASP760  ASP761  ALA762  ILE779  LEU786  VAL792 
 PHE793  MET794  SER795  GLU796  ALA797  LYS798  CYS799  TRP800  GLU811  SER814 

> <Gold.Protein.RotatedAtoms>
  152.0753  134.9507  160.0573 H   0  0  0  0  0  0  0  0  0  0  0  0  # atno 6907 bound_to 6896
  152.0817  133.4151  159.4512 H   0  0  0  0  0  0  0  0  0  0  0  0  # atno 6908 bound_to 6896
  150.6836  134.2894  159.4704 H   0  0  0  0  0  0  0  0  0  0  0  0  # atno 6909 bound_to 6896
  145.9931  139.4359  143.0061 H   0  0  0  0  0  0  0  0  0  0  0  0  # atno 7974 bound_to 7965
  154.9281  140.3036  155.5182 H   0  0  0  0  0  0  0  0  0  0  0  0  # atno 8008 bound_to 7997
  156.3005  140.2359  156.4275 H   0  0  0  0  0  0  0  0  0  0  0  0  # atno 8009 bound_to 7997
  154.8264  140.0420  157.1435 H   0  0  0  0  0  0  0  0  0  0  0  0  # atno 8010 bound_to 7997
  139.5981  144.7048  151.3127 H   0  0  0  0  0  0  0  0  0  0  0  0  # atno 10167 bound_to 10162
  156.0037  130.5094  150.6022 H   0  0  0  0  0  0  0  0  0  0  0  0  # atno 10718 bound_to 10713
  153.3691  135.6994  153.6652 H   0  0  0  0  0  0  0  0  0  0  0  0  # atno 10763 bound_to 10752
  153.5309  135.3592  155.2676 H   0  0  0  0  0  0  0  0  0  0  0  0  # atno 10764 bound_to 10752
  154.8679  135.4180  154.2965 H   0  0  0  0  0  0  0  0  0  0  0  0  # atno 10765 bound_to 10752
  141.1506  133.6717  156.6279 H   0  0  0  0  0  0  0  0  0  0  0  0  # atno 11005 bound_to 11000
  145.7601  140.9939  143.1205 LP  0  0  0  0  0  0  0  0  0  0  0  0  # atno 17320 bound_to 7965
  144.6895  139.9319  143.7472 LP  0  0  0  0  0  0  0  0  0  0  0  0  # atno 17321 bound_to 7965
  140.7228  143.7087  150.7787 LP  0  0  0  0  0  0  0  0  0  0  0  0  # atno 17342 bound_to 10162
  140.0658  143.5110  152.2605 LP  0  0  0  0  0  0  0  0  0  0  0  0  # atno 17343 bound_to 10162
  157.3869  131.0789  151.1428 LP  0  0  0  0  0  0  0  0  0  0  0  0  # atno 17370 bound_to 10713
  157.2133  130.6447  149.5782 LP  0  0  0  0  0  0  0  0  0  0  0  0  # atno 17371 bound_to 10713
  140.3489  134.7785  157.4452 LP  0  0  0  0  0  0  0  0  0  0  0  0  # atno 17394 bound_to 11000
  140.0877  134.5644  155.8476 LP  0  0  0  0  0  0  0  0  0  0  0  0  # atno 17395 bound_to 11000

$$$$
