AV-unprocessed.smi:2024|AV-procd|sdf|8193|dock3
  -GOLD-   2272010453D 1   1.00000     0.00000
 Structure written by MMmdl.
 43 44  0  0  0  0  0  0  0  0  1 V2000
  152.4877  139.8956  155.6221 C   0  0  0  0  0  0  0  0  0  0  0  0
  151.1829  139.8638  154.9798 N   0  0  0  0  0  0  0  0  0  0  0  0
  150.2585  140.8113  155.5945 C   0  0  0  0  0  0  0  0  0  0  0  0
  148.8848  140.7879  154.9000 C   0  0  0  0  0  0  0  0  0  0  0  0
  148.2726  139.4497  154.9451 N   0  0  0  0  0  0  0  0  0  0  0  0
  146.8829  139.3791  154.4124 C   0  0  0  0  0  0  0  0  0  0  0  0
  146.0825  138.1751  154.9655 C   0  0  0  0  0  0  0  0  0  0  0  0
  146.0858  140.6591  154.7704 C   0  0  0  0  0  0  0  0  0  0  0  0
  146.8662  139.2643  152.8590 C   0  0  0  0  0  0  0  0  0  0  0  0
  147.0163  137.8878  152.3873 N   0  0  0  0  0  0  0  0  0  0  0  0
  146.0176  137.0242  152.1560 C   0  0  0  0  0  0  0  0  0  0  0  0
  144.8291  137.2943  152.3283 O   0  0  0  0  0  0  0  0  0  0  0  0
  146.4895  135.8478  151.7133 N   0  0  0  0  0  0  0  0  0  0  0  0
  145.7486  134.6931  151.3599 C   0  0  0  0  0  0  0  0  0  0  0  0
  144.4173  134.7697  151.3158 N   0  0  0  0  0  0  0  0  0  0  0  0
  143.8331  133.5527  150.9529 C   0  0  0  0  0  0  0  0  0  0  0  0
  144.7429  132.5508  150.7221 C   0  0  0  0  0  0  0  0  0  0  0  0
  146.3824  133.0963  150.9527 S   0  0  0  0  0  0  0  0  0  0  0  0
  149.2164  138.4966  154.3383 C   0  0  0  0  0  0  0  0  0  0  0  0
  150.5904  138.5308  155.0328 C   0  0  0  0  0  0  0  0  0  0  0  0
  152.9259  140.8921  155.5556 H   0  0  0  0  0  0  0  0  0  0  0  0
  153.1729  139.1989  155.1383 H   0  0  0  0  0  0  0  0  0  0  0  0
  152.4155  139.6254  156.6765 H   0  0  0  0  0  0  0  0  0  0  0  0
  150.1364  140.5826  156.6547 H   0  0  0  0  0  0  0  0  0  0  0  0
  150.6726  141.8186  155.5383 H   0  0  0  0  0  0  0  0  0  0  0  0
  148.2533  141.5206  155.3988 H   0  0  0  0  0  0  0  0  0  0  0  0
  149.0006  141.1199  153.8680 H   0  0  0  0  0  0  0  0  0  0  0  0
  145.0697  138.1612  154.5607 H   0  0  0  0  0  0  0  0  0  0  0  0
  145.9853  138.2069  156.0504 H   0  0  0  0  0  0  0  0  0  0  0  0
  146.5387  137.2213  154.7014 H   0  0  0  0  0  0  0  0  0  0  0  0
  145.1376  140.7029  154.2332 H   0  0  0  0  0  0  0  0  0  0  0  0
  146.6417  141.5636  154.5213 H   0  0  0  0  0  0  0  0  0  0  0  0
  145.8363  140.7085  155.8302 H   0  0  0  0  0  0  0  0  0  0  0  0
  145.9342  139.6533  152.4499 H   0  0  0  0  0  0  0  0  0  0  0  0
  147.6369  139.9038  152.4246 H   0  0  0  0  0  0  0  0  0  0  0  0
  147.9598  137.5782  152.2050 H   0  0  0  0  0  0  0  0  0  0  0  0
  147.4911  135.7683  151.6171 H   0  0  0  0  0  0  0  0  0  0  0  0
  142.7574  133.4876  150.8826 H   0  0  0  0  0  0  0  0  0  0  0  0
  144.5485  131.5290  150.4318 H   0  0  0  0  0  0  0  0  0  0  0  0
  148.8386  137.4785  154.4088 H   0  0  0  0  0  0  0  0  0  0  0  0
  149.3479  138.7131  153.2778 H   0  0  0  0  0  0  0  0  0  0  0  0
  151.2554  137.8138  154.5503 H   0  0  0  0  0  0  0  0  0  0  0  0
  150.4845  138.2084  156.0700 H   0  0  0  0  0  0  0  0  0  0  0  0
  1  2  1  0  0  0  0
  1 21  1  0  0  0  0
  1 22  1  0  0  0  0
  1 23  1  0  0  0  0
  2 20  1  0  0  0  0
  2  3  1  0  0  0  0
  3  4  1  0  0  0  0
  3 24  1  0  0  0  0
  3 25  1  0  0  0  0
  4  5  1  0  0  0  0
  4 26  1  0  0  0  0
  4 27  1  0  0  0  0
  5  6  1  0  0  0  0
  5 19  1  0  0  0  0
  6  7  1  0  0  0  0
  6  8  1  0  0  0  0
  6  9  1  0  0  0  0
  7 28  1  0  0  0  0
  7 29  1  0  0  0  0
  7 30  1  0  0  0  0
  8 31  1  0  0  0  0
  8 32  1  0  0  0  0
  8 33  1  0  0  0  0
  9 10  1  0  0  0  0
  9 34  1  0  0  0  0
  9 35  1  0  0  0  0
 10 11  1  0  0  0  0
 10 36  1  0  0  0  0
 11 12  2  0  0  0  0
 11 13  1  0  0  0  0
 13 14  1  0  0  0  0
 13 37  1  0  0  0  0
 14 18  1  0  0  0  0
 14 15  2  0  0  0  0
 15 16  1  0  0  0  0
 16 17  2  0  0  0  0
 16 38  1  0  0  0  0
 17 18  1  0  0  0  0
 17 39  1  0  0  0  0
 19 20  1  0  0  0  0
 19 40  1  0  0  0  0
 19 41  1  0  0  0  0
 20 42  1  0  0  0  0
 20 43  1  0  0  0  0
M  END
> <s_m_source_file>
AV-unprocessed.smi

> <i_m_source_file_index>
2024

> <i_lp_mmshare_version>
43012

> <i_f3d_flags>
0

> <s_epik_input>
W0NIM11OMVtDSDJdW0NIMl1OKFtDSDJdW0NIMl0xKUMoW0NIM10pKFtDSDNdKVtDSDJdW05IXUMoPU8pW05IXWMybltjSF1bY0hdczI=

> <s_epik_cmdline>
J2VwaWtfcHl0aG9uJywgJy1waCcsICc3LjAnLCAnLXRuJywgJzgnLCAnLW1hJywgJzIwMCcsICctbWV0YWxfYmluZGluZycsICctaW1hZScsICc8aW5maWxlLm1hZT4nLCAnLW9tYWUnLCAnPG91dGZpbGUubWFlPic=

> <r_lp_tautomer_probability>
0.999

> <r_epik_Ionization_Penalty>
3.01774

> <r_epik_Ionization_Penalty_Charging>
0

> <r_epik_Ionization_Penalty_Neutral>
3.01774

> <r_epik_State_Penalty>
2.1369

> <r_epik_Charging_Adjusted_Penalty>
2.1369

> <i_epik_Tot_Q>
0

> <i_epik_Tot_abs_Q>
0

> <r_epik_Metal_State_Penalty>
2.1694

> <b_epik_Metal_Only>
0

> <s_lp_Force_Field>
OPLS_2005

> <r_lp_Energy>
47.9803

> <b_lp_Chiralities_Consistent>
1

> <s_lp_Variant>
AV-unprocessed.smi:2024-3

> <Gold.Version>
5.8.1

> <Gold.Id.Protein>
6NUR|6NUR_protein|mol2

> <Gold.PLP.Fitness>
37.2947

> <Gold.PLP.PLP>
-28.3595

> <Gold.PLP.part.hbond>
-3.0000

> <Gold.PLP.part.metal>
0.0000

> <Gold.PLP.part.buried>
-3.2930

> <Gold.PLP.part.nonpolar>
-23.7594

> <Gold.PLP.part.repulsive>
1.4368

> <Gold.PLP.ligand.clash>
0.0000

> <Gold.PLP.ligand.torsion>
1.1385

> <Gold.PLP.Chemscore.Hbond>
2.7200

> <Gold.PLP.Chemscore.CHOScore>
1.0000

> <Gold.PLP.Chemscore.Metal>
0.0000

> <Gold.Chemscore.Hbonds>
donor molecule, donor type, donor heavy atom, donor atom, acceptor molecule, acceptor atom, score
      L1  H    10    36       P1  7948  0.93
      L1  H    13    37       P1  7948  0.96
      P1  H  7989  7998       L1     2  0.76
      L1  C    16    38       P1 10186  1.00

> <Gold.PLP.Chemscore.Internal.Correction>
0.0522

> <Gold.Rescore>
     Score         DG    S(hbond)    S(metal)    S(lipo)     H(rot)  DE(clash)    DE(int)     intcor
     12.38     -15.64       1.94        0.00      65.53       1.56       0.31       2.95       ----

> <Gold.Chemscore.Fitness>
12.3847

> <Gold.Chemscore.DG>
-15.6426

> <Gold.Chemscore.ZeroCoef>
-5.4800

> <Gold.Chemscore.Hbond>
1.9448

> <Gold.Chemscore.Metal>
0.0000

> <Gold.Chemscore.Lipo>
65.5270

> <Gold.Chemscore.Internal_Hbond>
0.0000

> <Gold.Chemscore.DEClash>
0.3128

> <Gold.Chemscore.DEInternal>
2.9451

> <Gold.Chemscore.Rot>
1.5624

> <Gold.Chemscore.Internal.Correction>
   9.000000E+99

> <Gold.Chemscore.Hbonds>
donor molecule, donor type, donor heavy atom, donor atom, acceptor molecule, acceptor atom, score
      L1  H    10    36       P1  7948  0.90
      L1  H    13    37       P1  7948  0.88
      P1  H  7989  7998       L1     2  0.03

> <Gold.Chemscore.Hbond.Weighted>
-6.4957

> <Gold.Chemscore.Metal.Weighted>
-0.0000

> <Gold.Chemscore.Lipo.Weighted>
-7.6667

> <Gold.Chemscore.Internal_Hbond.Weighted>
0.0000

> <Gold.Chemscore.DEClash.Weighted>
0.3128

> <Gold.Chemscore.DEInternal.Weighted>
2.9451

> <Gold.Chemscore.Rot.Weighted>
3.9998

> <Gold.Chemscore.Internal.Correction.Weighted>
   9.000000E+99

> <Gold.Protein.RotatedTorsions>
[ 6907 6896 6895 6894 ] final   89.47 input  -60.11 | X-H torsion
[ 7974 7965 7964 7962 ] final  152.74 input  175.53 | X-H torsion
[ 8008 7997 7996 7995 ] final  117.78 input   59.86 | X-H torsion
[ 10167 10162 10161 10158 ] final   70.10 input  -65.29 | X-H torsion
[ 10718 10713 10712 10709 ] final -131.57 input   66.30 | X-H torsion
[ 10763 10752 10751 10750 ] final  -82.58 input  -60.55 | X-H torsion
[ 11005 11000 10999 10996 ] final    2.06 input  -57.11 | X-H torsion

> <Gold.Protein.ActiveResidues>
 VAL166  LYS551  ARG553  GLY616  TRP617  ASP618  TYR619  PRO620  LYS621  CYS622 
 ASP623  PHE694  ASN695  SER759  ASP760  ASP761  ALA762  ILE779  LEU786  VAL792 
 PHE793  MET794  SER795  GLU796  ALA797  LYS798  CYS799  TRP800  GLU811  SER814 

> <Gold.Protein.RotatedAtoms>
  152.5436  134.1962  159.8693 H   0  0  0  0  0  0  0  0  0  0  0  0  # atno 6907 bound_to 6896
  151.1954  133.4635  159.2603 H   0  0  0  0  0  0  0  0  0  0  0  0  # atno 6908 bound_to 6896
  151.1042  135.0002  159.8518 H   0  0  0  0  0  0  0  0  0  0  0  0  # atno 6909 bound_to 6896
  144.8201  139.6709  143.6104 H   0  0  0  0  0  0  0  0  0  0  0  0  # atno 7974 bound_to 7965
  156.2512  140.2889  156.0732 H   0  0  0  0  0  0  0  0  0  0  0  0  # atno 8008 bound_to 7997
  155.1648  140.0400  157.2868 H   0  0  0  0  0  0  0  0  0  0  0  0  # atno 8009 bound_to 7997
  154.6367  140.2512  155.7376 H   0  0  0  0  0  0  0  0  0  0  0  0  # atno 8010 bound_to 7997
  140.0606  144.5236  150.7297 H   0  0  0  0  0  0  0  0  0  0  0  0  # atno 10167 bound_to 10162
  156.2258  130.7007  151.0805 H   0  0  0  0  0  0  0  0  0  0  0  0  # atno 10718 bound_to 10713
  154.5775  135.5586  153.7153 H   0  0  0  0  0  0  0  0  0  0  0  0  # atno 10763 bound_to 10752
  153.0069  135.6312  154.2029 H   0  0  0  0  0  0  0  0  0  0  0  0  # atno 10764 bound_to 10752
  154.1969  135.2879  155.2983 H   0  0  0  0  0  0  0  0  0  0  0  0  # atno 10765 bound_to 10752
  140.6084  133.9771  155.8165 H   0  0  0  0  0  0  0  0  0  0  0  0  # atno 11005 bound_to 11000
  146.2506  139.6192  142.9429 LP  0  0  0  0  0  0  0  0  0  0  0  0  # atno 17320 bound_to 7965
  145.5124  141.0435  143.2481 LP  0  0  0  0  0  0  0  0  0  0  0  0  # atno 17321 bound_to 7965
  140.7173  143.2556  151.4392 LP  0  0  0  0  0  0  0  0  0  0  0  0  # atno 17342 bound_to 10162
  139.5896  144.1528  152.2072 LP  0  0  0  0  0  0  0  0  0  0  0  0  # atno 17343 bound_to 10162
  157.7109  131.0734  150.6502 LP  0  0  0  0  0  0  0  0  0  0  0  0  # atno 17370 bound_to 10713
  156.6567  130.4500  149.5701 LP  0  0  0  0  0  0  0  0  0  0  0  0  # atno 17371 bound_to 10713
  141.0824  134.0041  157.3365 LP  0  0  0  0  0  0  0  0  0  0  0  0  # atno 17394 bound_to 11000
  139.9202  135.0200  156.8036 LP  0  0  0  0  0  0  0  0  0  0  0  0  # atno 17395 bound_to 11000

$$$$
