AV-unprocessed.smi:72|AV-procd|sdf|748|dock7
  -GOLD-   2262017 83D 1   1.00000     0.00000
 Structure written by MMmdl.
 29 30  0  0  0  0  0  0  0  0  1 V2000
  154.5633  137.6177  159.9769 N   0  0  0  0  0  0  0  0  0  0  0  0
  153.5451  137.6962  159.0497 C   0  0  0  0  0  0  0  0  0  0  0  0
  153.5901  138.7823  158.1649 N   0  0  0  0  0  0  0  0  0  0  0  0
  152.6346  138.8618  157.2934 C   0  0  0  0  0  0  0  0  0  0  0  0
  151.5750  137.8682  157.2426 N   0  0  0  0  0  0  0  0  0  0  0  0
  150.4396  137.9349  156.2347 C   0  0  1  0  0  0  0  0  0  0  0  0
  149.8953  139.2233  156.2082 O   0  0  0  0  0  0  0  0  0  0  0  0
  150.2512  139.8838  154.9971 C   0  0  2  0  0  0  0  0  0  0  0  0
  149.2690  141.0232  154.6746 C   0  0  0  0  0  0  0  0  0  0  0  0
  149.3013  141.3156  153.2938 O   0  0  0  0  0  0  0  0  0  0  0  0
  150.2913  138.7361  153.9803 C   0  0  2  0  0  0  0  0  0  0  0  0
  148.9902  138.4077  153.5263 O   0  0  0  0  0  0  0  0  0  0  0  0
  150.8780  137.5874  154.7904 C   0  0  1  0  0  0  0  0  0  0  0  0
  152.2833  137.5483  154.6096 O   0  0  0  0  0  0  0  0  0  0  0  0
  151.5950  136.7907  158.1703 C   0  0  0  0  0  0  0  0  0  0  0  0
  150.7130  135.9324  158.1375 O   0  0  0  0  0  0  0  0  0  0  0  0
  152.6479  136.7536  159.0918 N   0  0  0  0  0  0  0  0  0  0  0  0
  149.6682  137.2668  156.6206 H   0  0  0  0  0  0  0  0  0  0  0  0
  151.2634  140.2811  155.0921 H   0  0  0  0  0  0  0  0  0  0  0  0
  150.8966  138.9869  153.1078 H   0  0  0  0  0  0  0  0  0  0  0  0
  150.4665  136.6190  154.5022 H   0  0  0  0  0  0  0  0  0  0  0  0
  154.6332  136.8798  160.6626 H   0  0  0  0  0  0  0  0  0  0  0  0
  155.3147  138.2893  160.0371 H   0  0  0  0  0  0  0  0  0  0  0  0
  152.5709  139.6651  156.5598 H   0  0  0  0  0  0  0  0  0  0  0  0
  148.2502  140.7212  154.9191 H   0  0  0  0  0  0  0  0  0  0  0  0
  149.4928  141.9185  155.2553 H   0  0  0  0  0  0  0  0  0  0  0  0
  148.6172  140.8239  152.8657 H   0  0  0  0  0  0  0  0  0  0  0  0
  149.0107  137.5373  153.1590 H   0  0  0  0  0  0  0  0  0  0  0  0
  152.5119  138.1493  153.9169 H   0  0  0  0  0  0  0  0  0  0  0  0
  1  2  1  0  0  0  0
  1 22  1  0  0  0  0
  1 23  1  0  0  0  0
  2 17  2  0  0  0  0
  2  3  1  0  0  0  0
  3  4  2  0  0  0  0
  4  5  1  0  0  0  0
  4 24  1  0  0  0  0
  5  6  1  0  0  0  0
  5 15  1  0  0  0  0
  6 18  1  0  0  0  0
  6 13  1  0  0  0  0
  6  7  1  0  0  0  0
  7  8  1  0  0  0  0
  8 19  1  0  0  0  0
  8  9  1  0  0  0  0
  8 11  1  0  0  0  0
  9 10  1  0  0  0  0
  9 25  1  0  0  0  0
  9 26  1  0  0  0  0
 10 27  1  0  0  0  0
 11 20  1  0  0  0  0
 11 12  1  0  0  0  0
 11 13  1  0  0  0  0
 12 28  1  0  0  0  0
 13 21  1  0  0  0  0
 13 14  1  0  0  0  0
 14 29  1  0  0  0  0
 15 16  2  0  0  0  0
 15 17  1  0  0  0  0
M  END
> <s_m_source_file>
AV-unprocessed.smi

> <i_m_source_file_index>
72

> <i_lp_mmshare_version>
43012

> <i_f3d_flags>
0

> <s_epik_input>
W05IMl1jMW5bY0hdbihjKD1PKW4xKVtDQEBIXTJPW0NASF0oW0NIMl1bT0hdKVtDQEBIXShbT0hdKVtDQEhdMltPSF0=

> <s_epik_cmdline>
J2VwaWtfcHl0aG9uJywgJy1waCcsICc3LjAnLCAnLXRuJywgJzgnLCAnLW1hJywgJzIwMCcsICctbWV0YWxfYmluZGluZycsICctaW1hZScsICc8aW5maWxlLm1hZT4nLCAnLW9tYWUnLCAnPG91dGZpbGUubWFlPic=

> <r_lp_tautomer_probability>
4.77166e-05

> <r_epik_Ionization_Penalty>
1.3546

> <r_epik_Ionization_Penalty_Charging>
1.46833e-10

> <r_epik_Ionization_Penalty_Neutral>
1.3546

> <r_epik_State_Penalty>
3.51908

> <r_epik_Charging_Adjusted_Penalty>
3.51908

> <i_epik_Tot_Q>
0

> <i_epik_Tot_abs_Q>
0

> <r_epik_Metal_State_Penalty>
3.44088

> <b_epik_Metal_Only>
1

> <s_epik_Chemistry_Notes>
This compound contains an acetal/aminal-like group ( X-CH(R)-Y where X, Y are N, S, or O) that may be acid/base labile, releasing an aldehyde.

> <s_lp_Force_Field>
OPLS_2005

> <r_lp_Energy>
33.7939

> <b_lp_Chiralities_Consistent>
1

> <s_lp_Variant>
AV-unprocessed.smi:72-86

> <Gold.Version>
5.8.1

> <Gold.Id.Protein>
6NUR|6NUR_protein|mol2

> <Gold.PLP.Fitness>
35.4887

> <Gold.PLP.PLP>
-22.1868

> <Gold.PLP.part.hbond>
-8.7559

> <Gold.PLP.part.metal>
0.0000

> <Gold.PLP.part.buried>
-0.5273

> <Gold.PLP.part.nonpolar>
-12.6245

> <Gold.PLP.part.repulsive>
0.0408

> <Gold.PLP.ligand.clash>
0.0000

> <Gold.PLP.ligand.torsion>
0.4709

> <Gold.PLP.Chemscore.Hbond>
4.7334

> <Gold.PLP.Chemscore.CHOScore>
0.0000

> <Gold.PLP.Chemscore.Metal>
0.0000

> <Gold.Chemscore.Hbonds>
donor molecule, donor type, donor heavy atom, donor atom, acceptor molecule, acceptor atom, score
      L1  H    10    27       P1  7957  0.04
      L1  H    12    28       P1  7948  1.00
      P1  H  6896  6908       L1    16  0.33
      P1  H  6896  6909       L1    17  0.71
      P1  H  7989  7998       L1    10  0.01
      P1  H  7997  8009       L1     3  0.95
      P1  H  8011  8017       L1    10  1.00
      P1  H 10752 10765       L1    14  0.70

> <Gold.PLP.Chemscore.Internal.Correction>
0.0434

> <Gold.Rescore>
     Score         DG    S(hbond)    S(metal)    S(lipo)     H(rot)  DE(clash)    DE(int)     intcor
      9.31     -11.07       3.72        0.00      30.53       4.06       0.23       1.53       ----

> <Gold.Chemscore.Fitness>
9.3108

> <Gold.Chemscore.DG>
-11.0726

> <Gold.Chemscore.ZeroCoef>
-5.4800

> <Gold.Chemscore.Hbond>
3.7166

> <Gold.Chemscore.Metal>
0.0000

> <Gold.Chemscore.Lipo>
30.5347

> <Gold.Chemscore.Internal_Hbond>
0.0000

> <Gold.Chemscore.DEClash>
0.2316

> <Gold.Chemscore.DEInternal>
1.5302

> <Gold.Chemscore.Rot>
4.0600

> <Gold.Chemscore.Internal.Correction>
   9.000000E+99

> <Gold.Chemscore.Hbonds>
donor molecule, donor type, donor heavy atom, donor atom, acceptor molecule, acceptor atom, score
      L1  H    10    27       P1  7957  0.07
      L1  H    12    28       P1  7948  0.99
      P1  H  6896  6908       L1    16  0.31
      P1  H  6896  6909       L1    17  0.11
      P1  H  7997  8009       L1     3  0.22
      P1  H  8011  8017       L1    10  0.64
      P1  H 10752 10765       L1    14  0.51

> <Gold.Chemscore.Hbond.Weighted>
-12.4136

> <Gold.Chemscore.Metal.Weighted>
-0.0000

> <Gold.Chemscore.Lipo.Weighted>
-3.5726

> <Gold.Chemscore.Internal_Hbond.Weighted>
0.0000

> <Gold.Chemscore.DEClash.Weighted>
0.2316

> <Gold.Chemscore.DEInternal.Weighted>
1.5302

> <Gold.Chemscore.Rot.Weighted>
10.3936

> <Gold.Chemscore.Internal.Correction.Weighted>
   9.000000E+99

> <Gold.Protein.RotatedTorsions>
[ 6907 6896 6895 6894 ] final  152.63 input  -60.11 | X-H torsion
[ 7974 7965 7964 7962 ] final -145.77 input  175.53 | X-H torsion
[ 8008 7997 7996 7995 ] final  127.39 input   59.86 | X-H torsion
[ 10167 10162 10161 10158 ] final -130.12 input  -65.29 | X-H torsion
[ 10718 10713 10712 10709 ] final -106.03 input   66.30 | X-H torsion
[ 10763 10752 10751 10750 ] final  171.92 input  -60.55 | X-H torsion
[ 11005 11000 10999 10996 ] final  161.85 input  -57.11 | X-H torsion

> <Gold.Protein.ActiveResidues>
 VAL166  LYS551  ARG553  GLY616  TRP617  ASP618  TYR619  PRO620  LYS621  CYS622 
 ASP623  PHE694  ASN695  SER759  ASP760  ASP761  ALA762  ILE779  LEU786  VAL792 
 PHE793  MET794  SER795  GLU796  ALA797  LYS798  CYS799  TRP800  GLU811  SER814 

> <Gold.Protein.RotatedAtoms>
  152.0840  133.4167  159.4513 H   0  0  0  0  0  0  0  0  0  0  0  0  # atno 6907 bound_to 6896
  150.6862  134.2949  159.4691 H   0  0  0  0  0  0  0  0  0  0  0  0  # atno 6908 bound_to 6896
  152.0793  134.9481  160.0624 H   0  0  0  0  0  0  0  0  0  0  0  0  # atno 6909 bound_to 6896
  144.8205  140.5542  143.5582 H   0  0  0  0  0  0  0  0  0  0  0  0  # atno 7974 bound_to 7965
  156.2889  140.2670  156.2266 H   0  0  0  0  0  0  0  0  0  0  0  0  # atno 8008 bound_to 7997
  155.0114  140.0387  157.2419 H   0  0  0  0  0  0  0  0  0  0  0  0  # atno 8009 bound_to 7997
  154.7514  140.2744  155.6294 H   0  0  0  0  0  0  0  0  0  0  0  0  # atno 8010 bound_to 7997
  139.9326  143.6254  152.2525 H   0  0  0  0  0  0  0  0  0  0  0  0  # atno 10167 bound_to 10162
  156.0372  130.5593  150.7623 H   0  0  0  0  0  0  0  0  0  0  0  0  # atno 10718 bound_to 10713
  154.4187  135.2757  155.1990 H   0  0  0  0  0  0  0  0  0  0  0  0  # atno 10763 bound_to 10752
  154.3945  135.6058  153.5865 H   0  0  0  0  0  0  0  0  0  0  0  0  # atno 10764 bound_to 10752
  152.9832  135.5911  154.4480 H   0  0  0  0  0  0  0  0  0  0  0  0  # atno 10765 bound_to 10752
  140.2199  134.8204  157.3210 H   0  0  0  0  0  0  0  0  0  0  0  0  # atno 11005 bound_to 11000
  145.5116  139.1479  143.3601 LP  0  0  0  0  0  0  0  0  0  0  0  0  # atno 17320 bound_to 7965
  146.2510  140.5257  142.8893 LP  0  0  0  0  0  0  0  0  0  0  0  0  # atno 17321 bound_to 7965
  139.6769  144.7658  151.1679 LP  0  0  0  0  0  0  0  0  0  0  0  0  # atno 17342 bound_to 10162
  140.7633  143.5781  150.8924 LP  0  0  0  0  0  0  0  0  0  0  0  0  # atno 17343 bound_to 10162
  157.5139  131.0927  151.0164 LP  0  0  0  0  0  0  0  0  0  0  0  0  # atno 17370 bound_to 10713
  157.0512  130.5788  149.5370 LP  0  0  0  0  0  0  0  0  0  0  0  0  # atno 17371 bound_to 10713
  140.1860  134.4430  155.7743 LP  0  0  0  0  0  0  0  0  0  0  0  0  # atno 17394 bound_to 11000
  141.2223  133.7005  156.7948 LP  0  0  0  0  0  0  0  0  0  0  0  0  # atno 17395 bound_to 11000

$$$$
