AV-unprocessed.smi:2039|AV-procd|sdf|8282|dock3
  -GOLD-   2272010553D 1   1.00000     0.00000
 Structure written by MMmdl.
 33 34  0  0  0  0  0  0  0  0  1 V2000
  152.2382  131.9767  157.2820 C   0  0  0  0  0  0  0  0  0  0  0  0
  151.3471  132.8029  156.4189 C   0  0  0  0  0  0  0  0  0  0  0  0
  151.2078  134.1254  156.5739 N   0  0  0  0  0  0  0  0  0  0  0  0
  150.3255  134.6732  155.6530 N   0  0  0  0  0  0  0  0  0  0  0  0
  149.8240  133.7439  154.8278 C   0  0  0  0  0  0  0  0  0  0  0  0
  148.8971  134.0274  153.7900 N   0  0  0  0  0  0  0  0  0  0  0  0
  147.7402  133.4011  153.5113 C   0  0  0  0  0  0  0  0  0  0  0  0
  147.2803  132.4438  154.1347 O   0  0  0  0  0  0  0  0  0  0  0  0
  147.1320  133.9550  152.4522 N   0  0  0  0  0  0  0  0  0  0  0  0
  145.8602  133.5158  151.8852 C   0  0  2  0  0  0  0  0  0  0  0  0
  146.0428  132.1431  151.2104 C   0  0  0  0  0  0  0  0  0  0  0  0
  144.7411  131.6648  150.5473 C   0  0  0  0  0  0  0  0  0  0  0  0
  144.2202  132.7040  149.5399 C   0  0  1  0  0  0  0  0  0  0  0  0
  142.9922  132.2643  148.9996 O   0  0  0  0  0  0  0  0  0  0  0  0
  144.0260  134.0749  150.2100 C   0  0  0  0  0  0  0  0  0  0  0  0
  145.3246  134.5552  150.8779 C   0  0  0  0  0  0  0  0  0  0  0  0
  150.3952  132.1085  155.1124 S   0  0  0  0  0  0  0  0  0  0  0  0
  152.6871  132.5857  158.0673 H   0  0  0  0  0  0  0  0  0  0  0  0
  153.0352  131.5378  156.6817 H   0  0  0  0  0  0  0  0  0  0  0  0
  151.6664  131.1736  157.7472 H   0  0  0  0  0  0  0  0  0  0  0  0
  149.1439  134.7999  153.1893 H   0  0  0  0  0  0  0  0  0  0  0  0
  147.5819  134.7384  152.0017 H   0  0  0  0  0  0  0  0  0  0  0  0
  145.1337  133.4006  152.6922 H   0  0  0  0  0  0  0  0  0  0  0  0
  146.8296  132.2024  150.4567 H   0  0  0  0  0  0  0  0  0  0  0  0
  146.3724  131.4062  151.9437 H   0  0  0  0  0  0  0  0  0  0  0  0
  144.9106  130.7101  150.0480 H   0  0  0  0  0  0  0  0  0  0  0  0
  143.9891  131.4834  151.3168 H   0  0  0  0  0  0  0  0  0  0  0  0
  144.9320  132.8002  148.7189 H   0  0  0  0  0  0  0  0  0  0  0  0
  142.3537  132.9531  149.1047 H   0  0  0  0  0  0  0  0  0  0  0  0
  143.6967  134.8094  149.4741 H   0  0  0  0  0  0  0  0  0  0  0  0
  143.2366  134.0130  150.9608 H   0  0  0  0  0  0  0  0  0  0  0  0
  145.1448  135.5075  151.3782 H   0  0  0  0  0  0  0  0  0  0  0  0
  146.0757  134.7469  150.1100 H   0  0  0  0  0  0  0  0  0  0  0  0
  1  2  1  0  0  0  0
  1 18  1  0  0  0  0
  1 19  1  0  0  0  0
  1 20  1  0  0  0  0
  2 17  1  0  0  0  0
  2  3  2  0  0  0  0
  3  4  1  0  0  0  0
  4  5  2  0  0  0  0
  5  6  1  0  0  0  0
  5 17  1  0  0  0  0
  6  7  1  0  0  0  0
  6 21  1  0  0  0  0
  7  8  2  0  0  0  0
  7  9  1  0  0  0  0
  9 10  1  0  0  0  0
  9 22  1  0  0  0  0
 10 16  1  0  0  0  0
 10 11  1  0  0  0  0
 10 23  1  0  0  0  0
 11 12  1  0  0  0  0
 11 24  1  0  0  0  0
 11 25  1  0  0  0  0
 12 13  1  0  0  0  0
 12 26  1  0  0  0  0
 12 27  1  0  0  0  0
 13 14  1  0  0  0  0
 13 15  1  0  0  0  0
 13 28  1  0  0  0  0
 14 29  1  0  0  0  0
 15 16  1  0  0  0  0
 15 30  1  0  0  0  0
 15 31  1  0  0  0  0
 16 32  1  0  0  0  0
 16 33  1  0  0  0  0
M  END
> <s_m_source_file>
AV-unprocessed.smi

> <i_m_source_file_index>
2039

> <i_lp_mmshare_version>
43012

> <i_f3d_flags>
0

> <s_epik_input>
W0NIM11jMW5uYyhzMSlbTkhdQyg9TylbTkhdW0NAQEhdMltDSDJdW0NIMl1bQ0BASF0oW09IXSlbQ0gyXVtDSDJdMg==

> <s_epik_cmdline>
J2VwaWtfcHl0aG9uJywgJy1waCcsICc3LjAnLCAnLXRuJywgJzgnLCAnLW1hJywgJzIwMCcsICctbWV0YWxfYmluZGluZycsICctaW1hZScsICc8aW5maWxlLm1hZT4nLCAnLW9tYWUnLCAnPG91dGZpbGUubWFlPic=

> <r_lp_tautomer_probability>
1

> <r_epik_Ionization_Penalty>
0.000385244

> <r_epik_Ionization_Penalty_Charging>
0

> <r_epik_Ionization_Penalty_Neutral>
0.000385244

> <r_epik_State_Penalty>
-0

> <r_epik_Charging_Adjusted_Penalty>
0

> <i_epik_Tot_Q>
0

> <i_epik_Tot_abs_Q>
0

> <r_epik_Metal_State_Penalty>
0.189642

> <b_epik_Metal_Only>
0

> <s_lp_Force_Field>
OPLS_2005

> <r_lp_Energy>
6.55666

> <b_lp_Chiralities_Consistent>
1

> <s_lp_Variant>
AV-unprocessed.smi:2039-1

> <Gold.Version>
5.8.1

> <Gold.Id.Protein>
6NUR|6NUR_protein|mol2

> <Gold.PLP.Fitness>
39.8730

> <Gold.PLP.PLP>
-30.7685

> <Gold.PLP.part.hbond>
-4.8417

> <Gold.PLP.part.metal>
0.0000

> <Gold.PLP.part.buried>
-5.3576

> <Gold.PLP.part.nonpolar>
-21.7557

> <Gold.PLP.part.repulsive>
0.1238

> <Gold.PLP.ligand.clash>
0.0000

> <Gold.PLP.ligand.torsion>
0.5344

> <Gold.PLP.Chemscore.Hbond>
3.3900

> <Gold.PLP.Chemscore.CHOScore>
0.0000

> <Gold.PLP.Chemscore.Metal>
0.0000

> <Gold.Chemscore.Hbonds>
donor molecule, donor type, donor heavy atom, donor atom, acceptor molecule, acceptor atom, score
      L1  H     6    21       P1  7948  0.60
      L1  H     9    22       P1  7948  1.00
      L1  H    14    29       P1 10186  0.99
      P1  H 10785 10796       L1    14  0.71

> <Gold.PLP.Chemscore.Internal.Correction>
0.0033

> <Gold.Rescore>
     Score         DG    S(hbond)    S(metal)    S(lipo)     H(rot)  DE(clash)    DE(int)     intcor
     16.55     -17.24       2.57        0.00      60.07       1.50       0.07       0.63       ----

> <Gold.Chemscore.Fitness>
16.5457

> <Gold.Chemscore.DG>
-17.2372

> <Gold.Chemscore.ZeroCoef>
-5.4800

> <Gold.Chemscore.Hbond>
2.5658

> <Gold.Chemscore.Metal>
0.0000

> <Gold.Chemscore.Lipo>
60.0722

> <Gold.Chemscore.Internal_Hbond>
0.0000

> <Gold.Chemscore.DEClash>
0.0650

> <Gold.Chemscore.DEInternal>
0.6264

> <Gold.Chemscore.Rot>
1.5004

> <Gold.Chemscore.Internal.Correction>
   9.000000E+99

> <Gold.Chemscore.Hbonds>
donor molecule, donor type, donor heavy atom, donor atom, acceptor molecule, acceptor atom, score
      L1  H     6    21       P1  7948  0.04
      L1  H     9    22       P1  7948  0.67
      L1  H    14    29       P1 10186  0.93
      P1  H 10785 10796       L1    14  0.38

> <Gold.Chemscore.Hbond.Weighted>
-8.5696

> <Gold.Chemscore.Metal.Weighted>
-0.0000

> <Gold.Chemscore.Lipo.Weighted>
-7.0284

> <Gold.Chemscore.Internal_Hbond.Weighted>
0.0000

> <Gold.Chemscore.DEClash.Weighted>
0.0650

> <Gold.Chemscore.DEInternal.Weighted>
0.6264

> <Gold.Chemscore.Rot.Weighted>
3.8409

> <Gold.Chemscore.Internal.Correction.Weighted>
   9.000000E+99

> <Gold.Protein.RotatedTorsions>
[ 6907 6896 6895 6894 ] final  131.65 input  -60.11 | X-H torsion
[ 7974 7965 7964 7962 ] final   87.49 input  175.53 | X-H torsion
[ 8008 7997 7996 7995 ] final -167.58 input   59.86 | X-H torsion
[ 10167 10162 10161 10158 ] final   23.95 input  -65.29 | X-H torsion
[ 10718 10713 10712 10709 ] final   25.57 input   66.30 | X-H torsion
[ 10763 10752 10751 10750 ] final   28.18 input  -60.55 | X-H torsion
[ 11005 11000 10999 10996 ] final  141.08 input  -57.11 | X-H torsion

> <Gold.Protein.ActiveResidues>
 VAL166  LYS551  ARG553  GLY616  TRP617  ASP618  TYR619  PRO620  LYS621  CYS622 
 ASP623  PHE694  ASN695  SER759  ASP760  ASP761  ALA762  ILE779  LEU786  VAL792 
 PHE793  MET794  SER795  GLU796  ALA797  LYS798  CYS799  TRP800  GLU811  SER814 

> <Gold.Protein.RotatedAtoms>
  152.3404  133.6060  159.5872 H   0  0  0  0  0  0  0  0  0  0  0  0  # atno 6907 bound_to 6896
  150.7475  133.9731  159.3561 H   0  0  0  0  0  0  0  0  0  0  0  0  # atno 6908 bound_to 6896
  151.7595  135.0814  160.0394 H   0  0  0  0  0  0  0  0  0  0  0  0  # atno 6909 bound_to 6896
  145.5583  139.2301  143.2474 H   0  0  0  0  0  0  0  0  0  0  0  0  # atno 7974 bound_to 7965
  155.8796  140.1007  157.1494 H   0  0  0  0  0  0  0  0  0  0  0  0  # atno 8008 bound_to 7997
  154.4004  140.1331  156.4243 H   0  0  0  0  0  0  0  0  0  0  0  0  # atno 8009 bound_to 7997
  155.7658  140.3462  155.5223 H   0  0  0  0  0  0  0  0  0  0  0  0  # atno 8010 bound_to 7997
  140.5228  143.9974  150.6425 H   0  0  0  0  0  0  0  0  0  0  0  0  # atno 10167 bound_to 10162
  157.1952  130.6864  149.6166 H   0  0  0  0  0  0  0  0  0  0  0  0  # atno 10718 bound_to 10713
  153.0508  135.6519  154.0699 H   0  0  0  0  0  0  0  0  0  0  0  0  # atno 10763 bound_to 10752
  154.0387  135.2905  155.3359 H   0  0  0  0  0  0  0  0  0  0  0  0  # atno 10764 bound_to 10752
  154.6795  135.5325  153.8310 H   0  0  0  0  0  0  0  0  0  0  0  0  # atno 10765 bound_to 10752
  140.0374  134.9322  157.0779 H   0  0  0  0  0  0  0  0  0  0  0  0  # atno 11005 bound_to 11000
  146.1869  140.6407  142.9163 LP  0  0  0  0  0  0  0  0  0  0  0  0  # atno 17320 bound_to 7965
  144.7495  140.5155  143.6812 LP  0  0  0  0  0  0  0  0  0  0  0  0  # atno 17321 bound_to 7965
  140.3327  143.3067  152.0670 LP  0  0  0  0  0  0  0  0  0  0  0  0  # atno 17342 bound_to 10162
  139.4928  144.6497  151.6701 LP  0  0  0  0  0  0  0  0  0  0  0  0  # atno 17343 bound_to 10162
  155.9707  130.4601  150.6061 LP  0  0  0  0  0  0  0  0  0  0  0  0  # atno 17370 bound_to 10713
  157.3822  131.0782  151.1467 LP  0  0  0  0  0  0  0  0  0  0  0  0  # atno 17371 bound_to 10713
  140.4124  134.1967  155.7163 LP  0  0  0  0  0  0  0  0  0  0  0  0  # atno 17394 bound_to 11000
  141.1865  133.8301  157.1067 LP  0  0  0  0  0  0  0  0  0  0  0  0  # atno 17395 bound_to 11000

$$$$
