AV-unprocessed.smi:1803|AV-procd|sdf|7286|dock3
  -GOLD-   22720 8543D 1   1.00000     0.00000
 Structure written by MMmdl.
 36 38  0  0  0  0  0  0  0  0  2 V2000
  147.5363  133.5259  155.1486 O   0  0  0  0  0  0  0  0  0  0  0  0
  147.9133  134.3146  154.2838 C   0  0  0  0  0  0  0  0  0  0  0  0
  148.8035  135.2884  154.5714 N   0  0  0  0  0  0  0  0  0  0  0  0
  149.4730  135.6346  155.7816 C   0  0  0  0  0  0  0  0  0  0  0  0
  149.1876  135.1141  156.9863 N   0  0  0  0  0  0  0  0  0  0  0  0
  149.9902  135.6421  157.9881 N   0  0  0  0  0  0  0  0  0  0  0  0
  150.8461  136.5462  157.5044 C   0  0  0  0  0  0  0  0  0  0  0  0
  150.7530  136.8404  155.7772 S   0  0  0  0  0  0  0  0  0  0  0  0
  147.4699  134.2662  153.0168 N   0  0  0  0  0  0  0  0  0  0  0  0
  146.5167  133.2982  152.4845 C   0  0  1  0  0  0  0  0  0  0  0  0
  146.1394  133.5694  151.0330 C   0  0  0  0  0  0  0  0  0  0  0  0
  145.5866  132.2156  150.5849 C   0  0  0  0  0  0  0  0  0  0  0  0
  146.3686  131.1937  151.3177 N   0  3  2  0  0  0  0  0  0  0  0  0
  145.5994  129.9836  151.6981 C   0  0  0  0  0  0  0  0  0  0  0  0
  146.4977  128.9769  152.4404 C   0  0  0  0  0  0  0  0  0  0  0  0
  147.2997  129.6162  153.5935 C   0  0  0  0  0  0  0  0  0  0  0  0
  146.9826  131.1090  153.7714 C   0  0  0  0  0  0  0  0  0  0  0  0
  147.0907  131.8720  152.4315 C   0  0  2  0  0  0  0  0  0  0  0  0
  149.0203  135.8945  153.7931 H   0  0  0  0  0  0  0  0  0  0  0  0
  151.5357  137.0449  158.1692 H   0  0  0  0  0  0  0  0  0  0  0  0
  147.8286  134.9552  152.3704 H   0  0  0  0  0  0  0  0  0  0  0  0
  145.5979  133.3061  153.0747 H   0  0  0  0  0  0  0  0  0  0  0  0
  145.4164  134.3784  150.9244 H   0  0  0  0  0  0  0  0  0  0  0  0
  147.0248  133.8238  150.4479 H   0  0  0  0  0  0  0  0  0  0  0  0
  144.5336  132.1492  150.8639 H   0  0  0  0  0  0  0  0  0  0  0  0
  145.6547  132.0721  149.5063 H   0  0  0  0  0  0  0  0  0  0  0  0
  144.7542  130.2673  152.3275 H   0  0  0  0  0  0  0  0  0  0  0  0
  145.1821  129.5218  150.8026 H   0  0  0  0  0  0  0  0  0  0  0  0
  145.8863  128.1587  152.8223 H   0  0  0  0  0  0  0  0  0  0  0  0
  147.1931  128.5249  151.7319 H   0  0  0  0  0  0  0  0  0  0  0  0
  147.1079  129.0834  154.5256 H   0  0  0  0  0  0  0  0  0  0  0  0
  148.3657  129.5000  153.3940 H   0  0  0  0  0  0  0  0  0  0  0  0
  145.9785  131.2164  154.1842 H   0  0  0  0  0  0  0  0  0  0  0  0
  147.6581  131.5446  154.5080 H   0  0  0  0  0  0  0  0  0  0  0  0
  148.1385  131.9133  152.1287 H   0  0  0  0  0  0  0  0  0  0  0  0
  147.0908  130.8793  150.6855 H   0  0  0  0  0  0  0  0  0  0  0  0
  1  2  2  0  0  0  0
  2  3  1  0  0  0  0
  2  9  1  0  0  0  0
  3  4  1  0  0  0  0
  3 19  1  0  0  0  0
  4  8  1  0  0  0  0
  4  5  2  0  0  0  0
  5  6  1  0  0  0  0
  6  7  2  0  0  0  0
  7  8  1  0  0  0  0
  7 20  1  0  0  0  0
  9 10  1  0  0  0  0
  9 21  1  0  0  0  0
 10 18  1  0  0  0  0
 10 11  1  0  0  0  0
 10 22  1  0  0  0  0
 11 12  1  0  0  0  0
 11 23  1  0  0  0  0
 11 24  1  0  0  0  0
 12 13  1  0  0  0  0
 12 25  1  0  0  0  0
 12 26  1  0  0  0  0
 13 18  1  0  0  0  0
 13 14  1  0  0  0  0
 13 36  1  0  0  0  0
 14 15  1  0  0  0  0
 14 27  1  0  0  0  0
 14 28  1  0  0  0  0
 15 16  1  0  0  0  0
 15 29  1  0  0  0  0
 15 30  1  0  0  0  0
 16 17  1  0  0  0  0
 16 31  1  0  0  0  0
 16 32  1  0  0  0  0
 17 18  1  0  0  0  0
 17 33  1  0  0  0  0
 17 34  1  0  0  0  0
 18 35  1  0  0  0  0
M  CHG  1  13   1
M  END
> <s_m_source_file>
AV-unprocessed.smi

> <i_m_source_file_index>
1803

> <i_lp_mmshare_version>
43012

> <i_f3d_flags>
0

> <s_epik_input>
czFbY0hdbm5jMVtOSF1DKD1PKVtOSF1bQ0BIXShbQ0gyXVtDSDJdMilbQ0BASF0oTjIzKVtDSDJdW0NIMl1bQ0gyXVtDSDJdMw==

> <s_epik_cmdline>
J2VwaWtfcHl0aG9uJywgJy1waCcsICc3LjAnLCAnLXRuJywgJzgnLCAnLW1hJywgJzIwMCcsICctbWV0YWxfYmluZGluZycsICctaW1hZScsICc8aW5maWxlLm1hZT4nLCAnLW9tYWUnLCAnPG91dGZpbGUubWFlPic=

> <r_lp_tautomer_probability>
1

> <r_epik_Ionization_Penalty>
0.00213286

> <r_epik_Ionization_Penalty_Charging>
0.00107044

> <r_epik_Ionization_Penalty_Neutral>
0.00106242

> <r_epik_State_Penalty>
-0

> <r_epik_Charging_Adjusted_Penalty>
0.00107044

> <i_epik_Tot_Q>
1

> <i_epik_Tot_abs_Q>
1

> <r_epik_Metal_State_Penalty>
0.292783

> <b_epik_Metal_Only>
0

> <s_lp_Force_Field>
OPLS_2005

> <r_lp_Energy>
41.2336

> <b_lp_Chiralities_Consistent>
1

> <s_lp_Variant>
AV-unprocessed.smi:1803-8

> <Gold.Version>
5.8.1

> <Gold.Id.Protein>
6NUR|6NUR_protein|mol2

> <Gold.PLP.Fitness>
35.6076

> <Gold.PLP.PLP>
-23.9765

> <Gold.PLP.part.hbond>
-4.0000

> <Gold.PLP.part.metal>
0.0000

> <Gold.PLP.part.buried>
-3.0681

> <Gold.PLP.part.nonpolar>
-17.3210

> <Gold.PLP.part.repulsive>
0.0482

> <Gold.PLP.ligand.clash>
0.0000

> <Gold.PLP.ligand.torsion>
0.0565

> <Gold.PLP.Chemscore.Hbond>
3.9120

> <Gold.PLP.Chemscore.CHOScore>
0.0000

> <Gold.PLP.Chemscore.Metal>
0.0000

> <Gold.Chemscore.Hbonds>
donor molecule, donor type, donor heavy atom, donor atom, acceptor molecule, acceptor atom, score
      L1  H     3    19       P1  7948  0.98
      L1  H     9    21       P1  7948  1.00
      L1  H    13    36       P1 10747  0.94
      P1  H  6896  6907       L1     6  0.91

> <Gold.PLP.Chemscore.Internal.Correction>
0.0080

> <Gold.Rescore>
     Score         DG    S(hbond)    S(metal)    S(lipo)     H(rot)  DE(clash)    DE(int)     intcor
     19.14     -21.74       3.59        0.00      58.41       1.00       0.01       2.60       ----

> <Gold.Chemscore.Fitness>
19.1385

> <Gold.Chemscore.DG>
-21.7435

> <Gold.Chemscore.ZeroCoef>
-5.4800

> <Gold.Chemscore.Hbond>
3.5898

> <Gold.Chemscore.Metal>
0.0000

> <Gold.Chemscore.Lipo>
58.4072

> <Gold.Chemscore.Internal_Hbond>
0.0000

> <Gold.Chemscore.DEClash>
0.0089

> <Gold.Chemscore.DEInternal>
2.5962

> <Gold.Chemscore.Rot>
1.0000

> <Gold.Chemscore.Internal.Correction>
   9.000000E+99

> <Gold.Chemscore.Hbonds>
donor molecule, donor type, donor heavy atom, donor atom, acceptor molecule, acceptor atom, score
      L1  H     3    19       P1  7948  0.86
      L1  H     9    21       P1  7948  0.86
      L1  H    13    36       P1 10747  0.92
      P1  H  6896  6907       L1     6  0.73

> <Gold.Chemscore.Hbond.Weighted>
-11.9899

> <Gold.Chemscore.Metal.Weighted>
-0.0000

> <Gold.Chemscore.Lipo.Weighted>
-6.8336

> <Gold.Chemscore.Internal_Hbond.Weighted>
0.0000

> <Gold.Chemscore.DEClash.Weighted>
0.0089

> <Gold.Chemscore.DEInternal.Weighted>
2.5962

> <Gold.Chemscore.Rot.Weighted>
2.5600

> <Gold.Chemscore.Internal.Correction.Weighted>
   9.000000E+99

> <Gold.Protein.RotatedTorsions>
[ 6907 6896 6895 6894 ] final  -67.07 input  -60.11 | X-H torsion
[ 7974 7965 7964 7962 ] final -112.20 input  175.53 | X-H torsion
[ 8008 7997 7996 7995 ] final    0.19 input   59.86 | X-H torsion
[ 10167 10162 10161 10158 ] final -103.41 input  -65.29 | X-H torsion
[ 10718 10713 10712 10709 ] final   41.78 input   66.30 | X-H torsion
[ 10763 10752 10751 10750 ] final  -76.01 input  -60.55 | X-H torsion
[ 11005 11000 10999 10996 ] final   80.89 input  -57.11 | X-H torsion

> <Gold.Protein.ActiveResidues>
 VAL166  LYS551  ARG553  GLY616  TRP617  ASP618  TYR619  PRO620  LYS621  CYS622 
 ASP623  PHE694  ASN695  SER759  ASP760  ASP761  ALA762  ILE779  LEU786  VAL792 
 PHE793  MET794  SER795  GLU796  ALA797  LYS798  CYS799  TRP800  GLU811  SER814 

> <Gold.Protein.RotatedAtoms>
  150.7430  134.5933  159.5998 H   0  0  0  0  0  0  0  0  0  0  0  0  # atno 6907 bound_to 6896
  152.3315  134.7251  160.0297 H   0  0  0  0  0  0  0  0  0  0  0  0  # atno 6908 bound_to 6896
  151.7733  133.3307  159.3487 H   0  0  0  0  0  0  0  0  0  0  0  0  # atno 6909 bound_to 6896
  145.1469  140.8808  143.3669 H   0  0  0  0  0  0  0  0  0  0  0  0  # atno 7974 bound_to 7965
  154.6652  140.2599  155.7066 H   0  0  0  0  0  0  0  0  0  0  0  0  # atno 8008 bound_to 7997
  156.2635  140.2840  156.1061 H   0  0  0  0  0  0  0  0  0  0  0  0  # atno 8009 bound_to 7997
  155.1249  140.0377  157.2750 H   0  0  0  0  0  0  0  0  0  0  0  0  # atno 8010 bound_to 7997
  140.2203  143.3681  152.0975 H   0  0  0  0  0  0  0  0  0  0  0  0  # atno 10167 bound_to 10162
  157.3975  130.7841  149.7320 H   0  0  0  0  0  0  0  0  0  0  0  0  # atno 10718 bound_to 10713
  154.4942  135.5812  153.6482 H   0  0  0  0  0  0  0  0  0  0  0  0  # atno 10763 bound_to 10752
  152.9867  135.6120  154.3086 H   0  0  0  0  0  0  0  0  0  0  0  0  # atno 10764 bound_to 10752
  154.2988  135.2847  155.2600 H   0  0  0  0  0  0  0  0  0  0  0  0  # atno 10765 bound_to 10752
  139.9118  134.7955  156.1969 H   0  0  0  0  0  0  0  0  0  0  0  0  # atno 11005 bound_to 11000
  145.0472  139.3211  143.5947 LP  0  0  0  0  0  0  0  0  0  0  0  0  # atno 17320 bound_to 7965
  146.3499  139.9867  142.8690 LP  0  0  0  0  0  0  0  0  0  0  0  0  # atno 17321 bound_to 7965
  139.5147  144.6951  151.5652 LP  0  0  0  0  0  0  0  0  0  0  0  0  # atno 17342 bound_to 10162
  140.6260  143.9168  150.6565 LP  0  0  0  0  0  0  0  0  0  0  0  0  # atno 17343 bound_to 10162
  155.9814  130.4019  150.3473 LP  0  0  0  0  0  0  0  0  0  0  0  0  # atno 17370 bound_to 10713
  157.1596  131.0342  151.2847 LP  0  0  0  0  0  0  0  0  0  0  0  0  # atno 17371 bound_to 10713
  141.0549  133.6870  156.1841 LP  0  0  0  0  0  0  0  0  0  0  0  0  # atno 17394 bound_to 11000
  140.6752  134.4825  157.5588 LP  0  0  0  0  0  0  0  0  0  0  0  0  # atno 17395 bound_to 11000

$$$$
