AV-unprocessed.smi:3314|AV-procd|sdf|12744|dock8
  -GOLD-   2272019 83D 1   1.00000     0.00000
 Structure written by MMmdl.
 37 38  0  0  0  0  0  0  0  0  3 V2000
  154.2784  141.1668  162.4144 C   0  0  0  0  0  0  0  0  0  0  0  0
  153.5736  141.5237  161.1229 C   0  0  0  0  0  0  0  0  0  0  0  0
  152.9870  142.7909  160.9450 C   0  0  0  0  0  0  0  0  0  0  0  0
  152.3508  143.0604  159.7177 C   0  0  0  0  0  0  0  0  0  0  0  0
  151.6991  144.4034  159.4649 C   0  0  0  0  0  0  0  0  0  0  0  0
  152.2741  142.1613  158.7126 N   0  0  0  0  0  0  0  0  0  0  0  0
  152.8284  140.9362  158.8742 C   0  0  0  0  0  0  0  0  0  0  0  0
  152.7527  140.0573  157.8648 N   0  5  0  0  0  0  0  0  0  0  0  0
  151.7974  140.1990  156.9140 C   0  0  0  0  0  0  0  0  0  0  0  0
  150.7277  140.8075  156.9863 O   0  0  0  0  0  0  0  0  0  0  0  0
  152.1888  139.4765  155.6050 C   0  0  1  0  0  0  0  0  0  0  0  0
  152.3315  137.9418  155.7420 C   0  0  0  0  0  0  0  0  0  0  0  0
  151.0114  137.3014  155.9527 N   0  3  2  0  0  0  0  0  0  0  0  0
  151.1103  135.8418  156.1617 C   0  0  0  0  0  0  0  0  0  0  0  0
  150.0712  137.6623  154.8679 C   0  0  0  0  0  0  0  0  0  0  0  0
  149.9566  139.1905  154.7464 C   0  0  0  0  0  0  0  0  0  0  0  0
  151.2535  139.7545  154.5550 O   0  0  0  0  0  0  0  0  0  0  0  0
  153.4948  140.5881  160.0720 C   0  0  0  0  0  0  0  0  0  0  0  0
  154.1305  141.9364  163.1725 H   0  0  0  0  0  0  0  0  0  0  0  0
  155.3489  141.0578  162.2408 H   0  0  0  0  0  0  0  0  0  0  0  0
  153.8952  140.2245  162.8067 H   0  0  0  0  0  0  0  0  0  0  0  0
  153.0240  143.5366  161.7256 H   0  0  0  0  0  0  0  0  0  0  0  0
  152.2236  145.1943  160.0019 H   0  0  0  0  0  0  0  0  0  0  0  0
  150.6630  144.3872  159.8030 H   0  0  0  0  0  0  0  0  0  0  0  0
  151.7105  144.6514  158.4027 H   0  0  0  0  0  0  0  0  0  0  0  0
  153.1540  139.8801  155.2957 H   0  0  0  0  0  0  0  0  0  0  0  0
  152.7900  137.5348  154.8394 H   0  0  0  0  0  0  0  0  0  0  0  0
  153.0008  137.6937  156.5674 H   0  0  0  0  0  0  0  0  0  0  0  0
  151.5185  135.3467  155.2795 H   0  0  0  0  0  0  0  0  0  0  0  0
  150.1279  135.4171  156.3697 H   0  0  0  0  0  0  0  0  0  0  0  0
  151.7563  135.6188  157.0115 H   0  0  0  0  0  0  0  0  0  0  0  0
  150.4195  137.2374  153.9251 H   0  0  0  0  0  0  0  0  0  0  0  0
  149.0895  137.2327  155.0708 H   0  0  0  0  0  0  0  0  0  0  0  0
  149.3346  139.4502  153.8898 H   0  0  0  0  0  0  0  0  0  0  0  0
  149.4656  139.6151  155.6230 H   0  0  0  0  0  0  0  0  0  0  0  0
  153.9391  139.6094  160.1846 H   0  0  0  0  0  0  0  0  0  0  0  0
  150.6374  137.6945  156.8055 H   0  0  0  0  0  0  0  0  0  0  0  0
  1  2  1  0  0  0  0
  1 19  1  0  0  0  0
  1 20  1  0  0  0  0
  1 21  1  0  0  0  0
  2 18  2  0  0  0  0
  2  3  1  0  0  0  0
  3  4  2  0  0  0  0
  3 22  1  0  0  0  0
  4  5  1  0  0  0  0
  4  6  1  0  0  0  0
  5 23  1  0  0  0  0
  5 24  1  0  0  0  0
  5 25  1  0  0  0  0
  6  7  2  0  0  0  0
  7  8  1  0  0  0  0
  7 18  1  0  0  0  0
  8  9  1  0  0  0  0
  9 10  2  0  0  0  0
  9 11  1  0  0  0  0
 11 17  1  0  0  0  0
 11 12  1  0  0  0  0
 11 26  1  0  0  0  0
 12 13  1  0  0  0  0
 12 27  1  0  0  0  0
 12 28  1  0  0  0  0
 13 14  1  0  0  0  0
 13 15  1  0  0  0  0
 13 37  1  0  0  0  0
 14 29  1  0  0  0  0
 14 30  1  0  0  0  0
 14 31  1  0  0  0  0
 15 16  1  0  0  0  0
 15 32  1  0  0  0  0
 15 33  1  0  0  0  0
 16 17  1  0  0  0  0
 16 34  1  0  0  0  0
 16 35  1  0  0  0  0
 18 36  1  0  0  0  0
M  CHG  1   8  -1
M  CHG  1  13   1
M  END
> <s_m_source_file>
AV-unprocessed.smi

> <i_m_source_file_index>
3314

> <i_lp_mmshare_version>
43012

> <i_f3d_flags>
0

> <s_epik_input>
W0NIM11jMVtjSF1jKFtDSDNdKW5jKFtjSF0xKVtOSF1DKD1PKVtDQEBIXTJbQ0gyXU4oW0NIM10pW0NIMl1bQ0gyXU8y

> <s_epik_cmdline>
J2VwaWtfcHl0aG9uJywgJy1waCcsICc3LjAnLCAnLXRuJywgJzgnLCAnLW1hJywgJzIwMCcsICctbWV0YWxfYmluZGluZycsICctaW1hZScsICc8aW5maWxlLm1hZT4nLCAnLW9tYWUnLCAnPG91dGZpbGUubWFlPic=

> <r_epik_Ionization_Penalty>
13.8964

> <r_epik_Ionization_Penalty_Charging>
7.88995

> <r_epik_Ionization_Penalty_Neutral>
6.00641

> <r_epik_State_Penalty>
8.39989

> <r_epik_Charging_Adjusted_Penalty>
16.2898

> <i_epik_Tot_Q>
0

> <i_epik_Tot_abs_Q>
2

> <r_epik_Metal_State_Penalty>
4.31145

> <b_epik_Metal_Only>
1

> <s_lp_Force_Field>
OPLS_2005

> <r_lp_Energy>
7.08315

> <b_lp_Chiralities_Consistent>
1

> <s_lp_Variant>
AV-unprocessed.smi:3314-14

> <Gold.Version>
5.8.1

> <Gold.Id.Protein>
6NUR|6NUR_protein|mol2

> <Gold.PLP.Fitness>
45.2174

> <Gold.PLP.PLP>
-36.7503

> <Gold.PLP.part.hbond>
-1.9792

> <Gold.PLP.part.metal>
0.0000

> <Gold.PLP.part.buried>
-3.3470

> <Gold.PLP.part.nonpolar>
-31.5747

> <Gold.PLP.part.repulsive>
0.1732

> <Gold.PLP.ligand.clash>
0.0000

> <Gold.PLP.ligand.torsion>
0.2528

> <Gold.PLP.Chemscore.Hbond>
2.9753

> <Gold.PLP.Chemscore.CHOScore>
0.0000

> <Gold.PLP.Chemscore.Metal>
0.0000

> <Gold.Chemscore.Hbonds>
donor molecule, donor type, donor heavy atom, donor atom, acceptor molecule, acceptor atom, score
      P1  H  7989  7998       L1    17  1.00
      P1  H  7997  8010       L1     8  2.00

> <Gold.PLP.Chemscore.Internal.Correction>
0.0470

> <Gold.Rescore>
     Score         DG    S(hbond)    S(metal)    S(lipo)     H(rot)  DE(clash)    DE(int)     intcor
     15.59     -18.65       1.45        0.00      93.19       1.00       0.00       3.06       ----

> <Gold.Chemscore.Fitness>
15.5900

> <Gold.Chemscore.DG>
-18.6507

> <Gold.Chemscore.ZeroCoef>
-5.4800

> <Gold.Chemscore.Hbond>
1.4454

> <Gold.Chemscore.Metal>
0.0000

> <Gold.Chemscore.Lipo>
93.1875

> <Gold.Chemscore.Internal_Hbond>
0.0000

> <Gold.Chemscore.DEClash>
0.0033

> <Gold.Chemscore.DEInternal>
3.0574

> <Gold.Chemscore.Rot>
1.0000

> <Gold.Chemscore.Internal.Correction>
   9.000000E+99

> <Gold.Chemscore.Hbonds>
donor molecule, donor type, donor heavy atom, donor atom, acceptor molecule, acceptor atom, score
      P1  H  7989  7998       L1    17  0.93
      P1  H  7997  8010       L1     8  0.35

> <Gold.Chemscore.Hbond.Weighted>
-4.8277

> <Gold.Chemscore.Metal.Weighted>
-0.0000

> <Gold.Chemscore.Lipo.Weighted>
-10.9029

> <Gold.Chemscore.Internal_Hbond.Weighted>
0.0000

> <Gold.Chemscore.DEClash.Weighted>
0.0033

> <Gold.Chemscore.DEInternal.Weighted>
3.0574

> <Gold.Chemscore.Rot.Weighted>
2.5600

> <Gold.Chemscore.Internal.Correction.Weighted>
   9.000000E+99

> <Gold.Protein.RotatedTorsions>
[ 6907 6896 6895 6894 ] final   35.64 input  -60.11 | X-H torsion
[ 7974 7965 7964 7962 ] final  -68.61 input  175.53 | X-H torsion
[ 8008 7997 7996 7995 ] final   36.98 input   59.86 | X-H torsion
[ 10167 10162 10161 10158 ] final   48.98 input  -65.29 | X-H torsion
[ 10718 10713 10712 10709 ] final -176.28 input   66.30 | X-H torsion
[ 10763 10752 10751 10750 ] final   -2.33 input  -60.55 | X-H torsion
[ 11005 11000 10999 10996 ] final   39.10 input  -57.11 | X-H torsion

> <Gold.Protein.ActiveResidues>
 VAL166  LYS551  ARG553  GLY616  TRP617  ASP618  TYR619  PRO620  LYS621  CYS622 
 ASP623  PHE694  ASN695  SER759  ASP760  ASP761  ALA762  ILE779  LEU786  VAL792 
 PHE793  MET794  SER795  GLU796  ALA797  LYS798  CYS799  TRP800  GLU811  SER814 

> <Gold.Protein.RotatedAtoms>
  152.1189  134.9220  160.0563 H   0  0  0  0  0  0  0  0  0  0  0  0  # atno 6907 bound_to 6896
  152.0369  133.3956  159.4328 H   0  0  0  0  0  0  0  0  0  0  0  0  # atno 6908 bound_to 6896
  150.6848  134.3379  159.4899 H   0  0  0  0  0  0  0  0  0  0  0  0  # atno 6909 bound_to 6896
  145.7144  140.9065  143.0664 H   0  0  0  0  0  0  0  0  0  0  0  0  # atno 7974 bound_to 7965
  155.1962  140.3312  155.4350 H   0  0  0  0  0  0  0  0  0  0  0  0  # atno 8008 bound_to 7997
  156.2424  140.1901  156.7002 H   0  0  0  0  0  0  0  0  0  0  0  0  # atno 8009 bound_to 7997
  154.6172  140.0600  156.9555 H   0  0  0  0  0  0  0  0  0  0  0  0  # atno 8010 bound_to 7997
  140.2877  144.3083  150.6248 H   0  0  0  0  0  0  0  0  0  0  0  0  # atno 10167 bound_to 10162
  156.8123  130.9590  151.3115 H   0  0  0  0  0  0  0  0  0  0  0  0  # atno 10718 bound_to 10713
  153.3566  135.6988  153.6746 H   0  0  0  0  0  0  0  0  0  0  0  0  # atno 10763 bound_to 10752
  153.5451  135.3565  155.2736 H   0  0  0  0  0  0  0  0  0  0  0  0  # atno 10764 bound_to 10752
  154.8661  135.4213  154.2813 H   0  0  0  0  0  0  0  0  0  0  0  0  # atno 10765 bound_to 10752
  140.2061  134.3812  155.8072 H   0  0  0  0  0  0  0  0  0  0  0  0  # atno 11005 bound_to 11000
  144.6933  139.9117  143.7464 LP  0  0  0  0  0  0  0  0  0  0  0  0  # atno 17320 bound_to 7965
  146.0683  139.3673  143.0538 LP  0  0  0  0  0  0  0  0  0  0  0  0  # atno 17321 bound_to 7965
  140.5759  143.2176  151.7516 LP  0  0  0  0  0  0  0  0  0  0  0  0  # atno 17342 bound_to 10162
  139.4946  144.4151  152.0039 LP  0  0  0  0  0  0  0  0  0  0  0  0  # atno 17343 bound_to 10162
  157.6499  130.8876  149.9613 LP  0  0  0  0  0  0  0  0  0  0  0  0  # atno 17370 bound_to 10713
  156.1037  130.3654  150.0172 LP  0  0  0  0  0  0  0  0  0  0  0  0  # atno 17371 bound_to 10713
  141.2227  133.7119  156.8339 LP  0  0  0  0  0  0  0  0  0  0  0  0  # atno 17394 bound_to 11000
  140.2001  134.8903  157.3160 LP  0  0  0  0  0  0  0  0  0  0  0  0  # atno 17395 bound_to 11000

$$$$
