AV-unprocessed.smi:1683|AV-procd|sdf|6747|dock6
  -GOLD-   22720 7503D 1   1.00000     0.00000
 Structure written by MMmdl.
 36 37  0  0  0  0  0  0  0  0  1 V2000
  144.3955  136.4488  152.0806 O   0  0  0  0  0  0  0  0  0  0  0  0
  145.5613  136.3406  151.6990 C   0  0  0  0  0  0  0  0  0  0  0  0
  146.4446  137.3493  151.7130 N   0  0  0  0  0  0  0  0  0  0  0  0
  146.1752  138.7054  152.1817 C   0  0  0  0  0  0  0  0  0  0  0  0
  147.0631  139.0857  153.3814 C   0  0  2  0  0  0  0  0  0  0  0  0
  146.8166  140.5018  153.9041 C   0  0  0  0  0  0  0  0  0  0  0  0
  148.2125  141.1033  154.0925 C   0  0  0  0  0  0  0  0  0  0  0  0
  149.1051  139.9505  154.1229 N   0  0  0  0  0  0  0  0  0  0  0  0
  150.5014  140.2859  153.8503 C   0  0  0  0  0  0  0  0  0  0  0  0
  151.4899  139.2066  154.3339 C   0  0  0  0  0  0  0  0  0  0  0  0
  151.3944  138.1507  153.5268 F   0  0  0  0  0  0  0  0  0  0  0  0
  152.7488  139.6432  154.2986 F   0  0  0  0  0  0  0  0  0  0  0  0
  151.1906  138.8197  155.5743 F   0  0  0  0  0  0  0  0  0  0  0  0
  148.5665  139.0735  153.0935 C   0  0  0  0  0  0  0  0  0  0  0  0
  146.1131  135.2160  151.2144 N   0  0  0  0  0  0  0  0  0  0  0  0
  145.4976  133.9461  151.0735 C   0  0  0  0  0  0  0  0  0  0  0  0
  146.1987  132.7218  150.9013 C   0  0  0  0  0  0  0  0  0  0  0  0
  145.3647  131.6964  150.8020 N   0  0  0  0  0  0  0  0  0  0  0  0
  144.1378  132.2546  150.9098 N   0  0  0  0  0  0  0  0  0  0  0  0
  144.1699  133.6216  151.0768 C   0  0  0  0  0  0  0  0  0  0  0  0
  143.2975  131.6956  150.8693 H   0  0  0  0  0  0  0  0  0  0  0  0
  147.3784  137.1652  151.3758 H   0  0  0  0  0  0  0  0  0  0  0  0
  146.2927  139.4298  151.3738 H   0  0  0  0  0  0  0  0  0  0  0  0
  145.1268  138.7495  152.4777 H   0  0  0  0  0  0  0  0  0  0  0  0
  146.8696  138.3875  154.1979 H   0  0  0  0  0  0  0  0  0  0  0  0
  146.2330  141.1081  153.2104 H   0  0  0  0  0  0  0  0  0  0  0  0
  146.2729  140.4686  154.8489 H   0  0  0  0  0  0  0  0  0  0  0  0
  148.4559  141.7427  153.2421 H   0  0  0  0  0  0  0  0  0  0  0  0
  148.2822  141.7004  155.0019 H   0  0  0  0  0  0  0  0  0  0  0  0
  150.6132  140.3889  152.7701 H   0  0  0  0  0  0  0  0  0  0  0  0
  150.7527  141.2557  154.2824 H   0  0  0  0  0  0  0  0  0  0  0  0
  148.9949  138.0720  153.1468 H   0  0  0  0  0  0  0  0  0  0  0  0
  148.7711  139.4846  152.1031 H   0  0  0  0  0  0  0  0  0  0  0  0
  147.0780  135.2709  150.9226 H   0  0  0  0  0  0  0  0  0  0  0  0
  147.2629  132.5461  150.8469 H   0  0  0  0  0  0  0  0  0  0  0  0
  143.2721  134.2130  151.1802 H   0  0  0  0  0  0  0  0  0  0  0  0
  1  2  2  0  0  0  0
  2  3  1  0  0  0  0
  2 15  1  0  0  0  0
  3  4  1  0  0  0  0
  3 22  1  0  0  0  0
  4  5  1  0  0  0  0
  4 23  1  0  0  0  0
  4 24  1  0  0  0  0
  5 14  1  0  0  0  0
  5  6  1  0  0  0  0
  5 25  1  0  0  0  0
  6  7  1  0  0  0  0
  6 26  1  0  0  0  0
  6 27  1  0  0  0  0
  7  8  1  0  0  0  0
  7 28  1  0  0  0  0
  7 29  1  0  0  0  0
  8  9  1  0  0  0  0
  8 14  1  0  0  0  0
  9 10  1  0  0  0  0
  9 30  1  0  0  0  0
  9 31  1  0  0  0  0
 10 11  1  0  0  0  0
 10 12  1  0  0  0  0
 10 13  1  0  0  0  0
 14 32  1  0  0  0  0
 14 33  1  0  0  0  0
 15 16  1  0  0  0  0
 15 34  1  0  0  0  0
 16 20  2  0  0  0  0
 16 17  1  0  0  0  0
 17 18  2  0  0  0  0
 17 35  1  0  0  0  0
 18 19  1  0  0  0  0
 19 21  1  0  0  0  0
 19 20  1  0  0  0  0
 20 36  1  0  0  0  0
M  END
> <s_m_source_file>
AV-unprocessed.smi

> <i_m_source_file_index>
1683

> <i_lp_mmshare_version>
43012

> <i_f3d_flags>
0

> <s_epik_input>
W2NIXTFbbkhdbltjSF1jMVtOSF1DKD1PKVtOSF1bQ0gyXVtDQEBIXTJbQ0gyXVtDSDJdTihbQ0gyXTIpW0NIMl1DKEYpKEYpRg==

> <s_epik_cmdline>
J2VwaWtfcHl0aG9uJywgJy1waCcsICc3LjAnLCAnLXRuJywgJzgnLCAnLW1hJywgJzIwMCcsICctbWV0YWxfYmluZGluZycsICctaW1hZScsICc8aW5maWxlLm1hZT4nLCAnLW9tYWUnLCAnPG91dGZpbGUubWFlPic=

> <r_lp_tautomer_probability>
0.5

> <r_epik_Ionization_Penalty>
0.244885

> <r_epik_Ionization_Penalty_Charging>
0

> <r_epik_Ionization_Penalty_Neutral>
0.244885

> <r_epik_State_Penalty>
0.235951

> <r_epik_Charging_Adjusted_Penalty>
0.235951

> <i_epik_Tot_Q>
0

> <i_epik_Tot_abs_Q>
0

> <r_epik_Metal_State_Penalty>
0.23595

> <b_epik_Metal_Only>
0

> <s_lp_Force_Field>
OPLS_2005

> <r_lp_Energy>
32.4259

> <b_lp_Chiralities_Consistent>
1

> <s_lp_Variant>
AV-unprocessed.smi:1683-1

> <Gold.Version>
5.8.1

> <Gold.Id.Protein>
6NUR|6NUR_protein|mol2

> <Gold.PLP.Fitness>
40.1649

> <Gold.PLP.PLP>
-30.1368

> <Gold.PLP.part.hbond>
-2.0000

> <Gold.PLP.part.metal>
0.0000

> <Gold.PLP.part.buried>
1.8462

> <Gold.PLP.part.nonpolar>
-33.1525

> <Gold.PLP.part.repulsive>
2.6919

> <Gold.PLP.ligand.clash>
0.0000

> <Gold.PLP.ligand.torsion>
0.3954

> <Gold.PLP.Chemscore.Hbond>
1.5860

> <Gold.PLP.Chemscore.CHOScore>
1.8769

> <Gold.PLP.Chemscore.Metal>
0.0000

> <Gold.Chemscore.Hbonds>
donor molecule, donor type, donor heavy atom, donor atom, acceptor molecule, acceptor atom, score
      L1  H     3    22       P1  7948  0.85
      L1  H    15    34       P1  7948  0.32
      L1  C    17    35       P1 10747  1.00
      L1  C    20    36       P1 10186  0.35

> <Gold.PLP.Chemscore.Internal.Correction>
0.4300

> <Gold.Rescore>
     Score         DG    S(hbond)    S(metal)    S(lipo)     H(rot)  DE(clash)    DE(int)     intcor
     12.23     -13.90       1.88        0.00      57.12       1.78       0.02       1.65       ----

> <Gold.Chemscore.Fitness>
12.2324

> <Gold.Chemscore.DG>
-13.9002

> <Gold.Chemscore.ZeroCoef>
-5.4800

> <Gold.Chemscore.Hbond>
1.8841

> <Gold.Chemscore.Metal>
0.0000

> <Gold.Chemscore.Lipo>
57.1160

> <Gold.Chemscore.Internal_Hbond>
0.0000

> <Gold.Chemscore.DEClash>
0.0219

> <Gold.Chemscore.DEInternal>
1.6459

> <Gold.Chemscore.Rot>
1.7793

> <Gold.Chemscore.Internal.Correction>
   9.000000E+99

> <Gold.Chemscore.Hbonds>
donor molecule, donor type, donor heavy atom, donor atom, acceptor molecule, acceptor atom, score
      L1  H     3    22       P1  7948  0.83
      L1  H    15    34       P1  7948  0.19

> <Gold.Chemscore.Hbond.Weighted>
-6.2927

> <Gold.Chemscore.Metal.Weighted>
-0.0000

> <Gold.Chemscore.Lipo.Weighted>
-6.6826

> <Gold.Chemscore.Internal_Hbond.Weighted>
0.0000

> <Gold.Chemscore.DEClash.Weighted>
0.0219

> <Gold.Chemscore.DEInternal.Weighted>
1.6459

> <Gold.Chemscore.Rot.Weighted>
4.5551

> <Gold.Chemscore.Internal.Correction.Weighted>
   9.000000E+99

> <Gold.Protein.RotatedTorsions>
[ 6907 6896 6895 6894 ] final -116.57 input  -60.11 | X-H torsion
[ 7974 7965 7964 7962 ] final   -4.76 input  175.53 | X-H torsion
[ 8008 7997 7996 7995 ] final  -30.34 input   59.86 | X-H torsion
[ 10167 10162 10161 10158 ] final   17.89 input  -65.29 | X-H torsion
[ 10718 10713 10712 10709 ] final   12.14 input   66.30 | X-H torsion
[ 10763 10752 10751 10750 ] final   82.48 input  -60.55 | X-H torsion
[ 11005 11000 10999 10996 ] final  -75.11 input  -57.11 | X-H torsion

> <Gold.Protein.ActiveResidues>
 VAL166  LYS551  ARG553  GLY616  TRP617  ASP618  TYR619  PRO620  LYS621  CYS622 
 ASP623  PHE694  ASN695  SER759  ASP760  ASP761  ALA762  ILE779  LEU786  VAL792 
 PHE793  MET794  SER795  GLU796  ALA797  LYS798  CYS799  TRP800  GLU811  SER814 

> <Gold.Protein.RotatedAtoms>
  150.8066  133.8499  159.3202 H   0  0  0  0  0  0  0  0  0  0  0  0  # atno 6907 bound_to 6896
  151.6296  135.1022  160.0128 H   0  0  0  0  0  0  0  0  0  0  0  0  # atno 6908 bound_to 6896
  152.4157  133.6994  159.6472 H   0  0  0  0  0  0  0  0  0  0  0  0  # atno 6909 bound_to 6896
  146.2366  140.1919  142.8332 H   0  0  0  0  0  0  0  0  0  0  0  0  # atno 7974 bound_to 7965
  154.4254  140.1794  156.1391 H   0  0  0  0  0  0  0  0  0  0  0  0  # atno 8008 bound_to 7997
  156.0006  140.3360  155.6817 H   0  0  0  0  0  0  0  0  0  0  0  0  # atno 8009 bound_to 7997
  155.6248  140.0663  157.2658 H   0  0  0  0  0  0  0  0  0  0  0  0  # atno 8010 bound_to 7997
  140.5693  143.9191  150.6700 H   0  0  0  0  0  0  0  0  0  0  0  0  # atno 10167 bound_to 10162
  157.0058  130.6097  149.5702 H   0  0  0  0  0  0  0  0  0  0  0  0  # atno 10718 bound_to 10713
  153.1206  135.4727  154.9189 H   0  0  0  0  0  0  0  0  0  0  0  0  # atno 10763 bound_to 10752
  154.7572  135.3121  154.8450 H   0  0  0  0  0  0  0  0  0  0  0  0  # atno 10764 bound_to 10752
  153.9015  135.6874  153.4809 H   0  0  0  0  0  0  0  0  0  0  0  0  # atno 10765 bound_to 10752
  141.1642  133.6935  156.7466 H   0  0  0  0  0  0  0  0  0  0  0  0  # atno 11005 bound_to 11000
  144.9851  140.8495  143.5374 LP  0  0  0  0  0  0  0  0  0  0  0  0  # atno 17320 bound_to 7965
  145.1918  139.2297  143.5239 LP  0  0  0  0  0  0  0  0  0  0  0  0  # atno 17321 bound_to 7965
  140.2662  143.3488  152.1278 LP  0  0  0  0  0  0  0  0  0  0  0  0  # atno 17342 bound_to 10162
  139.5109  144.6892  151.5806 LP  0  0  0  0  0  0  0  0  0  0  0  0  # atno 17343 bound_to 10162
  156.0154  130.5248  150.8118 LP  0  0  0  0  0  0  0  0  0  0  0  0  # atno 17370 bound_to 10713
  157.5357  131.0938  150.9896 LP  0  0  0  0  0  0  0  0  0  0  0  0  # atno 17371 bound_to 10713
  140.2635  134.8448  157.3780 LP  0  0  0  0  0  0  0  0  0  0  0  0  # atno 17394 bound_to 11000
  140.1589  134.4754  155.7908 LP  0  0  0  0  0  0  0  0  0  0  0  0  # atno 17395 bound_to 11000

$$$$
