AV-unprocessed.smi:2143|AV-procd|sdf|8728|dock6
  -GOLD-   2272011493D 1   1.00000     0.00000
 Structure written by MMmdl.
 44 45  0  0  0  0  0  0  0  0  1 V2000
  149.5698  137.5086  155.1795 C   0  0  0  0  0  0  0  0  0  0  0  0
  148.9417  138.9118  155.2227 C   0  0  2  0  0  0  0  0  0  0  0  0
  148.5588  139.4111  153.8146 C   0  0  0  0  0  0  0  0  0  0  0  0
  147.8411  140.7687  153.8740 C   0  0  0  0  0  0  0  0  0  0  0  0
  148.6693  141.8134  154.6373 C   0  0  0  0  0  0  0  0  0  0  0  0
  149.0429  141.3092  156.0446 C   0  0  2  0  0  0  0  0  0  0  0  0
  149.7960  142.3393  156.7569 N   0  0  0  0  0  0  0  0  0  0  0  0
  150.2532  142.2379  158.0140 C   0  0  0  0  0  0  0  0  0  0  0  0
  150.0925  141.2361  158.7125 O   0  0  0  0  0  0  0  0  0  0  0  0
  151.0294  143.4509  158.5445 C   0  0  0  0  0  0  0  0  0  0  0  0
  151.9055  143.1262  159.6777 N   0  0  0  0  0  0  0  0  0  0  0  0
  151.8329  143.8772  160.8368 C   0  0  0  0  0  0  0  0  0  0  0  0
  152.6147  143.6582  161.9164 C   0  0  0  0  0  0  0  0  0  0  0  0
  153.6033  142.5869  161.9199 C   0  0  0  0  0  0  0  0  0  0  0  0
  154.3509  142.3668  162.8734 O   0  0  0  0  0  0  0  0  0  0  0  0
  153.6457  141.8237  160.7284 N   0  0  0  0  0  0  0  0  0  0  0  0
  154.6133  140.7500  160.6321 C   0  0  0  0  0  0  0  0  0  0  0  0
  152.8370  142.0691  159.5959 C   0  0  0  0  0  0  0  0  0  0  0  0
  152.9359  141.3985  158.5653 O   0  0  0  0  0  0  0  0  0  0  0  0
  149.8021  139.9545  155.9854 C   0  0  2  0  0  0  0  0  0  0  0  0
  151.2425  140.0872  155.4382 C   0  0  0  0  0  0  0  0  0  0  0  0
  150.4597  137.4812  154.5509 H   0  0  0  0  0  0  0  0  0  0  0  0
  148.8655  136.7812  154.7749 H   0  0  0  0  0  0  0  0  0  0  0  0
  149.8515  137.1720  156.1776 H   0  0  0  0  0  0  0  0  0  0  0  0
  148.0121  138.8054  155.7840 H   0  0  0  0  0  0  0  0  0  0  0  0
  149.4479  139.4918  153.1887 H   0  0  0  0  0  0  0  0  0  0  0  0
  147.9101  138.6825  153.3270 H   0  0  0  0  0  0  0  0  0  0  0  0
  147.6332  141.1240  152.8644 H   0  0  0  0  0  0  0  0  0  0  0  0
  146.8736  140.6463  154.3627 H   0  0  0  0  0  0  0  0  0  0  0  0
  149.5686  142.0550  154.0695 H   0  0  0  0  0  0  0  0  0  0  0  0
  148.0992  142.7401  154.7135 H   0  0  0  0  0  0  0  0  0  0  0  0
  148.1071  141.1506  156.5846 H   0  0  0  0  0  0  0  0  0  0  0  0
  149.9810  143.1954  156.2545 H   0  0  0  0  0  0  0  0  0  0  0  0
  151.6203  143.8609  157.7242 H   0  0  0  0  0  0  0  0  0  0  0  0
  150.3306  144.2406  158.8267 H   0  0  0  0  0  0  0  0  0  0  0  0
  151.1188  144.6869  160.8818 H   0  0  0  0  0  0  0  0  0  0  0  0
  152.5099  144.2872  162.7884 H   0  0  0  0  0  0  0  0  0  0  0  0
  154.1595  139.9146  160.0965 H   0  0  0  0  0  0  0  0  0  0  0  0
  154.8924  140.4014  161.6268 H   0  0  0  0  0  0  0  0  0  0  0  0
  155.4756  141.1488  160.0958 H   0  0  0  0  0  0  0  0  0  0  0  0
  149.8986  139.5948  157.0107 H   0  0  0  0  0  0  0  0  0  0  0  0
  151.2587  140.4177  154.4003 H   0  0  0  0  0  0  0  0  0  0  0  0
  151.7782  139.1400  155.4906 H   0  0  0  0  0  0  0  0  0  0  0  0
  151.8276  140.8007  156.0181 H   0  0  0  0  0  0  0  0  0  0  0  0
  1  2  1  0  0  0  0
  1 22  1  0  0  0  0
  1 23  1  0  0  0  0
  1 24  1  0  0  0  0
  2 20  1  0  0  0  0
  2  3  1  0  0  0  0
  2 25  1  0  0  0  0
  3  4  1  0  0  0  0
  3 26  1  0  0  0  0
  3 27  1  0  0  0  0
  4  5  1  0  0  0  0
  4 28  1  0  0  0  0
  4 29  1  0  0  0  0
  5  6  1  0  0  0  0
  5 30  1  0  0  0  0
  5 31  1  0  0  0  0
  6  7  1  0  0  0  0
  6 20  1  0  0  0  0
  6 32  1  0  0  0  0
  7  8  1  0  0  0  0
  7 33  1  0  0  0  0
  8  9  2  0  0  0  0
  8 10  1  0  0  0  0
 10 11  1  0  0  0  0
 10 34  1  0  0  0  0
 10 35  1  0  0  0  0
 11 18  1  0  0  0  0
 11 12  1  0  0  0  0
 12 13  2  0  0  0  0
 12 36  1  0  0  0  0
 13 14  1  0  0  0  0
 13 37  1  0  0  0  0
 14 15  2  0  0  0  0
 14 16  1  0  0  0  0
 16 17  1  0  0  0  0
 16 18  1  0  0  0  0
 17 38  1  0  0  0  0
 17 39  1  0  0  0  0
 17 40  1  0  0  0  0
 18 19  2  0  0  0  0
 20 21  1  0  0  0  0
 20 41  1  0  0  0  0
 21 42  1  0  0  0  0
 21 43  1  0  0  0  0
 21 44  1  0  0  0  0
M  END
> <s_m_source_file>
AV-unprocessed.smi

> <i_m_source_file_index>
2143

> <i_lp_mmshare_version>
43012

> <i_f3d_flags>
0

> <s_epik_input>
W0NIM11bQ0BASF0xW0NIMl1bQ0gyXVtDSDJdW0NASF0oW0NASF0xW0NIM10pW05IXUMoPU8pW0NIMl1uMltjSF1bY0hdYyg9TyluKFtDSDNdKWMyPU8=

> <s_epik_cmdline>
J2VwaWtfcHl0aG9uJywgJy1waCcsICc3LjAnLCAnLXRuJywgJzgnLCAnLW1hJywgJzIwMCcsICctbWV0YWxfYmluZGluZycsICctaW1hZScsICc8aW5maWxlLm1hZT4nLCAnLW9tYWUnLCAnPG91dGZpbGUubWFlPic=

> <r_lp_tautomer_probability>
1

> <r_epik_Ionization_Penalty>
3.18445e-08

> <r_epik_Ionization_Penalty_Charging>
1.27977e-08

> <r_epik_Ionization_Penalty_Neutral>
1.90469e-08

> <r_epik_State_Penalty>
-0

> <r_epik_Charging_Adjusted_Penalty>
1.27977e-08

> <i_epik_Tot_Q>
0

> <i_epik_Tot_abs_Q>
0

> <r_epik_Metal_State_Penalty>
-0

> <b_epik_Metal_Only>
0

> <s_lp_Force_Field>
OPLS_2005

> <r_lp_Energy>
21.2837

> <b_lp_Chiralities_Consistent>
1

> <s_lp_Variant>
AV-unprocessed.smi:2143-7

> <Gold.Version>
5.8.1

> <Gold.Id.Protein>
6NUR|6NUR_protein|mol2

> <Gold.PLP.Fitness>
43.2517

> <Gold.PLP.PLP>
-42.5823

> <Gold.PLP.part.hbond>
-2.7283

> <Gold.PLP.part.metal>
0.0000

> <Gold.PLP.part.buried>
-0.1947

> <Gold.PLP.part.nonpolar>
-38.3311

> <Gold.PLP.part.repulsive>
0.0867

> <Gold.PLP.ligand.clash>
0.0000

> <Gold.PLP.ligand.torsion>
0.3620

> <Gold.PLP.Chemscore.Hbond>
0.4594

> <Gold.PLP.Chemscore.CHOScore>
0.0000

> <Gold.PLP.Chemscore.Metal>
0.0000

> <Gold.Chemscore.Hbonds>
donor molecule, donor type, donor heavy atom, donor atom, acceptor molecule, acceptor atom, score
      L1  H     7    33       P1  8028  0.70

> <Gold.PLP.Chemscore.Internal.Correction>
0.0150

> <Gold.Rescore>
     Score         DG    S(hbond)    S(metal)    S(lipo)     H(rot)  DE(clash)    DE(int)     intcor
     11.23     -13.68       0.70        0.00      83.26       1.51       1.20       1.25       ----

> <Gold.Chemscore.Fitness>
11.2311

> <Gold.Chemscore.DG>
-13.6809

> <Gold.Chemscore.ZeroCoef>
-5.4800

> <Gold.Chemscore.Hbond>
0.6986

> <Gold.Chemscore.Metal>
0.0000

> <Gold.Chemscore.Lipo>
83.2557

> <Gold.Chemscore.Internal_Hbond>
0.0000

> <Gold.Chemscore.DEClash>
1.1996

> <Gold.Chemscore.DEInternal>
1.2501

> <Gold.Chemscore.Rot>
1.5131

> <Gold.Chemscore.Internal.Correction>
   9.000000E+99

> <Gold.Chemscore.Hbonds>
donor molecule, donor type, donor heavy atom, donor atom, acceptor molecule, acceptor atom, score
      L1  H     7    33       P1  8028  0.69

> <Gold.Chemscore.Hbond.Weighted>
-2.3334

> <Gold.Chemscore.Metal.Weighted>
-0.0000

> <Gold.Chemscore.Lipo.Weighted>
-9.7409

> <Gold.Chemscore.Internal_Hbond.Weighted>
0.0000

> <Gold.Chemscore.DEClash.Weighted>
1.1996

> <Gold.Chemscore.DEInternal.Weighted>
1.2501

> <Gold.Chemscore.Rot.Weighted>
3.8734

> <Gold.Chemscore.Internal.Correction.Weighted>
   9.000000E+99

> <Gold.Protein.RotatedTorsions>
[ 6907 6896 6895 6894 ] final   84.56 input  -60.11 | X-H torsion
[ 7974 7965 7964 7962 ] final  140.03 input  175.53 | X-H torsion
[ 8008 7997 7996 7995 ] final  102.36 input   59.86 | X-H torsion
[ 10167 10162 10161 10158 ] final  148.18 input  -65.29 | X-H torsion
[ 10718 10713 10712 10709 ] final -164.66 input   66.30 | X-H torsion
[ 10763 10752 10751 10750 ] final   49.94 input  -60.55 | X-H torsion
[ 11005 11000 10999 10996 ] final  -84.48 input  -57.11 | X-H torsion

> <Gold.Protein.ActiveResidues>
 VAL166  LYS551  ARG553  GLY616  TRP617  ASP618  TYR619  PRO620  LYS621  CYS622 
 ASP623  PHE694  ASN695  SER759  ASP760  ASP761  ALA762  ILE779  LEU786  VAL792 
 PHE793  MET794  SER795  GLU796  ALA797  LYS798  CYS799  TRP800  GLU811  SER814 

> <Gold.Protein.RotatedAtoms>
  152.5355  134.2722  159.8975 H   0  0  0  0  0  0  0  0  0  0  0  0  # atno 6907 bound_to 6896
  151.2678  133.4263  159.2627 H   0  0  0  0  0  0  0  0  0  0  0  0  # atno 6908 bound_to 6896
  151.0395  134.9612  159.8210 H   0  0  0  0  0  0  0  0  0  0  0  0  # atno 6909 bound_to 6896
  144.9224  139.5151  143.5657 H   0  0  0  0  0  0  0  0  0  0  0  0  # atno 7974 bound_to 7965
  156.1386  140.3182  155.8459 H   0  0  0  0  0  0  0  0  0  0  0  0  # atno 8008 bound_to 7997
  155.4198  140.0511  157.3043 H   0  0  0  0  0  0  0  0  0  0  0  0  # atno 8009 bound_to 7997
  154.4957  140.2110  155.9465 H   0  0  0  0  0  0  0  0  0  0  0  0  # atno 8010 bound_to 7997
  139.4879  144.5699  151.7074 H   0  0  0  0  0  0  0  0  0  0  0  0  # atno 10167 bound_to 10162
  156.6422  130.8973  151.2998 H   0  0  0  0  0  0  0  0  0  0  0  0  # atno 10718 bound_to 10713
  152.9785  135.5895  154.4171 H   0  0  0  0  0  0  0  0  0  0  0  0  # atno 10763 bound_to 10752
  154.3799  135.2767  155.2219 H   0  0  0  0  0  0  0  0  0  0  0  0  # atno 10764 bound_to 10752
  154.4137  135.6075  153.6022 H   0  0  0  0  0  0  0  0  0  0  0  0  # atno 10765 bound_to 10752
  141.1650  133.7348  156.8873 H   0  0  0  0  0  0  0  0  0  0  0  0  # atno 11005 bound_to 11000
  146.3210  139.8113  142.8945 LP  0  0  0  0  0  0  0  0  0  0  0  0  # atno 17320 bound_to 7965
  145.3275  141.0258  143.3465 LP  0  0  0  0  0  0  0  0  0  0  0  0  # atno 17321 bound_to 7965
  140.5284  144.0768  150.6045 LP  0  0  0  0  0  0  0  0  0  0  0  0  # atno 17342 bound_to 10162
  140.3750  143.2833  152.0235 LP  0  0  0  0  0  0  0  0  0  0  0  0  # atno 17343 bound_to 10162
  157.7167  130.9506  150.1283 LP  0  0  0  0  0  0  0  0  0  0  0  0  # atno 17370 bound_to 10713
  156.2150  130.3669  149.8625 LP  0  0  0  0  0  0  0  0  0  0  0  0  # atno 17371 bound_to 10713
  140.1673  134.9124  157.2789 LP  0  0  0  0  0  0  0  0  0  0  0  0  # atno 17394 bound_to 11000
  140.2543  134.3646  155.7430 LP  0  0  0  0  0  0  0  0  0  0  0  0  # atno 17395 bound_to 11000

$$$$
