AV-unprocessed.smi:158|AV-procd|sdf|1324|dock4
  -GOLD-   2262019 23D 1   1.00000     0.00000
 Structure written by MMmdl.
 31 33  0  0  0  0  0  0  0  0  1 V2000
  153.2814  142.5676  160.9869 N   0  0  0  0  0  0  0  0  0  0  0  0
  152.8168  141.6319  160.1469 C   0  0  0  0  0  0  0  0  0  0  0  0
  153.4476  140.4354  160.1026 N   0  0  0  0  0  0  0  0  0  0  0  0
  153.0152  139.4738  159.2776 C   0  0  0  0  0  0  0  0  0  0  0  0
  153.8918  137.9895  159.3014 Cl  0  0  0  0  0  0  0  0  0  0  0  0
  151.9770  139.5331  158.4371 N   0  0  0  0  0  0  0  0  0  0  0  0
  151.3379  140.7377  158.4779 C   0  0  0  0  0  0  0  0  0  0  0  0
  151.6968  141.8362  159.3041 C   0  0  0  0  0  0  0  0  0  0  0  0
  150.8298  142.8974  159.0842 N   0  0  0  0  0  0  0  0  0  0  0  0
  150.0058  142.4458  158.1765 C   0  0  0  0  0  0  0  0  0  0  0  0
  150.2341  141.1524  157.7597 N   0  0  0  0  0  0  0  0  0  0  0  0
  149.4686  140.3782  156.7343 C   0  0  1  0  0  0  0  0  0  0  0  0
  148.2120  140.9648  156.5718 O   0  0  0  0  0  0  0  0  0  0  0  0
  148.0255  141.3938  155.2234 C   0  0  2  0  0  0  0  0  0  0  0  0
  146.5563  141.2041  154.8151 C   0  0  0  0  0  0  0  0  0  0  0  0
  146.4065  141.4080  153.4265 O   0  0  0  0  0  0  0  0  0  0  0  0
  148.9940  140.5143  154.4267 C   0  0  1  0  0  0  0  0  0  0  0  0
  149.3803  141.1306  153.2147 O   0  0  0  0  0  0  0  0  0  0  0  0
  150.1712  140.3950  155.3743 C   0  0  2  0  0  0  0  0  0  0  0  0
  150.8423  139.2574  155.1914 F   0  0  0  0  0  0  0  0  0  0  0  0
  149.3539  139.3773  157.1529 H   0  0  0  0  0  0  0  0  0  0  0  0
  148.3230  142.4398  155.1342 H   0  0  0  0  0  0  0  0  0  0  0  0
  148.5564  139.5329  154.2371 H   0  0  0  0  0  0  0  0  0  0  0  0
  150.8581  141.2385  155.2937 H   0  0  0  0  0  0  0  0  0  0  0  0
  152.8267  143.4681  161.0375 H   0  0  0  0  0  0  0  0  0  0  0  0
  154.0856  142.3720  161.5654 H   0  0  0  0  0  0  0  0  0  0  0  0
  149.1997  143.0492  157.7848 H   0  0  0  0  0  0  0  0  0  0  0  0
  146.2362  140.1841  155.0304 H   0  0  0  0  0  0  0  0  0  0  0  0
  145.8999  141.8735  155.3718 H   0  0  0  0  0  0  0  0  0  0  0  0
  145.5235  141.1771  153.1820 H   0  0  0  0  0  0  0  0  0  0  0  0
  149.2469  140.5161  152.5090 H   0  0  0  0  0  0  0  0  0  0  0  0
  1  2  1  0  0  0  0
  1 25  1  0  0  0  0
  1 26  1  0  0  0  0
  2  8  1  0  0  0  0
  2  3  2  0  0  0  0
  3  4  1  0  0  0  0
  4  5  1  0  0  0  0
  4  6  2  0  0  0  0
  6  7  1  0  0  0  0
  7 11  1  0  0  0  0
  7  8  2  0  0  0  0
  8  9  1  0  0  0  0
  9 10  2  0  0  0  0
 10 11  1  0  0  0  0
 10 27  1  0  0  0  0
 11 12  1  0  0  0  0
 12 21  1  0  0  0  0
 12 19  1  0  0  0  0
 12 13  1  0  0  0  0
 13 14  1  0  0  0  0
 14 22  1  0  0  0  0
 14 15  1  0  0  0  0
 14 17  1  0  0  0  0
 15 16  1  0  0  0  0
 15 28  1  0  0  0  0
 15 29  1  0  0  0  0
 16 30  1  0  0  0  0
 17 23  1  0  0  0  0
 17 18  1  0  0  0  0
 17 19  1  0  0  0  0
 18 31  1  0  0  0  0
 19 24  1  0  0  0  0
 19 20  1  0  0  0  0
M  END
> <s_m_source_file>
AV-unprocessed.smi

> <i_m_source_file_index>
158

> <i_lp_mmshare_version>
43012

> <i_f3d_flags>
0

> <s_epik_input>
Q2xjKG4xKW5jKFtOSDJdKWMoYzEyKW5bY0hdbjJbQ0BASF0zT1tDQEhdKFtDSDJdW09IXSlbQ0BASF0oW09IXSlbQ0BASF0zRg==

> <s_epik_cmdline>
J2VwaWtfcHl0aG9uJywgJy1waCcsICc3LjAnLCAnLXRuJywgJzgnLCAnLW1hJywgJzIwMCcsICctbWV0YWxfYmluZGluZycsICctaW1hZScsICc8aW5maWxlLm1hZT4nLCAnLW9tYWUnLCAnPG91dGZpbGUubWFlPic=

> <r_lp_tautomer_probability>
1

> <r_epik_Ionization_Penalty>
6.51543e-05

> <r_epik_Ionization_Penalty_Charging>
0

> <r_epik_Ionization_Penalty_Neutral>
6.51543e-05

> <r_epik_State_Penalty>
-0

> <r_epik_Charging_Adjusted_Penalty>
0

> <i_epik_Tot_Q>
0

> <i_epik_Tot_abs_Q>
0

> <r_epik_Metal_State_Penalty>
-0

> <b_epik_Metal_Only>
0

> <s_epik_Chemistry_Notes>
This compound contains an acetal/aminal-like group ( X-CH(R)-Y where X, Y are N, S, or O) that may be acid/base labile, releasing an aldehyde.

> <s_lp_Force_Field>
OPLS_2005

> <r_lp_Energy>
33.0982

> <b_lp_Chiralities_Consistent>
1

> <s_lp_Variant>
AV-unprocessed.smi:158-2

> <Gold.Version>
5.8.1

> <Gold.Id.Protein>
6NUR|6NUR_protein|mol2

> <Gold.PLP.Fitness>
41.0893

> <Gold.PLP.PLP>
-30.7391

> <Gold.PLP.part.hbond>
-3.2847

> <Gold.PLP.part.metal>
0.0000

> <Gold.PLP.part.buried>
-5.7573

> <Gold.PLP.part.nonpolar>
-22.8370

> <Gold.PLP.part.repulsive>
0.1795

> <Gold.PLP.ligand.clash>
0.0000

> <Gold.PLP.ligand.torsion>
0.5974

> <Gold.PLP.Chemscore.Hbond>
2.8454

> <Gold.PLP.Chemscore.CHOScore>
1.0000

> <Gold.PLP.Chemscore.Metal>
0.0000

> <Gold.Chemscore.Hbonds>
donor molecule, donor type, donor heavy atom, donor atom, acceptor molecule, acceptor atom, score
      L1  H    16    30       P1 10175  0.88
      L1  H    18    31       P1  7957  0.82
      P1  H  7989  7998       L1    18  0.05
      P1  H  8011  8017       L1    18  0.90
      L1  C    10    27       P1  8028  0.56

> <Gold.PLP.Chemscore.Internal.Correction>
0.0087

> <Gold.Rescore>
     Score         DG    S(hbond)    S(metal)    S(lipo)     H(rot)  DE(clash)    DE(int)     intcor
      8.28      -8.60       2.12        0.00      34.65       3.12       0.00       0.32       ----

> <Gold.Chemscore.Fitness>
8.2802

> <Gold.Chemscore.DG>
-8.6034

> <Gold.Chemscore.ZeroCoef>
-5.4800

> <Gold.Chemscore.Hbond>
2.1152

> <Gold.Chemscore.Metal>
0.0000

> <Gold.Chemscore.Lipo>
34.6450

> <Gold.Chemscore.Internal_Hbond>
0.0000

> <Gold.Chemscore.DEClash>
0.0000

> <Gold.Chemscore.DEInternal>
0.3232

> <Gold.Chemscore.Rot>
3.1230

> <Gold.Chemscore.Internal.Correction>
   9.000000E+99

> <Gold.Chemscore.Hbonds>
donor molecule, donor type, donor heavy atom, donor atom, acceptor molecule, acceptor atom, score
      L1  H    16    30       P1 10175  0.22
      L1  H    18    31       P1  7957  0.77
      P1  H  8011  8017       L1    18  0.18

> <Gold.Chemscore.Hbond.Weighted>
-7.0649

> <Gold.Chemscore.Metal.Weighted>
-0.0000

> <Gold.Chemscore.Lipo.Weighted>
-4.0535

> <Gold.Chemscore.Internal_Hbond.Weighted>
0.0000

> <Gold.Chemscore.DEClash.Weighted>
0.0000

> <Gold.Chemscore.DEInternal.Weighted>
0.3232

> <Gold.Chemscore.Rot.Weighted>
7.9950

> <Gold.Chemscore.Internal.Correction.Weighted>
   9.000000E+99

> <Gold.Protein.RotatedTorsions>
[ 6907 6896 6895 6894 ] final  173.53 input  -60.11 | X-H torsion
[ 7974 7965 7964 7962 ] final -147.29 input  175.53 | X-H torsion
[ 8008 7997 7996 7995 ] final   44.50 input   59.86 | X-H torsion
[ 10167 10162 10161 10158 ] final -112.93 input  -65.29 | X-H torsion
[ 10718 10713 10712 10709 ] final   12.66 input   66.30 | X-H torsion
[ 10763 10752 10751 10750 ] final   -0.22 input  -60.55 | X-H torsion
[ 11005 11000 10999 10996 ] final   46.15 input  -57.11 | X-H torsion

> <Gold.Protein.ActiveResidues>
 VAL166  LYS551  ARG553  GLY616  TRP617  ASP618  TYR619  PRO620  LYS621  CYS622 
 ASP623  PHE694  ASN695  SER759  ASP760  ASP761  ALA762  ILE779  LEU786  VAL792 
 PHE793  MET794  SER795  GLU796  ALA797  LYS798  CYS799  TRP800  GLU811  SER814 

> <Gold.Protein.RotatedAtoms>
  151.7668  133.3338  159.3432 H   0  0  0  0  0  0  0  0  0  0  0  0  # atno 6907 bound_to 6896
  150.7477  134.6055  159.6068 H   0  0  0  0  0  0  0  0  0  0  0  0  # atno 6908 bound_to 6896
  152.3368  134.7189  160.0326 H   0  0  0  0  0  0  0  0  0  0  0  0  # atno 6909 bound_to 6896
  144.8103  140.5346  143.5647 H   0  0  0  0  0  0  0  0  0  0  0  0  # atno 7974 bound_to 7965
  155.3204  140.3396  155.4241 H   0  0  0  0  0  0  0  0  0  0  0  0  # atno 8008 bound_to 7997
  156.1912  140.1698  156.8126 H   0  0  0  0  0  0  0  0  0  0  0  0  # atno 8009 bound_to 7997
  154.5444  140.0718  156.8547 H   0  0  0  0  0  0  0  0  0  0  0  0  # atno 8010 bound_to 7997
  140.1174  143.4474  152.1713 H   0  0  0  0  0  0  0  0  0  0  0  0  # atno 10167 bound_to 10162
  157.0134  130.6126  149.5711 H   0  0  0  0  0  0  0  0  0  0  0  0  # atno 10718 bound_to 10713
  153.3291  135.6974  153.6963 H   0  0  0  0  0  0  0  0  0  0  0  0  # atno 10763 bound_to 10752
  153.5773  135.3504  155.2862 H   0  0  0  0  0  0  0  0  0  0  0  0  # atno 10764 bound_to 10752
  154.8614  135.4286  154.2475 H   0  0  0  0  0  0  0  0  0  0  0  0  # atno 10765 bound_to 10752
  140.1395  134.4601  155.8460 H   0  0  0  0  0  0  0  0  0  0  0  0  # atno 11005 bound_to 11000
  145.5339  139.1475  143.3484 LP  0  0  0  0  0  0  0  0  0  0  0  0  # atno 17320 bound_to 7965
  146.2401  140.5480  142.8938 LP  0  0  0  0  0  0  0  0  0  0  0  0  # atno 17321 bound_to 7965
  139.5587  144.7391  151.4219 LP  0  0  0  0  0  0  0  0  0  0  0  0  # atno 17342 bound_to 10162
  140.6892  143.7903  150.7230 LP  0  0  0  0  0  0  0  0  0  0  0  0  # atno 17343 bound_to 10162
  156.0128  130.5221  150.8042 LP  0  0  0  0  0  0  0  0  0  0  0  0  # atno 17370 bound_to 10713
  157.5304  131.0936  150.9963 LP  0  0  0  0  0  0  0  0  0  0  0  0  # atno 17371 bound_to 10713
  141.2184  133.6827  156.7221 LP  0  0  0  0  0  0  0  0  0  0  0  0  # atno 17394 bound_to 11000
  140.2740  134.8370  157.3873 LP  0  0  0  0  0  0  0  0  0  0  0  0  # atno 17395 bound_to 11000

$$$$
