AV-unprocessed.smi:1046|AV-procd|sdf|4552|dock7
  -GOLD-   22720 2583D 1   1.00000     0.00000
 Structure written by MMmdl.
 54 56  0  0  0  0  0  0  0  0  3 V2000
  152.7172  142.9853  160.1825 C   0  0  0  0  0  0  0  0  0  0  0  0
  152.1949  142.2006  158.9911 C   0  0  0  0  0  0  0  0  0  0  0  0
  151.3074  142.8418  158.0979 C   0  0  0  0  0  0  0  0  0  0  0  0
  150.8493  142.0988  157.0164 C   0  0  0  0  0  0  0  0  0  0  0  0
  149.9805  142.4389  155.9777 N   0  3  0  0  0  0  0  0  0  0  0  0
  149.8310  141.3739  155.1430 C   0  0  0  0  0  0  0  0  0  0  0  0
  150.5900  140.3562  155.6338 N   0  0  0  0  0  0  0  0  0  0  0  0
  150.7846  138.9965  155.1089 C   0  0  0  0  0  0  0  0  0  0  0  0
  149.4672  138.2048  154.9906 C   0  0  2  0  0  0  0  0  0  0  0  0
  149.7495  136.8566  154.6673 O   0  0  0  0  0  0  0  0  0  0  0  0
  148.5440  138.7940  153.9049 C   0  0  0  0  0  0  0  0  0  0  0  0
  147.5000  137.8381  153.4544 N   0  3  0  0  0  0  0  0  0  0  0  0
  146.5779  138.4380  152.4552 C   0  0  0  0  0  0  0  0  0  0  0  0
  145.5546  137.3917  151.9675 C   0  0  0  0  0  0  0  0  0  0  0  0
  144.7769  136.7946  153.0527 N   0  0  0  0  0  0  0  0  0  0  0  0
  143.8002  137.7247  153.6290 C   0  0  0  0  0  0  0  0  0  0  0  0
  142.3507  137.5128  153.1632 C   0  0  0  0  0  0  0  0  0  0  0  0
  141.8135  138.7446  152.7342 O   0  0  0  0  0  0  0  0  0  0  0  0
  145.7065  136.2103  154.0223 C   0  0  0  0  0  0  0  0  0  0  0  0
  146.7338  137.2212  154.5709 C   0  0  0  0  0  0  0  0  0  0  0  0
  151.2437  140.7631  156.8042 C   0  0  0  0  0  0  0  0  0  0  0  0
  152.1154  140.1159  157.6775 C   0  0  0  0  0  0  0  0  0  0  0  0
  152.5914  140.8540  158.7847 C   0  0  0  0  0  0  0  0  0  0  0  0
  153.5433  140.1725  159.7535 C   0  0  0  0  0  0  0  0  0  0  0  0
  152.3697  144.0187  160.1627 H   0  0  0  0  0  0  0  0  0  0  0  0
  153.8074  143.0016  160.1844 H   0  0  0  0  0  0  0  0  0  0  0  0
  152.3750  142.5358  161.1152 H   0  0  0  0  0  0  0  0  0  0  0  0
  150.9989  143.8659  158.2500 H   0  0  0  0  0  0  0  0  0  0  0  0
  149.2207  141.3437  154.2519 H   0  0  0  0  0  0  0  0  0  0  0  0
  151.2411  139.1004  154.1237 H   0  0  0  0  0  0  0  0  0  0  0  0
  151.5130  138.4696  155.7255 H   0  0  0  0  0  0  0  0  0  0  0  0
  148.9719  138.2216  155.9609 H   0  0  0  0  0  0  0  0  0  0  0  0
  149.4162  136.6746  153.8015 H   0  0  0  0  0  0  0  0  0  0  0  0
  148.0614  139.7041  154.2649 H   0  0  0  0  0  0  0  0  0  0  0  0
  149.1584  139.0946  153.0545 H   0  0  0  0  0  0  0  0  0  0  0  0
  146.0748  139.3049  152.8861 H   0  0  0  0  0  0  0  0  0  0  0  0
  147.1516  138.8007  151.6014 H   0  0  0  0  0  0  0  0  0  0  0  0
  144.8838  137.8425  151.2350 H   0  0  0  0  0  0  0  0  0  0  0  0
  146.0850  136.6011  151.4349 H   0  0  0  0  0  0  0  0  0  0  0  0
  143.8359  137.6938  154.7176 H   0  0  0  0  0  0  0  0  0  0  0  0
  144.0871  138.7407  153.3536 H   0  0  0  0  0  0  0  0  0  0  0  0
  142.3110  136.8009  152.3381 H   0  0  0  0  0  0  0  0  0  0  0  0
  141.7221  137.1261  153.9649 H   0  0  0  0  0  0  0  0  0  0  0  0
  142.4463  139.4257  152.9058 H   0  0  0  0  0  0  0  0  0  0  0  0
  145.1616  135.7492  154.8451 H   0  0  0  0  0  0  0  0  0  0  0  0
  146.2462  135.3929  153.5419 H   0  0  0  0  0  0  0  0  0  0  0  0
  147.4091  136.6998  155.2479 H   0  0  0  0  0  0  0  0  0  0  0  0
  146.2403  137.9952  155.1598 H   0  0  0  0  0  0  0  0  0  0  0  0
  152.4199  139.0917  157.5250 H   0  0  0  0  0  0  0  0  0  0  0  0
  153.6906  139.1230  159.4967 H   0  0  0  0  0  0  0  0  0  0  0  0
  153.1525  140.2124  160.7705 H   0  0  0  0  0  0  0  0  0  0  0  0
  154.5181  140.6606  159.7369 H   0  0  0  0  0  0  0  0  0  0  0  0
  147.9814  137.0888  152.9773 H   0  0  0  0  0  0  0  0  0  0  0  0
  149.5235  143.3322  155.8452 H   0  0  0  0  0  0  0  0  0  0  0  0
  1  2  1  0  0  0  0
  1 25  1  0  0  0  0
  1 26  1  0  0  0  0
  1 27  1  0  0  0  0
  2 23  1  0  0  0  0
  2  3  2  0  0  0  0
  3  4  1  0  0  0  0
  3 28  1  0  0  0  0
  4 21  2  0  0  0  0
  4  5  1  0  0  0  0
  5  6  2  0  0  0  0
  5 54  1  0  0  0  0
  6  7  1  0  0  0  0
  6 29  1  0  0  0  0
  7  8  1  0  0  0  0
  7 21  1  0  0  0  0
  8  9  1  0  0  0  0
  8 30  1  0  0  0  0
  8 31  1  0  0  0  0
  9 10  1  0  0  0  0
  9 11  1  0  0  0  0
  9 32  1  0  0  0  0
 10 33  1  0  0  0  0
 11 12  1  0  0  0  0
 11 34  1  0  0  0  0
 11 35  1  0  0  0  0
 12 20  1  0  0  0  0
 12 13  1  0  0  0  0
 12 53  1  0  0  0  0
 13 14  1  0  0  0  0
 13 36  1  0  0  0  0
 13 37  1  0  0  0  0
 14 15  1  0  0  0  0
 14 38  1  0  0  0  0
 14 39  1  0  0  0  0
 15 16  1  0  0  0  0
 15 19  1  0  0  0  0
 16 17  1  0  0  0  0
 16 40  1  0  0  0  0
 16 41  1  0  0  0  0
 17 18  1  0  0  0  0
 17 42  1  0  0  0  0
 17 43  1  0  0  0  0
 18 44  1  0  0  0  0
 19 20  1  0  0  0  0
 19 45  1  0  0  0  0
 19 46  1  0  0  0  0
 20 47  1  0  0  0  0
 20 48  1  0  0  0  0
 21 22  1  0  0  0  0
 22 23  2  0  0  0  0
 22 49  1  0  0  0  0
 23 24  1  0  0  0  0
 24 50  1  0  0  0  0
 24 51  1  0  0  0  0
 24 52  1  0  0  0  0
M  CHG  1   5   1
M  CHG  1  12   1
M  END
> <s_m_source_file>
AV-unprocessed.smi

> <i_m_source_file_index>
1046

> <i_lp_mmshare_version>
43012

> <i_f3d_flags>
0

> <s_epik_input>
W0NIM11jKFtjSF0xKWMoW0NIM10pW2NIXWMoYzEyKW4oW2NIXW4yKVtDSDJdW0NASF0oW09IXSlbQ0gyXU4zW0NIMl1bQ0gyXU4oW0NIMl1bQ0gyXTMpW0NIMl1bQ0gyXVtPSF0=

> <s_epik_cmdline>
J2VwaWtfcHl0aG9uJywgJy1waCcsICc3LjAnLCAnLXRuJywgJzgnLCAnLW1hJywgJzIwMCcsICctbWV0YWxfYmluZGluZycsICctaW1hZScsICc8aW5maWxlLm1hZT4nLCAnLW9tYWUnLCAnPG91dGZpbGUubWFlPic=

> <r_epik_Ionization_Penalty>
1.22056

> <r_epik_Ionization_Penalty_Charging>
1.17959

> <r_epik_Ionization_Penalty_Neutral>
0.0409743

> <r_epik_State_Penalty>
1.27074

> <r_epik_Charging_Adjusted_Penalty>
2.45032

> <i_epik_Tot_Q>
2

> <i_epik_Tot_abs_Q>
2

> <r_epik_Metal_State_Penalty>
5.26922

> <b_epik_Metal_Only>
0

> <s_lp_Force_Field>
OPLS_2005

> <r_lp_Energy>
41.2385

> <b_lp_Chiralities_Consistent>
1

> <s_lp_Variant>
AV-unprocessed.smi:1046-5

> <Gold.Version>
5.8.1

> <Gold.Id.Protein>
6NUR|6NUR_protein|mol2

> <Gold.PLP.Fitness>
57.3047

> <Gold.PLP.PLP>
-41.6247

> <Gold.PLP.part.hbond>
-4.9580

> <Gold.PLP.part.metal>
0.0000

> <Gold.PLP.part.buried>
-2.0391

> <Gold.PLP.part.nonpolar>
-35.8570

> <Gold.PLP.part.repulsive>
0.2995

> <Gold.PLP.ligand.clash>
0.0000

> <Gold.PLP.ligand.torsion>
1.2110

> <Gold.PLP.Chemscore.Hbond>
6.0000

> <Gold.PLP.Chemscore.CHOScore>
0.0000

> <Gold.PLP.Chemscore.Metal>
0.0000

> <Gold.Chemscore.Hbonds>
donor molecule, donor type, donor heavy atom, donor atom, acceptor molecule, acceptor atom, score
      L1  H     5    54       P1  8028  2.00
      L1  H    10    33       P1  7948  1.00
      L1  H    12    53       P1  7948  2.00
      L1  H    18    44       P1 10175  1.00

> <Gold.PLP.Chemscore.Internal.Correction>
0.1020

> <Gold.Rescore>
     Score         DG    S(hbond)    S(metal)    S(lipo)     H(rot)  DE(clash)    DE(int)     intcor
     20.49     -21.75       3.78        0.00     103.05       3.29       0.03       1.22       ----

> <Gold.Chemscore.Fitness>
20.4943

> <Gold.Chemscore.DG>
-21.7479

> <Gold.Chemscore.ZeroCoef>
-5.4800

> <Gold.Chemscore.Hbond>
3.7822

> <Gold.Chemscore.Metal>
0.0000

> <Gold.Chemscore.Lipo>
103.0511

> <Gold.Chemscore.Internal_Hbond>
0.0000

> <Gold.Chemscore.DEClash>
0.0310

> <Gold.Chemscore.DEInternal>
1.2227

> <Gold.Chemscore.Rot>
3.2896

> <Gold.Chemscore.Internal.Correction>
   9.000000E+99

> <Gold.Chemscore.Hbonds>
donor molecule, donor type, donor heavy atom, donor atom, acceptor molecule, acceptor atom, score
      L1  H     5    54       P1  8028  0.93
      L1  H    10    33       P1  7948  0.86
      L1  H    12    53       P1  7948  1.00
      L1  H    18    44       P1 10175  0.93

> <Gold.Chemscore.Hbond.Weighted>
-12.6324

> <Gold.Chemscore.Metal.Weighted>
-0.0000

> <Gold.Chemscore.Lipo.Weighted>
-12.0570

> <Gold.Chemscore.Internal_Hbond.Weighted>
0.0000

> <Gold.Chemscore.DEClash.Weighted>
0.0310

> <Gold.Chemscore.DEInternal.Weighted>
1.2227

> <Gold.Chemscore.Rot.Weighted>
8.4215

> <Gold.Chemscore.Internal.Correction.Weighted>
   9.000000E+99

> <Gold.Protein.RotatedTorsions>
[ 6907 6896 6895 6894 ] final -130.26 input  -60.11 | X-H torsion
[ 7974 7965 7964 7962 ] final  -46.82 input  175.53 | X-H torsion
[ 8008 7997 7996 7995 ] final  162.09 input   59.86 | X-H torsion
[ 10167 10162 10161 10158 ] final -179.06 input  -65.29 | X-H torsion
[ 10718 10713 10712 10709 ] final  -49.80 input   66.30 | X-H torsion
[ 10763 10752 10751 10750 ] final  -44.74 input  -60.55 | X-H torsion
[ 11005 11000 10999 10996 ] final -153.87 input  -57.11 | X-H torsion

> <Gold.Protein.ActiveResidues>
 VAL166  LYS551  ARG553  GLY616  TRP617  ASP618  TYR619  PRO620  LYS621  CYS622 
 ASP623  PHE694  ASN695  SER759  ASP760  ASP761  ALA762  ILE779  LEU786  VAL792 
 PHE793  MET794  SER795  GLU796  ALA797  LYS798  CYS799  TRP800  GLU811  SER814 

> <Gold.Protein.RotatedAtoms>
  150.9377  133.6692  159.2796 H   0  0  0  0  0  0  0  0  0  0  0  0  # atno 6907 bound_to 6896
  151.4092  135.0981  159.9589 H   0  0  0  0  0  0  0  0  0  0  0  0  # atno 6908 bound_to 6896
  152.5055  133.8854  159.7422 H   0  0  0  0  0  0  0  0  0  0  0  0  # atno 6909 bound_to 6896
  145.9680  140.7412  142.9424 H   0  0  0  0  0  0  0  0  0  0  0  0  # atno 7974 bound_to 7965
  156.2056  140.1760  156.7806 H   0  0  0  0  0  0  0  0  0  0  0  0  # atno 8008 bound_to 7997
  154.5651  140.0692  156.8909 H   0  0  0  0  0  0  0  0  0  0  0  0  # atno 8009 bound_to 7997
  155.2776  140.3347  155.4263 H   0  0  0  0  0  0  0  0  0  0  0  0  # atno 8010 bound_to 7997
  139.5403  144.2381  152.0882 H   0  0  0  0  0  0  0  0  0  0  0  0  # atno 10167 bound_to 10162
  156.1860  130.4151  149.9439 H   0  0  0  0  0  0  0  0  0  0  0  0  # atno 10718 bound_to 10713
  154.0170  135.6674  153.4769 H   0  0  0  0  0  0  0  0  0  0  0  0  # atno 10763 bound_to 10752
  153.0596  135.5035  154.8059 H   0  0  0  0  0  0  0  0  0  0  0  0  # atno 10764 bound_to 10752
  154.6961  135.3070  154.9374 H   0  0  0  0  0  0  0  0  0  0  0  0  # atno 10765 bound_to 10752
  140.7034  134.3912  157.5207 H   0  0  0  0  0  0  0  0  0  0  0  0  # atno 11005 bound_to 11000
  144.6830  140.2701  143.7307 LP  0  0  0  0  0  0  0  0  0  0  0  0  # atno 17320 bound_to 7965
  145.7947  139.1940  143.2083 LP  0  0  0  0  0  0  0  0  0  0  0  0  # atno 17321 bound_to 7965
  140.1858  144.4800  150.6504 LP  0  0  0  0  0  0  0  0  0  0  0  0  # atno 17342 bound_to 10162
  140.6630  143.2258  151.5810 LP  0  0  0  0  0  0  0  0  0  0  0  0  # atno 17343 bound_to 10162
  156.7195  130.9001  151.3617 LP  0  0  0  0  0  0  0  0  0  0  0  0  # atno 17370 bound_to 10713
  157.6899  130.9223  150.0485 LP  0  0  0  0  0  0  0  0  0  0  0  0  # atno 17371 bound_to 10713
  139.8890  134.8840  156.2441 LP  0  0  0  0  0  0  0  0  0  0  0  0  # atno 17394 bound_to 11000
  141.0144  133.7077  156.1165 LP  0  0  0  0  0  0  0  0  0  0  0  0  # atno 17395 bound_to 11000

$$$$
