AV-unprocessed.smi:2906|AV-procd|sdf|11165|dock1
  -GOLD-   2272016 53D 1   1.00000     0.00000
 Structure written by MMmdl.
 39 40  0  0  0  0  0  0  0  0  2 V2000
  154.4643  140.3672  161.6845 C   0  0  0  0  0  0  0  0  0  0  0  0
  154.6104  141.3481  160.5101 C   0  0  0  0  0  0  0  0  0  0  0  0
  153.5543  141.1571  159.4085 C   0  0  0  0  0  0  0  0  0  0  0  0
  153.5086  140.0983  158.7800 O   0  0  0  0  0  0  0  0  0  0  0  0
  152.7006  142.1724  159.1617 N   0  0  0  0  0  0  0  0  0  0  0  0
  152.6717  143.4522  159.8667 C   0  0  0  0  0  0  0  0  0  0  0  0
  151.4019  144.1612  159.3967 C   0  0  0  0  0  0  0  0  0  0  0  0
  151.0912  143.5405  158.0349 C   0  0  2  0  0  0  0  0  0  0  0  0
  149.6604  143.5111  157.7457 N   0  0  0  0  0  0  0  0  0  0  0  0
  148.7611  142.7039  158.3258 C   0  0  0  0  0  0  0  0  0  0  0  0
  149.1228  141.8975  159.1860 O   0  0  0  0  0  0  0  0  0  0  0  0
  147.4995  142.8794  157.8707 N   0  5  0  0  0  0  0  0  0  0  0  0
  147.1364  142.3686  156.6830 C   0  0  0  0  0  0  0  0  0  0  0  0
  147.9114  141.5358  155.9791 N   0  0  0  0  0  0  0  0  0  0  0  0
  147.3363  141.1179  154.7760 C   0  0  0  0  0  0  0  0  0  0  0  0
  148.0873  140.1910  153.8692 C   0  0  0  0  0  0  0  0  0  0  0  0
  149.4762  139.8414  154.4149 C   0  0  0  0  0  0  0  0  0  0  0  0
  146.0875  141.6426  154.5667 C   0  0  0  0  0  0  0  0  0  0  0  0
  145.5973  142.6784  155.8767 S   0  0  0  0  0  0  0  0  0  0  0  0
  151.6680  142.1237  158.1292 C   0  0  0  0  0  0  0  0  0  0  0  0
  155.2441  140.5376  162.4270 H   0  0  0  0  0  0  0  0  0  0  0  0
  154.5481  139.3320  161.3520 H   0  0  0  0  0  0  0  0  0  0  0  0
  153.5028  140.4849  162.1856 H   0  0  0  0  0  0  0  0  0  0  0  0
  154.5444  142.3691  160.8873 H   0  0  0  0  0  0  0  0  0  0  0  0
  155.6032  141.2325  160.0742 H   0  0  0  0  0  0  0  0  0  0  0  0
  152.6714  143.3304  160.9504 H   0  0  0  0  0  0  0  0  0  0  0  0
  153.5529  144.0316  159.5882 H   0  0  0  0  0  0  0  0  0  0  0  0
  150.5941  143.9474  160.0988 H   0  0  0  0  0  0  0  0  0  0  0  0
  151.5179  145.2444  159.3485 H   0  0  0  0  0  0  0  0  0  0  0  0
  151.6274  144.0867  157.2565 H   0  0  0  0  0  0  0  0  0  0  0  0
  149.3215  144.1562  157.0472 H   0  0  0  0  0  0  0  0  0  0  0  0
  147.5180  139.2728  153.7208 H   0  0  0  0  0  0  0  0  0  0  0  0
  148.1932  140.6397  152.8810 H   0  0  0  0  0  0  0  0  0  0  0  0
  150.0021  139.1694  153.7369 H   0  0  0  0  0  0  0  0  0  0  0  0
  149.4055  139.3479  155.3848 H   0  0  0  0  0  0  0  0  0  0  0  0
  150.0862  140.7366  154.5381 H   0  0  0  0  0  0  0  0  0  0  0  0
  145.4289  141.4850  153.7261 H   0  0  0  0  0  0  0  0  0  0  0  0
  152.0689  141.7984  157.1681 H   0  0  0  0  0  0  0  0  0  0  0  0
  150.9065  141.4045  158.4364 H   0  0  0  0  0  0  0  0  0  0  0  0
  1  2  1  0  0  0  0
  1 21  1  0  0  0  0
  1 22  1  0  0  0  0
  1 23  1  0  0  0  0
  2  3  1  0  0  0  0
  2 24  1  0  0  0  0
  2 25  1  0  0  0  0
  3  4  2  0  0  0  0
  3  5  1  0  0  0  0
  5 20  1  0  0  0  0
  5  6  1  0  0  0  0
  6  7  1  0  0  0  0
  6 26  1  0  0  0  0
  6 27  1  0  0  0  0
  7  8  1  0  0  0  0
  7 28  1  0  0  0  0
  7 29  1  0  0  0  0
  8  9  1  0  0  0  0
  8 20  1  0  0  0  0
  8 30  1  0  0  0  0
  9 10  1  0  0  0  0
  9 31  1  0  0  0  0
 10 11  2  0  0  0  0
 10 12  1  0  0  0  0
 12 13  1  0  0  0  0
 13 19  1  0  0  0  0
 13 14  2  0  0  0  0
 14 15  1  0  0  0  0
 15 16  1  0  0  0  0
 15 18  2  0  0  0  0
 16 17  1  0  0  0  0
 16 32  1  0  0  0  0
 16 33  1  0  0  0  0
 17 34  1  0  0  0  0
 17 35  1  0  0  0  0
 17 36  1  0  0  0  0
 18 19  1  0  0  0  0
 18 37  1  0  0  0  0
 20 38  1  0  0  0  0
 20 39  1  0  0  0  0
M  CHG  1  12  -1
M  END
> <s_m_source_file>
AV-unprocessed.smi

> <i_m_source_file_index>
2906

> <i_lp_mmshare_version>
43012

> <i_f3d_flags>
0

> <s_epik_input>
W0NIM11bQ0gyXUMoPU8pTjFbQ0gyXVtDSDJdW0NASF0oW0NIMl0xKVtOSF1DKD1PKVtOSF1jMm5jKFtjSF1zMilbQ0gyXVtDSDNd

> <s_epik_cmdline>
J2VwaWtfcHl0aG9uJywgJy1waCcsICc3LjAnLCAnLXRuJywgJzgnLCAnLW1hJywgJzIwMCcsICctbWV0YWxfYmluZGluZycsICctaW1hZScsICc8aW5maWxlLm1hZT4nLCAnLW9tYWUnLCAnPG91dGZpbGUubWFlPic=

> <r_lp_tautomer_probability>
1

> <r_epik_Ionization_Penalty>
7.20119

> <r_epik_Ionization_Penalty_Charging>
5.87168

> <r_epik_Ionization_Penalty_Neutral>
1.32951

> <r_epik_State_Penalty>
5.87165

> <r_epik_Charging_Adjusted_Penalty>
11.7433

> <i_epik_Tot_Q>
-1

> <i_epik_Tot_abs_Q>
1

> <r_epik_Metal_State_Penalty>
1.83511

> <b_epik_Metal_Only>
1

> <s_lp_Force_Field>
OPLS_2005

> <r_lp_Energy>
18.7216

> <b_lp_Chiralities_Consistent>
1

> <s_lp_Variant>
AV-unprocessed.smi:2906-4

> <Gold.Version>
5.8.1

> <Gold.Id.Protein>
6NUR|6NUR_protein|mol2

> <Gold.PLP.Fitness>
40.1753

> <Gold.PLP.PLP>
-32.7834

> <Gold.PLP.part.hbond>
-4.9104

> <Gold.PLP.part.metal>
0.0000

> <Gold.PLP.part.buried>
2.7998

> <Gold.PLP.part.nonpolar>
-30.9940

> <Gold.PLP.part.repulsive>
0.3709

> <Gold.PLP.ligand.clash>
0.0000

> <Gold.PLP.ligand.torsion>
0.9097

> <Gold.PLP.Chemscore.Hbond>
2.0000

> <Gold.PLP.Chemscore.CHOScore>
1.0000

> <Gold.PLP.Chemscore.Metal>
0.0000

> <Gold.Chemscore.Hbonds>
donor molecule, donor type, donor heavy atom, donor atom, acceptor molecule, acceptor atom, score
      L1  H     9    31       P1  8028  1.00
      P1  H  7997  8009       L1     4  1.00
      L1  C    18    37       P1 10175  0.99

> <Gold.PLP.Chemscore.Internal.Correction>
0.2113

> <Gold.Rescore>
     Score         DG    S(hbond)    S(metal)    S(lipo)     H(rot)  DE(clash)    DE(int)     intcor
     13.83     -16.90       1.47        0.00      85.92       1.39       0.77       2.31       ----

> <Gold.Chemscore.Fitness>
13.8272

> <Gold.Chemscore.DG>
-16.9046

> <Gold.Chemscore.ZeroCoef>
-5.4800

> <Gold.Chemscore.Hbond>
1.4728

> <Gold.Chemscore.Metal>
0.0000

> <Gold.Chemscore.Lipo>
85.9190

> <Gold.Chemscore.Internal_Hbond>
0.0000

> <Gold.Chemscore.DEClash>
0.7685

> <Gold.Chemscore.DEInternal>
2.3088

> <Gold.Chemscore.Rot>
1.3856

> <Gold.Chemscore.Internal.Correction>
   9.000000E+99

> <Gold.Chemscore.Hbonds>
donor molecule, donor type, donor heavy atom, donor atom, acceptor molecule, acceptor atom, score
      L1  H     9    31       P1  8028  0.28
      P1  H  7997  8009       L1     4  0.78

> <Gold.Chemscore.Hbond.Weighted>
-4.9191

> <Gold.Chemscore.Metal.Weighted>
-0.0000

> <Gold.Chemscore.Lipo.Weighted>
-10.0525

> <Gold.Chemscore.Internal_Hbond.Weighted>
0.0000

> <Gold.Chemscore.DEClash.Weighted>
0.7685

> <Gold.Chemscore.DEInternal.Weighted>
2.3088

> <Gold.Chemscore.Rot.Weighted>
3.5471

> <Gold.Chemscore.Internal.Correction.Weighted>
   9.000000E+99

> <Gold.Protein.RotatedTorsions>
[ 6907 6896 6895 6894 ] final  -21.70 input  -60.11 | X-H torsion
[ 7974 7965 7964 7962 ] final  -86.45 input  175.53 | X-H torsion
[ 8008 7997 7996 7995 ] final  144.75 input   59.86 | X-H torsion
[ 10167 10162 10161 10158 ] final -143.85 input  -65.29 | X-H torsion
[ 10718 10713 10712 10709 ] final  -79.72 input   66.30 | X-H torsion
[ 10763 10752 10751 10750 ] final  165.04 input  -60.55 | X-H torsion
[ 11005 11000 10999 10996 ] final -141.65 input  -57.11 | X-H torsion

> <Gold.Protein.ActiveResidues>
 VAL166  LYS551  ARG553  GLY616  TRP617  ASP618  TYR619  PRO620  LYS621  CYS622 
 ASP623  PHE694  ASN695  SER759  ASP760  ASP761  ALA762  ILE779  LEU786  VAL792 
 PHE793  MET794  SER795  GLU796  ALA797  LYS798  CYS799  TRP800  GLU811  SER814 

> <Gold.Protein.RotatedAtoms>
  151.2294  135.0549  159.8981 H   0  0  0  0  0  0  0  0  0  0  0  0  # atno 6907 bound_to 6896
  152.5406  134.0553  159.8138 H   0  0  0  0  0  0  0  0  0  0  0  0  # atno 6908 bound_to 6896
  151.0731  133.5402  159.2657 H   0  0  0  0  0  0  0  0  0  0  0  0  # atno 6909 bound_to 6896
  145.4797  140.9557  143.1871 H   0  0  0  0  0  0  0  0  0  0  0  0  # atno 7974 bound_to 7965
  156.2900  140.2227  156.5103 H   0  0  0  0  0  0  0  0  0  0  0  0  # atno 8008 bound_to 7997
  154.7614  140.0473  157.0998 H   0  0  0  0  0  0  0  0  0  0  0  0  # atno 8009 bound_to 7997
  154.9986  140.3099  155.4880 H   0  0  0  0  0  0  0  0  0  0  0  0  # atno 8010 bound_to 7997
  139.7954  143.7908  152.2654 H   0  0  0  0  0  0  0  0  0  0  0  0  # atno 10167 bound_to 10162
  156.0086  130.4553  150.3690 H   0  0  0  0  0  0  0  0  0  0  0  0  # atno 10718 bound_to 10713
  154.3180  135.2756  155.2533 H   0  0  0  0  0  0  0  0  0  0  0  0  # atno 10763 bound_to 10752
  154.4899  135.5836  153.6455 H   0  0  0  0  0  0  0  0  0  0  0  0  # atno 10764 bound_to 10752
  152.9880  135.6132  154.3363 H   0  0  0  0  0  0  0  0  0  0  0  0  # atno 10765 bound_to 10752
  140.8304  134.2524  157.4859 H   0  0  0  0  0  0  0  0  0  0  0  0  # atno 11005 bound_to 11000
  144.7896  139.6355  143.7119 LP  0  0  0  0  0  0  0  0  0  0  0  0  # atno 17320 bound_to 7965
  146.2348  139.5884  142.9531 LP  0  0  0  0  0  0  0  0  0  0  0  0  # atno 17321 bound_to 7965
  139.8011  144.7373  150.9823 LP  0  0  0  0  0  0  0  0  0  0  0  0  # atno 17342 bound_to 10162
  140.7820  143.4344  151.0646 LP  0  0  0  0  0  0  0  0  0  0  0  0  # atno 17343 bound_to 10162
  157.1776  131.0384  151.2765 LP  0  0  0  0  0  0  0  0  0  0  0  0  # atno 17370 bound_to 10713
  157.4174  130.7419  149.6886 LP  0  0  0  0  0  0  0  0  0  0  0  0  # atno 17371 bound_to 10713
  139.8705  134.9583  156.4295 LP  0  0  0  0  0  0  0  0  0  0  0  0  # atno 17394 bound_to 11000
  140.9005  133.7783  155.9674 LP  0  0  0  0  0  0  0  0  0  0  0  0  # atno 17395 bound_to 11000

$$$$
