AV-unprocessed.smi:1781|AV-procd|sdf|7187|dock8
  -GOLD-   22720 8433D 1   1.00000     0.00000
 Structure written by MMmdl.
 38 39  0  0  0  0  0  0  0  0  1 V2000
  154.0024  135.0131  164.3391 C   0  0  0  0  0  0  0  0  0  0  0  0
  154.2905  135.8881  163.1171 C   0  0  0  0  0  0  0  0  0  0  0  0
  154.4228  135.0573  161.9762 O   0  0  0  0  0  0  0  0  0  0  0  0
  154.9600  135.7454  160.8565 C   0  0  0  0  0  0  0  0  0  0  0  0
  154.0078  136.8654  160.4319 C   0  0  0  0  0  0  0  0  0  0  0  0
  152.9004  136.5932  159.9663 O   0  0  0  0  0  0  0  0  0  0  0  0
  154.4787  138.1147  160.6062 N   0  0  0  0  0  0  0  0  0  0  0  0
  153.8434  139.3479  160.3006 C   0  0  0  0  0  0  0  0  0  0  0  0
  154.4708  140.4936  160.8386 C   0  0  0  0  0  0  0  0  0  0  0  0
  153.9216  141.7662  160.5900 C   0  0  0  0  0  0  0  0  0  0  0  0
  152.7535  141.8671  159.8104 C   0  0  0  0  0  0  0  0  0  0  0  0
  152.1969  143.1272  159.5479 N   0  0  0  0  0  0  0  0  0  0  0  0
  151.8598  143.8645  160.7589 C   0  0  0  0  0  0  0  0  0  0  0  0
  151.1396  145.1752  160.3954 C   0  0  0  0  0  0  0  0  0  0  0  0
  151.9480  145.9357  159.5014 O   0  0  0  0  0  0  0  0  0  0  0  0
  152.2107  145.2339  158.2891 C   0  0  0  0  0  0  0  0  0  0  0  0
  152.9640  143.9293  158.6026 C   0  0  0  0  0  0  0  0  0  0  0  0
  152.1938  140.6700  159.3115 C   0  0  0  0  0  0  0  0  0  0  0  0
  152.7201  139.4502  159.5482 N   0  0  0  0  0  0  0  0  0  0  0  0
  153.8958  135.6209  165.2377 H   0  0  0  0  0  0  0  0  0  0  0  0
  154.8103  134.3012  164.5100 H   0  0  0  0  0  0  0  0  0  0  0  0
  153.0796  134.4480  164.2061 H   0  0  0  0  0  0  0  0  0  0  0  0
  153.4776  136.6006  162.9708 H   0  0  0  0  0  0  0  0  0  0  0  0
  155.2067  136.4588  163.2760 H   0  0  0  0  0  0  0  0  0  0  0  0
  155.9330  136.1712  161.1074 H   0  0  0  0  0  0  0  0  0  0  0  0
  155.0975  135.0590  160.0196 H   0  0  0  0  0  0  0  0  0  0  0  0
  155.4042  138.1897  161.0021 H   0  0  0  0  0  0  0  0  0  0  0  0
  155.3659  140.4039  161.4368 H   0  0  0  0  0  0  0  0  0  0  0  0
  154.3925  142.6507  160.9944 H   0  0  0  0  0  0  0  0  0  0  0  0
  151.2231  143.2539  161.4004 H   0  0  0  0  0  0  0  0  0  0  0  0
  152.7688  144.0855  161.3203 H   0  0  0  0  0  0  0  0  0  0  0  0
  150.1689  144.9717  159.9401 H   0  0  0  0  0  0  0  0  0  0  0  0
  150.9533  145.7634  161.2941 H   0  0  0  0  0  0  0  0  0  0  0  0
  151.2757  145.0275  157.7658 H   0  0  0  0  0  0  0  0  0  0  0  0
  152.8103  145.8664  157.6344 H   0  0  0  0  0  0  0  0  0  0  0  0
  153.9436  144.1645  159.0202 H   0  0  0  0  0  0  0  0  0  0  0  0
  153.1292  143.3625  157.6856 H   0  0  0  0  0  0  0  0  0  0  0  0
  151.3041  140.6864  158.6993 H   0  0  0  0  0  0  0  0  0  0  0  0
  1  2  1  0  0  0  0
  1 20  1  0  0  0  0
  1 21  1  0  0  0  0
  1 22  1  0  0  0  0
  2  3  1  0  0  0  0
  2 23  1  0  0  0  0
  2 24  1  0  0  0  0
  3  4  1  0  0  0  0
  4  5  1  0  0  0  0
  4 25  1  0  0  0  0
  4 26  1  0  0  0  0
  5  6  2  0  0  0  0
  5  7  1  0  0  0  0
  7  8  1  0  0  0  0
  7 27  1  0  0  0  0
  8 19  1  0  0  0  0
  8  9  2  0  0  0  0
  9 10  1  0  0  0  0
  9 28  1  0  0  0  0
 10 11  2  0  0  0  0
 10 29  1  0  0  0  0
 11 12  1  0  0  0  0
 11 18  1  0  0  0  0
 12 17  1  0  0  0  0
 12 13  1  0  0  0  0
 13 14  1  0  0  0  0
 13 30  1  0  0  0  0
 13 31  1  0  0  0  0
 14 15  1  0  0  0  0
 14 32  1  0  0  0  0
 14 33  1  0  0  0  0
 15 16  1  0  0  0  0
 16 17  1  0  0  0  0
 16 34  1  0  0  0  0
 16 35  1  0  0  0  0
 17 36  1  0  0  0  0
 17 37  1  0  0  0  0
 18 19  2  0  0  0  0
 18 38  1  0  0  0  0
M  END
> <s_m_source_file>
AV-unprocessed.smi

> <i_m_source_file_index>
1781

> <i_lp_mmshare_version>
43012

> <i_f3d_flags>
0

> <s_epik_input>
W0NIM11bQ0gyXU9bQ0gyXUMoPU8pW05IXWMxW2NIXVtjSF1jKFtjSF1uMSlOMltDSDJdW0NIMl1PW0NIMl1bQ0gyXTI=

> <s_epik_cmdline>
J2VwaWtfcHl0aG9uJywgJy1waCcsICc3LjAnLCAnLXRuJywgJzgnLCAnLW1hJywgJzIwMCcsICctbWV0YWxfYmluZGluZycsICctaW1hZScsICc8aW5maWxlLm1hZT4nLCAnLW9tYWUnLCAnPG91dGZpbGUubWFlPic=

> <r_lp_tautomer_probability>
1

> <r_epik_Ionization_Penalty>
0.00358585

> <r_epik_Ionization_Penalty_Charging>
0

> <r_epik_Ionization_Penalty_Neutral>
0.00358585

> <r_epik_State_Penalty>
0.00535288

> <r_epik_Charging_Adjusted_Penalty>
0.00535288

> <i_epik_Tot_Q>
0

> <i_epik_Tot_abs_Q>
0

> <r_epik_Metal_State_Penalty>
-0

> <b_epik_Metal_Only>
0

> <s_lp_Force_Field>
OPLS_2005

> <r_lp_Energy>
27.8059

> <b_lp_Chiralities_Consistent>
1

> <s_lp_Variant>
AV-unprocessed.smi:1781-1

> <Gold.Version>
5.8.1

> <Gold.Id.Protein>
6NUR|6NUR_protein|mol2

> <Gold.PLP.Fitness>
42.0997

> <Gold.PLP.PLP>
-39.5130

> <Gold.PLP.part.hbond>
-2.0000

> <Gold.PLP.part.metal>
0.0000

> <Gold.PLP.part.buried>
-6.3255

> <Gold.PLP.part.nonpolar>
-31.0714

> <Gold.PLP.part.repulsive>
0.1590

> <Gold.PLP.ligand.clash>
0.0000

> <Gold.PLP.ligand.torsion>
0.2639

> <Gold.PLP.Chemscore.Hbond>
1.0000

> <Gold.PLP.Chemscore.CHOScore>
0.0000

> <Gold.PLP.Chemscore.Metal>
0.0000

> <Gold.Chemscore.Hbonds>
donor molecule, donor type, donor heavy atom, donor atom, acceptor molecule, acceptor atom, score
      P1  H  6896  6907       L1     6  1.00

> <Gold.PLP.Chemscore.Internal.Correction>
0.1145

> <Gold.Rescore>
     Score         DG    S(hbond)    S(metal)    S(lipo)     H(rot)  DE(clash)    DE(int)     intcor
     15.51     -17.06       0.98        0.00     105.14       1.56       0.10       1.44       ----

> <Gold.Chemscore.Fitness>
15.5144

> <Gold.Chemscore.DG>
-17.0571

> <Gold.Chemscore.ZeroCoef>
-5.4800

> <Gold.Chemscore.Hbond>
0.9817

> <Gold.Chemscore.Metal>
0.0000

> <Gold.Chemscore.Lipo>
105.1440

> <Gold.Chemscore.Internal_Hbond>
0.0000

> <Gold.Chemscore.DEClash>
0.0999

> <Gold.Chemscore.DEInternal>
1.4428

> <Gold.Chemscore.Rot>
1.5639

> <Gold.Chemscore.Internal.Correction>
   9.000000E+99

> <Gold.Chemscore.Hbonds>
donor molecule, donor type, donor heavy atom, donor atom, acceptor molecule, acceptor atom, score
      P1  H  6896  6907       L1     6  0.98

> <Gold.Chemscore.Hbond.Weighted>
-3.2788

> <Gold.Chemscore.Metal.Weighted>
-0.0000

> <Gold.Chemscore.Lipo.Weighted>
-12.3018

> <Gold.Chemscore.Internal_Hbond.Weighted>
0.0000

> <Gold.Chemscore.DEClash.Weighted>
0.0999

> <Gold.Chemscore.DEInternal.Weighted>
1.4428

> <Gold.Chemscore.Rot.Weighted>
4.0036

> <Gold.Chemscore.Internal.Correction.Weighted>
   9.000000E+99

> <Gold.Protein.RotatedTorsions>
[ 6907 6896 6895 6894 ] final   11.58 input  -60.11 | X-H torsion
[ 7974 7965 7964 7962 ] final  161.24 input  175.53 | X-H torsion
[ 8008 7997 7996 7995 ] final -171.65 input   59.86 | X-H torsion
[ 10167 10162 10161 10158 ] final  160.04 input  -65.29 | X-H torsion
[ 10718 10713 10712 10709 ] final   59.75 input   66.30 | X-H torsion
[ 10763 10752 10751 10750 ] final  -41.04 input  -60.55 | X-H torsion
[ 11005 11000 10999 10996 ] final -159.71 input  -57.11 | X-H torsion

> <Gold.Protein.ActiveResidues>
 VAL166  LYS551  ARG553  GLY616  TRP617  ASP618  TYR619  PRO620  LYS621  CYS622 
 ASP623  PHE694  ASN695  SER759  ASP760  ASP761  ALA762  ILE779  LEU786  VAL792 
 PHE793  MET794  SER795  GLU796  ALA797  LYS798  CYS799  TRP800  GLU811  SER814 

> <Gold.Protein.RotatedAtoms>
  151.7566  135.0820  160.0338 H   0  0  0  0  0  0  0  0  0  0  0  0  # atno 6907 bound_to 6896
  152.3381  133.6030  159.5865 H   0  0  0  0  0  0  0  0  0  0  0  0  # atno 6908 bound_to 6896
  150.7462  133.9681  159.3578 H   0  0  0  0  0  0  0  0  0  0  0  0  # atno 6909 bound_to 6896
  144.7695  139.7871  143.6302 H   0  0  0  0  0  0  0  0  0  0  0  0  # atno 7974 bound_to 7965
  155.9343  140.1097  157.1107 H   0  0  0  0  0  0  0  0  0  0  0  0  # atno 8008 bound_to 7997
  154.4077  140.1231  156.4909 H   0  0  0  0  0  0  0  0  0  0  0  0  # atno 8009 bound_to 7997
  155.7041  140.3471  155.4948 H   0  0  0  0  0  0  0  0  0  0  0  0  # atno 8010 bound_to 7997
  139.4837  144.4673  151.8625 H   0  0  0  0  0  0  0  0  0  0  0  0  # atno 10167 bound_to 10162
  157.5700  130.8900  149.9250 H   0  0  0  0  0  0  0  0  0  0  0  0  # atno 10718 bound_to 10713
  153.9560  135.6745  153.4744 H   0  0  0  0  0  0  0  0  0  0  0  0  # atno 10763 bound_to 10752
  153.0861  135.4898  154.8596 H   0  0  0  0  0  0  0  0  0  0  0  0  # atno 10764 bound_to 10752
  154.7299  135.3136  154.8868 H   0  0  0  0  0  0  0  0  0  0  0  0  # atno 10765 bound_to 10752
  140.6395  134.4566  157.5233 H   0  0  0  0  0  0  0  0  0  0  0  0  # atno 11005 bound_to 11000
  146.1831  139.5033  142.9854 LP  0  0  0  0  0  0  0  0  0  0  0  0  # atno 17320 bound_to 7965
  145.6366  141.0293  143.1834 LP  0  0  0  0  0  0  0  0  0  0  0  0  # atno 17321 bound_to 7965
  140.4139  144.2333  150.5888 LP  0  0  0  0  0  0  0  0  0  0  0  0  # atno 17342 bound_to 10162
  140.4940  143.2338  151.8777 LP  0  0  0  0  0  0  0  0  0  0  0  0  # atno 17343 bound_to 10162
  156.0746  130.3680  150.0705 LP  0  0  0  0  0  0  0  0  0  0  0  0  # atno 17370 bound_to 10713
  156.8859  130.9572  151.3594 LP  0  0  0  0  0  0  0  0  0  0  0  0  # atno 17371 bound_to 10713
  139.9085  134.8395  156.1614 LP  0  0  0  0  0  0  0  0  0  0  0  0  # atno 17394 bound_to 11000
  141.0617  133.6838  156.1965 LP  0  0  0  0  0  0  0  0  0  0  0  0  # atno 17395 bound_to 11000

$$$$
