AV-unprocessed.smi:2718|AV-procd|sdf|10491|dock6
  -GOLD-   2272014533D 1   1.00000     0.00000
 Structure written by MMmdl.
 47 48  0  0  0  0  0  0  0  0  1 V2000
  144.8741  143.5158  156.5087 C   0  0  0  0  0  0  0  0  0  0  0  0
  145.7389  143.0886  155.3396 C   0  0  0  0  0  0  0  0  0  0  0  0
  145.2780  143.6060  153.9880 C   0  0  0  0  0  0  0  0  0  0  0  0
  146.8258  142.3116  155.5111 C   0  0  0  0  0  0  0  0  0  0  0  0
  147.7465  141.8226  154.4427 C   0  0  1  0  0  0  0  0  0  0  0  0
  149.1924  141.4126  154.6954 C   0  0  1  0  0  0  0  0  0  0  0  0
  149.7564  141.4172  156.0812 C   0  0  0  0  0  0  0  0  0  0  0  0
  150.4159  140.4804  156.5319 O   0  0  0  0  0  0  0  0  0  0  0  0
  149.5514  142.5580  156.7566 N   0  0  0  0  0  0  0  0  0  0  0  0
  150.0229  142.8273  158.1106 C   0  0  0  0  0  0  0  0  0  0  0  0
  151.5239  143.1829  158.1530 C   0  0  1  0  0  0  0  0  0  0  0  0
  151.8653  144.4517  157.3517 C   0  0  0  0  0  0  0  0  0  0  0  0
  152.0136  143.2842  159.5706 C   0  0  0  0  0  0  0  0  0  0  0  0
  151.5887  144.2143  160.4368 N   0  0  0  0  0  0  0  0  0  0  0  0
  152.2557  143.9593  161.6180 N   0  0  0  0  0  0  0  0  0  0  0  0
  153.0137  142.8971  161.3513 C   0  0  0  0  0  0  0  0  0  0  0  0
  152.9100  142.4247  160.1002 N   0  0  0  0  0  0  0  0  0  0  0  0
  153.5893  141.2897  159.5074 C   0  0  0  0  0  0  0  0  0  0  0  0
  148.1496  140.3633  154.3159 C   0  0  0  0  0  0  0  0  0  0  0  0
  147.6193  139.3219  155.2995 C   0  0  0  0  0  0  0  0  0  0  0  0
  148.2333  139.7430  152.9321 C   0  0  0  0  0  0  0  0  0  0  0  0
  143.8515  143.1638  156.3704 H   0  0  0  0  0  0  0  0  0  0  0  0
  144.8553  144.6029  156.5871 H   0  0  0  0  0  0  0  0  0  0  0  0
  145.2462  143.1148  157.4518 H   0  0  0  0  0  0  0  0  0  0  0  0
  145.2444  144.6960  153.9962 H   0  0  0  0  0  0  0  0  0  0  0  0
  144.2767  143.2363  153.7667 H   0  0  0  0  0  0  0  0  0  0  0  0
  145.9365  143.3002  153.1755 H   0  0  0  0  0  0  0  0  0  0  0  0
  147.0648  141.9940  156.5151 H   0  0  0  0  0  0  0  0  0  0  0  0
  147.5674  142.3555  153.5106 H   0  0  0  0  0  0  0  0  0  0  0  0
  149.9174  141.6552  153.9209 H   0  0  0  0  0  0  0  0  0  0  0  0
  149.0200  143.2882  156.3043 H   0  0  0  0  0  0  0  0  0  0  0  0
  149.4298  143.6450  158.5212 H   0  0  0  0  0  0  0  0  0  0  0  0
  149.8235  141.9594  158.7420 H   0  0  0  0  0  0  0  0  0  0  0  0
  152.0605  142.3661  157.6714 H   0  0  0  0  0  0  0  0  0  0  0  0
  152.9372  144.6502  157.3761 H   0  0  0  0  0  0  0  0  0  0  0  0
  151.3559  145.3267  157.7568 H   0  0  0  0  0  0  0  0  0  0  0  0
  151.5771  144.3555  156.3049 H   0  0  0  0  0  0  0  0  0  0  0  0
  153.6604  142.4494  162.0917 H   0  0  0  0  0  0  0  0  0  0  0  0
  154.2373  140.8132  160.2434 H   0  0  0  0  0  0  0  0  0  0  0  0
  154.1961  141.6222  158.6648 H   0  0  0  0  0  0  0  0  0  0  0  0
  152.8555  140.5624  159.1587 H   0  0  0  0  0  0  0  0  0  0  0  0
  148.2912  138.4640  155.3380 H   0  0  0  0  0  0  0  0  0  0  0  0
  146.6346  138.9742  154.9862 H   0  0  0  0  0  0  0  0  0  0  0  0
  147.5270  139.7206  156.3095 H   0  0  0  0  0  0  0  0  0  0  0  0
  148.9037  138.8831  152.9413 H   0  0  0  0  0  0  0  0  0  0  0  0
  148.6115  140.4634  152.2062 H   0  0  0  0  0  0  0  0  0  0  0  0
  147.2474  139.4138  152.6027 H   0  0  0  0  0  0  0  0  0  0  0  0
  1  2  1  0  0  0  0
  1 22  1  0  0  0  0
  1 23  1  0  0  0  0
  1 24  1  0  0  0  0
  2  3  1  0  0  0  0
  2  4  2  0  0  0  0
  3 25  1  0  0  0  0
  3 26  1  0  0  0  0
  3 27  1  0  0  0  0
  4  5  1  0  0  0  0
  4 28  1  0  0  0  0
  5 19  1  0  0  0  0
  5  6  1  0  0  0  0
  5 29  1  0  0  0  0
  6  7  1  0  0  0  0
  6 19  1  0  0  0  0
  6 30  1  0  0  0  0
  7  8  2  0  0  0  0
  7  9  1  0  0  0  0
  9 10  1  0  0  0  0
  9 31  1  0  0  0  0
 10 11  1  0  0  0  0
 10 32  1  0  0  0  0
 10 33  1  0  0  0  0
 11 12  1  0  0  0  0
 11 13  1  0  0  0  0
 11 34  1  0  0  0  0
 12 35  1  0  0  0  0
 12 36  1  0  0  0  0
 12 37  1  0  0  0  0
 13 17  1  0  0  0  0
 13 14  2  0  0  0  0
 14 15  1  0  0  0  0
 15 16  2  0  0  0  0
 16 17  1  0  0  0  0
 16 38  1  0  0  0  0
 17 18  1  0  0  0  0
 18 39  1  0  0  0  0
 18 40  1  0  0  0  0
 18 41  1  0  0  0  0
 19 20  1  0  0  0  0
 19 21  1  0  0  0  0
 20 42  1  0  0  0  0
 20 43  1  0  0  0  0
 20 44  1  0  0  0  0
 21 45  1  0  0  0  0
 21 46  1  0  0  0  0
 21 47  1  0  0  0  0
M  END
> <s_m_source_file>
AV-unprocessed.smi

> <i_m_source_file_index>
2718

> <i_lp_mmshare_version>
43012

> <i_f3d_flags>
0

> <s_epik_input>
W0NIM11DKFtDSDNdKT1bQ0hdW0NAQEhdKEMxKFtDSDNdKVtDSDNdKVtDQEhdMUMoPU8pW05IXVtDSDJdW0NASF0oW0NIM10pYzJubltjSF1uMltDSDNd

> <s_epik_cmdline>
J2VwaWtfcHl0aG9uJywgJy1waCcsICc3LjAnLCAnLXRuJywgJzgnLCAnLW1hJywgJzIwMCcsICctbWV0YWxfYmluZGluZycsICctaW1hZScsICc8aW5maWxlLm1hZT4nLCAnLW9tYWUnLCAnPG91dGZpbGUubWFlPic=

> <r_lp_tautomer_probability>
1

> <r_epik_Ionization_Penalty>
0.000449586

> <r_epik_Ionization_Penalty_Charging>
0

> <r_epik_Ionization_Penalty_Neutral>
0.000449586

> <r_epik_State_Penalty>
0.000243372

> <r_epik_Charging_Adjusted_Penalty>
0.000243372

> <i_epik_Tot_Q>
0

> <i_epik_Tot_abs_Q>
0

> <r_epik_Metal_State_Penalty>
-0

> <b_epik_Metal_Only>
0

> <s_lp_Force_Field>
OPLS_2005

> <r_lp_Energy>
17.9129

> <b_lp_Chiralities_Consistent>
1

> <s_lp_Variant>
AV-unprocessed.smi:2718-6

> <Gold.Version>
5.8.1

> <Gold.Id.Protein>
6NUR|6NUR_protein|mol2

> <Gold.PLP.Fitness>
43.9847

> <Gold.PLP.PLP>
-41.7068

> <Gold.PLP.part.hbond>
-1.0000

> <Gold.PLP.part.metal>
0.0000

> <Gold.PLP.part.buried>
-1.0089

> <Gold.PLP.part.nonpolar>
-40.4610

> <Gold.PLP.part.repulsive>
0.3028

> <Gold.PLP.ligand.clash>
0.0000

> <Gold.PLP.ligand.torsion>
0.5151

> <Gold.PLP.Chemscore.Hbond>
1.0000

> <Gold.PLP.Chemscore.CHOScore>
0.0000

> <Gold.PLP.Chemscore.Metal>
0.0000

> <Gold.Chemscore.Hbonds>
donor molecule, donor type, donor heavy atom, donor atom, acceptor molecule, acceptor atom, score
      L1  H     9    31       P1  8028  1.00

> <Gold.PLP.Chemscore.Internal.Correction>
0.3081

> <Gold.Rescore>
     Score         DG    S(hbond)    S(metal)    S(lipo)     H(rot)  DE(clash)    DE(int)     intcor
     10.88     -14.21       1.00        0.00      88.92       1.95       2.14       1.19       ----

> <Gold.Chemscore.Fitness>
10.8833

> <Gold.Chemscore.DG>
-14.2128

> <Gold.Chemscore.ZeroCoef>
-5.4800

> <Gold.Chemscore.Hbond>
0.9970

> <Gold.Chemscore.Metal>
0.0000

> <Gold.Chemscore.Lipo>
88.9167

> <Gold.Chemscore.Internal_Hbond>
0.0000

> <Gold.Chemscore.DEClash>
2.1383

> <Gold.Chemscore.DEInternal>
1.1912

> <Gold.Chemscore.Rot>
1.9533

> <Gold.Chemscore.Internal.Correction>
   9.000000E+99

> <Gold.Chemscore.Hbonds>
donor molecule, donor type, donor heavy atom, donor atom, acceptor molecule, acceptor atom, score
      L1  H     9    31       P1  8028  0.94

> <Gold.Chemscore.Hbond.Weighted>
-3.3301

> <Gold.Chemscore.Metal.Weighted>
-0.0000

> <Gold.Chemscore.Lipo.Weighted>
-10.4033

> <Gold.Chemscore.Internal_Hbond.Weighted>
0.0000

> <Gold.Chemscore.DEClash.Weighted>
2.1383

> <Gold.Chemscore.DEInternal.Weighted>
1.1912

> <Gold.Chemscore.Rot.Weighted>
5.0005

> <Gold.Chemscore.Internal.Correction.Weighted>
   9.000000E+99

> <Gold.Protein.RotatedTorsions>
[ 6907 6896 6895 6894 ] final  138.04 input  -60.11 | X-H torsion
[ 7974 7965 7964 7962 ] final  158.18 input  175.53 | X-H torsion
[ 8008 7997 7996 7995 ] final -148.70 input   59.86 | X-H torsion
[ 10167 10162 10161 10158 ] final  -47.29 input  -65.29 | X-H torsion
[ 10718 10713 10712 10709 ] final  124.14 input   66.30 | X-H torsion
[ 10763 10752 10751 10750 ] final  -34.10 input  -60.55 | X-H torsion
[ 11005 11000 10999 10996 ] final   39.29 input  -57.11 | X-H torsion

> <Gold.Protein.ActiveResidues>
 VAL166  LYS551  ARG553  GLY616  TRP617  ASP618  TYR619  PRO620  LYS621  CYS622 
 ASP623  PHE694  ASN695  SER759  ASP760  ASP761  ALA762  ILE779  LEU786  VAL792 
 PHE793  MET794  SER795  GLU796  ALA797  LYS798  CYS799  TRP800  GLU811  SER814 

> <Gold.Protein.RotatedAtoms>
  152.2712  133.5384  159.5440 H   0  0  0  0  0  0  0  0  0  0  0  0  # atno 6907 bound_to 6896
  150.7160  134.0695  159.3868 H   0  0  0  0  0  0  0  0  0  0  0  0  # atno 6908 bound_to 6896
  151.8609  135.0524  160.0520 H   0  0  0  0  0  0  0  0  0  0  0  0  # atno 6909 bound_to 6896
  144.7860  139.7442  143.6240 H   0  0  0  0  0  0  0  0  0  0  0  0  # atno 7974 bound_to 7965
  155.5957  140.0657  157.2746 H   0  0  0  0  0  0  0  0  0  0  0  0  # atno 8008 bound_to 7997
  154.4292  140.1827  156.1168 H   0  0  0  0  0  0  0  0  0  0  0  0  # atno 8009 bound_to 7997
  156.0198  140.3318  155.7030 H   0  0  0  0  0  0  0  0  0  0  0  0  # atno 8010 bound_to 7997
  140.6781  143.2791  151.3906 H   0  0  0  0  0  0  0  0  0  0  0  0  # atno 10167 bound_to 10162
  157.5609  131.1089  150.8540 H   0  0  0  0  0  0  0  0  0  0  0  0  # atno 10718 bound_to 10713
  153.8411  135.6857  153.4803 H   0  0  0  0  0  0  0  0  0  0  0  0  # atno 10763 bound_to 10752
  153.1453  135.4640  154.9555 H   0  0  0  0  0  0  0  0  0  0  0  0  # atno 10764 bound_to 10752
  154.7844  135.3280  154.7864 H   0  0  0  0  0  0  0  0  0  0  0  0  # atno 10765 bound_to 10752
  140.2042  134.3833  155.8081 H   0  0  0  0  0  0  0  0  0  0  0  0  # atno 11005 bound_to 11000
  146.2092  139.5437  142.9692 LP  0  0  0  0  0  0  0  0  0  0  0  0  # atno 17320 bound_to 7965
  145.5919  141.0368  143.2065 LP  0  0  0  0  0  0  0  0  0  0  0  0  # atno 17321 bound_to 7965
  139.6086  144.1146  152.2275 LP  0  0  0  0  0  0  0  0  0  0  0  0  # atno 17342 bound_to 10162
  140.0552  144.5900  150.7305 LP  0  0  0  0  0  0  0  0  0  0  0  0  # atno 17343 bound_to 10162
  156.9038  130.5256  149.5282 LP  0  0  0  0  0  0  0  0  0  0  0  0  # atno 17370 bound_to 10713
  156.0662  130.5704  150.9292 LP  0  0  0  0  0  0  0  0  0  0  0  0  # atno 17371 bound_to 10713
  141.2227  133.7109  156.8309 LP  0  0  0  0  0  0  0  0  0  0  0  0  # atno 17394 bound_to 11000
  140.2021  134.8889  157.3180 LP  0  0  0  0  0  0  0  0  0  0  0  0  # atno 17395 bound_to 11000

$$$$
