AV-unprocessed.smi:753|AV-procd|sdf|3599|dock6
  -GOLD-   22720 0593D 1   1.00000     0.00000
 Structure written by MMmdl.
 43 45  0  0  0  0  0  0  0  0  1 V2000
  151.0385  142.0725  156.4804 C   0  0  0  0  0  0  0  0  0  0  0  0
  149.8274  141.3843  155.8859 C   0  0  0  0  0  0  0  0  0  0  0  0
  148.5956  141.3649  156.5737 C   0  0  0  0  0  0  0  0  0  0  0  0
  147.5041  140.7057  155.9763 C   0  0  0  0  0  0  0  0  0  0  0  0
  147.6848  140.0948  154.7186 C   0  0  0  0  0  0  0  0  0  0  0  0
  146.5439  139.3650  154.0379 C   0  0  0  0  0  0  0  0  0  0  0  0
  146.8344  139.1025  152.5517 C   0  0  0  0  0  0  0  0  0  0  0  0
  146.9311  137.6759  152.2706 N   0  0  0  0  0  0  0  0  0  0  0  0
  145.9079  136.8067  152.3239 C   0  0  0  0  0  0  0  0  0  0  0  0
  144.7608  137.1275  152.6294 O   0  0  0  0  0  0  0  0  0  0  0  0
  146.2310  135.5398  152.0102 N   0  0  0  0  0  0  0  0  0  0  0  0
  145.3507  134.3699  151.9747 C   0  0  2  0  0  0  0  0  0  0  0  0
  145.9667  133.1268  152.6596 C   0  0  0  0  0  0  0  0  0  0  0  0
  145.9635  132.0773  151.5328 C   0  0  1  0  0  0  0  0  0  0  0  0
  144.5128  131.6645  151.2170 C   0  0  0  0  0  0  0  0  0  0  0  0
  143.9528  132.9061  150.4949 C   0  0  0  0  0  0  0  0  0  0  0  0
  145.1469  133.8783  150.5248 C   0  0  2  0  0  0  0  0  0  0  0  0
  146.3207  132.9249  150.3196 C   0  0  0  0  0  0  0  0  0  0  0  0
  148.9575  140.1724  154.1145 C   0  0  0  0  0  0  0  0  0  0  0  0
  150.0101  140.8012  154.6804 N   0  0  0  0  0  0  0  0  0  0  0  0
  150.7936  142.5588  157.4251 H   0  0  0  0  0  0  0  0  0  0  0  0
  151.4186  142.8318  155.7964 H   0  0  0  0  0  0  0  0  0  0  0  0
  151.8321  141.3482  156.6663 H   0  0  0  0  0  0  0  0  0  0  0  0
  148.4865  141.8404  157.5374 H   0  0  0  0  0  0  0  0  0  0  0  0
  146.5480  140.6689  156.4773 H   0  0  0  0  0  0  0  0  0  0  0  0
  146.3632  138.4242  154.5600 H   0  0  0  0  0  0  0  0  0  0  0  0
  145.6328  139.9554  154.1440 H   0  0  0  0  0  0  0  0  0  0  0  0
  146.0324  139.5131  151.9375 H   0  0  0  0  0  0  0  0  0  0  0  0
  147.7514  139.6088  152.2449 H   0  0  0  0  0  0  0  0  0  0  0  0
  147.8399  137.3223  152.0093 H   0  0  0  0  0  0  0  0  0  0  0  0
  147.1971  135.3679  151.7720 H   0  0  0  0  0  0  0  0  0  0  0  0
  144.3884  134.6321  152.4184 H   0  0  0  0  0  0  0  0  0  0  0  0
  146.9873  133.3170  152.9961 H   0  0  0  0  0  0  0  0  0  0  0  0
  145.3891  132.8044  153.5267 H   0  0  0  0  0  0  0  0  0  0  0  0
  146.6291  131.2340  151.7188 H   0  0  0  0  0  0  0  0  0  0  0  0
  144.4897  130.7953  150.5582 H   0  0  0  0  0  0  0  0  0  0  0  0
  143.9496  131.4171  152.1176 H   0  0  0  0  0  0  0  0  0  0  0  0
  143.6795  132.6602  149.4680 H   0  0  0  0  0  0  0  0  0  0  0  0
  143.0684  133.3128  150.9868 H   0  0  0  0  0  0  0  0  0  0  0  0
  145.0672  134.6798  149.7890 H   0  0  0  0  0  0  0  0  0  0  0  0
  147.2951  133.4098  150.4015 H   0  0  0  0  0  0  0  0  0  0  0  0
  146.2729  132.3753  149.3777 H   0  0  0  0  0  0  0  0  0  0  0  0
  149.1377  139.7132  153.1534 H   0  0  0  0  0  0  0  0  0  0  0  0
  1  2  1  0  0  0  0
  1 21  1  0  0  0  0
  1 22  1  0  0  0  0
  1 23  1  0  0  0  0
  2 20  1  0  0  0  0
  2  3  2  0  0  0  0
  3  4  1  0  0  0  0
  3 24  1  0  0  0  0
  4  5  2  0  0  0  0
  4 25  1  0  0  0  0
  5  6  1  0  0  0  0
  5 19  1  0  0  0  0
  6  7  1  0  0  0  0
  6 26  1  0  0  0  0
  6 27  1  0  0  0  0
  7  8  1  0  0  0  0
  7 28  1  0  0  0  0
  7 29  1  0  0  0  0
  8  9  1  0  0  0  0
  8 30  1  0  0  0  0
  9 10  2  0  0  0  0
  9 11  1  0  0  0  0
 11 12  1  0  0  0  0
 11 31  1  0  0  0  0
 12 17  1  0  0  0  0
 12 13  1  0  0  0  0
 12 32  1  0  0  0  0
 13 14  1  0  0  0  0
 13 33  1  0  0  0  0
 13 34  1  0  0  0  0
 14 18  1  0  0  0  0
 14 15  1  0  0  0  0
 14 35  1  0  0  0  0
 15 16  1  0  0  0  0
 15 36  1  0  0  0  0
 15 37  1  0  0  0  0
 16 17  1  0  0  0  0
 16 38  1  0  0  0  0
 16 39  1  0  0  0  0
 17 18  1  0  0  0  0
 17 40  1  0  0  0  0
 18 41  1  0  0  0  0
 18 42  1  0  0  0  0
 19 20  2  0  0  0  0
 19 43  1  0  0  0  0
M  END
> <s_m_source_file>
AV-unprocessed.smi

> <i_m_source_file_index>
753

> <i_lp_mmshare_version>
43012

> <i_f3d_flags>
0

> <s_epik_input>
W0NIM11jMVtjSF1bY0hdYyhbY0hdbjEpW0NIMl1bQ0gyXVtOSF1DKD1PKVtOSF1bQ0BIXShbQ0gyXVtDQEBIXTIzKVtDQEBIXShbQ0gyXTMpW0NIMl1bQ0gyXTI=

> <s_epik_cmdline>
J2VwaWtfcHl0aG9uJywgJy1waCcsICc3LjAnLCAnLXRuJywgJzgnLCAnLW1hJywgJzIwMCcsICctbWV0YWxfYmluZGluZycsICctaW1hZScsICc8aW5maWxlLm1hZT4nLCAnLW9tYWUnLCAnPG91dGZpbGUubWFlPic=

> <r_epik_Ionization_Penalty>
0.0569047

> <r_epik_Ionization_Penalty_Charging>
0

> <r_epik_Ionization_Penalty_Neutral>
0.0569047

> <r_epik_State_Penalty>
0.0490541

> <r_epik_Charging_Adjusted_Penalty>
0.0490541

> <i_epik_Tot_Q>
0

> <i_epik_Tot_abs_Q>
0

> <r_epik_Metal_State_Penalty>
0.0447357

> <b_epik_Metal_Only>
0

> <s_lp_Force_Field>
OPLS_2005

> <r_lp_Energy>
50.812

> <b_lp_Chiralities_Consistent>
1

> <s_lp_Variant>
AV-unprocessed.smi:753-1

> <Gold.Version>
5.8.1

> <Gold.Id.Protein>
6NUR|6NUR_protein|mol2

> <Gold.PLP.Fitness>
43.3586

> <Gold.PLP.PLP>
-33.9607

> <Gold.PLP.part.hbond>
-3.0000

> <Gold.PLP.part.metal>
0.0000

> <Gold.PLP.part.buried>
-3.2845

> <Gold.PLP.part.nonpolar>
-27.1226

> <Gold.PLP.part.repulsive>
0.4255

> <Gold.PLP.ligand.clash>
0.0000

> <Gold.PLP.ligand.torsion>
0.7190

> <Gold.PLP.Chemscore.Hbond>
2.6000

> <Gold.PLP.Chemscore.CHOScore>
1.0000

> <Gold.PLP.Chemscore.Metal>
0.0000

> <Gold.Chemscore.Hbonds>
donor molecule, donor type, donor heavy atom, donor atom, acceptor molecule, acceptor atom, score
      L1  H     8    30       P1  7948  1.00
      L1  H    11    31       P1  7948  0.85
      P1  H  7989  7998       L1    20  0.75
      L1  C    19    43       P1  7957  1.00

> <Gold.PLP.Chemscore.Internal.Correction>
0.0360

> <Gold.Rescore>
     Score         DG    S(hbond)    S(metal)    S(lipo)     H(rot)  DE(clash)    DE(int)     intcor
     20.45     -21.19       2.66        0.00      89.74       1.43       0.17       0.57       ----

> <Gold.Chemscore.Fitness>
20.4518

> <Gold.Chemscore.DG>
-21.1919

> <Gold.Chemscore.ZeroCoef>
-5.4800

> <Gold.Chemscore.Hbond>
2.6560

> <Gold.Chemscore.Metal>
0.0000

> <Gold.Chemscore.Lipo>
89.7396

> <Gold.Chemscore.Internal_Hbond>
0.0000

> <Gold.Chemscore.DEClash>
0.1705

> <Gold.Chemscore.DEInternal>
0.5697

> <Gold.Chemscore.Rot>
1.4291

> <Gold.Chemscore.Internal.Correction>
   9.000000E+99

> <Gold.Chemscore.Hbonds>
donor molecule, donor type, donor heavy atom, donor atom, acceptor molecule, acceptor atom, score
      L1  H     8    30       P1  7948  0.93
      L1  H    11    31       P1  7948  0.82
      P1  H  7989  7998       L1    20  0.61

> <Gold.Chemscore.Hbond.Weighted>
-8.8709

> <Gold.Chemscore.Metal.Weighted>
-0.0000

> <Gold.Chemscore.Lipo.Weighted>
-10.4995

> <Gold.Chemscore.Internal_Hbond.Weighted>
0.0000

> <Gold.Chemscore.DEClash.Weighted>
0.1705

> <Gold.Chemscore.DEInternal.Weighted>
0.5697

> <Gold.Chemscore.Rot.Weighted>
3.6585

> <Gold.Chemscore.Internal.Correction.Weighted>
   9.000000E+99

> <Gold.Protein.RotatedTorsions>
[ 6907 6896 6895 6894 ] final  -26.41 input  -60.11 | X-H torsion
[ 7974 7965 7964 7962 ] final   44.45 input  175.53 | X-H torsion
[ 8008 7997 7996 7995 ] final  -22.47 input   59.86 | X-H torsion
[ 10167 10162 10161 10158 ] final  -47.70 input  -65.29 | X-H torsion
[ 10718 10713 10712 10709 ] final   69.84 input   66.30 | X-H torsion
[ 10763 10752 10751 10750 ] final   63.23 input  -60.55 | X-H torsion
[ 11005 11000 10999 10996 ] final  -86.11 input  -57.11 | X-H torsion

> <Gold.Protein.ActiveResidues>
 VAL166  LYS551  ARG553  GLY616  TRP617  ASP618  TYR619  PRO620  LYS621  CYS622 
 ASP623  PHE694  ASN695  SER759  ASP760  ASP761  ALA762  ILE779  LEU786  VAL792 
 PHE793  MET794  SER795  GLU796  ALA797  LYS798  CYS799  TRP800  GLU811  SER814 

> <Gold.Protein.RotatedAtoms>
  151.1613  135.0275  159.8711 H   0  0  0  0  0  0  0  0  0  0  0  0  # atno 6907 bound_to 6896
  152.5451  134.1276  159.8435 H   0  0  0  0  0  0  0  0  0  0  0  0  # atno 6908 bound_to 6896
  151.1371  133.4950  159.2630 H   0  0  0  0  0  0  0  0  0  0  0  0  # atno 6909 bound_to 6896
  146.0568  139.5074  142.9684 H   0  0  0  0  0  0  0  0  0  0  0  0  # atno 7974 bound_to 7965
  154.4642  140.2007  156.0162 H   0  0  0  0  0  0  0  0  0  0  0  0  # atno 8008 bound_to 7997
  156.0897  140.3260  155.7770 H   0  0  0  0  0  0  0  0  0  0  0  0  # atno 8009 bound_to 7997
  155.4977  140.0551  157.2935 H   0  0  0  0  0  0  0  0  0  0  0  0  # atno 8010 bound_to 7997
  140.6764  143.2773  151.3964 H   0  0  0  0  0  0  0  0  0  0  0  0  # atno 10167 bound_to 10162
  157.6368  130.9447  150.0569 H   0  0  0  0  0  0  0  0  0  0  0  0  # atno 10718 bound_to 10713
  153.0010  135.5436  154.6319 H   0  0  0  0  0  0  0  0  0  0  0  0  # atno 10763 bound_to 10752
  154.5595  135.2833  155.0935 H   0  0  0  0  0  0  0  0  0  0  0  0  # atno 10764 bound_to 10752
  154.2143  135.6462  153.5177 H   0  0  0  0  0  0  0  0  0  0  0  0  # atno 10765 bound_to 10752
  141.1634  133.7436  156.9113 H   0  0  0  0  0  0  0  0  0  0  0  0  # atno 11005 bound_to 11000
  145.6630  141.0236  143.1698 LP  0  0  0  0  0  0  0  0  0  0  0  0  # atno 17320 bound_to 7965
  144.7152  139.8222  143.7401 LP  0  0  0  0  0  0  0  0  0  0  0  0  # atno 17321 bound_to 7965
  139.6058  144.1199  152.2248 LP  0  0  0  0  0  0  0  0  0  0  0  0  # atno 17342 bound_to 10162
  140.0598  144.5866  150.7272 LP  0  0  0  0  0  0  0  0  0  0  0  0  # atno 17343 bound_to 10162
  156.1614  130.3644  149.9294 LP  0  0  0  0  0  0  0  0  0  0  0  0  # atno 17370 bound_to 10713
  156.7292  130.9036  151.3624 LP  0  0  0  0  0  0  0  0  0  0  0  0  # atno 17371 bound_to 10713
  140.1515  134.9227  157.2598 LP  0  0  0  0  0  0  0  0  0  0  0  0  # atno 17394 bound_to 11000
  140.2718  134.3452  155.7371 LP  0  0  0  0  0  0  0  0  0  0  0  0  # atno 17395 bound_to 11000

$$$$
