AV-unprocessed.smi:876|AV-procd|sdf|4019|dock4
  -GOLD-   22720 1503D 1   1.00000     0.00000
 Structure written by MMmdl.
 41 42  0  0  0  0  0  0  0  0  2 V2000
  151.5345  144.0877  157.2825 C   0  0  0  0  0  0  0  0  0  0  0  0
  151.5064  142.6656  157.5978 N   0  0  0  0  0  0  0  0  0  0  0  0
  152.0539  142.1800  158.8598 C   0  0  0  0  0  0  0  0  0  0  0  0
  150.9736  141.7493  156.6652 C   0  0  0  0  0  0  0  0  0  0  0  0
  151.5451  140.4780  156.4134 C   0  0  0  0  0  0  0  0  0  0  0  0
  150.9557  139.6151  155.4664 C   0  0  0  0  0  0  0  0  0  0  0  0
  149.7874  140.0249  154.7785 C   0  0  0  0  0  0  0  0  0  0  0  0
  149.1234  139.2425  153.7952 N   0  0  0  0  0  0  0  0  0  0  0  0
  147.8327  139.2847  153.4218 C   0  0  0  0  0  0  0  0  0  0  0  0
  146.9866  140.0570  153.8717 O   0  0  0  0  0  0  0  0  0  0  0  0
  147.5736  138.3809  152.4665 N   0  0  0  0  0  0  0  0  0  0  0  0
  146.2713  138.1827  151.8396 C   0  0  2  0  0  0  0  0  0  0  0  0
  145.2933  137.6036  152.8246 C   0  0  0  0  0  0  0  0  0  0  0  0
  144.7305  136.4788  152.3887 C   0  0  0  0  0  0  0  0  0  0  0  0
  145.2223  136.0693  151.0238 C   0  0  2  0  0  0  0  0  0  0  0  0
  145.7561  134.6269  150.9854 C   0  0  0  0  0  0  0  0  0  0  0  0
  146.7773  134.4486  151.9447 O   0  0  0  0  0  0  0  0  0  0  0  0
  146.3049  137.1303  150.6999 C   0  0  0  0  0  0  0  0  0  0  0  0
  149.2674  141.3052  155.0553 C   0  0  0  0  0  0  0  0  0  0  0  0
  149.8637  142.0993  155.9701 N   0  3  0  0  0  0  0  0  0  0  0  0
  145.8734  139.1337  151.4814 H   0  0  0  0  0  0  0  0  0  0  0  0
  144.3917  136.1727  150.3240 H   0  0  0  0  0  0  0  0  0  0  0  0
  150.5238  144.4662  157.1264 H   0  0  0  0  0  0  0  0  0  0  0  0
  152.1185  144.2691  156.3798 H   0  0  0  0  0  0  0  0  0  0  0  0
  151.9842  144.6643  158.0907 H   0  0  0  0  0  0  0  0  0  0  0  0
  152.8817  141.4931  158.6796 H   0  0  0  0  0  0  0  0  0  0  0  0
  151.2879  141.6581  159.4348 H   0  0  0  0  0  0  0  0  0  0  0  0
  152.4283  143.0006  159.4719 H   0  0  0  0  0  0  0  0  0  0  0  0
  152.4344  140.1479  156.9290 H   0  0  0  0  0  0  0  0  0  0  0  0
  151.4229  138.6607  155.2795 H   0  0  0  0  0  0  0  0  0  0  0  0
  149.7128  138.6089  153.2753 H   0  0  0  0  0  0  0  0  0  0  0  0
  148.3265  137.7886  152.1479 H   0  0  0  0  0  0  0  0  0  0  0  0
  145.0763  138.0800  153.7694 H   0  0  0  0  0  0  0  0  0  0  0  0
  143.9901  135.9069  152.9285 H   0  0  0  0  0  0  0  0  0  0  0  0
  144.9532  133.9213  151.2014 H   0  0  0  0  0  0  0  0  0  0  0  0
  146.1450  134.3819  149.9961 H   0  0  0  0  0  0  0  0  0  0  0  0
  147.3878  135.1663  151.8708 H   0  0  0  0  0  0  0  0  0  0  0  0
  146.1173  137.5976  149.7326 H   0  0  0  0  0  0  0  0  0  0  0  0
  147.2884  136.6621  150.6325 H   0  0  0  0  0  0  0  0  0  0  0  0
  148.3899  141.7178  154.5788 H   0  0  0  0  0  0  0  0  0  0  0  0
  149.4543  143.0165  156.1477 H   0  0  0  0  0  0  0  0  0  0  0  0
  1  2  1  0  0  0  0
  1 23  1  0  0  0  0
  1 24  1  0  0  0  0
  1 25  1  0  0  0  0
  2  3  1  0  0  0  0
  2  4  1  0  0  0  0
  3 26  1  0  0  0  0
  3 27  1  0  0  0  0
  3 28  1  0  0  0  0
  4 20  1  0  0  0  0
  4  5  2  0  0  0  0
  5  6  1  0  0  0  0
  5 29  1  0  0  0  0
  6  7  2  0  0  0  0
  6 30  1  0  0  0  0
  7  8  1  0  0  0  0
  7 19  1  0  0  0  0
  8  9  1  0  0  0  0
  8 31  1  0  0  0  0
  9 10  2  0  0  0  0
  9 11  1  0  0  0  0
 11 12  1  0  0  0  0
 11 32  1  0  0  0  0
 12 21  1  0  0  0  0
 12 18  1  0  0  0  0
 12 13  1  0  0  0  0
 13 14  2  0  0  0  0
 13 33  1  0  0  0  0
 14 15  1  0  0  0  0
 14 34  1  0  0  0  0
 15 22  1  0  0  0  0
 15 16  1  0  0  0  0
 15 18  1  0  0  0  0
 16 17  1  0  0  0  0
 16 35  1  0  0  0  0
 16 36  1  0  0  0  0
 17 37  1  0  0  0  0
 18 38  1  0  0  0  0
 18 39  1  0  0  0  0
 19 20  2  0  0  0  0
 19 40  1  0  0  0  0
 20 41  1  0  0  0  0
M  CHG  1  20   1
M  END
> <s_m_source_file>
AV-unprocessed.smi

> <i_m_source_file_index>
876

> <i_lp_mmshare_version>
43012

> <i_f3d_flags>
0

> <s_epik_input>
W0NIM11OKFtDSDNdKWMxW2NIXVtjSF1jKFtjSF1uMSlbTkhdQyg9TylbTkhdW0NAQEhdMltDSF09W0NIXVtDQEBIXShbQ0gyXTIpW0NIMl1bT0hd

> <s_epik_cmdline>
J2VwaWtfcHl0aG9uJywgJy1waCcsICc3LjAnLCAnLXRuJywgJzgnLCAnLW1hJywgJzIwMCcsICctbWV0YWxfYmluZGluZycsICctaW1hZScsICc8aW5maWxlLm1hZT4nLCAnLW9tYWUnLCAnPG91dGZpbGUubWFlPic=

> <r_lp_tautomer_probability>
0.999994

> <r_epik_Ionization_Penalty>
0.257994

> <r_epik_Ionization_Penalty_Charging>
0.257974

> <r_epik_Ionization_Penalty_Neutral>
1.95938e-05

> <r_epik_State_Penalty>
0.249586

> <r_epik_Charging_Adjusted_Penalty>
0.50756

> <i_epik_Tot_Q>
1

> <i_epik_Tot_abs_Q>
1

> <r_epik_Metal_State_Penalty>
0.538508

> <b_epik_Metal_Only>
0

> <s_lp_Force_Field>
OPLS_2005

> <r_lp_Energy>
26.1458

> <b_lp_Chiralities_Consistent>
1

> <s_lp_Variant>
AV-unprocessed.smi:876-1

> <Gold.Version>
5.8.1

> <Gold.Id.Protein>
6NUR|6NUR_protein|mol2

> <Gold.PLP.Fitness>
49.2253

> <Gold.PLP.PLP>
-38.7726

> <Gold.PLP.part.hbond>
-5.0000

> <Gold.PLP.part.metal>
0.0000

> <Gold.PLP.part.buried>
1.4222

> <Gold.PLP.part.nonpolar>
-35.6315

> <Gold.PLP.part.repulsive>
0.4118

> <Gold.PLP.ligand.clash>
0.0000

> <Gold.PLP.ligand.torsion>
0.7858

> <Gold.PLP.Chemscore.Hbond>
4.0000

> <Gold.PLP.Chemscore.CHOScore>
0.0000

> <Gold.PLP.Chemscore.Metal>
0.0000

> <Gold.Chemscore.Hbonds>
donor molecule, donor type, donor heavy atom, donor atom, acceptor molecule, acceptor atom, score
      L1  H    11    32       P1  7948  1.00
      L1  H    17    37       P1  7948  1.00
      L1  H    20    41       P1  8028  2.00

> <Gold.PLP.Chemscore.Internal.Correction>
0.0243

> <Gold.Rescore>
     Score         DG    S(hbond)    S(metal)    S(lipo)     H(rot)  DE(clash)    DE(int)     intcor
     17.41     -20.36       2.95        0.00      82.71       1.82       1.21       1.74       ----

> <Gold.Chemscore.Fitness>
17.4138

> <Gold.Chemscore.DG>
-20.3602

> <Gold.Chemscore.ZeroCoef>
-5.4800

> <Gold.Chemscore.Hbond>
2.9526

> <Gold.Chemscore.Metal>
0.0000

> <Gold.Chemscore.Lipo>
82.7106

> <Gold.Chemscore.Internal_Hbond>
0.0000

> <Gold.Chemscore.DEClash>
1.2092

> <Gold.Chemscore.DEInternal>
1.7372

> <Gold.Chemscore.Rot>
1.8197

> <Gold.Chemscore.Internal.Correction>
   9.000000E+99

> <Gold.Chemscore.Hbonds>
donor molecule, donor type, donor heavy atom, donor atom, acceptor molecule, acceptor atom, score
      L1  H    11    32       P1  7948  0.95
      L1  H    17    37       P1  7948  0.96
      L1  H    20    41       P1  8028  0.98

> <Gold.Chemscore.Hbond.Weighted>
-9.8616

> <Gold.Chemscore.Metal.Weighted>
-0.0000

> <Gold.Chemscore.Lipo.Weighted>
-9.6771

> <Gold.Chemscore.Internal_Hbond.Weighted>
0.0000

> <Gold.Chemscore.DEClash.Weighted>
1.2092

> <Gold.Chemscore.DEInternal.Weighted>
1.7372

> <Gold.Chemscore.Rot.Weighted>
4.6585

> <Gold.Chemscore.Internal.Correction.Weighted>
   9.000000E+99

> <Gold.Protein.RotatedTorsions>
[ 6907 6896 6895 6894 ] final   79.54 input  -60.11 | X-H torsion
[ 7974 7965 7964 7962 ] final  132.96 input  175.53 | X-H torsion
[ 8008 7997 7996 7995 ] final -116.04 input   59.86 | X-H torsion
[ 10167 10162 10161 10158 ] final  -93.26 input  -65.29 | X-H torsion
[ 10718 10713 10712 10709 ] final   41.09 input   66.30 | X-H torsion
[ 10763 10752 10751 10750 ] final   19.61 input  -60.55 | X-H torsion
[ 11005 11000 10999 10996 ] final   63.59 input  -57.11 | X-H torsion

> <Gold.Protein.ActiveResidues>
 VAL166  LYS551  ARG553  GLY616  TRP617  ASP618  TYR619  PRO620  LYS621  CYS622 
 ASP623  PHE694  ASN695  SER759  ASP760  ASP761  ALA762  ILE779  LEU786  VAL792 
 PHE793  MET794  SER795  GLU796  ALA797  LYS798  CYS799  TRP800  GLU811  SER814 

> <Gold.Protein.RotatedAtoms>
  152.5202  134.3496  159.9245 H   0  0  0  0  0  0  0  0  0  0  0  0  # atno 6907 bound_to 6896
  151.3446  133.3942  159.2682 H   0  0  0  0  0  0  0  0  0  0  0  0  # atno 6908 bound_to 6896
  150.9776  134.9155  159.7883 H   0  0  0  0  0  0  0  0  0  0  0  0  # atno 6909 bound_to 6896
  144.9914  139.4403  143.5337 H   0  0  0  0  0  0  0  0  0  0  0  0  # atno 7974 bound_to 7965
  155.0615  140.0393  157.2578 H   0  0  0  0  0  0  0  0  0  0  0  0  # atno 8008 bound_to 7997
  154.7055  140.2682  155.6654 H   0  0  0  0  0  0  0  0  0  0  0  0  # atno 8009 bound_to 7997
  156.2774  140.2732  156.1680 H   0  0  0  0  0  0  0  0  0  0  0  0  # atno 8010 bound_to 7997
  140.3264  143.3019  151.9990 H   0  0  0  0  0  0  0  0  0  0  0  0  # atno 10167 bound_to 10162
  157.3896  130.7799  149.7259 H   0  0  0  0  0  0  0  0  0  0  0  0  # atno 10718 bound_to 10713
  153.1148  135.6705  153.9438 H   0  0  0  0  0  0  0  0  0  0  0  0  # atno 10763 bound_to 10752
  153.8970  135.3040  155.3449 H   0  0  0  0  0  0  0  0  0  0  0  0  # atno 10764 bound_to 10752
  154.7565  135.5009  153.9462 H   0  0  0  0  0  0  0  0  0  0  0  0  # atno 10765 bound_to 10752
  140.0014  134.6436  155.9924 H   0  0  0  0  0  0  0  0  0  0  0  0  # atno 11005 bound_to 11000
  146.3432  139.9248  142.8761 LP  0  0  0  0  0  0  0  0  0  0  0  0  # atno 17320 bound_to 7965
  145.2280  140.9962  143.4007 LP  0  0  0  0  0  0  0  0  0  0  0  0  # atno 17321 bound_to 7965
  139.4864  144.6270  151.7145 LP  0  0  0  0  0  0  0  0  0  0  0  0  # atno 17342 bound_to 10162
  140.5437  144.0538  150.6098 LP  0  0  0  0  0  0  0  0  0  0  0  0  # atno 17343 bound_to 10162
  155.9795  130.4039  150.3583 LP  0  0  0  0  0  0  0  0  0  0  0  0  # atno 17370 bound_to 10713
  157.1697  131.0366  151.2801 LP  0  0  0  0  0  0  0  0  0  0  0  0  # atno 17371 bound_to 10713
  141.1645  133.6537  156.4431 LP  0  0  0  0  0  0  0  0  0  0  0  0  # atno 17394 bound_to 11000
  140.4720  134.6744  157.5133 LP  0  0  0  0  0  0  0  0  0  0  0  0  # atno 17395 bound_to 11000

$$$$
