AV-unprocessed.smi:2284|AV-procd|sdf|9202|dock7
  -GOLD-   2272012423D 1   1.00000     0.00000
 Structure written by MMmdl.
 44 45  0  0  0  0  0  0  0  0  1 V2000
  154.3225  138.7495  161.0128 C   0  0  0  0  0  0  0  0  0  0  0  0
  153.7099  139.9991  160.4141 C   0  0  0  0  0  0  0  0  0  0  0  0
  154.1284  141.2740  160.8419 C   0  0  0  0  0  0  0  0  0  0  0  0
  153.5546  142.4279  160.2781 C   0  0  0  0  0  0  0  0  0  0  0  0
  152.5597  142.3150  159.2850 C   0  0  0  0  0  0  0  0  0  0  0  0
  151.9479  143.5689  158.6880 C   0  0  0  0  0  0  0  0  0  0  0  0
  152.1292  141.0410  158.8483 C   0  0  0  0  0  0  0  0  0  0  0  0
  151.1535  141.0023  157.8750 O   0  0  0  0  0  0  0  0  0  0  0  0
  150.8656  139.7603  157.2471 C   0  0  0  0  0  0  0  0  0  0  0  0
  151.5587  139.7442  155.8766 C   0  0  1  0  0  0  0  0  0  0  0  0
  152.8235  139.1390  156.0527 O   0  0  0  0  0  0  0  0  0  0  0  0
  150.7565  138.9424  154.8249 C   0  0  0  0  0  0  0  0  0  0  0  0
  149.3616  139.4023  154.7323 N   0  0  0  0  0  0  0  0  0  0  0  0
  148.3717  138.4553  155.0455 C   0  0  0  0  0  0  0  0  0  0  0  0
  147.1136  138.7503  155.0084 N   0  0  0  0  0  0  0  0  0  0  0  0
  146.7111  140.0406  154.6521 C   0  0  0  0  0  0  0  0  0  0  0  0
  145.2118  140.2795  154.6393 C   0  0  0  0  0  0  0  0  0  0  0  0
  147.6203  141.0050  154.3423 C   0  0  0  0  0  0  0  0  0  0  0  0
  147.2399  142.4266  153.9472 C   0  0  0  0  0  0  0  0  0  0  0  0
  149.0567  140.6854  154.3848 C   0  0  0  0  0  0  0  0  0  0  0  0
  149.9328  141.5125  154.1253 O   0  0  0  0  0  0  0  0  0  0  0  0
  152.7155  139.8843  159.4220 C   0  0  0  0  0  0  0  0  0  0  0  0
  155.0556  138.9936  161.7823 H   0  0  0  0  0  0  0  0  0  0  0  0
  154.8221  138.1660  160.2391 H   0  0  0  0  0  0  0  0  0  0  0  0
  153.5485  138.1290  161.4649 H   0  0  0  0  0  0  0  0  0  0  0  0
  154.8895  141.3729  161.6022 H   0  0  0  0  0  0  0  0  0  0  0  0
  153.8819  143.4015  160.6128 H   0  0  0  0  0  0  0  0  0  0  0  0
  150.8719  143.5859  158.8635 H   0  0  0  0  0  0  0  0  0  0  0  0
  152.1207  143.5990  157.6118 H   0  0  0  0  0  0  0  0  0  0  0  0
  152.3772  144.4705  159.1255 H   0  0  0  0  0  0  0  0  0  0  0  0
  151.2467  138.9451  157.8647 H   0  0  0  0  0  0  0  0  0  0  0  0
  149.7892  139.6244  157.1270 H   0  0  0  0  0  0  0  0  0  0  0  0
  151.7122  140.7743  155.5519 H   0  0  0  0  0  0  0  0  0  0  0  0
  152.8452  138.3349  155.5567 H   0  0  0  0  0  0  0  0  0  0  0  0
  151.2580  138.9614  153.8554 H   0  0  0  0  0  0  0  0  0  0  0  0
  150.7542  137.8835  155.0915 H   0  0  0  0  0  0  0  0  0  0  0  0
  148.7400  137.4662  155.3245 H   0  0  0  0  0  0  0  0  0  0  0  0
  144.8784  140.5596  153.6398 H   0  0  0  0  0  0  0  0  0  0  0  0
  144.9460  141.0778  155.3330 H   0  0  0  0  0  0  0  0  0  0  0  0
  144.6639  139.3839  154.9354 H   0  0  0  0  0  0  0  0  0  0  0  0
  147.6595  143.1384  154.6590 H   0  0  0  0  0  0  0  0  0  0  0  0
  146.1642  142.5907  153.9138 H   0  0  0  0  0  0  0  0  0  0  0  0
  147.6374  142.6615  152.9592 H   0  0  0  0  0  0  0  0  0  0  0  0
  152.4187  138.8935  159.1131 H   0  0  0  0  0  0  0  0  0  0  0  0
  1  2  1  0  0  0  0
  1 23  1  0  0  0  0
  1 24  1  0  0  0  0
  1 25  1  0  0  0  0
  2 22  1  0  0  0  0
  2  3  2  0  0  0  0
  3  4  1  0  0  0  0
  3 26  1  0  0  0  0
  4  5  2  0  0  0  0
  4 27  1  0  0  0  0
  5  6  1  0  0  0  0
  5  7  1  0  0  0  0
  6 28  1  0  0  0  0
  6 29  1  0  0  0  0
  6 30  1  0  0  0  0
  7  8  1  0  0  0  0
  7 22  2  0  0  0  0
  8  9  1  0  0  0  0
  9 10  1  0  0  0  0
  9 31  1  0  0  0  0
  9 32  1  0  0  0  0
 10 11  1  0  0  0  0
 10 12  1  0  0  0  0
 10 33  1  0  0  0  0
 11 34  1  0  0  0  0
 12 13  1  0  0  0  0
 12 35  1  0  0  0  0
 12 36  1  0  0  0  0
 13 20  1  0  0  0  0
 13 14  1  0  0  0  0
 14 15  2  0  0  0  0
 14 37  1  0  0  0  0
 15 16  1  0  0  0  0
 16 17  1  0  0  0  0
 16 18  2  0  0  0  0
 17 38  1  0  0  0  0
 17 39  1  0  0  0  0
 17 40  1  0  0  0  0
 18 19  1  0  0  0  0
 18 20  1  0  0  0  0
 19 41  1  0  0  0  0
 19 42  1  0  0  0  0
 19 43  1  0  0  0  0
 20 21  2  0  0  0  0
 22 44  1  0  0  0  0
M  END
> <s_m_source_file>
AV-unprocessed.smi

> <i_m_source_file_index>
2284

> <i_lp_mmshare_version>
43012

> <i_f3d_flags>
0

> <s_epik_input>
W0NIM11jMVtjSF1bY0hdYyhbQ0gzXSljKFtjSF0xKU9bQ0gyXVtDQEhdKFtPSF0pW0NIMl1uMltjSF1uYyhbQ0gzXSljKFtDSDNdKWMyPU8=

> <s_epik_cmdline>
J2VwaWtfcHl0aG9uJywgJy1waCcsICc3LjAnLCAnLXRuJywgJzgnLCAnLW1hJywgJzIwMCcsICctbWV0YWxfYmluZGluZycsICctaW1hZScsICc8aW5maWxlLm1hZT4nLCAnLW9tYWUnLCAnPG91dGZpbGUubWFlPic=

> <r_lp_tautomer_probability>
1

> <r_epik_Ionization_Penalty>
3.7476e-05

> <r_epik_Ionization_Penalty_Charging>
8.44705e-08

> <r_epik_Ionization_Penalty_Neutral>
3.73915e-05

> <r_epik_State_Penalty>
-0

> <r_epik_Charging_Adjusted_Penalty>
8.44705e-08

> <i_epik_Tot_Q>
0

> <i_epik_Tot_abs_Q>
0

> <r_epik_Metal_State_Penalty>
-0

> <b_epik_Metal_Only>
0

> <s_lp_Force_Field>
OPLS_2005

> <r_lp_Energy>
21.7941

> <b_lp_Chiralities_Consistent>
1

> <s_lp_Variant>
AV-unprocessed.smi:2284-2

> <Gold.Version>
5.8.1

> <Gold.Id.Protein>
6NUR|6NUR_protein|mol2

> <Gold.PLP.Fitness>
44.9896

> <Gold.PLP.PLP>
-40.3974

> <Gold.PLP.part.hbond>
-2.8079

> <Gold.PLP.part.metal>
0.0000

> <Gold.PLP.part.buried>
-2.8972

> <Gold.PLP.part.nonpolar>
-35.2546

> <Gold.PLP.part.repulsive>
0.8575

> <Gold.PLP.ligand.clash>
0.0000

> <Gold.PLP.ligand.torsion>
0.8592

> <Gold.PLP.Chemscore.Hbond>
2.0840

> <Gold.PLP.Chemscore.CHOScore>
0.0000

> <Gold.PLP.Chemscore.Metal>
0.0000

> <Gold.Chemscore.Hbonds>
donor molecule, donor type, donor heavy atom, donor atom, acceptor molecule, acceptor atom, score
      P1  H  7989  7998       L1    21  0.24
      P1  H  7997  8009       L1    11  1.00
      P1  H  8011  8017       L1    21  0.58

> <Gold.PLP.Chemscore.Internal.Correction>
0.0585

> <Gold.Rescore>
     Score         DG    S(hbond)    S(metal)    S(lipo)     H(rot)  DE(clash)    DE(int)     intcor
     15.71     -18.29       1.86        0.00     107.34       2.32       0.80       1.78       ----

> <Gold.Chemscore.Fitness>
15.7108

> <Gold.Chemscore.DG>
-18.2865

> <Gold.Chemscore.ZeroCoef>
-5.4800

> <Gold.Chemscore.Hbond>
1.8553

> <Gold.Chemscore.Metal>
0.0000

> <Gold.Chemscore.Lipo>
107.3355

> <Gold.Chemscore.Internal_Hbond>
0.0000

> <Gold.Chemscore.DEClash>
0.8006

> <Gold.Chemscore.DEInternal>
1.7751

> <Gold.Chemscore.Rot>
2.3236

> <Gold.Chemscore.Internal.Correction>
   9.000000E+99

> <Gold.Chemscore.Hbonds>
donor molecule, donor type, donor heavy atom, donor atom, acceptor molecule, acceptor atom, score
      P1  H  7989  7998       L1    21  0.24
      P1  H  7997  8009       L1    11  0.98
      P1  H  8011  8017       L1    21  0.53

> <Gold.Chemscore.Hbond.Weighted>
-6.1966

> <Gold.Chemscore.Metal.Weighted>
-0.0000

> <Gold.Chemscore.Lipo.Weighted>
-12.5583

> <Gold.Chemscore.Internal_Hbond.Weighted>
0.0000

> <Gold.Chemscore.DEClash.Weighted>
0.8006

> <Gold.Chemscore.DEInternal.Weighted>
1.7751

> <Gold.Chemscore.Rot.Weighted>
5.9484

> <Gold.Chemscore.Internal.Correction.Weighted>
   9.000000E+99

> <Gold.Protein.RotatedTorsions>
[ 6907 6896 6895 6894 ] final  -21.65 input  -60.11 | X-H torsion
[ 7974 7965 7964 7962 ] final   -4.41 input  175.53 | X-H torsion
[ 8008 7997 7996 7995 ] final -175.17 input   59.86 | X-H torsion
[ 10167 10162 10161 10158 ] final  140.99 input  -65.29 | X-H torsion
[ 10718 10713 10712 10709 ] final  158.06 input   66.30 | X-H torsion
[ 10763 10752 10751 10750 ] final  -43.91 input  -60.55 | X-H torsion
[ 11005 11000 10999 10996 ] final  -71.63 input  -57.11 | X-H torsion

> <Gold.Protein.ActiveResidues>
 VAL166  LYS551  ARG553  GLY616  TRP617  ASP618  TYR619  PRO620  LYS621  CYS622 
 ASP623  PHE694  ASN695  SER759  ASP760  ASP761  ALA762  ILE779  LEU786  VAL792 
 PHE793  MET794  SER795  GLU796  ALA797  LYS798  CYS799  TRP800  GLU811  SER814 

> <Gold.Protein.RotatedAtoms>
  151.2303  135.0552  159.8984 H   0  0  0  0  0  0  0  0  0  0  0  0  # atno 6907 bound_to 6896
  152.5405  134.0545  159.8135 H   0  0  0  0  0  0  0  0  0  0  0  0  # atno 6908 bound_to 6896
  151.0723  133.5407  159.2658 H   0  0  0  0  0  0  0  0  0  0  0  0  # atno 6909 bound_to 6896
  146.2373  140.1867  142.8332 H   0  0  0  0  0  0  0  0  0  0  0  0  # atno 7974 bound_to 7965
  155.9792  140.1178  157.0742 H   0  0  0  0  0  0  0  0  0  0  0  0  # atno 8008 bound_to 7997
  154.4178  140.1148  156.5480 H   0  0  0  0  0  0  0  0  0  0  0  0  # atno 8009 bound_to 7997
  155.6493  140.3473  155.4745 H   0  0  0  0  0  0  0  0  0  0  0  0  # atno 8010 bound_to 7997
  139.5033  144.6199  151.6075 H   0  0  0  0  0  0  0  0  0  0  0  0  # atno 10167 bound_to 10162
  157.1830  131.0637  151.2121 H   0  0  0  0  0  0  0  0  0  0  0  0  # atno 10718 bound_to 10713
  154.0033  135.6691  153.4760 H   0  0  0  0  0  0  0  0  0  0  0  0  # atno 10763 bound_to 10752
  153.0653  135.5004  154.8181 H   0  0  0  0  0  0  0  0  0  0  0  0  # atno 10764 bound_to 10752
  154.7040  135.3084  154.9262 H   0  0  0  0  0  0  0  0  0  0  0  0  # atno 10765 bound_to 10752
  141.1595  133.6823  156.6936 H   0  0  0  0  0  0  0  0  0  0  0  0  # atno 11005 bound_to 11000
  144.9891  140.8530  143.5350 LP  0  0  0  0  0  0  0  0  0  0  0  0  # atno 17320 bound_to 7965
  145.1870  139.2321  143.5262 LP  0  0  0  0  0  0  0  0  0  0  0  0  # atno 17321 bound_to 7965
  140.5899  143.9799  150.6318 LP  0  0  0  0  0  0  0  0  0  0  0  0  # atno 17342 bound_to 10162
  140.2975  143.3282  152.1003 LP  0  0  0  0  0  0  0  0  0  0  0  0  # atno 17343 bound_to 10162
  157.3934  130.7294  149.6714 LP  0  0  0  0  0  0  0  0  0  0  0  0  # atno 17370 bound_to 10713
  155.9722  130.4140  150.4111 LP  0  0  0  0  0  0  0  0  0  0  0  0  # atno 17371 bound_to 10713
  140.3012  134.8162  157.4099 LP  0  0  0  0  0  0  0  0  0  0  0  0  # atno 17394 bound_to 11000
  140.1260  134.5157  155.8144 LP  0  0  0  0  0  0  0  0  0  0  0  0  # atno 17395 bound_to 11000

$$$$
