AV-unprocessed.smi:109|AV-procd|sdf|1045|dock3
  -GOLD-   2262018 83D 1   1.00000     0.00000
 Structure written by MMmdl.
 58 61  0  0  0  0  0  0  0  0  1 V2000
  150.4350  140.0323  153.9257 O   0  0  0  0  0  0  0  0  0  0  0  0
  149.6789  140.3761  155.0666 C   0  0  0  0  0  0  0  0  0  0  0  0
  150.5561  141.1589  156.0588 C   0  0  0  0  0  0  0  0  0  0  0  0
  149.8238  141.5886  157.3541 C   0  0  2  0  0  0  0  0  0  0  0  0
  148.6220  142.3509  157.0062 N   0  0  0  0  0  0  0  0  0  0  0  0
  147.3826  141.9602  157.3795 C   0  0  0  0  0  0  0  0  0  0  0  0
  146.3599  142.8475  157.4924 N   0  0  0  0  0  0  0  0  0  0  0  0
  145.1480  142.4294  157.8703 C   0  0  0  0  0  0  0  0  0  0  0  0
  144.7490  141.1925  158.1756 N   0  0  0  0  0  0  0  0  0  0  0  0
  145.7731  140.2986  158.0601 C   0  0  0  0  0  0  0  0  0  0  0  0
  147.1079  140.5996  157.6724 C   0  0  0  0  0  0  0  0  0  0  0  0
  147.8708  139.4384  157.6718 N   0  0  0  0  0  0  0  0  0  0  0  0
  147.0299  138.5077  158.0375 C   0  0  0  0  0  0  0  0  0  0  0  0
  145.7464  138.9417  158.2908 N   0  0  0  0  0  0  0  0  0  0  0  0
  144.5575  138.1499  158.7298 C   0  0  1  0  0  0  0  0  0  0  0  0
  144.4364  137.0565  157.8826 O   0  0  0  0  0  0  0  0  0  0  0  0
  143.7152  136.0510  158.5745 C   0  0  1  0  0  0  0  0  0  0  0  0
  143.9152  134.6935  157.8840 C   0  0  0  0  0  0  0  0  0  0  0  0
  143.1103  133.7140  158.5039 O   0  0  0  0  0  0  0  0  0  0  0  0
  144.3168  136.1173  159.9850 C   0  0  2  0  0  0  0  0  0  0  0  0
  143.3519  135.7276  160.9421 O   0  0  0  0  0  0  0  0  0  0  0  0
  144.6903  137.5902  160.1623 C   0  0  1  0  0  0  0  0  0  0  0  0
  145.9867  137.7204  160.7196 O   0  0  0  0  0  0  0  0  0  0  0  0
  150.7063  142.4326  158.3184 C   0  0  0  0  0  0  0  0  0  0  0  0
  151.2492  143.7333  157.6746 C   0  0  0  0  0  0  0  0  0  0  0  0
  152.1526  144.5302  158.6304 C   0  0  0  0  0  0  0  0  0  0  0  0
  153.3171  143.6765  159.1460 C   0  0  0  0  0  0  0  0  0  0  0  0
  152.7943  142.3988  159.8129 C   0  0  0  0  0  0  0  0  0  0  0  0
  151.8994  141.5990  158.8536 C   0  0  0  0  0  0  0  0  0  0  0  0
  143.7002  138.8137  158.6067 H   0  0  0  0  0  0  0  0  0  0  0  0
  142.6589  136.3286  158.6032 H   0  0  0  0  0  0  0  0  0  0  0  0
  145.1995  135.4789  160.0525 H   0  0  0  0  0  0  0  0  0  0  0  0
  143.9778  138.1213  160.7955 H   0  0  0  0  0  0  0  0  0  0  0  0
  149.8701  140.0660  153.1691 H   0  0  0  0  0  0  0  0  0  0  0  0
  148.8201  140.9657  154.7461 H   0  0  0  0  0  0  0  0  0  0  0  0
  149.2984  139.4638  155.5269 H   0  0  0  0  0  0  0  0  0  0  0  0
  151.3965  140.5132  156.3074 H   0  0  0  0  0  0  0  0  0  0  0  0
  150.9768  142.0364  155.5655 H   0  0  0  0  0  0  0  0  0  0  0  0
  149.5588  140.6812  157.8965 H   0  0  0  0  0  0  0  0  0  0  0  0
  148.7849  143.1906  156.4690 H   0  0  0  0  0  0  0  0  0  0  0  0
  144.3901  143.1959  157.9374 H   0  0  0  0  0  0  0  0  0  0  0  0
  147.3262  137.4735  158.1368 H   0  0  0  0  0  0  0  0  0  0  0  0
  143.6917  134.7525  156.8183 H   0  0  0  0  0  0  0  0  0  0  0  0
  144.9525  134.3721  157.9812 H   0  0  0  0  0  0  0  0  0  0  0  0
  142.3916  133.5047  157.9270 H   0  0  0  0  0  0  0  0  0  0  0  0
  143.5784  134.8694  161.2668 H   0  0  0  0  0  0  0  0  0  0  0  0
  146.2317  136.8927  161.1038 H   0  0  0  0  0  0  0  0  0  0  0  0
  150.0895  142.7214  159.1713 H   0  0  0  0  0  0  0  0  0  0  0  0
  151.8022  143.4922  156.7658 H   0  0  0  0  0  0  0  0  0  0  0  0
  150.4328  144.3900  157.3783 H   0  0  0  0  0  0  0  0  0  0  0  0
  152.5381  145.4155  158.1243 H   0  0  0  0  0  0  0  0  0  0  0  0
  151.5626  144.8901  159.4742 H   0  0  0  0  0  0  0  0  0  0  0  0
  153.9775  143.4166  158.3178 H   0  0  0  0  0  0  0  0  0  0  0  0
  153.9161  144.2496  159.8544 H   0  0  0  0  0  0  0  0  0  0  0  0
  153.6321  141.7821  160.1397 H   0  0  0  0  0  0  0  0  0  0  0  0
  152.2308  142.6561  160.7107 H   0  0  0  0  0  0  0  0  0  0  0  0
  151.5470  140.7102  159.3769 H   0  0  0  0  0  0  0  0  0  0  0  0
  152.4986  141.2397  158.0156 H   0  0  0  0  0  0  0  0  0  0  0  0
  1  2  1  0  0  0  0
  1 34  1  0  0  0  0
  2  3  1  0  0  0  0
  2 35  1  0  0  0  0
  2 36  1  0  0  0  0
  3  4  1  0  0  0  0
  3 37  1  0  0  0  0
  3 38  1  0  0  0  0
  4  5  1  0  0  0  0
  4 24  1  0  0  0  0
  4 39  1  0  0  0  0
  5  6  1  0  0  0  0
  5 40  1  0  0  0  0
  6 11  1  0  0  0  0
  6  7  2  0  0  0  0
  7  8  1  0  0  0  0
  8  9  2  0  0  0  0
  8 41  1  0  0  0  0
  9 10  1  0  0  0  0
 10 14  1  0  0  0  0
 10 11  2  0  0  0  0
 11 12  1  0  0  0  0
 12 13  2  0  0  0  0
 13 14  1  0  0  0  0
 13 42  1  0  0  0  0
 14 15  1  0  0  0  0
 15 30  1  0  0  0  0
 15 22  1  0  0  0  0
 15 16  1  0  0  0  0
 16 17  1  0  0  0  0
 17 31  1  0  0  0  0
 17 18  1  0  0  0  0
 17 20  1  0  0  0  0
 18 19  1  0  0  0  0
 18 43  1  0  0  0  0
 18 44  1  0  0  0  0
 19 45  1  0  0  0  0
 20 32  1  0  0  0  0
 20 21  1  0  0  0  0
 20 22  1  0  0  0  0
 21 46  1  0  0  0  0
 22 33  1  0  0  0  0
 22 23  1  0  0  0  0
 23 47  1  0  0  0  0
 24 29  1  0  0  0  0
 24 25  1  0  0  0  0
 24 48  1  0  0  0  0
 25 26  1  0  0  0  0
 25 49  1  0  0  0  0
 25 50  1  0  0  0  0
 26 27  1  0  0  0  0
 26 51  1  0  0  0  0
 26 52  1  0  0  0  0
 27 28  1  0  0  0  0
 27 53  1  0  0  0  0
 27 54  1  0  0  0  0
 28 29  1  0  0  0  0
 28 55  1  0  0  0  0
 28 56  1  0  0  0  0
 29 57  1  0  0  0  0
 29 58  1  0  0  0  0
M  END
> <s_m_source_file>
AV-unprocessed.smi

> <i_m_source_file_index>
109

> <i_lp_mmshare_version>
43012

> <i_f3d_flags>
0

> <s_epik_input>
W0NIMl0xW0NIMl1bQ0gyXVtDSDJdW0NIMl1bQ0hdMVtDQEhdKFtDSDJdW0NIMl1bT0hdKVtOSF1jKG5bY0hdbjIpYyhjMjMpbltjSF1uM1tDQEBIXTRPW0NASF0oW0NIMl1bT0hdKVtDQEBIXShbT0hdKVtDQEhdNFtPSF0=

> <s_epik_cmdline>
J2VwaWtfcHl0aG9uJywgJy1waCcsICc3LjAnLCAnLXRuJywgJzgnLCAnLW1hJywgJzIwMCcsICctbWV0YWxfYmluZGluZycsICctaW1hZScsICc8aW5maWxlLm1hZT4nLCAnLW9tYWUnLCAnPG91dGZpbGUubWFlPic=

> <r_lp_tautomer_probability>
1

> <r_epik_Ionization_Penalty>
0.000793976

> <r_epik_Ionization_Penalty_Charging>
0

> <r_epik_Ionization_Penalty_Neutral>
0.000793976

> <r_epik_State_Penalty>
-0

> <r_epik_Charging_Adjusted_Penalty>
0

> <i_epik_Tot_Q>
0

> <i_epik_Tot_abs_Q>
0

> <r_epik_Metal_State_Penalty>
-0

> <b_epik_Metal_Only>
0

> <s_epik_Chemistry_Notes>
This compound contains an acetal/aminal-like group ( X-CH(R)-Y where X, Y are N, S, or O) that may be acid/base labile, releasing an aldehyde.

> <s_lp_Force_Field>
OPLS_2005

> <r_lp_Energy>
53.6553

> <b_lp_Chiralities_Consistent>
1

> <s_lp_Variant>
AV-unprocessed.smi:109-15

> <Gold.Version>
5.8.1

> <Gold.Id.Protein>
6NUR|6NUR_protein|mol2

> <Gold.PLP.Fitness>
50.2508

> <Gold.PLP.PLP>
-36.1628

> <Gold.PLP.part.hbond>
-4.8869

> <Gold.PLP.part.metal>
0.0000

> <Gold.PLP.part.buried>
-4.9146

> <Gold.PLP.part.nonpolar>
-27.0225

> <Gold.PLP.part.repulsive>
0.1890

> <Gold.PLP.ligand.clash>
0.5441

> <Gold.PLP.ligand.torsion>
0.3518

> <Gold.PLP.Chemscore.Hbond>
4.9760

> <Gold.PLP.Chemscore.CHOScore>
0.0000

> <Gold.PLP.Chemscore.Metal>
0.0000

> <Gold.Chemscore.Hbonds>
donor molecule, donor type, donor heavy atom, donor atom, acceptor molecule, acceptor atom, score
      L1  H     1    34       P1  7957  0.99
      L1  H     5    40       P1  8028  1.00
      L1  H    19    45       P1 11000  0.03
      P1  H  6934  6947       L1    23  1.00
      P1  H  7989  7998       L1     1  0.96

> <Gold.PLP.Chemscore.Internal.Correction>
0.4078

> <Gold.Rescore>
     Score         DG    S(hbond)    S(metal)    S(lipo)     H(rot)  DE(clash)    DE(int)     intcor
     12.67     -15.40       4.15        0.00      85.85       5.47       0.00       2.73       ----

> <Gold.Chemscore.Fitness>
12.6682

> <Gold.Chemscore.DG>
-15.3968

> <Gold.Chemscore.ZeroCoef>
-5.4800

> <Gold.Chemscore.Hbond>
4.1514

> <Gold.Chemscore.Metal>
0.0000

> <Gold.Chemscore.Lipo>
85.8523

> <Gold.Chemscore.Internal_Hbond>
0.0000

> <Gold.Chemscore.DEClash>
0.0033

> <Gold.Chemscore.DEInternal>
2.7252

> <Gold.Chemscore.Rot>
5.4662

> <Gold.Chemscore.Internal.Correction>
   9.000000E+99

> <Gold.Chemscore.Hbonds>
donor molecule, donor type, donor heavy atom, donor atom, acceptor molecule, acceptor atom, score
      L1  H     1    34       P1  7957  0.89
      L1  H     5    40       P1  8028  0.94
      L1  H    19    45       P1 11000  0.05
      P1  H  6934  6947       L1    23  0.92
      P1  H  7989  7998       L1     1  0.29

> <Gold.Chemscore.Hbond.Weighted>
-13.8656

> <Gold.Chemscore.Metal.Weighted>
-0.0000

> <Gold.Chemscore.Lipo.Weighted>
-10.0447

> <Gold.Chemscore.Internal_Hbond.Weighted>
0.0000

> <Gold.Chemscore.DEClash.Weighted>
0.0033

> <Gold.Chemscore.DEInternal.Weighted>
2.7252

> <Gold.Chemscore.Rot.Weighted>
13.9935

> <Gold.Chemscore.Internal.Correction.Weighted>
   9.000000E+99

> <Gold.Protein.RotatedTorsions>
[ 6907 6896 6895 6894 ] final  -24.81 input  -60.11 | X-H torsion
[ 7974 7965 7964 7962 ] final  -62.88 input  175.53 | X-H torsion
[ 8008 7997 7996 7995 ] final   95.89 input   59.86 | X-H torsion
[ 10167 10162 10161 10158 ] final   43.01 input  -65.29 | X-H torsion
[ 10718 10713 10712 10709 ] final  -84.21 input   66.30 | X-H torsion
[ 10763 10752 10751 10750 ] final  150.02 input  -60.55 | X-H torsion
[ 11005 11000 10999 10996 ] final  127.79 input  -57.11 | X-H torsion

> <Gold.Protein.ActiveResidues>
 VAL166  LYS551  ARG553  GLY616  TRP617  ASP618  TYR619  PRO620  LYS621  CYS622 
 ASP623  PHE694  ASN695  SER759  ASP760  ASP761  ALA762  ILE779  LEU786  VAL792 
 PHE793  MET794  SER795  GLU796  ALA797  LYS798  CYS799  TRP800  GLU811  SER814 

> <Gold.Protein.RotatedAtoms>
  151.1841  135.0374  159.8804 H   0  0  0  0  0  0  0  0  0  0  0  0  # atno 6907 bound_to 6896
  152.5443  134.1029  159.8336 H   0  0  0  0  0  0  0  0  0  0  0  0  # atno 6908 bound_to 6896
  151.1150  133.5098  159.2636 H   0  0  0  0  0  0  0  0  0  0  0  0  # atno 6909 bound_to 6896
  145.7859  140.8736  143.0306 H   0  0  0  0  0  0  0  0  0  0  0  0  # atno 7974 bound_to 7965
  156.0738  140.3280  155.7608 H   0  0  0  0  0  0  0  0  0  0  0  0  # atno 8008 bound_to 7997
  155.5263  140.0589  157.2914 H   0  0  0  0  0  0  0  0  0  0  0  0  # atno 8009 bound_to 7997
  154.4544  140.1935  156.0440 H   0  0  0  0  0  0  0  0  0  0  0  0  # atno 8010 bound_to 7997
  140.3487  144.2378  150.6148 H   0  0  0  0  0  0  0  0  0  0  0  0  # atno 10167 bound_to 10162
  156.0009  130.4690  150.4375 H   0  0  0  0  0  0  0  0  0  0  0  0  # atno 10718 bound_to 10713
  154.0807  135.2859  155.3291 H   0  0  0  0  0  0  0  0  0  0  0  0  # atno 10763 bound_to 10752
  154.6685  135.5308  153.8112 H   0  0  0  0  0  0  0  0  0  0  0  0  # atno 10764 bound_to 10752
  153.0450  135.6552  154.0982 H   0  0  0  0  0  0  0  0  0  0  0  0  # atno 10765 bound_to 10752
  139.9526  134.9619  156.8907 H   0  0  0  0  0  0  0  0  0  0  0  0  # atno 11005 bound_to 11000
  144.6789  140.0054  143.7484 LP  0  0  0  0  0  0  0  0  0  0  0  0  # atno 17320 bound_to 7965
  146.0027  139.3104  143.0918 LP  0  0  0  0  0  0  0  0  0  0  0  0  # atno 17321 bound_to 7965
  140.5240  143.2259  151.8344 LP  0  0  0  0  0  0  0  0  0  0  0  0  # atno 17342 bound_to 10162
  139.4829  144.4802  151.9316 LP  0  0  0  0  0  0  0  0  0  0  0  0  # atno 17343 bound_to 10162
  157.2418  131.0527  151.2432 LP  0  0  0  0  0  0  0  0  0  0  0  0  # atno 17370 bound_to 10713
  157.3612  130.7132  149.6503 LP  0  0  0  0  0  0  0  0  0  0  0  0  # atno 17371 bound_to 10713
  140.5683  134.0468  155.7422 LP  0  0  0  0  0  0  0  0  0  0  0  0  # atno 17394 bound_to 11000
  141.1192  133.9490  157.2763 LP  0  0  0  0  0  0  0  0  0  0  0  0  # atno 17395 bound_to 11000

$$$$
