AV-unprocessed.smi:35|AV-procd|sdf|251|dock6
  -GOLD-   2262016 13D 1   1.00000     0.00000
 Structure written by MMmdl.
 29 30  0  0  0  0  0  0  0  0  1 V2000
  140.5115  135.0105  153.7892 O   0  0  0  0  0  0  0  0  0  0  0  0
  141.6354  135.3856  153.4631 C   0  0  0  0  0  0  0  0  0  0  0  0
  142.6831  134.4672  153.3569 N   0  0  0  0  0  0  0  0  0  0  0  0
  143.9952  134.7733  152.9911 C   0  0  0  0  0  0  0  0  0  0  0  0
  144.8453  133.8843  152.9529 O   0  0  0  0  0  0  0  0  0  0  0  0
  144.2866  136.1207  152.6766 N   0  0  0  0  0  0  0  0  0  0  0  0
  145.7158  136.4764  152.3010 C   0  0  2  0  0  0  0  0  0  0  0  0
  146.5215  136.4797  153.4397 O   0  0  0  0  0  0  0  0  0  0  0  0
  146.5832  137.7964  153.9719 C   0  0  1  0  0  0  0  0  0  0  0  0
  147.7906  137.9244  154.9114 C   0  0  0  0  0  0  0  0  0  0  0  0
  148.9806  137.6467  154.2049 O   0  0  0  0  0  0  0  0  0  0  0  0
  146.6966  138.6414  152.7025 C   0  0  2  0  0  0  0  0  0  0  0  0
  146.2093  139.9479  152.9360 O   0  0  0  0  0  0  0  0  0  0  0  0
  145.8058  137.9020  151.7061 C   0  0  1  0  0  0  0  0  0  0  0  0
  146.4020  137.8997  150.4247 O   0  0  0  0  0  0  0  0  0  0  0  0
  143.2815  137.0746  152.8053 C   0  0  0  0  0  0  0  0  0  0  0  0
  142.0151  136.7621  153.1676 C   0  0  0  0  0  0  0  0  0  0  0  0
  140.7321  138.2669  153.2888 Br  0  0  0  0  0  0  0  0  0  0  0  0
  142.4747  133.5024  153.5696 H   0  0  0  0  0  0  0  0  0  0  0  0
  146.0338  135.6778  151.6273 H   0  0  0  0  0  0  0  0  0  0  0  0
  145.6535  138.0354  154.4924 H   0  0  0  0  0  0  0  0  0  0  0  0
  147.8388  138.9151  155.3645 H   0  0  0  0  0  0  0  0  0  0  0  0
  147.7140  137.1993  155.7221 H   0  0  0  0  0  0  0  0  0  0  0  0
  148.7524  137.2719  153.3679 H   0  0  0  0  0  0  0  0  0  0  0  0
  147.7325  138.6724  152.3598 H   0  0  0  0  0  0  0  0  0  0  0  0
  145.2814  139.9566  152.7561 H   0  0  0  0  0  0  0  0  0  0  0  0
  144.8136  138.3534  151.6536 H   0  0  0  0  0  0  0  0  0  0  0  0
  145.8176  138.3371  149.8239 H   0  0  0  0  0  0  0  0  0  0  0  0
  143.4908  138.1172  152.6209 H   0  0  0  0  0  0  0  0  0  0  0  0
  1  2  2  0  0  0  0
  2 17  1  0  0  0  0
  2  3  1  0  0  0  0
  3 19  1  0  0  0  0
  3  4  1  0  0  0  0
  4  5  2  0  0  0  0
  4  6  1  0  0  0  0
  6  7  1  0  0  0  0
  6 16  1  0  0  0  0
  7 14  1  0  0  0  0
  7  8  1  0  0  0  0
  7 20  1  0  0  0  0
  8  9  1  0  0  0  0
  9 10  1  0  0  0  0
  9 12  1  0  0  0  0
  9 21  1  0  0  0  0
 10 11  1  0  0  0  0
 10 22  1  0  0  0  0
 10 23  1  0  0  0  0
 11 24  1  0  0  0  0
 12 13  1  0  0  0  0
 12 14  1  0  0  0  0
 12 25  1  0  0  0  0
 13 26  1  0  0  0  0
 14 15  1  0  0  0  0
 14 27  1  0  0  0  0
 15 28  1  0  0  0  0
 16 17  2  0  0  0  0
 16 29  1  0  0  0  0
 17 18  1  0  0  0  0
M  END
> <s_m_source_file>
AV-unprocessed.smi

> <i_m_source_file_index>
35

> <i_lp_mmshare_version>
43012

> <i_f3d_flags>
0

> <s_epik_input>
Tz1jMVtuSF1jKD1PKW4oW2NIXWMxQnIpW0NAQEhdMk9bQ0BASF0oW0NIMl1bT0hdKVtDQEBIXShbT0hdKVtDQEhdMltPSF0=

> <s_epik_cmdline>
J2VwaWtfcHl0aG9uJywgJy1waCcsICc3LjAnLCAnLXRuJywgJzgnLCAnLW1hJywgJzIwMCcsICctbWV0YWxfYmluZGluZycsICctaW1hZScsICc8aW5maWxlLm1hZT4nLCAnLW9tYWUnLCAnPG91dGZpbGUubWFlPic=

> <r_lp_tautomer_probability>
0.999537

> <r_epik_Ionization_Penalty>
0.10812

> <r_epik_Ionization_Penalty_Charging>
0.108119

> <r_epik_Ionization_Penalty_Neutral>
4.93006e-07

> <r_epik_State_Penalty>
0.0979238

> <r_epik_Charging_Adjusted_Penalty>
0.206043

> <i_epik_Tot_Q>
0

> <i_epik_Tot_abs_Q>
0

> <r_epik_Metal_State_Penalty>
3.07911

> <b_epik_Metal_Only>
0

> <s_epik_Chemistry_Notes>
This compound contains an acetal/aminal-like group ( X-CH(R)-Y where X, Y are N, S, or O) that may be acid/base labile, releasing an aldehyde.

> <s_lp_Force_Field>
OPLS_2005

> <r_lp_Energy>
25.602

> <b_lp_Chiralities_Consistent>
1

> <s_lp_Variant>
AV-unprocessed.smi:35-5

> <Gold.Version>
5.8.1

> <Gold.Id.Protein>
6NUR|6NUR_protein|mol2

> <Gold.PLP.Fitness>
47.8909

> <Gold.PLP.PLP>
-28.2679

> <Gold.PLP.part.hbond>
-7.5187

> <Gold.PLP.part.metal>
0.0000

> <Gold.PLP.part.buried>
-4.1873

> <Gold.PLP.part.nonpolar>
-18.5963

> <Gold.PLP.part.repulsive>
1.4417

> <Gold.PLP.ligand.clash>
0.0000

> <Gold.PLP.ligand.torsion>
0.3922

> <Gold.PLP.Chemscore.Hbond>
5.5897

> <Gold.PLP.Chemscore.CHOScore>
1.2009

> <Gold.PLP.Chemscore.Metal>
0.0000

> <Gold.Chemscore.Hbonds>
donor molecule, donor type, donor heavy atom, donor atom, acceptor molecule, acceptor atom, score
      L1  H     3    19       P1 10957  0.78
      L1  H    11    24       P1  7948  1.00
      L1  H    13    26       P1 10175  1.00
      L1  H    15    28       P1 10171  0.69
      P1  H  7954  7966       L1    15  0.88
      P1  H 11000 11005       L1     1  0.88
      L1  C    16    29       P1 10171  0.12
      L1  C    16    29       P1 10175  1.00

> <Gold.PLP.Chemscore.Internal.Correction>
0.0359

> <Gold.Rescore>
     Score         DG    S(hbond)    S(metal)    S(lipo)     H(rot)  DE(clash)    DE(int)     intcor
     14.40     -17.94       5.18        0.00      38.94       3.67       3.09       0.44       ----

> <Gold.Chemscore.Fitness>
14.4048

> <Gold.Chemscore.DG>
-17.9355

> <Gold.Chemscore.ZeroCoef>
-5.4800

> <Gold.Chemscore.Hbond>
5.1782

> <Gold.Chemscore.Metal>
0.0000

> <Gold.Chemscore.Lipo>
38.9382

> <Gold.Chemscore.Internal_Hbond>
0.0000

> <Gold.Chemscore.DEClash>
3.0882

> <Gold.Chemscore.DEInternal>
0.4424

> <Gold.Chemscore.Rot>
3.6701

> <Gold.Chemscore.Internal.Correction>
   9.000000E+99

> <Gold.Chemscore.Hbonds>
donor molecule, donor type, donor heavy atom, donor atom, acceptor molecule, acceptor atom, score
      L1  H     3    19       P1 10957  0.74
      L1  H    11    24       P1  7948  0.99
      L1  H    13    26       P1 10175  1.00
      L1  H    15    28       P1 10171  0.68
      P1  H  7954  7966       L1    15  0.76
      P1  H 11000 11005       L1     1  0.83

> <Gold.Chemscore.Hbond.Weighted>
-17.2952

> <Gold.Chemscore.Metal.Weighted>
-0.0000

> <Gold.Chemscore.Lipo.Weighted>
-4.5558

> <Gold.Chemscore.Internal_Hbond.Weighted>
0.0000

> <Gold.Chemscore.DEClash.Weighted>
3.0882

> <Gold.Chemscore.DEInternal.Weighted>
0.4424

> <Gold.Chemscore.Rot.Weighted>
9.3955

> <Gold.Chemscore.Internal.Correction.Weighted>
   9.000000E+99

> <Gold.Protein.RotatedTorsions>
[ 6907 6896 6895 6894 ] final  -63.18 input  -60.11 | X-H torsion
[ 7974 7965 7964 7962 ] final  -61.26 input  175.53 | X-H torsion
[ 8008 7997 7996 7995 ] final  -76.33 input   59.86 | X-H torsion
[ 10167 10162 10161 10158 ] final -103.93 input  -65.29 | X-H torsion
[ 10718 10713 10712 10709 ] final -147.29 input   66.30 | X-H torsion
[ 10763 10752 10751 10750 ] final -133.44 input  -60.55 | X-H torsion
[ 11005 11000 10999 10996 ] final   42.76 input  -57.11 | X-H torsion

> <Gold.Protein.ActiveResidues>
 VAL166  LYS551  ARG553  GLY616  TRP617  ASP618  TYR619  PRO620  LYS621  CYS622 
 ASP623  PHE694  ASN695  SER759  ASP760  ASP761  ALA762  ILE779  LEU786  VAL792 
 PHE793  MET794  SER795  GLU796  ALA797  LYS798  CYS799  TRP800  GLU811  SER814 

> <Gold.Protein.RotatedAtoms>
  150.7666  134.6470  159.6267 H   0  0  0  0  0  0  0  0  0  0  0  0  # atno 6907 bound_to 6896
  152.3700  134.6744  160.0188 H   0  0  0  0  0  0  0  0  0  0  0  0  # atno 6908 bound_to 6896
  151.7107  133.3276  159.3326 H   0  0  0  0  0  0  0  0  0  0  0  0  # atno 6909 bound_to 6896
  145.8056  140.8629  143.0209 H   0  0  0  0  0  0  0  0  0  0  0  0  # atno 7974 bound_to 7965
  154.5495  140.0729  156.8644 H   0  0  0  0  0  0  0  0  0  0  0  0  # atno 8008 bound_to 7997
  155.3021  140.3385  155.4229 H   0  0  0  0  0  0  0  0  0  0  0  0  # atno 8009 bound_to 7997
  156.1948  140.1699  156.8005 H   0  0  0  0  0  0  0  0  0  0  0  0  # atno 8010 bound_to 7997
  140.2147  143.3720  152.1020 H   0  0  0  0  0  0  0  0  0  0  0  0  # atno 10167 bound_to 10162
  156.4057  130.7956  151.2170 H   0  0  0  0  0  0  0  0  0  0  0  0  # atno 10718 bound_to 10713
  154.8732  135.3766  154.4573 H   0  0  0  0  0  0  0  0  0  0  0  0  # atno 10763 bound_to 10752
  153.5244  135.7028  153.5720 H   0  0  0  0  0  0  0  0  0  0  0  0  # atno 10764 bound_to 10752
  153.3952  135.3962  155.1916 H   0  0  0  0  0  0  0  0  0  0  0  0  # atno 10765 bound_to 10752
  140.1709  134.4224  155.8258 H   0  0  0  0  0  0  0  0  0  0  0  0  # atno 11005 bound_to 11000
  144.6763  140.0321  143.7482 LP  0  0  0  0  0  0  0  0  0  0  0  0  # atno 17320 bound_to 7965
  145.9832  139.2957  143.1029 LP  0  0  0  0  0  0  0  0  0  0  0  0  # atno 17321 bound_to 7965
  139.5166  144.6980  151.5575 LP  0  0  0  0  0  0  0  0  0  0  0  0  # atno 17342 bound_to 10162
  140.6298  143.9098  150.6595 LP  0  0  0  0  0  0  0  0  0  0  0  0  # atno 17343 bound_to 10162
  157.7505  131.0273  150.4000 LP  0  0  0  0  0  0  0  0  0  0  0  0  # atno 17370 bound_to 10713
  156.4288  130.3968  149.6774 LP  0  0  0  0  0  0  0  0  0  0  0  0  # atno 17371 bound_to 10713
  141.2217  133.6955  156.7761 LP  0  0  0  0  0  0  0  0  0  0  0  0  # atno 17394 bound_to 11000
  140.2379  134.8636  157.3543 LP  0  0  0  0  0  0  0  0  0  0  0  0  # atno 17395 bound_to 11000

$$$$
