AV-unprocessed.smi:1052|AV-procd|sdf|4616|dock4
  -GOLD-   22720 3113D 1   1.00000     0.00000
 Structure written by MMmdl.
 40 41  0  0  0  0  0  0  0  0  1 V2000
  147.5786  140.9737  154.3363 C   0  0  0  0  0  0  0  0  0  0  0  0
  147.8714  140.6107  155.8028 C   0  0  0  0  0  0  0  0  0  0  0  0
  147.0401  141.5285  156.7231 C   0  0  0  0  0  0  0  0  0  0  0  0
  147.5023  139.1297  156.0338 C   0  0  0  0  0  0  0  0  0  0  0  0
  149.3067  140.8303  156.0174 N   0  0  0  0  0  0  0  0  0  0  0  0
  149.9901  140.8286  157.1759 C   0  0  0  0  0  0  0  0  0  0  0  0
  149.4726  140.6440  158.2780 O   0  0  0  0  0  0  0  0  0  0  0  0
  151.4960  141.1050  157.0626 C   0  0  0  0  0  0  0  0  0  0  0  0
  152.1179  141.4502  158.3495 N   0  0  0  0  0  0  0  0  0  0  0  0
  151.6558  142.6302  158.8998 N   0  0  0  0  0  0  0  0  0  0  0  0
  152.1044  143.0530  160.0336 C   0  0  0  0  0  0  0  0  0  0  0  0
  151.5430  144.3422  160.5625 C   0  0  0  0  0  0  0  0  0  0  0  0
  150.3618  145.0221  159.9103 C   0  0  0  0  0  0  0  0  0  0  0  0
  151.7307  145.6588  159.8436 C   0  0  0  0  0  0  0  0  0  0  0  0
  153.1114  142.2818  160.7347 C   0  0  0  0  0  0  0  0  0  0  0  0
  153.5750  141.1218  160.2088 C   0  0  0  0  0  0  0  0  0  0  0  0
  154.6441  140.2875  160.9099 C   0  0  0  0  0  0  0  0  0  0  0  0
  154.2219  139.0337  161.0737 F   0  0  0  0  0  0  0  0  0  0  0  0
  155.7682  140.2587  160.1930 F   0  0  0  0  0  0  0  0  0  0  0  0
  154.9431  140.7795  162.1132 F   0  0  0  0  0  0  0  0  0  0  0  0
  153.0592  140.6396  158.9187 C   0  0  0  0  0  0  0  0  0  0  0  0
  153.4312  139.5936  158.3846 O   0  0  0  0  0  0  0  0  0  0  0  0
  146.5233  140.8372  154.0968 H   0  0  0  0  0  0  0  0  0  0  0  0
  148.1532  140.3506  153.6497 H   0  0  0  0  0  0  0  0  0  0  0  0
  147.8297  142.0141  154.1247 H   0  0  0  0  0  0  0  0  0  0  0  0
  147.3109  142.5764  156.5881 H   0  0  0  0  0  0  0  0  0  0  0  0
  147.1773  141.2856  157.7767 H   0  0  0  0  0  0  0  0  0  0  0  0
  145.9746  141.4361  156.5103 H   0  0  0  0  0  0  0  0  0  0  0  0
  146.4586  138.9418  155.7795 H   0  0  0  0  0  0  0  0  0  0  0  0
  147.6340  138.8297  157.0733 H   0  0  0  0  0  0  0  0  0  0  0  0
  148.1134  138.4675  155.4195 H   0  0  0  0  0  0  0  0  0  0  0  0
  149.8458  140.9994  155.1805 H   0  0  0  0  0  0  0  0  0  0  0  0
  152.0011  140.2416  156.6251 H   0  0  0  0  0  0  0  0  0  0  0  0
  151.6345  141.9166  156.3459 H   0  0  0  0  0  0  0  0  0  0  0  0
  151.5898  144.3644  161.6497 H   0  0  0  0  0  0  0  0  0  0  0  0
  149.9659  144.5903  158.9929 H   0  0  0  0  0  0  0  0  0  0  0  0
  149.6245  145.4826  160.5647 H   0  0  0  0  0  0  0  0  0  0  0  0
  151.9031  146.5432  160.4538 H   0  0  0  0  0  0  0  0  0  0  0  0
  152.2334  145.6545  158.8782 H   0  0  0  0  0  0  0  0  0  0  0  0
  153.4790  142.6525  161.6798 H   0  0  0  0  0  0  0  0  0  0  0  0
  1  2  1  0  0  0  0
  1 23  1  0  0  0  0
  1 24  1  0  0  0  0
  1 25  1  0  0  0  0
  2  3  1  0  0  0  0
  2  4  1  0  0  0  0
  2  5  1  0  0  0  0
  3 26  1  0  0  0  0
  3 27  1  0  0  0  0
  3 28  1  0  0  0  0
  4 29  1  0  0  0  0
  4 30  1  0  0  0  0
  4 31  1  0  0  0  0
  5  6  1  0  0  0  0
  5 32  1  0  0  0  0
  6  7  2  0  0  0  0
  6  8  1  0  0  0  0
  8  9  1  0  0  0  0
  8 33  1  0  0  0  0
  8 34  1  0  0  0  0
  9 21  1  0  0  0  0
  9 10  1  0  0  0  0
 10 11  2  0  0  0  0
 11 12  1  0  0  0  0
 11 15  1  0  0  0  0
 12 14  1  0  0  0  0
 12 13  1  0  0  0  0
 12 35  1  0  0  0  0
 13 14  1  0  0  0  0
 13 36  1  0  0  0  0
 13 37  1  0  0  0  0
 14 38  1  0  0  0  0
 14 39  1  0  0  0  0
 15 16  2  0  0  0  0
 15 40  1  0  0  0  0
 16 17  1  0  0  0  0
 16 21  1  0  0  0  0
 17 18  1  0  0  0  0
 17 19  1  0  0  0  0
 17 20  1  0  0  0  0
 21 22  2  0  0  0  0
M  END
> <s_m_source_file>
AV-unprocessed.smi

> <i_m_source_file_index>
1052

> <i_lp_mmshare_version>
43012

> <i_f3d_flags>
0

> <s_epik_input>
W0NIM11DKFtDSDNdKShbQ0gzXSlbTkhdQyg9TylbQ0gyXW4xbmMoW0NIXTJbQ0gyXVtDSDJdMilbY0hdYyhDKEYpKEYpRiljMT1P

> <s_epik_cmdline>
J2VwaWtfcHl0aG9uJywgJy1waCcsICc3LjAnLCAnLXRuJywgJzgnLCAnLW1hJywgJzIwMCcsICctbWV0YWxfYmluZGluZycsICctaW1hZScsICc8aW5maWxlLm1hZT4nLCAnLW9tYWUnLCAnPG91dGZpbGUubWFlPic=

> <r_lp_tautomer_probability>
1

> <r_epik_Ionization_Penalty>
2.47799e-08

> <r_epik_Ionization_Penalty_Charging>
1.49243e-10

> <r_epik_Ionization_Penalty_Neutral>
2.46307e-08

> <r_epik_State_Penalty>
-0

> <r_epik_Charging_Adjusted_Penalty>
1.49243e-10

> <i_epik_Tot_Q>
0

> <i_epik_Tot_abs_Q>
0

> <r_epik_Metal_State_Penalty>
-0

> <b_epik_Metal_Only>
0

> <s_lp_Force_Field>
OPLS_2005

> <r_lp_Energy>
24.0208

> <b_lp_Chiralities_Consistent>
1

> <s_lp_Variant>
AV-unprocessed.smi:1052-1

> <Gold.Version>
5.8.1

> <Gold.Id.Protein>
6NUR|6NUR_protein|mol2

> <Gold.PLP.Fitness>
46.6049

> <Gold.PLP.PLP>
-44.3678

> <Gold.PLP.part.hbond>
-1.5941

> <Gold.PLP.part.metal>
0.0000

> <Gold.PLP.part.buried>
-5.0331

> <Gold.PLP.part.nonpolar>
-37.0608

> <Gold.PLP.part.repulsive>
0.1342

> <Gold.PLP.ligand.clash>
0.3313

> <Gold.PLP.ligand.torsion>
0.5221

> <Gold.PLP.Chemscore.Hbond>
1.0000

> <Gold.PLP.Chemscore.CHOScore>
0.0000

> <Gold.PLP.Chemscore.Metal>
0.0000

> <Gold.Chemscore.Hbonds>
donor molecule, donor type, donor heavy atom, donor atom, acceptor molecule, acceptor atom, score
      P1  H  7997  8008       L1    22  0.82

> <Gold.PLP.Chemscore.Internal.Correction>
0.6125

> <Gold.Rescore>
     Score         DG    S(hbond)    S(metal)    S(lipo)     H(rot)  DE(clash)    DE(int)     intcor
     13.16     -15.29       0.95        0.00      93.60       1.69       0.01       2.11       ----

> <Gold.Chemscore.Fitness>
13.1649

> <Gold.Chemscore.DG>
-15.2909

> <Gold.Chemscore.ZeroCoef>
-5.4800

> <Gold.Chemscore.Hbond>
0.9542

> <Gold.Chemscore.Metal>
0.0000

> <Gold.Chemscore.Lipo>
93.5992

> <Gold.Chemscore.Internal_Hbond>
0.0000

> <Gold.Chemscore.DEClash>
0.0148

> <Gold.Chemscore.DEInternal>
2.1112

> <Gold.Chemscore.Rot>
1.6903

> <Gold.Chemscore.Internal.Correction>
   9.000000E+99

> <Gold.Chemscore.Hbonds>
donor molecule, donor type, donor heavy atom, donor atom, acceptor molecule, acceptor atom, score
      P1  H  7997  8008       L1    22  0.52

> <Gold.Chemscore.Hbond.Weighted>
-3.1870

> <Gold.Chemscore.Metal.Weighted>
-0.0000

> <Gold.Chemscore.Lipo.Weighted>
-10.9511

> <Gold.Chemscore.Internal_Hbond.Weighted>
0.0000

> <Gold.Chemscore.DEClash.Weighted>
0.0148

> <Gold.Chemscore.DEInternal.Weighted>
2.1112

> <Gold.Chemscore.Rot.Weighted>
4.3272

> <Gold.Chemscore.Internal.Correction.Weighted>
   9.000000E+99

> <Gold.Protein.RotatedTorsions>
[ 6907 6896 6895 6894 ] final   26.06 input  -60.11 | X-H torsion
[ 7974 7965 7964 7962 ] final   -9.25 input  175.53 | X-H torsion
[ 8008 7997 7996 7995 ] final  -65.31 input   59.86 | X-H torsion
[ 10167 10162 10161 10158 ] final   97.95 input  -65.29 | X-H torsion
[ 10718 10713 10712 10709 ] final   35.91 input   66.30 | X-H torsion
[ 10763 10752 10751 10750 ] final  146.79 input  -60.55 | X-H torsion
[ 11005 11000 10999 10996 ] final  132.42 input  -57.11 | X-H torsion

> <Gold.Protein.ActiveResidues>
 VAL166  LYS551  ARG553  GLY616  TRP617  ASP618  TYR619  PRO620  LYS621  CYS622 
 ASP623  PHE694  ASN695  SER759  ASP760  ASP761  ALA762  ILE779  LEU786  VAL792 
 PHE793  MET794  SER795  GLU796  ALA797  LYS798  CYS799  TRP800  GLU811  SER814 

> <Gold.Protein.RotatedAtoms>
  151.9819  135.0024  160.0557 H   0  0  0  0  0  0  0  0  0  0  0  0  # atno 6907 bound_to 6896
  152.1689  133.4625  159.4907 H   0  0  0  0  0  0  0  0  0  0  0  0  # atno 6908 bound_to 6896
  150.6898  134.1896  159.4323 H   0  0  0  0  0  0  0  0  0  0  0  0  # atno 6909 bound_to 6896
  146.2257  140.2588  142.8351 H   0  0  0  0  0  0  0  0  0  0  0  0  # atno 7974 bound_to 7965
  154.4664  140.0936  156.7030 H   0  0  0  0  0  0  0  0  0  0  0  0  # atno 8008 bound_to 7997
  155.4847  140.3469  155.4327 H   0  0  0  0  0  0  0  0  0  0  0  0  # atno 8009 bound_to 7997
  156.0963  140.1410  156.9515 H   0  0  0  0  0  0  0  0  0  0  0  0  # atno 8010 bound_to 7997
  139.7753  144.6908  151.0097 H   0  0  0  0  0  0  0  0  0  0  0  0  # atno 10167 bound_to 10162
  157.3284  130.7485  149.6831 H   0  0  0  0  0  0  0  0  0  0  0  0  # atno 10718 bound_to 10713
  154.0276  135.2900  155.3373 H   0  0  0  0  0  0  0  0  0  0  0  0  # atno 10763 bound_to 10752
  154.7008  135.5189  153.8527 H   0  0  0  0  0  0  0  0  0  0  0  0  # atno 10764 bound_to 10752
  153.0654  135.6629  154.0492 H   0  0  0  0  0  0  0  0  0  0  0  0  # atno 10765 bound_to 10752
  139.9789  134.9554  156.9580 H   0  0  0  0  0  0  0  0  0  0  0  0  # atno 11005 bound_to 11000
  144.9355  140.8022  143.5663 LP  0  0  0  0  0  0  0  0  0  0  0  0  # atno 17320 bound_to 7965
  145.2536  139.2021  143.4929 LP  0  0  0  0  0  0  0  0  0  0  0  0  # atno 17321 bound_to 7965
  140.7816  143.4542  151.0369 LP  0  0  0  0  0  0  0  0  0  0  0  0  # atno 17342 bound_to 10162
  139.8225  143.7801  152.3177 LP  0  0  0  0  0  0  0  0  0  0  0  0  # atno 17343 bound_to 10162
  155.9693  130.4202  150.4413 LP  0  0  0  0  0  0  0  0  0  0  0  0  # atno 17370 bound_to 10713
  157.2441  131.0532  151.2419 LP  0  0  0  0  0  0  0  0  0  0  0  0  # atno 17371 bound_to 10713
  140.5137  134.0976  155.7276 LP  0  0  0  0  0  0  0  0  0  0  0  0  # atno 17394 bound_to 11000
  141.1463  133.9048  157.2206 LP  0  0  0  0  0  0  0  0  0  0  0  0  # atno 17395 bound_to 11000

$$$$
