AV-unprocessed.smi:2451|AV-procd|sdf|9673|dock1
  -GOLD-   2272013313D 1   1.00000     0.00000
 Structure written by MMmdl.
 38 39  0  0  0  0  0  0  0  0  1 V2000
  152.2760  143.3746  161.7417 C   0  0  0  0  0  0  0  0  0  0  0  0
  152.7466  143.8026  160.3360 C   0  0  2  0  0  0  0  0  0  0  0  0
  151.9079  144.9771  159.7932 C   0  0  0  0  0  0  0  0  0  0  0  0
  150.4912  144.5395  159.3904 C   0  0  0  0  0  0  0  0  0  0  0  0
  150.5387  143.4020  158.3615 C   0  0  0  0  0  0  0  0  0  0  0  0
  151.3777  142.2092  158.8588 C   0  0  1  0  0  0  0  0  0  0  0  0
  151.4670  141.2194  157.7811 N   0  0  0  0  0  0  0  0  0  0  0  0
  150.0128  140.5160  157.1777 S   0  0  0  0  0  0  0  0  0  0  0  0
  150.1946  139.0560  157.1690 O   0  0  0  0  0  0  0  0  0  0  0  0
  148.8917  141.1119  157.9201 O   0  0  0  0  0  0  0  0  0  0  0  0
  149.9743  141.1135  155.4356 C   0  0  0  0  0  0  0  0  0  0  0  0
  148.6786  140.7091  154.7931 C   0  0  0  0  0  0  0  0  0  0  0  0
  147.6437  141.5449  154.2891 C   0  0  0  0  0  0  0  0  0  0  0  0
  146.7149  140.6580  153.8263 C   0  0  0  0  0  0  0  0  0  0  0  0
  147.1334  139.3830  154.0291 O   0  0  0  0  0  0  0  0  0  0  0  0
  148.3877  139.4260  154.6484 N   0  0  0  0  0  0  0  0  0  0  0  0
  152.7974  142.6455  159.3014 C   0  0  2  0  0  0  0  0  0  0  0  0
  153.6525  141.4623  159.7973 C   0  0  0  0  0  0  0  0  0  0  0  0
  151.2875  142.9166  161.7235 H   0  0  0  0  0  0  0  0  0  0  0  0
  152.2266  144.2326  162.4124 H   0  0  0  0  0  0  0  0  0  0  0  0
  152.9628  142.6602  162.1948 H   0  0  0  0  0  0  0  0  0  0  0  0
  153.7651  144.1742  160.4575 H   0  0  0  0  0  0  0  0  0  0  0  0
  151.8553  145.7773  160.5324 H   0  0  0  0  0  0  0  0  0  0  0  0
  152.4087  145.4041  158.9233 H   0  0  0  0  0  0  0  0  0  0  0  0
  149.9319  144.2195  160.2700 H   0  0  0  0  0  0  0  0  0  0  0  0
  149.9468  145.3885  158.9762 H   0  0  0  0  0  0  0  0  0  0  0  0
  149.5245  143.0753  158.1282 H   0  0  0  0  0  0  0  0  0  0  0  0
  150.9597  143.7846  157.4302 H   0  0  0  0  0  0  0  0  0  0  0  0
  150.8667  141.7571  159.7096 H   0  0  0  0  0  0  0  0  0  0  0  0
  152.0628  141.5504  157.0226 H   0  0  0  0  0  0  0  0  0  0  0  0
  150.1018  142.1963  155.4379 H   0  0  0  0  0  0  0  0  0  0  0  0
  150.8219  140.6789  154.9059 H   0  0  0  0  0  0  0  0  0  0  0  0
  147.5939  142.6233  154.2667 H   0  0  0  0  0  0  0  0  0  0  0  0
  145.7519  140.7720  153.3507 H   0  0  0  0  0  0  0  0  0  0  0  0
  153.3012  143.0429  158.4185 H   0  0  0  0  0  0  0  0  0  0  0  0
  153.1632  140.9243  160.6093 H   0  0  0  0  0  0  0  0  0  0  0  0
  154.6242  141.8022  160.1562 H   0  0  0  0  0  0  0  0  0  0  0  0
  153.8379  140.7431  158.9993 H   0  0  0  0  0  0  0  0  0  0  0  0
  1  2  1  0  0  0  0
  1 19  1  0  0  0  0
  1 20  1  0  0  0  0
  1 21  1  0  0  0  0
  2 17  1  0  0  0  0
  2  3  1  0  0  0  0
  2 22  1  0  0  0  0
  3  4  1  0  0  0  0
  3 23  1  0  0  0  0
  3 24  1  0  0  0  0
  4  5  1  0  0  0  0
  4 25  1  0  0  0  0
  4 26  1  0  0  0  0
  5  6  1  0  0  0  0
  5 27  1  0  0  0  0
  5 28  1  0  0  0  0
  6  7  1  0  0  0  0
  6 17  1  0  0  0  0
  6 29  1  0  0  0  0
  7  8  1  0  0  0  0
  7 30  1  0  0  0  0
  8  9  2  0  0  0  0
  8 10  2  0  0  0  0
  8 11  1  0  0  0  0
 11 12  1  0  0  0  0
 11 31  1  0  0  0  0
 11 32  1  0  0  0  0
 12 16  2  0  0  0  0
 12 13  1  0  0  0  0
 13 14  2  0  0  0  0
 13 33  1  0  0  0  0
 14 15  1  0  0  0  0
 14 34  1  0  0  0  0
 15 16  1  0  0  0  0
 17 18  1  0  0  0  0
 17 35  1  0  0  0  0
 18 36  1  0  0  0  0
 18 37  1  0  0  0  0
 18 38  1  0  0  0  0
M  END
> <s_m_source_file>
AV-unprocessed.smi

> <i_m_source_file_index>
2451

> <i_lp_mmshare_version>
43012

> <i_f3d_flags>
0

> <s_epik_input>
W0NIM11bQ0BASF0xW0NIMl1bQ0gyXVtDSDJdW0NASF0oW0NASF0xW0NIM10pW05IXVMoPU8pKD1PKVtDSDJdYzJbY0hdW2NIXW9uMg==

> <s_epik_cmdline>
J2VwaWtfcHl0aG9uJywgJy1waCcsICc3LjAnLCAnLXRuJywgJzgnLCAnLW1hJywgJzIwMCcsICctbWV0YWxfYmluZGluZycsICctaW1hZScsICc8aW5maWxlLm1hZT4nLCAnLW9tYWUnLCAnPG91dGZpbGUubWFlPic=

> <r_lp_tautomer_probability>
1

> <r_epik_Ionization_Penalty>
8.73668e-05

> <r_epik_Ionization_Penalty_Charging>
0

> <r_epik_Ionization_Penalty_Neutral>
8.73668e-05

> <r_epik_State_Penalty>
-0

> <r_epik_Charging_Adjusted_Penalty>
0

> <i_epik_Tot_Q>
0

> <i_epik_Tot_abs_Q>
0

> <r_epik_Metal_State_Penalty>
0.0716439

> <b_epik_Metal_Only>
0

> <s_lp_Force_Field>
OPLS_2005

> <r_lp_Energy>
8.38809

> <b_lp_Chiralities_Consistent>
1

> <s_lp_Variant>
AV-unprocessed.smi:2451-5

> <Gold.Version>
5.8.1

> <Gold.Id.Protein>
6NUR|6NUR_protein|mol2

> <Gold.PLP.Fitness>
40.7954

> <Gold.PLP.PLP>
-37.9678

> <Gold.PLP.part.hbond>
0.0000

> <Gold.PLP.part.metal>
0.0000

> <Gold.PLP.part.buried>
-5.4824

> <Gold.PLP.part.nonpolar>
-32.7943

> <Gold.PLP.part.repulsive>
0.3477

> <Gold.PLP.ligand.clash>
0.0000

> <Gold.PLP.ligand.torsion>
0.1541

> <Gold.PLP.Chemscore.Hbond>
0.0000

> <Gold.PLP.Chemscore.CHOScore>
1.0000

> <Gold.PLP.Chemscore.Metal>
0.0000

> <Gold.Chemscore.Hbonds>
donor molecule, donor type, donor heavy atom, donor atom, acceptor molecule, acceptor atom, score
      L1  C    14    34       P1 10175  1.00

> <Gold.PLP.Chemscore.Internal.Correction>
0.1359

> <Gold.Rescore>
     Score         DG    S(hbond)    S(metal)    S(lipo)     H(rot)  DE(clash)    DE(int)     intcor
     12.94     -13.27       0.00        0.00     102.89       1.66       0.04       0.29       ----

> <Gold.Chemscore.Fitness>
12.9423

> <Gold.Chemscore.DG>
-13.2720

> <Gold.Chemscore.ZeroCoef>
-5.4800

> <Gold.Chemscore.Hbond>
0.0000

> <Gold.Chemscore.Metal>
0.0000

> <Gold.Chemscore.Lipo>
102.8942

> <Gold.Chemscore.Internal_Hbond>
0.0000

> <Gold.Chemscore.DEClash>
0.0444

> <Gold.Chemscore.DEInternal>
0.2854

> <Gold.Chemscore.Rot>
1.6588

> <Gold.Chemscore.Internal.Correction>
   9.000000E+99

> <Gold.Chemscore.Hbond.Weighted>
-0.0000

> <Gold.Chemscore.Metal.Weighted>
-0.0000

> <Gold.Chemscore.Lipo.Weighted>
-12.0386

> <Gold.Chemscore.Internal_Hbond.Weighted>
0.0000

> <Gold.Chemscore.DEClash.Weighted>
0.0444

> <Gold.Chemscore.DEInternal.Weighted>
0.2854

> <Gold.Chemscore.Rot.Weighted>
4.2466

> <Gold.Chemscore.Internal.Correction.Weighted>
   9.000000E+99

> <Gold.Protein.RotatedTorsions>
[ 6907 6896 6895 6894 ] final  -23.37 input  -60.11 | X-H torsion
[ 7974 7965 7964 7962 ] final  -60.59 input  175.53 | X-H torsion
[ 8008 7997 7996 7995 ] final   24.04 input   59.86 | X-H torsion
[ 10167 10162 10161 10158 ] final  -71.22 input  -65.29 | X-H torsion
[ 10718 10713 10712 10709 ] final  126.35 input   66.30 | X-H torsion
[ 10763 10752 10751 10750 ] final  131.55 input  -60.55 | X-H torsion
[ 11005 11000 10999 10996 ] final   57.63 input  -57.11 | X-H torsion

> <Gold.Protein.ActiveResidues>
 VAL166  LYS551  ARG553  GLY616  TRP617  ASP618  TYR619  PRO620  LYS621  CYS622 
 ASP623  PHE694  ASN695  SER759  ASP760  ASP761  ALA762  ILE779  LEU786  VAL792 
 PHE793  MET794  SER795  GLU796  ALA797  LYS798  CYS799  TRP800  GLU811  SER814 

> <Gold.Protein.RotatedAtoms>
  151.2049  135.0458  159.8887 H   0  0  0  0  0  0  0  0  0  0  0  0  # atno 6907 bound_to 6896
  152.5429  134.0808  159.8245 H   0  0  0  0  0  0  0  0  0  0  0  0  # atno 6908 bound_to 6896
  151.0954  133.5236  159.2644 H   0  0  0  0  0  0  0  0  0  0  0  0  # atno 6909 bound_to 6896
  145.8137  140.8583  143.0168 H   0  0  0  0  0  0  0  0  0  0  0  0  # atno 7974 bound_to 7965
  154.9902  140.3113  155.4909 H   0  0  0  0  0  0  0  0  0  0  0  0  # atno 8008 bound_to 7997
  156.2941  140.2250  156.4946 H   0  0  0  0  0  0  0  0  0  0  0  0  # atno 8009 bound_to 7997
  154.7710  140.0452  157.1039 H   0  0  0  0  0  0  0  0  0  0  0  0  # atno 8010 bound_to 7997
  140.5290  143.2323  151.7296 H   0  0  0  0  0  0  0  0  0  0  0  0  # atno 10167 bound_to 10162
  157.5426  131.1096  150.8834 H   0  0  0  0  0  0  0  0  0  0  0  0  # atno 10718 bound_to 10713
  153.7763  135.3175  155.3359 H   0  0  0  0  0  0  0  0  0  0  0  0  # atno 10763 bound_to 10752
  154.8178  135.4624  154.0695 H   0  0  0  0  0  0  0  0  0  0  0  0  # atno 10764 bound_to 10752
  153.1970  135.6917  153.8364 H   0  0  0  0  0  0  0  0  0  0  0  0  # atno 10765 bound_to 10752
  140.0438  134.5835  155.9348 H   0  0  0  0  0  0  0  0  0  0  0  0  # atno 11005 bound_to 11000
  144.6754  140.0433  143.7480 LP  0  0  0  0  0  0  0  0  0  0  0  0  # atno 17320 bound_to 7965
  145.9749  139.2897  143.1076 LP  0  0  0  0  0  0  0  0  0  0  0  0  # atno 17321 bound_to 7965
  139.4948  144.4142  152.0048 LP  0  0  0  0  0  0  0  0  0  0  0  0  # atno 17342 bound_to 10162
  140.3243  144.3391  150.6002 LP  0  0  0  0  0  0  0  0  0  0  0  0  # atno 17343 bound_to 10162
  156.9382  130.5375  149.5280 LP  0  0  0  0  0  0  0  0  0  0  0  0  # atno 17370 bound_to 10713
  156.0509  130.5579  150.8987 LP  0  0  0  0  0  0  0  0  0  0  0  0  # atno 17371 bound_to 10713
  141.1896  133.6566  156.5377 LP  0  0  0  0  0  0  0  0  0  0  0  0  # atno 17394 bound_to 11000
  140.4026  134.7343  157.4789 LP  0  0  0  0  0  0  0  0  0  0  0  0  # atno 17395 bound_to 11000

$$$$
