AV-unprocessed.smi:2725|AV-procd|sdf|10516|dock9
  -GOLD-   2272014553D 1   1.00000     0.00000
 Structure written by MMmdl.
 44 45  0  0  0  0  0  0  0  0  1 V2000
  150.9479  139.8735  154.4197 O   0  0  0  0  0  0  0  0  0  0  0  0
  150.5136  140.1133  155.5460 C   0  0  0  0  0  0  0  0  0  0  0  0
  150.7499  141.4815  156.1893 C   0  0  0  0  0  0  0  0  0  0  0  0
  151.7447  141.4184  157.3626 C   0  0  0  0  0  0  0  0  0  0  0  0
  151.5434  142.5522  158.3833 C   0  0  0  0  0  0  0  0  0  0  0  0
  151.8891  143.9488  157.8565 C   0  0  0  0  0  0  0  0  0  0  0  0
  152.1452  144.8022  159.1046 C   0  0  0  0  0  0  0  0  0  0  0  0
  152.4356  143.8197  160.2492 C   0  0  0  0  0  0  0  0  0  0  0  0
  152.4319  142.4226  159.6220 C   0  0  0  0  0  0  0  0  0  0  0  0
  149.8111  139.2305  156.2717 N   0  0  0  0  0  0  0  0  0  0  0  0
  149.4334  137.8840  155.8429 C   0  0  1  0  0  0  0  0  0  0  0  0
  148.3403  137.9581  154.7551 C   0  0  0  0  0  0  0  0  0  0  0  0
  148.8837  138.4077  153.5320 O   0  0  0  0  0  0  0  0  0  0  0  0
  150.6855  137.1426  155.3273 C   0  0  0  0  0  0  0  0  0  0  0  0
  150.6005  135.6302  155.4605 C   0  0  0  0  0  0  0  0  0  0  0  0
  149.6026  134.8994  154.7799 C   0  0  0  0  0  0  0  0  0  0  0  0
  149.5740  133.4999  154.9323 C   0  0  0  0  0  0  0  0  0  0  0  0
  150.5377  132.8875  155.7564 C   0  0  0  0  0  0  0  0  0  0  0  0
  151.4921  133.7057  156.3931 C   0  0  0  0  0  0  0  0  0  0  0  0
  151.5283  135.0486  156.2534 N   0  0  0  0  0  0  0  0  0  0  0  0
  151.1201  142.1559  155.4169 H   0  0  0  0  0  0  0  0  0  0  0  0
  149.8006  141.8944  156.5342 H   0  0  0  0  0  0  0  0  0  0  0  0
  151.6315  140.4612  157.8739 H   0  0  0  0  0  0  0  0  0  0  0  0
  152.7692  141.4430  156.9879 H   0  0  0  0  0  0  0  0  0  0  0  0
  150.5035  142.5550  158.7144 H   0  0  0  0  0  0  0  0  0  0  0  0
  152.7995  143.9041  157.2571 H   0  0  0  0  0  0  0  0  0  0  0  0
  151.1023  144.3651  157.2263 H   0  0  0  0  0  0  0  0  0  0  0  0
  152.9744  145.4920  158.9438 H   0  0  0  0  0  0  0  0  0  0  0  0
  151.2653  145.4008  159.3434 H   0  0  0  0  0  0  0  0  0  0  0  0
  153.3822  144.0346  160.7463 H   0  0  0  0  0  0  0  0  0  0  0  0
  151.6489  143.8913  161.0011 H   0  0  0  0  0  0  0  0  0  0  0  0
  152.0779  141.6572  160.3134 H   0  0  0  0  0  0  0  0  0  0  0  0
  153.4474  142.1554  159.3258 H   0  0  0  0  0  0  0  0  0  0  0  0
  149.4951  139.5200  157.1857 H   0  0  0  0  0  0  0  0  0  0  0  0
  149.0628  137.3172  156.6998 H   0  0  0  0  0  0  0  0  0  0  0  0
  147.8391  136.9996  154.6151 H   0  0  0  0  0  0  0  0  0  0  0  0
  147.5697  138.6763  155.0378 H   0  0  0  0  0  0  0  0  0  0  0  0
  149.1561  137.6562  153.0281 H   0  0  0  0  0  0  0  0  0  0  0  0
  150.8564  137.3898  154.2786 H   0  0  0  0  0  0  0  0  0  0  0  0
  151.5677  137.4923  155.8655 H   0  0  0  0  0  0  0  0  0  0  0  0
  148.8780  135.3967  154.1523 H   0  0  0  0  0  0  0  0  0  0  0  0
  148.8264  132.9070  154.4261 H   0  0  0  0  0  0  0  0  0  0  0  0
  150.5457  131.8168  155.8969 H   0  0  0  0  0  0  0  0  0  0  0  0
  152.2458  133.2700  157.0322 H   0  0  0  0  0  0  0  0  0  0  0  0
  1  2  2  0  0  0  0
  2  3  1  0  0  0  0
  2 10  1  0  0  0  0
  3  4  1  0  0  0  0
  3 21  1  0  0  0  0
  3 22  1  0  0  0  0
  4  5  1  0  0  0  0
  4 23  1  0  0  0  0
  4 24  1  0  0  0  0
  5  9  1  0  0  0  0
  5  6  1  0  0  0  0
  5 25  1  0  0  0  0
  6  7  1  0  0  0  0
  6 26  1  0  0  0  0
  6 27  1  0  0  0  0
  7  8  1  0  0  0  0
  7 28  1  0  0  0  0
  7 29  1  0  0  0  0
  8  9  1  0  0  0  0
  8 30  1  0  0  0  0
  8 31  1  0  0  0  0
  9 32  1  0  0  0  0
  9 33  1  0  0  0  0
 10 11  1  0  0  0  0
 10 34  1  0  0  0  0
 11 12  1  0  0  0  0
 11 14  1  0  0  0  0
 11 35  1  0  0  0  0
 12 13  1  0  0  0  0
 12 36  1  0  0  0  0
 12 37  1  0  0  0  0
 13 38  1  0  0  0  0
 14 15  1  0  0  0  0
 14 39  1  0  0  0  0
 14 40  1  0  0  0  0
 15 20  1  0  0  0  0
 15 16  2  0  0  0  0
 16 17  1  0  0  0  0
 16 41  1  0  0  0  0
 17 18  2  0  0  0  0
 17 42  1  0  0  0  0
 18 19  1  0  0  0  0
 18 43  1  0  0  0  0
 19 20  2  0  0  0  0
 19 44  1  0  0  0  0
M  END
> <s_m_source_file>
AV-unprocessed.smi

> <i_m_source_file_index>
2725

> <i_lp_mmshare_version>
43012

> <i_f3d_flags>
0

> <s_epik_input>
W0NIMl0xW0NIMl1bQ0gyXVtDSDJdW0NIXTFbQ0gyXVtDSDJdQyg9TylbTkhdW0NASF0oW0NIMl1bT0hdKVtDSDJdYzJbY0hdW2NIXVtjSF1bY0hdbjI=

> <s_epik_cmdline>
J2VwaWtfcHl0aG9uJywgJy1waCcsICc3LjAnLCAnLXRuJywgJzgnLCAnLW1hJywgJzIwMCcsICctbWV0YWxfYmluZGluZycsICctaW1hZScsICc8aW5maWxlLm1hZT4nLCAnLW9tYWUnLCAnPG91dGZpbGUubWFlPic=

> <r_epik_Ionization_Penalty>
0.0257016

> <r_epik_Ionization_Penalty_Charging>
0

> <r_epik_Ionization_Penalty_Neutral>
0.0257016

> <r_epik_State_Penalty>
0.0209381

> <r_epik_Charging_Adjusted_Penalty>
0.0209381

> <i_epik_Tot_Q>
0

> <i_epik_Tot_abs_Q>
0

> <r_epik_Metal_State_Penalty>
0.0200649

> <b_epik_Metal_Only>
0

> <s_lp_Force_Field>
OPLS_2005

> <r_lp_Energy>
24.1231

> <b_lp_Chiralities_Consistent>
1

> <s_lp_Variant>
AV-unprocessed.smi:2725-2

> <Gold.Version>
5.8.1

> <Gold.Id.Protein>
6NUR|6NUR_protein|mol2

> <Gold.PLP.Fitness>
48.0555

> <Gold.PLP.PLP>
-40.5484

> <Gold.PLP.part.hbond>
-3.9874

> <Gold.PLP.part.metal>
0.0000

> <Gold.PLP.part.buried>
-5.0573

> <Gold.PLP.part.nonpolar>
-31.6701

> <Gold.PLP.part.repulsive>
0.1269

> <Gold.PLP.ligand.clash>
0.0000

> <Gold.PLP.ligand.torsion>
0.7419

> <Gold.PLP.Chemscore.Hbond>
2.9670

> <Gold.PLP.Chemscore.CHOScore>
0.0000

> <Gold.PLP.Chemscore.Metal>
0.0000

> <Gold.Chemscore.Hbonds>
donor molecule, donor type, donor heavy atom, donor atom, acceptor molecule, acceptor atom, score
      L1  H    13    38       P1  7948  1.00
      P1  H  7989  7998       L1     1  0.98
      P1  H 10752 10763       L1    20  0.94

> <Gold.PLP.Chemscore.Internal.Correction>
0.0899

> <Gold.Rescore>
     Score         DG    S(hbond)    S(metal)    S(lipo)     H(rot)  DE(clash)    DE(int)     intcor
     16.94     -19.31       2.19        0.00     109.09       2.44       0.29       2.07       ----

> <Gold.Chemscore.Fitness>
16.9449

> <Gold.Chemscore.DG>
-19.3058

> <Gold.Chemscore.ZeroCoef>
-5.4800

> <Gold.Chemscore.Hbond>
2.1894

> <Gold.Chemscore.Metal>
0.0000

> <Gold.Chemscore.Lipo>
109.0912

> <Gold.Chemscore.Internal_Hbond>
0.0000

> <Gold.Chemscore.DEClash>
0.2926

> <Gold.Chemscore.DEInternal>
2.0682

> <Gold.Chemscore.Rot>
2.4416

> <Gold.Chemscore.Internal.Correction>
   9.000000E+99

> <Gold.Chemscore.Hbonds>
donor molecule, donor type, donor heavy atom, donor atom, acceptor molecule, acceptor atom, score
      L1  H    13    38       P1  7948  0.98
      P1  H  7989  7998       L1     1  0.91
      P1  H 10752 10763       L1    20  0.11

> <Gold.Chemscore.Hbond.Weighted>
-7.3126

> <Gold.Chemscore.Metal.Weighted>
-0.0000

> <Gold.Chemscore.Lipo.Weighted>
-12.7637

> <Gold.Chemscore.Internal_Hbond.Weighted>
0.0000

> <Gold.Chemscore.DEClash.Weighted>
0.2926

> <Gold.Chemscore.DEInternal.Weighted>
2.0682

> <Gold.Chemscore.Rot.Weighted>
6.2505

> <Gold.Chemscore.Internal.Correction.Weighted>
   9.000000E+99

> <Gold.Protein.RotatedTorsions>
[ 6907 6896 6895 6894 ] final  -59.38 input  -60.11 | X-H torsion
[ 7974 7965 7964 7962 ] final -153.51 input  175.53 | X-H torsion
[ 8008 7997 7996 7995 ] final -166.25 input   59.86 | X-H torsion
[ 10167 10162 10161 10158 ] final  145.95 input  -65.29 | X-H torsion
[ 10718 10713 10712 10709 ] final  -30.98 input   66.30 | X-H torsion
[ 10763 10752 10751 10750 ] final   96.96 input  -60.55 | X-H torsion
[ 11005 11000 10999 10996 ] final -172.33 input  -57.11 | X-H torsion

> <Gold.Protein.ActiveResidues>
 VAL166  LYS551  ARG553  GLY616  TRP617  ASP618  TYR619  PRO620  LYS621  CYS622 
 ASP623  PHE694  ASN695  SER759  ASP760  ASP761  ALA762  ILE779  LEU786  VAL792 
 PHE793  MET794  SER795  GLU796  ALA797  LYS798  CYS799  TRP800  GLU811  SER814 

> <Gold.Protein.RotatedAtoms>
  150.7934  134.6975  159.6531 H   0  0  0  0  0  0  0  0  0  0  0  0  # atno 6907 bound_to 6896
  152.4043  134.6230  160.0065 H   0  0  0  0  0  0  0  0  0  0  0  0  # atno 6908 bound_to 6896
  151.6492  133.3285  159.3184 H   0  0  0  0  0  0  0  0  0  0  0  0  # atno 6909 bound_to 6896
  144.7737  140.4516  143.5889 H   0  0  0  0  0  0  0  0  0  0  0  0  # atno 7974 bound_to 7965
  155.8612  140.0978  157.1612 H   0  0  0  0  0  0  0  0  0  0  0  0  # atno 8008 bound_to 7997
  154.3990  140.1365  156.4025 H   0  0  0  0  0  0  0  0  0  0  0  0  # atno 8009 bound_to 7997
  155.7855  140.3457  155.5323 H   0  0  0  0  0  0  0  0  0  0  0  0  # atno 8010 bound_to 7997
  139.4916  144.5864  151.6769 H   0  0  0  0  0  0  0  0  0  0  0  0  # atno 10167 bound_to 10162
  156.3930  130.4376  149.7380 H   0  0  0  0  0  0  0  0  0  0  0  0  # atno 10718 bound_to 10713
  153.2712  135.4200  155.0989 H   0  0  0  0  0  0  0  0  0  0  0  0  # atno 10763 bound_to 10752
  154.8456  135.3472  154.6242 H   0  0  0  0  0  0  0  0  0  0  0  0  # atno 10764 bound_to 10752
  153.6662  135.7046  153.5219 H   0  0  0  0  0  0  0  0  0  0  0  0  # atno 10765 bound_to 10752
  140.4982  134.5919  157.4978 H   0  0  0  0  0  0  0  0  0  0  0  0  # atno 11005 bound_to 11000
  145.6248  139.1528  143.3002 LP  0  0  0  0  0  0  0  0  0  0  0  0  # atno 17320 bound_to 7965
  146.1902  140.6356  142.9149 LP  0  0  0  0  0  0  0  0  0  0  0  0  # atno 17321 bound_to 7965
  140.5482  144.0469  150.6115 LP  0  0  0  0  0  0  0  0  0  0  0  0  # atno 17342 bound_to 10162
  140.3514  143.2961  152.0483 LP  0  0  0  0  0  0  0  0  0  0  0  0  # atno 17343 bound_to 10162
  156.4426  130.7868  151.2890 LP  0  0  0  0  0  0  0  0  0  0  0  0  # atno 17370 bound_to 10713
  157.7500  131.0120  150.3367 LP  0  0  0  0  0  0  0  0  0  0  0  0  # atno 17371 bound_to 10713
  139.9729  134.7263  156.0006 LP  0  0  0  0  0  0  0  0  0  0  0  0  # atno 17394 bound_to 11000
  141.1449  133.6558  156.3839 LP  0  0  0  0  0  0  0  0  0  0  0  0  # atno 17395 bound_to 11000

$$$$
