AV-unprocessed.smi:1013|AV-procd|sdf|4429|dock8
  -GOLD-   22720 2383D 1   1.00000     0.00000
 Structure written by MMmdl.
 29 30  0  0  0  0  0  0  0  0  2 V2000
  152.3220  140.1937  156.9186 O   0  0  0  0  0  0  0  0  0  0  0  0
  151.4492  140.7306  156.1996 C   0  0  0  0  0  0  0  0  0  0  0  0
  151.1854  140.4032  155.0220 O   0  5  0  0  0  0  0  0  0  0  0  0
  150.6205  141.8751  156.7990 C   0  0  1  0  0  0  0  0  0  0  0  0
  151.5753  142.9899  157.2899 C   0  0  0  0  0  0  0  0  0  0  0  0
  152.0961  142.7631  158.6252 N   0  0  0  0  0  0  0  0  0  0  0  0
  151.8845  143.5091  159.7642 C   0  0  0  0  0  0  0  0  0  0  0  0
  152.5841  142.9137  160.7741 C   0  0  0  0  0  0  0  0  0  0  0  0
  153.2109  141.7961  160.1497 C   0  0  0  0  0  0  0  0  0  0  0  0
  154.1155  140.7647  160.7703 C   0  0  0  0  0  0  0  0  0  0  0  0
  155.3219  140.8174  160.2060 F   0  0  0  0  0  0  0  0  0  0  0  0
  154.2444  140.9897  162.0780 F   0  0  0  0  0  0  0  0  0  0  0  0
  153.6055  139.5457  160.5942 F   0  0  0  0  0  0  0  0  0  0  0  0
  152.9172  141.7172  158.8590 N   0  0  0  0  0  0  0  0  0  0  0  0
  149.6446  142.3756  155.8149 N   0  0  0  0  0  0  0  0  0  0  0  0
  148.6102  141.3938  155.5412 C   0  0  0  0  0  0  0  0  0  0  0  0
  148.5846  140.7698  154.1663 C   0  0  0  0  0  0  0  0  0  0  0  0
  147.5360  141.7859  154.5560 C   0  0  0  0  0  0  0  0  0  0  0  0
  150.0856  141.4477  157.6491 H   0  0  0  0  0  0  0  0  0  0  0  0
  152.4317  143.0810  156.6192 H   0  0  0  0  0  0  0  0  0  0  0  0
  151.0704  143.9571  157.2726 H   0  0  0  0  0  0  0  0  0  0  0  0
  151.2563  144.3876  159.7615 H   0  0  0  0  0  0  0  0  0  0  0  0
  152.6406  143.2293  161.8051 H   0  0  0  0  0  0  0  0  0  0  0  0
  150.1111  142.6163  154.9516 H   0  0  0  0  0  0  0  0  0  0  0  0
  148.2676  140.7513  156.3484 H   0  0  0  0  0  0  0  0  0  0  0  0
  149.3456  141.0799  153.4524 H   0  0  0  0  0  0  0  0  0  0  0  0
  148.2772  139.7284  154.0961 H   0  0  0  0  0  0  0  0  0  0  0  0
  146.5280  141.4212  154.7417 H   0  0  0  0  0  0  0  0  0  0  0  0
  147.5978  142.7713  154.0979 H   0  0  0  0  0  0  0  0  0  0  0  0
  1  2  2  0  0  0  0
  2  3  1  0  0  0  0
  2  4  1  0  0  0  0
  4  5  1  0  0  0  0
  4 15  1  0  0  0  0
  4 19  1  0  0  0  0
  5  6  1  0  0  0  0
  5 20  1  0  0  0  0
  5 21  1  0  0  0  0
  6 14  1  0  0  0  0
  6  7  1  0  0  0  0
  7  8  2  0  0  0  0
  7 22  1  0  0  0  0
  8  9  1  0  0  0  0
  8 23  1  0  0  0  0
  9 10  1  0  0  0  0
  9 14  2  0  0  0  0
 10 11  1  0  0  0  0
 10 12  1  0  0  0  0
 10 13  1  0  0  0  0
 15 16  1  0  0  0  0
 15 24  1  0  0  0  0
 16 18  1  0  0  0  0
 16 17  1  0  0  0  0
 16 25  1  0  0  0  0
 17 18  1  0  0  0  0
 17 26  1  0  0  0  0
 17 27  1  0  0  0  0
 18 28  1  0  0  0  0
 18 29  1  0  0  0  0
M  CHG  1   3  -1
M  END
> <s_m_source_file>
AV-unprocessed.smi

> <i_m_source_file_index>
1013

> <i_lp_mmshare_version>
43012

> <i_f3d_flags>
0

> <s_epik_input>
W0NIMl0xW0NIMl1bQ0hdMVtOSF1bQ0BIXShDKD1PKVtPSF0pW0NIMl1uMltjSF1bY0hdYyhuMilDKEYpKEYpRg==

> <s_epik_cmdline>
J2VwaWtfcHl0aG9uJywgJy1waCcsICc3LjAnLCAnLXRuJywgJzgnLCAnLW1hJywgJzIwMCcsICctbWV0YWxfYmluZGluZycsICctaW1hZScsICc8aW5maWxlLm1hZT4nLCAnLW9tYWUnLCAnPG91dGZpbGUubWFlPic=

> <r_lp_tautomer_probability>
1

> <r_epik_Ionization_Penalty>
0.786284

> <r_epik_Ionization_Penalty_Charging>
0.00153368

> <r_epik_Ionization_Penalty_Neutral>
0.78475

> <r_epik_State_Penalty>
0.814638

> <r_epik_Charging_Adjusted_Penalty>
0.816172

> <i_epik_Tot_Q>
-1

> <i_epik_Tot_abs_Q>
1

> <r_epik_Metal_State_Penalty>
0.814638

> <b_epik_Metal_Only>
0

> <s_lp_Force_Field>
OPLS_2005

> <r_lp_Energy>
17.111

> <b_lp_Chiralities_Consistent>
1

> <s_lp_Variant>
AV-unprocessed.smi:1013-4

> <Gold.Version>
5.8.1

> <Gold.Id.Protein>
6NUR|6NUR_protein|mol2

> <Gold.PLP.Fitness>
48.0626

> <Gold.PLP.PLP>
-39.9049

> <Gold.PLP.part.hbond>
-2.8129

> <Gold.PLP.part.metal>
0.0000

> <Gold.PLP.part.buried>
-2.1266

> <Gold.PLP.part.nonpolar>
-34.2838

> <Gold.PLP.part.repulsive>
0.0556

> <Gold.PLP.ligand.clash>
0.0000

> <Gold.PLP.ligand.torsion>
0.7550

> <Gold.PLP.Chemscore.Hbond>
3.0000

> <Gold.PLP.Chemscore.CHOScore>
0.0000

> <Gold.PLP.Chemscore.Metal>
0.0000

> <Gold.Chemscore.Hbonds>
donor molecule, donor type, donor heavy atom, donor atom, acceptor molecule, acceptor atom, score
      P1  H  7989  7998       L1     3  1.00
      P1  H  7997  8009       L1     1  1.79

> <Gold.PLP.Chemscore.Internal.Correction>
0.6677

> <Gold.Rescore>
     Score         DG    S(hbond)    S(metal)    S(lipo)     H(rot)  DE(clash)    DE(int)     intcor
     10.34     -13.90       1.94        0.00      71.69       2.52       0.95       2.61       ----

> <Gold.Chemscore.Fitness>
10.3390

> <Gold.Chemscore.DG>
-13.8991

> <Gold.Chemscore.ZeroCoef>
-5.4800

> <Gold.Chemscore.Hbond>
1.9375

> <Gold.Chemscore.Metal>
0.0000

> <Gold.Chemscore.Lipo>
71.6931

> <Gold.Chemscore.Internal_Hbond>
0.0000

> <Gold.Chemscore.DEClash>
0.9503

> <Gold.Chemscore.DEInternal>
2.6099

> <Gold.Chemscore.Rot>
2.5157

> <Gold.Chemscore.Internal.Correction>
   9.000000E+99

> <Gold.Chemscore.Hbonds>
donor molecule, donor type, donor heavy atom, donor atom, acceptor molecule, acceptor atom, score
      P1  H  7989  7998       L1     3  0.96
      P1  H  7997  8009       L1     1  0.84

> <Gold.Chemscore.Hbond.Weighted>
-6.4712

> <Gold.Chemscore.Metal.Weighted>
-0.0000

> <Gold.Chemscore.Lipo.Weighted>
-8.3881

> <Gold.Chemscore.Internal_Hbond.Weighted>
0.0000

> <Gold.Chemscore.DEClash.Weighted>
0.9503

> <Gold.Chemscore.DEInternal.Weighted>
2.6099

> <Gold.Chemscore.Rot.Weighted>
6.4402

> <Gold.Chemscore.Internal.Correction.Weighted>
   9.000000E+99

> <Gold.Protein.RotatedTorsions>
[ 6907 6896 6895 6894 ] final  169.21 input  -60.11 | X-H torsion
[ 7974 7965 7964 7962 ] final  122.32 input  175.53 | X-H torsion
[ 8008 7997 7996 7995 ] final  178.88 input   59.86 | X-H torsion
[ 10167 10162 10161 10158 ] final  153.26 input  -65.29 | X-H torsion
[ 10718 10713 10712 10709 ] final -146.18 input   66.30 | X-H torsion
[ 10763 10752 10751 10750 ] final   -6.38 input  -60.55 | X-H torsion
[ 11005 11000 10999 10996 ] final  -12.66 input  -57.11 | X-H torsion

> <Gold.Protein.ActiveResidues>
 VAL166  LYS551  ARG553  GLY616  TRP617  ASP618  TYR619  PRO620  LYS621  CYS622 
 ASP623  PHE694  ASN695  SER759  ASP760  ASP761  ALA762  ILE779  LEU786  VAL792 
 PHE793  MET794  SER795  GLU796  ALA797  LYS798  CYS799  TRP800  GLU811  SER814 

> <Gold.Protein.RotatedAtoms>
  151.8355  133.3415  159.3626 H   0  0  0  0  0  0  0  0  0  0  0  0  # atno 6907 bound_to 6896
  150.7251  134.5442  159.5771 H   0  0  0  0  0  0  0  0  0  0  0  0  # atno 6908 bound_to 6896
  152.2904  134.7728  160.0430 H   0  0  0  0  0  0  0  0  0  0  0  0  # atno 6909 bound_to 6896
  145.1090  139.3466  143.4773 H   0  0  0  0  0  0  0  0  0  0  0  0  # atno 7974 bound_to 7965
  156.0496  140.1322  157.0064 H   0  0  0  0  0  0  0  0  0  0  0  0  # atno 8008 bound_to 7997
  154.4429  140.1013  156.6428 H   0  0  0  0  0  0  0  0  0  0  0  0  # atno 8009 bound_to 7997
  155.5543  140.3463  155.4478 H   0  0  0  0  0  0  0  0  0  0  0  0  # atno 8010 bound_to 7997
  139.4828  144.5288  151.7757 H   0  0  0  0  0  0  0  0  0  0  0  0  # atno 10167 bound_to 10162
  156.3917  130.7889  151.2091 H   0  0  0  0  0  0  0  0  0  0  0  0  # atno 10718 bound_to 10713
  153.4116  135.7008  153.6355 H   0  0  0  0  0  0  0  0  0  0  0  0  # atno 10763 bound_to 10752
  153.4847  135.3686  155.2461 H   0  0  0  0  0  0  0  0  0  0  0  0  # atno 10764 bound_to 10752
  154.8717  135.4074  154.3469 H   0  0  0  0  0  0  0  0  0  0  0  0  # atno 10765 bound_to 10752
  140.7680  133.8461  155.9182 H   0  0  0  0  0  0  0  0  0  0  0  0  # atno 11005 bound_to 11000
  146.3527  140.1000  142.8608 LP  0  0  0  0  0  0  0  0  0  0  0  0  # atno 17320 bound_to 7965
  145.0869  140.9258  143.4792 LP  0  0  0  0  0  0  0  0  0  0  0  0  # atno 17321 bound_to 7965
  140.4811  144.1448  150.5933 LP  0  0  0  0  0  0  0  0  0  0  0  0  # atno 17342 bound_to 10162
  140.4276  143.2582  151.9636 LP  0  0  0  0  0  0  0  0  0  0  0  0  # atno 17343 bound_to 10162
  157.7499  131.0313  150.4178 LP  0  0  0  0  0  0  0  0  0  0  0  0  # atno 17370 bound_to 10713
  156.4441  130.3997  149.6678 LP  0  0  0  0  0  0  0  0  0  0  0  0  # atno 17371 bound_to 10713
  140.9601  134.1667  157.4661 LP  0  0  0  0  0  0  0  0  0  0  0  0  # atno 17394 bound_to 11000
  139.8760  134.9941  156.5679 LP  0  0  0  0  0  0  0  0  0  0  0  0  # atno 17395 bound_to 11000

$$$$
