AV-unprocessed.smi:1452|AV-procd|sdf|5907|dock5
  -GOLD-   22720 5593D 1   1.00000     0.00000
 Structure written by MMmdl.
 40 42  0  0  0  0  0  0  0  0  2 V2000
  150.6274  140.4552  155.9175 O   0  0  0  0  0  0  0  0  0  0  0  0
  149.9081  141.4465  155.8073 C   0  0  0  0  0  0  0  0  0  0  0  0
  150.0537  142.5131  156.6214 N   0  0  0  0  0  0  0  0  0  0  0  0
  150.9603  142.7525  157.6954 C   0  0  0  0  0  0  0  0  0  0  0  0
  151.4580  144.0735  157.7623 C   0  0  0  0  0  0  0  0  0  0  0  0
  152.3746  144.4217  158.7731 C   0  0  0  0  0  0  0  0  0  0  0  0
  152.7765  143.4366  159.6920 C   0  0  0  0  0  0  0  0  0  0  0  0
  152.2408  142.1434  159.5531 C   0  0  0  0  0  0  0  0  0  0  0  0
  151.3614  141.8082  158.5851 N   0  0  0  0  0  0  0  0  0  0  0  0
  148.9414  141.5402  154.8798 N   0  0  0  0  0  0  0  0  0  0  0  0
  148.5780  140.4905  153.9344 C   0  0  2  0  0  0  0  0  0  0  0  0
  147.3144  140.8029  153.1438 C   0  0  0  0  0  0  0  0  0  0  0  0
  146.8783  139.4265  152.6317 C   0  0  0  0  0  0  0  0  0  0  0  0
  147.4060  138.4237  153.5900 N   0  3  2  0  0  0  0  0  0  0  0  0
  146.3655  137.5258  154.1595 C   0  0  0  0  0  0  0  0  0  0  0  0
  146.8864  136.8032  155.4107 C   0  0  0  0  0  0  0  0  0  0  0  0
  147.2511  137.8000  156.5272 C   0  0  0  0  0  0  0  0  0  0  0  0
  147.5805  139.2024  155.9812 C   0  0  0  0  0  0  0  0  0  0  0  0
  148.2552  139.1341  154.5884 C   0  0  2  0  0  0  0  0  0  0  0  0
  149.4710  143.3033  156.3853 H   0  0  0  0  0  0  0  0  0  0  0  0
  151.1412  144.8194  157.0476 H   0  0  0  0  0  0  0  0  0  0  0  0
  152.7623  145.4275  158.8405 H   0  0  0  0  0  0  0  0  0  0  0  0
  153.4777  143.6655  160.4808 H   0  0  0  0  0  0  0  0  0  0  0  0
  152.5254  141.3566  160.2359 H   0  0  0  0  0  0  0  0  0  0  0  0
  148.3956  142.3905  154.8551 H   0  0  0  0  0  0  0  0  0  0  0  0
  149.3917  140.3533  153.2186 H   0  0  0  0  0  0  0  0  0  0  0  0
  146.5466  141.2123  153.8023 H   0  0  0  0  0  0  0  0  0  0  0  0
  147.4829  141.5187  152.3384 H   0  0  0  0  0  0  0  0  0  0  0  0
  145.7964  139.3718  152.5034 H   0  0  0  0  0  0  0  0  0  0  0  0
  147.3301  139.2295  151.6589 H   0  0  0  0  0  0  0  0  0  0  0  0
  145.4756  138.1000  154.4235 H   0  0  0  0  0  0  0  0  0  0  0  0
  146.0624  136.8066  153.3980 H   0  0  0  0  0  0  0  0  0  0  0  0
  146.1482  136.0887  155.7761 H   0  0  0  0  0  0  0  0  0  0  0  0
  147.7674  136.2188  155.1408 H   0  0  0  0  0  0  0  0  0  0  0  0
  146.4298  137.8820  157.2400 H   0  0  0  0  0  0  0  0  0  0  0  0
  148.1005  137.4084  157.0882 H   0  0  0  0  0  0  0  0  0  0  0  0
  146.6617  139.7863  155.9081 H   0  0  0  0  0  0  0  0  0  0  0  0
  148.2116  139.7230  156.7020 H   0  0  0  0  0  0  0  0  0  0  0  0
  149.1830  138.5713  154.7017 H   0  0  0  0  0  0  0  0  0  0  0  0
  148.0376  137.8366  153.0640 H   0  0  0  0  0  0  0  0  0  0  0  0
  1  2  2  0  0  0  0
  2  3  1  0  0  0  0
  2 10  1  0  0  0  0
  3  4  1  0  0  0  0
  3 20  1  0  0  0  0
  4  9  1  0  0  0  0
  4  5  2  0  0  0  0
  5  6  1  0  0  0  0
  5 21  1  0  0  0  0
  6  7  2  0  0  0  0
  6 22  1  0  0  0  0
  7  8  1  0  0  0  0
  7 23  1  0  0  0  0
  8  9  2  0  0  0  0
  8 24  1  0  0  0  0
 10 11  1  0  0  0  0
 10 25  1  0  0  0  0
 11 19  1  0  0  0  0
 11 12  1  0  0  0  0
 11 26  1  0  0  0  0
 12 13  1  0  0  0  0
 12 27  1  0  0  0  0
 12 28  1  0  0  0  0
 13 14  1  0  0  0  0
 13 29  1  0  0  0  0
 13 30  1  0  0  0  0
 14 19  1  0  0  0  0
 14 15  1  0  0  0  0
 14 40  1  0  0  0  0
 15 16  1  0  0  0  0
 15 31  1  0  0  0  0
 15 32  1  0  0  0  0
 16 17  1  0  0  0  0
 16 33  1  0  0  0  0
 16 34  1  0  0  0  0
 17 18  1  0  0  0  0
 17 35  1  0  0  0  0
 17 36  1  0  0  0  0
 18 19  1  0  0  0  0
 18 37  1  0  0  0  0
 18 38  1  0  0  0  0
 19 39  1  0  0  0  0
M  CHG  1  14   1
M  END
> <s_m_source_file>
AV-unprocessed.smi

> <i_m_source_file_index>
1452

> <i_lp_mmshare_version>
43012

> <i_f3d_flags>
0

> <s_epik_input>
W0NIMl0xW0NIMl1bQ0gyXVtDSDJdW0NASF0oTjEyKVtDQEBIXShbQ0gyXVtDSDJdMilbTkhdQyg9TylbTkhdYzNbY0hdW2NIXVtjSF1bY0hdbjM=

> <s_epik_cmdline>
J2VwaWtfcHl0aG9uJywgJy1waCcsICc3LjAnLCAnLXRuJywgJzgnLCAnLW1hJywgJzIwMCcsICctbWV0YWxfYmluZGluZycsICctaW1hZScsICc8aW5maWxlLm1hZT4nLCAnLW9tYWUnLCAnPG91dGZpbGUubWFlPic=

> <r_epik_Ionization_Penalty>
0.00100813

> <r_epik_Ionization_Penalty_Charging>
0.000974069

> <r_epik_Ionization_Penalty_Neutral>
3.40643e-05

> <r_epik_State_Penalty>
0.000633842

> <r_epik_Charging_Adjusted_Penalty>
0.00160791

> <i_epik_Tot_Q>
1

> <i_epik_Tot_abs_Q>
1

> <r_epik_Metal_State_Penalty>
-0

> <b_epik_Metal_Only>
0

> <s_lp_Force_Field>
OPLS_2005

> <r_lp_Energy>
44.9795

> <b_lp_Chiralities_Consistent>
1

> <s_lp_Variant>
AV-unprocessed.smi:1452-5

> <Gold.Version>
5.8.1

> <Gold.Id.Protein>
6NUR|6NUR_protein|mol2

> <Gold.PLP.Fitness>
45.1335

> <Gold.PLP.PLP>
-34.9169

> <Gold.PLP.part.hbond>
-3.3639

> <Gold.PLP.part.metal>
0.0000

> <Gold.PLP.part.buried>
-1.0580

> <Gold.PLP.part.nonpolar>
-31.1239

> <Gold.PLP.part.repulsive>
0.3387

> <Gold.PLP.ligand.clash>
0.0000

> <Gold.PLP.ligand.torsion>
0.3440

> <Gold.PLP.Chemscore.Hbond>
3.6339

> <Gold.PLP.Chemscore.CHOScore>
0.0000

> <Gold.PLP.Chemscore.Metal>
0.0000

> <Gold.Chemscore.Hbonds>
donor molecule, donor type, donor heavy atom, donor atom, acceptor molecule, acceptor atom, score
      L1  H     3    20       P1  8028  1.00
      L1  H    14    40       P1  7948  1.17

> <Gold.PLP.Chemscore.Internal.Correction>
0.0029

> <Gold.Rescore>
     Score         DG    S(hbond)    S(metal)    S(lipo)     H(rot)  DE(clash)    DE(int)     intcor
     17.00     -19.76       2.02        0.00      86.25       1.00       0.80       1.97       ----

> <Gold.Chemscore.Fitness>
16.9990

> <Gold.Chemscore.DG>
-19.7635

> <Gold.Chemscore.ZeroCoef>
-5.4800

> <Gold.Chemscore.Hbond>
2.0216

> <Gold.Chemscore.Metal>
0.0000

> <Gold.Chemscore.Lipo>
86.2507

> <Gold.Chemscore.Internal_Hbond>
0.0000

> <Gold.Chemscore.DEClash>
0.7960

> <Gold.Chemscore.DEInternal>
1.9685

> <Gold.Chemscore.Rot>
1.0000

> <Gold.Chemscore.Internal.Correction>
   9.000000E+99

> <Gold.Chemscore.Hbonds>
donor molecule, donor type, donor heavy atom, donor atom, acceptor molecule, acceptor atom, score
      L1  H     3    20       P1  8028  1.00
      L1  H    10    25       P1  8028  0.01
      L1  H    14    40       P1  7948  0.58

> <Gold.Chemscore.Hbond.Weighted>
-6.7522

> <Gold.Chemscore.Metal.Weighted>
-0.0000

> <Gold.Chemscore.Lipo.Weighted>
-10.0913

> <Gold.Chemscore.Internal_Hbond.Weighted>
0.0000

> <Gold.Chemscore.DEClash.Weighted>
0.7960

> <Gold.Chemscore.DEInternal.Weighted>
1.9685

> <Gold.Chemscore.Rot.Weighted>
2.5600

> <Gold.Chemscore.Internal.Correction.Weighted>
   9.000000E+99

> <Gold.Protein.RotatedTorsions>
[ 6907 6896 6895 6894 ] final  116.38 input  -60.11 | X-H torsion
[ 7974 7965 7964 7962 ] final   68.82 input  175.53 | X-H torsion
[ 8008 7997 7996 7995 ] final   53.32 input   59.86 | X-H torsion
[ 10167 10162 10161 10158 ] final  -76.57 input  -65.29 | X-H torsion
[ 10718 10713 10712 10709 ] final   50.56 input   66.30 | X-H torsion
[ 10763 10752 10751 10750 ] final  -42.57 input  -60.55 | X-H torsion
[ 11005 11000 10999 10996 ] final   48.03 input  -57.11 | X-H torsion

> <Gold.Protein.ActiveResidues>
 VAL166  LYS551  ARG553  GLY616  TRP617  ASP618  TYR619  PRO620  LYS621  CYS622 
 ASP623  PHE694  ASN695  SER759  ASP760  ASP761  ALA762  ILE779  LEU786  VAL792 
 PHE793  MET794  SER795  GLU796  ALA797  LYS798  CYS799  TRP800  GLU811  SER814 

> <Gold.Protein.RotatedAtoms>
  152.4682  133.7969  159.6931 H   0  0  0  0  0  0  0  0  0  0  0  0  # atno 6907 bound_to 6896
  150.8657  133.7569  159.2984 H   0  0  0  0  0  0  0  0  0  0  0  0  # atno 6908 bound_to 6896
  151.5120  135.1068  159.9908 H   0  0  0  0  0  0  0  0  0  0  0  0  # atno 6909 bound_to 6896
  145.7979  139.2967  143.1172 H   0  0  0  0  0  0  0  0  0  0  0  0  # atno 7974 bound_to 7965
  155.4663  140.3463  155.4319 H   0  0  0  0  0  0  0  0  0  0  0  0  # atno 8008 bound_to 7997
  156.1129  140.1466  156.9343 H   0  0  0  0  0  0  0  0  0  0  0  0  # atno 8009 bound_to 7997
  154.4769  140.0882  156.7261 H   0  0  0  0  0  0  0  0  0  0  0  0  # atno 8010 bound_to 7997
  140.4845  143.2394  151.8005 H   0  0  0  0  0  0  0  0  0  0  0  0  # atno 10167 bound_to 10162
  157.4896  130.8367  149.8187 H   0  0  0  0  0  0  0  0  0  0  0  0  # atno 10718 bound_to 10713
  153.9812  135.6716  153.4750 H   0  0  0  0  0  0  0  0  0  0  0  0  # atno 10763 bound_to 10752
  153.0747  135.4955  154.8376 H   0  0  0  0  0  0  0  0  0  0  0  0  # atno 10764 bound_to 10752
  154.7163  135.3108  154.9080 H   0  0  0  0  0  0  0  0  0  0  0  0  # atno 10765 bound_to 10752
  140.1226  134.4809  155.8585 H   0  0  0  0  0  0  0  0  0  0  0  0  # atno 11005 bound_to 11000
  145.9909  140.8604  143.0067 LP  0  0  0  0  0  0  0  0  0  0  0  0  # atno 17320 bound_to 7965
  144.6772  140.2214  143.7366 LP  0  0  0  0  0  0  0  0  0  0  0  0  # atno 17321 bound_to 7965
  139.4839  144.4729  151.9403 LP  0  0  0  0  0  0  0  0  0  0  0  0  # atno 17342 bound_to 10162
  140.3815  144.2730  150.5908 LP  0  0  0  0  0  0  0  0  0  0  0  0  # atno 17343 bound_to 10162
  156.0166  130.3811  150.2092 LP  0  0  0  0  0  0  0  0  0  0  0  0  # atno 17370 bound_to 10713
  157.0280  130.9999  151.3320 LP  0  0  0  0  0  0  0  0  0  0  0  0  # atno 17371 bound_to 10713
  141.2155  133.6766  156.6918 LP  0  0  0  0  0  0  0  0  0  0  0  0  # atno 17394 bound_to 11000
  140.2945  134.8214  157.4045 LP  0  0  0  0  0  0  0  0  0  0  0  0  # atno 17395 bound_to 11000

$$$$
