AV-unprocessed.smi:1151|AV-procd|sdf|4895|dock8
  -GOLD-   22720 3473D 1   1.00000     0.00000
 Structure written by MMmdl.
 35 36  0  0  0  0  0  0  0  0  1 V2000
  152.5046  143.8925  161.7374 C   0  0  0  0  0  0  0  0  0  0  0  0
  151.9833  143.8930  160.3415 C   0  0  0  0  0  0  0  0  0  0  0  0
  151.3969  142.8364  159.7728 N   0  0  0  0  0  0  0  0  0  0  0  0
  150.9977  143.0870  158.4564 C   0  0  0  0  0  0  0  0  0  0  0  0
  150.3049  142.0165  157.6637 C   0  0  0  0  0  0  0  0  0  0  0  0
  150.6910  142.0077  156.1702 C   0  0  0  0  0  0  0  0  0  0  0  0
  149.5343  141.9724  155.2796 N   0  0  0  0  0  0  0  0  0  0  0  0
  149.2521  140.9860  154.4149 C   0  0  0  0  0  0  0  0  0  0  0  0
  149.9448  139.9738  154.3070 O   0  0  0  0  0  0  0  0  0  0  0  0
  148.0139  141.1959  153.5221 C   0  0  2  0  0  0  0  0  0  0  0  0
  147.1732  142.4171  153.9409 C   0  0  0  0  0  0  0  0  0  0  0  0
  146.4001  142.2111  155.2583 C   0  0  0  0  0  0  0  0  0  0  0  0
  145.7699  140.8173  155.4017 C   0  0  0  0  0  0  0  0  0  0  0  0
  144.9170  140.6277  156.2656 O   0  0  0  0  0  0  0  0  0  0  0  0
  146.1962  139.8203  154.6068 N   0  0  0  0  0  0  0  0  0  0  0  0
  147.1086  139.9460  153.4694 C   0  0  0  0  0  0  0  0  0  0  0  0
  151.2971  144.3580  158.0324 C   0  0  0  0  0  0  0  0  0  0  0  0
  152.0847  145.2891  159.2752 S   0  0  0  0  0  0  0  0  0  0  0  0
  152.0061  143.1260  162.3315 H   0  0  0  0  0  0  0  0  0  0  0  0
  152.3302  144.8624  162.2037 H   0  0  0  0  0  0  0  0  0  0  0  0
  153.5761  143.6925  161.7339 H   0  0  0  0  0  0  0  0  0  0  0  0
  150.5295  141.0409  158.0960 H   0  0  0  0  0  0  0  0  0  0  0  0
  149.2237  142.1279  157.7512 H   0  0  0  0  0  0  0  0  0  0  0  0
  151.3230  142.8651  155.9340 H   0  0  0  0  0  0  0  0  0  0  0  0
  151.2862  141.1191  155.9585 H   0  0  0  0  0  0  0  0  0  0  0  0
  148.9185  142.7724  155.3035 H   0  0  0  0  0  0  0  0  0  0  0  0
  148.3783  141.3763  152.5092 H   0  0  0  0  0  0  0  0  0  0  0  0
  147.8084  143.2997  154.0247 H   0  0  0  0  0  0  0  0  0  0  0  0
  146.4603  142.6418  153.1462 H   0  0  0  0  0  0  0  0  0  0  0  0
  147.0708  142.3576  156.1051 H   0  0  0  0  0  0  0  0  0  0  0  0
  145.6226  142.9697  155.3523 H   0  0  0  0  0  0  0  0  0  0  0  0
  145.7943  138.9064  154.7591 H   0  0  0  0  0  0  0  0  0  0  0  0
  146.5020  139.9772  152.5637 H   0  0  0  0  0  0  0  0  0  0  0  0
  147.7081  139.0373  153.3993 H   0  0  0  0  0  0  0  0  0  0  0  0
  151.0948  144.8019  157.0688 H   0  0  0  0  0  0  0  0  0  0  0  0
  1  2  1  0  0  0  0
  1 19  1  0  0  0  0
  1 20  1  0  0  0  0
  1 21  1  0  0  0  0
  2 18  1  0  0  0  0
  2  3  2  0  0  0  0
  3  4  1  0  0  0  0
  4  5  1  0  0  0  0
  4 17  2  0  0  0  0
  5  6  1  0  0  0  0
  5 22  1  0  0  0  0
  5 23  1  0  0  0  0
  6  7  1  0  0  0  0
  6 24  1  0  0  0  0
  6 25  1  0  0  0  0
  7  8  1  0  0  0  0
  7 26  1  0  0  0  0
  8  9  2  0  0  0  0
  8 10  1  0  0  0  0
 10 16  1  0  0  0  0
 10 11  1  0  0  0  0
 10 27  1  0  0  0  0
 11 12  1  0  0  0  0
 11 28  1  0  0  0  0
 11 29  1  0  0  0  0
 12 13  1  0  0  0  0
 12 30  1  0  0  0  0
 12 31  1  0  0  0  0
 13 14  2  0  0  0  0
 13 15  1  0  0  0  0
 15 16  1  0  0  0  0
 15 32  1  0  0  0  0
 16 33  1  0  0  0  0
 16 34  1  0  0  0  0
 17 18  1  0  0  0  0
 17 35  1  0  0  0  0
M  END
> <s_m_source_file>
AV-unprocessed.smi

> <i_m_source_file_index>
1151

> <i_lp_mmshare_version>
43012

> <i_f3d_flags>
0

> <s_epik_input>
W0NIM11jMW5jKFtjSF1zMSlbQ0gyXVtDSDJdW05IXUMoPU8pW0NAQEhdMltDSDJdW0NIMl1DKD1PKVtOSF1bQ0gyXTI=

> <s_epik_cmdline>
J2VwaWtfcHl0aG9uJywgJy1waCcsICc3LjAnLCAnLXRuJywgJzgnLCAnLW1hJywgJzIwMCcsICctbWV0YWxfYmluZGluZycsICctaW1hZScsICc8aW5maWxlLm1hZT4nLCAnLW9tYWUnLCAnPG91dGZpbGUubWFlPic=

> <r_epik_Ionization_Penalty>
0.00105008

> <r_epik_Ionization_Penalty_Charging>
0

> <r_epik_Ionization_Penalty_Neutral>
0.00105008

> <r_epik_State_Penalty>
0.000686749

> <r_epik_Charging_Adjusted_Penalty>
0.000686749

> <i_epik_Tot_Q>
0

> <i_epik_Tot_abs_Q>
0

> <r_epik_Metal_State_Penalty>
-0

> <b_epik_Metal_Only>
0

> <s_lp_Force_Field>
OPLS_2005

> <r_lp_Energy>
5.23985

> <b_lp_Chiralities_Consistent>
1

> <s_lp_Variant>
AV-unprocessed.smi:1151-1

> <Gold.Version>
5.8.1

> <Gold.Id.Protein>
6NUR|6NUR_protein|mol2

> <Gold.PLP.Fitness>
46.4554

> <Gold.PLP.PLP>
-39.8454

> <Gold.PLP.part.hbond>
-2.4350

> <Gold.PLP.part.metal>
0.0000

> <Gold.PLP.part.buried>
-5.1577

> <Gold.PLP.part.nonpolar>
-32.1800

> <Gold.PLP.part.repulsive>
0.3786

> <Gold.PLP.ligand.clash>
0.0000

> <Gold.PLP.ligand.torsion>
0.9024

> <Gold.PLP.Chemscore.Hbond>
1.8160

> <Gold.PLP.Chemscore.CHOScore>
0.9794

> <Gold.PLP.Chemscore.Metal>
0.0000

> <Gold.Chemscore.Hbonds>
donor molecule, donor type, donor heavy atom, donor atom, acceptor molecule, acceptor atom, score
      L1  H     7    26       P1  8028  0.86
      P1  H  7989  7998       L1     9  0.77
      L1  C    17    35       P1  8028  0.87

> <Gold.PLP.Chemscore.Internal.Correction>
0.0286

> <Gold.Rescore>
     Score         DG    S(hbond)    S(metal)    S(lipo)     H(rot)  DE(clash)    DE(int)     intcor
     16.09     -17.14       1.23        0.00     101.65       1.70       0.24       0.81       ----

> <Gold.Chemscore.Fitness>
16.0944

> <Gold.Chemscore.DG>
-17.1399

> <Gold.Chemscore.ZeroCoef>
-5.4800

> <Gold.Chemscore.Hbond>
1.2314

> <Gold.Chemscore.Metal>
0.0000

> <Gold.Chemscore.Lipo>
101.6530

> <Gold.Chemscore.Internal_Hbond>
0.0000

> <Gold.Chemscore.DEClash>
0.2381

> <Gold.Chemscore.DEInternal>
0.8074

> <Gold.Chemscore.Rot>
1.6978

> <Gold.Chemscore.Internal.Correction>
   9.000000E+99

> <Gold.Chemscore.Hbonds>
donor molecule, donor type, donor heavy atom, donor atom, acceptor molecule, acceptor atom, score
      L1  H     7    26       P1  8028  0.83
      P1  H  7989  7998       L1     9  0.12

> <Gold.Chemscore.Hbond.Weighted>
-4.1128

> <Gold.Chemscore.Metal.Weighted>
-0.0000

> <Gold.Chemscore.Lipo.Weighted>
-11.8934

> <Gold.Chemscore.Internal_Hbond.Weighted>
0.0000

> <Gold.Chemscore.DEClash.Weighted>
0.2381

> <Gold.Chemscore.DEInternal.Weighted>
0.8074

> <Gold.Chemscore.Rot.Weighted>
4.3463

> <Gold.Chemscore.Internal.Correction.Weighted>
   9.000000E+99

> <Gold.Protein.RotatedTorsions>
[ 6907 6896 6895 6894 ] final   39.89 input  -60.11 | X-H torsion
[ 7974 7965 7964 7962 ] final   84.54 input  175.53 | X-H torsion
[ 8008 7997 7996 7995 ] final -104.05 input   59.86 | X-H torsion
[ 10167 10162 10161 10158 ] final   98.40 input  -65.29 | X-H torsion
[ 10718 10713 10712 10709 ] final -166.05 input   66.30 | X-H torsion
[ 10763 10752 10751 10750 ] final  168.35 input  -60.55 | X-H torsion
[ 11005 11000 10999 10996 ] final -132.57 input  -57.11 | X-H torsion

> <Gold.Protein.ActiveResidues>
 VAL166  LYS551  ARG553  GLY616  TRP617  ASP618  TYR619  PRO620  LYS621  CYS622 
 ASP623  PHE694  ASN695  SER759  ASP760  ASP761  ALA762  ILE779  LEU786  VAL792 
 PHE793  MET794  SER795  GLU796  ALA797  LYS798  CYS799  TRP800  GLU811  SER814 

> <Gold.Protein.RotatedAtoms>
  152.1754  134.8799  160.0530 H   0  0  0  0  0  0  0  0  0  0  0  0  # atno 6907 bound_to 6896
  151.9744  133.3731  159.4091 H   0  0  0  0  0  0  0  0  0  0  0  0  # atno 6908 bound_to 6896
  150.6908  134.4029  159.5171 H   0  0  0  0  0  0  0  0  0  0  0  0  # atno 6909 bound_to 6896
  145.5973  139.2347  143.2265 H   0  0  0  0  0  0  0  0  0  0  0  0  # atno 7974 bound_to 7965
  154.8797  140.0420  157.1774 H   0  0  0  0  0  0  0  0  0  0  0  0  # atno 8008 bound_to 7997
  154.8652  140.2950  155.5493 H   0  0  0  0  0  0  0  0  0  0  0  0  # atno 8009 bound_to 7997
  156.2999  140.2439  156.3633 H   0  0  0  0  0  0  0  0  0  0  0  0  # atno 8010 bound_to 7997
  139.7712  144.6922  151.0153 H   0  0  0  0  0  0  0  0  0  0  0  0  # atno 10167 bound_to 10162
  156.6623  130.9051  151.3031 H   0  0  0  0  0  0  0  0  0  0  0  0  # atno 10718 bound_to 10713
  154.3672  135.2753  155.2286 H   0  0  0  0  0  0  0  0  0  0  0  0  # atno 10763 bound_to 10752
  154.4449  135.5945  153.6157 H   0  0  0  0  0  0  0  0  0  0  0  0  # atno 10764 bound_to 10752
  152.9840  135.6028  154.3900 H   0  0  0  0  0  0  0  0  0  0  0  0  # atno 10765 bound_to 10752
  140.9159  134.1508  157.4353 H   0  0  0  0  0  0  0  0  0  0  0  0  # atno 11005 bound_to 11000
  146.1602  140.6799  142.9281 LP  0  0  0  0  0  0  0  0  0  0  0  0  # atno 17320 bound_to 7965
  144.7325  140.4713  143.6927 LP  0  0  0  0  0  0  0  0  0  0  0  0  # atno 17321 bound_to 7965
  140.7814  143.4586  151.0309 LP  0  0  0  0  0  0  0  0  0  0  0  0  # atno 17342 bound_to 10162
  139.8270  143.7742  152.3179 LP  0  0  0  0  0  0  0  0  0  0  0  0  # atno 17343 bound_to 10162
  157.7105  130.9435  150.1074 LP  0  0  0  0  0  0  0  0  0  0  0  0  # atno 17370 bound_to 10713
  156.2001  130.3660  149.8799 LP  0  0  0  0  0  0  0  0  0  0  0  0  # atno 17371 bound_to 10713
  139.8766  134.9953  156.5737 LP  0  0  0  0  0  0  0  0  0  0  0  0  # atno 17394 bound_to 11000
  140.8051  133.8474  155.8760 LP  0  0  0  0  0  0  0  0  0  0  0  0  # atno 17395 bound_to 11000

$$$$
