AV-unprocessed.smi:2695|AV-procd|sdf|10407|dock4
  -GOLD-   2272014443D 1   1.00000     0.00000
 Structure written by MMmdl.
 41 42  0  0  0  0  0  0  0  0  2 V2000
  152.7329  142.7943  159.3769 C   0  0  0  0  0  0  0  0  0  0  0  0
  153.1778  141.4441  159.9263 C   0  0  0  0  0  0  0  0  0  0  0  0
  154.2613  141.3541  160.7288 C   0  0  0  0  0  0  0  0  0  0  0  0
  154.6722  140.1425  161.2689 C   0  0  0  0  0  0  0  0  0  0  0  0
  155.6761  140.0531  162.0096 O   0  5  0  0  0  0  0  0  0  0  0  0
  153.8968  139.0381  160.9401 C   0  0  0  0  0  0  0  0  0  0  0  0
  152.7153  139.0735  160.0867 C   0  0  0  0  0  0  0  0  0  0  0  0
  152.0550  138.0626  159.8397 O   0  0  0  0  0  0  0  0  0  0  0  0
  152.4054  140.3021  159.5848 N   0  0  0  0  0  0  0  0  0  0  0  0
  151.2504  140.4210  158.6652 C   0  0  0  0  0  0  0  0  0  0  0  0
  151.3449  139.5057  157.4352 C   0  0  0  0  0  0  0  0  0  0  0  0
  152.3204  139.5488  156.6844 O   0  0  0  0  0  0  0  0  0  0  0  0
  150.3086  138.6733  157.2522 N   0  0  0  0  0  0  0  0  0  0  0  0
  150.1481  137.7231  156.1500 C   0  0  2  0  0  0  0  0  0  0  0  0
  149.1506  138.3043  155.1146 C   0  0  0  0  0  0  0  0  0  0  0  0
  149.5976  139.6067  154.4397 C   0  0  0  0  0  0  0  0  0  0  0  0
  148.3186  140.2301  153.8710 C   0  0  0  0  0  0  0  0  0  0  0  0
  147.1553  139.6424  154.6821 C   0  0  0  0  0  0  0  0  0  0  0  0
  147.7841  138.6871  155.7010 C   0  0  0  0  0  0  0  0  0  0  0  0
  149.7251  136.3540  156.7302 C   0  0  0  0  0  0  0  0  0  0  0  0
  150.7347  135.8270  157.4241 F   0  0  0  0  0  0  0  0  0  0  0  0
  148.6750  136.4898  157.5412 F   0  0  0  0  0  0  0  0  0  0  0  0
  149.4120  135.4987  155.7579 F   0  0  0  0  0  0  0  0  0  0  0  0
  153.2562  143.6080  159.8804 H   0  0  0  0  0  0  0  0  0  0  0  0
  151.6670  142.9623  159.5311 H   0  0  0  0  0  0  0  0  0  0  0  0
  152.9577  142.8694  158.3128 H   0  0  0  0  0  0  0  0  0  0  0  0
  154.8195  142.2506  160.9588 H   0  0  0  0  0  0  0  0  0  0  0  0
  154.1791  138.0755  161.3415 H   0  0  0  0  0  0  0  0  0  0  0  0
  150.3005  140.2412  159.1653 H   0  0  0  0  0  0  0  0  0  0  0  0
  151.1565  141.4517  158.3171 H   0  0  0  0  0  0  0  0  0  0  0  0
  149.5599  138.7049  157.9288 H   0  0  0  0  0  0  0  0  0  0  0  0
  151.1061  137.5804  155.6471 H   0  0  0  0  0  0  0  0  0  0  0  0
  148.9789  137.5616  154.3336 H   0  0  0  0  0  0  0  0  0  0  0  0
  150.0298  140.2797  155.1815 H   0  0  0  0  0  0  0  0  0  0  0  0
  150.3456  139.4449  153.6632 H   0  0  0  0  0  0  0  0  0  0  0  0
  148.3474  141.3187  153.9267 H   0  0  0  0  0  0  0  0  0  0  0  0
  148.2064  139.9614  152.8199 H   0  0  0  0  0  0  0  0  0  0  0  0
  146.5677  140.4176  155.1749 H   0  0  0  0  0  0  0  0  0  0  0  0
  146.4832  139.0956  154.0192 H   0  0  0  0  0  0  0  0  0  0  0  0
  147.1510  137.8203  155.8946 H   0  0  0  0  0  0  0  0  0  0  0  0
  147.9221  139.2092  156.6493 H   0  0  0  0  0  0  0  0  0  0  0  0
  1  2  1  0  0  0  0
  1 24  1  0  0  0  0
  1 25  1  0  0  0  0
  1 26  1  0  0  0  0
  2  9  1  0  0  0  0
  2  3  2  0  0  0  0
  3  4  1  0  0  0  0
  3 27  1  0  0  0  0
  4  5  1  0  0  0  0
  4  6  2  0  0  0  0
  6  7  1  0  0  0  0
  6 28  1  0  0  0  0
  7  8  2  0  0  0  0
  7  9  1  0  0  0  0
  9 10  1  0  0  0  0
 10 11  1  0  0  0  0
 10 29  1  0  0  0  0
 10 30  1  0  0  0  0
 11 12  2  0  0  0  0
 11 13  1  0  0  0  0
 13 14  1  0  0  0  0
 13 31  1  0  0  0  0
 14 15  1  0  0  0  0
 14 20  1  0  0  0  0
 14 32  1  0  0  0  0
 15 19  1  0  0  0  0
 15 16  1  0  0  0  0
 15 33  1  0  0  0  0
 16 17  1  0  0  0  0
 16 34  1  0  0  0  0
 16 35  1  0  0  0  0
 17 18  1  0  0  0  0
 17 36  1  0  0  0  0
 17 37  1  0  0  0  0
 18 19  1  0  0  0  0
 18 38  1  0  0  0  0
 18 39  1  0  0  0  0
 19 40  1  0  0  0  0
 19 41  1  0  0  0  0
 20 21  1  0  0  0  0
 20 22  1  0  0  0  0
 20 23  1  0  0  0  0
M  CHG  1   5  -1
M  END
> <s_m_source_file>
AV-unprocessed.smi

> <i_m_source_file_index>
2695

> <i_lp_mmshare_version>
43012

> <i_f3d_flags>
0

> <s_epik_input>
W0NIM11jMVtjSF1jKFtPSF0pW2NIXWMoPU8pbjFbQ0gyXUMoPU8pW05IXVtDQEBIXShDKEYpKEYpRilbQ0hdMltDSDJdW0NIMl1bQ0gyXVtDSDJdMg==

> <s_epik_cmdline>
J2VwaWtfcHl0aG9uJywgJy1waCcsICc3LjAnLCAnLXRuJywgJzgnLCAnLW1hJywgJzIwMCcsICctbWV0YWxfYmluZGluZycsICctaW1hZScsICc8aW5maWxlLm1hZT4nLCAnLW9tYWUnLCAnPG91dGZpbGUubWFlPic=

> <r_lp_tautomer_probability>
1

> <r_epik_Ionization_Penalty>
0.176977

> <r_epik_Ionization_Penalty_Charging>
0.176977

> <r_epik_Ionization_Penalty_Neutral>
1.44272e-07

> <r_epik_State_Penalty>
0.160849

> <r_epik_Charging_Adjusted_Penalty>
0.337826

> <i_epik_Tot_Q>
-1

> <i_epik_Tot_abs_Q>
1

> <r_epik_Metal_State_Penalty>
0.16085

> <b_epik_Metal_Only>
0

> <s_lp_Force_Field>
OPLS_2005

> <r_lp_Energy>
43.1089

> <b_lp_Chiralities_Consistent>
1

> <s_lp_Variant>
AV-unprocessed.smi:2695-1

> <Gold.Version>
5.8.1

> <Gold.Id.Protein>
6NUR|6NUR_protein|mol2

> <Gold.PLP.Fitness>
37.1781

> <Gold.PLP.PLP>
-34.6124

> <Gold.PLP.part.hbond>
-2.0000

> <Gold.PLP.part.metal>
0.0000

> <Gold.PLP.part.buried>
-3.1383

> <Gold.PLP.part.nonpolar>
-29.1084

> <Gold.PLP.part.repulsive>
0.0000

> <Gold.PLP.ligand.clash>
0.0000

> <Gold.PLP.ligand.torsion>
0.3806

> <Gold.PLP.Chemscore.Hbond>
1.0000

> <Gold.PLP.Chemscore.CHOScore>
0.0000

> <Gold.PLP.Chemscore.Metal>
0.0000

> <Gold.Chemscore.Hbonds>
donor molecule, donor type, donor heavy atom, donor atom, acceptor molecule, acceptor atom, score
      P1  H  7997  8009       L1    12  0.81

> <Gold.PLP.Chemscore.Internal.Correction>
0.3268

> <Gold.Rescore>
     Score         DG    S(hbond)    S(metal)    S(lipo)     H(rot)  DE(clash)    DE(int)     intcor
     13.13     -13.75       1.00        0.00      80.56       1.75       0.01       0.62       ----

> <Gold.Chemscore.Fitness>
13.1268

> <Gold.Chemscore.DG>
-13.7503

> <Gold.Chemscore.ZeroCoef>
-5.4800

> <Gold.Chemscore.Hbond>
0.9985

> <Gold.Chemscore.Metal>
0.0000

> <Gold.Chemscore.Lipo>
80.5573

> <Gold.Chemscore.Internal_Hbond>
0.0000

> <Gold.Chemscore.DEClash>
0.0055

> <Gold.Chemscore.DEInternal>
0.6180

> <Gold.Chemscore.Rot>
1.7539

> <Gold.Chemscore.Internal.Correction>
   9.000000E+99

> <Gold.Chemscore.Hbonds>
donor molecule, donor type, donor heavy atom, donor atom, acceptor molecule, acceptor atom, score
      P1  H  7997  8009       L1    12  0.80

> <Gold.Chemscore.Hbond.Weighted>
-3.3350

> <Gold.Chemscore.Metal.Weighted>
-0.0000

> <Gold.Chemscore.Lipo.Weighted>
-9.4252

> <Gold.Chemscore.Internal_Hbond.Weighted>
0.0000

> <Gold.Chemscore.DEClash.Weighted>
0.0055

> <Gold.Chemscore.DEInternal.Weighted>
0.6180

> <Gold.Chemscore.Rot.Weighted>
4.4899

> <Gold.Chemscore.Internal.Correction.Weighted>
   9.000000E+99

> <Gold.Protein.RotatedTorsions>
[ 6907 6896 6895 6894 ] final -106.31 input  -60.11 | X-H torsion
[ 7974 7965 7964 7962 ] final  -67.96 input  175.53 | X-H torsion
[ 8008 7997 7996 7995 ] final -171.51 input   59.86 | X-H torsion
[ 10167 10162 10161 10158 ] final   10.31 input  -65.29 | X-H torsion
[ 10718 10713 10712 10709 ] final -123.85 input   66.30 | X-H torsion
[ 10763 10752 10751 10750 ] final   31.28 input  -60.55 | X-H torsion
[ 11005 11000 10999 10996 ] final   90.85 input  -57.11 | X-H torsion

> <Gold.Protein.ActiveResidues>
 VAL166  LYS551  ARG553  GLY616  TRP617  ASP618  TYR619  PRO620  LYS621  CYS622 
 ASP623  PHE694  ASN695  SER759  ASP760  ASP761  ALA762  ILE779  LEU786  VAL792 
 PHE793  MET794  SER795  GLU796  ALA797  LYS798  CYS799  TRP800  GLU811  SER814 

> <Gold.Protein.RotatedAtoms>
  150.7382  133.9996  159.3633 H   0  0  0  0  0  0  0  0  0  0  0  0  # atno 6907 bound_to 6896
  151.7949  135.0723  160.0401 H   0  0  0  0  0  0  0  0  0  0  0  0  # atno 6908 bound_to 6896
  152.3182  133.5788  159.5762 H   0  0  0  0  0  0  0  0  0  0  0  0  # atno 6909 bound_to 6896
  145.7226  140.9032  143.0622 H   0  0  0  0  0  0  0  0  0  0  0  0  # atno 7974 bound_to 7965
  155.9325  140.1094  157.1121 H   0  0  0  0  0  0  0  0  0  0  0  0  # atno 8008 bound_to 7997
  154.4073  140.1235  156.4887 H   0  0  0  0  0  0  0  0  0  0  0  0  # atno 8009 bound_to 7997
  155.7062  140.3471  155.4956 H   0  0  0  0  0  0  0  0  0  0  0  0  # atno 8010 bound_to 7997
  140.6202  143.8221  150.7166 H   0  0  0  0  0  0  0  0  0  0  0  0  # atno 10167 bound_to 10162
  156.1537  130.6552  150.9950 H   0  0  0  0  0  0  0  0  0  0  0  0  # atno 10718 bound_to 10713
  153.0324  135.6443  154.1174 H   0  0  0  0  0  0  0  0  0  0  0  0  # atno 10763 bound_to 10752
  154.0894  135.2867  155.3276 H   0  0  0  0  0  0  0  0  0  0  0  0  # atno 10764 bound_to 10752
  154.6475  135.5438  153.7925 H   0  0  0  0  0  0  0  0  0  0  0  0  # atno 10765 bound_to 10752
  139.8849  134.8639  156.3344 H   0  0  0  0  0  0  0  0  0  0  0  0  # atno 11005 bound_to 11000
  144.6913  139.9222  143.7468 LP  0  0  0  0  0  0  0  0  0  0  0  0  # atno 17320 bound_to 7965
  146.0612  139.3605  143.0580 LP  0  0  0  0  0  0  0  0  0  0  0  0  # atno 17321 bound_to 7965
  140.1810  143.4115  152.1933 LP  0  0  0  0  0  0  0  0  0  0  0  0  # atno 17342 bound_to 10162
  139.5432  144.7275  151.4667 LP  0  0  0  0  0  0  0  0  0  0  0  0  # atno 17343 bound_to 10162
  157.6677  131.0868  150.7687 LP  0  0  0  0  0  0  0  0  0  0  0  0  # atno 17370 bound_to 10713
  156.7754  130.4842  149.5410 LP  0  0  0  0  0  0  0  0  0  0  0  0  # atno 17371 bound_to 10713
  140.9701  133.7333  156.0522 LP  0  0  0  0  0  0  0  0  0  0  0  0  # atno 17394 bound_to 11000
  140.7882  134.3648  157.5471 LP  0  0  0  0  0  0  0  0  0  0  0  0  # atno 17395 bound_to 11000

$$$$
