AV-unprocessed.smi:3174|AV-procd|sdf|12121|dock10
  -GOLD-   2272017563D 1   1.00000     0.00000
 Structure written by MMmdl.
 32 33  0  0  0  0  0  0  0  0  1 V2000
  156.0101  138.2093  153.7920 C   0  0  0  0  0  0  0  0  0  0  0  0
  154.9985  138.0763  154.7744 O   0  0  0  0  0  0  0  0  0  0  0  0
  153.7648  138.6441  154.3670 C   0  0  0  0  0  0  0  0  0  0  0  0
  152.6792  138.3422  155.4131 C   0  0  0  0  0  0  0  0  0  0  0  0
  151.7017  139.4319  155.5142 N   0  0  0  0  0  0  0  0  0  0  0  0
  152.0150  140.3788  156.4755 N   0  0  0  0  0  0  0  0  0  0  0  0
  151.2426  141.4007  156.6594 C   0  0  0  0  0  0  0  0  0  0  0  0
  151.5457  142.4413  157.6811 C   0  0  0  0  0  0  0  0  0  0  0  0
  152.3153  142.2256  158.6191 O   0  0  0  0  0  0  0  0  0  0  0  0
  150.9215  143.6189  157.5029 N   0  0  0  0  0  0  0  0  0  0  0  0
  151.0486  144.7638  158.3451 C   0  0  0  0  0  0  0  0  0  0  0  0
  152.4224  145.0820  158.8945 C   0  0  0  0  0  0  0  0  0  0  0  0
  151.3628  144.5283  159.8066 C   0  0  0  0  0  0  0  0  0  0  0  0
  150.0371  141.5736  155.8665 C   0  0  0  0  0  0  0  0  0  0  0  0
  149.7453  140.6434  154.9314 C   0  0  0  0  0  0  0  0  0  0  0  0
  150.6033  139.4800  154.7009 C   0  0  0  0  0  0  0  0  0  0  0  0
  150.3588  138.6239  153.8514 O   0  0  0  0  0  0  0  0  0  0  0  0
  156.9327  137.7559  154.1540 H   0  0  0  0  0  0  0  0  0  0  0  0
  156.2131  139.2585  153.5743 H   0  0  0  0  0  0  0  0  0  0  0  0
  155.7289  137.7068  152.8656 H   0  0  0  0  0  0  0  0  0  0  0  0
  153.8810  139.7242  154.2674 H   0  0  0  0  0  0  0  0  0  0  0  0
  153.4701  138.2587  153.3895 H   0  0  0  0  0  0  0  0  0  0  0  0
  152.1982  137.3880  155.1924 H   0  0  0  0  0  0  0  0  0  0  0  0
  153.1532  138.2028  156.3862 H   0  0  0  0  0  0  0  0  0  0  0  0
  150.3080  143.7082  156.7056 H   0  0  0  0  0  0  0  0  0  0  0  0
  150.4113  145.6195  158.1264 H   0  0  0  0  0  0  0  0  0  0  0  0
  153.2449  144.4230  158.6227 H   0  0  0  0  0  0  0  0  0  0  0  0
  152.6856  146.1315  159.0092 H   0  0  0  0  0  0  0  0  0  0  0  0
  150.9169  145.2081  160.5300 H   0  0  0  0  0  0  0  0  0  0  0  0
  151.4796  143.5002  160.1447 H   0  0  0  0  0  0  0  0  0  0  0  0
  149.3853  142.4226  156.0143 H   0  0  0  0  0  0  0  0  0  0  0  0
  148.8527  140.7599  154.3344 H   0  0  0  0  0  0  0  0  0  0  0  0
  1  2  1  0  0  0  0
  1 18  1  0  0  0  0
  1 19  1  0  0  0  0
  1 20  1  0  0  0  0
  2  3  1  0  0  0  0
  3  4  1  0  0  0  0
  3 21  1  0  0  0  0
  3 22  1  0  0  0  0
  4  5  1  0  0  0  0
  4 23  1  0  0  0  0
  4 24  1  0  0  0  0
  5 16  1  0  0  0  0
  5  6  1  0  0  0  0
  6  7  2  0  0  0  0
  7  8  1  0  0  0  0
  7 14  1  0  0  0  0
  8  9  2  0  0  0  0
  8 10  1  0  0  0  0
 10 11  1  0  0  0  0
 10 25  1  0  0  0  0
 11 13  1  0  0  0  0
 11 12  1  0  0  0  0
 11 26  1  0  0  0  0
 12 13  1  0  0  0  0
 12 27  1  0  0  0  0
 12 28  1  0  0  0  0
 13 29  1  0  0  0  0
 13 30  1  0  0  0  0
 14 15  2  0  0  0  0
 14 31  1  0  0  0  0
 15 16  1  0  0  0  0
 15 32  1  0  0  0  0
 16 17  2  0  0  0  0
M  END
> <s_m_source_file>
AV-unprocessed.smi

> <i_m_source_file_index>
3174

> <i_lp_mmshare_version>
43012

> <i_f3d_flags>
0

> <s_epik_input>
W0NIM11PW0NIMl1bQ0gyXW4xbmMoW2NIXVtjSF1jMT1PKUMoPU8pW05IXVtDSF0yW0NIMl1bQ0gyXTI=

> <s_epik_cmdline>
J2VwaWtfcHl0aG9uJywgJy1waCcsICc3LjAnLCAnLXRuJywgJzgnLCAnLW1hJywgJzIwMCcsICctbWV0YWxfYmluZGluZycsICctaW1hZScsICc8aW5maWxlLm1hZT4nLCAnLW9tYWUnLCAnPG91dGZpbGUubWFlPic=

> <r_lp_tautomer_probability>
1

> <r_epik_Ionization_Penalty>
5.63485e-07

> <r_epik_Ionization_Penalty_Charging>
6.67133e-09

> <r_epik_Ionization_Penalty_Neutral>
5.56814e-07

> <r_epik_State_Penalty>
-0

> <r_epik_Charging_Adjusted_Penalty>
6.67133e-09

> <i_epik_Tot_Q>
0

> <i_epik_Tot_abs_Q>
0

> <r_epik_Metal_State_Penalty>
-0

> <b_epik_Metal_Only>
0

> <s_lp_Force_Field>
OPLS_2005

> <r_lp_Energy>
37.1062

> <b_lp_Chiralities_Consistent>
1

> <s_lp_Variant>
AV-unprocessed.smi:3174-1

> <Gold.Version>
5.8.1

> <Gold.Id.Protein>
6NUR|6NUR_protein|mol2

> <Gold.PLP.Fitness>
40.5666

> <Gold.PLP.PLP>
-39.0069

> <Gold.PLP.part.hbond>
-3.0481

> <Gold.PLP.part.metal>
0.0000

> <Gold.PLP.part.buried>
-2.5067

> <Gold.PLP.part.nonpolar>
-31.7726

> <Gold.PLP.part.repulsive>
0.3431

> <Gold.PLP.ligand.clash>
0.0000

> <Gold.PLP.ligand.torsion>
1.0945

> <Gold.PLP.Chemscore.Hbond>
1.2342

> <Gold.PLP.Chemscore.CHOScore>
0.0000

> <Gold.PLP.Chemscore.Metal>
0.0000

> <Gold.Chemscore.Hbonds>
donor molecule, donor type, donor heavy atom, donor atom, acceptor molecule, acceptor atom, score
      L1  H    10    25       P1  8028  1.00
      P1  H  7997  8010       L1     6  0.22

> <Gold.PLP.Chemscore.Internal.Correction>
0.0460

> <Gold.Rescore>
     Score         DG    S(hbond)    S(metal)    S(lipo)     H(rot)  DE(clash)    DE(int)     intcor
     11.97     -14.65       0.95        0.00      88.02       1.68       0.41       2.27       ----

> <Gold.Chemscore.Fitness>
11.9720

> <Gold.Chemscore.DG>
-14.6508

> <Gold.Chemscore.ZeroCoef>
-5.4800

> <Gold.Chemscore.Hbond>
0.9468

> <Gold.Chemscore.Metal>
0.0000

> <Gold.Chemscore.Lipo>
88.0180

> <Gold.Chemscore.Internal_Hbond>
0.0000

> <Gold.Chemscore.DEClash>
0.4095

> <Gold.Chemscore.DEInternal>
2.2693

> <Gold.Chemscore.Rot>
1.6756

> <Gold.Chemscore.Internal.Correction>
   9.000000E+99

> <Gold.Chemscore.Hbonds>
donor molecule, donor type, donor heavy atom, donor atom, acceptor molecule, acceptor atom, score
      L1  H    10    25       P1  8028  0.89
      P1  H  7997  8010       L1     6  0.04

> <Gold.Chemscore.Hbond.Weighted>
-3.1622

> <Gold.Chemscore.Metal.Weighted>
-0.0000

> <Gold.Chemscore.Lipo.Weighted>
-10.2981

> <Gold.Chemscore.Internal_Hbond.Weighted>
0.0000

> <Gold.Chemscore.DEClash.Weighted>
0.4095

> <Gold.Chemscore.DEInternal.Weighted>
2.2693

> <Gold.Chemscore.Rot.Weighted>
4.2894

> <Gold.Chemscore.Internal.Correction.Weighted>
   9.000000E+99

> <Gold.Protein.RotatedTorsions>
[ 6907 6896 6895 6894 ] final  142.32 input  -60.11 | X-H torsion
[ 7974 7965 7964 7962 ] final  144.96 input  175.53 | X-H torsion
[ 8008 7997 7996 7995 ] final   72.53 input   59.86 | X-H torsion
[ 10167 10162 10161 10158 ] final  103.81 input  -65.29 | X-H torsion
[ 10718 10713 10712 10709 ] final -169.24 input   66.30 | X-H torsion
[ 10763 10752 10751 10750 ] final  153.52 input  -60.55 | X-H torsion
[ 11005 11000 10999 10996 ] final   78.86 input  -57.11 | X-H torsion

> <Gold.Protein.ActiveResidues>
 VAL166  LYS551  ARG553  GLY616  TRP617  ASP618  TYR619  PRO620  LYS621  CYS622 
 ASP623  PHE694  ASN695  SER759  ASP760  ASP761  ALA762  ILE779  LEU786  VAL792 
 PHE793  MET794  SER795  GLU796  ALA797  LYS798  CYS799  TRP800  GLU811  SER814 

> <Gold.Protein.RotatedAtoms>
  152.2201  133.4977  159.5157 H   0  0  0  0  0  0  0  0  0  0  0  0  # atno 6907 bound_to 6896
  150.7011  134.1353  159.4094 H   0  0  0  0  0  0  0  0  0  0  0  0  # atno 6908 bound_to 6896
  151.9274  135.0271  160.0577 H   0  0  0  0  0  0  0  0  0  0  0  0  # atno 6909 bound_to 6896
  144.8792  139.5725  143.5851 H   0  0  0  0  0  0  0  0  0  0  0  0  # atno 7974 bound_to 7965
  155.7702  140.3484  155.5243 H   0  0  0  0  0  0  0  0  0  0  0  0  # atno 8008 bound_to 7997
  155.8829  140.1005  157.1493 H   0  0  0  0  0  0  0  0  0  0  0  0  # atno 8009 bound_to 7997
  154.4026  140.1319  156.4207 H   0  0  0  0  0  0  0  0  0  0  0  0  # atno 8010 bound_to 7997
  139.7231  144.7053  151.0841 H   0  0  0  0  0  0  0  0  0  0  0  0  # atno 10167 bound_to 10162
  156.7086  130.9225  151.3087 H   0  0  0  0  0  0  0  0  0  0  0  0  # atno 10718 bound_to 10713
  154.1375  135.2823  155.3169 H   0  0  0  0  0  0  0  0  0  0  0  0  # atno 10763 bound_to 10752
  154.6311  135.5435  153.7685 H   0  0  0  0  0  0  0  0  0  0  0  0  # atno 10764 bound_to 10752
  153.0261  135.6463  154.1523 H   0  0  0  0  0  0  0  0  0  0  0  0  # atno 10765 bound_to 10752
  139.9196  134.7797  156.1703 H   0  0  0  0  0  0  0  0  0  0  0  0  # atno 11005 bound_to 11000
  146.2983  139.7347  142.9110 LP  0  0  0  0  0  0  0  0  0  0  0  0  # atno 17320 bound_to 7965
  145.3985  141.0382  143.3083 LP  0  0  0  0  0  0  0  0  0  0  0  0  # atno 17321 bound_to 7965
  140.7757  143.5140  150.9617 LP  0  0  0  0  0  0  0  0  0  0  0  0  # atno 17342 bound_to 10162
  139.8827  143.7051  152.3155 LP  0  0  0  0  0  0  0  0  0  0  0  0  # atno 17343 bound_to 10162
  157.6945  130.9267  150.0605 LP  0  0  0  0  0  0  0  0  0  0  0  0  # atno 17370 bound_to 10713
  156.1677  130.3645  149.9209 LP  0  0  0  0  0  0  0  0  0  0  0  0  # atno 17371 bound_to 10713
  141.0704  133.6799  156.2129 LP  0  0  0  0  0  0  0  0  0  0  0  0  # atno 17394 bound_to 11000
  140.6516  134.5061  157.5578 LP  0  0  0  0  0  0  0  0  0  0  0  0  # atno 17395 bound_to 11000

$$$$
