AV-unprocessed.smi:1718|AV-procd|sdf|6928|dock2
  -GOLD-   22720 8133D 1   1.00000     0.00000
 Structure written by MMmdl.
 39 40  0  0  0  0  0  0  0  0  2 V2000
  148.9606  137.5260  155.9052 C   0  0  0  0  0  0  0  0  0  0  0  0
  149.3328  137.5131  157.3952 C   0  0  2  0  0  0  0  0  0  0  0  0
  148.2168  136.9908  158.1103 O   0  0  0  0  0  0  0  0  0  0  0  0
  148.5055  136.4917  159.4123 C   0  0  0  0  0  0  0  0  0  0  0  0
  147.2261  136.4922  160.2599 C   0  0  1  0  0  0  0  0  0  0  0  0
  147.1170  135.3565  161.2855 C   0  0  0  0  0  0  0  0  0  0  0  0
  146.4763  136.0152  162.5004 C   0  0  0  0  0  0  0  0  0  0  0  0
  146.1556  137.4341  162.0337 C   0  0  0  0  0  0  0  0  0  0  0  0
  147.1188  137.6839  161.0237 O   0  0  0  0  0  0  0  0  0  0  0  0
  149.6718  138.9252  157.8994 C   0  0  0  0  0  0  0  0  0  0  0  0
  148.7727  139.7590  158.0062 O   0  0  0  0  0  0  0  0  0  0  0  0
  150.9648  139.1253  158.2224 N   0  0  0  0  0  0  0  0  0  0  0  0
  151.6043  140.2795  158.7067 C   0  0  0  0  0  0  0  0  0  0  0  0
  151.2977  141.5552  158.3409 C   0  0  0  0  0  0  0  0  0  0  0  0
  152.0085  142.7118  158.8711 C   0  0  0  0  0  0  0  0  0  0  0  0
  151.6240  144.1485  158.5654 C   0  0  0  0  0  0  0  0  0  0  0  0
  152.3899  145.0049  159.2418 F   0  0  0  0  0  0  0  0  0  0  0  0
  151.7771  144.3919  157.2646 F   0  0  0  0  0  0  0  0  0  0  0  0
  150.3507  144.3803  158.8847 F   0  0  0  0  0  0  0  0  0  0  0  0
  152.9970  142.3542  159.7674 C   0  0  0  0  0  0  0  0  0  0  0  0
  153.3823  141.1207  160.1609 N   0  5  0  0  0  0  0  0  0  0  0  0
  152.7078  140.0466  159.6619 C   0  0  0  0  0  0  0  0  0  0  0  0
  152.9992  138.8952  159.9881 O   0  0  0  0  0  0  0  0  0  0  0  0
  149.7713  137.9302  155.2979 H   0  0  0  0  0  0  0  0  0  0  0  0
  148.0688  138.1259  155.7182 H   0  0  0  0  0  0  0  0  0  0  0  0
  148.7562  136.5156  155.5506 H   0  0  0  0  0  0  0  0  0  0  0  0
  150.1915  136.8519  157.5273 H   0  0  0  0  0  0  0  0  0  0  0  0
  148.9035  135.4785  159.3432 H   0  0  0  0  0  0  0  0  0  0  0  0
  149.2602  137.1043  159.9062 H   0  0  0  0  0  0  0  0  0  0  0  0
  146.3604  136.4520  159.5964 H   0  0  0  0  0  0  0  0  0  0  0  0
  146.5152  134.5336  160.8983 H   0  0  0  0  0  0  0  0  0  0  0  0
  148.0934  134.9517  161.5545 H   0  0  0  0  0  0  0  0  0  0  0  0
  145.5882  135.4872  162.8483 H   0  0  0  0  0  0  0  0  0  0  0  0
  147.1920  136.0455  163.3227 H   0  0  0  0  0  0  0  0  0  0  0  0
  145.1552  137.4832  161.6004 H   0  0  0  0  0  0  0  0  0  0  0  0
  146.2172  138.1664  162.8392 H   0  0  0  0  0  0  0  0  0  0  0  0
  151.5722  138.3230  158.1376 H   0  0  0  0  0  0  0  0  0  0  0  0
  150.5209  141.7566  157.6225 H   0  0  0  0  0  0  0  0  0  0  0  0
  153.5588  143.1851  160.2451 H   0  0  0  0  0  0  0  0  0  0  0  0
  1  2  1  0  0  0  0
  1 24  1  0  0  0  0
  1 25  1  0  0  0  0
  1 26  1  0  0  0  0
  2  3  1  0  0  0  0
  2 10  1  0  0  0  0
  2 27  1  0  0  0  0
  3  4  1  0  0  0  0
  4  5  1  0  0  0  0
  4 28  1  0  0  0  0
  4 29  1  0  0  0  0
  5  9  1  0  0  0  0
  5  6  1  0  0  0  0
  5 30  1  0  0  0  0
  6  7  1  0  0  0  0
  6 31  1  0  0  0  0
  6 32  1  0  0  0  0
  7  8  1  0  0  0  0
  7 33  1  0  0  0  0
  7 34  1  0  0  0  0
  8  9  1  0  0  0  0
  8 35  1  0  0  0  0
  8 36  1  0  0  0  0
 10 11  2  0  0  0  0
 10 12  1  0  0  0  0
 12 13  1  0  0  0  0
 12 37  1  0  0  0  0
 13 22  1  0  0  0  0
 13 14  2  0  0  0  0
 14 15  1  0  0  0  0
 14 38  1  0  0  0  0
 15 16  1  0  0  0  0
 15 20  2  0  0  0  0
 16 17  1  0  0  0  0
 16 18  1  0  0  0  0
 16 19  1  0  0  0  0
 20 21  1  0  0  0  0
 20 39  1  0  0  0  0
 21 22  1  0  0  0  0
 22 23  2  0  0  0  0
M  CHG  1  21  -1
M  END
> <s_m_source_file>
AV-unprocessed.smi

> <i_m_source_file_index>
1718

> <i_lp_mmshare_version>
43012

> <i_f3d_flags>
0

> <s_epik_input>
TzFbQ0gyXVtDSDJdW0NIMl1bQ0BIXTFbQ0gyXU9bQ0BASF0oW0NIM10pQyg9TylbTkhdYzJbY0hdYyhDKEYpKEYpRilbY0hdW25IXWMyPU8=

> <s_epik_cmdline>
J2VwaWtfcHl0aG9uJywgJy1waCcsICc3LjAnLCAnLXRuJywgJzgnLCAnLW1hJywgJzIwMCcsICctbWV0YWxfYmluZGluZycsICctaW1hZScsICc8aW5maWxlLm1hZT4nLCAnLW9tYWUnLCAnPG91dGZpbGUubWFlPic=

> <r_epik_Ionization_Penalty>
2.5466

> <r_epik_Ionization_Penalty_Charging>
0.0575837

> <r_epik_Ionization_Penalty_Neutral>
2.48901

> <r_epik_State_Penalty>
2.6532

> <r_epik_Charging_Adjusted_Penalty>
2.71078

> <i_epik_Tot_Q>
-1

> <i_epik_Tot_abs_Q>
1

> <r_epik_Metal_State_Penalty>
0.516196

> <b_epik_Metal_Only>
0

> <s_lp_Force_Field>
OPLS_2005

> <r_lp_Energy>
37.3461

> <b_lp_Chiralities_Consistent>
1

> <s_lp_Variant>
AV-unprocessed.smi:1718-7

> <Gold.Version>
5.8.1

> <Gold.Id.Protein>
6NUR|6NUR_protein|mol2

> <Gold.PLP.Fitness>
48.8542

> <Gold.PLP.PLP>
-45.5398

> <Gold.PLP.part.hbond>
-2.9103

> <Gold.PLP.part.metal>
0.0000

> <Gold.PLP.part.buried>
-7.0854

> <Gold.PLP.part.nonpolar>
-36.6009

> <Gold.PLP.part.repulsive>
0.0907

> <Gold.PLP.ligand.clash>
0.0000

> <Gold.PLP.ligand.torsion>
1.1930

> <Gold.PLP.Chemscore.Hbond>
1.8240

> <Gold.PLP.Chemscore.CHOScore>
0.0000

> <Gold.PLP.Chemscore.Metal>
0.0000

> <Gold.Chemscore.Hbonds>
donor molecule, donor type, donor heavy atom, donor atom, acceptor molecule, acceptor atom, score
      P1  H  6931  6943       L1     9  0.36
      P1  H  6934  6947       L1     9  0.54

> <Gold.PLP.Chemscore.Internal.Correction>
0.2284

> <Gold.Rescore>
     Score         DG    S(hbond)    S(metal)    S(lipo)     H(rot)  DE(clash)    DE(int)     intcor
     14.13     -15.61       1.50        0.00      84.08       1.85       0.12       1.36       ----

> <Gold.Chemscore.Fitness>
14.1308

> <Gold.Chemscore.DG>
-15.6129

> <Gold.Chemscore.ZeroCoef>
-5.4800

> <Gold.Chemscore.Hbond>
1.5030

> <Gold.Chemscore.Metal>
0.0000

> <Gold.Chemscore.Lipo>
84.0806

> <Gold.Chemscore.Internal_Hbond>
0.0000

> <Gold.Chemscore.DEClash>
0.1180

> <Gold.Chemscore.DEInternal>
1.3642

> <Gold.Chemscore.Rot>
1.8455

> <Gold.Chemscore.Internal.Correction>
   9.000000E+99

> <Gold.Chemscore.Hbonds>
donor molecule, donor type, donor heavy atom, donor atom, acceptor molecule, acceptor atom, score
      P1  H  6931  6943       L1     9  0.23
      P1  H  6934  6947       L1     9  0.26

> <Gold.Chemscore.Hbond.Weighted>
-5.0200

> <Gold.Chemscore.Metal.Weighted>
-0.0000

> <Gold.Chemscore.Lipo.Weighted>
-9.8374

> <Gold.Chemscore.Internal_Hbond.Weighted>
0.0000

> <Gold.Chemscore.DEClash.Weighted>
0.1180

> <Gold.Chemscore.DEInternal.Weighted>
1.3642

> <Gold.Chemscore.Rot.Weighted>
4.7245

> <Gold.Chemscore.Internal.Correction.Weighted>
   9.000000E+99

> <Gold.Protein.RotatedTorsions>
[ 6907 6896 6895 6894 ] final  153.28 input  -60.11 | X-H torsion
[ 7974 7965 7964 7962 ] final  126.47 input  175.53 | X-H torsion
[ 8008 7997 7996 7995 ] final  167.59 input   59.86 | X-H torsion
[ 10167 10162 10161 10158 ] final  -27.24 input  -65.29 | X-H torsion
[ 10718 10713 10712 10709 ] final -167.23 input   66.30 | X-H torsion
[ 10763 10752 10751 10750 ] final  167.22 input  -60.55 | X-H torsion
[ 11005 11000 10999 10996 ] final   68.29 input  -57.11 | X-H torsion

> <Gold.Protein.ActiveResidues>
 VAL166  LYS551  ARG553  GLY616  TRP617  ASP618  TYR619  PRO620  LYS621  CYS622 
 ASP623  PHE694  ASN695  SER759  ASP760  ASP761  ALA762  ILE779  LEU786  VAL792 
 PHE793  MET794  SER795  GLU796  ALA797  LYS798  CYS799  TRP800  GLU811  SER814 

> <Gold.Protein.RotatedAtoms>
  152.0749  133.4124  159.4475 H   0  0  0  0  0  0  0  0  0  0  0  0  # atno 6907 bound_to 6896
  150.6863  134.3049  159.4731 H   0  0  0  0  0  0  0  0  0  0  0  0  # atno 6908 bound_to 6896
  152.0884  134.9423  160.0623 H   0  0  0  0  0  0  0  0  0  0  0  0  # atno 6909 bound_to 6896
  145.0613  139.3803  143.5004 H   0  0  0  0  0  0  0  0  0  0  0  0  # atno 7974 bound_to 7965
  156.1621  140.1613  156.8594 H   0  0  0  0  0  0  0  0  0  0  0  0  # atno 8008 bound_to 7997
  154.5171  140.0787  156.8137 H   0  0  0  0  0  0  0  0  0  0  0  0  # atno 8009 bound_to 7997
  155.3686  140.3399  155.4245 H   0  0  0  0  0  0  0  0  0  0  0  0  # atno 8010 bound_to 7997
  140.7278  143.4110  151.1106 H   0  0  0  0  0  0  0  0  0  0  0  0  # atno 10167 bound_to 10162
  156.6793  130.9115  151.3055 H   0  0  0  0  0  0  0  0  0  0  0  0  # atno 10718 bound_to 10713
  154.3506  135.2753  155.2374 H   0  0  0  0  0  0  0  0  0  0  0  0  # atno 10763 bound_to 10752
  154.4605  135.5908  153.6256 H   0  0  0  0  0  0  0  0  0  0  0  0  # atno 10764 bound_to 10752
  152.9850  135.6064  154.3716 H   0  0  0  0  0  0  0  0  0  0  0  0  # atno 10765 bound_to 10752
  139.9720  134.6885  156.0428 H   0  0  0  0  0  0  0  0  0  0  0  0  # atno 11005 bound_to 11000
  146.3524  140.0313  142.8650 LP  0  0  0  0  0  0  0  0  0  0  0  0  # atno 17320 bound_to 7965
  145.1405  140.9569  143.4491 LP  0  0  0  0  0  0  0  0  0  0  0  0  # atno 17321 bound_to 7965
  139.7743  143.8448  152.3126 LP  0  0  0  0  0  0  0  0  0  0  0  0  # atno 17342 bound_to 10162
  139.8377  144.7224  150.9370 LP  0  0  0  0  0  0  0  0  0  0  0  0  # atno 17343 bound_to 10162
  157.7049  130.9374  150.0900 LP  0  0  0  0  0  0  0  0  0  0  0  0  # atno 17370 bound_to 10713
  156.1879  130.3653  149.8948 LP  0  0  0  0  0  0  0  0  0  0  0  0  # atno 17371 bound_to 10713
  141.1399  133.6567  156.3699 LP  0  0  0  0  0  0  0  0  0  0  0  0  # atno 17394 bound_to 11000
  140.5274  134.6246  157.5338 LP  0  0  0  0  0  0  0  0  0  0  0  0  # atno 17395 bound_to 11000

$$$$
