AV-unprocessed.smi:1209|AV-procd|sdf|5073|dock7
  -GOLD-   22720 4123D 1   1.00000     0.00000
 Structure written by MMmdl.
 49 51  0  0  0  0  0  0  0  0  2 V2000
  147.1812  131.4777  152.9509 C   0  0  0  0  0  0  0  0  0  0  0  0
  148.2404  132.2094  153.7019 C   0  0  0  0  0  0  0  0  0  0  0  0
  148.5572  133.5334  153.8136 C   0  0  0  0  0  0  0  0  0  0  0  0
  149.6796  133.5375  154.6866 C   0  0  0  0  0  0  0  0  0  0  0  0
  150.4728  134.7186  155.1763 C   0  0  0  0  0  0  0  0  0  0  0  0
  149.8803  136.0078  154.7343 N   0  3  1  0  0  0  0  0  0  0  0  0
  148.6320  136.3432  155.4649 C   0  0  0  0  0  0  0  0  0  0  0  0
  150.8695  137.1183  154.7481 C   0  0  0  0  0  0  0  0  0  0  0  0
  150.2030  138.5050  154.6457 C   0  0  2  0  0  0  0  0  0  0  0  0
  149.6332  138.6403  153.3571 O   0  0  0  0  0  0  0  0  0  0  0  0
  151.2124  139.6455  154.8841 C   0  0  0  0  0  0  0  0  0  0  0  0
  151.6923  139.6852  156.2543 N   0  0  0  0  0  0  0  0  0  0  0  0
  152.1869  138.6555  156.9679 C   0  0  0  0  0  0  0  0  0  0  0  0
  152.5659  138.9067  158.2173 N   0  0  0  0  0  0  0  0  0  0  0  0
  152.2862  140.2580  158.3276 C   0  0  0  0  0  0  0  0  0  0  0  0
  152.4544  141.1430  159.4148 C   0  0  0  0  0  0  0  0  0  0  0  0
  152.0931  142.5045  159.3039 C   0  0  0  0  0  0  0  0  0  0  0  0
  152.2872  143.4193  160.5004 C   0  0  0  0  0  0  0  0  0  0  0  0
  151.5566  143.0004  158.0885 C   0  0  0  0  0  0  0  0  0  0  0  0
  151.1629  144.4599  157.9463 C   0  0  0  0  0  0  0  0  0  0  0  0
  151.3814  142.1300  156.9924 C   0  0  0  0  0  0  0  0  0  0  0  0
  151.7419  140.7762  157.1160 C   0  0  0  0  0  0  0  0  0  0  0  0
  150.0121  132.3139  155.0645 N   0  0  0  0  0  0  0  0  0  0  0  0
  149.0948  131.4589  154.4440 O   0  0  0  0  0  0  0  0  0  0  0  0
  146.6799  132.1371  152.2420 H   0  0  0  0  0  0  0  0  0  0  0  0
  146.4293  131.0794  153.6325 H   0  0  0  0  0  0  0  0  0  0  0  0
  147.6077  130.6444  152.3922 H   0  0  0  0  0  0  0  0  0  0  0  0
  148.0626  134.3691  153.3407 H   0  0  0  0  0  0  0  0  0  0  0  0
  150.5634  134.7103  156.2641 H   0  0  0  0  0  0  0  0  0  0  0  0
  151.4874  134.6293  154.7863 H   0  0  0  0  0  0  0  0  0  0  0  0
  148.8219  136.4446  156.5342 H   0  0  0  0  0  0  0  0  0  0  0  0
  147.8742  135.5721  155.3276 H   0  0  0  0  0  0  0  0  0  0  0  0
  148.1958  137.2762  155.1112 H   0  0  0  0  0  0  0  0  0  0  0  0
  151.4740  137.0482  155.6538 H   0  0  0  0  0  0  0  0  0  0  0  0
  151.5652  137.0161  153.9138 H   0  0  0  0  0  0  0  0  0  0  0  0
  149.4024  138.5961  155.3790 H   0  0  0  0  0  0  0  0  0  0  0  0
  149.3287  137.7933  153.0683 H   0  0  0  0  0  0  0  0  0  0  0  0
  152.0746  139.5272  154.2264 H   0  0  0  0  0  0  0  0  0  0  0  0
  150.7680  140.6114  154.6411 H   0  0  0  0  0  0  0  0  0  0  0  0
  152.2710  137.6642  156.5470 H   0  0  0  0  0  0  0  0  0  0  0  0
  152.8640  140.7649  160.3400 H   0  0  0  0  0  0  0  0  0  0  0  0
  152.9969  144.2122  160.2638 H   0  0  0  0  0  0  0  0  0  0  0  0
  152.6712  142.8722  161.3617 H   0  0  0  0  0  0  0  0  0  0  0  0
  151.3410  143.8761  160.7906 H   0  0  0  0  0  0  0  0  0  0  0  0
  150.8106  144.6810  156.9384 H   0  0  0  0  0  0  0  0  0  0  0  0
  152.0153  145.1080  158.1512 H   0  0  0  0  0  0  0  0  0  0  0  0
  150.3624  144.7085  158.6434 H   0  0  0  0  0  0  0  0  0  0  0  0
  150.9714  142.4956  156.0629 H   0  0  0  0  0  0  0  0  0  0  0  0
  149.6287  135.8767  153.7644 H   0  0  0  0  0  0  0  0  0  0  0  0
  1  2  1  0  0  0  0
  1 25  1  0  0  0  0
  1 26  1  0  0  0  0
  1 27  1  0  0  0  0
  2 24  1  0  0  0  0
  2  3  2  0  0  0  0
  3  4  1  0  0  0  0
  3 28  1  0  0  0  0
  4  5  1  0  0  0  0
  4 23  2  0  0  0  0
  5  6  1  0  0  0  0
  5 29  1  0  0  0  0
  5 30  1  0  0  0  0
  6  7  1  0  0  0  0
  6  8  1  0  0  0  0
  6 49  1  0  0  0  0
  7 31  1  0  0  0  0
  7 32  1  0  0  0  0
  7 33  1  0  0  0  0
  8  9  1  0  0  0  0
  8 34  1  0  0  0  0
  8 35  1  0  0  0  0
  9 10  1  0  0  0  0
  9 11  1  0  0  0  0
  9 36  1  0  0  0  0
 10 37  1  0  0  0  0
 11 12  1  0  0  0  0
 11 38  1  0  0  0  0
 11 39  1  0  0  0  0
 12 22  1  0  0  0  0
 12 13  1  0  0  0  0
 13 14  2  0  0  0  0
 13 40  1  0  0  0  0
 14 15  1  0  0  0  0
 15 22  2  0  0  0  0
 15 16  1  0  0  0  0
 16 17  2  0  0  0  0
 16 41  1  0  0  0  0
 17 18  1  0  0  0  0
 17 19  1  0  0  0  0
 18 42  1  0  0  0  0
 18 43  1  0  0  0  0
 18 44  1  0  0  0  0
 19 20  1  0  0  0  0
 19 21  2  0  0  0  0
 20 45  1  0  0  0  0
 20 46  1  0  0  0  0
 20 47  1  0  0  0  0
 21 22  1  0  0  0  0
 21 48  1  0  0  0  0
 23 24  1  0  0  0  0
M  CHG  1   6   1
M  END
> <s_m_source_file>
AV-unprocessed.smi

> <i_m_source_file_index>
1209

> <i_lp_mmshare_version>
43012

> <i_f3d_flags>
0

> <s_epik_input>
W0NIM11jMVtjSF1jKG5vMSlbQ0gyXU4oW0NIM10pW0NIMl1bQ0BIXShbT0hdKVtDSDJdbihbY0hdbjIpYyhjMjMpW2NIXWMoW0NIM10pYyhbY0hdMylbQ0gzXQ==

> <s_epik_cmdline>
J2VwaWtfcHl0aG9uJywgJy1waCcsICc3LjAnLCAnLXRuJywgJzgnLCAnLW1hJywgJzIwMCcsICctbWV0YWxfYmluZGluZycsICctaW1hZScsICc8aW5maWxlLm1hZT4nLCAnLW9tYWUnLCAnPG91dGZpbGUubWFlPic=

> <r_epik_Ionization_Penalty>
2.05249

> <r_epik_Ionization_Penalty_Charging>
1.96618

> <r_epik_Ionization_Penalty_Neutral>
0.0863156

> <r_epik_State_Penalty>
2.19215

> <r_epik_Charging_Adjusted_Penalty>
4.15833

> <i_epik_Tot_Q>
1

> <i_epik_Tot_abs_Q>
1

> <r_epik_Metal_State_Penalty>
2.17654

> <b_epik_Metal_Only>
0

> <s_lp_Force_Field>
OPLS_2005

> <r_lp_Energy>
10.2768

> <b_lp_Chiralities_Consistent>
1

> <s_lp_Variant>
AV-unprocessed.smi:1209-5

> <Gold.Version>
5.8.1

> <Gold.Id.Protein>
6NUR|6NUR_protein|mol2

> <Gold.PLP.Fitness>
54.3438

> <Gold.PLP.PLP>
-46.1314

> <Gold.PLP.part.hbond>
-3.0000

> <Gold.PLP.part.metal>
0.0000

> <Gold.PLP.part.buried>
-4.7515

> <Gold.PLP.part.nonpolar>
-38.6469

> <Gold.PLP.part.repulsive>
0.0974

> <Gold.PLP.ligand.clash>
0.0000

> <Gold.PLP.ligand.torsion>
0.5105

> <Gold.PLP.Chemscore.Hbond>
2.9913

> <Gold.PLP.Chemscore.CHOScore>
0.0000

> <Gold.PLP.Chemscore.Metal>
0.0000

> <Gold.Chemscore.Hbonds>
donor molecule, donor type, donor heavy atom, donor atom, acceptor molecule, acceptor atom, score
      L1  H     6    49       P1  7948  2.00
      L1  H    10    37       P1  7948  1.00

> <Gold.PLP.Chemscore.Internal.Correction>
0.2597

> <Gold.Rescore>
     Score         DG    S(hbond)    S(metal)    S(lipo)     H(rot)  DE(clash)    DE(int)     intcor
     17.49     -18.74       1.79        0.00     117.72       2.53       0.01       1.23       ----

> <Gold.Chemscore.Fitness>
17.4897

> <Gold.Chemscore.DG>
-18.7370

> <Gold.Chemscore.ZeroCoef>
-5.4800

> <Gold.Chemscore.Hbond>
1.7870

> <Gold.Chemscore.Metal>
0.0000

> <Gold.Chemscore.Lipo>
117.7238

> <Gold.Chemscore.Internal_Hbond>
0.0000

> <Gold.Chemscore.DEClash>
0.0149

> <Gold.Chemscore.DEInternal>
1.2325

> <Gold.Chemscore.Rot>
2.5332

> <Gold.Chemscore.Internal.Correction>
   9.000000E+99

> <Gold.Chemscore.Hbonds>
donor molecule, donor type, donor heavy atom, donor atom, acceptor molecule, acceptor atom, score
      L1  H     6    49       P1  7948  0.29
      L1  H    10    37       P1  7948  0.93

> <Gold.Chemscore.Hbond.Weighted>
-5.9684

> <Gold.Chemscore.Metal.Weighted>
-0.0000

> <Gold.Chemscore.Lipo.Weighted>
-13.7737

> <Gold.Chemscore.Internal_Hbond.Weighted>
0.0000

> <Gold.Chemscore.DEClash.Weighted>
0.0149

> <Gold.Chemscore.DEInternal.Weighted>
1.2325

> <Gold.Chemscore.Rot.Weighted>
6.4851

> <Gold.Chemscore.Internal.Correction.Weighted>
   9.000000E+99

> <Gold.Protein.RotatedTorsions>
[ 6907 6896 6895 6894 ] final   53.03 input  -60.11 | X-H torsion
[ 7974 7965 7964 7962 ] final  -24.61 input  175.53 | X-H torsion
[ 8008 7997 7996 7995 ] final  -61.04 input   59.86 | X-H torsion
[ 10167 10162 10161 10158 ] final  -29.86 input  -65.29 | X-H torsion
[ 10718 10713 10712 10709 ] final  154.59 input   66.30 | X-H torsion
[ 10763 10752 10751 10750 ] final   26.52 input  -60.55 | X-H torsion
[ 11005 11000 10999 10996 ] final  -13.79 input  -57.11 | X-H torsion

> <Gold.Protein.ActiveResidues>
 VAL166  LYS551  ARG553  GLY616  TRP617  ASP618  TYR619  PRO620  LYS621  CYS622 
 ASP623  PHE694  ASN695  SER759  ASP760  ASP761  ALA762  ILE779  LEU786  VAL792 
 PHE793  MET794  SER795  GLU796  ALA797  LYS798  CYS799  TRP800  GLU811  SER814 

> <Gold.Protein.RotatedAtoms>
  152.3295  134.7278  160.0293 H   0  0  0  0  0  0  0  0  0  0  0  0  # atno 6907 bound_to 6896
  151.7699  133.3335  159.3449 H   0  0  0  0  0  0  0  0  0  0  0  0  # atno 6908 bound_to 6896
  150.7415  134.5960  159.6056 H   0  0  0  0  0  0  0  0  0  0  0  0  # atno 6909 bound_to 6896
  146.1544  140.4775  142.8598 H   0  0  0  0  0  0  0  0  0  0  0  0  # atno 7974 bound_to 7965
  154.4428  140.1026  156.6368 H   0  0  0  0  0  0  0  0  0  0  0  0  # atno 8008 bound_to 7997
  155.5544  140.3486  155.4457 H   0  0  0  0  0  0  0  0  0  0  0  0  # atno 8009 bound_to 7997
  156.0505  140.1303  157.0044 H   0  0  0  0  0  0  0  0  0  0  0  0  # atno 8010 bound_to 7997
  140.7256  143.3894  151.1456 H   0  0  0  0  0  0  0  0  0  0  0  0  # atno 10167 bound_to 10162
  157.2296  131.0736  151.1861 H   0  0  0  0  0  0  0  0  0  0  0  0  # atno 10718 bound_to 10713
  153.0617  135.6558  154.0448 H   0  0  0  0  0  0  0  0  0  0  0  0  # atno 10763 bound_to 10752
  154.0114  135.2928  155.3393 H   0  0  0  0  0  0  0  0  0  0  0  0  # atno 10764 bound_to 10752
  154.6958  135.5264  153.8524 H   0  0  0  0  0  0  0  0  0  0  0  0  # atno 10765 bound_to 10752
  140.7798  133.8372  155.9281 H   0  0  0  0  0  0  0  0  0  0  0  0  # atno 11005 bound_to 11000
  144.7944  140.6094  143.6520 LP  0  0  0  0  0  0  0  0  0  0  0  0  # atno 17320 bound_to 7965
  145.4745  139.1500  143.3796 LP  0  0  0  0  0  0  0  0  0  0  0  0  # atno 17321 bound_to 7965
  139.7497  143.8798  152.3073 LP  0  0  0  0  0  0  0  0  0  0  0  0  # atno 17342 bound_to 10162
  139.8647  144.7099  150.9058 LP  0  0  0  0  0  0  0  0  0  0  0  0  # atno 17343 bound_to 10162
  157.3492  130.7073  149.6430 LP  0  0  0  0  0  0  0  0  0  0  0  0  # atno 17370 bound_to 10713
  155.9676  130.4257  150.4668 LP  0  0  0  0  0  0  0  0  0  0  0  0  # atno 17371 bound_to 10713
  140.9494  134.1799  157.4739 LP  0  0  0  0  0  0  0  0  0  0  0  0  # atno 17394 bound_to 11000
  139.8744  134.9903  156.5496 LP  0  0  0  0  0  0  0  0  0  0  0  0  # atno 17395 bound_to 11000

$$$$
