AV-unprocessed.smi:2451|AV-procd|sdf|9672|dock2
  -GOLD-   2272013313D 1   1.00000     0.00000
 Structure written by MMmdl.
 38 39  0  0  0  0  0  0  0  0  1 V2000
  152.0030  143.8966  161.5730 C   0  0  0  0  0  0  0  0  0  0  0  0
  152.8493  143.7187  160.2953 C   0  0  1  0  0  0  0  0  0  0  0  0
  153.6218  142.3844  160.3111 C   0  0  0  0  0  0  0  0  0  0  0  0
  152.6971  141.1771  160.0918 C   0  0  0  0  0  0  0  0  0  0  0  0
  151.9099  141.3184  158.7821 C   0  0  0  0  0  0  0  0  0  0  0  0
  151.1298  142.6454  158.7185 C   0  0  2  0  0  0  0  0  0  0  0  0
  150.4998  142.7542  157.3991 N   0  0  0  0  0  0  0  0  0  0  0  0
  150.0092  141.3114  156.5923 S   0  0  0  0  0  0  0  0  0  0  0  0
  149.5548  140.3624  157.6199 O   0  0  0  0  0  0  0  0  0  0  0  0
  149.1045  141.6986  155.4984 O   0  0  0  0  0  0  0  0  0  0  0  0
  151.5885  140.7066  155.8621 C   0  0  0  0  0  0  0  0  0  0  0  0
  151.4195  139.2872  155.4017 C   0  0  0  0  0  0  0  0  0  0  0  0
  150.4891  138.7691  154.4587 C   0  0  0  0  0  0  0  0  0  0  0  0
  150.7796  137.4357  154.4239 C   0  0  0  0  0  0  0  0  0  0  0  0
  151.8037  137.1508  155.2675 O   0  0  0  0  0  0  0  0  0  0  0  0
  152.2066  138.3397  155.8863 N   0  0  0  0  0  0  0  0  0  0  0  0
  152.0473  143.8682  158.9738 C   0  0  1  0  0  0  0  0  0  0  0  0
  151.2831  145.2057  158.9083 C   0  0  0  0  0  0  0  0  0  0  0  0
  151.1737  143.1914  161.6193 H   0  0  0  0  0  0  0  0  0  0  0  0
  151.5865  144.9012  161.6421 H   0  0  0  0  0  0  0  0  0  0  0  0
  152.6108  143.7456  162.4654 H   0  0  0  0  0  0  0  0  0  0  0  0
  153.5960  144.5138  160.3133 H   0  0  0  0  0  0  0  0  0  0  0  0
  154.3795  142.3988  159.5264 H   0  0  0  0  0  0  0  0  0  0  0  0
  154.1645  142.2730  161.2505 H   0  0  0  0  0  0  0  0  0  0  0  0
  153.2867  140.2602  160.0703 H   0  0  0  0  0  0  0  0  0  0  0  0
  152.0066  141.0752  160.9294 H   0  0  0  0  0  0  0  0  0  0  0  0
  152.6052  141.2602  157.9432 H   0  0  0  0  0  0  0  0  0  0  0  0
  151.2256  140.4760  158.6726 H   0  0  0  0  0  0  0  0  0  0  0  0
  150.3492  142.6255  159.4799 H   0  0  0  0  0  0  0  0  0  0  0  0
  151.0372  143.3617  156.7811 H   0  0  0  0  0  0  0  0  0  0  0  0
  151.8505  141.3563  155.0272 H   0  0  0  0  0  0  0  0  0  0  0  0
  152.3738  140.7954  156.6132 H   0  0  0  0  0  0  0  0  0  0  0  0
  149.7269  139.2925  153.9007 H   0  0  0  0  0  0  0  0  0  0  0  0
  150.3684  136.6004  153.8765 H   0  0  0  0  0  0  0  0  0  0  0  0
  152.7825  143.8921  158.1676 H   0  0  0  0  0  0  0  0  0  0  0  0
  150.4435  145.2241  159.6035 H   0  0  0  0  0  0  0  0  0  0  0  0
  150.8804  145.3857  157.9114 H   0  0  0  0  0  0  0  0  0  0  0  0
  151.9368  146.0446  159.1477 H   0  0  0  0  0  0  0  0  0  0  0  0
  1  2  1  0  0  0  0
  1 19  1  0  0  0  0
  1 20  1  0  0  0  0
  1 21  1  0  0  0  0
  2 17  1  0  0  0  0
  2  3  1  0  0  0  0
  2 22  1  0  0  0  0
  3  4  1  0  0  0  0
  3 23  1  0  0  0  0
  3 24  1  0  0  0  0
  4  5  1  0  0  0  0
  4 25  1  0  0  0  0
  4 26  1  0  0  0  0
  5  6  1  0  0  0  0
  5 27  1  0  0  0  0
  5 28  1  0  0  0  0
  6  7  1  0  0  0  0
  6 17  1  0  0  0  0
  6 29  1  0  0  0  0
  7  8  1  0  0  0  0
  7 30  1  0  0  0  0
  8  9  2  0  0  0  0
  8 10  2  0  0  0  0
  8 11  1  0  0  0  0
 11 12  1  0  0  0  0
 11 31  1  0  0  0  0
 11 32  1  0  0  0  0
 12 16  2  0  0  0  0
 12 13  1  0  0  0  0
 13 14  2  0  0  0  0
 13 33  1  0  0  0  0
 14 15  1  0  0  0  0
 14 34  1  0  0  0  0
 15 16  1  0  0  0  0
 17 18  1  0  0  0  0
 17 35  1  0  0  0  0
 18 36  1  0  0  0  0
 18 37  1  0  0  0  0
 18 38  1  0  0  0  0
M  END
> <s_m_source_file>
AV-unprocessed.smi

> <i_m_source_file_index>
2451

> <i_lp_mmshare_version>
43012

> <i_f3d_flags>
0

> <s_epik_input>
W0NIM11bQ0BASF0xW0NIMl1bQ0gyXVtDSDJdW0NASF0oW0NASF0xW0NIM10pW05IXVMoPU8pKD1PKVtDSDJdYzJbY0hdW2NIXW9uMg==

> <s_epik_cmdline>
J2VwaWtfcHl0aG9uJywgJy1waCcsICc3LjAnLCAnLXRuJywgJzgnLCAnLW1hJywgJzIwMCcsICctbWV0YWxfYmluZGluZycsICctaW1hZScsICc8aW5maWxlLm1hZT4nLCAnLW9tYWUnLCAnPG91dGZpbGUubWFlPic=

> <r_lp_tautomer_probability>
1

> <r_epik_Ionization_Penalty>
8.73668e-05

> <r_epik_Ionization_Penalty_Charging>
0

> <r_epik_Ionization_Penalty_Neutral>
8.73668e-05

> <r_epik_State_Penalty>
-0

> <r_epik_Charging_Adjusted_Penalty>
0

> <i_epik_Tot_Q>
0

> <i_epik_Tot_abs_Q>
0

> <r_epik_Metal_State_Penalty>
0.0716439

> <b_epik_Metal_Only>
0

> <s_lp_Force_Field>
OPLS_2005

> <r_lp_Energy>
8.38809

> <b_lp_Chiralities_Consistent>
1

> <s_lp_Variant>
AV-unprocessed.smi:2451-4

> <Gold.Version>
5.8.1

> <Gold.Id.Protein>
6NUR|6NUR_protein|mol2

> <Gold.PLP.Fitness>
43.7604

> <Gold.PLP.PLP>
-39.7850

> <Gold.PLP.part.hbond>
-1.8416

> <Gold.PLP.part.metal>
0.0000

> <Gold.PLP.part.buried>
-5.1476

> <Gold.PLP.part.nonpolar>
-33.4462

> <Gold.PLP.part.repulsive>
0.7999

> <Gold.PLP.ligand.clash>
0.0000

> <Gold.PLP.ligand.torsion>
0.9964

> <Gold.PLP.Chemscore.Hbond>
0.9920

> <Gold.PLP.Chemscore.CHOScore>
0.9479

> <Gold.PLP.Chemscore.Metal>
0.0000

> <Gold.Chemscore.Hbonds>
donor molecule, donor type, donor heavy atom, donor atom, acceptor molecule, acceptor atom, score
      P1  H 10752 10764       L1    15  0.99
      L1  C    14    34       P1  7948  0.67
      L1  C    14    34       P1  7949  0.25

> <Gold.PLP.Chemscore.Internal.Correction>
0.1485

> <Gold.Rescore>
     Score         DG    S(hbond)    S(metal)    S(lipo)     H(rot)  DE(clash)    DE(int)     intcor
     15.46     -18.03       0.95        0.00     116.46       1.66       0.09       2.48       ----

> <Gold.Chemscore.Fitness>
15.4605

> <Gold.Chemscore.DG>
-18.0309

> <Gold.Chemscore.ZeroCoef>
-5.4800

> <Gold.Chemscore.Hbond>
0.9496

> <Gold.Chemscore.Metal>
0.0000

> <Gold.Chemscore.Lipo>
116.4601

> <Gold.Chemscore.Internal_Hbond>
0.0000

> <Gold.Chemscore.DEClash>
0.0908

> <Gold.Chemscore.DEInternal>
2.4796

> <Gold.Chemscore.Rot>
1.6588

> <Gold.Chemscore.Internal.Correction>
   9.000000E+99

> <Gold.Chemscore.Hbonds>
donor molecule, donor type, donor heavy atom, donor atom, acceptor molecule, acceptor atom, score
      P1  H 10752 10764       L1    15  0.75

> <Gold.Chemscore.Hbond.Weighted>
-3.1717

> <Gold.Chemscore.Metal.Weighted>
-0.0000

> <Gold.Chemscore.Lipo.Weighted>
-13.6258

> <Gold.Chemscore.Internal_Hbond.Weighted>
0.0000

> <Gold.Chemscore.DEClash.Weighted>
0.0908

> <Gold.Chemscore.DEInternal.Weighted>
2.4796

> <Gold.Chemscore.Rot.Weighted>
4.2466

> <Gold.Chemscore.Internal.Correction.Weighted>
   9.000000E+99

> <Gold.Protein.RotatedTorsions>
[ 6907 6896 6895 6894 ] final -114.50 input  -60.11 | X-H torsion
[ 7974 7965 7964 7962 ] final   19.09 input  175.53 | X-H torsion
[ 8008 7997 7996 7995 ] final    7.30 input   59.86 | X-H torsion
[ 10167 10162 10161 10158 ] final   21.10 input  -65.29 | X-H torsion
[ 10718 10713 10712 10709 ] final   44.54 input   66.30 | X-H torsion
[ 10763 10752 10751 10750 ] final  -58.92 input  -60.55 | X-H torsion
[ 11005 11000 10999 10996 ] final   88.04 input  -57.11 | X-H torsion

> <Gold.Protein.ActiveResidues>
 VAL166  LYS551  ARG553  GLY616  TRP617  ASP618  TYR619  PRO620  LYS621  CYS622 
 ASP623  PHE694  ASN695  SER759  ASP760  ASP761  ALA762  ILE779  LEU786  VAL792 
 PHE793  MET794  SER795  GLU796  ALA797  LYS798  CYS799  TRP800  GLU811  SER814 

> <Gold.Protein.RotatedAtoms>
  150.7907  133.8792  159.3280 H   0  0  0  0  0  0  0  0  0  0  0  0  # atno 6907 bound_to 6896
  151.6630  135.0985  160.0193 H   0  0  0  0  0  0  0  0  0  0  0  0  # atno 6908 bound_to 6896
  152.3980  133.6737  159.6328 H   0  0  0  0  0  0  0  0  0  0  0  0  # atno 6909 bound_to 6896
  146.2162  139.8362  142.8650 H   0  0  0  0  0  0  0  0  0  0  0  0  # atno 7974 bound_to 7965
  154.7521  140.2769  155.6284 H   0  0  0  0  0  0  0  0  0  0  0  0  # atno 8008 bound_to 7997
  156.2898  140.2676  156.2204 H   0  0  0  0  0  0  0  0  0  0  0  0  # atno 8009 bound_to 7997
  155.0124  140.0372  157.2394 H   0  0  0  0  0  0  0  0  0  0  0  0  # atno 8010 bound_to 7997
  140.5453  143.9606  150.6544 H   0  0  0  0  0  0  0  0  0  0  0  0  # atno 10167 bound_to 10162
  157.4279  130.8007  149.7575 H   0  0  0  0  0  0  0  0  0  0  0  0  # atno 10718 bound_to 10713
  154.2456  135.6335  153.5222 H   0  0  0  0  0  0  0  0  0  0  0  0  # atno 10763 bound_to 10752
  152.9922  135.5552  154.5863 H   0  0  0  0  0  0  0  0  0  0  0  0  # atno 10764 bound_to 10752
  154.5379  135.2892  155.1097 H   0  0  0  0  0  0  0  0  0  0  0  0  # atno 10765 bound_to 10752
  139.8905  134.8462  156.2944 H   0  0  0  0  0  0  0  0  0  0  0  0  # atno 11005 bound_to 11000
  145.2946  141.0177  143.3644 LP  0  0  0  0  0  0  0  0  0  0  0  0  # atno 17320 bound_to 7965
  144.9052  139.4599  143.6613 LP  0  0  0  0  0  0  0  0  0  0  0  0  # atno 17321 bound_to 7965
  140.3017  143.3256  152.0965 LP  0  0  0  0  0  0  0  0  0  0  0  0  # atno 17342 bound_to 10162
  139.5005  144.6692  151.6282 LP  0  0  0  0  0  0  0  0  0  0  0  0  # atno 17343 bound_to 10162
  155.9903  130.3946  150.3036 LP  0  0  0  0  0  0  0  0  0  0  0  0  # atno 17370 bound_to 10713
  157.1190  131.0241  151.3017 LP  0  0  0  0  0  0  0  0  0  0  0  0  # atno 17371 bound_to 10713
  140.9955  133.7183  156.0879 LP  0  0  0  0  0  0  0  0  0  0  0  0  # atno 17394 bound_to 11000
  140.7568  134.3983  157.5532 LP  0  0  0  0  0  0  0  0  0  0  0  0  # atno 17395 bound_to 11000

$$$$
