AV-unprocessed.smi:1254|AV-procd|sdf|5279|dock1
  -GOLD-   22720 4393D 1   1.00000     0.00000
 Structure written by MMmdl.
 44 45  0  0  0  0  0  0  0  0  2 V2000
  144.8471  134.6042  162.8066 C   0  0  0  0  0  0  0  0  0  0  0  0
  145.9719  135.1567  161.9996 C   0  0  0  0  0  0  0  0  0  0  0  0
  146.3664  136.4322  161.7114 C   0  0  0  0  0  0  0  0  0  0  0  0
  147.5161  136.2409  160.8973 C   0  0  0  0  0  0  0  0  0  0  0  0
  148.2594  137.2118  160.3444 N   0  5  0  0  0  0  0  0  0  0  0  0
  149.2143  136.9062  159.4355 C   0  0  0  0  0  0  0  0  0  0  0  0
  149.4205  135.7976  158.9363 O   0  0  0  0  0  0  0  0  0  0  0  0
  149.9788  137.9513  159.0883 N   0  0  0  0  0  0  0  0  0  0  0  0
  151.0997  137.9280  158.1537 C   0  0  0  0  0  0  0  0  0  0  0  0
  151.4666  139.3419  157.6706 C   0  0  2  0  0  0  0  0  0  0  0  0
  151.3029  140.3905  158.7892 C   0  0  0  0  0  0  0  0  0  0  0  0
  151.5894  141.7449  158.3216 N   0  0  0  0  0  0  0  0  0  0  0  0
  151.4274  142.7548  159.3679 C   0  0  0  0  0  0  0  0  0  0  0  0
  151.5976  144.2219  158.9082 C   0  0  0  0  0  0  0  0  0  0  0  0
  152.9492  144.4476  158.2097 C   0  0  0  0  0  0  0  0  0  0  0  0
  151.4517  145.1920  160.0908 C   0  0  0  0  0  0  0  0  0  0  0  0
  150.7368  142.0391  157.1752 C   0  0  0  0  0  0  0  0  0  0  0  0
  150.8920  140.9926  156.0603 C   0  0  0  0  0  0  0  0  0  0  0  0
  150.6127  139.7013  156.5868 O   0  0  0  0  0  0  0  0  0  0  0  0
  147.7849  134.9618  160.6946 N   0  0  0  0  0  0  0  0  0  0  0  0
  146.8032  134.2596  161.4040 O   0  0  0  0  0  0  0  0  0  0  0  0
  143.8879  134.8709  162.3629 H   0  0  0  0  0  0  0  0  0  0  0  0
  144.8715  134.9995  163.8221 H   0  0  0  0  0  0  0  0  0  0  0  0
  144.9013  133.5169  162.8658 H   0  0  0  0  0  0  0  0  0  0  0  0
  145.9093  137.3560  162.0331 H   0  0  0  0  0  0  0  0  0  0  0  0
  149.7702  138.8372  159.5244 H   0  0  0  0  0  0  0  0  0  0  0  0
  151.9663  137.4279  158.5894 H   0  0  0  0  0  0  0  0  0  0  0  0
  150.7922  137.3201  157.3025 H   0  0  0  0  0  0  0  0  0  0  0  0
  152.5029  139.3442  157.3271 H   0  0  0  0  0  0  0  0  0  0  0  0
  150.2883  140.3438  159.1884 H   0  0  0  0  0  0  0  0  0  0  0  0
  151.9749  140.1290  159.6057 H   0  0  0  0  0  0  0  0  0  0  0  0
  150.4232  142.6463  159.7798 H   0  0  0  0  0  0  0  0  0  0  0  0
  152.0989  142.5413  160.2010 H   0  0  0  0  0  0  0  0  0  0  0  0
  150.8023  144.4662  158.2024 H   0  0  0  0  0  0  0  0  0  0  0  0
  153.7812  144.2597  158.8889 H   0  0  0  0  0  0  0  0  0  0  0  0
  153.0386  145.4745  157.8541 H   0  0  0  0  0  0  0  0  0  0  0  0
  153.0746  143.7932  157.3479 H   0  0  0  0  0  0  0  0  0  0  0  0
  152.2135  145.0111  160.8499 H   0  0  0  0  0  0  0  0  0  0  0  0
  150.4758  145.0881  160.5661 H   0  0  0  0  0  0  0  0  0  0  0  0
  151.5463  146.2277  159.7638 H   0  0  0  0  0  0  0  0  0  0  0  0
  149.6929  142.0747  157.4906 H   0  0  0  0  0  0  0  0  0  0  0  0
  150.9764  143.0259  156.7777 H   0  0  0  0  0  0  0  0  0  0  0  0
  150.2004  141.2013  155.2441 H   0  0  0  0  0  0  0  0  0  0  0  0
  151.8994  141.0149  155.6422 H   0  0  0  0  0  0  0  0  0  0  0  0
  1  2  1  0  0  0  0
  1 22  1  0  0  0  0
  1 23  1  0  0  0  0
  1 24  1  0  0  0  0
  2 21  1  0  0  0  0
  2  3  2  0  0  0  0
  3  4  1  0  0  0  0
  3 25  1  0  0  0  0
  4  5  1  0  0  0  0
  4 20  2  0  0  0  0
  5  6  1  0  0  0  0
  6  7  2  0  0  0  0
  6  8  1  0  0  0  0
  8  9  1  0  0  0  0
  8 26  1  0  0  0  0
  9 10  1  0  0  0  0
  9 27  1  0  0  0  0
  9 28  1  0  0  0  0
 10 19  1  0  0  0  0
 10 11  1  0  0  0  0
 10 29  1  0  0  0  0
 11 12  1  0  0  0  0
 11 30  1  0  0  0  0
 11 31  1  0  0  0  0
 12 13  1  0  0  0  0
 12 17  1  0  0  0  0
 13 14  1  0  0  0  0
 13 32  1  0  0  0  0
 13 33  1  0  0  0  0
 14 15  1  0  0  0  0
 14 16  1  0  0  0  0
 14 34  1  0  0  0  0
 15 35  1  0  0  0  0
 15 36  1  0  0  0  0
 15 37  1  0  0  0  0
 16 38  1  0  0  0  0
 16 39  1  0  0  0  0
 16 40  1  0  0  0  0
 17 18  1  0  0  0  0
 17 41  1  0  0  0  0
 17 42  1  0  0  0  0
 18 19  1  0  0  0  0
 18 43  1  0  0  0  0
 18 44  1  0  0  0  0
 20 21  1  0  0  0  0
M  CHG  1   5  -1
M  END
> <s_m_source_file>
AV-unprocessed.smi

> <i_m_source_file_index>
1254

> <i_lp_mmshare_version>
43012

> <i_f3d_flags>
0

> <s_epik_input>
W0NIM11jMVtjSF1jKG5vMSlbTkhdQyg9TylbTkhdW0NIMl1bQ0BASF0yW0NIMl1OKFtDSDJdW0NIMl1PMilbQ0gyXVtDSF0oW0NIM10pW0NIM10=

> <s_epik_cmdline>
J2VwaWtfcHl0aG9uJywgJy1waCcsICc3LjAnLCAnLXRuJywgJzgnLCAnLW1hJywgJzIwMCcsICctbWV0YWxfYmluZGluZycsICctaW1hZScsICc8aW5maWxlLm1hZT4nLCAnLW9tYWUnLCAnPG91dGZpbGUubWFlPic=

> <r_epik_Ionization_Penalty>
7.56718

> <r_epik_Ionization_Penalty_Charging>
6.43435

> <r_epik_Ionization_Penalty_Neutral>
1.13283

> <r_epik_State_Penalty>
7.60314

> <r_epik_Charging_Adjusted_Penalty>
14.0375

> <i_epik_Tot_Q>
-1

> <i_epik_Tot_abs_Q>
1

> <r_epik_Metal_State_Penalty>
3.53636

> <b_epik_Metal_Only>
1

> <s_lp_Force_Field>
OPLS_2005

> <r_lp_Energy>
18.6131

> <b_lp_Chiralities_Consistent>
1

> <s_lp_Variant>
AV-unprocessed.smi:1254-11

> <Gold.Version>
5.8.1

> <Gold.Id.Protein>
6NUR|6NUR_protein|mol2

> <Gold.PLP.Fitness>
48.1021

> <Gold.PLP.PLP>
-39.1403

> <Gold.PLP.part.hbond>
-3.0000

> <Gold.PLP.part.metal>
0.0000

> <Gold.PLP.part.buried>
-7.0498

> <Gold.PLP.part.nonpolar>
-31.3109

> <Gold.PLP.part.repulsive>
0.2414

> <Gold.PLP.ligand.clash>
0.0000

> <Gold.PLP.ligand.torsion>
0.4232

> <Gold.PLP.Chemscore.Hbond>
3.1989

> <Gold.PLP.Chemscore.CHOScore>
0.0000

> <Gold.PLP.Chemscore.Metal>
0.0000

> <Gold.Chemscore.Hbonds>
donor molecule, donor type, donor heavy atom, donor atom, acceptor molecule, acceptor atom, score
      P1  H  6896  6909       L1     7  1.00
      P1  H  6931  6943       L1     5  1.38
      P1  H  6934  6947       L1     5  0.81

> <Gold.PLP.Chemscore.Internal.Correction>
0.2115

> <Gold.Rescore>
     Score         DG    S(hbond)    S(metal)    S(lipo)     H(rot)  DE(clash)    DE(int)     intcor
     15.55     -17.69       1.61        0.00      94.66       1.65       0.02       2.11       ----

> <Gold.Chemscore.Fitness>
15.5538

> <Gold.Chemscore.DG>
-17.6864

> <Gold.Chemscore.ZeroCoef>
-5.4800

> <Gold.Chemscore.Hbond>
1.6055

> <Gold.Chemscore.Metal>
0.0000

> <Gold.Chemscore.Lipo>
94.6576

> <Gold.Chemscore.Internal_Hbond>
0.0000

> <Gold.Chemscore.DEClash>
0.0233

> <Gold.Chemscore.DEInternal>
2.1093

> <Gold.Chemscore.Rot>
1.6526

> <Gold.Chemscore.Internal.Correction>
   9.000000E+99

> <Gold.Chemscore.Hbonds>
donor molecule, donor type, donor heavy atom, donor atom, acceptor molecule, acceptor atom, score
      P1  H  6896  6909       L1     7  0.98
      P1  H  6931  6943       L1     5  0.28
      P1  H  6934  6947       L1     5  0.16

> <Gold.Chemscore.Hbond.Weighted>
-5.3623

> <Gold.Chemscore.Metal.Weighted>
-0.0000

> <Gold.Chemscore.Lipo.Weighted>
-11.0749

> <Gold.Chemscore.Internal_Hbond.Weighted>
0.0000

> <Gold.Chemscore.DEClash.Weighted>
0.0233

> <Gold.Chemscore.DEInternal.Weighted>
2.1093

> <Gold.Chemscore.Rot.Weighted>
4.2308

> <Gold.Chemscore.Internal.Correction.Weighted>
   9.000000E+99

> <Gold.Protein.RotatedTorsions>
[ 6907 6896 6895 6894 ] final   57.60 input  -60.11 | X-H torsion
[ 7974 7965 7964 7962 ] final  -11.84 input  175.53 | X-H torsion
[ 8008 7997 7996 7995 ] final   20.15 input   59.86 | X-H torsion
[ 10167 10162 10161 10158 ] final -164.78 input  -65.29 | X-H torsion
[ 10718 10713 10712 10709 ] final  -67.33 input   66.30 | X-H torsion
[ 10763 10752 10751 10750 ] final   -0.89 input  -60.55 | X-H torsion
[ 11005 11000 10999 10996 ] final  -27.08 input  -57.11 | X-H torsion

> <Gold.Protein.ActiveResidues>
 VAL166  LYS551  ARG553  GLY616  TRP617  ASP618  TYR619  PRO620  LYS621  CYS622 
 ASP623  PHE694  ASN695  SER759  ASP760  ASP761  ALA762  ILE779  LEU786  VAL792 
 PHE793  MET794  SER795  GLU796  ALA797  LYS798  CYS799  TRP800  GLU811  SER814 

> <Gold.Protein.RotatedAtoms>
  152.3746  134.6682  160.0163 H   0  0  0  0  0  0  0  0  0  0  0  0  # atno 6907 bound_to 6896
  151.6964  133.3305  159.3263 H   0  0  0  0  0  0  0  0  0  0  0  0  # atno 6908 bound_to 6896
  150.7700  134.6589  159.6373 H   0  0  0  0  0  0  0  0  0  0  0  0  # atno 6909 bound_to 6896
  146.2173  140.2969  142.8372 H   0  0  0  0  0  0  0  0  0  0  0  0  # atno 7974 bound_to 7965
  154.9313  140.3041  155.5166 H   0  0  0  0  0  0  0  0  0  0  0  0  # atno 8008 bound_to 7997
  156.3003  140.2353  156.4310 H   0  0  0  0  0  0  0  0  0  0  0  0  # atno 8009 bound_to 7997
  154.8234  140.0422  157.1415 H   0  0  0  0  0  0  0  0  0  0  0  0  # atno 8010 bound_to 7997
  139.6227  144.0593  152.1947 H   0  0  0  0  0  0  0  0  0  0  0  0  # atno 10167 bound_to 10162
  156.0564  130.4276  150.1838 H   0  0  0  0  0  0  0  0  0  0  0  0  # atno 10718 bound_to 10713
  153.3377  135.6979  153.6893 H   0  0  0  0  0  0  0  0  0  0  0  0  # atno 10763 bound_to 10752
  153.5671  135.3523  155.2823 H   0  0  0  0  0  0  0  0  0  0  0  0  # atno 10764 bound_to 10752
  154.8630  135.4263  154.2582 H   0  0  0  0  0  0  0  0  0  0  0  0  # atno 10765 bound_to 10752
  140.9087  133.7475  156.0641 H   0  0  0  0  0  0  0  0  0  0  0  0  # atno 11005 bound_to 11000
  144.9085  140.7729  143.5822 LP  0  0  0  0  0  0  0  0  0  0  0  0  # atno 17320 bound_to 7965
  145.2899  139.1887  143.4746 LP  0  0  0  0  0  0  0  0  0  0  0  0  # atno 17321 bound_to 7965
  140.0239  144.6132  150.7544 LP  0  0  0  0  0  0  0  0  0  0  0  0  # atno 17342 bound_to 10162
  140.7392  143.2788  151.3661 LP  0  0  0  0  0  0  0  0  0  0  0  0  # atno 17343 bound_to 10162
  156.9913  130.9894  151.3414 LP  0  0  0  0  0  0  0  0  0  0  0  0  # atno 17370 bound_to 10713
  157.5537  130.8199  149.8177 LP  0  0  0  0  0  0  0  0  0  0  0  0  # atno 17371 bound_to 10713
  140.8138  134.3369  157.5403 LP  0  0  0  0  0  0  0  0  0  0  0  0  # atno 17394 bound_to 11000
  139.8754  134.9269  156.3413 LP  0  0  0  0  0  0  0  0  0  0  0  0  # atno 17395 bound_to 11000

$$$$
