AV-unprocessed.smi:2822|AV-procd|sdf|10871|dock7
  -GOLD-   2272015313D 1   1.00000     0.00000
 Structure written by MMmdl.
 40 42  0  0  0  0  0  0  0  0  2 V2000
  146.7596  142.8573  154.0951 Cl  0  0  0  0  0  0  0  0  0  0  0  0
  147.4138  141.2581  154.0190 C   0  0  0  0  0  0  0  0  0  0  0  0
  146.9451  140.3552  153.0427 C   0  0  0  0  0  0  0  0  0  0  0  0
  147.4040  139.0923  152.9166 N   0  0  0  0  0  0  0  0  0  0  0  0
  148.3615  138.6828  153.7746 C   0  0  0  0  0  0  0  0  0  0  0  0
  148.9001  139.5036  154.7856 C   0  0  0  0  0  0  0  0  0  0  0  0
  148.4174  140.8268  154.9165 C   0  0  0  0  0  0  0  0  0  0  0  0
  148.8948  141.7128  155.8934 N   0  0  0  0  0  0  0  0  0  0  0  0
  149.3875  141.2392  157.1791 C   0  0  0  0  0  0  0  0  0  0  0  0
  150.7651  141.8285  157.5256 C   0  0  1  0  0  0  0  0  0  0  0  0
  150.6997  143.2779  158.0493 C   0  0  0  0  0  0  0  0  0  0  0  0
  152.0530  143.7601  158.4203 N   0  3  1  0  0  0  0  0  0  0  0  0
  152.0779  145.1655  158.9032 C   0  0  0  0  0  0  0  0  0  0  0  0
  151.5277  145.2999  160.3367 C   0  0  0  0  0  0  0  0  0  0  0  0
  152.2564  144.3532  161.3005 C   0  0  0  0  0  0  0  0  0  0  0  0
  152.2058  142.9106  160.7773 C   0  0  0  0  0  0  0  0  0  0  0  0
  152.7599  142.8245  159.3383 C   0  0  1  0  0  0  0  0  0  0  0  0
  152.7268  141.3917  158.7711 C   0  0  0  0  0  0  0  0  0  0  0  0
  151.3892  140.9944  158.4960 O   0  0  0  0  0  0  0  0  0  0  0  0
  146.1799  140.6555  152.3421 H   0  0  0  0  0  0  0  0  0  0  0  0
  148.7102  137.6681  153.6526 H   0  0  0  0  0  0  0  0  0  0  0  0
  149.6637  139.1063  155.4372 H   0  0  0  0  0  0  0  0  0  0  0  0
  148.8916  142.7058  155.7070 H   0  0  0  0  0  0  0  0  0  0  0  0
  148.6694  141.5040  157.9559 H   0  0  0  0  0  0  0  0  0  0  0  0
  149.4529  140.1508  157.1585 H   0  0  0  0  0  0  0  0  0  0  0  0
  151.3678  141.8093  156.6157 H   0  0  0  0  0  0  0  0  0  0  0  0
  150.2800  143.9295  157.2819 H   0  0  0  0  0  0  0  0  0  0  0  0
  150.0351  143.3390  158.9108 H   0  0  0  0  0  0  0  0  0  0  0  0
  153.1105  145.5163  158.8787 H   0  0  0  0  0  0  0  0  0  0  0  0
  151.5205  145.8051  158.2178 H   0  0  0  0  0  0  0  0  0  0  0  0
  151.6359  146.3297  160.6782 H   0  0  0  0  0  0  0  0  0  0  0  0
  150.4582  145.0885  160.3517 H   0  0  0  0  0  0  0  0  0  0  0  0
  153.2951  144.6685  161.4078 H   0  0  0  0  0  0  0  0  0  0  0  0
  151.8093  144.4093  162.2934 H   0  0  0  0  0  0  0  0  0  0  0  0
  152.7847  142.2637  161.4375 H   0  0  0  0  0  0  0  0  0  0  0  0
  151.1803  142.5411  160.8144 H   0  0  0  0  0  0  0  0  0  0  0  0
  153.8048  143.1372  159.3717 H   0  0  0  0  0  0  0  0  0  0  0  0
  153.3236  141.3265  157.8601 H   0  0  0  0  0  0  0  0  0  0  0  0
  153.1669  140.6912  159.4812 H   0  0  0  0  0  0  0  0  0  0  0  0
  152.5809  143.7540  157.5591 H   0  0  0  0  0  0  0  0  0  0  0  0
  1  2  1  0  0  0  0
  2  7  1  0  0  0  0
  2  3  2  0  0  0  0
  3  4  1  0  0  0  0
  3 20  1  0  0  0  0
  4  5  2  0  0  0  0
  5  6  1  0  0  0  0
  5 21  1  0  0  0  0
  6  7  2  0  0  0  0
  6 22  1  0  0  0  0
  7  8  1  0  0  0  0
  8  9  1  0  0  0  0
  8 23  1  0  0  0  0
  9 10  1  0  0  0  0
  9 24  1  0  0  0  0
  9 25  1  0  0  0  0
 10 19  1  0  0  0  0
 10 11  1  0  0  0  0
 10 26  1  0  0  0  0
 11 12  1  0  0  0  0
 11 27  1  0  0  0  0
 11 28  1  0  0  0  0
 12 17  1  0  0  0  0
 12 13  1  0  0  0  0
 12 40  1  0  0  0  0
 13 14  1  0  0  0  0
 13 29  1  0  0  0  0
 13 30  1  0  0  0  0
 14 15  1  0  0  0  0
 14 31  1  0  0  0  0
 14 32  1  0  0  0  0
 15 16  1  0  0  0  0
 15 33  1  0  0  0  0
 15 34  1  0  0  0  0
 16 17  1  0  0  0  0
 16 35  1  0  0  0  0
 16 36  1  0  0  0  0
 17 18  1  0  0  0  0
 17 37  1  0  0  0  0
 18 19  1  0  0  0  0
 18 38  1  0  0  0  0
 18 39  1  0  0  0  0
M  CHG  1  12   1
M  END
> <s_m_source_file>
AV-unprocessed.smi

> <i_m_source_file_index>
2822

> <i_lp_mmshare_version>
43012

> <i_f3d_flags>
0

> <s_epik_input>
Q2xjMVtjSF1uW2NIXVtjSF1jMVtOSF1bQ0gyXVtDQEhdKFtDSDJdMilPW0NIMl1bQ0BASF0oTjIzKVtDSDJdW0NIMl1bQ0gyXVtDSDJdMw==

> <s_epik_cmdline>
J2VwaWtfcHl0aG9uJywgJy1waCcsICc3LjAnLCAnLXRuJywgJzgnLCAnLW1hJywgJzIwMCcsICctbWV0YWxfYmluZGluZycsICctaW1hZScsICc8aW5maWxlLm1hZT4nLCAnLW9tYWUnLCAnPG91dGZpbGUubWFlPic=

> <r_lp_tautomer_probability>
0.999999

> <r_epik_Ionization_Penalty>
0.88937

> <r_epik_Ionization_Penalty_Charging>
0.0803403

> <r_epik_Ionization_Penalty_Neutral>
0.80903

> <r_epik_State_Penalty>
0.931884

> <r_epik_Charging_Adjusted_Penalty>
1.01222

> <i_epik_Tot_Q>
1

> <i_epik_Tot_abs_Q>
1

> <r_epik_Metal_State_Penalty>
0.0782275

> <b_epik_Metal_Only>
0

> <s_lp_Force_Field>
OPLS_2005

> <r_lp_Energy>
33.0779

> <b_lp_Chiralities_Consistent>
1

> <s_lp_Variant>
AV-unprocessed.smi:2822-12

> <Gold.Version>
5.8.1

> <Gold.Id.Protein>
6NUR|6NUR_protein|mol2

> <Gold.PLP.Fitness>
48.1447

> <Gold.PLP.PLP>
-40.0111

> <Gold.PLP.part.hbond>
-1.0000

> <Gold.PLP.part.metal>
0.0000

> <Gold.PLP.part.buried>
-5.0974

> <Gold.PLP.part.nonpolar>
-36.3202

> <Gold.PLP.part.repulsive>
1.4141

> <Gold.PLP.ligand.clash>
0.0000

> <Gold.PLP.ligand.torsion>
0.4172

> <Gold.PLP.Chemscore.Hbond>
1.0000

> <Gold.PLP.Chemscore.CHOScore>
1.9887

> <Gold.PLP.Chemscore.Metal>
0.0000

> <Gold.Chemscore.Hbonds>
donor molecule, donor type, donor heavy atom, donor atom, acceptor molecule, acceptor atom, score
      L1  H     8    23       P1  8028  1.00
      L1  C     3    20       P1 10175  0.99
      L1  C     5    21       P1  7948  1.00

> <Gold.PLP.Chemscore.Internal.Correction>
0.0018

> <Gold.Rescore>
     Score         DG    S(hbond)    S(metal)    S(lipo)     H(rot)  DE(clash)    DE(int)     intcor
     16.10     -16.25       0.00        0.00     117.64       1.17       0.10       0.06       ----

> <Gold.Chemscore.Fitness>
16.0956

> <Gold.Chemscore.DG>
-16.2546

> <Gold.Chemscore.ZeroCoef>
-5.4800

> <Gold.Chemscore.Hbond>
0.0011

> <Gold.Chemscore.Metal>
0.0000

> <Gold.Chemscore.Lipo>
117.6420

> <Gold.Chemscore.Internal_Hbond>
0.0000

> <Gold.Chemscore.DEClash>
0.0979

> <Gold.Chemscore.DEInternal>
0.0611

> <Gold.Chemscore.Rot>
1.1693

> <Gold.Chemscore.Internal.Correction>
   9.000000E+99

> <Gold.Chemscore.Hbonds>
donor molecule, donor type, donor heavy atom, donor atom, acceptor molecule, acceptor atom, score
      L1  H     8    23       P1  8028  0.95

> <Gold.Chemscore.Hbond.Weighted>
-0.0038

> <Gold.Chemscore.Metal.Weighted>
-0.0000

> <Gold.Chemscore.Lipo.Weighted>
-13.7641

> <Gold.Chemscore.Internal_Hbond.Weighted>
0.0000

> <Gold.Chemscore.DEClash.Weighted>
0.0979

> <Gold.Chemscore.DEInternal.Weighted>
0.0611

> <Gold.Chemscore.Rot.Weighted>
2.9934

> <Gold.Chemscore.Internal.Correction.Weighted>
   9.000000E+99

> <Gold.Protein.RotatedTorsions>
[ 6907 6896 6895 6894 ] final -109.17 input  -60.11 | X-H torsion
[ 7974 7965 7964 7962 ] final -146.22 input  175.53 | X-H torsion
[ 8008 7997 7996 7995 ] final   25.42 input   59.86 | X-H torsion
[ 10167 10162 10161 10158 ] final  103.10 input  -65.29 | X-H torsion
[ 10718 10713 10712 10709 ] final  138.52 input   66.30 | X-H torsion
[ 10763 10752 10751 10750 ] final  -29.96 input  -60.55 | X-H torsion
[ 11005 11000 10999 10996 ] final  -39.63 input  -57.11 | X-H torsion

> <Gold.Protein.ActiveResidues>
 VAL166  LYS551  ARG553  GLY616  TRP617  ASP618  TYR619  PRO620  LYS621  CYS622 
 ASP623  PHE694  ASN695  SER759  ASP760  ASP761  ALA762  ILE779  LEU786  VAL792 
 PHE793  MET794  SER795  GLU796  ALA797  LYS798  CYS799  TRP800  GLU811  SER814 

> <Gold.Protein.RotatedAtoms>
  150.7546  133.9569  159.3502 H   0  0  0  0  0  0  0  0  0  0  0  0  # atno 6907 bound_to 6896
  151.7491  135.0835  160.0337 H   0  0  0  0  0  0  0  0  0  0  0  0  # atno 6908 bound_to 6896
  152.3478  133.6106  159.5959 H   0  0  0  0  0  0  0  0  0  0  0  0  # atno 6909 bound_to 6896
  144.8174  140.5484  143.5601 H   0  0  0  0  0  0  0  0  0  0  0  0  # atno 7974 bound_to 7965
  155.0115  140.3137  155.4828 H   0  0  0  0  0  0  0  0  0  0  0  0  # atno 8008 bound_to 7997
  156.2908  140.2214  156.5171 H   0  0  0  0  0  0  0  0  0  0  0  0  # atno 8009 bound_to 7997
  154.7530  140.0464  157.0898 H   0  0  0  0  0  0  0  0  0  0  0  0  # atno 8010 bound_to 7997
  139.7292  144.7040  151.0749 H   0  0  0  0  0  0  0  0  0  0  0  0  # atno 10167 bound_to 10162
  157.4245  131.1042  151.0318 H   0  0  0  0  0  0  0  0  0  0  0  0  # atno 10718 bound_to 10713
  153.7731  135.6911  153.4902 H   0  0  0  0  0  0  0  0  0  0  0  0  # atno 10763 bound_to 10752
  153.1861  135.4488  155.0089 H   0  0  0  0  0  0  0  0  0  0  0  0  # atno 10764 bound_to 10752
  154.8110  135.3377  154.7239 H   0  0  0  0  0  0  0  0  0  0  0  0  # atno 10765 bound_to 10752
  141.0116  133.6905  156.2213 H   0  0  0  0  0  0  0  0  0  0  0  0  # atno 11005 bound_to 11000
  145.5183  139.1477  143.3566 LP  0  0  0  0  0  0  0  0  0  0  0  0  # atno 17320 bound_to 7965
  146.2478  140.5324  142.8906 LP  0  0  0  0  0  0  0  0  0  0  0  0  # atno 17321 bound_to 7965
  140.7768  143.5065  150.9705 LP  0  0  0  0  0  0  0  0  0  0  0  0  # atno 17342 bound_to 10162
  139.8753  143.7140  152.3162 LP  0  0  0  0  0  0  0  0  0  0  0  0  # atno 17343 bound_to 10162
  157.1237  130.6072  149.5511 LP  0  0  0  0  0  0  0  0  0  0  0  0  # atno 17370 bound_to 10713
  155.9891  130.4938  150.7202 LP  0  0  0  0  0  0  0  0  0  0  0  0  # atno 17371 bound_to 10713
  140.6724  134.4853  157.5587 LP  0  0  0  0  0  0  0  0  0  0  0  0  # atno 17394 bound_to 11000
  139.9093  134.8380  156.1588 LP  0  0  0  0  0  0  0  0  0  0  0  0  # atno 17395 bound_to 11000

$$$$
