AV-unprocessed.smi:498|AV-procd|sdf|2729|dock8
  -GOLD-   2262023183D 1   1.00000     0.00000
 Structure written by MMmdl.
 43 45  0  0  0  0  0  0  0  0  2 V2000
  147.3277  141.9122  153.9592 C   0  0  0  0  0  0  0  0  0  0  0  0
  148.6857  141.2077  153.9632 C   0  0  0  0  0  0  0  0  0  0  0  0
  149.2110  141.2317  155.2796 O   0  0  0  0  0  0  0  0  0  0  0  0
  148.3527  140.6155  156.2231 C   0  0  0  0  0  0  0  0  0  0  0  0
  148.6040  141.2412  157.6020 C   0  0  0  0  0  0  0  0  0  0  0  0
  149.9256  140.8815  158.1314 N   0  0  0  0  0  0  0  0  0  0  0  0
  150.4919  139.6569  158.3458 C   0  0  0  0  0  0  0  0  0  0  0  0
  149.8827  138.3157  158.0809 C   0  0  0  0  0  0  0  0  0  0  0  0
  149.2431  137.7619  159.2695 N   0  0  0  0  0  0  0  0  0  0  0  0
  148.9842  136.4620  159.4846 C   0  0  0  0  0  0  0  0  0  0  0  0
  149.3495  135.5607  158.7309 O   0  0  0  0  0  0  0  0  0  0  0  0
  148.1661  136.1618  160.6740 C   0  0  0  0  0  0  0  0  0  0  0  0
  147.7170  134.9744  161.1899 C   0  0  0  0  0  0  0  0  0  0  0  0
  146.9786  135.2938  162.3627 C   0  0  0  0  0  0  0  0  0  0  0  0
  147.0236  136.6534  162.4764 C   0  0  0  0  0  0  0  0  0  0  0  0
  147.7393  137.1965  161.4548 O   0  0  0  0  0  0  0  0  0  0  0  0
  151.7345  139.8763  158.8623 N   0  3  0  0  0  0  0  0  0  0  0  0
  151.9624  141.2479  158.9844 C   0  0  0  0  0  0  0  0  0  0  0  0
  153.0662  141.9508  159.4578 C   0  0  0  0  0  0  0  0  0  0  0  0
  152.9703  143.3580  159.4523 C   0  0  0  0  0  0  0  0  0  0  0  0
  151.8109  144.0134  158.9887 C   0  0  0  0  0  0  0  0  0  0  0  0
  150.6983  143.2901  158.5104 C   0  0  0  0  0  0  0  0  0  0  0  0
  150.8026  141.8997  158.5183 C   0  0  0  0  0  0  0  0  0  0  0  0
  146.8950  141.9180  152.9588 H   0  0  0  0  0  0  0  0  0  0  0  0
  147.4244  142.9477  154.2872 H   0  0  0  0  0  0  0  0  0  0  0  0
  146.6249  141.4124  154.6260 H   0  0  0  0  0  0  0  0  0  0  0  0
  148.5776  140.1775  153.6210 H   0  0  0  0  0  0  0  0  0  0  0  0
  149.3631  141.7151  153.2750 H   0  0  0  0  0  0  0  0  0  0  0  0
  147.3093  140.7384  155.9294 H   0  0  0  0  0  0  0  0  0  0  0  0
  148.5562  139.5443  156.2554 H   0  0  0  0  0  0  0  0  0  0  0  0
  148.5658  142.3284  157.5368 H   0  0  0  0  0  0  0  0  0  0  0  0
  147.8339  140.9525  158.3180 H   0  0  0  0  0  0  0  0  0  0  0  0
  149.1878  138.4054  157.2446 H   0  0  0  0  0  0  0  0  0  0  0  0
  150.6628  137.6246  157.7605 H   0  0  0  0  0  0  0  0  0  0  0  0
  148.9013  138.4246  159.9500 H   0  0  0  0  0  0  0  0  0  0  0  0
  147.9008  133.9927  160.7784 H   0  0  0  0  0  0  0  0  0  0  0  0
  146.4778  134.6151  163.0371 H   0  0  0  0  0  0  0  0  0  0  0  0
  146.6223  137.3616  163.1864 H   0  0  0  0  0  0  0  0  0  0  0  0
  153.9553  141.4513  159.8144 H   0  0  0  0  0  0  0  0  0  0  0  0
  153.8021  143.9465  159.8120 H   0  0  0  0  0  0  0  0  0  0  0  0
  151.7733  145.0932  159.0002 H   0  0  0  0  0  0  0  0  0  0  0  0
  149.8138  143.8008  158.1590 H   0  0  0  0  0  0  0  0  0  0  0  0
  152.3780  139.1376  159.1155 H   0  0  0  0  0  0  0  0  0  0  0  0
  1  2  1  0  0  0  0
  1 24  1  0  0  0  0
  1 25  1  0  0  0  0
  1 26  1  0  0  0  0
  2  3  1  0  0  0  0
  2 27  1  0  0  0  0
  2 28  1  0  0  0  0
  3  4  1  0  0  0  0
  4  5  1  0  0  0  0
  4 29  1  0  0  0  0
  4 30  1  0  0  0  0
  5  6  1  0  0  0  0
  5 31  1  0  0  0  0
  5 32  1  0  0  0  0
  6 23  1  0  0  0  0
  6  7  1  0  0  0  0
  7  8  1  0  0  0  0
  7 17  2  0  0  0  0
  8  9  1  0  0  0  0
  8 33  1  0  0  0  0
  8 34  1  0  0  0  0
  9 10  1  0  0  0  0
  9 35  1  0  0  0  0
 10 11  2  0  0  0  0
 10 12  1  0  0  0  0
 12 16  1  0  0  0  0
 12 13  2  0  0  0  0
 13 14  1  0  0  0  0
 13 36  1  0  0  0  0
 14 15  2  0  0  0  0
 14 37  1  0  0  0  0
 15 16  1  0  0  0  0
 15 38  1  0  0  0  0
 17 18  1  0  0  0  0
 17 43  1  0  0  0  0
 18 23  2  0  0  0  0
 18 19  1  0  0  0  0
 19 20  2  0  0  0  0
 19 39  1  0  0  0  0
 20 21  1  0  0  0  0
 20 40  1  0  0  0  0
 21 22  2  0  0  0  0
 21 41  1  0  0  0  0
 22 23  1  0  0  0  0
 22 42  1  0  0  0  0
M  CHG  1  17   1
M  END
> <s_m_source_file>
AV-unprocessed.smi

> <i_m_source_file_index>
498

> <i_lp_mmshare_version>
43012

> <i_f3d_flags>
0

> <s_epik_input>
W0NIM11bQ0gyXU9bQ0gyXVtDSDJdbihjKGMxMilbY0hdW2NIXVtjSF1bY0hdMiljKG4xKVtDSDJdW05IXUMoPU8pYzNbY0hdW2NIXVtjSF1vMw==

> <s_epik_cmdline>
J2VwaWtfcHl0aG9uJywgJy1waCcsICc3LjAnLCAnLXRuJywgJzgnLCAnLW1hJywgJzIwMCcsICctbWV0YWxfYmluZGluZycsICctaW1hZScsICc8aW5maWxlLm1hZT4nLCAnLW9tYWUnLCAnPG91dGZpbGUubWFlPic=

> <r_epik_Ionization_Penalty>
1.29911

> <r_epik_Ionization_Penalty_Charging>
1.29908

> <r_epik_Ionization_Penalty_Neutral>
2.77772e-05

> <r_epik_State_Penalty>
1.37286

> <r_epik_Charging_Adjusted_Penalty>
2.67194

> <i_epik_Tot_Q>
1

> <i_epik_Tot_abs_Q>
1

> <r_epik_Metal_State_Penalty>
1.47523

> <b_epik_Metal_Only>
0

> <s_lp_Force_Field>
OPLS_2005

> <r_lp_Energy>
10.1123

> <b_lp_Chiralities_Consistent>
1

> <s_lp_Variant>
AV-unprocessed.smi:498-2

> <Gold.Version>
5.8.1

> <Gold.Id.Protein>
6NUR|6NUR_protein|mol2

> <Gold.PLP.Fitness>
53.0478

> <Gold.PLP.PLP>
-46.1123

> <Gold.PLP.part.hbond>
-3.0000

> <Gold.PLP.part.metal>
0.0000

> <Gold.PLP.part.buried>
-6.3854

> <Gold.PLP.part.nonpolar>
-37.3710

> <Gold.PLP.part.repulsive>
0.7265

> <Gold.PLP.ligand.clash>
0.0000

> <Gold.PLP.ligand.torsion>
0.7090

> <Gold.PLP.Chemscore.Hbond>
2.7520

> <Gold.PLP.Chemscore.CHOScore>
0.0000

> <Gold.PLP.Chemscore.Metal>
0.0000

> <Gold.Chemscore.Hbonds>
donor molecule, donor type, donor heavy atom, donor atom, acceptor molecule, acceptor atom, score
      P1  H  6896  6908       L1    11  1.00
      P1  H  6931  6943       L1    16  1.00
      P1  H  6934  6947       L1    16  0.77

> <Gold.PLP.Chemscore.Internal.Correction>
0.0976

> <Gold.Rescore>
     Score         DG    S(hbond)    S(metal)    S(lipo)     H(rot)  DE(clash)    DE(int)     intcor
     20.37     -21.29       2.38        0.00     111.94       2.04       0.27       0.66       ----

> <Gold.Chemscore.Fitness>
20.3650

> <Gold.Chemscore.DG>
-21.2942

> <Gold.Chemscore.ZeroCoef>
-5.4800

> <Gold.Chemscore.Hbond>
2.3797

> <Gold.Chemscore.Metal>
0.0000

> <Gold.Chemscore.Lipo>
111.9367

> <Gold.Chemscore.Internal_Hbond>
0.0000

> <Gold.Chemscore.DEClash>
0.2725

> <Gold.Chemscore.DEInternal>
0.6567

> <Gold.Chemscore.Rot>
2.0432

> <Gold.Chemscore.Internal.Correction>
   9.000000E+99

> <Gold.Chemscore.Hbonds>
donor molecule, donor type, donor heavy atom, donor atom, acceptor molecule, acceptor atom, score
      P1  H  6896  6908       L1    11  0.74
      P1  H  6931  6943       L1    16  0.75
      P1  H  6934  6947       L1    16  0.67

> <Gold.Chemscore.Hbond.Weighted>
-7.9482

> <Gold.Chemscore.Metal.Weighted>
-0.0000

> <Gold.Chemscore.Lipo.Weighted>
-13.0966

> <Gold.Chemscore.Internal_Hbond.Weighted>
0.0000

> <Gold.Chemscore.DEClash.Weighted>
0.2725

> <Gold.Chemscore.DEInternal.Weighted>
0.6567

> <Gold.Chemscore.Rot.Weighted>
5.2306

> <Gold.Chemscore.Internal.Correction.Weighted>
   9.000000E+99

> <Gold.Protein.RotatedTorsions>
[ 6907 6896 6895 6894 ] final  168.96 input  -60.11 | X-H torsion
[ 7974 7965 7964 7962 ] final  -42.79 input  175.53 | X-H torsion
[ 8008 7997 7996 7995 ] final   49.90 input   59.86 | X-H torsion
[ 10167 10162 10161 10158 ] final    0.00 input  -65.29 | X-H torsion
[ 10718 10713 10712 10709 ] final  -37.22 input   66.30 | X-H torsion
[ 10763 10752 10751 10750 ] final  146.03 input  -60.55 | X-H torsion
[ 11005 11000 10999 10996 ] final  -42.51 input  -57.11 | X-H torsion

> <Gold.Protein.ActiveResidues>
 VAL166  LYS551  ARG553  GLY616  TRP617  ASP618  TYR619  PRO620  LYS621  CYS622 
 ASP623  PHE694  ASN695  SER759  ASP760  ASP761  ALA762  ILE779  LEU786  VAL792 
 PHE793  MET794  SER795  GLU796  ALA797  LYS798  CYS799  TRP800  GLU811  SER814 

> <Gold.Protein.RotatedAtoms>
  151.8394  133.3421  159.3638 H   0  0  0  0  0  0  0  0  0  0  0  0  # atno 6907 bound_to 6896
  150.7239  134.5406  159.5754 H   0  0  0  0  0  0  0  0  0  0  0  0  # atno 6908 bound_to 6896
  152.2876  134.7759  160.0435 H   0  0  0  0  0  0  0  0  0  0  0  0  # atno 6909 bound_to 6896
  146.0081  140.6996  142.9237 H   0  0  0  0  0  0  0  0  0  0  0  0  # atno 7974 bound_to 7965
  155.4099  140.3442  155.4263 H   0  0  0  0  0  0  0  0  0  0  0  0  # atno 8008 bound_to 7997
  156.1455  140.1555  156.8886 H   0  0  0  0  0  0  0  0  0  0  0  0  # atno 8009 bound_to 7997
  154.5006  140.0815  156.7772 H   0  0  0  0  0  0  0  0  0  0  0  0  # atno 8010 bound_to 7997
  140.6748  143.6947  150.7999 H   0  0  0  0  0  0  0  0  0  0  0  0  # atno 10167 bound_to 10162
  156.3178  130.4261  149.7989 H   0  0  0  0  0  0  0  0  0  0  0  0  # atno 10718 bound_to 10713
  154.0151  135.2911  155.3388 H   0  0  0  0  0  0  0  0  0  0  0  0  # atno 10763 bound_to 10752
  154.7080  135.5161  153.8627 H   0  0  0  0  0  0  0  0  0  0  0  0  # atno 10764 bound_to 10752
  153.0706  135.6646  154.0379 H   0  0  0  0  0  0  0  0  0  0  0  0  # atno 10765 bound_to 10752
  141.0320  133.6816  156.2605 H   0  0  0  0  0  0  0  0  0  0  0  0  # atno 11005 bound_to 11000
  144.6943  140.3351  143.7209 LP  0  0  0  0  0  0  0  0  0  0  0  0  # atno 17320 bound_to 7965
  145.7384  139.1757  143.2390 LP  0  0  0  0  0  0  0  0  0  0  0  0  # atno 17321 bound_to 7965
  140.0638  143.5128  152.2614 LP  0  0  0  0  0  0  0  0  0  0  0  0  # atno 17342 bound_to 10162
  139.6034  144.7589  151.3117 LP  0  0  0  0  0  0  0  0  0  0  0  0  # atno 17343 bound_to 10162
  156.5308  130.8257  151.3236 LP  0  0  0  0  0  0  0  0  0  0  0  0  # atno 17370 bound_to 10713
  157.7405  130.9852  150.2383 LP  0  0  0  0  0  0  0  0  0  0  0  0  # atno 17371 bound_to 10713
  140.6389  134.5187  157.5567 LP  0  0  0  0  0  0  0  0  0  0  0  0  # atno 17394 bound_to 11000
  139.9215  134.8140  156.1198 LP  0  0  0  0  0  0  0  0  0  0  0  0  # atno 17395 bound_to 11000

$$$$
