AV-unprocessed.smi:3068|AV-procd|sdf|11699|dock3
  -GOLD-   2272017103D 1   1.00000     0.00000
 Structure written by MMmdl.
 40 42  0  0  0  0  0  0  0  0  2 V2000
  151.4126  138.4291  154.5694 N   0  0  0  0  0  0  0  0  0  0  0  0
  150.7304  139.3486  154.7377 C   0  0  0  0  0  0  0  0  0  0  0  0
  149.8699  140.5056  154.9492 C   0  0  0  0  0  0  0  0  0  0  0  0
  150.3167  141.4462  155.8131 N   0  0  0  0  0  0  0  0  0  0  0  0
  149.5301  142.5249  156.0141 C   0  0  0  0  0  0  0  0  0  0  0  0
  148.2943  142.6699  155.3542 C   0  0  0  0  0  0  0  0  0  0  0  0
  147.8400  141.7364  154.4908 N   0  0  0  0  0  0  0  0  0  0  0  0
  148.6214  140.6478  154.2797 C   0  0  0  0  0  0  0  0  0  0  0  0
  148.1609  139.6693  153.3810 N   0  0  0  0  0  0  0  0  0  0  0  0
  147.8425  138.3228  153.8344 C   0  0  0  0  0  0  0  0  0  0  0  0
  146.3305  138.1524  154.0819 C   0  0  1  0  0  0  0  0  0  0  0  0
  145.5587  137.7110  152.8241 C   0  0  0  0  0  0  0  0  0  0  0  0
  145.8530  136.3006  152.4766 N   0  3  2  0  0  0  0  0  0  0  0  0
  145.1459  135.8684  151.2439 C   0  0  0  0  0  0  0  0  0  0  0  0
  145.5332  134.4330  150.8548 C   0  0  0  0  0  0  0  0  0  0  0  0
  145.2616  133.4633  152.0116 C   0  0  0  0  0  0  0  0  0  0  0  0
  145.9835  133.9439  153.2772 C   0  0  0  0  0  0  0  0  0  0  0  0
  145.5974  135.3948  153.6293 C   0  0  1  0  0  0  0  0  0  0  0  0
  146.3686  135.8862  154.8691 C   0  0  0  0  0  0  0  0  0  0  0  0
  146.0493  137.2451  155.1481 O   0  0  0  0  0  0  0  0  0  0  0  0
  149.8887  143.2751  156.7032 H   0  0  0  0  0  0  0  0  0  0  0  0
  147.6702  143.5357  155.5183 H   0  0  0  0  0  0  0  0  0  0  0  0
  147.9393  139.9280  152.4297 H   0  0  0  0  0  0  0  0  0  0  0  0
  148.1644  137.6197  153.0652 H   0  0  0  0  0  0  0  0  0  0  0  0
  148.4152  138.0856  154.7309 H   0  0  0  0  0  0  0  0  0  0  0  0
  145.9367  139.1230  154.3861 H   0  0  0  0  0  0  0  0  0  0  0  0
  144.4870  137.8175  152.9987 H   0  0  0  0  0  0  0  0  0  0  0  0
  145.8069  138.3613  151.9843 H   0  0  0  0  0  0  0  0  0  0  0  0
  144.0675  135.9359  151.3982 H   0  0  0  0  0  0  0  0  0  0  0  0
  145.3919  136.5460  150.4255 H   0  0  0  0  0  0  0  0  0  0  0  0
  144.9755  134.1231  149.9707 H   0  0  0  0  0  0  0  0  0  0  0  0
  146.5894  134.3972  150.5841 H   0  0  0  0  0  0  0  0  0  0  0  0
  144.1888  133.4005  152.1985 H   0  0  0  0  0  0  0  0  0  0  0  0
  145.5925  132.4584  151.7472 H   0  0  0  0  0  0  0  0  0  0  0  0
  145.7454  133.2807  154.1096 H   0  0  0  0  0  0  0  0  0  0  0  0
  147.0619  133.8746  153.1265 H   0  0  0  0  0  0  0  0  0  0  0  0
  144.5295  135.4278  153.8539 H   0  0  0  0  0  0  0  0  0  0  0  0
  146.0963  135.2869  155.7383 H   0  0  0  0  0  0  0  0  0  0  0  0
  147.4444  135.7644  154.7406 H   0  0  0  0  0  0  0  0  0  0  0  0
  146.8422  136.2482  152.2788 H   0  0  0  0  0  0  0  0  0  0  0  0
  1  2  3  0  0  0  0
  2  3  1  0  0  0  0
  3  8  1  0  0  0  0
  3  4  2  0  0  0  0
  4  5  1  0  0  0  0
  5  6  2  0  0  0  0
  5 21  1  0  0  0  0
  6  7  1  0  0  0  0
  6 22  1  0  0  0  0
  7  8  2  0  0  0  0
  8  9  1  0  0  0  0
  9 10  1  0  0  0  0
  9 23  1  0  0  0  0
 10 11  1  0  0  0  0
 10 24  1  0  0  0  0
 10 25  1  0  0  0  0
 11 20  1  0  0  0  0
 11 12  1  0  0  0  0
 11 26  1  0  0  0  0
 12 13  1  0  0  0  0
 12 27  1  0  0  0  0
 12 28  1  0  0  0  0
 13 18  1  0  0  0  0
 13 14  1  0  0  0  0
 13 40  1  0  0  0  0
 14 15  1  0  0  0  0
 14 29  1  0  0  0  0
 14 30  1  0  0  0  0
 15 16  1  0  0  0  0
 15 31  1  0  0  0  0
 15 32  1  0  0  0  0
 16 17  1  0  0  0  0
 16 33  1  0  0  0  0
 16 34  1  0  0  0  0
 17 18  1  0  0  0  0
 17 35  1  0  0  0  0
 17 36  1  0  0  0  0
 18 19  1  0  0  0  0
 18 37  1  0  0  0  0
 19 20  1  0  0  0  0
 19 38  1  0  0  0  0
 19 39  1  0  0  0  0
M  CHG  1  13   1
M  END
> <s_m_source_file>
AV-unprocessed.smi

> <i_m_source_file_index>
3068

> <i_lp_mmshare_version>
43012

> <i_f3d_flags>
0

> <s_epik_input>
TiNDYzFuW2NIXVtjSF1uYzFbTkhdW0NIMl1bQ0BIXShbQ0gyXTIpT1tDSDJdW0NAQEhdKE4yMylbQ0gyXVtDSDJdW0NIMl1bQ0gyXTM=

> <s_epik_cmdline>
J2VwaWtfcHl0aG9uJywgJy1waCcsICc3LjAnLCAnLXRuJywgJzgnLCAnLW1hJywgJzIwMCcsICctbWV0YWxfYmluZGluZycsICctaW1hZScsICc8aW5maWxlLm1hZT4nLCAnLW9tYWUnLCAnPG91dGZpbGUubWFlPic=

> <r_epik_Ionization_Penalty>
0.0804321

> <r_epik_Ionization_Penalty_Charging>
0.0803403

> <r_epik_Ionization_Penalty_Neutral>
9.17277e-05

> <r_epik_State_Penalty>
0.0711481

> <r_epik_Charging_Adjusted_Penalty>
0.151488

> <i_epik_Tot_Q>
1

> <i_epik_Tot_abs_Q>
1

> <r_epik_Metal_State_Penalty>
0.0711481

> <b_epik_Metal_Only>
0

> <s_lp_Force_Field>
OPLS_2005

> <r_lp_Energy>
40.024

> <b_lp_Chiralities_Consistent>
1

> <s_lp_Variant>
AV-unprocessed.smi:3068-2

> <Gold.Version>
5.8.1

> <Gold.Id.Protein>
6NUR|6NUR_protein|mol2

> <Gold.PLP.Fitness>
39.0110

> <Gold.PLP.PLP>
-26.6514

> <Gold.PLP.part.hbond>
-3.4634

> <Gold.PLP.part.metal>
0.0000

> <Gold.PLP.part.buried>
0.8694

> <Gold.PLP.part.nonpolar>
-23.6568

> <Gold.PLP.part.repulsive>
0.4284

> <Gold.PLP.ligand.clash>
0.0000

> <Gold.PLP.ligand.torsion>
1.1576

> <Gold.PLP.Chemscore.Hbond>
3.8880

> <Gold.PLP.Chemscore.CHOScore>
1.0000

> <Gold.PLP.Chemscore.Metal>
0.0000

> <Gold.Chemscore.Hbonds>
donor molecule, donor type, donor heavy atom, donor atom, acceptor molecule, acceptor atom, score
      L1  H     9    23       P1  7957  0.26
      L1  H    13    40       P1  7948  1.46
      L1  C     5    21       P1  8028  0.22
      L1  C     6    22       P1  8028  0.02

> <Gold.PLP.Chemscore.Internal.Correction>
0.0108

> <Gold.Rescore>
     Score         DG    S(hbond)    S(metal)    S(lipo)     H(rot)  DE(clash)    DE(int)     intcor
     15.65     -18.45       2.89        0.00      57.08       1.32       1.74       1.05       ----

> <Gold.Chemscore.Fitness>
15.6509

> <Gold.Chemscore.DG>
-18.4475

> <Gold.Chemscore.ZeroCoef>
-5.4800

> <Gold.Chemscore.Hbond>
2.8943

> <Gold.Chemscore.Metal>
0.0000

> <Gold.Chemscore.Lipo>
57.0770

> <Gold.Chemscore.Internal_Hbond>
0.0000

> <Gold.Chemscore.DEClash>
1.7437

> <Gold.Chemscore.DEInternal>
1.0529

> <Gold.Chemscore.Rot>
1.3193

> <Gold.Chemscore.Internal.Correction>
   9.000000E+99

> <Gold.Chemscore.Hbonds>
donor molecule, donor type, donor heavy atom, donor atom, acceptor molecule, acceptor atom, score
      L1  H     9    23       P1  7957  0.25
      L1  H    13    40       P1  7948  0.73

> <Gold.Chemscore.Hbond.Weighted>
-9.6668

> <Gold.Chemscore.Metal.Weighted>
-0.0000

> <Gold.Chemscore.Lipo.Weighted>
-6.6780

> <Gold.Chemscore.Internal_Hbond.Weighted>
0.0000

> <Gold.Chemscore.DEClash.Weighted>
1.7437

> <Gold.Chemscore.DEInternal.Weighted>
1.0529

> <Gold.Chemscore.Rot.Weighted>
3.3774

> <Gold.Chemscore.Internal.Correction.Weighted>
   9.000000E+99

> <Gold.Protein.RotatedTorsions>
[ 6907 6896 6895 6894 ] final -124.42 input  -60.11 | X-H torsion
[ 7974 7965 7964 7962 ] final  -63.57 input  175.53 | X-H torsion
[ 8008 7997 7996 7995 ] final -144.11 input   59.86 | X-H torsion
[ 10167 10162 10161 10158 ] final -115.30 input  -65.29 | X-H torsion
[ 10718 10713 10712 10709 ] final  134.17 input   66.30 | X-H torsion
[ 10763 10752 10751 10750 ] final  162.84 input  -60.55 | X-H torsion
[ 11005 11000 10999 10996 ] final -141.66 input  -57.11 | X-H torsion

> <Gold.Protein.ActiveResidues>
 VAL166  LYS551  ARG553  GLY616  TRP617  ASP618  TYR619  PRO620  LYS621  CYS622 
 ASP623  PHE694  ASN695  SER759  ASP760  ASP761  ALA762  ILE779  LEU786  VAL792 
 PHE793  MET794  SER795  GLU796  ALA797  LYS798  CYS799  TRP800  GLU811  SER814 

> <Gold.Protein.RotatedAtoms>
  150.8766  133.7430  159.2944 H   0  0  0  0  0  0  0  0  0  0  0  0  # atno 6907 bound_to 6896
  151.5025  135.1061  159.9842 H   0  0  0  0  0  0  0  0  0  0  0  0  # atno 6908 bound_to 6896
  152.4732  133.8031  159.7019 H   0  0  0  0  0  0  0  0  0  0  0  0  # atno 6909 bound_to 6896
  145.7774  140.8780  143.0348 H   0  0  0  0  0  0  0  0  0  0  0  0  # atno 7974 bound_to 7965
  155.5215  140.0592  157.2906 H   0  0  0  0  0  0  0  0  0  0  0  0  # atno 8008 bound_to 7997
  154.4516  140.1951  156.0449 H   0  0  0  0  0  0  0  0  0  0  0  0  # atno 8009 bound_to 7997
  156.0715  140.3259  155.7586 H   0  0  0  0  0  0  0  0  0  0  0  0  # atno 8010 bound_to 7997
  140.0916  143.4695  152.1866 H   0  0  0  0  0  0  0  0  0  0  0  0  # atno 10167 bound_to 10162
  157.4699  131.1079  150.9815 H   0  0  0  0  0  0  0  0  0  0  0  0  # atno 10718 bound_to 10713
  154.2846  135.2762  155.2682 H   0  0  0  0  0  0  0  0  0  0  0  0  # atno 10763 bound_to 10752
  154.5188  135.5762  153.6667 H   0  0  0  0  0  0  0  0  0  0  0  0  # atno 10764 bound_to 10752
  152.9923  135.6199  154.3007 H   0  0  0  0  0  0  0  0  0  0  0  0  # atno 10765 bound_to 10752
  140.8302  134.2526  157.4860 H   0  0  0  0  0  0  0  0  0  0  0  0  # atno 11005 bound_to 11000
  144.6802  139.9941  143.7484 LP  0  0  0  0  0  0  0  0  0  0  0  0  # atno 17320 bound_to 7965
  146.0109  139.3169  143.0871 LP  0  0  0  0  0  0  0  0  0  0  0  0  # atno 17321 bound_to 7965
  139.5722  144.7468  151.3861 LP  0  0  0  0  0  0  0  0  0  0  0  0  # atno 17342 bound_to 10162
  140.7026  143.7595  150.7427 LP  0  0  0  0  0  0  0  0  0  0  0  0  # atno 17343 bound_to 10162
  157.0584  130.5815  149.5381 LP  0  0  0  0  0  0  0  0  0  0  0  0  # atno 17370 bound_to 10713
  156.0068  130.5156  150.7858 LP  0  0  0  0  0  0  0  0  0  0  0  0  # atno 17371 bound_to 10713
  139.8705  134.9582  156.4293 LP  0  0  0  0  0  0  0  0  0  0  0  0  # atno 17394 bound_to 11000
  140.9006  133.7782  155.9676 LP  0  0  0  0  0  0  0  0  0  0  0  0  # atno 17395 bound_to 11000

$$$$
