AV-unprocessed.smi:1686|AV-procd|sdf|6758|dock10
  -GOLD-   22720 7513D 1   1.00000     0.00000
 Structure written by MMmdl.
 41 43  0  0  0  0  0  0  0  0  1 V2000
  146.4762  144.0357  153.0012 C   0  0  0  0  0  0  0  0  0  0  0  0
  146.2575  142.8825  153.9376 C   0  0  0  0  0  0  0  0  0  0  0  0
  145.0789  142.7477  154.5317 N   0  0  0  0  0  0  0  0  0  0  0  0
  145.1655  141.5967  155.3233 O   0  0  0  0  0  0  0  0  0  0  0  0
  146.4118  141.0967  155.1605 C   0  0  0  0  0  0  0  0  0  0  0  0
  146.9412  139.6675  155.9557 Cl  0  0  0  0  0  0  0  0  0  0  0  0
  147.1675  141.8486  154.3077 C   0  0  0  0  0  0  0  0  0  0  0  0
  148.5946  141.6434  153.8593 C   0  0  0  0  0  0  0  0  0  0  0  0
  149.4953  141.1856  155.0129 C   0  0  0  0  0  0  0  0  0  0  0  0
  149.9475  140.0403  155.0548 O   0  0  0  0  0  0  0  0  0  0  0  0
  149.7530  142.1153  155.9462 N   0  0  0  0  0  0  0  0  0  0  0  0
  150.5924  141.9421  157.1314 C   0  0  2  0  0  0  0  0  0  0  0  0
  149.9296  140.9085  158.0547 C   0  0  0  0  0  0  0  0  0  0  0  0
  150.8016  143.3100  157.8259 C   0  0  2  0  0  0  0  0  0  0  0  0
  152.1048  144.0482  157.4393 C   0  0  0  0  0  0  0  0  0  0  0  0
  152.7004  144.4403  158.8040 C   0  0  2  0  0  0  0  0  0  0  0  0
  153.2813  143.1830  159.4763 C   0  0  0  0  0  0  0  0  0  0  0  0
  152.0174  142.4103  159.8953 C   0  0  0  0  0  0  0  0  0  0  0  0
  150.8773  143.3090  159.3733 C   0  0  1  0  0  0  0  0  0  0  0  0
  151.4520  144.6968  159.6402 C   0  0  0  0  0  0  0  0  0  0  0  0
  147.4200  143.9410  152.4643 H   0  0  0  0  0  0  0  0  0  0  0  0
  146.4954  144.9812  153.5433 H   0  0  0  0  0  0  0  0  0  0  0  0
  145.6817  144.0936  152.2567 H   0  0  0  0  0  0  0  0  0  0  0  0
  148.6494  140.8997  153.0637 H   0  0  0  0  0  0  0  0  0  0  0  0
  149.0100  142.5609  153.4413 H   0  0  0  0  0  0  0  0  0  0  0  0
  149.3360  143.0265  155.8227 H   0  0  0  0  0  0  0  0  0  0  0  0
  151.5606  141.5410  156.8318 H   0  0  0  0  0  0  0  0  0  0  0  0
  150.5528  140.6945  158.9229 H   0  0  0  0  0  0  0  0  0  0  0  0
  149.7681  139.9645  157.5330 H   0  0  0  0  0  0  0  0  0  0  0  0
  148.9625  141.2596  158.4162 H   0  0  0  0  0  0  0  0  0  0  0  0
  149.9618  143.9496  157.5465 H   0  0  0  0  0  0  0  0  0  0  0  0
  152.7964  143.4286  156.8673 H   0  0  0  0  0  0  0  0  0  0  0  0
  151.8803  144.9307  156.8392 H   0  0  0  0  0  0  0  0  0  0  0  0
  153.4031  145.2726  158.7524 H   0  0  0  0  0  0  0  0  0  0  0  0
  153.9159  142.6078  158.8013 H   0  0  0  0  0  0  0  0  0  0  0  0
  153.8769  143.4476  160.3509 H   0  0  0  0  0  0  0  0  0  0  0  0
  151.9889  141.3965  159.4985 H   0  0  0  0  0  0  0  0  0  0  0  0
  151.9691  142.3310  160.9821 H   0  0  0  0  0  0  0  0  0  0  0  0
  149.9184  143.1219  159.8574 H   0  0  0  0  0  0  0  0  0  0  0  0
  151.6679  144.8829  160.6938 H   0  0  0  0  0  0  0  0  0  0  0  0
  150.8314  145.5076  159.2542 H   0  0  0  0  0  0  0  0  0  0  0  0
  1  2  1  0  0  0  0
  1 21  1  0  0  0  0
  1 22  1  0  0  0  0
  1 23  1  0  0  0  0
  2  7  1  0  0  0  0
  2  3  2  0  0  0  0
  3  4  1  0  0  0  0
  4  5  1  0  0  0  0
  5  6  1  0  0  0  0
  5  7  2  0  0  0  0
  7  8  1  0  0  0  0
  8  9  1  0  0  0  0
  8 24  1  0  0  0  0
  8 25  1  0  0  0  0
  9 10  2  0  0  0  0
  9 11  1  0  0  0  0
 11 12  1  0  0  0  0
 11 26  1  0  0  0  0
 12 13  1  0  0  0  0
 12 14  1  0  0  0  0
 12 27  1  0  0  0  0
 13 28  1  0  0  0  0
 13 29  1  0  0  0  0
 13 30  1  0  0  0  0
 14 19  1  0  0  0  0
 14 15  1  0  0  0  0
 14 31  1  0  0  0  0
 15 16  1  0  0  0  0
 15 32  1  0  0  0  0
 15 33  1  0  0  0  0
 16 20  1  0  0  0  0
 16 17  1  0  0  0  0
 16 34  1  0  0  0  0
 17 18  1  0  0  0  0
 17 35  1  0  0  0  0
 17 36  1  0  0  0  0
 18 19  1  0  0  0  0
 18 37  1  0  0  0  0
 18 38  1  0  0  0  0
 19 20  1  0  0  0  0
 19 39  1  0  0  0  0
 20 40  1  0  0  0  0
 20 41  1  0  0  0  0
M  END
> <s_m_source_file>
AV-unprocessed.smi

> <i_m_source_file_index>
1686

> <i_lp_mmshare_version>
43012

> <i_f3d_flags>
0

> <s_epik_input>
W0NIM11jMW5vYyhDbCljMVtDSDJdQyg9TylbTkhdW0NASF0oW0NIM10pW0NASF0oW0NIMl1bQ0BIXTIzKVtDQEhdKFtDSDJdMylbQ0gyXVtDSDJdMg==

> <s_epik_cmdline>
J2VwaWtfcHl0aG9uJywgJy1waCcsICc3LjAnLCAnLXRuJywgJzgnLCAnLW1hJywgJzIwMCcsICctbWV0YWxfYmluZGluZycsICctaW1hZScsICc8aW5maWxlLm1hZT4nLCAnLW9tYWUnLCAnPG91dGZpbGUubWFlPic=

> <r_lp_tautomer_probability>
1

> <r_epik_Ionization_Penalty>
2.01576e-08

> <r_epik_Ionization_Penalty_Charging>
0

> <r_epik_Ionization_Penalty_Neutral>
2.01576e-08

> <r_epik_State_Penalty>
-0

> <r_epik_Charging_Adjusted_Penalty>
0

> <i_epik_Tot_Q>
0

> <i_epik_Tot_abs_Q>
0

> <r_epik_Metal_State_Penalty>
-0

> <b_epik_Metal_Only>
0

> <s_lp_Force_Field>
OPLS_2005

> <r_lp_Energy>
47.064

> <b_lp_Chiralities_Consistent>
1

> <s_lp_Variant>
AV-unprocessed.smi:1686-1

> <Gold.Version>
5.8.1

> <Gold.Id.Protein>
6NUR|6NUR_protein|mol2

> <Gold.PLP.Fitness>
46.7179

> <Gold.PLP.PLP>
-43.5432

> <Gold.PLP.part.hbond>
-2.0000

> <Gold.PLP.part.metal>
0.0000

> <Gold.PLP.part.buried>
-3.7605

> <Gold.PLP.part.nonpolar>
-38.2493

> <Gold.PLP.part.repulsive>
0.4608

> <Gold.PLP.ligand.clash>
0.0000

> <Gold.PLP.ligand.torsion>
1.4041

> <Gold.PLP.Chemscore.Hbond>
1.9920

> <Gold.PLP.Chemscore.CHOScore>
0.0000

> <Gold.PLP.Chemscore.Metal>
0.0000

> <Gold.Chemscore.Hbonds>
donor molecule, donor type, donor heavy atom, donor atom, acceptor molecule, acceptor atom, score
      L1  H    11    26       P1  8028  1.00

> <Gold.PLP.Chemscore.Internal.Correction>
0.0069

> <Gold.Rescore>
     Score         DG    S(hbond)    S(metal)    S(lipo)     H(rot)  DE(clash)    DE(int)     intcor
     14.90     -19.29       0.99        0.00     121.87       1.46       0.15       4.24       ----

> <Gold.Chemscore.Fitness>
14.9024

> <Gold.Chemscore.DG>
-19.2935

> <Gold.Chemscore.ZeroCoef>
-5.4800

> <Gold.Chemscore.Hbond>
0.9893

> <Gold.Chemscore.Metal>
0.0000

> <Gold.Chemscore.Lipo>
121.8725

> <Gold.Chemscore.Internal_Hbond>
0.0000

> <Gold.Chemscore.DEClash>
0.1508

> <Gold.Chemscore.DEInternal>
4.2403

> <Gold.Chemscore.Rot>
1.4648

> <Gold.Chemscore.Internal.Correction>
   9.000000E+99

> <Gold.Chemscore.Hbonds>
donor molecule, donor type, donor heavy atom, donor atom, acceptor molecule, acceptor atom, score
      L1  H    11    26       P1  8028  1.00

> <Gold.Chemscore.Hbond.Weighted>
-3.3044

> <Gold.Chemscore.Metal.Weighted>
-0.0000

> <Gold.Chemscore.Lipo.Weighted>
-14.2591

> <Gold.Chemscore.Internal_Hbond.Weighted>
0.0000

> <Gold.Chemscore.DEClash.Weighted>
0.1508

> <Gold.Chemscore.DEInternal.Weighted>
4.2403

> <Gold.Chemscore.Rot.Weighted>
3.7500

> <Gold.Chemscore.Internal.Correction.Weighted>
   9.000000E+99

> <Gold.Protein.RotatedTorsions>
[ 6907 6896 6895 6894 ] final  -70.30 input  -60.11 | X-H torsion
[ 7974 7965 7964 7962 ] final  129.53 input  175.53 | X-H torsion
[ 8008 7997 7996 7995 ] final  129.53 input   59.86 | X-H torsion
[ 10167 10162 10161 10158 ] final    9.67 input  -65.29 | X-H torsion
[ 10718 10713 10712 10709 ] final   60.20 input   66.30 | X-H torsion
[ 10763 10752 10751 10750 ] final   -8.39 input  -60.55 | X-H torsion
[ 11005 11000 10999 10996 ] final  121.91 input  -57.11 | X-H torsion

> <Gold.Protein.ActiveResidues>
 VAL166  LYS551  ARG553  GLY616  TRP617  ASP618  TYR619  PRO620  LYS621  CYS622 
 ASP623  PHE694  ASN695  SER759  ASP760  ASP761  ALA762  ILE779  LEU786  VAL792 
 PHE793  MET794  SER795  GLU796  ALA797  LYS798  CYS799  TRP800  GLU811  SER814 

> <Gold.Protein.RotatedAtoms>
  150.7264  134.5473  159.5776 H   0  0  0  0  0  0  0  0  0  0  0  0  # atno 6907 bound_to 6896
  152.2969  134.7653  160.0375 H   0  0  0  0  0  0  0  0  0  0  0  0  # atno 6908 bound_to 6896
  151.8247  133.3364  159.3631 H   0  0  0  0  0  0  0  0  0  0  0  0  # atno 6909 bound_to 6896
  145.0277  139.4074  143.5165 H   0  0  0  0  0  0  0  0  0  0  0  0  # atno 7974 bound_to 7965
  156.2938  140.2618  156.2613 H   0  0  0  0  0  0  0  0  0  0  0  0  # atno 8008 bound_to 7997
  154.9785  140.0390  157.2285 H   0  0  0  0  0  0  0  0  0  0  0  0  # atno 8009 bound_to 7997
  154.7793  140.2792  155.6081 H   0  0  0  0  0  0  0  0  0  0  0  0  # atno 8010 bound_to 7997
  140.6241  143.8140  150.7211 H   0  0  0  0  0  0  0  0  0  0  0  0  # atno 10167 bound_to 10162
  157.5735  130.8925  149.9307 H   0  0  0  0  0  0  0  0  0  0  0  0  # atno 10718 bound_to 10713
  153.4398  135.7013  153.6176 H   0  0  0  0  0  0  0  0  0  0  0  0  # atno 10763 bound_to 10752
  153.4556  135.3748  155.2309 H   0  0  0  0  0  0  0  0  0  0  0  0  # atno 10764 bound_to 10752
  154.8727  135.4007  154.3794 H   0  0  0  0  0  0  0  0  0  0  0  0  # atno 10765 bound_to 10752
  139.9246  134.9640  156.8030 H   0  0  0  0  0  0  0  0  0  0  0  0  # atno 11005 bound_to 11000
  146.3494  139.9809  142.8696 LP  0  0  0  0  0  0  0  0  0  0  0  0  # atno 17320 bound_to 7965
  145.1812  140.9768  143.4265 LP  0  0  0  0  0  0  0  0  0  0  0  0  # atno 17321 bound_to 7965
  140.1737  143.4173  152.1983 LP  0  0  0  0  0  0  0  0  0  0  0  0  # atno 17342 bound_to 10162
  139.5464  144.7302  151.4570 LP  0  0  0  0  0  0  0  0  0  0  0  0  # atno 17343 bound_to 10162
  156.0780  130.3676  150.0639 LP  0  0  0  0  0  0  0  0  0  0  0  0  # atno 17370 bound_to 10713
  156.8788  130.9549  151.3601 LP  0  0  0  0  0  0  0  0  0  0  0  0  # atno 17371 bound_to 10713
  140.6374  133.9849  155.7691 LP  0  0  0  0  0  0  0  0  0  0  0  0  # atno 17394 bound_to 11000
  141.0793  134.0086  157.3410 LP  0  0  0  0  0  0  0  0  0  0  0  0  # atno 17395 bound_to 11000

$$$$
