AV-unprocessed.smi:1866|AV-procd|sdf|7557|dock3
  -GOLD-   22720 9273D 1   1.00000     0.00000
 Structure written by MMmdl.
 30 31  0  0  0  0  0  0  0  0  1 V2000
  148.8233  140.2889  145.7843 C   0  0  0  0  0  0  0  0  0  0  0  0
  149.4404  140.0406  147.1182 C   0  0  0  0  0  0  0  0  0  0  0  0
  150.3949  140.8247  147.6342 N   0  0  0  0  0  0  0  0  0  0  0  0
  150.8124  140.3915  148.8849 N   0  0  0  0  0  0  0  0  0  0  0  0
  150.1571  139.2899  149.2768 C   0  0  0  0  0  0  0  0  0  0  0  0
  150.3855  138.6338  150.5152 N   0  0  0  0  0  0  0  0  0  0  0  0
  151.2766  138.9461  151.4725 C   0  0  0  0  0  0  0  0  0  0  0  0
  152.0728  139.8842  151.4264 O   0  0  0  0  0  0  0  0  0  0  0  0
  151.1941  138.0958  152.5058 N   0  0  0  0  0  0  0  0  0  0  0  0
  152.0408  138.1220  153.6969 C   0  0  1  0  0  0  0  0  0  0  0  0
  153.5006  137.7768  153.3452 C   0  0  0  0  0  0  0  0  0  0  0  0
  154.4106  138.0125  154.5542 C   0  0  0  0  0  0  0  0  0  0  0  0
  154.3064  139.4709  155.0286 C   0  0  0  0  0  0  0  0  0  0  0  0
  152.9266  139.9505  155.1195 N   0  0  0  0  0  0  0  0  0  0  0  0
  151.8608  139.4331  154.4833 C   0  0  0  0  0  0  0  0  0  0  0  0
  150.7541  139.9654  154.5537 O   0  0  0  0  0  0  0  0  0  0  0  0
  148.9631  138.6893  148.1389 S   0  0  0  0  0  0  0  0  0  0  0  0
  149.3581  141.0766  145.2526 H   0  0  0  0  0  0  0  0  0  0  0  0
  147.7835  140.5923  145.9062 H   0  0  0  0  0  0  0  0  0  0  0  0
  148.8553  139.3798  145.1836 H   0  0  0  0  0  0  0  0  0  0  0  0
  149.8025  137.8293  150.6921 H   0  0  0  0  0  0  0  0  0  0  0  0
  150.5140  137.3515  152.4558 H   0  0  0  0  0  0  0  0  0  0  0  0
  151.6806  137.3497  154.3796 H   0  0  0  0  0  0  0  0  0  0  0  0
  153.5773  136.7386  153.0203 H   0  0  0  0  0  0  0  0  0  0  0  0
  153.8402  138.3910  152.5099 H   0  0  0  0  0  0  0  0  0  0  0  0
  154.1191  137.3417  155.3636 H   0  0  0  0  0  0  0  0  0  0  0  0
  155.4444  137.7704  154.3069 H   0  0  0  0  0  0  0  0  0  0  0  0
  154.7908  139.5874  155.9980 H   0  0  0  0  0  0  0  0  0  0  0  0
  154.8383  140.1209  154.3329 H   0  0  0  0  0  0  0  0  0  0  0  0
  152.7784  140.7888  155.6627 H   0  0  0  0  0  0  0  0  0  0  0  0
  1  2  1  0  0  0  0
  1 18  1  0  0  0  0
  1 19  1  0  0  0  0
  1 20  1  0  0  0  0
  2 17  1  0  0  0  0
  2  3  2  0  0  0  0
  3  4  1  0  0  0  0
  4  5  2  0  0  0  0
  5  6  1  0  0  0  0
  5 17  1  0  0  0  0
  6  7  1  0  0  0  0
  6 21  1  0  0  0  0
  7  8  2  0  0  0  0
  7  9  1  0  0  0  0
  9 10  1  0  0  0  0
  9 22  1  0  0  0  0
 10 15  1  0  0  0  0
 10 11  1  0  0  0  0
 10 23  1  0  0  0  0
 11 12  1  0  0  0  0
 11 24  1  0  0  0  0
 11 25  1  0  0  0  0
 12 13  1  0  0  0  0
 12 26  1  0  0  0  0
 12 27  1  0  0  0  0
 13 14  1  0  0  0  0
 13 28  1  0  0  0  0
 13 29  1  0  0  0  0
 14 15  1  0  0  0  0
 14 30  1  0  0  0  0
 15 16  2  0  0  0  0
M  END
> <s_m_source_file>
AV-unprocessed.smi

> <i_m_source_file_index>
1866

> <i_lp_mmshare_version>
43012

> <i_f3d_flags>
0

> <s_epik_input>
W0NIM11jMW5uYyhzMSlbTkhdQyg9TylbTkhdW0NAQEhdMltDSDJdW0NIMl1bQ0gyXVtOSF1DMj1P

> <s_epik_cmdline>
J2VwaWtfcHl0aG9uJywgJy1waCcsICc3LjAnLCAnLXRuJywgJzgnLCAnLW1hJywgJzIwMCcsICctbWV0YWxfYmluZGluZycsICctaW1hZScsICc8aW5maWxlLm1hZT4nLCAnLW9tYWUnLCAnPG91dGZpbGUubWFlPic=

> <r_lp_tautomer_probability>
1

> <r_epik_Ionization_Penalty>
0.00093002

> <r_epik_Ionization_Penalty_Charging>
0

> <r_epik_Ionization_Penalty_Neutral>
0.00093002

> <r_epik_State_Penalty>
-0

> <r_epik_Charging_Adjusted_Penalty>
0

> <i_epik_Tot_Q>
0

> <i_epik_Tot_abs_Q>
0

> <r_epik_Metal_State_Penalty>
0.280775

> <b_epik_Metal_Only>
0

> <s_lp_Force_Field>
OPLS_2005

> <r_lp_Energy>
8.18439

> <b_lp_Chiralities_Consistent>
1

> <s_lp_Variant>
AV-unprocessed.smi:1866-2

> <Gold.Version>
5.8.1

> <Gold.Id.Protein>
6NUR|6NUR_protein|mol2

> <Gold.PLP.Fitness>
31.5593

> <Gold.PLP.PLP>
-19.6410

> <Gold.PLP.part.hbond>
-4.0000

> <Gold.PLP.part.metal>
0.0000

> <Gold.PLP.part.buried>
-2.5821

> <Gold.PLP.part.nonpolar>
-12.6779

> <Gold.PLP.part.repulsive>
0.2909

> <Gold.PLP.ligand.clash>
0.0000

> <Gold.PLP.ligand.torsion>
0.0260

> <Gold.PLP.Chemscore.Hbond>
3.9760

> <Gold.PLP.Chemscore.CHOScore>
0.0000

> <Gold.PLP.Chemscore.Metal>
0.0000

> <Gold.Chemscore.Hbonds>
donor molecule, donor type, donor heavy atom, donor atom, acceptor molecule, acceptor atom, score
      L1  H     9    22       P1  7949  0.04

> <Gold.PLP.Chemscore.Internal.Correction>
0.0422

> <Gold.Rescore>
     Score         DG    S(hbond)    S(metal)    S(lipo)     H(rot)  DE(clash)    DE(int)     intcor
     15.91     -17.23       3.28        0.00      28.73       1.00       0.01       1.30       ----

> <Gold.Chemscore.Fitness>
15.9131

> <Gold.Chemscore.DG>
-17.2251

> <Gold.Chemscore.ZeroCoef>
-5.4800

> <Gold.Chemscore.Hbond>
3.2764

> <Gold.Chemscore.Metal>
0.0000

> <Gold.Chemscore.Lipo>
28.7336

> <Gold.Chemscore.Internal_Hbond>
0.0000

> <Gold.Chemscore.DEClash>
0.0073

> <Gold.Chemscore.DEInternal>
1.3047

> <Gold.Chemscore.Rot>
1.0000

> <Gold.Chemscore.Internal.Correction>
   9.000000E+99

> <Gold.Chemscore.Hbond.Weighted>
-10.9433

> <Gold.Chemscore.Metal.Weighted>
-0.0000

> <Gold.Chemscore.Lipo.Weighted>
-3.3618

> <Gold.Chemscore.Internal_Hbond.Weighted>
0.0000

> <Gold.Chemscore.DEClash.Weighted>
0.0073

> <Gold.Chemscore.DEInternal.Weighted>
1.3047

> <Gold.Chemscore.Rot.Weighted>
2.5600

> <Gold.Chemscore.Internal.Correction.Weighted>
   9.000000E+99

> <Gold.Protein.RotatedTorsions>
[ 6907 6896 6895 6894 ] final  109.06 input  -60.11 | X-H torsion
[ 7974 7965 7964 7962 ] final -149.29 input  175.53 | X-H torsion
[ 8008 7997 7996 7995 ] final   40.44 input   59.86 | X-H torsion
[ 10167 10162 10161 10158 ] final  167.38 input  -65.29 | X-H torsion
[ 10718 10713 10712 10709 ] final -115.41 input   66.30 | X-H torsion
[ 10763 10752 10751 10750 ] final   27.47 input  -60.55 | X-H torsion
[ 11005 11000 10999 10996 ] final  171.69 input  -57.11 | X-H torsion

> <Gold.Protein.ActiveResidues>
 VAL166  LYS551  ARG553  GLY616  TRP617  ASP618  TYR619  PRO620  LYS621  CYS622 
 ASP623  PHE694  ASN695  SER759  ASP760  ASP761  ALA762  ILE779  LEU786  VAL792 
 PHE793  MET794  SER795  GLU796  ALA797  LYS798  CYS799  TRP800  GLU811  SER814 

> <Gold.Protein.RotatedAtoms>
  152.5084  133.8998  159.7435 H   0  0  0  0  0  0  0  0  0  0  0  0  # atno 6907 bound_to 6896
  150.9417  133.6641  159.2796 H   0  0  0  0  0  0  0  0  0  0  0  0  # atno 6908 bound_to 6896
  151.3950  135.0967  159.9590 H   0  0  0  0  0  0  0  0  0  0  0  0  # atno 6909 bound_to 6896
  144.7976  140.5084  143.5729 H   0  0  0  0  0  0  0  0  0  0  0  0  # atno 7974 bound_to 7965
  155.2531  140.3354  155.4280 H   0  0  0  0  0  0  0  0  0  0  0  0  # atno 8008 bound_to 7997
  156.2207  140.1808  156.7527 H   0  0  0  0  0  0  0  0  0  0  0  0  # atno 8009 bound_to 7997
  154.5821  140.0652  156.9103 H   0  0  0  0  0  0  0  0  0  0  0  0  # atno 8010 bound_to 7997
  139.4944  144.3928  151.9498 H   0  0  0  0  0  0  0  0  0  0  0  0  # atno 10167 bound_to 10162
  156.0894  130.6079  150.8902 H   0  0  0  0  0  0  0  0  0  0  0  0  # atno 10718 bound_to 10713
  153.0554  135.6536  154.0591 H   0  0  0  0  0  0  0  0  0  0  0  0  # atno 10763 bound_to 10752
  154.0270  135.2915  155.3375 H   0  0  0  0  0  0  0  0  0  0  0  0  # atno 10764 bound_to 10752
  154.6866  135.5299  153.8402 H   0  0  0  0  0  0  0  0  0  0  0  0  # atno 10765 bound_to 10752
  140.3217  134.7432  157.4069 H   0  0  0  0  0  0  0  0  0  0  0  0  # atno 11005 bound_to 11000
  145.5633  139.1480  143.3329 LP  0  0  0  0  0  0  0  0  0  0  0  0  # atno 17320 bound_to 7965
  146.2249  140.5768  142.9001 LP  0  0  0  0  0  0  0  0  0  0  0  0  # atno 17321 bound_to 7965
  140.3365  144.3254  150.5976 LP  0  0  0  0  0  0  0  0  0  0  0  0  # atno 17342 bound_to 10162
  140.5601  143.2193  151.7780 LP  0  0  0  0  0  0  0  0  0  0  0  0  # atno 17343 bound_to 10162
  157.6038  131.0940  150.8914 LP  0  0  0  0  0  0  0  0  0  0  0  0  # atno 17370 bound_to 10713
  156.9066  130.5266  149.5281 LP  0  0  0  0  0  0  0  0  0  0  0  0  # atno 17371 bound_to 10713
  140.0936  134.5567  155.8420 LP  0  0  0  0  0  0  0  0  0  0  0  0  # atno 17394 bound_to 11000
  141.2085  133.6674  156.6375 LP  0  0  0  0  0  0  0  0  0  0  0  0  # atno 17395 bound_to 11000

$$$$
