AV-unprocessed.smi:45|AV-procd|sdf|413|dock7
  -GOLD-   2262016283D 1   1.00000     0.00000
 Structure written by MMmdl.
 59 62  0  0  0  0  0  0  0  0  2 V2000
  146.2340  128.6001  152.2617 C   0  0  0  0  0  0  0  0  0  0  0  0
  145.4128  129.7410  152.4615 O   0  0  0  0  0  0  0  0  0  0  0  0
  146.0246  130.9376  152.7728 C   0  0  0  0  0  0  0  0  0  0  0  0
  147.2465  131.0358  153.4847 C   0  0  0  0  0  0  0  0  0  0  0  0
  147.8234  132.2930  153.7454 C   0  0  0  0  0  0  0  0  0  0  0  0
  147.1928  133.4724  153.3041 C   0  0  0  0  0  0  0  0  0  0  0  0
  147.8566  134.8191  153.5626 C   0  0  0  0  0  0  0  0  0  0  0  0
  148.6178  134.9248  154.8032 N   0  0  0  0  0  0  0  0  0  0  0  0
  148.9762  136.2024  155.2687 C   0  0  0  0  0  0  0  0  0  0  0  0
  148.6611  137.2676  154.4931 N   0  0  0  0  0  0  0  0  0  0  0  0
  148.9412  138.4825  154.9676 C   0  0  0  0  0  0  0  0  0  0  0  0
  148.5201  139.5451  154.1870 N   0  0  0  0  0  0  0  0  0  0  0  0
  149.0010  140.8833  154.5116 C   0  0  0  0  0  0  0  0  0  0  0  0
  147.9091  141.8680  154.0720 C   0  0  0  0  0  0  0  0  0  0  0  0
  146.9637  141.0245  153.2210 C   0  0  0  0  0  0  0  0  0  0  0  0
  147.1044  139.6409  153.8544 C   0  0  1  0  0  0  0  0  0  0  0  0
  146.6181  138.4816  152.9642 C   0  0  0  0  0  0  0  0  0  0  0  0
  145.2124  138.5101  152.8429 O   0  0  0  0  0  0  0  0  0  0  0  0
  149.5268  138.7645  156.1350 N   0  0  0  0  0  0  0  0  0  0  0  0
  149.8563  137.7150  156.9182 C   0  0  0  0  0  0  0  0  0  0  0  0
  149.5925  136.3792  156.5363 C   0  0  0  0  0  0  0  0  0  0  0  0
  149.9419  135.2275  157.4380 C   0  0  0  0  0  0  0  0  0  0  0  0
  150.6026  134.2942  156.9688 O   0  0  0  0  0  0  0  0  0  0  0  0
  149.4041  135.3827  158.6794 N   0  5  0  0  0  0  0  0  0  0  0  0
  148.2192  136.1955  158.9575 C   0  0  0  0  0  0  0  0  0  0  0  0
  147.7163  136.0078  160.3854 C   0  0  0  0  0  0  0  0  0  0  0  0
  147.3285  134.7748  160.7333 N   0  0  0  0  0  0  0  0  0  0  0  0
  146.9180  134.5963  162.0074 C   0  0  0  0  0  0  0  0  0  0  0  0
  146.8935  135.6570  162.9347 C   0  0  0  0  0  0  0  0  0  0  0  0
  147.3181  136.9121  162.4555 C   0  0  0  0  0  0  0  0  0  0  0  0
  147.7268  137.0856  161.1801 N   0  0  0  0  0  0  0  0  0  0  0  0
  145.9615  133.3831  152.6202 C   0  0  0  0  0  0  0  0  0  0  0  0
  145.3883  132.1257  152.3496 C   0  0  0  0  0  0  0  0  0  0  0  0
  143.8996  132.0488  151.4781 Cl  0  0  0  0  0  0  0  0  0  0  0  0
  146.5432  139.6254  154.7905 H   0  0  0  0  0  0  0  0  0  0  0  0
  145.6082  127.7511  151.9877 H   0  0  0  0  0  0  0  0  0  0  0  0
  146.7726  128.3325  153.1717 H   0  0  0  0  0  0  0  0  0  0  0  0
  146.9470  128.7588  151.4514 H   0  0  0  0  0  0  0  0  0  0  0  0
  147.7706  130.1588  153.8320 H   0  0  0  0  0  0  0  0  0  0  0  0
  148.7637  132.3476  154.2742 H   0  0  0  0  0  0  0  0  0  0  0  0
  148.5329  135.0277  152.7337 H   0  0  0  0  0  0  0  0  0  0  0  0
  147.1024  135.6069  153.5502 H   0  0  0  0  0  0  0  0  0  0  0  0
  148.3653  134.2631  155.5242 H   0  0  0  0  0  0  0  0  0  0  0  0
  149.2287  140.9938  155.5726 H   0  0  0  0  0  0  0  0  0  0  0  0
  149.9214  141.0622  153.9553 H   0  0  0  0  0  0  0  0  0  0  0  0
  147.3791  142.2401  154.9497 H   0  0  0  0  0  0  0  0  0  0  0  0
  148.3080  142.7271  153.5321 H   0  0  0  0  0  0  0  0  0  0  0  0
  145.9384  141.3954  153.2312 H   0  0  0  0  0  0  0  0  0  0  0  0
  147.3096  141.0069  152.1863 H   0  0  0  0  0  0  0  0  0  0  0  0
  147.0691  138.5331  151.9729 H   0  0  0  0  0  0  0  0  0  0  0  0
  146.8954  137.5199  153.3967 H   0  0  0  0  0  0  0  0  0  0  0  0
  144.9184  139.3969  152.9853 H   0  0  0  0  0  0  0  0  0  0  0  0
  150.3268  137.9499  157.8620 H   0  0  0  0  0  0  0  0  0  0  0  0
  148.4017  137.2578  158.7843 H   0  0  0  0  0  0  0  0  0  0  0  0
  147.4060  135.9419  158.2761 H   0  0  0  0  0  0  0  0  0  0  0  0
  146.6100  133.6004  162.2895 H   0  0  0  0  0  0  0  0  0  0  0  0
  146.5674  135.5163  163.9542 H   0  0  0  0  0  0  0  0  0  0  0  0
  147.3301  137.7802  163.0976 H   0  0  0  0  0  0  0  0  0  0  0  0
  145.4605  134.2785  152.2801 H   0  0  0  0  0  0  0  0  0  0  0  0
  1  2  1  0  0  0  0
  1 36  1  0  0  0  0
  1 37  1  0  0  0  0
  1 38  1  0  0  0  0
  2  3  1  0  0  0  0
  3 33  1  0  0  0  0
  3  4  2  0  0  0  0
  4  5  1  0  0  0  0
  4 39  1  0  0  0  0
  5  6  2  0  0  0  0
  5 40  1  0  0  0  0
  6  7  1  0  0  0  0
  6 32  1  0  0  0  0
  7  8  1  0  0  0  0
  7 41  1  0  0  0  0
  7 42  1  0  0  0  0
  8  9  1  0  0  0  0
  8 43  1  0  0  0  0
  9 21  1  0  0  0  0
  9 10  2  0  0  0  0
 10 11  1  0  0  0  0
 11 12  1  0  0  0  0
 11 19  2  0  0  0  0
 12 16  1  0  0  0  0
 12 13  1  0  0  0  0
 13 14  1  0  0  0  0
 13 44  1  0  0  0  0
 13 45  1  0  0  0  0
 14 15  1  0  0  0  0
 14 46  1  0  0  0  0
 14 47  1  0  0  0  0
 15 16  1  0  0  0  0
 15 48  1  0  0  0  0
 15 49  1  0  0  0  0
 16 35  1  0  0  0  0
 16 17  1  0  0  0  0
 17 18  1  0  0  0  0
 17 50  1  0  0  0  0
 17 51  1  0  0  0  0
 18 52  1  0  0  0  0
 19 20  1  0  0  0  0
 20 21  2  0  0  0  0
 20 53  1  0  0  0  0
 21 22  1  0  0  0  0
 22 23  2  0  0  0  0
 22 24  1  0  0  0  0
 24 25  1  0  0  0  0
 25 26  1  0  0  0  0
 25 54  1  0  0  0  0
 25 55  1  0  0  0  0
 26 31  1  0  0  0  0
 26 27  2  0  0  0  0
 27 28  1  0  0  0  0
 28 29  2  0  0  0  0
 28 56  1  0  0  0  0
 29 30  1  0  0  0  0
 29 57  1  0  0  0  0
 30 31  2  0  0  0  0
 30 58  1  0  0  0  0
 32 33  2  0  0  0  0
 32 59  1  0  0  0  0
 33 34  1  0  0  0  0
M  CHG  1  24  -1
M  END
> <s_m_source_file>
AV-unprocessed.smi

> <i_m_source_file_index>
45

> <i_lp_mmshare_version>
43012

> <i_f3d_flags>
0

> <s_epik_input>
W0NIM11PYzFbY0hdW2NIXWMoW2NIXWMxQ2wpW0NIMl1bTkhdYzJuYyhOM1tDSDJdW0NIMl1bQ0gyXVtDQEhdM1tDSDJdW09IXSluW2NIXWMyQyg9TylbTkhdW0NIMl1jNG5bY0hdW2NIXVtjSF1uNA==

> <s_epik_cmdline>
J2VwaWtfcHl0aG9uJywgJy1waCcsICc3LjAnLCAnLXRuJywgJzgnLCAnLW1hJywgJzIwMCcsICctbWV0YWxfYmluZGluZycsICctaW1hZScsICc8aW5maWxlLm1hZT4nLCAnLW9tYWUnLCAnPG91dGZpbGUubWFlPic=

> <r_lp_tautomer_probability>
1

> <r_epik_Ionization_Penalty>
7.35269

> <r_epik_Ionization_Penalty_Charging>
6.82087

> <r_epik_Ionization_Penalty_Neutral>
0.53182

> <r_epik_State_Penalty>
6.85781

> <r_epik_Charging_Adjusted_Penalty>
13.6787

> <i_epik_Tot_Q>
-1

> <i_epik_Tot_abs_Q>
1

> <r_epik_Metal_State_Penalty>
2.8146

> <b_epik_Metal_Only>
1

> <s_epik_Chemistry_Notes>
This compound contains an electron-poor aromatic ring that is susceptible to covalent hydrolysis at low pH, typically resulting in measured values for nitrogen ring protonation that are around two units higher than predicted values.

> <s_lp_Force_Field>
OPLS_2005

> <r_lp_Energy>
41.892

> <b_lp_Chiralities_Consistent>
1

> <s_lp_Variant>
AV-unprocessed.smi:45-7

> <Gold.Version>
5.8.1

> <Gold.Id.Protein>
6NUR|6NUR_protein|mol2

> <Gold.PLP.Fitness>
53.7461

> <Gold.PLP.PLP>
-44.5380

> <Gold.PLP.part.hbond>
-5.8999

> <Gold.PLP.part.metal>
0.0000

> <Gold.PLP.part.buried>
-1.3822

> <Gold.PLP.part.nonpolar>
-39.9853

> <Gold.PLP.part.repulsive>
2.1907

> <Gold.PLP.ligand.clash>
0.0000

> <Gold.PLP.ligand.torsion>
2.1523

> <Gold.PLP.Chemscore.Hbond>
4.1970

> <Gold.PLP.Chemscore.CHOScore>
0.0000

> <Gold.PLP.Chemscore.Metal>
0.0000

> <Gold.Chemscore.Hbonds>
donor molecule, donor type, donor heavy atom, donor atom, acceptor molecule, acceptor atom, score
      L1  H    18    52       P1 10175  0.78
      P1  H  6896  6908       L1    24  1.90
      P1  H  6931  6943       L1    31  0.30
      P1  H  6934  6947       L1    31  0.82

> <Gold.PLP.Chemscore.Internal.Correction>
0.9218

> <Gold.Rescore>
     Score         DG    S(hbond)    S(metal)    S(lipo)     H(rot)  DE(clash)    DE(int)     intcor
      8.97     -17.74       1.76        0.00     127.91       3.36       4.14       4.63       ----

> <Gold.Chemscore.Fitness>
8.9717

> <Gold.Chemscore.DG>
-17.7376

> <Gold.Chemscore.ZeroCoef>
-5.4800

> <Gold.Chemscore.Hbond>
1.7616

> <Gold.Chemscore.Metal>
0.0000

> <Gold.Chemscore.Lipo>
127.9078

> <Gold.Chemscore.Internal_Hbond>
0.0000

> <Gold.Chemscore.DEClash>
4.1396

> <Gold.Chemscore.DEInternal>
4.6262

> <Gold.Chemscore.Rot>
3.3560

> <Gold.Chemscore.Internal.Correction>
   9.000000E+99

> <Gold.Chemscore.Hbonds>
donor molecule, donor type, donor heavy atom, donor atom, acceptor molecule, acceptor atom, score
      L1  H    18    52       P1 10175  0.78
      P1  H  6896  6908       L1    24  0.21
      P1  H  6934  6947       L1    31  0.17

> <Gold.Chemscore.Hbond.Weighted>
-5.8836

> <Gold.Chemscore.Metal.Weighted>
-0.0000

> <Gold.Chemscore.Lipo.Weighted>
-14.9652

> <Gold.Chemscore.Internal_Hbond.Weighted>
0.0000

> <Gold.Chemscore.DEClash.Weighted>
4.1396

> <Gold.Chemscore.DEInternal.Weighted>
4.6262

> <Gold.Chemscore.Rot.Weighted>
8.5912

> <Gold.Chemscore.Internal.Correction.Weighted>
   9.000000E+99

> <Gold.Protein.RotatedTorsions>
[ 6907 6896 6895 6894 ] final -171.46 input  -60.11 | X-H torsion
[ 7974 7965 7964 7962 ] final  104.35 input  175.53 | X-H torsion
[ 8008 7997 7996 7995 ] final -102.50 input   59.86 | X-H torsion
[ 10167 10162 10161 10158 ] final -136.96 input  -65.29 | X-H torsion
[ 10718 10713 10712 10709 ] final  149.59 input   66.30 | X-H torsion
[ 10763 10752 10751 10750 ] final   83.94 input  -60.55 | X-H torsion
[ 11005 11000 10999 10996 ] final   92.81 input  -57.11 | X-H torsion

> <Gold.Protein.ActiveResidues>
 VAL166  LYS551  ARG553  GLY616  TRP617  ASP618  TYR619  PRO620  LYS621  CYS622 
 ASP623  PHE694  ASN695  SER759  ASP760  ASP761  ALA762  ILE779  LEU786  VAL792 
 PHE793  MET794  SER795  GLU796  ALA797  LYS798  CYS799  TRP800  GLU811  SER814 

> <Gold.Protein.RotatedAtoms>
  151.5242  133.3461  159.2906 H   0  0  0  0  0  0  0  0  0  0  0  0  # atno 6907 bound_to 6896
  150.8633  134.7993  159.7111 H   0  0  0  0  0  0  0  0  0  0  0  0  # atno 6908 bound_to 6896
  152.4646  134.5115  159.9807 H   0  0  0  0  0  0  0  0  0  0  0  0  # atno 6909 bound_to 6896
  145.3339  139.2479  143.3646 H   0  0  0  0  0  0  0  0  0  0  0  0  # atno 7974 bound_to 7965
  154.8575  140.0428  157.1644 H   0  0  0  0  0  0  0  0  0  0  0  0  # atno 8008 bound_to 7997
  154.8875  140.2981  155.5369 H   0  0  0  0  0  0  0  0  0  0  0  0  # atno 8009 bound_to 7997
  156.2998  140.2399  156.3887 H   0  0  0  0  0  0  0  0  0  0  0  0  # atno 8010 bound_to 7997
  139.8626  143.7058  152.2648 H   0  0  0  0  0  0  0  0  0  0  0  0  # atno 10167 bound_to 10162
  157.2942  131.0859  151.1439 H   0  0  0  0  0  0  0  0  0  0  0  0  # atno 10718 bound_to 10713
  153.1336  135.4672  154.9388 H   0  0  0  0  0  0  0  0  0  0  0  0  # atno 10763 bound_to 10752
  154.7686  135.3152  154.8238 H   0  0  0  0  0  0  0  0  0  0  0  0  # atno 10764 bound_to 10752
  153.8775  135.6897  153.4823 H   0  0  0  0  0  0  0  0  0  0  0  0  # atno 10765 bound_to 10752
  139.8818  134.8754  156.3626 H   0  0  0  0  0  0  0  0  0  0  0  0  # atno 11005 bound_to 11000
  146.3035  140.3922  142.8695 LP  0  0  0  0  0  0  0  0  0  0  0  0  # atno 17320 bound_to 7965
  144.8843  140.7441  143.5967 LP  0  0  0  0  0  0  0  0  0  0  0  0  # atno 17321 bound_to 7965
  139.7359  144.7571  151.0728 LP  0  0  0  0  0  0  0  0  0  0  0  0  # atno 17342 bound_to 10162
  140.7773  143.5031  150.9747 LP  0  0  0  0  0  0  0  0  0  0  0  0  # atno 17343 bound_to 10162
  157.2824  130.6756  149.6072 LP  0  0  0  0  0  0  0  0  0  0  0  0  # atno 17370 bound_to 10713
  155.9668  130.4446  150.5467 LP  0  0  0  0  0  0  0  0  0  0  0  0  # atno 17371 bound_to 10713
  140.9519  133.7445  156.0283 LP  0  0  0  0  0  0  0  0  0  0  0  0  # atno 17394 bound_to 11000
  140.8095  134.3415  157.5416 LP  0  0  0  0  0  0  0  0  0  0  0  0  # atno 17395 bound_to 11000

$$$$
