AV-unprocessed.smi:104|AV-procd|sdf|1007|dock10
  -GOLD-   2262018 03D 1   1.00000     0.00000
 Structure written by MMmdl.
 47 49  0  0  0  0  0  0  0  0  1 V2000
  153.0168  141.2777  159.7609 C   0  0  0  0  0  0  0  0  0  0  0  0
  152.6843  139.9715  159.0524 C   0  0  0  0  0  0  0  0  0  0  0  0
  153.5431  139.3346  158.4419 O   0  0  0  0  0  0  0  0  0  0  0  0
  151.3931  139.6315  159.1869 O   0  0  0  0  0  0  0  0  0  0  0  0
  150.9551  138.3486  158.7698 C   0  0  0  0  0  0  0  0  0  0  0  0
  149.4695  138.4224  158.3745 C   0  0  2  0  0  0  0  0  0  0  0  0
  149.0422  137.1023  158.0286 O   0  0  0  0  0  0  0  0  0  0  0  0
  148.6806  137.0333  156.6824 C   0  0  2  0  0  0  0  0  0  0  0  0
  149.1547  135.7382  156.0959 N   0  0  0  0  0  0  0  0  0  0  0  0
  150.4226  135.2061  156.1258 C   0  0  0  0  0  0  0  0  0  0  0  0
  151.8719  136.1005  156.9771 Br  0  0  0  0  0  0  0  0  0  0  0  0
  150.5962  134.0413  155.5675 N   0  0  0  0  0  0  0  0  0  0  0  0
  149.3205  133.7276  155.1156 C   0  0  0  0  0  0  0  0  0  0  0  0
  148.7643  132.6159  154.4338 C   0  0  0  0  0  0  0  0  0  0  0  0
  149.4867  131.5500  154.0627 N   0  0  0  0  0  0  0  0  0  0  0  0
  147.4415  132.6270  154.1473 N   0  0  0  0  0  0  0  0  0  0  0  0
  146.6979  133.6768  154.5098 C   0  0  0  0  0  0  0  0  0  0  0  0
  147.0767  134.7866  155.1476 N   0  0  0  0  0  0  0  0  0  0  0  0
  148.4107  134.7779  155.4363 C   0  0  0  0  0  0  0  0  0  0  0  0
  149.2812  138.2607  155.9875 C   0  0  2  0  0  0  0  0  0  0  0  0
  150.6357  138.0328  155.5972 O   0  0  0  0  0  0  0  0  0  0  0  0
  151.3267  138.9667  154.9210 C   0  0  0  0  0  0  0  0  0  0  0  0
  152.7616  138.5375  154.6481 C   0  0  0  0  0  0  0  0  0  0  0  0
  150.8918  140.0474  154.5241 O   0  0  0  0  0  0  0  0  0  0  0  0
  149.1871  139.2667  157.1185 C   0  0  2  0  0  0  0  0  0  0  0  0
  150.0555  140.3761  156.9135 O   0  0  0  0  0  0  0  0  0  0  0  0
  149.9424  141.4739  157.6796 C   0  0  0  0  0  0  0  0  0  0  0  0
  150.9673  142.5407  157.3191 C   0  0  0  0  0  0  0  0  0  0  0  0
  149.1267  141.6442  158.5855 O   0  0  0  0  0  0  0  0  0  0  0  0
  152.9338  141.1528  160.8406 H   0  0  0  0  0  0  0  0  0  0  0  0
  152.3304  142.0647  159.4482 H   0  0  0  0  0  0  0  0  0  0  0  0
  154.0337  141.5930  159.5266 H   0  0  0  0  0  0  0  0  0  0  0  0
  151.5629  138.0428  157.9180 H   0  0  0  0  0  0  0  0  0  0  0  0
  151.1045  137.6077  159.5553 H   0  0  0  0  0  0  0  0  0  0  0  0
  148.8851  138.8002  159.2141 H   0  0  0  0  0  0  0  0  0  0  0  0
  147.5928  137.0009  156.6131 H   0  0  0  0  0  0  0  0  0  0  0  0
  150.4751  131.5157  154.2679 H   0  0  0  0  0  0  0  0  0  0  0  0
  149.0423  130.7839  153.5777 H   0  0  0  0  0  0  0  0  0  0  0  0
  145.6503  133.6212  154.2527 H   0  0  0  0  0  0  0  0  0  0  0  0
  148.6568  138.5552  155.1429 H   0  0  0  0  0  0  0  0  0  0  0  0
  153.1686  137.9962  155.5024 H   0  0  0  0  0  0  0  0  0  0  0  0
  153.3918  139.4068  154.4589 H   0  0  0  0  0  0  0  0  0  0  0  0
  152.7979  137.8857  153.7752 H   0  0  0  0  0  0  0  0  0  0  0  0
  148.1518  139.6109  157.1579 H   0  0  0  0  0  0  0  0  0  0  0  0
  150.7866  142.9131  156.3108 H   0  0  0  0  0  0  0  0  0  0  0  0
  151.9754  142.1282  157.3619 H   0  0  0  0  0  0  0  0  0  0  0  0
  150.9082  143.3789  158.0135 H   0  0  0  0  0  0  0  0  0  0  0  0
  1  2  1  0  0  0  0
  1 30  1  0  0  0  0
  1 31  1  0  0  0  0
  1 32  1  0  0  0  0
  2  3  2  0  0  0  0
  2  4  1  0  0  0  0
  4  5  1  0  0  0  0
  5  6  1  0  0  0  0
  5 33  1  0  0  0  0
  5 34  1  0  0  0  0
  6 25  1  0  0  0  0
  6  7  1  0  0  0  0
  6 35  1  0  0  0  0
  7  8  1  0  0  0  0
  8  9  1  0  0  0  0
  8 20  1  0  0  0  0
  8 36  1  0  0  0  0
  9 19  1  0  0  0  0
  9 10  1  0  0  0  0
 10 11  1  0  0  0  0
 10 12  2  0  0  0  0
 12 13  1  0  0  0  0
 13 19  2  0  0  0  0
 13 14  1  0  0  0  0
 14 15  1  0  0  0  0
 14 16  2  0  0  0  0
 15 37  1  0  0  0  0
 15 38  1  0  0  0  0
 16 17  1  0  0  0  0
 17 18  2  0  0  0  0
 17 39  1  0  0  0  0
 18 19  1  0  0  0  0
 20 21  1  0  0  0  0
 20 25  1  0  0  0  0
 20 40  1  0  0  0  0
 21 22  1  0  0  0  0
 22 23  1  0  0  0  0
 22 24  2  0  0  0  0
 23 41  1  0  0  0  0
 23 42  1  0  0  0  0
 23 43  1  0  0  0  0
 25 26  1  0  0  0  0
 25 44  1  0  0  0  0
 26 27  1  0  0  0  0
 27 28  1  0  0  0  0
 27 29  2  0  0  0  0
 28 45  1  0  0  0  0
 28 46  1  0  0  0  0
 28 47  1  0  0  0  0
M  END
> <s_m_source_file>
AV-unprocessed.smi

> <i_m_source_file_index>
104

> <i_lp_mmshare_version>
43012

> <i_f3d_flags>
0

> <s_epik_input>
W0NIM11DKD1PKU9bQ0gyXVtDQEBIXTFPW0NASF0oW0NAQEhdKE9DKD1PKVtDSDNdKVtDQEhdMU9DKD1PKVtDSDNdKW4oYyhCciluMiljKGMyMyluW2NIXW5jM1tOSDJd

> <s_epik_cmdline>
J2VwaWtfcHl0aG9uJywgJy1waCcsICc3LjAnLCAnLXRuJywgJzgnLCAnLW1hJywgJzIwMCcsICctbWV0YWxfYmluZGluZycsICctaW1hZScsICc8aW5maWxlLm1hZT4nLCAnLW9tYWUnLCAnPG91dGZpbGUubWFlPic=

> <r_lp_tautomer_probability>
1

> <r_epik_Ionization_Penalty>
7.36622e-05

> <r_epik_Ionization_Penalty_Charging>
0

> <r_epik_Ionization_Penalty_Neutral>
7.36622e-05

> <r_epik_State_Penalty>
-0

> <r_epik_Charging_Adjusted_Penalty>
0

> <i_epik_Tot_Q>
0

> <i_epik_Tot_abs_Q>
0

> <r_epik_Metal_State_Penalty>
-0

> <b_epik_Metal_Only>
0

> <s_epik_Chemistry_Notes>
This compound has an ester and may undergo hydrolysis at high or low pH. This compound contains an acetal/aminal-like group ( X-CH(R)-Y where X, Y are N, S, or O) that may be acid/base labile, releasing an aldehyde.

> <s_lp_Force_Field>
OPLS_2005

> <r_lp_Energy>
19.209

> <b_lp_Chiralities_Consistent>
1

> <s_lp_Variant>
AV-unprocessed.smi:104-15

> <Gold.Version>
5.8.1

> <Gold.Id.Protein>
6NUR|6NUR_protein|mol2

> <Gold.PLP.Fitness>
37.0295

> <Gold.PLP.PLP>
-31.6845

> <Gold.PLP.part.hbond>
-2.9938

> <Gold.PLP.part.metal>
0.0000

> <Gold.PLP.part.buried>
-6.1232

> <Gold.PLP.part.nonpolar>
-23.3668

> <Gold.PLP.part.repulsive>
0.3928

> <Gold.PLP.ligand.clash>
0.0000

> <Gold.PLP.ligand.torsion>
0.4684

> <Gold.PLP.Chemscore.Hbond>
1.9913

> <Gold.PLP.Chemscore.CHOScore>
0.0000

> <Gold.PLP.Chemscore.Metal>
0.0000

> <Gold.Chemscore.Hbonds>
donor molecule, donor type, donor heavy atom, donor atom, acceptor molecule, acceptor atom, score
      P1  H  7989  7998       L1    24  0.94
      P1  H  7997  8008       L1     3  1.00

> <Gold.PLP.Chemscore.Internal.Correction>
0.3081

> <Gold.Rescore>
     Score         DG    S(hbond)    S(metal)    S(lipo)     H(rot)  DE(clash)    DE(int)     intcor
     -1.70      -6.52       2.00        0.00      46.13       4.31       0.00       8.23       ----

> <Gold.Chemscore.Fitness>
-1.7049

> <Gold.Chemscore.DG>
-6.5209

> <Gold.Chemscore.ZeroCoef>
-5.4800

> <Gold.Chemscore.Hbond>
1.9970

> <Gold.Chemscore.Metal>
0.0000

> <Gold.Chemscore.Lipo>
46.1268

> <Gold.Chemscore.Internal_Hbond>
0.0000

> <Gold.Chemscore.DEClash>
0.0004

> <Gold.Chemscore.DEInternal>
8.2253

> <Gold.Chemscore.Rot>
4.3070

> <Gold.Chemscore.Internal.Correction>
   9.000000E+99

> <Gold.Chemscore.Hbonds>
donor molecule, donor type, donor heavy atom, donor atom, acceptor molecule, acceptor atom, score
      P1  H  7989  7998       L1    24  0.89
      P1  H  7997  8008       L1     3  1.00

> <Gold.Chemscore.Hbond.Weighted>
-6.6699

> <Gold.Chemscore.Metal.Weighted>
-0.0000

> <Gold.Chemscore.Lipo.Weighted>
-5.3968

> <Gold.Chemscore.Internal_Hbond.Weighted>
0.0000

> <Gold.Chemscore.DEClash.Weighted>
0.0004

> <Gold.Chemscore.DEInternal.Weighted>
8.2253

> <Gold.Chemscore.Rot.Weighted>
11.0259

> <Gold.Chemscore.Internal.Correction.Weighted>
   9.000000E+99

> <Gold.Protein.RotatedTorsions>
[ 6907 6896 6895 6894 ] final  -72.24 input  -60.11 | X-H torsion
[ 7974 7965 7964 7962 ] final  -45.19 input  175.53 | X-H torsion
[ 8008 7997 7996 7995 ] final -100.04 input   59.86 | X-H torsion
[ 10167 10162 10161 10158 ] final  -16.04 input  -65.29 | X-H torsion
[ 10718 10713 10712 10709 ] final   20.28 input   66.30 | X-H torsion
[ 10763 10752 10751 10750 ] final  130.92 input  -60.55 | X-H torsion
[ 11005 11000 10999 10996 ] final -152.30 input  -57.11 | X-H torsion

> <Gold.Protein.ActiveResidues>
 VAL166  LYS551  ARG553  GLY616  TRP617  ASP618  TYR619  PRO620  LYS621  CYS622 
 ASP623  PHE694  ASN695  SER759  ASP760  ASP761  ALA762  ILE779  LEU786  VAL792 
 PHE793  MET794  SER795  GLU796  ALA797  LYS798  CYS799  TRP800  GLU811  SER814 

> <Gold.Protein.RotatedAtoms>
  150.7178  134.5191  159.5644 H   0  0  0  0  0  0  0  0  0  0  0  0  # atno 6907 bound_to 6896
  152.2750  134.7888  160.0416 H   0  0  0  0  0  0  0  0  0  0  0  0  # atno 6908 bound_to 6896
  151.8555  133.3412  159.3723 H   0  0  0  0  0  0  0  0  0  0  0  0  # atno 6909 bound_to 6896
  145.9845  140.7248  142.9347 H   0  0  0  0  0  0  0  0  0  0  0  0  # atno 7974 bound_to 7965
  154.8231  140.0443  157.1424 H   0  0  0  0  0  0  0  0  0  0  0  0  # atno 8008 bound_to 7997
  154.9237  140.3030  155.5183 H   0  0  0  0  0  0  0  0  0  0  0  0  # atno 8009 bound_to 7997
  156.2981  140.2336  156.4290 H   0  0  0  0  0  0  0  0  0  0  0  0  # atno 8010 bound_to 7997
  140.7228  143.5156  150.9696 H   0  0  0  0  0  0  0  0  0  0  0  0  # atno 10167 bound_to 10162
  157.1223  130.6555  149.5927 H   0  0  0  0  0  0  0  0  0  0  0  0  # atno 10718 bound_to 10713
  153.7660  135.3189  155.3344 H   0  0  0  0  0  0  0  0  0  0  0  0  # atno 10763 bound_to 10752
  154.8213  135.4601  154.0791 H   0  0  0  0  0  0  0  0  0  0  0  0  # atno 10764 bound_to 10752
  153.2036  135.6926  153.8284 H   0  0  0  0  0  0  0  0  0  0  0  0  # atno 10765 bound_to 10752
  140.7204  134.3734  157.5184 H   0  0  0  0  0  0  0  0  0  0  0  0  # atno 11005 bound_to 11000
  144.6871  140.2965  143.7270 LP  0  0  0  0  0  0  0  0  0  0  0  0  # atno 17320 bound_to 7965
  145.7721  139.1861  143.2206 LP  0  0  0  0  0  0  0  0  0  0  0  0  # atno 17321 bound_to 7965
  139.8872  143.6999  152.3150 LP  0  0  0  0  0  0  0  0  0  0  0  0  # atno 17342 bound_to 10162
  139.7301  144.7584  151.0815 LP  0  0  0  0  0  0  0  0  0  0  0  0  # atno 17343 bound_to 10162
  155.9826  130.4840  150.6889 LP  0  0  0  0  0  0  0  0  0  0  0  0  # atno 17370 bound_to 10713
  157.4466  131.0867  151.0889 LP  0  0  0  0  0  0  0  0  0  0  0  0  # atno 17371 bound_to 10713
  139.8849  134.8951  156.2672 LP  0  0  0  0  0  0  0  0  0  0  0  0  # atno 17394 bound_to 11000
  141.0009  133.7152  156.0958 LP  0  0  0  0  0  0  0  0  0  0  0  0  # atno 17395 bound_to 11000

$$$$
