AV-unprocessed.smi:3036|AV-procd|sdf|11584|dock5
  -GOLD-   2272016553D 1   1.00000     0.00000
 Structure written by MMmdl.
 41 42  0  0  0  0  0  0  0  0  1 V2000
  146.8541  132.4772  153.9749 C   0  0  0  0  0  0  0  0  0  0  0  0
  147.2056  133.7810  153.2367 C   0  0  2  0  0  0  0  0  0  0  0  0
  147.2105  133.5648  151.7097 C   0  0  0  0  0  0  0  0  0  0  0  0
  145.9042  133.2012  151.1876 N   0  0  0  0  0  0  0  0  0  0  0  0
  145.5201  132.0201  150.5879 C   0  0  0  0  0  0  0  0  0  0  0  0
  144.1970  132.1365  150.2713 C   0  0  0  0  0  0  0  0  0  0  0  0
  143.8537  133.4397  150.7281 C   0  0  0  0  0  0  0  0  0  0  0  0
  144.8763  134.0728  151.2796 N   0  0  0  0  0  0  0  0  0  0  0  0
  148.5250  134.2459  153.6519 N   0  0  0  0  0  0  0  0  0  0  0  0
  148.5394  134.6635  155.0493 C   0  0  0  0  0  0  0  0  0  0  0  0
  148.8856  136.1610  155.1846 C   0  0  0  0  0  0  0  0  0  0  0  0
  150.3929  136.4856  155.2242 C   0  0  0  0  0  0  0  0  0  0  0  0
  151.1594  135.7054  155.7920 O   0  0  0  0  0  0  0  0  0  0  0  0
  150.8348  137.6249  154.6384 N   0  0  0  0  0  0  0  0  0  0  0  0
  152.2455  138.0246  154.6282 C   0  0  0  0  0  0  0  0  0  0  0  0
  152.3941  139.3136  155.4559 C   0  0  0  0  0  0  0  0  0  0  0  0
  151.5563  140.3297  154.9110 O   0  0  0  0  0  0  0  0  0  0  0  0
  150.1795  139.9623  154.8848 C   0  0  0  0  0  0  0  0  0  0  0  0
  149.9975  138.6785  154.0543 C   0  0  0  0  0  0  0  0  0  0  0  0
  145.8940  132.0876  153.6358 H   0  0  0  0  0  0  0  0  0  0  0  0
  146.7762  132.6231  155.0519 H   0  0  0  0  0  0  0  0  0  0  0  0
  147.6044  131.7056  153.7971 H   0  0  0  0  0  0  0  0  0  0  0  0
  146.4594  134.5406  153.4746 H   0  0  0  0  0  0  0  0  0  0  0  0
  147.5582  134.4617  151.1948 H   0  0  0  0  0  0  0  0  0  0  0  0
  147.9074  132.7676  151.4465 H   0  0  0  0  0  0  0  0  0  0  0  0
  146.2127  131.2050  150.4369 H   0  0  0  0  0  0  0  0  0  0  0  0
  143.5691  131.4021  149.7891 H   0  0  0  0  0  0  0  0  0  0  0  0
  142.8980  133.9403  150.6777 H   0  0  0  0  0  0  0  0  0  0  0  0
  148.7921  135.0335  153.0788 H   0  0  0  0  0  0  0  0  0  0  0  0
  147.5565  134.4772  155.4841 H   0  0  0  0  0  0  0  0  0  0  0  0
  149.2542  134.0718  155.6206 H   0  0  0  0  0  0  0  0  0  0  0  0
  148.4254  136.6967  154.3535 H   0  0  0  0  0  0  0  0  0  0  0  0
  148.4330  136.5439  156.1000 H   0  0  0  0  0  0  0  0  0  0  0  0
  152.9103  137.2550  155.0223 H   0  0  0  0  0  0  0  0  0  0  0  0
  152.5640  138.1988  153.5994 H   0  0  0  0  0  0  0  0  0  0  0  0
  152.1360  139.1369  156.5012 H   0  0  0  0  0  0  0  0  0  0  0  0
  153.4277  139.6594  155.4355 H   0  0  0  0  0  0  0  0  0  0  0  0
  149.8115  139.8220  155.9026 H   0  0  0  0  0  0  0  0  0  0  0  0
  149.6055  140.7795  154.4476 H   0  0  0  0  0  0  0  0  0  0  0  0
  150.3081  138.8522  153.0230 H   0  0  0  0  0  0  0  0  0  0  0  0
  148.9392  138.4294  154.0088 H   0  0  0  0  0  0  0  0  0  0  0  0
  1  2  1  0  0  0  0
  1 20  1  0  0  0  0
  1 21  1  0  0  0  0
  1 22  1  0  0  0  0
  2  3  1  0  0  0  0
  2  9  1  0  0  0  0
  2 23  1  0  0  0  0
  3  4  1  0  0  0  0
  3 24  1  0  0  0  0
  3 25  1  0  0  0  0
  4  8  1  0  0  0  0
  4  5  1  0  0  0  0
  5  6  2  0  0  0  0
  5 26  1  0  0  0  0
  6  7  1  0  0  0  0
  6 27  1  0  0  0  0
  7  8  2  0  0  0  0
  7 28  1  0  0  0  0
  9 10  1  0  0  0  0
  9 29  1  0  0  0  0
 10 11  1  0  0  0  0
 10 30  1  0  0  0  0
 10 31  1  0  0  0  0
 11 12  1  0  0  0  0
 11 32  1  0  0  0  0
 11 33  1  0  0  0  0
 12 13  2  0  0  0  0
 12 14  1  0  0  0  0
 14 19  1  0  0  0  0
 14 15  1  0  0  0  0
 15 16  1  0  0  0  0
 15 34  1  0  0  0  0
 15 35  1  0  0  0  0
 16 17  1  0  0  0  0
 16 36  1  0  0  0  0
 16 37  1  0  0  0  0
 17 18  1  0  0  0  0
 18 19  1  0  0  0  0
 18 38  1  0  0  0  0
 18 39  1  0  0  0  0
 19 40  1  0  0  0  0
 19 41  1  0  0  0  0
M  END
> <s_m_source_file>
AV-unprocessed.smi

> <i_m_source_file_index>
3036

> <i_lp_mmshare_version>
43012

> <i_f3d_flags>
0

> <s_epik_input>
bjFbY0hdW2NIXVtjSF1uMVtDSDJdW0NAQEhdKFtDSDNdKVtOSF1bQ0gyXVtDSDJdQyg9TylOMltDSDJdW0NIMl1PW0NIMl1bQ0gyXTI=

> <s_epik_cmdline>
J2VwaWtfcHl0aG9uJywgJy1waCcsICc3LjAnLCAnLXRuJywgJzgnLCAnLW1hJywgJzIwMCcsICctbWV0YWxfYmluZGluZycsICctaW1hZScsICc8aW5maWxlLm1hZT4nLCAnLW9tYWUnLCAnPG91dGZpbGUubWFlPic=

> <r_lp_tautomer_probability>
1

> <r_epik_Ionization_Penalty>
2.55703

> <r_epik_Ionization_Penalty_Charging>
0

> <r_epik_Ionization_Penalty_Neutral>
2.55703

> <r_epik_State_Penalty>
2.726

> <r_epik_Charging_Adjusted_Penalty>
2.726

> <i_epik_Tot_Q>
0

> <i_epik_Tot_abs_Q>
0

> <r_epik_Metal_State_Penalty>
2.72597

> <b_epik_Metal_Only>
0

> <s_lp_Force_Field>
OPLS_2005

> <r_lp_Energy>
22.7119

> <b_lp_Chiralities_Consistent>
1

> <s_lp_Variant>
AV-unprocessed.smi:3036-3

> <Gold.Version>
5.8.1

> <Gold.Id.Protein>
6NUR|6NUR_protein|mol2

> <Gold.PLP.Fitness>
49.8012

> <Gold.PLP.PLP>
-36.5883

> <Gold.PLP.part.hbond>
-3.0000

> <Gold.PLP.part.metal>
0.0000

> <Gold.PLP.part.buried>
-3.9132

> <Gold.PLP.part.nonpolar>
-30.3029

> <Gold.PLP.part.repulsive>
0.2381

> <Gold.PLP.ligand.clash>
0.0000

> <Gold.PLP.ligand.torsion>
0.9294

> <Gold.PLP.Chemscore.Hbond>
3.0000

> <Gold.PLP.Chemscore.CHOScore>
1.9899

> <Gold.PLP.Chemscore.Metal>
0.0000

> <Gold.Chemscore.Hbonds>
donor molecule, donor type, donor heavy atom, donor atom, acceptor molecule, acceptor atom, score
      L1  H     9    29       P1  7948  1.00
      P1  H  7989  7998       L1    17  0.83
      P1  H 10752 10764       L1    13  0.88
      L1  C     5    26       P1 10747  0.37
      L1  C     7    28       P1 10186  1.00

> <Gold.PLP.Chemscore.Internal.Correction>
0.1019

> <Gold.Rescore>
     Score         DG    S(hbond)    S(metal)    S(lipo)     H(rot)  DE(clash)    DE(int)     intcor
     15.85     -17.09       2.09        0.00      83.09       1.99       0.27       0.97       ----

> <Gold.Chemscore.Fitness>
15.8468

> <Gold.Chemscore.DG>
-17.0904

> <Gold.Chemscore.ZeroCoef>
-5.4800

> <Gold.Chemscore.Hbond>
2.0909

> <Gold.Chemscore.Metal>
0.0000

> <Gold.Chemscore.Lipo>
83.0874

> <Gold.Chemscore.Internal_Hbond>
0.0000

> <Gold.Chemscore.DEClash>
0.2716

> <Gold.Chemscore.DEInternal>
0.9720

> <Gold.Chemscore.Rot>
1.9900

> <Gold.Chemscore.Internal.Correction>
   9.000000E+99

> <Gold.Chemscore.Hbonds>
donor molecule, donor type, donor heavy atom, donor atom, acceptor molecule, acceptor atom, score
      L1  H     9    29       P1  7948  0.40
      P1  H  7989  7998       L1    17  0.15
      P1  H 10752 10764       L1    13  0.76

> <Gold.Chemscore.Hbond.Weighted>
-6.9835

> <Gold.Chemscore.Metal.Weighted>
-0.0000

> <Gold.Chemscore.Lipo.Weighted>
-9.7212

> <Gold.Chemscore.Internal_Hbond.Weighted>
0.0000

> <Gold.Chemscore.DEClash.Weighted>
0.2716

> <Gold.Chemscore.DEInternal.Weighted>
0.9720

> <Gold.Chemscore.Rot.Weighted>
5.0944

> <Gold.Chemscore.Internal.Correction.Weighted>
   9.000000E+99

> <Gold.Protein.RotatedTorsions>
[ 6907 6896 6895 6894 ] final   99.48 input  -60.11 | X-H torsion
[ 7974 7965 7964 7962 ] final    4.99 input  175.53 | X-H torsion
[ 8008 7997 7996 7995 ] final   90.86 input   59.86 | X-H torsion
[ 10167 10162 10161 10158 ] final -130.82 input  -65.29 | X-H torsion
[ 10718 10713 10712 10709 ] final   26.64 input   66.30 | X-H torsion
[ 10763 10752 10751 10750 ] final  -40.37 input  -60.55 | X-H torsion
[ 11005 11000 10999 10996 ] final   65.46 input  -57.11 | X-H torsion

> <Gold.Protein.ActiveResidues>
 VAL166  LYS551  ARG553  GLY616  TRP617  ASP618  TYR619  PRO620  LYS621  CYS622 
 ASP623  PHE694  ASN695  SER759  ASP760  ASP761  ALA762  ILE779  LEU786  VAL792 
 PHE793  MET794  SER795  GLU796  ALA797  LYS798  CYS799  TRP800  GLU811  SER814 

> <Gold.Protein.RotatedAtoms>
  152.5391  134.0421  159.8072 H   0  0  0  0  0  0  0  0  0  0  0  0  # atno 6907 bound_to 6896
  151.0576  133.5564  159.2644 H   0  0  0  0  0  0  0  0  0  0  0  0  # atno 6908 bound_to 6896
  151.2475  135.0618  159.9102 H   0  0  0  0  0  0  0  0  0  0  0  0  # atno 6909 bound_to 6896
  146.2442  140.0451  142.8379 H   0  0  0  0  0  0  0  0  0  0  0  0  # atno 7974 bound_to 7965
  156.0170  140.3344  155.6999 H   0  0  0  0  0  0  0  0  0  0  0  0  # atno 8008 bound_to 7997
  155.6076  140.0662  157.2733 H   0  0  0  0  0  0  0  0  0  0  0  0  # atno 8009 bound_to 7997
  154.4302  140.1799  156.1227 H   0  0  0  0  0  0  0  0  0  0  0  0  # atno 8010 bound_to 7997
  139.9253  143.6334  152.2543 H   0  0  0  0  0  0  0  0  0  0  0  0  # atno 10167 bound_to 10162
  157.2096  130.6928  149.6223 H   0  0  0  0  0  0  0  0  0  0  0  0  # atno 10718 bound_to 10713
  153.9448  135.6757  153.4744 H   0  0  0  0  0  0  0  0  0  0  0  0  # atno 10763 bound_to 10752
  153.0914  135.4873  154.8693 H   0  0  0  0  0  0  0  0  0  0  0  0  # atno 10764 bound_to 10752
  154.7358  135.3149  154.8773 H   0  0  0  0  0  0  0  0  0  0  0  0  # atno 10765 bound_to 10752
  139.9893  134.6617  156.0119 H   0  0  0  0  0  0  0  0  0  0  0  0  # atno 11005 bound_to 11000
  145.1034  140.9360  143.4699 LP  0  0  0  0  0  0  0  0  0  0  0  0  # atno 17320 bound_to 7965
  145.0649  139.3076  143.5861 LP  0  0  0  0  0  0  0  0  0  0  0  0  # atno 17321 bound_to 7965
  139.6827  144.7654  151.1579 LP  0  0  0  0  0  0  0  0  0  0  0  0  # atno 17342 bound_to 10162
  140.7651  143.5701  150.9004 LP  0  0  0  0  0  0  0  0  0  0  0  0  # atno 17343 bound_to 10162
  155.9692  130.4555  150.5892 LP  0  0  0  0  0  0  0  0  0  0  0  0  # atno 17370 bound_to 10713
  157.3686  131.0762  151.1577 LP  0  0  0  0  0  0  0  0  0  0  0  0  # atno 17371 bound_to 10713
  141.1552  133.6543  156.4138 LP  0  0  0  0  0  0  0  0  0  0  0  0  # atno 17394 bound_to 11000
  140.4940  134.6548  157.5222 LP  0  0  0  0  0  0  0  0  0  0  0  0  # atno 17395 bound_to 11000

$$$$
