AV-unprocessed.smi:303|AV-procd|sdf|2274|dock6
  -GOLD-   2262022163D 1   1.00000     0.00000
 Structure written by MMmdl.
 45 46  0  0  0  0  0  0  0  0  1 V2000
  149.5134  142.2371  157.8367 C   0  0  0  0  0  0  0  0  0  0  0  0
  151.0073  141.8928  157.8043 C   0  0  0  0  0  0  0  0  0  0  0  0
  151.3023  140.1403  157.2937 S   0  0  0  0  0  0  0  0  0  0  0  0
  152.7501  139.8847  157.3436 O   0  0  0  0  0  0  0  0  0  0  0  0
  150.3810  139.2667  158.0374 O   0  0  0  0  0  0  0  0  0  0  0  0
  150.8257  140.0985  155.6190 N   0  0  0  0  0  0  0  0  0  0  0  0
  150.9395  138.8420  154.8543 C   0  0  0  0  0  0  0  0  0  0  0  0
  149.5703  138.1595  154.6893 C   0  0  0  0  0  0  0  0  0  0  0  0
  148.5445  139.1140  154.0522 C   0  0  0  0  0  0  0  0  0  0  0  0
  147.1703  138.4478  153.9148 C   0  0  0  0  0  0  0  0  0  0  0  0
  146.2449  138.7768  154.6580 O   0  0  0  0  0  0  0  0  0  0  0  0
  147.0462  137.5300  152.9426 N   0  0  0  0  0  0  0  0  0  0  0  0
  145.8097  136.8441  152.5747 C   0  0  0  0  0  0  0  0  0  0  0  0
  145.8513  136.3050  151.1310 C   0  0  0  0  0  0  0  0  0  0  0  0
  145.6154  134.8073  151.0328 C   0  0  0  0  0  0  0  0  0  0  0  0
  144.3667  134.2985  150.6141 C   0  0  0  0  0  0  0  0  0  0  0  0
  144.1882  132.9023  150.5810 C   0  0  0  0  0  0  0  0  0  0  0  0
  145.2607  132.0724  150.9601 C   0  0  0  0  0  0  0  0  0  0  0  0
  146.4698  132.6788  151.3557 C   0  0  0  0  0  0  0  0  0  0  0  0
  146.6508  134.0164  151.3934 N   0  0  0  0  0  0  0  0  0  0  0  0
  148.4457  140.3910  154.9066 C   0  0  0  0  0  0  0  0  0  0  0  0
  149.8223  141.0508  155.0986 C   0  0  0  0  0  0  0  0  0  0  0  0
  149.3628  143.2802  158.1147 H   0  0  0  0  0  0  0  0  0  0  0  0
  148.9831  141.6215  158.5635 H   0  0  0  0  0  0  0  0  0  0  0  0
  149.0478  142.0814  156.8641 H   0  0  0  0  0  0  0  0  0  0  0  0
  151.5574  142.5603  157.1462 H   0  0  0  0  0  0  0  0  0  0  0  0
  151.4239  142.0165  158.8038 H   0  0  0  0  0  0  0  0  0  0  0  0
  151.3560  139.0712  153.8728 H   0  0  0  0  0  0  0  0  0  0  0  0
  151.6450  138.1673  155.3387 H   0  0  0  0  0  0  0  0  0  0  0  0
  149.6844  137.2678  154.0716 H   0  0  0  0  0  0  0  0  0  0  0  0
  149.2134  137.8130  155.6590 H   0  0  0  0  0  0  0  0  0  0  0  0
  148.9013  139.3889  153.0579 H   0  0  0  0  0  0  0  0  0  0  0  0
  147.8623  137.3211  152.3860 H   0  0  0  0  0  0  0  0  0  0  0  0
  145.6650  136.0153  153.2678 H   0  0  0  0  0  0  0  0  0  0  0  0
  144.9483  137.5013  152.7050 H   0  0  0  0  0  0  0  0  0  0  0  0
  145.1069  136.8231  150.5248 H   0  0  0  0  0  0  0  0  0  0  0  0
  146.8178  136.5380  150.6821 H   0  0  0  0  0  0  0  0  0  0  0  0
  143.5590  134.9610  150.3395 H   0  0  0  0  0  0  0  0  0  0  0  0
  143.2447  132.4759  150.2740 H   0  0  0  0  0  0  0  0  0  0  0  0
  145.1602  130.9972  150.9478 H   0  0  0  0  0  0  0  0  0  0  0  0
  147.3136  132.0734  151.6518 H   0  0  0  0  0  0  0  0  0  0  0  0
  147.7737  141.1044  154.4279 H   0  0  0  0  0  0  0  0  0  0  0  0
  148.0006  140.1713  155.8763 H   0  0  0  0  0  0  0  0  0  0  0  0
  149.7380  141.9164  155.7545 H   0  0  0  0  0  0  0  0  0  0  0  0
  150.1778  141.4291  154.1396 H   0  0  0  0  0  0  0  0  0  0  0  0
  1  2  1  0  0  0  0
  1 23  1  0  0  0  0
  1 24  1  0  0  0  0
  1 25  1  0  0  0  0
  2  3  1  0  0  0  0
  2 26  1  0  0  0  0
  2 27  1  0  0  0  0
  3  4  2  0  0  0  0
  3  5  2  0  0  0  0
  3  6  1  0  0  0  0
  6 22  1  0  0  0  0
  6  7  1  0  0  0  0
  7  8  1  0  0  0  0
  7 28  1  0  0  0  0
  7 29  1  0  0  0  0
  8  9  1  0  0  0  0
  8 30  1  0  0  0  0
  8 31  1  0  0  0  0
  9 10  1  0  0  0  0
  9 21  1  0  0  0  0
  9 32  1  0  0  0  0
 10 11  2  0  0  0  0
 10 12  1  0  0  0  0
 12 13  1  0  0  0  0
 12 33  1  0  0  0  0
 13 14  1  0  0  0  0
 13 34  1  0  0  0  0
 13 35  1  0  0  0  0
 14 15  1  0  0  0  0
 14 36  1  0  0  0  0
 14 37  1  0  0  0  0
 15 20  1  0  0  0  0
 15 16  2  0  0  0  0
 16 17  1  0  0  0  0
 16 38  1  0  0  0  0
 17 18  2  0  0  0  0
 17 39  1  0  0  0  0
 18 19  1  0  0  0  0
 18 40  1  0  0  0  0
 19 20  2  0  0  0  0
 19 41  1  0  0  0  0
 21 22  1  0  0  0  0
 21 42  1  0  0  0  0
 21 43  1  0  0  0  0
 22 44  1  0  0  0  0
 22 45  1  0  0  0  0
M  END
> <s_m_source_file>
AV-unprocessed.smi

> <i_m_source_file_index>
303

> <i_lp_mmshare_version>
43012

> <i_f3d_flags>
0

> <s_epik_input>
W0NIM11bQ0gyXVMoPU8pKD1PKU4xW0NIMl1bQ0gyXVtDSF0oW0NIMl1bQ0gyXTEpQyg9TylbTkhdW0NIMl1bQ0gyXWMyW2NIXVtjSF1bY0hdW2NIXW4y

> <s_epik_cmdline>
J2VwaWtfcHl0aG9uJywgJy1waCcsICc3LjAnLCAnLXRuJywgJzgnLCAnLW1hJywgJzIwMCcsICctbWV0YWxfYmluZGluZycsICctaW1hZScsICc8aW5maWxlLm1hZT4nLCAnLW9tYWUnLCAnPG91dGZpbGUubWFlPic=

> <r_epik_Ionization_Penalty>
0.0277532

> <r_epik_Ionization_Penalty_Charging>
0

> <r_epik_Ionization_Penalty_Neutral>
0.0277532

> <r_epik_State_Penalty>
0.022734

> <r_epik_Charging_Adjusted_Penalty>
0.022734

> <i_epik_Tot_Q>
0

> <i_epik_Tot_abs_Q>
0

> <r_epik_Metal_State_Penalty>
0.021713

> <b_epik_Metal_Only>
0

> <s_lp_Force_Field>
OPLS_2005

> <r_lp_Energy>
1.72058

> <b_lp_Chiralities_Consistent>
1

> <s_lp_Variant>
AV-unprocessed.smi:303-1

> <Gold.Version>
5.8.1

> <Gold.Id.Protein>
6NUR|6NUR_protein|mol2

> <Gold.PLP.Fitness>
43.9071

> <Gold.PLP.PLP>
-37.5777

> <Gold.PLP.part.hbond>
-1.9678

> <Gold.PLP.part.metal>
0.0000

> <Gold.PLP.part.buried>
-2.1741

> <Gold.PLP.part.nonpolar>
-33.1408

> <Gold.PLP.part.repulsive>
0.3351

> <Gold.PLP.ligand.clash>
0.0010

> <Gold.PLP.ligand.torsion>
2.4448

> <Gold.PLP.Chemscore.Hbond>
2.0000

> <Gold.PLP.Chemscore.CHOScore>
0.9990

> <Gold.PLP.Chemscore.Metal>
0.0000

> <Gold.Chemscore.Hbonds>
donor molecule, donor type, donor heavy atom, donor atom, acceptor molecule, acceptor atom, score
      L1  H    12    33       P1  7948  1.00
      P1  H  7997  8009       L1     4  1.00
      L1  C    19    41       P1 10747  1.00

> <Gold.PLP.Chemscore.Internal.Correction>
2.2229

> <Gold.Rescore>
     Score         DG    S(hbond)    S(metal)    S(lipo)     H(rot)  DE(clash)    DE(int)     intcor
     15.87     -18.38       1.96        0.00      90.68       1.66       0.07       2.44       ----

> <Gold.Chemscore.Fitness>
15.8736

> <Gold.Chemscore.DG>
-18.3818

> <Gold.Chemscore.ZeroCoef>
-5.4800

> <Gold.Chemscore.Hbond>
1.9559

> <Gold.Chemscore.Metal>
0.0000

> <Gold.Chemscore.Lipo>
90.6773

> <Gold.Chemscore.Internal_Hbond>
0.0000

> <Gold.Chemscore.DEClash>
0.0730

> <Gold.Chemscore.DEInternal>
2.4353

> <Gold.Chemscore.Rot>
1.6563

> <Gold.Chemscore.Internal.Correction>
   9.000000E+99

> <Gold.Chemscore.Hbonds>
donor molecule, donor type, donor heavy atom, donor atom, acceptor molecule, acceptor atom, score
      L1  H    12    33       P1  7948  0.94
      P1  H  7997  8009       L1     4  0.94

> <Gold.Chemscore.Hbond.Weighted>
-6.5327

> <Gold.Chemscore.Metal.Weighted>
-0.0000

> <Gold.Chemscore.Lipo.Weighted>
-10.6092

> <Gold.Chemscore.Internal_Hbond.Weighted>
0.0000

> <Gold.Chemscore.DEClash.Weighted>
0.0730

> <Gold.Chemscore.DEInternal.Weighted>
2.4353

> <Gold.Chemscore.Rot.Weighted>
4.2401

> <Gold.Chemscore.Internal.Correction.Weighted>
   9.000000E+99

> <Gold.Protein.RotatedTorsions>
[ 6907 6896 6895 6894 ] final  165.82 input  -60.11 | X-H torsion
[ 7974 7965 7964 7962 ] final   11.59 input  175.53 | X-H torsion
[ 8008 7997 7996 7995 ] final -169.12 input   59.86 | X-H torsion
[ 10167 10162 10161 10158 ] final  -24.68 input  -65.29 | X-H torsion
[ 10718 10713 10712 10709 ] final   39.86 input   66.30 | X-H torsion
[ 10763 10752 10751 10750 ] final  129.51 input  -60.55 | X-H torsion
[ 11005 11000 10999 10996 ] final -159.71 input  -57.11 | X-H torsion

> <Gold.Protein.ActiveResidues>
 VAL166  LYS551  ARG553  GLY616  TRP617  ASP618  TYR619  PRO620  LYS621  CYS622 
 ASP623  PHE694  ASN695  SER759  ASP760  ASP761  ALA762  ILE779  LEU786  VAL792 
 PHE793  MET794  SER795  GLU796  ALA797  LYS798  CYS799  TRP800  GLU811  SER814 

> <Gold.Protein.RotatedAtoms>
  151.8885  133.3511  159.3790 H   0  0  0  0  0  0  0  0  0  0  0  0  # atno 6907 bound_to 6896
  150.7109  134.4947  159.5542 H   0  0  0  0  0  0  0  0  0  0  0  0  # atno 6908 bound_to 6896
  152.2513  134.8130  160.0496 H   0  0  0  0  0  0  0  0  0  0  0  0  # atno 6909 bound_to 6896
  146.2368  139.9463  142.8476 H   0  0  0  0  0  0  0  0  0  0  0  0  # atno 7974 bound_to 7965
  155.9006  140.1040  157.1352 H   0  0  0  0  0  0  0  0  0  0  0  0  # atno 8008 bound_to 7997
  154.4026  140.1293  156.4496 H   0  0  0  0  0  0  0  0  0  0  0  0  # atno 8009 bound_to 7997
  155.7427  140.3466  155.5114 H   0  0  0  0  0  0  0  0  0  0  0  0  # atno 8010 bound_to 7997
  140.7288  143.4332  151.0770 H   0  0  0  0  0  0  0  0  0  0  0  0  # atno 10167 bound_to 10162
  157.3755  130.7725  149.7152 H   0  0  0  0  0  0  0  0  0  0  0  0  # atno 10718 bound_to 10713
  153.7430  135.3221  155.3307 H   0  0  0  0  0  0  0  0  0  0  0  0  # atno 10763 bound_to 10752
  154.8288  135.4549  154.1007 H   0  0  0  0  0  0  0  0  0  0  0  0  # atno 10764 bound_to 10752
  153.2188  135.6945  153.8107 H   0  0  0  0  0  0  0  0  0  0  0  0  # atno 10765 bound_to 10752
  140.6396  134.4565  157.5233 H   0  0  0  0  0  0  0  0  0  0  0  0  # atno 11005 bound_to 11000
  145.1904  140.9809  143.4214 LP  0  0  0  0  0  0  0  0  0  0  0  0  # atno 17320 bound_to 7965
  144.9862  139.3734  143.6237 LP  0  0  0  0  0  0  0  0  0  0  0  0  # atno 17321 bound_to 7965
  139.7991  143.8109  152.3161 LP  0  0  0  0  0  0  0  0  0  0  0  0  # atno 17342 bound_to 10162
  139.8120  144.7332  150.9685 LP  0  0  0  0  0  0  0  0  0  0  0  0  # atno 17343 bound_to 10162
  155.9764  130.4076  150.3780 LP  0  0  0  0  0  0  0  0  0  0  0  0  # atno 17370 bound_to 10713
  157.1876  131.0407  151.2716 LP  0  0  0  0  0  0  0  0  0  0  0  0  # atno 17371 bound_to 10713
  139.9085  134.8396  156.1615 LP  0  0  0  0  0  0  0  0  0  0  0  0  # atno 17394 bound_to 11000
  141.0616  133.6839  156.1964 LP  0  0  0  0  0  0  0  0  0  0  0  0  # atno 17395 bound_to 11000

$$$$
