AV-unprocessed.smi:177|AV-procd|sdf|1439|dock10
  -GOLD-   2262019223D 1   1.00000     0.00000
 Structure written by MMmdl.
 61 65  0  0  0  0  0  0  0  0  1 V2000
  152.8528  142.4207  161.7532 C   0  0  0  0  0  0  0  0  0  0  0  0
  153.0273  141.9280  160.4335 O   0  0  0  0  0  0  0  0  0  0  0  0
  153.0023  140.5101  160.3299 C   0  0  2  0  0  0  0  0  0  0  0  0
  154.4561  140.0317  160.1914 C   0  0  0  0  0  0  0  0  0  0  0  0
  154.5281  138.5044  160.0418 C   0  0  0  0  0  0  0  0  0  0  0  0
  153.6782  137.9967  158.8642 C   0  0  2  0  0  0  0  0  0  0  0  0
  154.2789  138.4000  157.6359 O   0  0  0  0  0  0  0  0  0  0  0  0
  153.6053  137.8519  156.5078 C   0  0  0  0  0  0  0  0  0  0  0  0
  152.1531  138.3531  156.4736 C   0  0  0  0  0  0  0  0  0  0  0  0
  151.4884  138.0714  157.7462 N   0  0  0  0  0  0  0  0  0  0  0  0
  150.1339  138.1825  157.7964 C   0  0  0  0  0  0  0  0  0  0  0  0
  149.5068  139.1115  157.0252 N   0  0  0  0  0  0  0  0  0  0  0  0
  148.1790  139.2476  157.0718 C   0  0  0  0  0  0  0  0  0  0  0  0
  147.2976  138.5706  157.8085 N   0  0  0  0  0  0  0  0  0  0  0  0
  147.9154  137.6342  158.5834 C   0  0  0  0  0  0  0  0  0  0  0  0
  149.3141  137.3694  158.6314 C   0  0  0  0  0  0  0  0  0  0  0  0
  149.5625  136.3210  159.5097 N   0  0  0  0  0  0  0  0  0  0  0  0
  148.3835  135.9967  159.9641 C   0  0  0  0  0  0  0  0  0  0  0  0
  147.3382  136.7482  159.4771 N   0  0  0  0  0  0  0  0  0  0  0  0
  145.9290  136.5963  159.8098 C   0  0  0  0  0  0  0  0  0  0  0  0
  145.6219  135.8232  161.1288 C   0  0  0  0  0  0  0  0  0  0  0  0
  146.4452  136.4029  162.3183 C   0  0  0  0  0  0  0  0  0  0  0  0
  146.1950  137.7705  162.5732 O   0  0  0  0  0  0  0  0  0  0  0  0
  144.1012  135.8135  161.4318 C   0  0  0  0  0  0  0  0  0  0  0  0
  143.7215  134.8039  162.5280 C   0  0  0  0  0  0  0  0  0  0  0  0
  144.1314  133.4988  162.1412 O   0  0  0  0  0  0  0  0  0  0  0  0
  145.5401  133.3856  161.9882 C   0  0  0  0  0  0  0  0  0  0  0  0
  146.0369  134.3485  160.8917 C   0  0  0  0  0  0  0  0  0  0  0  0
  152.2239  138.5213  158.9320 C   0  0  2  0  0  0  0  0  0  0  0  0
  152.1781  140.0576  159.1090 C   0  0  0  0  0  0  0  0  0  0  0  0
  152.9282  143.5079  161.7455 H   0  0  0  0  0  0  0  0  0  0  0  0
  153.6244  142.0391  162.4227 H   0  0  0  0  0  0  0  0  0  0  0  0
  151.8761  142.1604  162.1603 H   0  0  0  0  0  0  0  0  0  0  0  0
  152.5833  140.0799  161.2417 H   0  0  0  0  0  0  0  0  0  0  0  0
  154.9208  140.5070  159.3263 H   0  0  0  0  0  0  0  0  0  0  0  0
  155.0340  140.3433  161.0619 H   0  0  0  0  0  0  0  0  0  0  0  0
  155.5642  138.1885  159.9169 H   0  0  0  0  0  0  0  0  0  0  0  0
  154.1756  138.0400  160.9635 H   0  0  0  0  0  0  0  0  0  0  0  0
  153.6718  136.9056  158.9010 H   0  0  0  0  0  0  0  0  0  0  0  0
  154.1274  138.1537  155.6000 H   0  0  0  0  0  0  0  0  0  0  0  0
  153.6384  136.7619  156.5457 H   0  0  0  0  0  0  0  0  0  0  0  0
  152.1308  139.4246  156.2724 H   0  0  0  0  0  0  0  0  0  0  0  0
  151.6233  137.8621  155.6562 H   0  0  0  0  0  0  0  0  0  0  0  0
  147.7637  140.0093  156.4285 H   0  0  0  0  0  0  0  0  0  0  0  0
  148.2434  135.2013  160.6815 H   0  0  0  0  0  0  0  0  0  0  0  0
  145.4989  137.5979  159.8546 H   0  0  0  0  0  0  0  0  0  0  0  0
  145.4378  136.1046  158.9689 H   0  0  0  0  0  0  0  0  0  0  0  0
  146.2315  135.8763  163.2463 H   0  0  0  0  0  0  0  0  0  0  0  0
  147.5129  136.2732  162.1381 H   0  0  0  0  0  0  0  0  0  0  0  0
  146.6651  138.0224  163.3535 H   0  0  0  0  0  0  0  0  0  0  0  0
  143.7462  136.8062  161.7090 H   0  0  0  0  0  0  0  0  0  0  0  0
  143.5562  135.5444  160.5262 H   0  0  0  0  0  0  0  0  0  0  0  0
  144.1611  135.0719  163.4894 H   0  0  0  0  0  0  0  0  0  0  0  0
  142.6405  134.7996  162.6678 H   0  0  0  0  0  0  0  0  0  0  0  0
  146.0366  133.5631  162.9423 H   0  0  0  0  0  0  0  0  0  0  0  0
  145.7746  132.3584  161.7086 H   0  0  0  0  0  0  0  0  0  0  0  0
  145.6268  134.0033  159.9414 H   0  0  0  0  0  0  0  0  0  0  0  0
  147.1205  134.2704  160.7950 H   0  0  0  0  0  0  0  0  0  0  0  0
  151.7779  138.0800  159.8214 H   0  0  0  0  0  0  0  0  0  0  0  0
  151.1420  140.3777  159.2160 H   0  0  0  0  0  0  0  0  0  0  0  0
  152.5630  140.5549  158.2184 H   0  0  0  0  0  0  0  0  0  0  0  0
  1  2  1  0  0  0  0
  1 31  1  0  0  0  0
  1 32  1  0  0  0  0
  1 33  1  0  0  0  0
  2  3  1  0  0  0  0
  3 30  1  0  0  0  0
  3  4  1  0  0  0  0
  3 34  1  0  0  0  0
  4  5  1  0  0  0  0
  4 35  1  0  0  0  0
  4 36  1  0  0  0  0
  5  6  1  0  0  0  0
  5 37  1  0  0  0  0
  5 38  1  0  0  0  0
  6 29  1  0  0  0  0
  6  7  1  0  0  0  0
  6 39  1  0  0  0  0
  7  8  1  0  0  0  0
  8  9  1  0  0  0  0
  8 40  1  0  0  0  0
  8 41  1  0  0  0  0
  9 10  1  0  0  0  0
  9 42  1  0  0  0  0
  9 43  1  0  0  0  0
 10 11  1  0  0  0  0
 10 29  1  0  0  0  0
 11 16  1  0  0  0  0
 11 12  2  0  0  0  0
 12 13  1  0  0  0  0
 13 14  2  0  0  0  0
 13 44  1  0  0  0  0
 14 15  1  0  0  0  0
 15 19  1  0  0  0  0
 15 16  2  0  0  0  0
 16 17  1  0  0  0  0
 17 18  2  0  0  0  0
 18 19  1  0  0  0  0
 18 45  1  0  0  0  0
 19 20  1  0  0  0  0
 20 21  1  0  0  0  0
 20 46  1  0  0  0  0
 20 47  1  0  0  0  0
 21 28  1  0  0  0  0
 21 22  1  0  0  0  0
 21 24  1  0  0  0  0
 22 23  1  0  0  0  0
 22 48  1  0  0  0  0
 22 49  1  0  0  0  0
 23 50  1  0  0  0  0
 24 25  1  0  0  0  0
 24 51  1  0  0  0  0
 24 52  1  0  0  0  0
 25 26  1  0  0  0  0
 25 53  1  0  0  0  0
 25 54  1  0  0  0  0
 26 27  1  0  0  0  0
 27 28  1  0  0  0  0
 27 55  1  0  0  0  0
 27 56  1  0  0  0  0
 28 57  1  0  0  0  0
 28 58  1  0  0  0  0
 29 30  1  0  0  0  0
 29 59  1  0  0  0  0
 30 60  1  0  0  0  0
 30 61  1  0  0  0  0
M  END
> <s_m_source_file>
AV-unprocessed.smi

> <i_m_source_file_index>
177

> <i_lp_mmshare_version>
43012

> <i_f3d_flags>
0

> <s_epik_input>
W0NIM11PW0NASF0oW0NIMl1bQ0gyXTEpW0NIMl1bQ0BIXShbQ0BASF0xMilOKFtDSDJdW0NIMl1PMiljKG5bY0hdbjMpYyhjMzQpbltjSF1uNFtDSDJdQzUoW0NIMl1bT0hdKVtDSDJdW0NIMl1PW0NIMl1bQ0gyXTU=

> <s_epik_cmdline>
J2VwaWtfcHl0aG9uJywgJy1waCcsICc3LjAnLCAnLXRuJywgJzgnLCAnLW1hJywgJzIwMCcsICctbWV0YWxfYmluZGluZycsICctaW1hZScsICc8aW5maWxlLm1hZT4nLCAnLW9tYWUnLCAnPG91dGZpbGUubWFlPic=

> <r_lp_tautomer_probability>
1

> <r_epik_Ionization_Penalty>
0.0065899

> <r_epik_Ionization_Penalty_Charging>
0

> <r_epik_Ionization_Penalty_Neutral>
0.0065899

> <r_epik_State_Penalty>
0.00470042

> <r_epik_Charging_Adjusted_Penalty>
0.00470042

> <i_epik_Tot_Q>
0

> <i_epik_Tot_abs_Q>
0

> <r_epik_Metal_State_Penalty>
-0

> <b_epik_Metal_Only>
0

> <s_lp_Force_Field>
OPLS_2005

> <r_lp_Energy>
44.7828

> <b_lp_Chiralities_Consistent>
1

> <s_lp_Variant>
AV-unprocessed.smi:177-3

> <Gold.Version>
5.8.1

> <Gold.Id.Protein>
6NUR|6NUR_protein|mol2

> <Gold.PLP.Fitness>
44.1516

> <Gold.PLP.PLP>
-39.8435

> <Gold.PLP.part.hbond>
-2.9011

> <Gold.PLP.part.metal>
0.0000

> <Gold.PLP.part.buried>
-6.8515

> <Gold.PLP.part.nonpolar>
-30.2462

> <Gold.PLP.part.repulsive>
0.0793

> <Gold.PLP.ligand.clash>
0.0000

> <Gold.PLP.ligand.torsion>
1.3710

> <Gold.PLP.Chemscore.Hbond>
2.1840

> <Gold.PLP.Chemscore.CHOScore>
0.0000

> <Gold.PLP.Chemscore.Metal>
0.0000

> <Gold.Chemscore.Hbonds>
donor molecule, donor type, donor heavy atom, donor atom, acceptor molecule, acceptor atom, score
      P1  H  6896  6908       L1    17  1.00
      P1  H  6934  6947       L1    23  0.22
      P1  H  7997  8009       L1     7  0.83

> <Gold.PLP.Chemscore.Internal.Correction>
0.4981

> <Gold.Rescore>
     Score         DG    S(hbond)    S(metal)    S(lipo)     H(rot)  DE(clash)    DE(int)     intcor
     14.44     -16.80       1.68        0.00     105.38       2.58       0.12       2.25       ----

> <Gold.Chemscore.Fitness>
14.4394

> <Gold.Chemscore.DG>
-16.8050

> <Gold.Chemscore.ZeroCoef>
-5.4800

> <Gold.Chemscore.Hbond>
1.6771

> <Gold.Chemscore.Metal>
0.0000

> <Gold.Chemscore.Lipo>
105.3820

> <Gold.Chemscore.Internal_Hbond>
0.0000

> <Gold.Chemscore.DEClash>
0.1167

> <Gold.Chemscore.DEInternal>
2.2489

> <Gold.Chemscore.Rot>
2.5806

> <Gold.Chemscore.Internal.Correction>
   9.000000E+99

> <Gold.Chemscore.Hbonds>
donor molecule, donor type, donor heavy atom, donor atom, acceptor molecule, acceptor atom, score
      P1  H  6896  6908       L1    17  0.78
      P1  H  6934  6947       L1    23  0.06
      P1  H  7997  8009       L1     7  0.46

> <Gold.Chemscore.Hbond.Weighted>
-5.6015

> <Gold.Chemscore.Metal.Weighted>
-0.0000

> <Gold.Chemscore.Lipo.Weighted>
-12.3297

> <Gold.Chemscore.Internal_Hbond.Weighted>
0.0000

> <Gold.Chemscore.DEClash.Weighted>
0.1167

> <Gold.Chemscore.DEInternal.Weighted>
2.2489

> <Gold.Chemscore.Rot.Weighted>
6.6062

> <Gold.Chemscore.Internal.Correction.Weighted>
   9.000000E+99

> <Gold.Protein.RotatedTorsions>
[ 6907 6896 6895 6894 ] final -173.69 input  -60.11 | X-H torsion
[ 7974 7965 7964 7962 ] final  112.16 input  175.53 | X-H torsion
[ 8008 7997 7996 7995 ] final  141.41 input   59.86 | X-H torsion
[ 10167 10162 10161 10158 ] final  -72.14 input  -65.29 | X-H torsion
[ 10718 10713 10712 10709 ] final  -41.06 input   66.30 | X-H torsion
[ 10763 10752 10751 10750 ] final   61.06 input  -60.55 | X-H torsion
[ 11005 11000 10999 10996 ] final   69.04 input  -57.11 | X-H torsion

> <Gold.Protein.ActiveResidues>
 VAL166  LYS551  ARG553  GLY616  TRP617  ASP618  TYR619  PRO620  LYS621  CYS622 
 ASP623  PHE694  ASN695  SER759  ASP760  ASP761  ALA762  ILE779  LEU786  VAL792 
 PHE793  MET794  SER795  GLU796  ALA797  LYS798  CYS799  TRP800  GLU811  SER814 

> <Gold.Protein.RotatedAtoms>
  151.5603  133.3404  159.2969 H   0  0  0  0  0  0  0  0  0  0  0  0  # atno 6907 bound_to 6896
  150.8427  134.7727  159.6956 H   0  0  0  0  0  0  0  0  0  0  0  0  # atno 6908 bound_to 6896
  152.4491  134.5439  159.9899 H   0  0  0  0  0  0  0  0  0  0  0  0  # atno 6909 bound_to 6896
  145.2331  139.2811  143.4157 H   0  0  0  0  0  0  0  0  0  0  0  0  # atno 7974 bound_to 7965
  156.2966  140.2316  156.4560 H   0  0  0  0  0  0  0  0  0  0  0  0  # atno 8008 bound_to 7997
  154.8060  140.0445  157.1328 H   0  0  0  0  0  0  0  0  0  0  0  0  # atno 8009 bound_to 7997
  154.9478  140.3038  155.5093 H   0  0  0  0  0  0  0  0  0  0  0  0  # atno 8010 bound_to 7997
  140.5216  143.2331  151.7420 H   0  0  0  0  0  0  0  0  0  0  0  0  # atno 10167 bound_to 10162
  156.2745  130.4210  149.8403 H   0  0  0  0  0  0  0  0  0  0  0  0  # atno 10718 bound_to 10713
  152.9939  135.5514  154.5973 H   0  0  0  0  0  0  0  0  0  0  0  0  # atno 10763 bound_to 10752
  154.5322  135.2814  155.1172 H   0  0  0  0  0  0  0  0  0  0  0  0  # atno 10764 bound_to 10752
  154.2483  135.6403  153.5284 H   0  0  0  0  0  0  0  0  0  0  0  0  # atno 10765 bound_to 10752
  139.9676  134.6954  156.0512 H   0  0  0  0  0  0  0  0  0  0  0  0  # atno 11005 bound_to 11000
  146.3348  140.2672  142.8604 LP  0  0  0  0  0  0  0  0  0  0  0  0  # atno 17320 bound_to 7965
  144.9658  140.8320  143.5485 LP  0  0  0  0  0  0  0  0  0  0  0  0  # atno 17321 bound_to 7965
  139.4925  144.4246  151.9940 LP  0  0  0  0  0  0  0  0  0  0  0  0  # atno 17342 bound_to 10162
  140.3343  144.3279  150.5980 LP  0  0  0  0  0  0  0  0  0  0  0  0  # atno 17343 bound_to 10162
  156.5872  130.8491  151.3399 LP  0  0  0  0  0  0  0  0  0  0  0  0  # atno 17370 bound_to 10713
  157.7294  130.9671  150.1788 LP  0  0  0  0  0  0  0  0  0  0  0  0  # atno 17371 bound_to 10713
  141.1356  133.6576  156.3585 LP  0  0  0  0  0  0  0  0  0  0  0  0  # atno 17394 bound_to 11000
  140.5362  134.6164  157.5365 LP  0  0  0  0  0  0  0  0  0  0  0  0  # atno 17395 bound_to 11000

$$$$
