AV-unprocessed.smi:765|AV-procd|sdf|3646|dock10
  -GOLD-   22720 1 53D 1   1.00000     0.00000
 Structure written by MMmdl.
 39 40  0  0  0  0  0  0  0  0  1 V2000
  149.9162  145.1444  160.9488 C   0  0  0  0  0  0  0  0  0  0  0  0
  150.7605  144.2818  160.0000 C   0  0  1  0  0  0  0  0  0  0  0  0
  151.4605  145.1424  158.9325 C   0  0  0  0  0  0  0  0  0  0  0  0
  152.3323  144.2909  157.9987 C   0  0  0  0  0  0  0  0  0  0  0  0
  153.3540  143.4657  158.7999 C   0  0  0  0  0  0  0  0  0  0  0  0
  152.6812  142.5632  159.8640 C   0  0  2  0  0  0  0  0  0  0  0  0
  153.7123  141.9123  160.6941 C   0  0  0  0  0  0  0  0  0  0  0  0
  154.5219  141.4013  161.3440 N   0  0  0  0  0  0  0  0  0  0  0  0
  151.8254  141.5601  159.2248 N   0  0  0  0  0  0  0  0  0  0  0  0
  152.2114  140.4255  158.6180 C   0  0  0  0  0  0  0  0  0  0  0  0
  153.3761  140.0268  158.6034 O   0  0  0  0  0  0  0  0  0  0  0  0
  151.1006  139.6505  157.8932 C   0  0  2  0  0  0  0  0  0  0  0  0
  150.6623  138.3765  158.6401 C   0  0  0  0  0  0  0  0  0  0  0  0
  151.5233  139.3436  156.5320 N   0  0  0  0  0  0  0  0  0  0  0  0
  150.7677  138.8696  155.4767 C   0  0  0  0  0  0  0  0  0  0  0  0
  151.6079  138.7029  154.4137 C   0  0  0  0  0  0  0  0  0  0  0  0
  152.8751  139.1050  154.9195 C   0  0  0  0  0  0  0  0  0  0  0  0
  152.8224  139.4838  156.1863 N   0  0  0  0  0  0  0  0  0  0  0  0
  151.7948  143.4390  160.7785 C   0  0  0  0  0  0  0  0  0  0  0  0
  150.5364  145.8526  161.4993 H   0  0  0  0  0  0  0  0  0  0  0  0
  149.3901  144.5269  161.6773 H   0  0  0  0  0  0  0  0  0  0  0  0
  149.1672  145.7153  160.3995 H   0  0  0  0  0  0  0  0  0  0  0  0
  150.0772  143.6028  159.4880 H   0  0  0  0  0  0  0  0  0  0  0  0
  150.7186  145.6843  158.3446 H   0  0  0  0  0  0  0  0  0  0  0  0
  152.0807  145.8977  159.4169 H   0  0  0  0  0  0  0  0  0  0  0  0
  151.7003  143.6298  157.4048 H   0  0  0  0  0  0  0  0  0  0  0  0
  152.8519  144.9350  157.2890 H   0  0  0  0  0  0  0  0  0  0  0  0
  153.9641  142.8733  158.1177 H   0  0  0  0  0  0  0  0  0  0  0  0
  154.0462  144.1480  159.2953 H   0  0  0  0  0  0  0  0  0  0  0  0
  150.8422  141.7865  159.1815 H   0  0  0  0  0  0  0  0  0  0  0  0
  150.2335  140.3117  157.8389 H   0  0  0  0  0  0  0  0  0  0  0  0
  150.3040  138.6108  159.6432 H   0  0  0  0  0  0  0  0  0  0  0  0
  151.4791  137.6602  158.7368 H   0  0  0  0  0  0  0  0  0  0  0  0
  149.8487  137.8785  158.1120 H   0  0  0  0  0  0  0  0  0  0  0  0
  149.7074  138.6865  155.5721 H   0  0  0  0  0  0  0  0  0  0  0  0
  151.3559  138.3460  153.4262 H   0  0  0  0  0  0  0  0  0  0  0  0
  153.8261  139.1296  154.4080 H   0  0  0  0  0  0  0  0  0  0  0  0
  152.4328  144.1075  161.3588 H   0  0  0  0  0  0  0  0  0  0  0  0
  151.2826  142.8084  161.5069 H   0  0  0  0  0  0  0  0  0  0  0  0
  1  2  1  0  0  0  0
  1 20  1  0  0  0  0
  1 21  1  0  0  0  0
  1 22  1  0  0  0  0
  2 19  1  0  0  0  0
  2  3  1  0  0  0  0
  2 23  1  0  0  0  0
  3  4  1  0  0  0  0
  3 24  1  0  0  0  0
  3 25  1  0  0  0  0
  4  5  1  0  0  0  0
  4 26  1  0  0  0  0
  4 27  1  0  0  0  0
  5  6  1  0  0  0  0
  5 28  1  0  0  0  0
  5 29  1  0  0  0  0
  6  7  1  0  0  0  0
  6  9  1  0  0  0  0
  6 19  1  0  0  0  0
  7  8  3  0  0  0  0
  9 10  1  0  0  0  0
  9 30  1  0  0  0  0
 10 11  2  0  0  0  0
 10 12  1  0  0  0  0
 12 13  1  0  0  0  0
 12 14  1  0  0  0  0
 12 31  1  0  0  0  0
 13 32  1  0  0  0  0
 13 33  1  0  0  0  0
 13 34  1  0  0  0  0
 14 18  1  0  0  0  0
 14 15  1  0  0  0  0
 15 16  2  0  0  0  0
 15 35  1  0  0  0  0
 16 17  1  0  0  0  0
 16 36  1  0  0  0  0
 17 18  2  0  0  0  0
 17 37  1  0  0  0  0
 19 38  1  0  0  0  0
 19 39  1  0  0  0  0
M  END
> <s_m_source_file>
AV-unprocessed.smi

> <i_m_source_file_index>
765

> <i_lp_mmshare_version>
43012

> <i_f3d_flags>
0

> <s_epik_input>
W0NIM11bQ0BASF0oW0NIMl0xKVtDSDJdW0NIMl1bQ0gyXVtDQEBdMShDI04pW05IXUMoPU8pW0NASF0oW0NIM10pbjJbY0hdW2NIXVtjSF1uMg==

> <s_epik_cmdline>
J2VwaWtfcHl0aG9uJywgJy1waCcsICc3LjAnLCAnLXRuJywgJzgnLCAnLW1hJywgJzIwMCcsICctbWV0YWxfYmluZGluZycsICctaW1hZScsICc8aW5maWxlLm1hZT4nLCAnLW9tYWUnLCAnPG91dGZpbGUubWFlPic=

> <r_lp_tautomer_probability>
1

> <r_epik_Ionization_Penalty>
2.71142e-05

> <r_epik_Ionization_Penalty_Charging>
0

> <r_epik_Ionization_Penalty_Neutral>
2.71142e-05

> <r_epik_State_Penalty>
-0

> <r_epik_Charging_Adjusted_Penalty>
0

> <i_epik_Tot_Q>
0

> <i_epik_Tot_abs_Q>
0

> <r_epik_Metal_State_Penalty>
-0

> <b_epik_Metal_Only>
0

> <s_lp_Force_Field>
OPLS_2005

> <r_lp_Energy>
10.6921

> <b_lp_Chiralities_Consistent>
1

> <s_lp_Variant>
AV-unprocessed.smi:765-4

> <Gold.Version>
5.8.1

> <Gold.Id.Protein>
6NUR|6NUR_protein|mol2

> <Gold.PLP.Fitness>
42.9784

> <Gold.PLP.PLP>
-41.5181

> <Gold.PLP.part.hbond>
-3.0000

> <Gold.PLP.part.metal>
0.0000

> <Gold.PLP.part.buried>
-1.5435

> <Gold.PLP.part.nonpolar>
-35.6036

> <Gold.PLP.part.repulsive>
0.1316

> <Gold.PLP.ligand.clash>
0.0000

> <Gold.PLP.ligand.torsion>
0.8049

> <Gold.PLP.Chemscore.Hbond>
1.0000

> <Gold.PLP.Chemscore.CHOScore>
0.0000

> <Gold.PLP.Chemscore.Metal>
0.0000

> <Gold.Chemscore.Hbonds>
donor molecule, donor type, donor heavy atom, donor atom, acceptor molecule, acceptor atom, score
      P1  H  7997  8009       L1    11  1.00

> <Gold.PLP.Chemscore.Internal.Correction>
0.0701

> <Gold.Rescore>
     Score         DG    S(hbond)    S(metal)    S(lipo)     H(rot)  DE(clash)    DE(int)     intcor
     13.76     -18.16       0.97        0.00     111.57       1.42       0.55       3.84       ----

> <Gold.Chemscore.Fitness>
13.7586

> <Gold.Chemscore.DG>
-18.1564

> <Gold.Chemscore.ZeroCoef>
-5.4800

> <Gold.Chemscore.Hbond>
0.9743

> <Gold.Chemscore.Metal>
0.0000

> <Gold.Chemscore.Lipo>
111.5666

> <Gold.Chemscore.Internal_Hbond>
0.0000

> <Gold.Chemscore.DEClash>
0.5535

> <Gold.Chemscore.DEInternal>
3.8443

> <Gold.Chemscore.Rot>
1.4183

> <Gold.Chemscore.Internal.Correction>
   9.000000E+99

> <Gold.Chemscore.Hbonds>
donor molecule, donor type, donor heavy atom, donor atom, acceptor molecule, acceptor atom, score
      P1  H  7997  8009       L1    11  0.94

> <Gold.Chemscore.Hbond.Weighted>
-3.2540

> <Gold.Chemscore.Metal.Weighted>
-0.0000

> <Gold.Chemscore.Lipo.Weighted>
-13.0533

> <Gold.Chemscore.Internal_Hbond.Weighted>
0.0000

> <Gold.Chemscore.DEClash.Weighted>
0.5535

> <Gold.Chemscore.DEInternal.Weighted>
3.8443

> <Gold.Chemscore.Rot.Weighted>
3.6309

> <Gold.Chemscore.Internal.Correction.Weighted>
   9.000000E+99

> <Gold.Protein.RotatedTorsions>
[ 6907 6896 6895 6894 ] final  -21.57 input  -60.11 | X-H torsion
[ 7974 7965 7964 7962 ] final -110.48 input  175.53 | X-H torsion
[ 8008 7997 7996 7995 ] final  143.59 input   59.86 | X-H torsion
[ 10167 10162 10161 10158 ] final   99.12 input  -65.29 | X-H torsion
[ 10718 10713 10712 10709 ] final   17.16 input   66.30 | X-H torsion
[ 10763 10752 10751 10750 ] final -135.40 input  -60.55 | X-H torsion
[ 11005 11000 10999 10996 ] final   63.89 input  -57.11 | X-H torsion

> <Gold.Protein.ActiveResidues>
 VAL166  LYS551  ARG553  GLY616  TRP617  ASP618  TYR619  PRO620  LYS621  CYS622 
 ASP623  PHE694  ASN695  SER759  ASP760  ASP761  ALA762  ILE779  LEU786  VAL792 
 PHE793  MET794  SER795  GLU796  ALA797  LYS798  CYS799  TRP800  GLU811  SER814 

> <Gold.Protein.RotatedAtoms>
  151.2313  135.0555  159.8988 H   0  0  0  0  0  0  0  0  0  0  0  0  # atno 6907 bound_to 6896
  152.5404  134.0534  159.8130 H   0  0  0  0  0  0  0  0  0  0  0  0  # atno 6908 bound_to 6896
  151.0714  133.5414  159.2658 H   0  0  0  0  0  0  0  0  0  0  0  0  # atno 6909 bound_to 6896
  145.1677  140.8910  143.3553 H   0  0  0  0  0  0  0  0  0  0  0  0  # atno 7974 bound_to 7965
  156.2927  140.2258  156.4915 H   0  0  0  0  0  0  0  0  0  0  0  0  # atno 8008 bound_to 7997
  154.7767  140.0463  157.1116 H   0  0  0  0  0  0  0  0  0  0  0  0  # atno 8009 bound_to 7997
  154.9808  140.3078  155.4950 H   0  0  0  0  0  0  0  0  0  0  0  0  # atno 8010 bound_to 7997
  139.7646  144.6943  151.0243 H   0  0  0  0  0  0  0  0  0  0  0  0  # atno 10167 bound_to 10162
  157.0781  130.6376  149.5820 H   0  0  0  0  0  0  0  0  0  0  0  0  # atno 10718 bound_to 10713
  154.8703  135.3704  154.4892 H   0  0  0  0  0  0  0  0  0  0  0  0  # atno 10763 bound_to 10752
  153.5540  135.7024  153.5583 H   0  0  0  0  0  0  0  0  0  0  0  0  # atno 10764 bound_to 10752
  153.3689  135.4027  155.1737 H   0  0  0  0  0  0  0  0  0  0  0  0  # atno 10765 bound_to 10752
  139.9994  134.6465  155.9955 H   0  0  0  0  0  0  0  0  0  0  0  0  # atno 11005 bound_to 11000
  145.0265  139.3378  143.6046 LP  0  0  0  0  0  0  0  0  0  0  0  0  # atno 17320 bound_to 7965
  146.3473  139.9586  142.8720 LP  0  0  0  0  0  0  0  0  0  0  0  0  # atno 17321 bound_to 7965
  140.7810  143.4657  151.0215 LP  0  0  0  0  0  0  0  0  0  0  0  0  # atno 17342 bound_to 10162
  139.8343  143.7649  152.3180 LP  0  0  0  0  0  0  0  0  0  0  0  0  # atno 17343 bound_to 10162
  155.9931  130.4991  150.7368 LP  0  0  0  0  0  0  0  0  0  0  0  0  # atno 17370 bound_to 10713
  157.4823  131.0903  151.0522 LP  0  0  0  0  0  0  0  0  0  0  0  0  # atno 17371 bound_to 10713
  141.1630  133.6538  156.4384 LP  0  0  0  0  0  0  0  0  0  0  0  0  # atno 17394 bound_to 11000
  140.4756  134.6713  157.5148 LP  0  0  0  0  0  0  0  0  0  0  0  0  # atno 17395 bound_to 11000

$$$$
