AV-unprocessed.smi:2684|AV-procd|sdf|10381|dock5
  -GOLD-   2272014413D 1   1.00000     0.00000
 Structure written by MMmdl.
 44 45  0  0  0  0  0  0  0  0  1 V2000
  143.9909  132.3859  149.3702 C   0  0  0  0  0  0  0  0  0  0  0  0
  144.9047  132.7145  150.5156 C   0  0  0  0  0  0  0  0  0  0  0  0
  144.5755  133.3760  151.7326 C   0  0  0  0  0  0  0  0  0  0  0  0
  145.6124  133.5066  152.5440 N   0  0  0  0  0  0  0  0  0  0  0  0
  146.6409  132.9484  151.8702 N   0  0  0  0  0  0  0  0  0  0  0  0
  147.9636  132.9052  152.4691 C   0  0  0  0  0  0  0  0  0  0  0  0
  147.9935  133.3177  153.9598 C   0  0  1  0  0  0  0  0  0  0  0  0
  148.1792  132.0858  154.8567 C   0  0  0  0  0  0  0  0  0  0  0  0
  149.1088  134.2192  154.2383 N   0  0  0  0  0  0  0  0  0  0  0  0
  149.2627  134.5144  155.6699 C   0  0  0  0  0  0  0  0  0  0  0  0
  150.1355  135.7485  155.9439 C   0  0  0  0  0  0  0  0  0  0  0  0
  151.3092  135.6160  156.2882 O   0  0  0  0  0  0  0  0  0  0  0  0
  149.5951  136.9713  155.8042 N   0  0  0  0  0  0  0  0  0  0  0  0
  150.2501  138.2612  156.0153 C   0  0  0  0  0  0  0  0  0  0  0  0
  151.5230  138.3703  155.1587 C   0  0  0  0  0  0  0  0  0  0  0  0
  152.2884  139.6610  155.4906 C   0  0  0  0  0  0  0  0  0  0  0  0
  152.5951  139.7017  156.8805 O   0  0  0  0  0  0  0  0  0  0  0  0
  151.4356  139.7138  157.7068 C   0  0  0  0  0  0  0  0  0  0  0  0
  150.6242  138.4246  157.4956 C   0  0  0  0  0  0  0  0  0  0  0  0
  146.2397  132.4554  150.6466 C   0  0  0  0  0  0  0  0  0  0  0  0
  143.0539  131.9491  149.7160 H   0  0  0  0  0  0  0  0  0  0  0  0
  144.4432  131.6717  148.6820 H   0  0  0  0  0  0  0  0  0  0  0  0
  143.7373  133.2729  148.7905 H   0  0  0  0  0  0  0  0  0  0  0  0
  143.6169  133.7591  152.0501 H   0  0  0  0  0  0  0  0  0  0  0  0
  148.3360  131.8857  152.3615 H   0  0  0  0  0  0  0  0  0  0  0  0
  148.6335  133.5377  151.8847 H   0  0  0  0  0  0  0  0  0  0  0  0
  147.0465  133.7810  154.2417 H   0  0  0  0  0  0  0  0  0  0  0  0
  147.3639  131.3751  154.7174 H   0  0  0  0  0  0  0  0  0  0  0  0
  148.1929  132.3635  155.9114 H   0  0  0  0  0  0  0  0  0  0  0  0
  149.1125  131.5661  154.6360 H   0  0  0  0  0  0  0  0  0  0  0  0
  149.0161  135.0596  153.6862 H   0  0  0  0  0  0  0  0  0  0  0  0
  148.2836  134.6700  156.1158 H   0  0  0  0  0  0  0  0  0  0  0  0
  149.7174  133.6578  156.1693 H   0  0  0  0  0  0  0  0  0  0  0  0
  148.6239  137.0091  155.5304 H   0  0  0  0  0  0  0  0  0  0  0  0
  149.5738  139.0773  155.7567 H   0  0  0  0  0  0  0  0  0  0  0  0
  152.1705  137.5123  155.3445 H   0  0  0  0  0  0  0  0  0  0  0  0
  151.2763  138.3474  154.0978 H   0  0  0  0  0  0  0  0  0  0  0  0
  153.2192  139.7004  154.9252 H   0  0  0  0  0  0  0  0  0  0  0  0
  151.7073  140.5401  155.2078 H   0  0  0  0  0  0  0  0  0  0  0  0
  151.7469  139.7940  158.7485 H   0  0  0  0  0  0  0  0  0  0  0  0
  150.8303  140.5948  157.4880 H   0  0  0  0  0  0  0  0  0  0  0  0
  149.7259  138.4433  158.1136 H   0  0  0  0  0  0  0  0  0  0  0  0
  151.2156  137.5701  157.8280 H   0  0  0  0  0  0  0  0  0  0  0  0
  146.9315  131.9678  149.9755 H   0  0  0  0  0  0  0  0  0  0  0  0
  1  2  1  0  0  0  0
  1 21  1  0  0  0  0
  1 22  1  0  0  0  0
  1 23  1  0  0  0  0
  2 20  2  0  0  0  0
  2  3  1  0  0  0  0
  3  4  2  0  0  0  0
  3 24  1  0  0  0  0
  4  5  1  0  0  0  0
  5  6  1  0  0  0  0
  5 20  1  0  0  0  0
  6  7  1  0  0  0  0
  6 25  1  0  0  0  0
  6 26  1  0  0  0  0
  7  8  1  0  0  0  0
  7  9  1  0  0  0  0
  7 27  1  0  0  0  0
  8 28  1  0  0  0  0
  8 29  1  0  0  0  0
  8 30  1  0  0  0  0
  9 10  1  0  0  0  0
  9 31  1  0  0  0  0
 10 11  1  0  0  0  0
 10 32  1  0  0  0  0
 10 33  1  0  0  0  0
 11 12  2  0  0  0  0
 11 13  1  0  0  0  0
 13 14  1  0  0  0  0
 13 34  1  0  0  0  0
 14 19  1  0  0  0  0
 14 15  1  0  0  0  0
 14 35  1  0  0  0  0
 15 16  1  0  0  0  0
 15 36  1  0  0  0  0
 15 37  1  0  0  0  0
 16 17  1  0  0  0  0
 16 38  1  0  0  0  0
 16 39  1  0  0  0  0
 17 18  1  0  0  0  0
 18 19  1  0  0  0  0
 18 40  1  0  0  0  0
 18 41  1  0  0  0  0
 19 42  1  0  0  0  0
 19 43  1  0  0  0  0
 20 44  1  0  0  0  0
M  END
> <s_m_source_file>
AV-unprocessed.smi

> <i_m_source_file_index>
2684

> <i_lp_mmshare_version>
43012

> <i_f3d_flags>
0

> <s_epik_input>
W0NIM11jMVtjSF1ubihbY0hdMSlbQ0gyXVtDQEhdKFtDSDNdKVtOSF1bQ0gyXUMoPU8pW05IXVtDSF0yW0NIMl1bQ0gyXU9bQ0gyXVtDSDJdMg==

> <s_epik_cmdline>
J2VwaWtfcHl0aG9uJywgJy1waCcsICc3LjAnLCAnLXRuJywgJzgnLCAnLW1hJywgJzIwMCcsICctbWV0YWxfYmluZGluZycsICctaW1hZScsICc8aW5maWxlLm1hZT4nLCAnLW9tYWUnLCAnPG91dGZpbGUubWFlPic=

> <r_lp_tautomer_probability>
1

> <r_epik_Ionization_Penalty>
0.968507

> <r_epik_Ionization_Penalty_Charging>
0

> <r_epik_Ionization_Penalty_Neutral>
0.968507

> <r_epik_State_Penalty>
1.01412

> <r_epik_Charging_Adjusted_Penalty>
1.01412

> <i_epik_Tot_Q>
0

> <i_epik_Tot_abs_Q>
0

> <r_epik_Metal_State_Penalty>
1.01401

> <b_epik_Metal_Only>
0

> <s_lp_Force_Field>
OPLS_2005

> <r_lp_Energy>
12.4601

> <b_lp_Chiralities_Consistent>
1

> <s_lp_Variant>
AV-unprocessed.smi:2684-4

> <Gold.Version>
5.8.1

> <Gold.Id.Protein>
6NUR|6NUR_protein|mol2

> <Gold.PLP.Fitness>
42.3290

> <Gold.PLP.PLP>
-32.8294

> <Gold.PLP.part.hbond>
-3.0000

> <Gold.PLP.part.metal>
0.0000

> <Gold.PLP.part.buried>
-2.3404

> <Gold.PLP.part.nonpolar>
-28.2300

> <Gold.PLP.part.repulsive>
0.1299

> <Gold.PLP.ligand.clash>
0.0000

> <Gold.PLP.ligand.torsion>
1.1257

> <Gold.PLP.Chemscore.Hbond>
3.0000

> <Gold.PLP.Chemscore.CHOScore>
0.9016

> <Gold.PLP.Chemscore.Metal>
0.0000

> <Gold.Chemscore.Hbonds>
donor molecule, donor type, donor heavy atom, donor atom, acceptor molecule, acceptor atom, score
      L1  H     9    31       P1  7948  0.73
      P1  H  7997  8008       L1    17  0.95
      P1  H 10752 10764       L1    12  0.42
      L1  C    20    44       P1 10747  1.00

> <Gold.PLP.Chemscore.Internal.Correction>
0.0463

> <Gold.Rescore>
     Score         DG    S(hbond)    S(metal)    S(lipo)     H(rot)  DE(clash)    DE(int)     intcor
     16.02     -18.40       2.46        0.00      83.55       1.97       0.40       1.98       ----

> <Gold.Chemscore.Fitness>
16.0213

> <Gold.Chemscore.DG>
-18.4036

> <Gold.Chemscore.ZeroCoef>
-5.4800

> <Gold.Chemscore.Hbond>
2.4554

> <Gold.Chemscore.Metal>
0.0000

> <Gold.Chemscore.Lipo>
83.5478

> <Gold.Chemscore.Internal_Hbond>
0.0000

> <Gold.Chemscore.DEClash>
0.3991

> <Gold.Chemscore.DEInternal>
1.9833

> <Gold.Chemscore.Rot>
1.9736

> <Gold.Chemscore.Internal.Correction>
   9.000000E+99

> <Gold.Chemscore.Hbonds>
donor molecule, donor type, donor heavy atom, donor atom, acceptor molecule, acceptor atom, score
      L1  H     9    31       P1  7948  0.32
      P1  H  7997  8008       L1    17  0.21
      P1  H 10752 10764       L1    12  0.39

> <Gold.Chemscore.Hbond.Weighted>
-8.2009

> <Gold.Chemscore.Metal.Weighted>
-0.0000

> <Gold.Chemscore.Lipo.Weighted>
-9.7751

> <Gold.Chemscore.Internal_Hbond.Weighted>
0.0000

> <Gold.Chemscore.DEClash.Weighted>
0.3991

> <Gold.Chemscore.DEInternal.Weighted>
1.9833

> <Gold.Chemscore.Rot.Weighted>
5.0523

> <Gold.Chemscore.Internal.Correction.Weighted>
   9.000000E+99

> <Gold.Protein.RotatedTorsions>
[ 6907 6896 6895 6894 ] final -148.93 input  -60.11 | X-H torsion
[ 7974 7965 7964 7962 ] final  -56.41 input  175.53 | X-H torsion
[ 8008 7997 7996 7995 ] final  -68.61 input   59.86 | X-H torsion
[ 10167 10162 10161 10158 ] final -161.04 input  -65.29 | X-H torsion
[ 10718 10713 10712 10709 ] final   27.68 input   66.30 | X-H torsion
[ 10763 10752 10751 10750 ] final  -51.22 input  -60.55 | X-H torsion
[ 11005 11000 10999 10996 ] final   43.03 input  -57.11 | X-H torsion

> <Gold.Protein.ActiveResidues>
 VAL166  LYS551  ARG553  GLY616  TRP617  ASP618  TYR619  PRO620  LYS621  CYS622 
 ASP623  PHE694  ASN695  SER759  ASP760  ASP761  ALA762  ILE779  LEU786  VAL792 
 PHE793  MET794  SER795  GLU796  ALA797  LYS798  CYS799  TRP800  GLU811  SER814 

> <Gold.Protein.RotatedAtoms>
  151.1769  133.4749  159.2593 H   0  0  0  0  0  0  0  0  0  0  0  0  # atno 6907 bound_to 6896
  151.1299  135.0124  159.8587 H   0  0  0  0  0  0  0  0  0  0  0  0  # atno 6908 bound_to 6896
  152.5459  134.1672  159.8635 H   0  0  0  0  0  0  0  0  0  0  0  0  # atno 6909 bound_to 6896
  145.8630  140.8271  142.9927 H   0  0  0  0  0  0  0  0  0  0  0  0  # atno 7974 bound_to 7965
  154.4880  140.0869  156.7530 H   0  0  0  0  0  0  0  0  0  0  0  0  # atno 8008 bound_to 7997
  155.4302  140.3449  155.4261 H   0  0  0  0  0  0  0  0  0  0  0  0  # atno 8009 bound_to 7997
  156.1289  140.1495  156.9083 H   0  0  0  0  0  0  0  0  0  0  0  0  # atno 8010 bound_to 7997
  139.6494  144.0111  152.2151 H   0  0  0  0  0  0  0  0  0  0  0  0  # atno 10167 bound_to 10162
  157.2234  130.6989  149.6280 H   0  0  0  0  0  0  0  0  0  0  0  0  # atno 10718 bound_to 10713
  154.1231  135.6531  153.4907 H   0  0  0  0  0  0  0  0  0  0  0  0  # atno 10763 bound_to 10752
  153.0219  135.5275  154.7077 H   0  0  0  0  0  0  0  0  0  0  0  0  # atno 10764 bound_to 10752
  154.6290  135.2974  155.0208 H   0  0  0  0  0  0  0  0  0  0  0  0  # atno 10765 bound_to 10752
  140.1683  134.4254  155.8273 H   0  0  0  0  0  0  0  0  0  0  0  0  # atno 11005 bound_to 11000
  144.6726  140.1124  143.7454 LP  0  0  0  0  0  0  0  0  0  0  0  0  # atno 17320 bound_to 7965
  145.9226  139.2555  143.1372 LP  0  0  0  0  0  0  0  0  0  0  0  0  # atno 17321 bound_to 7965
  139.9821  144.6421  150.7891 LP  0  0  0  0  0  0  0  0  0  0  0  0  # atno 17342 bound_to 10162
  140.7530  143.3001  151.3102 LP  0  0  0  0  0  0  0  0  0  0  0  0  # atno 17343 bound_to 10162
  155.9680  130.4512  150.5728 LP  0  0  0  0  0  0  0  0  0  0  0  0  # atno 17370 bound_to 10713
  157.3553  131.0740  151.1680 LP  0  0  0  0  0  0  0  0  0  0  0  0  # atno 17371 bound_to 10713
  141.2215  133.6944  156.7718 LP  0  0  0  0  0  0  0  0  0  0  0  0  # atno 17394 bound_to 11000
  140.2407  134.8615  157.3571 LP  0  0  0  0  0  0  0  0  0  0  0  0  # atno 17395 bound_to 11000

$$$$
