AV-unprocessed.smi:246|AV-procd|sdf|1881|dock4
  -GOLD-   2262020523D 1   1.00000     0.00000
 Structure written by MMmdl.
 57 60  0  0  0  0  0  0  0  0  1 V2000
  145.6591  132.0367  149.6981 C   0  0  0  0  0  0  0  0  0  0  0  0
  144.9243  133.2620  150.2584 C   0  0  0  0  0  0  0  0  0  0  0  0
  144.2170  132.9506  151.4504 O   0  0  0  0  0  0  0  0  0  0  0  0
  143.5827  134.0645  152.0620 C   0  0  0  0  0  0  0  0  0  0  0  0
  144.6101  134.8062  152.9217 C   0  0  0  0  0  0  0  0  0  0  0  0
  145.3000  135.7443  152.1097 O   0  0  0  0  0  0  0  0  0  0  0  0
  145.4795  137.0087  152.7296 C   0  0  2  0  0  0  0  0  0  0  0  0
  146.2210  137.9689  151.7989 C   0  0  0  0  0  0  0  0  0  0  0  0
  146.8892  138.9679  152.7500 C   0  0  0  0  0  0  0  0  0  0  0  0
  146.9889  138.2824  154.0307 N   0  0  0  0  0  0  0  0  0  0  0  0
  147.9250  138.6055  154.9598 C   0  0  0  0  0  0  0  0  0  0  0  0
  148.1937  137.7113  155.9482 N   0  0  0  0  0  0  0  0  0  0  0  0
  149.1029  137.9879  156.8868 C   0  0  0  0  0  0  0  0  0  0  0  0
  149.8428  139.0877  157.0315 N   0  0  0  0  0  0  0  0  0  0  0  0
  149.5726  139.9972  156.0522 C   0  0  0  0  0  0  0  0  0  0  0  0
  148.6404  139.8397  154.9858 C   0  0  0  0  0  0  0  0  0  0  0  0
  148.6422  140.9838  154.1944 N   0  0  0  0  0  0  0  0  0  0  0  0
  149.5243  141.7648  154.7543 C   0  0  0  0  0  0  0  0  0  0  0  0
  150.1162  141.2597  155.8890 N   0  0  0  0  0  0  0  0  0  0  0  0
  151.1227  141.9139  156.7078 C   0  0  0  0  0  0  0  0  0  0  0  0
  150.6239  142.2946  158.1208 C   0  0  2  0  0  0  0  0  0  0  0  0
  149.6746  143.3232  157.9284 O   0  0  0  0  0  0  0  0  0  0  0  0
  151.7013  142.8509  159.0799 C   0  0  2  0  0  0  0  0  0  0  0  0
  152.8894  141.9295  159.3714 C   0  0  0  0  0  0  0  0  0  0  0  0
  153.3729  142.3705  160.7434 C   0  0  0  0  0  0  0  0  0  0  0  0
  152.2139  143.2036  161.2906 C   0  0  0  0  0  0  0  0  0  0  0  0
  151.1462  142.9808  160.3813 O   0  0  0  0  0  0  0  0  0  0  0  0
  146.4019  136.9530  153.9506 C   0  0  0  0  0  0  0  0  0  0  0  0
  144.5198  137.4528  153.0014 H   0  0  0  0  0  0  0  0  0  0  0  0
  146.1142  132.2681  148.7351 H   0  0  0  0  0  0  0  0  0  0  0  0
  144.9710  131.2044  149.5486 H   0  0  0  0  0  0  0  0  0  0  0  0
  146.4546  131.7003  150.3623 H   0  0  0  0  0  0  0  0  0  0  0  0
  145.6107  134.0955  150.4153 H   0  0  0  0  0  0  0  0  0  0  0  0
  144.1930  133.5984  149.5233 H   0  0  0  0  0  0  0  0  0  0  0  0
  143.1501  134.7413  151.3251 H   0  0  0  0  0  0  0  0  0  0  0  0
  142.7702  133.7077  152.6966 H   0  0  0  0  0  0  0  0  0  0  0  0
  144.0974  135.3400  153.7232 H   0  0  0  0  0  0  0  0  0  0  0  0
  145.2957  134.0966  153.3869 H   0  0  0  0  0  0  0  0  0  0  0  0
  146.9909  137.4253  151.2493 H   0  0  0  0  0  0  0  0  0  0  0  0
  145.5660  138.4476  151.0705 H   0  0  0  0  0  0  0  0  0  0  0  0
  147.8644  139.2747  152.3700 H   0  0  0  0  0  0  0  0  0  0  0  0
  146.2704  139.8573  152.8727 H   0  0  0  0  0  0  0  0  0  0  0  0
  149.2568  137.2191  157.6295 H   0  0  0  0  0  0  0  0  0  0  0  0
  149.7609  142.7415  154.3575 H   0  0  0  0  0  0  0  0  0  0  0  0
  152.0044  141.2755  156.7770 H   0  0  0  0  0  0  0  0  0  0  0  0
  151.4346  142.8100  156.1691 H   0  0  0  0  0  0  0  0  0  0  0  0
  150.1160  141.4453  158.5792 H   0  0  0  0  0  0  0  0  0  0  0  0
  148.9845  142.9897  157.3752 H   0  0  0  0  0  0  0  0  0  0  0  0
  152.0651  143.8218  158.7368 H   0  0  0  0  0  0  0  0  0  0  0  0
  152.5597  140.8911  159.4232 H   0  0  0  0  0  0  0  0  0  0  0  0
  153.6730  142.0010  158.6176 H   0  0  0  0  0  0  0  0  0  0  0  0
  153.5871  141.5084  161.3763 H   0  0  0  0  0  0  0  0  0  0  0  0
  154.2796  142.9724  160.6744 H   0  0  0  0  0  0  0  0  0  0  0  0
  151.9330  142.9178  162.3046 H   0  0  0  0  0  0  0  0  0  0  0  0
  152.4697  144.2642  161.2928 H   0  0  0  0  0  0  0  0  0  0  0  0
  145.8562  136.6957  154.8591 H   0  0  0  0  0  0  0  0  0  0  0  0
  147.1939  136.2176  153.8013 H   0  0  0  0  0  0  0  0  0  0  0  0
  1  2  1  0  0  0  0
  1 30  1  0  0  0  0
  1 31  1  0  0  0  0
  1 32  1  0  0  0  0
  2  3  1  0  0  0  0
  2 33  1  0  0  0  0
  2 34  1  0  0  0  0
  3  4  1  0  0  0  0
  4  5  1  0  0  0  0
  4 35  1  0  0  0  0
  4 36  1  0  0  0  0
  5  6  1  0  0  0  0
  5 37  1  0  0  0  0
  5 38  1  0  0  0  0
  6  7  1  0  0  0  0
  7 29  1  0  0  0  0
  7 28  1  0  0  0  0
  7  8  1  0  0  0  0
  8  9  1  0  0  0  0
  8 39  1  0  0  0  0
  8 40  1  0  0  0  0
  9 10  1  0  0  0  0
  9 41  1  0  0  0  0
  9 42  1  0  0  0  0
 10 11  1  0  0  0  0
 10 28  1  0  0  0  0
 11 16  1  0  0  0  0
 11 12  2  0  0  0  0
 12 13  1  0  0  0  0
 13 14  2  0  0  0  0
 13 43  1  0  0  0  0
 14 15  1  0  0  0  0
 15 19  1  0  0  0  0
 15 16  2  0  0  0  0
 16 17  1  0  0  0  0
 17 18  2  0  0  0  0
 18 19  1  0  0  0  0
 18 44  1  0  0  0  0
 19 20  1  0  0  0  0
 20 21  1  0  0  0  0
 20 45  1  0  0  0  0
 20 46  1  0  0  0  0
 21 22  1  0  0  0  0
 21 23  1  0  0  0  0
 21 47  1  0  0  0  0
 22 48  1  0  0  0  0
 23 27  1  0  0  0  0
 23 24  1  0  0  0  0
 23 49  1  0  0  0  0
 24 25  1  0  0  0  0
 24 50  1  0  0  0  0
 24 51  1  0  0  0  0
 25 26  1  0  0  0  0
 25 52  1  0  0  0  0
 25 53  1  0  0  0  0
 26 27  1  0  0  0  0
 26 54  1  0  0  0  0
 26 55  1  0  0  0  0
 28 56  1  0  0  0  0
 28 57  1  0  0  0  0
M  END
> <s_m_source_file>
AV-unprocessed.smi

> <i_m_source_file_index>
246

> <i_lp_mmshare_version>
43012

> <i_f3d_flags>
0

> <s_epik_input>
W0NIM11bQ0gyXU9bQ0gyXVtDSDJdT1tDQEhdMVtDSDJdW0NIMl1OKFtDSDJdMSljKG5bY0hdbjIpYyhjMjMpbltjSF1uM1tDSDJdW0NASF0oW09IXSlbQ0BASF00W0NIMl1bQ0gyXVtDSDJdTzQ=

> <s_epik_cmdline>
J2VwaWtfcHl0aG9uJywgJy1waCcsICc3LjAnLCAnLXRuJywgJzgnLCAnLW1hJywgJzIwMCcsICctbWV0YWxfYmluZGluZycsICctaW1hZScsICc8aW5maWxlLm1hZT4nLCAnLW9tYWUnLCAnPG91dGZpbGUubWFlPic=

> <r_lp_tautomer_probability>
1

> <r_epik_Ionization_Penalty>
0.0024631

> <r_epik_Ionization_Penalty_Charging>
0

> <r_epik_Ionization_Penalty_Neutral>
0.0024631

> <r_epik_State_Penalty>
0.00162428

> <r_epik_Charging_Adjusted_Penalty>
0.00162428

> <i_epik_Tot_Q>
0

> <i_epik_Tot_abs_Q>
0

> <r_epik_Metal_State_Penalty>
-0

> <b_epik_Metal_Only>
0

> <s_lp_Force_Field>
OPLS_2005

> <r_lp_Energy>
52.7106

> <b_lp_Chiralities_Consistent>
1

> <s_lp_Variant>
AV-unprocessed.smi:246-2

> <Gold.Version>
5.8.1

> <Gold.Id.Protein>
6NUR|6NUR_protein|mol2

> <Gold.PLP.Fitness>
45.3893

> <Gold.PLP.PLP>
-44.2825

> <Gold.PLP.part.hbond>
-2.4013

> <Gold.PLP.part.metal>
0.0000

> <Gold.PLP.part.buried>
-3.3328

> <Gold.PLP.part.nonpolar>
-38.2916

> <Gold.PLP.part.repulsive>
0.5293

> <Gold.PLP.ligand.clash>
0.0000

> <Gold.PLP.ligand.torsion>
0.8275

> <Gold.PLP.Chemscore.Hbond>
0.0003

> <Gold.PLP.Chemscore.CHOScore>
0.7495

> <Gold.PLP.Chemscore.Metal>
0.0000

> <Gold.Chemscore.Hbonds>
donor molecule, donor type, donor heavy atom, donor atom, acceptor molecule, acceptor atom, score
      L1  C    18    44       P1  8028  0.74

> <Gold.PLP.Chemscore.Internal.Correction>
0.5127

> <Gold.Rescore>
     Score         DG    S(hbond)    S(metal)    S(lipo)     H(rot)  DE(clash)    DE(int)     intcor
      9.07     -11.07       0.00        0.00     115.63       3.10       0.37       1.63       ----

> <Gold.Chemscore.Fitness>
9.0664

> <Gold.Chemscore.DG>
-11.0664

> <Gold.Chemscore.ZeroCoef>
-5.4800

> <Gold.Chemscore.Hbond>
0.0000

> <Gold.Chemscore.Metal>
0.0000

> <Gold.Chemscore.Lipo>
115.6331

> <Gold.Chemscore.Internal_Hbond>
0.0000

> <Gold.Chemscore.DEClash>
0.3727

> <Gold.Chemscore.DEInternal>
1.6274

> <Gold.Chemscore.Rot>
3.1026

> <Gold.Chemscore.Internal.Correction>
   9.000000E+99

> <Gold.Chemscore.Hbond.Weighted>
-0.0000

> <Gold.Chemscore.Metal.Weighted>
-0.0000

> <Gold.Chemscore.Lipo.Weighted>
-13.5291

> <Gold.Chemscore.Internal_Hbond.Weighted>
0.0000

> <Gold.Chemscore.DEClash.Weighted>
0.3727

> <Gold.Chemscore.DEInternal.Weighted>
1.6274

> <Gold.Chemscore.Rot.Weighted>
7.9426

> <Gold.Chemscore.Internal.Correction.Weighted>
   9.000000E+99

> <Gold.Protein.RotatedTorsions>
[ 6907 6896 6895 6894 ] final  -20.77 input  -60.11 | X-H torsion
[ 7974 7965 7964 7962 ] final -136.36 input  175.53 | X-H torsion
[ 8008 7997 7996 7995 ] final   53.95 input   59.86 | X-H torsion
[ 10167 10162 10161 10158 ] final   84.71 input  -65.29 | X-H torsion
[ 10718 10713 10712 10709 ] final  123.75 input   66.30 | X-H torsion
[ 10763 10752 10751 10750 ] final  144.46 input  -60.55 | X-H torsion
[ 11005 11000 10999 10996 ] final -101.15 input  -57.11 | X-H torsion

> <Gold.Protein.ActiveResidues>
 VAL166  LYS551  ARG553  GLY616  TRP617  ASP618  TYR619  PRO620  LYS621  CYS622 
 ASP623  PHE694  ASN695  SER759  ASP760  ASP761  ALA762  ILE779  LEU786  VAL792 
 PHE793  MET794  SER795  GLU796  ALA797  LYS798  CYS799  TRP800  GLU811  SER814 

> <Gold.Protein.RotatedAtoms>
  151.2432  135.0596  159.9032 H   0  0  0  0  0  0  0  0  0  0  0  0  # atno 6907 bound_to 6896
  152.5390  134.0412  159.8078 H   0  0  0  0  0  0  0  0  0  0  0  0  # atno 6908 bound_to 6896
  151.0608  133.5496  159.2666 H   0  0  0  0  0  0  0  0  0  0  0  0  # atno 6909 bound_to 6896
  144.8934  140.6673  143.5131 H   0  0  0  0  0  0  0  0  0  0  0  0  # atno 7974 bound_to 7965
  155.4767  140.3467  155.4333 H   0  0  0  0  0  0  0  0  0  0  0  0  # atno 8008 bound_to 7997
  156.1065  140.1449  156.9425 H   0  0  0  0  0  0  0  0  0  0  0  0  # atno 8009 bound_to 7997
  154.4728  140.0895  156.7165 H   0  0  0  0  0  0  0  0  0  0  0  0  # atno 8010 bound_to 7997
  139.9053  144.6305  150.8594 H   0  0  0  0  0  0  0  0  0  0  0  0  # atno 10167 bound_to 10162
  157.5640  131.1088  150.8488 H   0  0  0  0  0  0  0  0  0  0  0  0  # atno 10718 bound_to 10713
  153.9893  135.2934  155.3413 H   0  0  0  0  0  0  0  0  0  0  0  0  # atno 10763 bound_to 10752
  154.7224  135.5103  153.8836 H   0  0  0  0  0  0  0  0  0  0  0  0  # atno 10764 bound_to 10752
  153.0817  135.6681  154.0147 H   0  0  0  0  0  0  0  0  0  0  0  0  # atno 10765 bound_to 10752
  141.1242  133.8455  157.1195 H   0  0  0  0  0  0  0  0  0  0  0  0  # atno 11005 bound_to 11000
  145.3743  139.1651  143.4315 LP  0  0  0  0  0  0  0  0  0  0  0  0  # atno 17320 bound_to 7965
  146.3067  140.3817  142.8685 LP  0  0  0  0  0  0  0  0  0  0  0  0  # atno 17321 bound_to 7965
  140.7698  143.3406  151.2216 LP  0  0  0  0  0  0  0  0  0  0  0  0  # atno 17342 bound_to 10162
  139.6990  143.9565  152.2896 LP  0  0  0  0  0  0  0  0  0  0  0  0  # atno 17343 bound_to 10162
  156.8978  130.5236  149.5284 LP  0  0  0  0  0  0  0  0  0  0  0  0  # atno 17370 bound_to 10713
  156.0690  130.5727  150.9345 LP  0  0  0  0  0  0  0  0  0  0  0  0  # atno 17371 bound_to 10713
  140.0226  134.9939  157.0622 LP  0  0  0  0  0  0  0  0  0  0  0  0  # atno 17394 bound_to 11000
  140.4415  134.1676  155.7174 LP  0  0  0  0  0  0  0  0  0  0  0  0  # atno 17395 bound_to 11000

$$$$
