AV-unprocessed.smi:2879|AV-procd|sdf|11049|dock3
  -GOLD-   2272015513D 1   1.00000     0.00000
 Structure written by MMmdl.
 44 45  0  0  0  0  0  0  0  0  1 V2000
  146.5589  143.3391  153.5079 C   0  0  0  0  0  0  0  0  0  0  0  0
  147.7163  142.4357  153.7646 C   0  0  0  0  0  0  0  0  0  0  0  0
  147.8283  141.0744  153.7250 C   0  0  0  0  0  0  0  0  0  0  0  0
  149.1907  140.8215  154.0637 C   0  0  0  0  0  0  0  0  0  0  0  0
  149.8879  139.4905  154.1685 C   0  0  0  0  0  0  0  0  0  0  0  0
  151.0646  139.5810  155.1421 C   0  0  0  0  0  0  0  0  0  0  0  0
  152.2179  139.4523  154.7315 O   0  0  0  0  0  0  0  0  0  0  0  0
  150.7598  139.7992  156.4296 N   0  0  0  0  0  0  0  0  0  0  0  0
  151.7349  139.9520  157.5007 C   0  0  0  0  0  0  0  0  0  0  0  0
  151.4618  141.2195  158.3329 C   0  0  0  0  0  0  0  0  0  0  0  0
  151.0206  142.4151  157.4622 C   0  0  0  0  0  0  0  0  0  0  0  0
  150.7704  143.6763  158.3089 C   0  0  0  0  0  0  0  0  0  0  0  0
  151.9826  144.0838  159.1816 C   0  0  0  0  0  0  0  0  0  0  0  0
  153.1364  144.6196  158.3062 C   0  0  0  0  0  0  0  0  0  0  0  0
  151.5520  145.2112  160.1399 C   0  0  0  0  0  0  0  0  0  0  0  0
  152.4426  142.8640  160.0169 C   0  0  0  0  0  0  0  0  0  0  0  0
  152.6954  141.6037  159.1700 C   0  0  0  0  0  0  0  0  0  0  0  0
  149.8668  141.9382  154.3006 N   0  0  0  0  0  0  0  0  0  0  0  0
  148.9585  142.9135  154.1127 N   0  0  0  0  0  0  0  0  0  0  0  0
  149.1968  143.8887  154.2252 H   0  0  0  0  0  0  0  0  0  0  0  0
  145.6927  142.7742  153.1624 H   0  0  0  0  0  0  0  0  0  0  0  0
  146.8046  144.0774  152.7444 H   0  0  0  0  0  0  0  0  0  0  0  0
  146.2740  143.8712  154.4158 H   0  0  0  0  0  0  0  0  0  0  0  0
  147.0533  140.3615  153.4850 H   0  0  0  0  0  0  0  0  0  0  0  0
  149.2019  138.7127  154.5073 H   0  0  0  0  0  0  0  0  0  0  0  0
  150.2510  139.1771  153.1888 H   0  0  0  0  0  0  0  0  0  0  0  0
  149.7855  139.8953  156.6778 H   0  0  0  0  0  0  0  0  0  0  0  0
  151.6923  139.0681  158.1388 H   0  0  0  0  0  0  0  0  0  0  0  0
  152.7406  139.9926  157.0785 H   0  0  0  0  0  0  0  0  0  0  0  0
  150.6504  140.9926  159.0265 H   0  0  0  0  0  0  0  0  0  0  0  0
  151.7738  142.6182  156.7008 H   0  0  0  0  0  0  0  0  0  0  0  0
  150.1063  142.1713  156.9204 H   0  0  0  0  0  0  0  0  0  0  0  0
  150.4821  144.5021  157.6575 H   0  0  0  0  0  0  0  0  0  0  0  0
  149.9090  143.4897  158.9520 H   0  0  0  0  0  0  0  0  0  0  0  0
  153.9853  144.9265  158.9181 H   0  0  0  0  0  0  0  0  0  0  0  0
  152.8209  145.4888  157.7280 H   0  0  0  0  0  0  0  0  0  0  0  0
  153.5025  143.8782  157.5975 H   0  0  0  0  0  0  0  0  0  0  0  0
  152.3761  145.5232  160.7824 H   0  0  0  0  0  0  0  0  0  0  0  0
  150.7342  144.8950  160.7886 H   0  0  0  0  0  0  0  0  0  0  0  0
  151.2121  146.0905  159.5914 H   0  0  0  0  0  0  0  0  0  0  0  0
  153.3430  143.1122  160.5802 H   0  0  0  0  0  0  0  0  0  0  0  0
  151.6807  142.6276  160.7612 H   0  0  0  0  0  0  0  0  0  0  0  0
  152.9636  140.7781  159.8299 H   0  0  0  0  0  0  0  0  0  0  0  0
  153.5556  141.7572  158.5180 H   0  0  0  0  0  0  0  0  0  0  0  0
  1  2  1  0  0  0  0
  1 21  1  0  0  0  0
  1 22  1  0  0  0  0
  1 23  1  0  0  0  0
  2 19  1  0  0  0  0
  2  3  2  0  0  0  0
  3  4  1  0  0  0  0
  3 24  1  0  0  0  0
  4  5  1  0  0  0  0
  4 18  2  0  0  0  0
  5  6  1  0  0  0  0
  5 25  1  0  0  0  0
  5 26  1  0  0  0  0
  6  7  2  0  0  0  0
  6  8  1  0  0  0  0
  8  9  1  0  0  0  0
  8 27  1  0  0  0  0
  9 10  1  0  0  0  0
  9 28  1  0  0  0  0
  9 29  1  0  0  0  0
 10 17  1  0  0  0  0
 10 11  1  0  0  0  0
 10 30  1  0  0  0  0
 11 12  1  0  0  0  0
 11 31  1  0  0  0  0
 11 32  1  0  0  0  0
 12 13  1  0  0  0  0
 12 33  1  0  0  0  0
 12 34  1  0  0  0  0
 13 14  1  0  0  0  0
 13 15  1  0  0  0  0
 13 16  1  0  0  0  0
 14 35  1  0  0  0  0
 14 36  1  0  0  0  0
 14 37  1  0  0  0  0
 15 38  1  0  0  0  0
 15 39  1  0  0  0  0
 15 40  1  0  0  0  0
 16 17  1  0  0  0  0
 16 41  1  0  0  0  0
 16 42  1  0  0  0  0
 17 43  1  0  0  0  0
 17 44  1  0  0  0  0
 18 19  1  0  0  0  0
 19 20  1  0  0  0  0
M  END
> <s_m_source_file>
AV-unprocessed.smi

> <i_m_source_file_index>
2879

> <i_lp_mmshare_version>
43012

> <i_f3d_flags>
0

> <s_epik_input>
W0NIM11jMVtjSF1jKG5bbkhdMSlbQ0gyXUMoPU8pW05IXVtDSDJdW0NIXShbQ0gyXVtDSDJdMilbQ0gyXVtDSDJdQzIoW0NIM10pW0NIM10=

> <s_epik_cmdline>
J2VwaWtfcHl0aG9uJywgJy1waCcsICc3LjAnLCAnLXRuJywgJzgnLCAnLW1hJywgJzIwMCcsICctbWV0YWxfYmluZGluZycsICctaW1hZScsICc8aW5maWxlLm1hZT4nLCAnLW9tYWUnLCAnPG91dGZpbGUubWFlPic=

> <r_lp_tautomer_probability>
0.5

> <r_epik_Ionization_Penalty>
7.93509e-05

> <r_epik_Ionization_Penalty_Charging>
0

> <r_epik_Ionization_Penalty_Neutral>
7.93509e-05

> <r_epik_State_Penalty>
0.41068

> <r_epik_Charging_Adjusted_Penalty>
0.41068

> <i_epik_Tot_Q>
0

> <i_epik_Tot_abs_Q>
0

> <r_epik_Metal_State_Penalty>
0.4107

> <b_epik_Metal_Only>
0

> <s_lp_Force_Field>
OPLS_2005

> <r_lp_Energy>
12.5825

> <b_lp_Chiralities_Consistent>
1

> <s_lp_Variant>
AV-unprocessed.smi:2879-1

> <Gold.Version>
5.8.1

> <Gold.Id.Protein>
6NUR|6NUR_protein|mol2

> <Gold.PLP.Fitness>
52.2283

> <Gold.PLP.PLP>
-48.1922

> <Gold.PLP.part.hbond>
-3.4056

> <Gold.PLP.part.metal>
0.0000

> <Gold.PLP.part.buried>
-7.7182

> <Gold.PLP.part.nonpolar>
-40.1649

> <Gold.PLP.part.repulsive>
1.5369

> <Gold.PLP.ligand.clash>
0.0000

> <Gold.PLP.ligand.torsion>
0.6114

> <Gold.PLP.Chemscore.Hbond>
1.7459

> <Gold.PLP.Chemscore.CHOScore>
0.0000

> <Gold.PLP.Chemscore.Metal>
0.0000

> <Gold.Chemscore.Hbonds>
donor molecule, donor type, donor heavy atom, donor atom, acceptor molecule, acceptor atom, score
      L1  H    19    20       P1  8028  0.46
      P1  H  7989  7998       L1     7  0.12

> <Gold.PLP.Chemscore.Internal.Correction>
0.0213

> <Gold.Rescore>
     Score         DG    S(hbond)    S(metal)    S(lipo)     H(rot)  DE(clash)    DE(int)     intcor
     18.54     -19.09       1.28        0.00     113.72       1.55       0.15       0.41       ----

> <Gold.Chemscore.Fitness>
18.5366

> <Gold.Chemscore.DG>
-19.0916

> <Gold.Chemscore.ZeroCoef>
-5.4800

> <Gold.Chemscore.Hbond>
1.2788

> <Gold.Chemscore.Metal>
0.0000

> <Gold.Chemscore.Lipo>
113.7227

> <Gold.Chemscore.Internal_Hbond>
0.0000

> <Gold.Chemscore.DEClash>
0.1468

> <Gold.Chemscore.DEInternal>
0.4082

> <Gold.Chemscore.Rot>
1.5489

> <Gold.Chemscore.Internal.Correction>
   9.000000E+99

> <Gold.Chemscore.Hbonds>
donor molecule, donor type, donor heavy atom, donor atom, acceptor molecule, acceptor atom, score
      L1  H    19    20       P1  8028  0.46

> <Gold.Chemscore.Hbond.Weighted>
-4.2712

> <Gold.Chemscore.Metal.Weighted>
-0.0000

> <Gold.Chemscore.Lipo.Weighted>
-13.3056

> <Gold.Chemscore.Internal_Hbond.Weighted>
0.0000

> <Gold.Chemscore.DEClash.Weighted>
0.1468

> <Gold.Chemscore.DEInternal.Weighted>
0.4082

> <Gold.Chemscore.Rot.Weighted>
3.9652

> <Gold.Chemscore.Internal.Correction.Weighted>
   9.000000E+99

> <Gold.Protein.RotatedTorsions>
[ 6907 6896 6895 6894 ] final  -77.05 input  -60.11 | X-H torsion
[ 7974 7965 7964 7962 ] final  -79.21 input  175.53 | X-H torsion
[ 8008 7997 7996 7995 ] final  110.48 input   59.86 | X-H torsion
[ 10167 10162 10161 10158 ] final  167.56 input  -65.29 | X-H torsion
[ 10718 10713 10712 10709 ] final -119.13 input   66.30 | X-H torsion
[ 10763 10752 10751 10750 ] final  -91.63 input  -60.55 | X-H torsion
[ 11005 11000 10999 10996 ] final -176.46 input  -57.11 | X-H torsion

> <Gold.Protein.ActiveResidues>
 VAL166  LYS551  ARG553  GLY616  TRP617  ASP618  TYR619  PRO620  LYS621  CYS622 
 ASP623  PHE694  ASN695  SER759  ASP760  ASP761  ALA762  ILE779  LEU786  VAL792 
 PHE793  MET794  SER795  GLU796  ALA797  LYS798  CYS799  TRP800  GLU811  SER814 

> <Gold.Protein.RotatedAtoms>
  150.7010  134.4481  159.5323 H   0  0  0  0  0  0  0  0  0  0  0  0  # atno 6907 bound_to 6896
  152.2178  134.8438  160.0499 H   0  0  0  0  0  0  0  0  0  0  0  0  # atno 6908 bound_to 6896
  151.9300  133.3573  159.3964 H   0  0  0  0  0  0  0  0  0  0  0  0  # atno 6909 bound_to 6896
  145.5763  140.9457  143.1368 H   0  0  0  0  0  0  0  0  0  0  0  0  # atno 7974 bound_to 7965
  156.2056  140.3038  155.9619 H   0  0  0  0  0  0  0  0  0  0  0  0  # atno 8008 bound_to 7997
  155.2850  140.0439  157.3035 H   0  0  0  0  0  0  0  0  0  0  0  0  # atno 8009 bound_to 7997
  154.5628  140.2325  155.8317 H   0  0  0  0  0  0  0  0  0  0  0  0  # atno 8010 bound_to 7997
  139.4948  144.3909  151.9518 H   0  0  0  0  0  0  0  0  0  0  0  0  # atno 10167 bound_to 10162
  156.1158  130.6285  150.9378 H   0  0  0  0  0  0  0  0  0  0  0  0  # atno 10718 bound_to 10713
  154.6780  135.5261  153.8225 H   0  0  0  0  0  0  0  0  0  0  0  0  # atno 10763 bound_to 10752
  153.0545  135.6545  154.0620 H   0  0  0  0  0  0  0  0  0  0  0  0  # atno 10764 bound_to 10752
  154.0511  135.2969  155.3320 H   0  0  0  0  0  0  0  0  0  0  0  0  # atno 10765 bound_to 10752
  140.4518  134.6336  157.4804 H   0  0  0  0  0  0  0  0  0  0  0  0  # atno 11005 bound_to 11000
  144.7414  139.7437  143.7309 LP  0  0  0  0  0  0  0  0  0  0  0  0  # atno 17320 bound_to 7965
  146.1748  139.4914  142.9904 LP  0  0  0  0  0  0  0  0  0  0  0  0  # atno 17321 bound_to 7965
  140.3346  144.3275  150.5980 LP  0  0  0  0  0  0  0  0  0  0  0  0  # atno 17342 bound_to 10162
  140.5616  143.2191  151.7755 LP  0  0  0  0  0  0  0  0  0  0  0  0  # atno 17343 bound_to 10162
  157.6341  131.0918  150.8383 LP  0  0  0  0  0  0  0  0  0  0  0  0  # atno 17370 bound_to 10713
  156.8486  130.5072  149.5314 LP  0  0  0  0  0  0  0  0  0  0  0  0  # atno 17371 bound_to 10713
  140.0002  134.6849  155.9543 LP  0  0  0  0  0  0  0  0  0  0  0  0  # atno 17394 bound_to 11000
  141.1660  133.6537  156.4483 LP  0  0  0  0  0  0  0  0  0  0  0  0  # atno 17395 bound_to 11000

$$$$
