AV-unprocessed.smi:693|AV-procd|sdf|3375|dock7
  -GOLD-   22720 0353D 1   1.00000     0.00000
 Structure written by MMmdl.
 47 48  0  0  0  0  0  0  0  0  2 V2000
  152.0125  144.7665  158.5583 C   0  0  0  0  0  0  0  0  0  0  0  0
  151.6187  143.3355  158.2586 C   0  0  0  0  0  0  0  0  0  0  0  0
  152.2279  142.2424  158.9105 C   0  0  0  0  0  0  0  0  0  0  0  0
  151.8165  140.9318  158.5895 C   0  0  0  0  0  0  0  0  0  0  0  0
  150.8046  140.7414  157.6232 C   0  0  0  0  0  0  0  0  0  0  0  0
  150.3299  139.3479  157.2611 C   0  0  0  0  0  0  0  0  0  0  0  0
  150.5037  139.0516  155.7627 C   0  0  0  0  0  0  0  0  0  0  0  0
  149.2501  139.2086  155.0345 N   0  0  0  0  0  0  0  0  0  0  0  0
  148.3463  138.2338  154.8349 C   0  0  0  0  0  0  0  0  0  0  0  0
  148.5017  137.0989  155.2888 O   0  0  0  0  0  0  0  0  0  0  0  0
  147.2507  138.6077  154.1263 N   0  0  0  0  0  0  0  0  0  0  0  0
  147.0786  139.8707  153.3906 C   0  0  0  0  0  0  0  0  0  0  0  0
  147.2335  139.5829  151.8882 C   0  0  0  0  0  0  0  0  0  0  0  0
  146.2388  138.5011  151.4256 C   0  0  0  0  0  0  0  0  0  0  0  0
  146.2747  137.2415  152.3283 C   0  0  2  0  0  0  0  0  0  0  0  0
  145.1838  136.2025  151.9817 C   0  0  0  0  0  0  0  0  0  0  0  0
  145.3653  135.5463  150.6088 C   0  0  0  0  0  0  0  0  0  0  0  0
  145.1831  136.3209  149.5363 N   0  0  0  0  0  0  0  0  0  0  0  0
  145.6877  134.3641  150.5148 O   0  0  0  0  0  0  0  0  0  0  0  0
  146.1715  137.6627  153.8118 C   0  0  0  0  0  0  0  0  0  0  0  0
  150.2320  141.8722  157.0026 C   0  0  0  0  0  0  0  0  0  0  0  0
  150.6545  143.1110  157.3374 N   0  3  0  0  0  0  0  0  0  0  0  0
  151.9945  144.9471  159.6334 H   0  0  0  0  0  0  0  0  0  0  0  0
  151.3320  145.4744  158.0836 H   0  0  0  0  0  0  0  0  0  0  0  0
  153.0210  144.9639  158.1943 H   0  0  0  0  0  0  0  0  0  0  0  0
  153.0001  142.4051  159.6486 H   0  0  0  0  0  0  0  0  0  0  0  0
  152.2715  140.0850  159.0825 H   0  0  0  0  0  0  0  0  0  0  0  0
  150.8857  138.6238  157.8586 H   0  0  0  0  0  0  0  0  0  0  0  0
  149.2821  139.2404  157.5456 H   0  0  0  0  0  0  0  0  0  0  0  0
  151.2380  139.7321  155.3302 H   0  0  0  0  0  0  0  0  0  0  0  0
  150.8922  138.0424  155.6150 H   0  0  0  0  0  0  0  0  0  0  0  0
  149.0571  140.1192  154.6431 H   0  0  0  0  0  0  0  0  0  0  0  0
  146.0835  140.2706  153.5914 H   0  0  0  0  0  0  0  0  0  0  0  0
  147.7701  140.6575  153.6911 H   0  0  0  0  0  0  0  0  0  0  0  0
  147.0829  140.4969  151.3131 H   0  0  0  0  0  0  0  0  0  0  0  0
  148.2532  139.2534  151.6837 H   0  0  0  0  0  0  0  0  0  0  0  0
  145.2317  138.9200  151.4344 H   0  0  0  0  0  0  0  0  0  0  0  0
  146.4552  138.2431  150.3891 H   0  0  0  0  0  0  0  0  0  0  0  0
  147.2460  136.7618  152.1932 H   0  0  0  0  0  0  0  0  0  0  0  0
  145.1691  135.4197  152.7417 H   0  0  0  0  0  0  0  0  0  0  0  0
  144.1994  136.6709  152.0163 H   0  0  0  0  0  0  0  0  0  0  0  0
  145.2932  135.9346  148.6100 H   0  0  0  0  0  0  0  0  0  0  0  0
  144.9371  137.2928  149.6565 H   0  0  0  0  0  0  0  0  0  0  0  0
  146.1937  136.7834  154.4576 H   0  0  0  0  0  0  0  0  0  0  0  0
  145.2079  138.1379  154.0023 H   0  0  0  0  0  0  0  0  0  0  0  0
  149.4519  141.8243  156.2566 H   0  0  0  0  0  0  0  0  0  0  0  0
  150.2252  143.9128  156.8751 H   0  0  0  0  0  0  0  0  0  0  0  0
  1  2  1  0  0  0  0
  1 23  1  0  0  0  0
  1 24  1  0  0  0  0
  1 25  1  0  0  0  0
  2 22  1  0  0  0  0
  2  3  2  0  0  0  0
  3  4  1  0  0  0  0
  3 26  1  0  0  0  0
  4  5  2  0  0  0  0
  4 27  1  0  0  0  0
  5  6  1  0  0  0  0
  5 21  1  0  0  0  0
  6  7  1  0  0  0  0
  6 28  1  0  0  0  0
  6 29  1  0  0  0  0
  7  8  1  0  0  0  0
  7 30  1  0  0  0  0
  7 31  1  0  0  0  0
  8  9  1  0  0  0  0
  8 32  1  0  0  0  0
  9 10  2  0  0  0  0
  9 11  1  0  0  0  0
 11 20  1  0  0  0  0
 11 12  1  0  0  0  0
 12 13  1  0  0  0  0
 12 33  1  0  0  0  0
 12 34  1  0  0  0  0
 13 14  1  0  0  0  0
 13 35  1  0  0  0  0
 13 36  1  0  0  0  0
 14 15  1  0  0  0  0
 14 37  1  0  0  0  0
 14 38  1  0  0  0  0
 15 16  1  0  0  0  0
 15 20  1  0  0  0  0
 15 39  1  0  0  0  0
 16 17  1  0  0  0  0
 16 40  1  0  0  0  0
 16 41  1  0  0  0  0
 17 18  1  0  0  0  0
 17 19  2  0  0  0  0
 18 42  1  0  0  0  0
 18 43  1  0  0  0  0
 20 44  1  0  0  0  0
 20 45  1  0  0  0  0
 21 22  2  0  0  0  0
 21 46  1  0  0  0  0
 22 47  1  0  0  0  0
M  CHG  1  22   1
M  END
> <s_m_source_file>
AV-unprocessed.smi

> <i_m_source_file_index>
693

> <i_lp_mmshare_version>
43012

> <i_f3d_flags>
0

> <s_epik_input>
W0NIM11jMVtjSF1bY0hdYyhbY0hdbjEpW0NIMl1bQ0gyXVtOSF1DKD1PKU4yW0NIMl1bQ0gyXVtDSDJdW0NASF0oW0NIMl0yKVtDSDJdQyg9TylbTkgyXQ==

> <s_epik_cmdline>
J2VwaWtfcHl0aG9uJywgJy1waCcsICc3LjAnLCAnLXRuJywgJzgnLCAnLW1hJywgJzIwMCcsICctbWV0YWxfYmluZGluZycsICctaW1hZScsICc8aW5maWxlLm1hZT4nLCAnLW9tYWUnLCAnPG91dGZpbGUubWFlPic=

> <r_epik_Ionization_Penalty>
1.41666

> <r_epik_Ionization_Penalty_Charging>
1.4166

> <r_epik_Ionization_Penalty_Neutral>
5.77403e-05

> <r_epik_State_Penalty>
1.50002

> <r_epik_Charging_Adjusted_Penalty>
2.91662

> <i_epik_Tot_Q>
1

> <i_epik_Tot_abs_Q>
1

> <r_epik_Metal_State_Penalty>
1.55252

> <b_epik_Metal_Only>
0

> <s_lp_Force_Field>
OPLS_2005

> <r_lp_Energy>
32.8

> <b_lp_Chiralities_Consistent>
1

> <s_lp_Variant>
AV-unprocessed.smi:693-4

> <Gold.Version>
5.8.1

> <Gold.Id.Protein>
6NUR|6NUR_protein|mol2

> <Gold.PLP.Fitness>
45.5615

> <Gold.PLP.PLP>
-34.7494

> <Gold.PLP.part.hbond>
-3.0000

> <Gold.PLP.part.metal>
0.0000

> <Gold.PLP.part.buried>
1.1754

> <Gold.PLP.part.nonpolar>
-34.9598

> <Gold.PLP.part.repulsive>
0.4430

> <Gold.PLP.ligand.clash>
0.0000

> <Gold.PLP.ligand.torsion>
0.6152

> <Gold.PLP.Chemscore.Hbond>
3.9760

> <Gold.PLP.Chemscore.CHOScore>
0.0000

> <Gold.PLP.Chemscore.Metal>
0.0000

> <Gold.Chemscore.Hbonds>
donor molecule, donor type, donor heavy atom, donor atom, acceptor molecule, acceptor atom, score
      L1  H    18    42       P1  7921  0.94
      L1  H    18    43       P1 10171  1.00
      L1  H    22    47       P1  8028  2.00

> <Gold.PLP.Chemscore.Internal.Correction>
0.1145

> <Gold.Rescore>
     Score         DG    S(hbond)    S(metal)    S(lipo)     H(rot)  DE(clash)    DE(int)     intcor
     18.62     -20.92       2.97        0.00      98.31       2.34       1.64       0.66       ----

> <Gold.Chemscore.Fitness>
18.6243

> <Gold.Chemscore.DG>
-20.9152

> <Gold.Chemscore.ZeroCoef>
-5.4800

> <Gold.Chemscore.Hbond>
2.9675

> <Gold.Chemscore.Metal>
0.0000

> <Gold.Chemscore.Lipo>
98.3097

> <Gold.Chemscore.Internal_Hbond>
0.0000

> <Gold.Chemscore.DEClash>
1.6356

> <Gold.Chemscore.DEInternal>
0.6552

> <Gold.Chemscore.Rot>
2.3354

> <Gold.Chemscore.Internal.Correction>
   9.000000E+99

> <Gold.Chemscore.Hbonds>
donor molecule, donor type, donor heavy atom, donor atom, acceptor molecule, acceptor atom, score
      L1  H    18    42       P1  7921  0.91
      L1  H    18    43       P1 10171  0.98
      L1  H    22    47       P1  8028  0.95

> <Gold.Chemscore.Hbond.Weighted>
-9.9115

> <Gold.Chemscore.Metal.Weighted>
-0.0000

> <Gold.Chemscore.Lipo.Weighted>
-11.5022

> <Gold.Chemscore.Internal_Hbond.Weighted>
0.0000

> <Gold.Chemscore.DEClash.Weighted>
1.6356

> <Gold.Chemscore.DEInternal.Weighted>
0.6552

> <Gold.Chemscore.Rot.Weighted>
5.9785

> <Gold.Chemscore.Internal.Correction.Weighted>
   9.000000E+99

> <Gold.Protein.RotatedTorsions>
[ 6907 6896 6895 6894 ] final  -54.26 input  -60.11 | X-H torsion
[ 7974 7965 7964 7962 ] final -111.66 input  175.53 | X-H torsion
[ 8008 7997 7996 7995 ] final  132.68 input   59.86 | X-H torsion
[ 10167 10162 10161 10158 ] final   23.28 input  -65.29 | X-H torsion
[ 10718 10713 10712 10709 ] final  -45.45 input   66.30 | X-H torsion
[ 10763 10752 10751 10750 ] final  116.76 input  -60.55 | X-H torsion
[ 11005 11000 10999 10996 ] final -117.10 input  -57.11 | X-H torsion

> <Gold.Protein.ActiveResidues>
 VAL166  LYS551  ARG553  GLY616  TRP617  ASP618  TYR619  PRO620  LYS621  CYS622 
 ASP623  PHE694  ASN695  SER759  ASP760  ASP761  ALA762  ILE779  LEU786  VAL792 
 PHE793  MET794  SER795  GLU796  ALA797  LYS798  CYS799  TRP800  GLU811  SER814 

> <Gold.Protein.RotatedAtoms>
  150.8353  134.7624  159.6887 H   0  0  0  0  0  0  0  0  0  0  0  0  # atno 6907 bound_to 6896
  152.4451  134.5508  159.9876 H   0  0  0  0  0  0  0  0  0  0  0  0  # atno 6908 bound_to 6896
  151.5659  133.3359  159.3016 H   0  0  0  0  0  0  0  0  0  0  0  0  # atno 6909 bound_to 6896
  145.1533  140.8841  143.3633 H   0  0  0  0  0  0  0  0  0  0  0  0  # atno 7974 bound_to 7965
  156.2985  140.2540  156.3129 H   0  0  0  0  0  0  0  0  0  0  0  0  # atno 8008 bound_to 7997
  154.9309  140.0398  157.2066 H   0  0  0  0  0  0  0  0  0  0  0  0  # atno 8009 bound_to 7997
  154.8219  140.2861  155.5785 H   0  0  0  0  0  0  0  0  0  0  0  0  # atno 8010 bound_to 7997
  140.5282  143.9887  150.6451 H   0  0  0  0  0  0  0  0  0  0  0  0  # atno 10167 bound_to 10162
  156.2282  130.4171  149.8907 H   0  0  0  0  0  0  0  0  0  0  0  0  # atno 10718 bound_to 10713
  153.5421  135.3556  155.2723 H   0  0  0  0  0  0  0  0  0  0  0  0  # atno 10763 bound_to 10752
  154.8716  135.4093  154.3032 H   0  0  0  0  0  0  0  0  0  0  0  0  # atno 10764 bound_to 10752
  153.3741  135.7065  153.6683 H   0  0  0  0  0  0  0  0  0  0  0  0  # atno 10765 bound_to 10752
  141.0378  133.9883  157.3044 H   0  0  0  0  0  0  0  0  0  0  0  0  # atno 11005 bound_to 11000
  145.0407  139.3262  143.5978 LP  0  0  0  0  0  0  0  0  0  0  0  0  # atno 17320 bound_to 7965
  146.3492  139.9780  142.8699 LP  0  0  0  0  0  0  0  0  0  0  0  0  # atno 17321 bound_to 7965
  140.3255  143.3110  152.0741 LP  0  0  0  0  0  0  0  0  0  0  0  0  # atno 17342 bound_to 10162
  139.4945  144.6545  151.6603 LP  0  0  0  0  0  0  0  0  0  0  0  0  # atno 17343 bound_to 10162
  156.6530  130.8751  151.3534 LP  0  0  0  0  0  0  0  0  0  0  0  0  # atno 17370 bound_to 10713
  157.7121  130.9452  150.1124 LP  0  0  0  0  0  0  0  0  0  0  0  0  # atno 17371 bound_to 10713
  139.9253  135.0201  156.8212 LP  0  0  0  0  0  0  0  0  0  0  0  0  # atno 17394 bound_to 11000
  140.6291  133.9922  155.7653 LP  0  0  0  0  0  0  0  0  0  0  0  0  # atno 17395 bound_to 11000

$$$$
