AV-unprocessed.smi:3330|AV-procd|sdf|12814|dock9
  -GOLD-   2272019183D 1   1.00000     0.00000
 Structure written by MMmdl.
 37 38  0  0  0  0  0  0  0  0  2 V2000
  151.4565  135.9175  156.0105 C   0  0  0  0  0  0  0  0  0  0  0  0
  150.4244  137.0278  155.7401 C   0  0  1  0  0  0  0  0  0  0  0  0
  150.1288  137.6545  157.0237 N   0  0  0  0  0  0  0  0  0  0  0  0
  149.1408  136.8905  157.7689 C   0  0  0  0  0  0  0  0  0  0  0  0
  149.5898  136.7581  159.2311 C   0  0  0  0  0  0  0  0  0  0  0  0
  148.9205  135.6306  159.8851 N   0  0  0  0  0  0  0  0  0  0  0  0
  148.1857  135.7347  160.9965 C   0  0  0  0  0  0  0  0  0  0  0  0
  147.9500  136.7470  161.6566 O   0  0  0  0  0  0  0  0  0  0  0  0
  147.6582  134.3572  161.3235 C   0  0  0  0  0  0  0  0  0  0  0  0
  148.1972  133.5562  160.2475 N   0  5  0  0  0  0  0  0  0  0  0  0
  148.9239  134.3606  159.4368 C   0  0  0  0  0  0  0  0  0  0  0  0
  149.5209  134.0271  158.4137 O   0  0  0  0  0  0  0  0  0  0  0  0
  150.9199  138.1037  154.7366 C   0  0  2  0  0  0  0  0  0  0  0  0
  152.2486  138.7575  155.1588 C   0  0  0  0  0  0  0  0  0  0  0  0
  149.9155  139.1379  154.5222 N   0  0  0  0  0  0  0  0  0  0  0  0
  148.6694  139.0207  153.9391 C   0  0  0  0  0  0  0  0  0  0  0  0
  148.0896  140.2566  153.9606 C   0  0  0  0  0  0  0  0  0  0  0  0
  149.0699  141.0778  154.5836 C   0  0  0  0  0  0  0  0  0  0  0  0
  150.1594  140.4065  154.9193 N   0  0  0  0  0  0  0  0  0  0  0  0
  151.6686  135.3372  155.1126 H   0  0  0  0  0  0  0  0  0  0  0  0
  151.0919  135.2163  156.7621 H   0  0  0  0  0  0  0  0  0  0  0  0
  152.4002  136.3302  156.3694 H   0  0  0  0  0  0  0  0  0  0  0  0
  149.5294  136.5513  155.3360 H   0  0  0  0  0  0  0  0  0  0  0  0
  150.9746  137.7201  157.5718 H   0  0  0  0  0  0  0  0  0  0  0  0
  148.1705  137.3857  157.7190 H   0  0  0  0  0  0  0  0  0  0  0  0
  149.0286  135.9035  157.3178 H   0  0  0  0  0  0  0  0  0  0  0  0
  150.6724  136.6298  159.2839 H   0  0  0  0  0  0  0  0  0  0  0  0
  149.3744  137.6810  159.7728 H   0  0  0  0  0  0  0  0  0  0  0  0
  148.0109  134.0492  162.3083 H   0  0  0  0  0  0  0  0  0  0  0  0
  146.5679  134.3723  161.3450 H   0  0  0  0  0  0  0  0  0  0  0  0
  151.0893  137.6134  153.7758 H   0  0  0  0  0  0  0  0  0  0  0  0
  153.0585  138.0286  155.1905 H   0  0  0  0  0  0  0  0  0  0  0  0
  152.1737  139.2148  156.1458 H   0  0  0  0  0  0  0  0  0  0  0  0
  152.5442  139.5345  154.4531 H   0  0  0  0  0  0  0  0  0  0  0  0
  148.3045  138.0772  153.5609 H   0  0  0  0  0  0  0  0  0  0  0  0
  147.1143  140.5318  153.5876 H   0  0  0  0  0  0  0  0  0  0  0  0
  149.0225  142.1346  154.8013 H   0  0  0  0  0  0  0  0  0  0  0  0
  1  2  1  0  0  0  0
  1 20  1  0  0  0  0
  1 21  1  0  0  0  0
  1 22  1  0  0  0  0
  2  3  1  0  0  0  0
  2 13  1  0  0  0  0
  2 23  1  0  0  0  0
  3  4  1  0  0  0  0
  3 24  1  0  0  0  0
  4  5  1  0  0  0  0
  4 25  1  0  0  0  0
  4 26  1  0  0  0  0
  5  6  1  0  0  0  0
  5 27  1  0  0  0  0
  5 28  1  0  0  0  0
  6 11  1  0  0  0  0
  6  7  1  0  0  0  0
  7  8  2  0  0  0  0
  7  9  1  0  0  0  0
  9 10  1  0  0  0  0
  9 29  1  0  0  0  0
  9 30  1  0  0  0  0
 10 11  1  0  0  0  0
 11 12  2  0  0  0  0
 13 14  1  0  0  0  0
 13 15  1  0  0  0  0
 13 31  1  0  0  0  0
 14 32  1  0  0  0  0
 14 33  1  0  0  0  0
 14 34  1  0  0  0  0
 15 19  1  0  0  0  0
 15 16  1  0  0  0  0
 16 17  2  0  0  0  0
 16 35  1  0  0  0  0
 17 18  1  0  0  0  0
 17 36  1  0  0  0  0
 18 19  2  0  0  0  0
 18 37  1  0  0  0  0
M  CHG  1  10  -1
M  END
> <s_m_source_file>
AV-unprocessed.smi

> <i_m_source_file_index>
3330

> <i_lp_mmshare_version>
43012

> <i_f3d_flags>
0

> <s_epik_input>
bjFbY0hdW2NIXVtjSF1uMVtDQEBIXShbQ0gzXSlbQ0BIXShbQ0gzXSlbTkhdW0NIMl1bQ0gyXU4yQyg9TylbQ0gyXVtOSF1DMj1P

> <s_epik_cmdline>
J2VwaWtfcHl0aG9uJywgJy1waCcsICc3LjAnLCAnLXRuJywgJzgnLCAnLW1hJywgJzIwMCcsICctbWV0YWxfYmluZGluZycsICctaW1hZScsICc8aW5maWxlLm1hZT4nLCAnLW9tYWUnLCAnPG91dGZpbGUubWFlPic=

> <r_lp_tautomer_probability>
1

> <r_epik_Ionization_Penalty>
8.77477

> <r_epik_Ionization_Penalty_Charging>
6.28461

> <r_epik_Ionization_Penalty_Neutral>
2.49016

> <r_epik_State_Penalty>
8.73376

> <r_epik_Charging_Adjusted_Penalty>
15.0184

> <i_epik_Tot_Q>
-1

> <i_epik_Tot_abs_Q>
1

> <r_epik_Metal_State_Penalty>
4.73175

> <b_epik_Metal_Only>
1

> <s_lp_Force_Field>
OPLS_2005

> <r_lp_Energy>
21.213

> <b_lp_Chiralities_Consistent>
1

> <s_lp_Variant>
AV-unprocessed.smi:3330-14

> <Gold.Version>
5.8.1

> <Gold.Id.Protein>
6NUR|6NUR_protein|mol2

> <Gold.PLP.Fitness>
42.6862

> <Gold.PLP.PLP>
-30.9490

> <Gold.PLP.part.hbond>
-4.0000

> <Gold.PLP.part.metal>
0.0000

> <Gold.PLP.part.buried>
-0.8294

> <Gold.PLP.part.nonpolar>
-25.7950

> <Gold.PLP.part.repulsive>
0.0900

> <Gold.PLP.ligand.clash>
0.0000

> <Gold.PLP.ligand.torsion>
0.8563

> <Gold.PLP.Chemscore.Hbond>
3.0965

> <Gold.PLP.Chemscore.CHOScore>
1.3557

> <Gold.PLP.Chemscore.Metal>
0.0000

> <Gold.Chemscore.Hbonds>
donor molecule, donor type, donor heavy atom, donor atom, acceptor molecule, acceptor atom, score
      P1  H  6931  6943       L1     8  1.00
      P1  H  7989  7998       L1    19  0.75
      L1  C    16    35       P1  7948  0.88
      L1  C    18    37       P1  8028  0.54

> <Gold.PLP.Chemscore.Internal.Correction>
0.0931

> <Gold.Rescore>
     Score         DG    S(hbond)    S(metal)    S(lipo)     H(rot)  DE(clash)    DE(int)     intcor
     12.26     -13.70       2.43        0.00      55.90       2.52       0.05       1.39       ----

> <Gold.Chemscore.Fitness>
12.2581

> <Gold.Chemscore.DG>
-13.6987

> <Gold.Chemscore.ZeroCoef>
-5.4800

> <Gold.Chemscore.Hbond>
2.4308

> <Gold.Chemscore.Metal>
0.0000

> <Gold.Chemscore.Lipo>
55.9045

> <Gold.Chemscore.Internal_Hbond>
0.0000

> <Gold.Chemscore.DEClash>
0.0471

> <Gold.Chemscore.DEInternal>
1.3934

> <Gold.Chemscore.Rot>
2.5160

> <Gold.Chemscore.Internal.Correction>
   9.000000E+99

> <Gold.Chemscore.Hbonds>
donor molecule, donor type, donor heavy atom, donor atom, acceptor molecule, acceptor atom, score
      P1  H  6931  6943       L1     8  1.00
      P1  H  6934  6947       L1     8  0.01
      P1  H  7989  7998       L1    19  0.08

> <Gold.Chemscore.Hbond.Weighted>
-8.1189

> <Gold.Chemscore.Metal.Weighted>
-0.0000

> <Gold.Chemscore.Lipo.Weighted>
-6.5408

> <Gold.Chemscore.Internal_Hbond.Weighted>
0.0000

> <Gold.Chemscore.DEClash.Weighted>
0.0471

> <Gold.Chemscore.DEInternal.Weighted>
1.3934

> <Gold.Chemscore.Rot.Weighted>
6.4410

> <Gold.Chemscore.Internal.Correction.Weighted>
   9.000000E+99

> <Gold.Protein.RotatedTorsions>
[ 6907 6896 6895 6894 ] final   51.70 input  -60.11 | X-H torsion
[ 7974 7965 7964 7962 ] final  -51.87 input  175.53 | X-H torsion
[ 8008 7997 7996 7995 ] final   75.60 input   59.86 | X-H torsion
[ 10167 10162 10161 10158 ] final    5.73 input  -65.29 | X-H torsion
[ 10718 10713 10712 10709 ] final   41.39 input   66.30 | X-H torsion
[ 10763 10752 10751 10750 ] final -165.44 input  -60.55 | X-H torsion
[ 11005 11000 10999 10996 ] final  -72.53 input  -57.11 | X-H torsion

> <Gold.Protein.ActiveResidues>
 VAL166  LYS551  ARG553  GLY616  TRP617  ASP618  TYR619  PRO620  LYS621  CYS622 
 ASP623  PHE694  ASN695  SER759  ASP760  ASP761  ALA762  ILE779  LEU786  VAL792 
 PHE793  MET794  SER795  GLU796  ALA797  LYS798  CYS799  TRP800  GLU811  SER814 

> <Gold.Protein.RotatedAtoms>
  152.3154  134.7446  160.0326 H   0  0  0  0  0  0  0  0  0  0  0  0  # atno 6907 bound_to 6896
  151.7912  133.3354  159.3508 H   0  0  0  0  0  0  0  0  0  0  0  0  # atno 6908 bound_to 6896
  150.7342  134.5771  159.5964 H   0  0  0  0  0  0  0  0  0  0  0  0  # atno 6909 bound_to 6896
  145.9142  140.7889  142.9680 H   0  0  0  0  0  0  0  0  0  0  0  0  # atno 7974 bound_to 7965
  155.8153  140.3472  155.5481 H   0  0  0  0  0  0  0  0  0  0  0  0  # atno 8008 bound_to 7997
  155.8399  140.0940  157.1761 H   0  0  0  0  0  0  0  0  0  0  0  0  # atno 8009 bound_to 7997
  154.4005  140.1396  156.3703 H   0  0  0  0  0  0  0  0  0  0  0  0  # atno 8010 bound_to 7997
  140.6466  143.7647  150.7508 H   0  0  0  0  0  0  0  0  0  0  0  0  # atno 10167 bound_to 10162
  157.3930  130.7817  149.7285 H   0  0  0  0  0  0  0  0  0  0  0  0  # atno 10718 bound_to 10713
  154.6931  135.2974  154.9450 H   0  0  0  0  0  0  0  0  0  0  0  0  # atno 10763 bound_to 10752
  154.0407  135.6658  153.4794 H   0  0  0  0  0  0  0  0  0  0  0  0  # atno 10764 bound_to 10752
  153.0626  135.5106  154.8034 H   0  0  0  0  0  0  0  0  0  0  0  0  # atno 10765 bound_to 10752
  141.1610  133.6850  156.7073 H   0  0  0  0  0  0  0  0  0  0  0  0  # atno 11005 bound_to 11000
  144.6746  140.1873  143.7400 LP  0  0  0  0  0  0  0  0  0  0  0  0  # atno 17320 bound_to 7965
  145.8633  139.2234  143.1704 LP  0  0  0  0  0  0  0  0  0  0  0  0  # atno 17321 bound_to 7965
  140.1289  143.4544  152.2266 LP  0  0  0  0  0  0  0  0  0  0  0  0  # atno 17342 bound_to 10162
  139.5677  144.7445  151.3976 LP  0  0  0  0  0  0  0  0  0  0  0  0  # atno 17343 bound_to 10162
  155.9803  130.4031  150.3535 LP  0  0  0  0  0  0  0  0  0  0  0  0  # atno 17370 bound_to 10713
  157.1654  131.0355  151.2821 LP  0  0  0  0  0  0  0  0  0  0  0  0  # atno 17371 bound_to 10713
  140.2914  134.8237  157.4020 LP  0  0  0  0  0  0  0  0  0  0  0  0  # atno 17394 bound_to 11000
  140.1343  134.5054  155.8080 LP  0  0  0  0  0  0  0  0  0  0  0  0  # atno 17395 bound_to 11000

$$$$
