AV-unprocessed.smi:2027|AV-procd|sdf|8219|dock7
  -GOLD-   2272010493D 1   1.00000     0.00000
 Structure written by MMmdl.
 51 53  0  0  0  0  0  0  0  0  3 V2000
  150.4541  145.1962  160.2571 C   0  0  0  0  0  0  0  0  0  0  0  0
  151.4512  144.0688  160.4629 C   0  0  0  0  0  0  0  0  0  0  0  0
  152.0203  143.8978  161.7446 C   0  0  0  0  0  0  0  0  0  0  0  0
  152.9270  142.8568  161.9025 C   0  0  0  0  0  0  0  0  0  0  0  0
  153.6451  142.4350  163.0227 N   0  3  0  0  0  0  0  0  0  0  0  0
  154.4130  141.3608  162.6921 C   0  0  0  0  0  0  0  0  0  0  0  0
  154.2019  141.0925  161.3740 N   0  0  0  0  0  0  0  0  0  0  0  0
  154.7784  140.0320  160.5296 C   0  0  0  0  0  0  0  0  0  0  0  0
  154.1525  138.6385  160.7572 C   0  0  2  0  0  0  0  0  0  0  0  0
  154.9064  137.9493  161.7360 O   0  0  0  0  0  0  0  0  0  0  0  0
  154.0854  137.7716  159.4812 C   0  0  0  0  0  0  0  0  0  0  0  0
  152.8025  137.9095  158.7417 N   0  3  2  0  0  0  0  0  0  0  0  0
  151.6529  137.4241  159.5382 C   0  0  0  0  0  0  0  0  0  0  0  0
  152.8163  137.3434  157.3666 C   0  0  0  0  0  0  0  0  0  0  0  0
  151.6716  137.8941  156.5606 C   0  0  0  0  0  0  0  0  0  0  0  0
  151.5249  139.2053  156.0229 C   0  0  0  0  0  0  0  0  0  0  0  0
  150.3886  139.3691  155.3670 N   0  0  0  0  0  0  0  0  0  0  0  0
  149.7764  138.1705  155.4504 N   0  0  0  0  0  0  0  0  0  0  0  0
  148.4826  137.9858  154.8287 C   0  0  0  0  0  0  0  0  0  0  0  0
  150.5286  137.2601  156.1606 C   0  0  0  0  0  0  0  0  0  0  0  0
  153.2764  141.9992  160.8403 C   0  0  0  0  0  0  0  0  0  0  0  0
  152.7249  142.1561  159.5702 C   0  0  0  0  0  0  0  0  0  0  0  0
  151.8003  143.2096  159.3891 C   0  0  0  0  0  0  0  0  0  0  0  0
  151.1825  143.4033  158.0146 C   0  0  0  0  0  0  0  0  0  0  0  0
  150.2564  145.7288  161.1878 H   0  0  0  0  0  0  0  0  0  0  0  0
  149.5044  144.8069  159.8893 H   0  0  0  0  0  0  0  0  0  0  0  0
  150.8367  145.9173  159.5345 H   0  0  0  0  0  0  0  0  0  0  0  0
  151.7591  144.5486  162.5668 H   0  0  0  0  0  0  0  0  0  0  0  0
  155.0724  140.8202  163.3559 H   0  0  0  0  0  0  0  0  0  0  0  0
  154.6349  140.3368  159.4919 H   0  0  0  0  0  0  0  0  0  0  0  0
  155.8569  139.9975  160.6801 H   0  0  0  0  0  0  0  0  0  0  0  0
  153.1501  138.7935  161.1525 H   0  0  0  0  0  0  0  0  0  0  0  0
  155.2501  137.1579  161.3491 H   0  0  0  0  0  0  0  0  0  0  0  0
  154.9118  138.0171  158.8126 H   0  0  0  0  0  0  0  0  0  0  0  0
  154.2170  136.7249  159.7592 H   0  0  0  0  0  0  0  0  0  0  0  0
  151.7231  136.3491  159.7099 H   0  0  0  0  0  0  0  0  0  0  0  0
  150.7137  137.6302  159.0234 H   0  0  0  0  0  0  0  0  0  0  0  0
  151.6107  137.9240  160.5066 H   0  0  0  0  0  0  0  0  0  0  0  0
  153.7743  137.5427  156.8844 H   0  0  0  0  0  0  0  0  0  0  0  0
  152.7449  136.2554  157.4052 H   0  0  0  0  0  0  0  0  0  0  0  0
  152.2049  140.0414  156.0943 H   0  0  0  0  0  0  0  0  0  0  0  0
  148.2060  136.9315  154.8472 H   0  0  0  0  0  0  0  0  0  0  0  0
  148.5161  138.3245  153.7927 H   0  0  0  0  0  0  0  0  0  0  0  0
  147.7299  138.5600  155.3692 H   0  0  0  0  0  0  0  0  0  0  0  0
  150.1893  136.2480  156.3263 H   0  0  0  0  0  0  0  0  0  0  0  0
  152.9846  141.5044  158.7497 H   0  0  0  0  0  0  0  0  0  0  0  0
  151.5937  142.7010  157.2888 H   0  0  0  0  0  0  0  0  0  0  0  0
  151.3732  144.4113  157.6454 H   0  0  0  0  0  0  0  0  0  0  0  0
  150.1042  143.2475  158.0556 H   0  0  0  0  0  0  0  0  0  0  0  0
  152.6526  138.9027  158.6325 H   0  0  0  0  0  0  0  0  0  0  0  0
  153.6121  142.8453  163.9475 H   0  0  0  0  0  0  0  0  0  0  0  0
  1  2  1  0  0  0  0
  1 25  1  0  0  0  0
  1 26  1  0  0  0  0
  1 27  1  0  0  0  0
  2 23  1  0  0  0  0
  2  3  2  0  0  0  0
  3  4  1  0  0  0  0
  3 28  1  0  0  0  0
  4 21  2  0  0  0  0
  4  5  1  0  0  0  0
  5  6  2  0  0  0  0
  5 51  1  0  0  0  0
  6  7  1  0  0  0  0
  6 29  1  0  0  0  0
  7  8  1  0  0  0  0
  7 21  1  0  0  0  0
  8  9  1  0  0  0  0
  8 30  1  0  0  0  0
  8 31  1  0  0  0  0
  9 10  1  0  0  0  0
  9 11  1  0  0  0  0
  9 32  1  0  0  0  0
 10 33  1  0  0  0  0
 11 12  1  0  0  0  0
 11 34  1  0  0  0  0
 11 35  1  0  0  0  0
 12 13  1  0  0  0  0
 12 14  1  0  0  0  0
 12 50  1  0  0  0  0
 13 36  1  0  0  0  0
 13 37  1  0  0  0  0
 13 38  1  0  0  0  0
 14 15  1  0  0  0  0
 14 39  1  0  0  0  0
 14 40  1  0  0  0  0
 15 20  2  0  0  0  0
 15 16  1  0  0  0  0
 16 17  2  0  0  0  0
 16 41  1  0  0  0  0
 17 18  1  0  0  0  0
 18 19  1  0  0  0  0
 18 20  1  0  0  0  0
 19 42  1  0  0  0  0
 19 43  1  0  0  0  0
 19 44  1  0  0  0  0
 20 45  1  0  0  0  0
 21 22  1  0  0  0  0
 22 23  2  0  0  0  0
 22 46  1  0  0  0  0
 23 24  1  0  0  0  0
 24 47  1  0  0  0  0
 24 48  1  0  0  0  0
 24 49  1  0  0  0  0
M  CHG  1   5   1
M  CHG  1  12   1
M  END
> <s_m_source_file>
AV-unprocessed.smi

> <i_m_source_file_index>
2027

> <i_lp_mmshare_version>
43012

> <i_f3d_flags>
0

> <s_epik_input>
W0NIM11jKFtjSF0xKWMoW0NIM10pW2NIXWMoYzEyKW4oW2NIXW4yKVtDSDJdW0NASF0oW09IXSlbQ0gyXU4oW0NIM10pW0NIMl1jM1tjSF1ubihbQ0gzXSlbY0hdMw==

> <s_epik_cmdline>
J2VwaWtfcHl0aG9uJywgJy1waCcsICc3LjAnLCAnLXRuJywgJzgnLCAnLW1hJywgJzIwMCcsICctbWV0YWxfYmluZGluZycsICctaW1hZScsICc8aW5maWxlLm1hZT4nLCAnLW9tYWUnLCAnPG91dGZpbGUubWFlPic=

> <r_lp_tautomer_probability>
1

> <r_epik_Ionization_Penalty>
1.77469

> <r_epik_Ionization_Penalty_Charging>
1.77463

> <r_epik_Ionization_Penalty_Neutral>
6.41153e-05

> <r_epik_State_Penalty>
1.85225

> <r_epik_Charging_Adjusted_Penalty>
3.62688

> <i_epik_Tot_Q>
2

> <i_epik_Tot_abs_Q>
2

> <r_epik_Metal_State_Penalty>
1.92669

> <b_epik_Metal_Only>
0

> <s_lp_Force_Field>
OPLS_2005

> <r_lp_Energy>
22.3184

> <b_lp_Chiralities_Consistent>
1

> <s_lp_Variant>
AV-unprocessed.smi:2027-11

> <Gold.Version>
5.8.1

> <Gold.Id.Protein>
6NUR|6NUR_protein|mol2

> <Gold.PLP.Fitness>
53.2998

> <Gold.PLP.PLP>
-52.8365

> <Gold.PLP.part.hbond>
-1.0000

> <Gold.PLP.part.metal>
0.0000

> <Gold.PLP.part.buried>
-4.0120

> <Gold.PLP.part.nonpolar>
-47.9430

> <Gold.PLP.part.repulsive>
0.2216

> <Gold.PLP.ligand.clash>
0.0000

> <Gold.PLP.ligand.torsion>
1.3781

> <Gold.PLP.Chemscore.Hbond>
1.0000

> <Gold.PLP.Chemscore.CHOScore>
0.0000

> <Gold.PLP.Chemscore.Metal>
0.0000

> <Gold.PLP.Chemscore.Internal.Correction>
0.2195

> <Gold.Rescore>
     Score         DG    S(hbond)    S(metal)    S(lipo)     H(rot)  DE(clash)    DE(int)     intcor
     18.17     -19.65       0.99        0.00     149.41       2.58       0.15       1.33       ----

> <Gold.Chemscore.Fitness>
18.1732

> <Gold.Chemscore.DG>
-19.6524

> <Gold.Chemscore.ZeroCoef>
-5.4800

> <Gold.Chemscore.Hbond>
0.9896

> <Gold.Chemscore.Metal>
0.0000

> <Gold.Chemscore.Lipo>
149.4118

> <Gold.Chemscore.Internal_Hbond>
0.0000

> <Gold.Chemscore.DEClash>
0.1529

> <Gold.Chemscore.DEInternal>
1.3262

> <Gold.Chemscore.Rot>
2.5836

> <Gold.Chemscore.Internal.Correction>
   9.000000E+99

> <Gold.Chemscore.Hbond.Weighted>
-3.3051

> <Gold.Chemscore.Metal.Weighted>
-0.0000

> <Gold.Chemscore.Lipo.Weighted>
-17.4812

> <Gold.Chemscore.Internal_Hbond.Weighted>
0.0000

> <Gold.Chemscore.DEClash.Weighted>
0.1529

> <Gold.Chemscore.DEInternal.Weighted>
1.3262

> <Gold.Chemscore.Rot.Weighted>
6.6139

> <Gold.Chemscore.Internal.Correction.Weighted>
   9.000000E+99

> <Gold.Protein.RotatedTorsions>
[ 6907 6896 6895 6894 ] final   19.40 input  -60.11 | X-H torsion
[ 7974 7965 7964 7962 ] final    6.70 input  175.53 | X-H torsion
[ 8008 7997 7996 7995 ] final   14.54 input   59.86 | X-H torsion
[ 10167 10162 10161 10158 ] final  162.97 input  -65.29 | X-H torsion
[ 10718 10713 10712 10709 ] final  -10.04 input   66.30 | X-H torsion
[ 10763 10752 10751 10750 ] final  -33.77 input  -60.55 | X-H torsion
[ 11005 11000 10999 10996 ] final  117.90 input  -57.11 | X-H torsion

> <Gold.Protein.ActiveResidues>
 VAL166  LYS551  ARG553  GLY616  TRP617  ASP618  TYR619  PRO620  LYS621  CYS622 
 ASP623  PHE694  ASN695  SER759  ASP760  ASP761  ALA762  ILE779  LEU786  VAL792 
 PHE793  MET794  SER795  GLU796  ALA797  LYS798  CYS799  TRP800  GLU811  SER814 

> <Gold.Protein.RotatedAtoms>
  151.8803  135.0456  160.0487 H   0  0  0  0  0  0  0  0  0  0  0  0  # atno 6907 bound_to 6896
  152.2518  133.5217  159.5338 H   0  0  0  0  0  0  0  0  0  0  0  0  # atno 6908 bound_to 6896
  150.7086  134.0866  159.3959 H   0  0  0  0  0  0  0  0  0  0  0  0  # atno 6909 bound_to 6896
  146.2433  140.0195  142.8399 H   0  0  0  0  0  0  0  0  0  0  0  0  # atno 7974 bound_to 7965
  154.8499  140.2928  155.5605 H   0  0  0  0  0  0  0  0  0  0  0  0  # atno 8008 bound_to 7997
  156.3016  140.2498  156.3388 H   0  0  0  0  0  0  0  0  0  0  0  0  # atno 8009 bound_to 7997
  154.9032  140.0391  157.1894 H   0  0  0  0  0  0  0  0  0  0  0  0  # atno 8010 bound_to 7997
  139.4867  144.4384  151.8982 H   0  0  0  0  0  0  0  0  0  0  0  0  # atno 10167 bound_to 10162
  156.6793  130.5032  149.5976 H   0  0  0  0  0  0  0  0  0  0  0  0  # atno 10718 bound_to 10713
  153.8358  135.6862  153.4809 H   0  0  0  0  0  0  0  0  0  0  0  0  # atno 10763 bound_to 10752
  153.1483  135.4628  154.9598 H   0  0  0  0  0  0  0  0  0  0  0  0  # atno 10764 bound_to 10752
  154.7867  135.3287  154.7816 H   0  0  0  0  0  0  0  0  0  0  0  0  # atno 10765 bound_to 10752
  139.9090  134.9615  156.7421 H   0  0  0  0  0  0  0  0  0  0  0  0  # atno 11005 bound_to 11000
  145.1254  140.9487  143.4575 LP  0  0  0  0  0  0  0  0  0  0  0  0  # atno 17320 bound_to 7965
  145.0440  139.3237  143.5962 LP  0  0  0  0  0  0  0  0  0  0  0  0  # atno 17321 bound_to 7965
  140.3835  144.2706  150.5906 LP  0  0  0  0  0  0  0  0  0  0  0  0  # atno 17342 bound_to 10162
  140.5211  143.2265  151.8386 LP  0  0  0  0  0  0  0  0  0  0  0  0  # atno 17343 bound_to 10162
  156.1879  130.6541  151.1028 LP  0  0  0  0  0  0  0  0  0  0  0  0  # atno 17370 bound_to 10713
  157.7049  131.0760  150.6699 LP  0  0  0  0  0  0  0  0  0  0  0  0  # atno 17371 bound_to 10713
  140.6841  133.9448  155.7927 LP  0  0  0  0  0  0  0  0  0  0  0  0  # atno 17394 bound_to 11000
  141.0489  134.0514  157.3809 LP  0  0  0  0  0  0  0  0  0  0  0  0  # atno 17395 bound_to 11000

$$$$
