AV-unprocessed.smi:848|AV-procd|sdf|3942|dock10
  -GOLD-   22720 1413D 1   1.00000     0.00000
 Structure written by MMmdl.
 47 49  0  0  0  0  0  0  0  0  2 V2000
  154.0200  141.4123  161.6271 C   0  0  0  0  0  0  0  0  0  0  0  0
  153.1984  141.8251  160.4232 C   0  0  0  0  0  0  0  0  0  0  0  0
  152.9455  143.1878  160.1689 C   0  0  0  0  0  0  0  0  0  0  0  0
  152.1799  143.5667  159.0494 C   0  0  0  0  0  0  0  0  0  0  0  0
  151.9098  145.0330  158.7810 C   0  0  0  0  0  0  0  0  0  0  0  0
  151.6661  142.5774  158.1863 C   0  0  0  0  0  0  0  0  0  0  0  0
  151.9102  141.2098  158.4257 C   0  0  0  0  0  0  0  0  0  0  0  0
  151.3708  140.3139  157.5276 O   0  0  0  0  0  0  0  0  0  0  0  0
  151.0867  140.7656  156.2101 C   0  0  0  0  0  0  0  0  0  0  0  0
  149.7097  141.4481  156.2109 C   0  0  1  0  0  0  0  0  0  0  0  0
  149.5787  142.1894  155.0140 O   0  0  0  0  0  0  0  0  0  0  0  0
  148.5597  140.4250  156.3054 C   0  0  0  0  0  0  0  0  0  0  0  0
  147.3436  140.8603  155.5971 N   0  0  0  0  0  0  0  0  0  0  0  0
  146.8538  140.4842  154.3798 C   0  0  0  0  0  0  0  0  0  0  0  0
  147.4552  139.4982  153.4328 C   0  0  0  0  0  0  0  0  0  0  0  0
  146.9107  139.5971  152.1357 O   0  0  0  0  0  0  0  0  0  0  0  0
  145.6948  141.1729  154.1806 N   0  3  0  0  0  0  0  0  0  0  0  0
  145.4397  141.9972  155.2766 C   0  0  0  0  0  0  0  0  0  0  0  0
  144.3909  142.8760  155.5297 C   0  0  0  0  0  0  0  0  0  0  0  0
  144.4275  143.5682  156.7579 C   0  0  0  0  0  0  0  0  0  0  0  0
  145.4773  143.3737  157.6787 C   0  0  0  0  0  0  0  0  0  0  0  0
  146.5354  142.4807  157.4103 C   0  0  0  0  0  0  0  0  0  0  0  0
  146.4938  141.8011  156.1925 C   0  0  0  0  0  0  0  0  0  0  0  0
  152.6823  140.8404  159.5561 C   0  0  0  0  0  0  0  0  0  0  0  0
  154.4880  142.2743  162.1032 H   0  0  0  0  0  0  0  0  0  0  0  0
  154.8084  140.7202  161.3304 H   0  0  0  0  0  0  0  0  0  0  0  0
  153.3863  140.9171  162.3630 H   0  0  0  0  0  0  0  0  0  0  0  0
  153.3379  143.9451  160.8321 H   0  0  0  0  0  0  0  0  0  0  0  0
  151.4938  145.1838  157.7843 H   0  0  0  0  0  0  0  0  0  0  0  0
  152.8328  145.6093  158.8531 H   0  0  0  0  0  0  0  0  0  0  0  0
  151.2013  145.4252  159.5107 H   0  0  0  0  0  0  0  0  0  0  0  0
  151.0766  142.8665  157.3284 H   0  0  0  0  0  0  0  0  0  0  0  0
  151.8557  141.4458  155.8390 H   0  0  0  0  0  0  0  0  0  0  0  0
  151.0607  139.8978  155.5488 H   0  0  0  0  0  0  0  0  0  0  0  0
  149.6444  142.1332  157.0565 H   0  0  0  0  0  0  0  0  0  0  0  0
  149.0717  142.9654  155.1996 H   0  0  0  0  0  0  0  0  0  0  0  0
  148.8670  139.4484  155.9313 H   0  0  0  0  0  0  0  0  0  0  0  0
  148.2864  140.2709  157.3494 H   0  0  0  0  0  0  0  0  0  0  0  0
  148.5321  139.6597  153.3765 H   0  0  0  0  0  0  0  0  0  0  0  0
  147.3036  138.4870  153.8100 H   0  0  0  0  0  0  0  0  0  0  0  0
  147.6156  139.7442  151.5234 H   0  0  0  0  0  0  0  0  0  0  0  0
  143.5842  143.0250  154.8269 H   0  0  0  0  0  0  0  0  0  0  0  0
  143.6334  144.2600  156.9996 H   0  0  0  0  0  0  0  0  0  0  0  0
  145.4702  143.9191  158.6113 H   0  0  0  0  0  0  0  0  0  0  0  0
  147.3293  142.3343  158.1276 H   0  0  0  0  0  0  0  0  0  0  0  0
  152.8917  139.8052  159.7791 H   0  0  0  0  0  0  0  0  0  0  0  0
  145.1186  141.0790  153.3540 H   0  0  0  0  0  0  0  0  0  0  0  0
  1  2  1  0  0  0  0
  1 25  1  0  0  0  0
  1 26  1  0  0  0  0
  1 27  1  0  0  0  0
  2 24  1  0  0  0  0
  2  3  2  0  0  0  0
  3  4  1  0  0  0  0
  3 28  1  0  0  0  0
  4  5  1  0  0  0  0
  4  6  2  0  0  0  0
  5 29  1  0  0  0  0
  5 30  1  0  0  0  0
  5 31  1  0  0  0  0
  6  7  1  0  0  0  0
  6 32  1  0  0  0  0
  7  8  1  0  0  0  0
  7 24  2  0  0  0  0
  8  9  1  0  0  0  0
  9 10  1  0  0  0  0
  9 33  1  0  0  0  0
  9 34  1  0  0  0  0
 10 11  1  0  0  0  0
 10 12  1  0  0  0  0
 10 35  1  0  0  0  0
 11 36  1  0  0  0  0
 12 13  1  0  0  0  0
 12 37  1  0  0  0  0
 12 38  1  0  0  0  0
 13 23  1  0  0  0  0
 13 14  1  0  0  0  0
 14 15  1  0  0  0  0
 14 17  2  0  0  0  0
 15 16  1  0  0  0  0
 15 39  1  0  0  0  0
 15 40  1  0  0  0  0
 16 41  1  0  0  0  0
 17 18  1  0  0  0  0
 17 47  1  0  0  0  0
 18 23  2  0  0  0  0
 18 19  1  0  0  0  0
 19 20  2  0  0  0  0
 19 42  1  0  0  0  0
 20 21  1  0  0  0  0
 20 43  1  0  0  0  0
 21 22  2  0  0  0  0
 21 44  1  0  0  0  0
 22 23  1  0  0  0  0
 22 45  1  0  0  0  0
 24 46  1  0  0  0  0
M  CHG  1  17   1
M  END
> <s_m_source_file>
AV-unprocessed.smi

> <i_m_source_file_index>
848

> <i_lp_mmshare_version>
43012

> <i_f3d_flags>
0

> <s_epik_input>
W0NIM11jMVtjSF1jKFtDSDNdKVtjSF1jKFtjSF0xKU9bQ0gyXVtDQEhdKFtPSF0pW0NIMl1uKGMobjIpW0NIMl1bT0hdKWMoYzIzKVtjSF1bY0hdW2NIXVtjSF0z

> <s_epik_cmdline>
J2VwaWtfcHl0aG9uJywgJy1waCcsICc3LjAnLCAnLXRuJywgJzgnLCAnLW1hJywgJzIwMCcsICctbWV0YWxfYmluZGluZycsICctaW1hZScsICc8aW5maWxlLm1hZT4nLCAnLW9tYWUnLCAnPG91dGZpbGUubWFlPic=

> <r_lp_tautomer_probability>
1

> <r_epik_Ionization_Penalty>
1.43292

> <r_epik_Ionization_Penalty_Charging>
1.43206

> <r_epik_Ionization_Penalty_Neutral>
0.000858184

> <r_epik_State_Penalty>
1.51673

> <r_epik_Charging_Adjusted_Penalty>
2.94879

> <i_epik_Tot_Q>
1

> <i_epik_Tot_abs_Q>
1

> <r_epik_Metal_State_Penalty>
5.56186

> <b_epik_Metal_Only>
0

> <s_lp_Force_Field>
OPLS_2005

> <r_lp_Energy>
19.6511

> <b_lp_Chiralities_Consistent>
1

> <s_lp_Variant>
AV-unprocessed.smi:848-4

> <Gold.Version>
5.8.1

> <Gold.Id.Protein>
6NUR|6NUR_protein|mol2

> <Gold.PLP.Fitness>
55.6294

> <Gold.PLP.PLP>
-46.7434

> <Gold.PLP.part.hbond>
-3.7050

> <Gold.PLP.part.metal>
0.0000

> <Gold.PLP.part.buried>
-6.4108

> <Gold.PLP.part.nonpolar>
-37.7416

> <Gold.PLP.part.repulsive>
0.0000

> <Gold.PLP.ligand.clash>
0.2560

> <Gold.PLP.ligand.torsion>
1.4439

> <Gold.PLP.Chemscore.Hbond>
4.0000

> <Gold.PLP.Chemscore.CHOScore>
0.0000

> <Gold.PLP.Chemscore.Metal>
0.0000

> <Gold.Chemscore.Hbonds>
donor molecule, donor type, donor heavy atom, donor atom, acceptor molecule, acceptor atom, score
      L1  H    11    36       P1  8028  1.00
      L1  H    16    41       P1  7957  1.00
      L1  H    17    47       P1 10175  2.00

> <Gold.PLP.Chemscore.Internal.Correction>
0.0299

> <Gold.Rescore>
     Score         DG    S(hbond)    S(metal)    S(lipo)     H(rot)  DE(clash)    DE(int)     intcor
     20.54     -21.86       2.87        0.00     124.67       3.05       0.07       1.25       ----

> <Gold.Chemscore.Fitness>
20.5396

> <Gold.Chemscore.DG>
-21.8621

> <Gold.Chemscore.ZeroCoef>
-5.4800

> <Gold.Chemscore.Hbond>
2.8735

> <Gold.Chemscore.Metal>
0.0000

> <Gold.Chemscore.Lipo>
124.6709

> <Gold.Chemscore.Internal_Hbond>
0.0000

> <Gold.Chemscore.DEClash>
0.0675

> <Gold.Chemscore.DEInternal>
1.2550

> <Gold.Chemscore.Rot>
3.0476

> <Gold.Chemscore.Internal.Correction>
   9.000000E+99

> <Gold.Chemscore.Hbonds>
donor molecule, donor type, donor heavy atom, donor atom, acceptor molecule, acceptor atom, score
      L1  H    11    36       P1  8028  0.98
      L1  H    16    41       P1  7957  0.91
      L1  H    17    47       P1 10175  0.43

> <Gold.Chemscore.Hbond.Weighted>
-9.5974

> <Gold.Chemscore.Metal.Weighted>
-0.0000

> <Gold.Chemscore.Lipo.Weighted>
-14.5865

> <Gold.Chemscore.Internal_Hbond.Weighted>
0.0000

> <Gold.Chemscore.DEClash.Weighted>
0.0675

> <Gold.Chemscore.DEInternal.Weighted>
1.2550

> <Gold.Chemscore.Rot.Weighted>
7.8018

> <Gold.Chemscore.Internal.Correction.Weighted>
   9.000000E+99

> <Gold.Protein.RotatedTorsions>
[ 6907 6896 6895 6894 ] final    3.75 input  -60.11 | X-H torsion
[ 7974 7965 7964 7962 ] final   37.01 input  175.53 | X-H torsion
[ 8008 7997 7996 7995 ] final   -0.77 input   59.86 | X-H torsion
[ 10167 10162 10161 10158 ] final  157.75 input  -65.29 | X-H torsion
[ 10718 10713 10712 10709 ] final   26.43 input   66.30 | X-H torsion
[ 10763 10752 10751 10750 ] final  -27.40 input  -60.55 | X-H torsion
[ 11005 11000 10999 10996 ] final    1.66 input  -57.11 | X-H torsion

> <Gold.Protein.ActiveResidues>
 VAL166  LYS551  ARG553  GLY616  TRP617  ASP618  TYR619  PRO620  LYS621  CYS622 
 ASP623  PHE694  ASN695  SER759  ASP760  ASP761  ALA762  ILE779  LEU786  VAL792 
 PHE793  MET794  SER795  GLU796  ALA797  LYS798  CYS799  TRP800  GLU811  SER814 

> <Gold.Protein.RotatedAtoms>
  151.6302  135.1023  160.0119 H   0  0  0  0  0  0  0  0  0  0  0  0  # atno 6907 bound_to 6896
  152.4110  133.6960  159.6407 H   0  0  0  0  0  0  0  0  0  0  0  0  # atno 6908 bound_to 6896
  150.8001  133.8540  159.3254 H   0  0  0  0  0  0  0  0  0  0  0  0  # atno 6909 bound_to 6896
  146.1169  139.5947  142.9315 H   0  0  0  0  0  0  0  0  0  0  0  0  # atno 7974 bound_to 7965
  154.6543  140.2576  155.7178 H   0  0  0  0  0  0  0  0  0  0  0  0  # atno 8008 bound_to 7997
  156.2590  140.2861  156.0911 H   0  0  0  0  0  0  0  0  0  0  0  0  # atno 8009 bound_to 7997
  155.1403  140.0380  157.2787 H   0  0  0  0  0  0  0  0  0  0  0  0  # atno 8010 bound_to 7997
  139.4824  144.4888  151.8338 H   0  0  0  0  0  0  0  0  0  0  0  0  # atno 10167 bound_to 10162
  157.2068  130.6915  149.6211 H   0  0  0  0  0  0  0  0  0  0  0  0  # atno 10718 bound_to 10713
  153.7315  135.6938  153.4988 H   0  0  0  0  0  0  0  0  0  0  0  0  # atno 10763 bound_to 10752
  153.2132  135.4395  155.0403 H   0  0  0  0  0  0  0  0  0  0  0  0  # atno 10764 bound_to 10752
  154.8251  135.3442  154.6845 H   0  0  0  0  0  0  0  0  0  0  0  0  # atno 10765 bound_to 10752
  140.6130  133.9731  155.8186 H   0  0  0  0  0  0  0  0  0  0  0  0  # atno 11005 bound_to 11000
  145.5547  141.0410  143.2259 LP  0  0  0  0  0  0  0  0  0  0  0  0  # atno 17320 bound_to 7965
  144.7561  139.7070  143.7253 LP  0  0  0  0  0  0  0  0  0  0  0  0  # atno 17321 bound_to 7965
  140.4370  144.2038  150.5890 LP  0  0  0  0  0  0  0  0  0  0  0  0  # atno 17342 bound_to 10162
  140.4721  143.2409  151.9074 LP  0  0  0  0  0  0  0  0  0  0  0  0  # atno 17343 bound_to 10162
  155.9694  130.4564  150.5925 LP  0  0  0  0  0  0  0  0  0  0  0  0  # atno 17370 bound_to 10713
  157.3713  131.0766  151.1555 LP  0  0  0  0  0  0  0  0  0  0  0  0  # atno 17371 bound_to 10713
  141.0795  134.0084  157.3407 LP  0  0  0  0  0  0  0  0  0  0  0  0  # atno 17394 bound_to 11000
  139.9184  135.0199  156.7971 LP  0  0  0  0  0  0  0  0  0  0  0  0  # atno 17395 bound_to 11000

$$$$
