AV-unprocessed.smi:447|AV-procd|sdf|2599|dock5
  -GOLD-   2262022593D 1   1.00000     0.00000
 Structure written by MMmdl.
 45 47  0  0  0  0  0  0  0  0  1 V2000
  149.5928  135.4489  157.2826 C   0  0  0  0  0  0  0  0  0  0  0  0
  150.9153  136.0431  156.8091 C   0  0  0  0  0  0  0  0  0  0  0  0
  151.5505  135.4853  155.9152 O   0  0  0  0  0  0  0  0  0  0  0  0
  151.3172  137.1737  157.4112 N   0  0  0  0  0  0  0  0  0  0  0  0
  152.5382  137.9142  157.0942 C   0  0  2  0  0  0  0  0  0  0  0  0
  153.7710  137.0596  157.4152 C   0  0  0  0  0  0  0  0  0  0  0  0
  152.5405  139.2154  157.8601 C   0  0  0  0  0  0  0  0  0  0  0  0
  153.5474  139.5702  158.6640 N   0  0  0  0  0  0  0  0  0  0  0  0
  153.1439  140.8012  159.1394 C   0  0  0  0  0  0  0  0  0  0  0  0
  153.7735  141.6872  160.0427 C   0  0  0  0  0  0  0  0  0  0  0  0
  153.1621  142.9109  160.3852 C   0  0  0  0  0  0  0  0  0  0  0  0
  151.9152  143.2650  159.8304 C   0  0  0  0  0  0  0  0  0  0  0  0
  151.2720  142.3966  158.9275 C   0  0  0  0  0  0  0  0  0  0  0  0
  151.8867  141.1760  158.5889 C   0  0  0  0  0  0  0  0  0  0  0  0
  151.5335  140.1206  157.7530 N   0  0  0  0  0  0  0  0  0  0  0  0
  150.3264  140.0373  156.9410 C   0  0  0  0  0  0  0  0  0  0  0  0
  150.4968  140.6788  155.5492 C   0  0  1  0  0  0  0  0  0  0  0  0
  151.6602  140.1742  154.9232 O   0  0  0  0  0  0  0  0  0  0  0  0
  149.2529  140.4863  154.6967 C   0  0  0  0  0  0  0  0  0  0  0  0
  148.8525  139.1954  154.2866 C   0  0  0  0  0  0  0  0  0  0  0  0
  147.6941  139.0274  153.5028 C   0  0  0  0  0  0  0  0  0  0  0  0
  146.9286  140.1481  153.1275 C   0  0  0  0  0  0  0  0  0  0  0  0
  147.3209  141.4367  153.5375 C   0  0  0  0  0  0  0  0  0  0  0  0
  148.4790  141.6053  154.3210 C   0  0  0  0  0  0  0  0  0  0  0  0
  149.1016  136.0926  158.0131 H   0  0  0  0  0  0  0  0  0  0  0  0
  149.7618  134.4752  157.7426 H   0  0  0  0  0  0  0  0  0  0  0  0
  148.9166  135.3154  156.4379 H   0  0  0  0  0  0  0  0  0  0  0  0
  150.7238  137.5644  158.1285 H   0  0  0  0  0  0  0  0  0  0  0  0
  152.5397  138.1114  156.0224 H   0  0  0  0  0  0  0  0  0  0  0  0
  154.6886  137.5884  157.1557 H   0  0  0  0  0  0  0  0  0  0  0  0
  153.7585  136.1254  156.8532 H   0  0  0  0  0  0  0  0  0  0  0  0
  153.8188  136.8118  158.4760 H   0  0  0  0  0  0  0  0  0  0  0  0
  154.7282  141.4238  160.4732 H   0  0  0  0  0  0  0  0  0  0  0  0
  153.6518  143.5800  161.0776 H   0  0  0  0  0  0  0  0  0  0  0  0
  151.4519  144.2029  160.0993 H   0  0  0  0  0  0  0  0  0  0  0  0
  150.3150  142.6626  158.5039 H   0  0  0  0  0  0  0  0  0  0  0  0
  150.0457  138.9882  156.8410 H   0  0  0  0  0  0  0  0  0  0  0  0
  149.5079  140.5108  157.4838 H   0  0  0  0  0  0  0  0  0  0  0  0
  150.6571  141.7497  155.6681 H   0  0  0  0  0  0  0  0  0  0  0  0
  152.0903  139.5849  155.5238 H   0  0  0  0  0  0  0  0  0  0  0  0
  149.4316  138.3297  154.5733 H   0  0  0  0  0  0  0  0  0  0  0  0
  147.3922  138.0386  153.1905 H   0  0  0  0  0  0  0  0  0  0  0  0
  146.0403  140.0192  152.5268 H   0  0  0  0  0  0  0  0  0  0  0  0
  146.7329  142.2965  153.2516 H   0  0  0  0  0  0  0  0  0  0  0  0
  148.7711  142.5976  154.6332 H   0  0  0  0  0  0  0  0  0  0  0  0
  1  2  1  0  0  0  0
  1 25  1  0  0  0  0
  1 26  1  0  0  0  0
  1 27  1  0  0  0  0
  2  3  2  0  0  0  0
  2  4  1  0  0  0  0
  4  5  1  0  0  0  0
  4 28  1  0  0  0  0
  5  6  1  0  0  0  0
  5  7  1  0  0  0  0
  5 29  1  0  0  0  0
  6 30  1  0  0  0  0
  6 31  1  0  0  0  0
  6 32  1  0  0  0  0
  7 15  1  0  0  0  0
  7  8  2  0  0  0  0
  8  9  1  0  0  0  0
  9 14  2  0  0  0  0
  9 10  1  0  0  0  0
 10 11  2  0  0  0  0
 10 33  1  0  0  0  0
 11 12  1  0  0  0  0
 11 34  1  0  0  0  0
 12 13  2  0  0  0  0
 12 35  1  0  0  0  0
 13 14  1  0  0  0  0
 13 36  1  0  0  0  0
 14 15  1  0  0  0  0
 15 16  1  0  0  0  0
 16 17  1  0  0  0  0
 16 37  1  0  0  0  0
 16 38  1  0  0  0  0
 17 18  1  0  0  0  0
 17 19  1  0  0  0  0
 17 39  1  0  0  0  0
 18 40  1  0  0  0  0
 19 24  1  0  0  0  0
 19 20  2  0  0  0  0
 20 21  1  0  0  0  0
 20 41  1  0  0  0  0
 21 22  2  0  0  0  0
 21 42  1  0  0  0  0
 22 23  1  0  0  0  0
 22 43  1  0  0  0  0
 23 24  2  0  0  0  0
 23 44  1  0  0  0  0
 24 45  1  0  0  0  0
M  END
> <s_m_source_file>
AV-unprocessed.smi

> <i_m_source_file_index>
447

> <i_lp_mmshare_version>
43012

> <i_f3d_flags>
0

> <s_epik_input>
W0NIM11DKD1PKVtOSF1bQ0BIXShbQ0gzXSljKG4xKW4oYyhjMTIpW2NIXVtjSF1bY0hdW2NIXTIpW0NIMl1bQ0BIXShbT0hdKWMzW2NIXVtjSF1bY0hdW2NIXVtjSF0z

> <s_epik_cmdline>
J2VwaWtfcHl0aG9uJywgJy1waCcsICc3LjAnLCAnLXRuJywgJzgnLCAnLW1hJywgJzIwMCcsICctbWV0YWxfYmluZGluZycsICctaW1hZScsICc8aW5maWxlLm1hZT4nLCAnLW9tYWUnLCAnPG91dGZpbGUubWFlPic=

> <r_epik_Ionization_Penalty>
0.13301

> <r_epik_Ionization_Penalty_Charging>
0

> <r_epik_Ionization_Penalty_Neutral>
0.13301

> <r_epik_State_Penalty>
0.122384

> <r_epik_Charging_Adjusted_Penalty>
0.122384

> <i_epik_Tot_Q>
0

> <i_epik_Tot_abs_Q>
0

> <r_epik_Metal_State_Penalty>
0.0997374

> <b_epik_Metal_Only>
0

> <s_lp_Force_Field>
OPLS_2005

> <r_lp_Energy>
6.23771

> <b_lp_Chiralities_Consistent>
1

> <s_lp_Variant>
AV-unprocessed.smi:447-3

> <Gold.Version>
5.8.1

> <Gold.Id.Protein>
6NUR|6NUR_protein|mol2

> <Gold.PLP.Fitness>
50.9715

> <Gold.PLP.PLP>
-42.9251

> <Gold.PLP.part.hbond>
-2.9172

> <Gold.PLP.part.metal>
0.0000

> <Gold.PLP.part.buried>
-4.0622

> <Gold.PLP.part.nonpolar>
-36.0089

> <Gold.PLP.part.repulsive>
0.1155

> <Gold.PLP.ligand.clash>
0.0000

> <Gold.PLP.ligand.torsion>
0.4889

> <Gold.PLP.Chemscore.Hbond>
2.9920

> <Gold.PLP.Chemscore.CHOScore>
0.0000

> <Gold.PLP.Chemscore.Metal>
0.0000

> <Gold.Chemscore.Hbonds>
donor molecule, donor type, donor heavy atom, donor atom, acceptor molecule, acceptor atom, score
      P1  H  7989  7998       L1    18  0.99
      P1  H  7997  8009       L1     8  1.00
      P1  H 10752 10765       L1     3  1.00

> <Gold.PLP.Chemscore.Internal.Correction>
0.0482

> <Gold.Rescore>
     Score         DG    S(hbond)    S(metal)    S(lipo)     H(rot)  DE(clash)    DE(int)     intcor
     19.85     -20.35       2.18        0.00     116.35       2.35       0.00       0.51       ----

> <Gold.Chemscore.Fitness>
19.8466

> <Gold.Chemscore.DG>
-20.3535

> <Gold.Chemscore.ZeroCoef>
-5.4800

> <Gold.Chemscore.Hbond>
2.1808

> <Gold.Chemscore.Metal>
0.0000

> <Gold.Chemscore.Lipo>
116.3490

> <Gold.Chemscore.Internal_Hbond>
0.0000

> <Gold.Chemscore.DEClash>
0.0009

> <Gold.Chemscore.DEInternal>
0.5060

> <Gold.Chemscore.Rot>
2.3528

> <Gold.Chemscore.Internal.Correction>
   9.000000E+99

> <Gold.Chemscore.Hbonds>
donor molecule, donor type, donor heavy atom, donor atom, acceptor molecule, acceptor atom, score
      P1  H  7989  7998       L1    18  0.41
      P1  H  7997  8009       L1     8  0.10
      P1  H 10752 10765       L1     3  1.00

> <Gold.Chemscore.Hbond.Weighted>
-7.2838

> <Gold.Chemscore.Metal.Weighted>
-0.0000

> <Gold.Chemscore.Lipo.Weighted>
-13.6128

> <Gold.Chemscore.Internal_Hbond.Weighted>
0.0000

> <Gold.Chemscore.DEClash.Weighted>
0.0009

> <Gold.Chemscore.DEInternal.Weighted>
0.5060

> <Gold.Chemscore.Rot.Weighted>
6.0231

> <Gold.Chemscore.Internal.Correction.Weighted>
   9.000000E+99

> <Gold.Protein.RotatedTorsions>
[ 6907 6896 6895 6894 ] final   12.53 input  -60.11 | X-H torsion
[ 7974 7965 7964 7962 ] final   44.01 input  175.53 | X-H torsion
[ 8008 7997 7996 7995 ] final  128.47 input   59.86 | X-H torsion
[ 10167 10162 10161 10158 ] final  166.68 input  -65.29 | X-H torsion
[ 10718 10713 10712 10709 ] final -179.40 input   66.30 | X-H torsion
[ 10763 10752 10751 10750 ] final -162.23 input  -60.55 | X-H torsion
[ 11005 11000 10999 10996 ] final  104.28 input  -57.11 | X-H torsion

> <Gold.Protein.ActiveResidues>
 VAL166  LYS551  ARG553  GLY616  TRP617  ASP618  TYR619  PRO620  LYS621  CYS622 
 ASP623  PHE694  ASN695  SER759  ASP760  ASP761  ALA762  ILE779  LEU786  VAL792 
 PHE793  MET794  SER795  GLU796  ALA797  LYS798  CYS799  TRP800  GLU811  SER814 

> <Gold.Protein.RotatedAtoms>
  151.7718  135.0784  160.0360 H   0  0  0  0  0  0  0  0  0  0  0  0  # atno 6907 bound_to 6896
  152.3284  133.5926  159.5801 H   0  0  0  0  0  0  0  0  0  0  0  0  # atno 6908 bound_to 6896
  150.7408  133.9822  159.3622 H   0  0  0  0  0  0  0  0  0  0  0  0  # atno 6909 bound_to 6896
  146.0605  139.5122  142.9661 H   0  0  0  0  0  0  0  0  0  0  0  0  # atno 7974 bound_to 7965
  156.2915  140.2644  156.2440 H   0  0  0  0  0  0  0  0  0  0  0  0  # atno 8008 bound_to 7997
  154.9948  140.0388  157.2353 H   0  0  0  0  0  0  0  0  0  0  0  0  # atno 8009 bound_to 7997
  154.7653  140.2768  155.6186 H   0  0  0  0  0  0  0  0  0  0  0  0  # atno 8010 bound_to 7997
  139.4929  144.4002  151.9418 H   0  0  0  0  0  0  0  0  0  0  0  0  # atno 10167 bound_to 10162
  156.8585  130.9743  151.3085 H   0  0  0  0  0  0  0  0  0  0  0  0  # atno 10718 bound_to 10713
  154.7233  135.3030  154.9012 H   0  0  0  0  0  0  0  0  0  0  0  0  # atno 10763 bound_to 10752
  153.9877  135.6722  153.4757 H   0  0  0  0  0  0  0  0  0  0  0  0  # atno 10764 bound_to 10752
  153.0853  135.4987  154.8502 H   0  0  0  0  0  0  0  0  0  0  0  0  # atno 10765 bound_to 10752
  139.8790  134.9294  156.5337 H   0  0  0  0  0  0  0  0  0  0  0  0  # atno 11005 bound_to 11000
  145.6568  141.0250  143.1730 LP  0  0  0  0  0  0  0  0  0  0  0  0  # atno 17320 bound_to 7965
  144.7172  139.8154  143.7394 LP  0  0  0  0  0  0  0  0  0  0  0  0  # atno 17321 bound_to 7965
  140.3441  144.3168  150.5961 LP  0  0  0  0  0  0  0  0  0  0  0  0  # atno 17342 bound_to 10162
  140.5541  143.2202  151.7877 LP  0  0  0  0  0  0  0  0  0  0  0  0  # atno 17343 bound_to 10162
  157.6263  130.8694  149.9196 LP  0  0  0  0  0  0  0  0  0  0  0  0  # atno 17370 bound_to 10713
  156.0789  130.3675  150.0620 LP  0  0  0  0  0  0  0  0  0  0  0  0  # atno 17371 bound_to 10713
  140.8362  133.8241  155.9031 LP  0  0  0  0  0  0  0  0  0  0  0  0  # atno 17394 bound_to 11000
  140.9281  134.2056  157.4882 LP  0  0  0  0  0  0  0  0  0  0  0  0  # atno 17395 bound_to 11000

$$$$
