AV-unprocessed.smi:2582|AV-procd|sdf|10134|dock1
  -GOLD-   2272014143D 1   1.00000     0.00000
 Structure written by MMmdl.
 36 38  0  0  0  0  0  0  0  0  2 V2000
  152.5122  138.7824  158.6299 O   0  0  0  0  0  0  0  0  0  0  0  0
  151.9161  139.6921  158.0540 C   0  0  0  0  0  0  0  0  0  0  0  0
  151.8666  141.0600  158.5759 C   0  0  0  0  0  0  0  0  0  0  0  0
  151.2257  142.0744  157.9474 C   0  0  0  0  0  0  0  0  0  0  0  0
  151.2210  143.3565  158.5118 N   0  0  0  0  0  0  0  0  0  0  0  0
  152.0854  143.6651  159.6481 C   0  0  0  0  0  0  0  0  0  0  0  0
  152.1888  145.0753  159.0774 C   0  0  0  0  0  0  0  0  0  0  0  0
  151.7770  144.4646  157.7424 C   0  0  0  0  0  0  0  0  0  0  0  0
  150.5633  141.7299  156.6982 C   0  0  0  0  0  0  0  0  0  0  0  0
  150.5808  140.5392  156.2046 N   0  0  0  0  0  0  0  0  0  0  0  0
  151.2454  139.5222  156.8729 N   0  0  0  0  0  0  0  0  0  0  0  0
  151.1820  138.2076  156.2033 C   0  0  1  0  0  0  0  0  0  0  0  0
  150.4695  137.1535  157.0790 C   0  0  0  0  0  0  0  0  0  0  0  0
  150.4075  135.8059  156.3436 C   0  0  0  0  0  0  0  0  0  0  0  0
  149.7551  135.9638  154.9596 C   0  0  0  0  0  0  0  0  0  0  0  0
  150.4646  136.9851  154.1582 N   0  3  0  0  0  0  0  0  0  0  0  0
  150.5072  138.3090  154.8169 C   0  0  0  0  0  0  0  0  0  0  0  0
  152.3717  141.2621  159.5099 H   0  0  0  0  0  0  0  0  0  0  0  0
  151.5798  143.6073  160.6125 H   0  0  0  0  0  0  0  0  0  0  0  0
  153.0370  143.1325  159.6473 H   0  0  0  0  0  0  0  0  0  0  0  0
  151.4501  145.7669  159.4867 H   0  0  0  0  0  0  0  0  0  0  0  0
  153.1955  145.4937  159.0899 H   0  0  0  0  0  0  0  0  0  0  0  0
  152.6258  144.1796  157.1184 H   0  0  0  0  0  0  0  0  0  0  0  0
  151.0303  145.0386  157.1930 H   0  0  0  0  0  0  0  0  0  0  0  0
  150.0401  142.5437  156.1966 H   0  0  0  0  0  0  0  0  0  0  0  0
  152.1879  137.8236  156.0255 H   0  0  0  0  0  0  0  0  0  0  0  0
  150.9935  137.0359  158.0281 H   0  0  0  0  0  0  0  0  0  0  0  0
  149.4548  137.4724  157.3200 H   0  0  0  0  0  0  0  0  0  0  0  0
  151.4148  135.4025  156.2313 H   0  0  0  0  0  0  0  0  0  0  0  0
  149.8497  135.0823  156.9388 H   0  0  0  0  0  0  0  0  0  0  0  0
  149.7717  135.0149  154.4229 H   0  0  0  0  0  0  0  0  0  0  0  0
  148.7083  136.2526  155.0639 H   0  0  0  0  0  0  0  0  0  0  0  0
  151.4129  136.6725  154.0055 H   0  0  0  0  0  0  0  0  0  0  0  0
  149.4878  138.6881  154.8994 H   0  0  0  0  0  0  0  0  0  0  0  0
  151.0554  139.0022  154.1780 H   0  0  0  0  0  0  0  0  0  0  0  0
  150.0044  137.0786  153.2639 H   0  0  0  0  0  0  0  0  0  0  0  0
  1  2  2  0  0  0  0
  2 11  1  0  0  0  0
  2  3  1  0  0  0  0
  3  4  2  0  0  0  0
  3 18  1  0  0  0  0
  4  5  1  0  0  0  0
  4  9  1  0  0  0  0
  5  8  1  0  0  0  0
  5  6  1  0  0  0  0
  6  7  1  0  0  0  0
  6 19  1  0  0  0  0
  6 20  1  0  0  0  0
  7  8  1  0  0  0  0
  7 21  1  0  0  0  0
  7 22  1  0  0  0  0
  8 23  1  0  0  0  0
  8 24  1  0  0  0  0
  9 10  2  0  0  0  0
  9 25  1  0  0  0  0
 10 11  1  0  0  0  0
 11 12  1  0  0  0  0
 12 17  1  0  0  0  0
 12 13  1  0  0  0  0
 12 26  1  0  0  0  0
 13 14  1  0  0  0  0
 13 27  1  0  0  0  0
 13 28  1  0  0  0  0
 14 15  1  0  0  0  0
 14 29  1  0  0  0  0
 14 30  1  0  0  0  0
 15 16  1  0  0  0  0
 15 31  1  0  0  0  0
 15 32  1  0  0  0  0
 16 17  1  0  0  0  0
 16 33  1  0  0  0  0
 16 36  1  0  0  0  0
 17 34  1  0  0  0  0
 17 35  1  0  0  0  0
M  CHG  1  16   1
M  END
> <s_m_source_file>
AV-unprocessed.smi

> <i_m_source_file_index>
2582

> <i_lp_mmshare_version>
43012

> <i_f3d_flags>
0

> <s_epik_input>
W0NIMl0xW0NIMl1bQ0gyXU4xYyhbY0hdYzI9TylbY0hdbm4yW0NAQEhdM1tDSDJdW0NIMl1bQ0gyXVtOSF1bQ0gyXTM=

> <s_epik_cmdline>
J2VwaWtfcHl0aG9uJywgJy1waCcsICc3LjAnLCAnLXRuJywgJzgnLCAnLW1hJywgJzIwMCcsICctbWV0YWxfYmluZGluZycsICctaW1hZScsICc8aW5maWxlLm1hZT4nLCAnLW9tYWUnLCAnPG91dGZpbGUubWFlPic=

> <r_lp_tautomer_probability>
1

> <r_epik_Ionization_Penalty>
0.00148886

> <r_epik_Ionization_Penalty_Charging>
0.0014053

> <r_epik_Ionization_Penalty_Neutral>
8.35615e-05

> <r_epik_State_Penalty>
-0

> <r_epik_Charging_Adjusted_Penalty>
0.0014053

> <i_epik_Tot_Q>
1

> <i_epik_Tot_abs_Q>
1

> <r_epik_Metal_State_Penalty>
-0

> <b_epik_Metal_Only>
0

> <s_lp_Force_Field>
OPLS_2005

> <r_lp_Energy>
54.8166

> <b_lp_Chiralities_Consistent>
1

> <s_lp_Variant>
AV-unprocessed.smi:2582-2

> <Gold.Version>
5.8.1

> <Gold.Id.Protein>
6NUR|6NUR_protein|mol2

> <Gold.PLP.Fitness>
39.0755

> <Gold.PLP.PLP>
-30.2452

> <Gold.PLP.part.hbond>
-2.0000

> <Gold.PLP.part.metal>
0.0000

> <Gold.PLP.part.buried>
-4.8447

> <Gold.PLP.part.nonpolar>
-24.6010

> <Gold.PLP.part.repulsive>
0.1708

> <Gold.PLP.ligand.clash>
0.0000

> <Gold.PLP.ligand.torsion>
0.1387

> <Gold.PLP.Chemscore.Hbond>
2.0000

> <Gold.PLP.Chemscore.CHOScore>
1.0000

> <Gold.PLP.Chemscore.Metal>
0.0000

> <Gold.Chemscore.Hbonds>
donor molecule, donor type, donor heavy atom, donor atom, acceptor molecule, acceptor atom, score
      L1  H    16    36       P1  7948  1.73
      L1  C     9    25       P1  8028  1.00

> <Gold.PLP.Chemscore.Internal.Correction>
0.1077

> <Gold.Rescore>
     Score         DG    S(hbond)    S(metal)    S(lipo)     H(rot)  DE(clash)    DE(int)     intcor
     14.48     -14.68       0.91        0.00      78.86       1.20       0.01       0.19       ----

> <Gold.Chemscore.Fitness>
14.4754

> <Gold.Chemscore.DG>
-14.6783

> <Gold.Chemscore.ZeroCoef>
-5.4800

> <Gold.Chemscore.Hbond>
0.9131

> <Gold.Chemscore.Metal>
0.0000

> <Gold.Chemscore.Lipo>
78.8556

> <Gold.Chemscore.Internal_Hbond>
0.0000

> <Gold.Chemscore.DEClash>
0.0149

> <Gold.Chemscore.DEInternal>
0.1881

> <Gold.Chemscore.Rot>
1.2022

> <Gold.Chemscore.Internal.Correction>
   9.000000E+99

> <Gold.Chemscore.Hbonds>
donor molecule, donor type, donor heavy atom, donor atom, acceptor molecule, acceptor atom, score
      L1  H    16    36       P1  7948  0.16

> <Gold.Chemscore.Hbond.Weighted>
-3.0499

> <Gold.Chemscore.Metal.Weighted>
-0.0000

> <Gold.Chemscore.Lipo.Weighted>
-9.2261

> <Gold.Chemscore.Internal_Hbond.Weighted>
0.0000

> <Gold.Chemscore.DEClash.Weighted>
0.0149

> <Gold.Chemscore.DEInternal.Weighted>
0.1881

> <Gold.Chemscore.Rot.Weighted>
3.0777

> <Gold.Chemscore.Internal.Correction.Weighted>
   9.000000E+99

> <Gold.Protein.RotatedTorsions>
[ 6907 6896 6895 6894 ] final   65.00 input  -60.11 | X-H torsion
[ 7974 7965 7964 7962 ] final  -54.88 input  175.53 | X-H torsion
[ 8008 7997 7996 7995 ] final -119.62 input   59.86 | X-H torsion
[ 10167 10162 10161 10158 ] final  137.14 input  -65.29 | X-H torsion
[ 10718 10713 10712 10709 ] final  170.00 input   66.30 | X-H torsion
[ 10763 10752 10751 10750 ] final  119.74 input  -60.55 | X-H torsion
[ 11005 11000 10999 10996 ] final  -29.12 input  -57.11 | X-H torsion

> <Gold.Protein.ActiveResidues>
 VAL166  LYS551  ARG553  GLY616  TRP617  ASP618  TYR619  PRO620  LYS621  CYS622 
 ASP623  PHE694  ASN695  SER759  ASP760  ASP761  ALA762  ILE779  LEU786  VAL792 
 PHE793  MET794  SER795  GLU796  ALA797  LYS798  CYS799  TRP800  GLU811  SER814 

> <Gold.Protein.RotatedAtoms>
  152.4374  134.5659  159.9907 H   0  0  0  0  0  0  0  0  0  0  0  0  # atno 6907 bound_to 6896
  151.5765  133.3377  159.3008 H   0  0  0  0  0  0  0  0  0  0  0  0  # atno 6908 bound_to 6896
  150.8275  134.7547  159.6889 H   0  0  0  0  0  0  0  0  0  0  0  0  # atno 6909 bound_to 6896
  145.8806  140.8147  142.9842 H   0  0  0  0  0  0  0  0  0  0  0  0  # atno 7974 bound_to 7965
  155.1187  140.0398  157.2744 H   0  0  0  0  0  0  0  0  0  0  0  0  # atno 8008 bound_to 7997
  154.6630  140.2595  155.7063 H   0  0  0  0  0  0  0  0  0  0  0  0  # atno 8009 bound_to 7997
  156.2627  140.2813  156.1109 H   0  0  0  0  0  0  0  0  0  0  0  0  # atno 8010 bound_to 7997
  139.5155  144.6426  151.5526 H   0  0  0  0  0  0  0  0  0  0  0  0  # atno 10167 bound_to 10162
  157.0145  131.0214  151.2793 H   0  0  0  0  0  0  0  0  0  0  0  0  # atno 10718 bound_to 10713
  153.5877  135.3472  155.2899 H   0  0  0  0  0  0  0  0  0  0  0  0  # atno 10763 bound_to 10752
  154.8657  135.4197  154.2551 H   0  0  0  0  0  0  0  0  0  0  0  0  # atno 10764 bound_to 10752
  153.3351  135.7046  153.6985 H   0  0  0  0  0  0  0  0  0  0  0  0  # atno 10765 bound_to 10752
  140.9268  133.7363  156.0879 H   0  0  0  0  0  0  0  0  0  0  0  0  # atno 11005 bound_to 11000
  144.6727  140.1377  143.7439 LP  0  0  0  0  0  0  0  0  0  0  0  0  # atno 17320 bound_to 7965
  145.9028  139.2441  143.1483 LP  0  0  0  0  0  0  0  0  0  0  0  0  # atno 17321 bound_to 7965
  140.6199  143.9278  150.6518 LP  0  0  0  0  0  0  0  0  0  0  0  0  # atno 17342 bound_to 10162
  140.2548  143.3567  152.1374 LP  0  0  0  0  0  0  0  0  0  0  0  0  # atno 17343 bound_to 10162
  157.5295  130.8049  149.7901 LP  0  0  0  0  0  0  0  0  0  0  0  0  # atno 17370 bound_to 10713
  156.0124  130.3827  150.2221 LP  0  0  0  0  0  0  0  0  0  0  0  0  # atno 17371 bound_to 10713
  140.7915  134.3612  157.5463 LP  0  0  0  0  0  0  0  0  0  0  0  0  # atno 17394 bound_to 11000
  139.8787  134.9143  156.3104 LP  0  0  0  0  0  0  0  0  0  0  0  0  # atno 17395 bound_to 11000

$$$$
