AV-unprocessed.smi:2739|AV-procd|sdf|10553|dock6
  -GOLD-   2272015 03D 1   1.00000     0.00000
 Structure written by MMmdl.
 35 35  0  0  0  0  0  0  0  0  1 V2000
  152.8371  143.2169  160.6416 C   0  0  0  0  0  0  0  0  0  0  0  0
  152.4044  143.1097  159.1722 C   0  0  0  0  0  0  0  0  0  0  0  0
  151.1018  143.8672  158.8540 C   0  0  1  0  0  0  0  0  0  0  0  0
  151.3014  145.3895  158.9259 C   0  0  0  0  0  0  0  0  0  0  0  0
  150.6121  143.4934  157.5297 N   0  0  0  0  0  0  0  0  0  0  0  0
  150.4854  142.2385  157.0692 C   0  0  0  0  0  0  0  0  0  0  0  0
  150.7983  141.2412  157.7188 O   0  0  0  0  0  0  0  0  0  0  0  0
  149.9164  142.0844  155.6575 C   0  0  0  0  0  0  0  0  0  0  0  0
  149.9442  140.6975  155.2272 N   0  0  0  0  0  0  0  0  0  0  0  0
  148.8828  139.8713  154.9260 C   0  0  0  0  0  0  0  0  0  0  0  0
  149.3998  138.6535  154.5895 C   0  0  0  0  0  0  0  0  0  0  0  0
  150.8091  138.8292  154.7127 C   0  0  0  0  0  0  0  0  0  0  0  0
  151.9067  137.8231  154.4835 C   0  0  1  0  0  0  0  0  0  0  0  0
  153.1471  138.1450  155.3281 C   0  0  0  0  0  0  0  0  0  0  0  0
  151.4944  136.5062  154.7864 O   0  0  0  0  0  0  0  0  0  0  0  0
  151.1263  140.0585  155.0928 N   0  0  0  0  0  0  0  0  0  0  0  0
  153.7840  142.7017  160.8038 H   0  0  0  0  0  0  0  0  0  0  0  0
  152.1017  142.7709  161.3114 H   0  0  0  0  0  0  0  0  0  0  0  0
  152.9712  144.2581  160.9363 H   0  0  0  0  0  0  0  0  0  0  0  0
  153.2072  143.4999  158.5454 H   0  0  0  0  0  0  0  0  0  0  0  0
  152.2957  142.0577  158.9043 H   0  0  0  0  0  0  0  0  0  0  0  0
  150.3604  143.5850  159.6039 H   0  0  0  0  0  0  0  0  0  0  0  0
  151.6528  145.6925  159.9125 H   0  0  0  0  0  0  0  0  0  0  0  0
  150.3682  145.9204  158.7343 H   0  0  0  0  0  0  0  0  0  0  0  0
  152.0337  145.7292  158.1926 H   0  0  0  0  0  0  0  0  0  0  0  0
  150.3315  144.2487  156.9215 H   0  0  0  0  0  0  0  0  0  0  0  0
  148.8869  142.4439  155.6322 H   0  0  0  0  0  0  0  0  0  0  0  0
  150.4865  142.6908  154.9518 H   0  0  0  0  0  0  0  0  0  0  0  0
  147.8597  140.2131  154.9813 H   0  0  0  0  0  0  0  0  0  0  0  0
  148.8534  137.7671  154.3031 H   0  0  0  0  0  0  0  0  0  0  0  0
  152.1916  137.8309  153.4305 H   0  0  0  0  0  0  0  0  0  0  0  0
  153.5383  139.1346  155.0891 H   0  0  0  0  0  0  0  0  0  0  0  0
  153.9451  137.4243  155.1474 H   0  0  0  0  0  0  0  0  0  0  0  0
  152.9166  138.1281  156.3941 H   0  0  0  0  0  0  0  0  0  0  0  0
  151.2003  136.0948  153.9879 H   0  0  0  0  0  0  0  0  0  0  0  0
  1  2  1  0  0  0  0
  1 17  1  0  0  0  0
  1 18  1  0  0  0  0
  1 19  1  0  0  0  0
  2  3  1  0  0  0  0
  2 20  1  0  0  0  0
  2 21  1  0  0  0  0
  3  4  1  0  0  0  0
  3  5  1  0  0  0  0
  3 22  1  0  0  0  0
  4 23  1  0  0  0  0
  4 24  1  0  0  0  0
  4 25  1  0  0  0  0
  5  6  1  0  0  0  0
  5 26  1  0  0  0  0
  6  7  2  0  0  0  0
  6  8  1  0  0  0  0
  8  9  1  0  0  0  0
  8 27  1  0  0  0  0
  8 28  1  0  0  0  0
  9 16  1  0  0  0  0
  9 10  1  0  0  0  0
 10 11  2  0  0  0  0
 10 29  1  0  0  0  0
 11 12  1  0  0  0  0
 11 30  1  0  0  0  0
 12 13  1  0  0  0  0
 12 16  2  0  0  0  0
 13 14  1  0  0  0  0
 13 15  1  0  0  0  0
 13 31  1  0  0  0  0
 14 32  1  0  0  0  0
 14 33  1  0  0  0  0
 14 34  1  0  0  0  0
 15 35  1  0  0  0  0
M  END
> <s_m_source_file>
AV-unprocessed.smi

> <i_m_source_file_index>
2739

> <i_lp_mmshare_version>
43012

> <i_f3d_flags>
0

> <s_epik_input>
W0NIM11bQ0gyXVtDQEhdKFtDSDNdKVtOSF1DKD1PKVtDSDJdbjFbY0hdW2NIXWMobjEpW0NASF0oW0NIM10pW09IXQ==

> <s_epik_cmdline>
J2VwaWtfcHl0aG9uJywgJy1waCcsICc3LjAnLCAnLXRuJywgJzgnLCAnLW1hJywgJzIwMCcsICctbWV0YWxfYmluZGluZycsICctaW1hZScsICc8aW5maWxlLm1hZT4nLCAnLW9tYWUnLCAnPG91dGZpbGUubWFlPic=

> <r_lp_tautomer_probability>
1

> <r_epik_Ionization_Penalty>
5.22246e-06

> <r_epik_Ionization_Penalty_Charging>
0

> <r_epik_Ionization_Penalty_Neutral>
5.22246e-06

> <r_epik_State_Penalty>
-0

> <r_epik_Charging_Adjusted_Penalty>
0

> <i_epik_Tot_Q>
0

> <i_epik_Tot_abs_Q>
0

> <r_epik_Metal_State_Penalty>
-0

> <b_epik_Metal_Only>
0

> <s_lp_Force_Field>
OPLS_2005

> <r_lp_Energy>
1.19937

> <b_lp_Chiralities_Consistent>
1

> <s_lp_Variant>
AV-unprocessed.smi:2739-4

> <Gold.Version>
5.8.1

> <Gold.Id.Protein>
6NUR|6NUR_protein|mol2

> <Gold.PLP.Fitness>
46.0942

> <Gold.PLP.PLP>
-36.3345

> <Gold.PLP.part.hbond>
-4.0000

> <Gold.PLP.part.metal>
0.0000

> <Gold.PLP.part.buried>
-1.9482

> <Gold.PLP.part.nonpolar>
-31.7799

> <Gold.PLP.part.repulsive>
0.0911

> <Gold.PLP.ligand.clash>
0.0000

> <Gold.PLP.ligand.torsion>
0.9355

> <Gold.PLP.Chemscore.Hbond>
3.8640

> <Gold.PLP.Chemscore.CHOScore>
0.0000

> <Gold.PLP.Chemscore.Metal>
0.0000

> <Gold.Chemscore.Hbonds>
donor molecule, donor type, donor heavy atom, donor atom, acceptor molecule, acceptor atom, score
      L1  H     5    26       P1  8028  0.83
      P1  H  7989  7998       L1    16  0.85
      P1  H 10752 10763       L1    15  0.35

> <Gold.PLP.Chemscore.Internal.Correction>
0.0387

> <Gold.Rescore>
     Score         DG    S(hbond)    S(metal)    S(lipo)     H(rot)  DE(clash)    DE(int)     intcor
     18.03     -20.80       3.24        0.00      89.75       2.34       2.05       0.72       ----

> <Gold.Chemscore.Fitness>
18.0330

> <Gold.Chemscore.DG>
-20.7996

> <Gold.Chemscore.ZeroCoef>
-5.4800

> <Gold.Chemscore.Hbond>
3.2402

> <Gold.Chemscore.Metal>
0.0000

> <Gold.Chemscore.Lipo>
89.7459

> <Gold.Chemscore.Internal_Hbond>
0.0000

> <Gold.Chemscore.DEClash>
2.0490

> <Gold.Chemscore.DEInternal>
0.7176

> <Gold.Chemscore.Rot>
2.3448

> <Gold.Chemscore.Internal.Correction>
   9.000000E+99

> <Gold.Chemscore.Hbonds>
donor molecule, donor type, donor heavy atom, donor atom, acceptor molecule, acceptor atom, score
      L1  H     5    26       P1  8028  0.76
      L1  H    15    35       P1  7949  0.01
      P1  H  7989  7998       L1    16  0.06

> <Gold.Chemscore.Hbond.Weighted>
-10.8221

> <Gold.Chemscore.Metal.Weighted>
-0.0000

> <Gold.Chemscore.Lipo.Weighted>
-10.5003

> <Gold.Chemscore.Internal_Hbond.Weighted>
0.0000

> <Gold.Chemscore.DEClash.Weighted>
2.0490

> <Gold.Chemscore.DEInternal.Weighted>
0.7176

> <Gold.Chemscore.Rot.Weighted>
6.0027

> <Gold.Chemscore.Internal.Correction.Weighted>
   9.000000E+99

> <Gold.Protein.RotatedTorsions>
[ 6907 6896 6895 6894 ] final  -54.52 input  -60.11 | X-H torsion
[ 7974 7965 7964 7962 ] final  131.55 input  175.53 | X-H torsion
[ 8008 7997 7996 7995 ] final   12.21 input   59.86 | X-H torsion
[ 10167 10162 10161 10158 ] final   53.67 input  -65.29 | X-H torsion
[ 10718 10713 10712 10709 ] final  173.85 input   66.30 | X-H torsion
[ 10763 10752 10751 10750 ] final   61.80 input  -60.55 | X-H torsion
[ 11005 11000 10999 10996 ] final  141.30 input  -57.11 | X-H torsion

> <Gold.Protein.ActiveResidues>
 VAL166  LYS551  ARG553  GLY616  TRP617  ASP618  TYR619  PRO620  LYS621  CYS622 
 ASP623  PHE694  ASN695  SER759  ASP760  ASP761  ALA762  ILE779  LEU786  VAL792 
 PHE793  MET794  SER795  GLU796  ALA797  LYS798  CYS799  TRP800  GLU811  SER814 

> <Gold.Protein.RotatedAtoms>
  150.8331  134.7592  159.6869 H   0  0  0  0  0  0  0  0  0  0  0  0  # atno 6907 bound_to 6896
  152.4432  134.5545  159.9886 H   0  0  0  0  0  0  0  0  0  0  0  0  # atno 6908 bound_to 6896
  151.5701  133.3353  159.3024 H   0  0  0  0  0  0  0  0  0  0  0  0  # atno 6909 bound_to 6896
  145.0061  139.4265  143.5268 H   0  0  0  0  0  0  0  0  0  0  0  0  # atno 7974 bound_to 7965
  154.8175  140.2878  155.5810 H   0  0  0  0  0  0  0  0  0  0  0  0  # atno 8008 bound_to 7997
  156.2994  140.2556  156.3005 H   0  0  0  0  0  0  0  0  0  0  0  0  # atno 8009 bound_to 7997
  154.9377  140.0382  157.2070 H   0  0  0  0  0  0  0  0  0  0  0  0  # atno 8010 bound_to 7997
  140.2382  144.3612  150.6389 H   0  0  0  0  0  0  0  0  0  0  0  0  # atno 10167 bound_to 10162
  156.9582  131.0052  151.2933 H   0  0  0  0  0  0  0  0  0  0  0  0  # atno 10718 bound_to 10713
  152.9962  135.5487  154.6092 H   0  0  0  0  0  0  0  0  0  0  0  0  # atno 10763 bound_to 10752
  154.5416  135.2820  155.1092 H   0  0  0  0  0  0  0  0  0  0  0  0  # atno 10764 bound_to 10752
  154.2367  135.6424  153.5246 H   0  0  0  0  0  0  0  0  0  0  0  0  # atno 10765 bound_to 10752
  140.0391  134.9314  157.0809 H   0  0  0  0  0  0  0  0  0  0  0  0  # atno 11005 bound_to 11000
  146.3461  139.9478  142.8732 LP  0  0  0  0  0  0  0  0  0  0  0  0  # atno 17320 bound_to 7965
  145.2086  140.9886  143.4114 LP  0  0  0  0  0  0  0  0  0  0  0  0  # atno 17321 bound_to 7965
  140.6133  143.2171  151.6842 LP  0  0  0  0  0  0  0  0  0  0  0  0  # atno 17342 bound_to 10162
  139.5086  144.3605  152.0566 LP  0  0  0  0  0  0  0  0  0  0  0  0  # atno 17343 bound_to 10162
  157.5676  130.8288  149.8348 LP  0  0  0  0  0  0  0  0  0  0  0  0  # atno 17370 bound_to 10713
  156.0333  130.3758  150.1627 LP  0  0  0  0  0  0  0  0  0  0  0  0  # atno 17371 bound_to 10713
  140.4098  134.1993  155.7163 LP  0  0  0  0  0  0  0  0  0  0  0  0  # atno 17394 bound_to 11000
  141.1873  133.8283  157.1035 LP  0  0  0  0  0  0  0  0  0  0  0  0  # atno 17395 bound_to 11000

$$$$
