AV-unprocessed.smi:1046|AV-procd|sdf|4558|dock3
  -GOLD-   22720 2593D 1   1.00000     0.00000
 Structure written by MMmdl.
 54 56  0  0  0  0  0  0  0  0  3 V2000
  152.2413  144.1054  161.5928 C   0  0  0  0  0  0  0  0  0  0  0  0
  152.1109  143.2432  160.3486 C   0  0  0  0  0  0  0  0  0  0  0  0
  151.2467  143.6740  159.3171 C   0  0  0  0  0  0  0  0  0  0  0  0
  151.1463  142.8628  158.1930 C   0  0  0  0  0  0  0  0  0  0  0  0
  150.3912  143.0057  157.0273 N   0  3  0  0  0  0  0  0  0  0  0  0
  150.6225  141.9469  156.2030 C   0  0  0  0  0  0  0  0  0  0  0  0
  151.5138  141.1285  156.8254 N   0  0  0  0  0  0  0  0  0  0  0  0
  152.0997  139.8601  156.3674 C   0  0  0  0  0  0  0  0  0  0  0  0
  151.7241  138.6636  157.2662 C   0  0  2  0  0  0  0  0  0  0  0  0
  152.7862  137.7321  157.2855 O   0  0  0  0  0  0  0  0  0  0  0  0
  150.4672  137.9220  156.7696 C   0  0  0  0  0  0  0  0  0  0  0  0
  150.6060  137.2384  155.4784 N   0  0  0  0  0  0  0  0  0  0  0  0
  149.5613  136.2398  155.2517 C   0  0  0  0  0  0  0  0  0  0  0  0
  148.1776  136.8584  154.9654 C   0  0  0  0  0  0  0  0  0  0  0  0
  148.2501  137.7716  153.7957 N   0  3  0  0  0  0  0  0  0  0  0  0
  146.9247  138.3358  153.4346 C   0  0  0  0  0  0  0  0  0  0  0  0
  146.9122  138.9749  152.0353 C   0  0  0  0  0  0  0  0  0  0  0  0
  146.5863  138.0051  151.0619 O   0  0  0  0  0  0  0  0  0  0  0  0
  149.3037  138.8015  153.9994 C   0  0  0  0  0  0  0  0  0  0  0  0
  150.6558  138.1293  154.3161 C   0  0  0  0  0  0  0  0  0  0  0  0
  151.8704  141.6608  158.0707 C   0  0  0  0  0  0  0  0  0  0  0  0
  152.7274  141.2225  159.0781 C   0  0  0  0  0  0  0  0  0  0  0  0
  152.8426  142.0332  160.2300 C   0  0  0  0  0  0  0  0  0  0  0  0
  153.7691  141.5790  161.3451 C   0  0  0  0  0  0  0  0  0  0  0  0
  151.5724  144.9658  161.5538 H   0  0  0  0  0  0  0  0  0  0  0  0
  153.2606  144.4788  161.6935 H   0  0  0  0  0  0  0  0  0  0  0  0
  151.9918  143.5319  162.4859 H   0  0  0  0  0  0  0  0  0  0  0  0
  150.6871  144.5944  159.4000 H   0  0  0  0  0  0  0  0  0  0  0  0
  150.1797  141.7870  155.2304 H   0  0  0  0  0  0  0  0  0  0  0  0
  151.7355  139.6919  155.3533 H   0  0  0  0  0  0  0  0  0  0  0  0
  153.1812  139.9704  156.2852 H   0  0  0  0  0  0  0  0  0  0  0  0
  151.5865  139.0032  158.2924 H   0  0  0  0  0  0  0  0  0  0  0  0
  152.9568  137.4538  156.3987 H   0  0  0  0  0  0  0  0  0  0  0  0
  150.1963  137.1860  157.5285 H   0  0  0  0  0  0  0  0  0  0  0  0
  149.6329  138.6220  156.7338 H   0  0  0  0  0  0  0  0  0  0  0  0
  149.8480  135.6121  154.4069 H   0  0  0  0  0  0  0  0  0  0  0  0
  149.4968  135.5690  156.1094 H   0  0  0  0  0  0  0  0  0  0  0  0
  147.4646  136.0591  154.7598 H   0  0  0  0  0  0  0  0  0  0  0  0
  147.8025  137.3969  155.8367 H   0  0  0  0  0  0  0  0  0  0  0  0
  146.1711  137.5471  153.4580 H   0  0  0  0  0  0  0  0  0  0  0  0
  146.6241  139.0661  154.1874 H   0  0  0  0  0  0  0  0  0  0  0  0
  146.1575  139.7609  151.9978 H   0  0  0  0  0  0  0  0  0  0  0  0
  147.8641  139.4428  151.7861 H   0  0  0  0  0  0  0  0  0  0  0  0
  145.7299  138.2031  150.7127 H   0  0  0  0  0  0  0  0  0  0  0  0
  149.4162  139.4057  153.1002 H   0  0  0  0  0  0  0  0  0  0  0  0
  149.0114  139.4838  154.7983 H   0  0  0  0  0  0  0  0  0  0  0  0
  151.4272  138.8872  154.4456 H   0  0  0  0  0  0  0  0  0  0  0  0
  150.9666  137.5505  153.4454 H   0  0  0  0  0  0  0  0  0  0  0  0
  153.2809  140.2991  158.9926 H   0  0  0  0  0  0  0  0  0  0  0  0
  154.2993  140.6649  161.0761 H   0  0  0  0  0  0  0  0  0  0  0  0
  153.2025  141.3808  162.2553 H   0  0  0  0  0  0  0  0  0  0  0  0
  154.5156  142.3438  161.5610 H   0  0  0  0  0  0  0  0  0  0  0  0
  148.5392  137.2025  153.0126 H   0  0  0  0  0  0  0  0  0  0  0  0
  149.7641  143.7691  156.8074 H   0  0  0  0  0  0  0  0  0  0  0  0
  1  2  1  0  0  0  0
  1 25  1  0  0  0  0
  1 26  1  0  0  0  0
  1 27  1  0  0  0  0
  2 23  1  0  0  0  0
  2  3  2  0  0  0  0
  3  4  1  0  0  0  0
  3 28  1  0  0  0  0
  4 21  2  0  0  0  0
  4  5  1  0  0  0  0
  5  6  2  0  0  0  0
  5 54  1  0  0  0  0
  6  7  1  0  0  0  0
  6 29  1  0  0  0  0
  7  8  1  0  0  0  0
  7 21  1  0  0  0  0
  8  9  1  0  0  0  0
  8 30  1  0  0  0  0
  8 31  1  0  0  0  0
  9 10  1  0  0  0  0
  9 11  1  0  0  0  0
  9 32  1  0  0  0  0
 10 33  1  0  0  0  0
 11 12  1  0  0  0  0
 11 34  1  0  0  0  0
 11 35  1  0  0  0  0
 12 20  1  0  0  0  0
 12 13  1  0  0  0  0
 13 14  1  0  0  0  0
 13 36  1  0  0  0  0
 13 37  1  0  0  0  0
 14 15  1  0  0  0  0
 14 38  1  0  0  0  0
 14 39  1  0  0  0  0
 15 16  1  0  0  0  0
 15 19  1  0  0  0  0
 15 53  1  0  0  0  0
 16 17  1  0  0  0  0
 16 40  1  0  0  0  0
 16 41  1  0  0  0  0
 17 18  1  0  0  0  0
 17 42  1  0  0  0  0
 17 43  1  0  0  0  0
 18 44  1  0  0  0  0
 19 20  1  0  0  0  0
 19 45  1  0  0  0  0
 19 46  1  0  0  0  0
 20 47  1  0  0  0  0
 20 48  1  0  0  0  0
 21 22  1  0  0  0  0
 22 23  2  0  0  0  0
 22 49  1  0  0  0  0
 23 24  1  0  0  0  0
 24 50  1  0  0  0  0
 24 51  1  0  0  0  0
 24 52  1  0  0  0  0
M  CHG  1   5   1
M  CHG  1  15   1
M  END
> <s_m_source_file>
AV-unprocessed.smi

> <i_m_source_file_index>
1046

> <i_lp_mmshare_version>
43012

> <i_f3d_flags>
0

> <s_epik_input>
W0NIM11jKFtjSF0xKWMoW0NIM10pW2NIXWMoYzEyKW4oW2NIXW4yKVtDSDJdW0NASF0oW09IXSlbQ0gyXU4zW0NIMl1bQ0gyXU4oW0NIMl1bQ0gyXTMpW0NIMl1bQ0gyXVtPSF0=

> <s_epik_cmdline>
J2VwaWtfcHl0aG9uJywgJy1waCcsICc3LjAnLCAnLXRuJywgJzgnLCAnLW1hJywgJzIwMCcsICctbWV0YWxfYmluZGluZycsICctaW1hZScsICc8aW5maWxlLm1hZT4nLCAnLW9tYWUnLCAnPG91dGZpbGUubWFlPic=

> <r_epik_Ionization_Penalty>
1.37806

> <r_epik_Ionization_Penalty_Charging>
1.32954

> <r_epik_Ionization_Penalty_Neutral>
0.0485178

> <r_epik_State_Penalty>
2.26587

> <r_epik_Charging_Adjusted_Penalty>
3.59541

> <i_epik_Tot_Q>
2

> <i_epik_Tot_abs_Q>
2

> <r_epik_Metal_State_Penalty>
6.27317

> <b_epik_Metal_Only>
0

> <s_lp_Force_Field>
OPLS_2005

> <r_lp_Energy>
41.5641

> <b_lp_Chiralities_Consistent>
1

> <s_lp_Variant>
AV-unprocessed.smi:1046-11

> <Gold.Version>
5.8.1

> <Gold.Id.Protein>
6NUR|6NUR_protein|mol2

> <Gold.PLP.Fitness>
64.2268

> <Gold.PLP.PLP>
-47.8272

> <Gold.PLP.part.hbond>
-4.8115

> <Gold.PLP.part.metal>
0.0000

> <Gold.PLP.part.buried>
-5.2612

> <Gold.PLP.part.nonpolar>
-39.0275

> <Gold.PLP.part.repulsive>
0.1058

> <Gold.PLP.ligand.clash>
0.0000

> <Gold.PLP.ligand.torsion>
0.8087

> <Gold.PLP.Chemscore.Hbond>
5.9913

> <Gold.PLP.Chemscore.CHOScore>
0.0000

> <Gold.PLP.Chemscore.Metal>
0.0000

> <Gold.Chemscore.Hbonds>
donor molecule, donor type, donor heavy atom, donor atom, acceptor molecule, acceptor atom, score
      L1  H     5    54       P1  8028  2.00
      L1  H    15    53       P1  7948  2.00
      L1  H    18    44       P1 10171  0.84
      P1  H  7954  7966       L1    18  1.00

> <Gold.PLP.Chemscore.Internal.Correction>
0.0433

> <Gold.Rescore>
     Score         DG    S(hbond)    S(metal)    S(lipo)     H(rot)  DE(clash)    DE(int)     intcor
     22.96     -24.36       3.80        0.00     124.69       3.29       0.05       1.35       ----

> <Gold.Chemscore.Fitness>
22.9617

> <Gold.Chemscore.DG>
-24.3556

> <Gold.Chemscore.ZeroCoef>
-5.4800

> <Gold.Chemscore.Hbond>
3.8048

> <Gold.Chemscore.Metal>
0.0000

> <Gold.Chemscore.Lipo>
124.6932

> <Gold.Chemscore.Internal_Hbond>
0.0000

> <Gold.Chemscore.DEClash>
0.0460

> <Gold.Chemscore.DEInternal>
1.3479

> <Gold.Chemscore.Rot>
3.2896

> <Gold.Chemscore.Internal.Correction>
   9.000000E+99

> <Gold.Chemscore.Hbonds>
donor molecule, donor type, donor heavy atom, donor atom, acceptor molecule, acceptor atom, score
      L1  H     5    54       P1  8028  0.95
      L1  H    15    53       P1  7948  0.95
      L1  H    18    44       P1 10171  0.84
      P1  H  7954  7966       L1    18  0.53

> <Gold.Chemscore.Hbond.Weighted>
-12.7080

> <Gold.Chemscore.Metal.Weighted>
-0.0000

> <Gold.Chemscore.Lipo.Weighted>
-14.5891

> <Gold.Chemscore.Internal_Hbond.Weighted>
0.0000

> <Gold.Chemscore.DEClash.Weighted>
0.0460

> <Gold.Chemscore.DEInternal.Weighted>
1.3479

> <Gold.Chemscore.Rot.Weighted>
8.4215

> <Gold.Chemscore.Internal.Correction.Weighted>
   9.000000E+99

> <Gold.Protein.RotatedTorsions>
[ 6907 6896 6895 6894 ] final -100.70 input  -60.11 | X-H torsion
[ 7974 7965 7964 7962 ] final  -54.64 input  175.53 | X-H torsion
[ 8008 7997 7996 7995 ] final  176.90 input   59.86 | X-H torsion
[ 10167 10162 10161 10158 ] final  -82.21 input  -65.29 | X-H torsion
[ 10718 10713 10712 10709 ] final   35.34 input   66.30 | X-H torsion
[ 10763 10752 10751 10750 ] final  -57.11 input  -60.55 | X-H torsion
[ 11005 11000 10999 10996 ] final   11.21 input  -57.11 | X-H torsion

> <Gold.Protein.ActiveResidues>
 VAL166  LYS551  ARG553  GLY616  TRP617  ASP618  TYR619  PRO620  LYS621  CYS622 
 ASP623  PHE694  ASN695  SER759  ASP760  ASP761  ALA762  ILE779  LEU786  VAL792 
 PHE793  MET794  SER795  GLU796  ALA797  LYS798  CYS799  TRP800  GLU811  SER814 

> <Gold.Protein.RotatedAtoms>
  150.7126  134.0846  159.3909 H   0  0  0  0  0  0  0  0  0  0  0  0  # atno 6907 bound_to 6896
  151.8831  135.0443  160.0500 H   0  0  0  0  0  0  0  0  0  0  0  0  # atno 6908 bound_to 6896
  152.2552  133.5213  159.5385 H   0  0  0  0  0  0  0  0  0  0  0  0  # atno 6909 bound_to 6896
  145.8833  140.8128  142.9829 H   0  0  0  0  0  0  0  0  0  0  0  0  # atno 7974 bound_to 7965
  156.0715  140.1372  156.9822 H   0  0  0  0  0  0  0  0  0  0  0  0  # atno 8008 bound_to 7997
  154.4534  140.0971  156.6738 H   0  0  0  0  0  0  0  0  0  0  0  0  # atno 8009 bound_to 7997
  155.5220  140.3456  155.4411 H   0  0  0  0  0  0  0  0  0  0  0  0  # atno 8010 bound_to 7997
  140.4341  143.2538  151.8718 H   0  0  0  0  0  0  0  0  0  0  0  0  # atno 10167 bound_to 10162
  157.3215  130.7451  149.6788 H   0  0  0  0  0  0  0  0  0  0  0  0  # atno 10718 bound_to 10713
  154.2173  135.6384  153.5133 H   0  0  0  0  0  0  0  0  0  0  0  0  # atno 10763 bound_to 10752
  152.9976  135.5488  154.6151 H   0  0  0  0  0  0  0  0  0  0  0  0  # atno 10764 bound_to 10752
  154.5603  135.2908  155.0899 H   0  0  0  0  0  0  0  0  0  0  0  0  # atno 10765 bound_to 10752
  140.5058  134.0701  155.7805 H   0  0  0  0  0  0  0  0  0  0  0  0  # atno 11005 bound_to 11000
  144.6728  140.1416  143.7436 LP  0  0  0  0  0  0  0  0  0  0  0  0  # atno 17320 bound_to 7965
  145.8998  139.2423  143.1500 LP  0  0  0  0  0  0  0  0  0  0  0  0  # atno 17321 bound_to 7965
  139.4786  144.5302  151.8677 LP  0  0  0  0  0  0  0  0  0  0  0  0  # atno 17342 bound_to 10162
  140.4394  144.2007  150.5890 LP  0  0  0  0  0  0  0  0  0  0  0  0  # atno 17343 bound_to 10162
  155.9686  130.4222  150.4503 LP  0  0  0  0  0  0  0  0  0  0  0  0  # atno 17370 bound_to 10713
  157.2520  131.0548  151.2373 LP  0  0  0  0  0  0  0  0  0  0  0  0  # atno 17371 bound_to 10713
  141.1412  133.9135  157.2322 LP  0  0  0  0  0  0  0  0  0  0  0  0  # atno 17394 bound_to 11000
  139.9687  135.0134  156.9455 LP  0  0  0  0  0  0  0  0  0  0  0  0  # atno 17395 bound_to 11000

$$$$
