AV-unprocessed.smi:2825|AV-procd|sdf|10888|dock5
  -GOLD-   2272015333D 1   1.00000     0.00000
 Structure written by MMmdl.
 48 49  0  0  0  0  0  0  0  0  1 V2000
  144.3653  143.8395  156.0216 C   0  0  0  0  0  0  0  0  0  0  0  0
  144.7126  142.3510  156.1253 C   0  0  0  0  0  0  0  0  0  0  0  0
  145.7323  141.9059  155.0671 C   0  0  0  0  0  0  0  0  0  0  0  0
  146.1757  140.1195  155.2469 S   0  0  0  0  0  0  0  0  0  0  0  0
  146.8705  139.9566  156.5332 O   0  0  0  0  0  0  0  0  0  0  0  0
  145.0008  139.2903  154.9355 O   0  0  0  0  0  0  0  0  0  0  0  0
  147.3535  139.8638  153.9967 N   0  0  0  0  0  0  0  0  0  0  0  0
  147.0009  139.0246  152.8447 C   0  0  0  0  0  0  0  0  0  0  0  0
  148.7893  140.1020  154.2480 C   0  0  0  0  0  0  0  0  0  0  0  0
  149.0880  141.4111  155.0115 C   0  0  2  0  0  0  0  0  0  0  0  0
  148.5623  142.4689  154.2337 O   0  0  0  0  0  0  0  0  0  0  0  0
  150.5930  141.6705  155.2474 C   0  0  0  0  0  0  0  0  0  0  0  0
  151.0893  141.0554  156.4668 N   0  0  0  0  0  0  0  0  0  0  0  0
  151.2611  139.7401  156.7040 C   0  0  0  0  0  0  0  0  0  0  0  0
  151.7422  139.3929  157.8939 N   0  0  0  0  0  0  0  0  0  0  0  0
  151.8889  140.6258  158.5056 C   0  0  0  0  0  0  0  0  0  0  0  0
  152.3596  140.9590  159.7945 C   0  0  0  0  0  0  0  0  0  0  0  0
  152.4218  142.3057  160.2181 C   0  0  0  0  0  0  0  0  0  0  0  0
  152.9379  142.6189  161.6115 C   0  0  0  0  0  0  0  0  0  0  0  0
  152.0045  143.3436  159.3471 C   0  0  0  0  0  0  0  0  0  0  0  0
  152.0619  144.7985  159.7783 C   0  0  0  0  0  0  0  0  0  0  0  0
  151.5295  143.0278  158.0574 C   0  0  0  0  0  0  0  0  0  0  0  0
  151.4811  141.6853  157.6433 C   0  0  0  0  0  0  0  0  0  0  0  0
  143.6644  144.1294  156.8047 H   0  0  0  0  0  0  0  0  0  0  0  0
  143.9020  144.0694  155.0630 H   0  0  0  0  0  0  0  0  0  0  0  0
  145.2550  144.4614  156.1240 H   0  0  0  0  0  0  0  0  0  0  0  0
  145.1096  142.1444  157.1199 H   0  0  0  0  0  0  0  0  0  0  0  0
  143.7985  141.7644  156.0293 H   0  0  0  0  0  0  0  0  0  0  0  0
  145.3492  142.0708  154.0629 H   0  0  0  0  0  0  0  0  0  0  0  0
  146.6512  142.4861  155.1543 H   0  0  0  0  0  0  0  0  0  0  0  0
  146.7581  138.0135  153.1700 H   0  0  0  0  0  0  0  0  0  0  0  0
  147.8161  138.9761  152.1223 H   0  0  0  0  0  0  0  0  0  0  0  0
  146.1274  139.4362  152.3390 H   0  0  0  0  0  0  0  0  0  0  0  0
  149.2163  139.2491  154.7771 H   0  0  0  0  0  0  0  0  0  0  0  0
  149.2965  140.1219  153.2826 H   0  0  0  0  0  0  0  0  0  0  0  0
  148.5513  141.4256  155.9583 H   0  0  0  0  0  0  0  0  0  0  0  0
  148.6552  143.2733  154.7210 H   0  0  0  0  0  0  0  0  0  0  0  0
  151.1845  141.2842  154.4196 H   0  0  0  0  0  0  0  0  0  0  0  0
  150.7920  142.7420  155.2969 H   0  0  0  0  0  0  0  0  0  0  0  0
  151.0280  138.9959  155.9562 H   0  0  0  0  0  0  0  0  0  0  0  0
  152.6739  140.1673  160.4587 H   0  0  0  0  0  0  0  0  0  0  0  0
  152.1810  143.1486  162.1898 H   0  0  0  0  0  0  0  0  0  0  0  0
  153.8311  143.2416  161.5569 H   0  0  0  0  0  0  0  0  0  0  0  0
  153.1968  141.7095  162.1543 H   0  0  0  0  0  0  0  0  0  0  0  0
  151.7249  145.4630  158.9821 H   0  0  0  0  0  0  0  0  0  0  0  0
  153.0828  145.0802  160.0371 H   0  0  0  0  0  0  0  0  0  0  0  0
  151.4241  144.9654  160.6466 H   0  0  0  0  0  0  0  0  0  0  0  0
  151.2040  143.8098  157.3893 H   0  0  0  0  0  0  0  0  0  0  0  0
  1  2  1  0  0  0  0
  1 24  1  0  0  0  0
  1 25  1  0  0  0  0
  1 26  1  0  0  0  0
  2  3  1  0  0  0  0
  2 27  1  0  0  0  0
  2 28  1  0  0  0  0
  3  4  1  0  0  0  0
  3 29  1  0  0  0  0
  3 30  1  0  0  0  0
  4  5  2  0  0  0  0
  4  6  2  0  0  0  0
  4  7  1  0  0  0  0
  7  8  1  0  0  0  0
  7  9  1  0  0  0  0
  8 31  1  0  0  0  0
  8 32  1  0  0  0  0
  8 33  1  0  0  0  0
  9 10  1  0  0  0  0
  9 34  1  0  0  0  0
  9 35  1  0  0  0  0
 10 11  1  0  0  0  0
 10 12  1  0  0  0  0
 10 36  1  0  0  0  0
 11 37  1  0  0  0  0
 12 13  1  0  0  0  0
 12 38  1  0  0  0  0
 12 39  1  0  0  0  0
 13 23  1  0  0  0  0
 13 14  1  0  0  0  0
 14 15  2  0  0  0  0
 14 40  1  0  0  0  0
 15 16  1  0  0  0  0
 16 23  2  0  0  0  0
 16 17  1  0  0  0  0
 17 18  2  0  0  0  0
 17 41  1  0  0  0  0
 18 19  1  0  0  0  0
 18 20  1  0  0  0  0
 19 42  1  0  0  0  0
 19 43  1  0  0  0  0
 19 44  1  0  0  0  0
 20 21  1  0  0  0  0
 20 22  2  0  0  0  0
 21 45  1  0  0  0  0
 21 46  1  0  0  0  0
 21 47  1  0  0  0  0
 22 23  1  0  0  0  0
 22 48  1  0  0  0  0
M  END
> <s_m_source_file>
AV-unprocessed.smi

> <i_m_source_file_index>
2825

> <i_lp_mmshare_version>
43012

> <i_f3d_flags>
0

> <s_epik_input>
W0NIM11bQ0gyXVtDSDJdUyg9TykoPU8pTihbQ0gzXSlbQ0gyXVtDQEhdKFtPSF0pW0NIMl1uKFtjSF1uMSljKGMxMilbY0hdYyhbQ0gzXSljKFtjSF0yKVtDSDNd

> <s_epik_cmdline>
J2VwaWtfcHl0aG9uJywgJy1waCcsICc3LjAnLCAnLXRuJywgJzgnLCAnLW1hJywgJzIwMCcsICctbWV0YWxfYmluZGluZycsICctaW1hZScsICc8aW5maWxlLm1hZT4nLCAnLW9tYWUnLCAnPG91dGZpbGUubWFlPic=

> <r_epik_Ionization_Penalty>
0.104931

> <r_epik_Ionization_Penalty_Charging>
0

> <r_epik_Ionization_Penalty_Neutral>
0.104931

> <r_epik_State_Penalty>
0.0948201

> <r_epik_Charging_Adjusted_Penalty>
0.0948201

> <i_epik_Tot_Q>
0

> <i_epik_Tot_abs_Q>
0

> <r_epik_Metal_State_Penalty>
0.00010282

> <b_epik_Metal_Only>
0

> <s_lp_Force_Field>
OPLS_2005

> <r_lp_Energy>
0.666552

> <b_lp_Chiralities_Consistent>
1

> <s_lp_Variant>
AV-unprocessed.smi:2825-1

> <Gold.Version>
5.8.1

> <Gold.Id.Protein>
6NUR|6NUR_protein|mol2

> <Gold.PLP.Fitness>
46.0089

> <Gold.PLP.PLP>
-43.6669

> <Gold.PLP.part.hbond>
-2.0768

> <Gold.PLP.part.metal>
0.0000

> <Gold.PLP.part.buried>
-4.9808

> <Gold.PLP.part.nonpolar>
-37.8376

> <Gold.PLP.part.repulsive>
0.4698

> <Gold.PLP.ligand.clash>
0.0000

> <Gold.PLP.ligand.torsion>
1.7571

> <Gold.PLP.Chemscore.Hbond>
1.1258

> <Gold.PLP.Chemscore.CHOScore>
0.0000

> <Gold.PLP.Chemscore.Metal>
0.0000

> <Gold.Chemscore.Hbonds>
donor molecule, donor type, donor heavy atom, donor atom, acceptor molecule, acceptor atom, score
      L1  H    11    37       P1  8028  1.00
      P1  H  8011  8017       L1    11  0.07

> <Gold.PLP.Chemscore.Internal.Correction>
2.4788

> <Gold.Rescore>
     Score         DG    S(hbond)    S(metal)    S(lipo)     H(rot)  DE(clash)    DE(int)     intcor
     13.80     -15.59       0.99        0.00     111.35       2.43       0.37       1.43       ----

> <Gold.Chemscore.Fitness>
13.7978

> <Gold.Chemscore.DG>
-15.5942

> <Gold.Chemscore.ZeroCoef>
-5.4800

> <Gold.Chemscore.Hbond>
0.9924

> <Gold.Chemscore.Metal>
0.0000

> <Gold.Chemscore.Lipo>
111.3540

> <Gold.Chemscore.Internal_Hbond>
0.0000

> <Gold.Chemscore.DEClash>
0.3695

> <Gold.Chemscore.DEInternal>
1.4269

> <Gold.Chemscore.Rot>
2.4332

> <Gold.Chemscore.Internal.Correction>
   9.000000E+99

> <Gold.Chemscore.Hbonds>
donor molecule, donor type, donor heavy atom, donor atom, acceptor molecule, acceptor atom, score
      L1  H    11    37       P1  8028  1.00
      P1  H  8011  8017       L1    11  0.03

> <Gold.Chemscore.Hbond.Weighted>
-3.3148

> <Gold.Chemscore.Metal.Weighted>
-0.0000

> <Gold.Chemscore.Lipo.Weighted>
-13.0284

> <Gold.Chemscore.Internal_Hbond.Weighted>
0.0000

> <Gold.Chemscore.DEClash.Weighted>
0.3695

> <Gold.Chemscore.DEInternal.Weighted>
1.4269

> <Gold.Chemscore.Rot.Weighted>
6.2289

> <Gold.Chemscore.Internal.Correction.Weighted>
   9.000000E+99

> <Gold.Protein.RotatedTorsions>
[ 6907 6896 6895 6894 ] final   45.20 input  -60.11 | X-H torsion
[ 7974 7965 7964 7962 ] final    6.85 input  175.53 | X-H torsion
[ 8008 7997 7996 7995 ] final  169.84 input   59.86 | X-H torsion
[ 10167 10162 10161 10158 ] final -130.86 input  -65.29 | X-H torsion
[ 10718 10713 10712 10709 ] final   83.44 input   66.30 | X-H torsion
[ 10763 10752 10751 10750 ] final  -50.45 input  -60.55 | X-H torsion
[ 11005 11000 10999 10996 ] final  -32.06 input  -57.11 | X-H torsion

> <Gold.Protein.ActiveResidues>
 VAL166  LYS551  ARG553  GLY616  TRP617  ASP618  TYR619  PRO620  LYS621  CYS622 
 ASP623  PHE694  ASN695  SER759  ASP760  ASP761  ALA762  ILE779  LEU786  VAL792 
 PHE793  MET794  SER795  GLU796  ALA797  LYS798  CYS799  TRP800  GLU811  SER814 

> <Gold.Protein.RotatedAtoms>
  152.2417  134.8222  160.0459 H   0  0  0  0  0  0  0  0  0  0  0  0  # atno 6907 bound_to 6896
  151.8934  133.3516  159.3814 H   0  0  0  0  0  0  0  0  0  0  0  0  # atno 6908 bound_to 6896
  150.7056  134.4827  159.5522 H   0  0  0  0  0  0  0  0  0  0  0  0  # atno 6909 bound_to 6896
  146.2431  140.0172  142.8401 H   0  0  0  0  0  0  0  0  0  0  0  0  # atno 7974 bound_to 7965
  156.1420  140.1553  156.8905 H   0  0  0  0  0  0  0  0  0  0  0  0  # atno 8008 bound_to 7997
  154.4996  140.0829  156.7807 H   0  0  0  0  0  0  0  0  0  0  0  0  # atno 8009 bound_to 7997
  155.4060  140.3416  155.4262 H   0  0  0  0  0  0  0  0  0  0  0  0  # atno 8010 bound_to 7997
  139.9249  143.6339  152.2544 H   0  0  0  0  0  0  0  0  0  0  0  0  # atno 10167 bound_to 10162
  157.6879  131.0091  150.2524 H   0  0  0  0  0  0  0  0  0  0  0  0  # atno 10718 bound_to 10713
  154.1106  135.6550  153.4884 H   0  0  0  0  0  0  0  0  0  0  0  0  # atno 10763 bound_to 10752
  153.0258  135.5246  154.7196 H   0  0  0  0  0  0  0  0  0  0  0  0  # atno 10764 bound_to 10752
  154.6375  135.2984  155.0113 H   0  0  0  0  0  0  0  0  0  0  0  0  # atno 10765 bound_to 10752
  140.9520  133.7215  156.1235 H   0  0  0  0  0  0  0  0  0  0  0  0  # atno 11005 bound_to 11000
  145.1274  140.9498  143.4564 LP  0  0  0  0  0  0  0  0  0  0  0  0  # atno 17320 bound_to 7965
  145.0421  139.3251  143.5971 LP  0  0  0  0  0  0  0  0  0  0  0  0  # atno 17321 bound_to 7965
  139.6830  144.7654  151.1573 LP  0  0  0  0  0  0  0  0  0  0  0  0  # atno 17342 bound_to 10162
  140.7653  143.5697  150.9009 LP  0  0  0  0  0  0  0  0  0  0  0  0  # atno 17343 bound_to 10162
  156.3118  130.3773  149.7654 LP  0  0  0  0  0  0  0  0  0  0  0  0  # atno 17370 bound_to 10713
  156.5252  130.8233  151.3218 LP  0  0  0  0  0  0  0  0  0  0  0  0  # atno 17371 bound_to 10713
  140.7589  134.3962  157.5529 LP  0  0  0  0  0  0  0  0  0  0  0  0  # atno 17394 bound_to 11000
  139.8850  134.8948  156.2666 LP  0  0  0  0  0  0  0  0  0  0  0  0  # atno 17395 bound_to 11000

$$$$
