AV-unprocessed.smi:1870|AV-procd|sdf|7595|dock5
  -GOLD-   22720 9313D 1   1.00000     0.00000
 Structure written by MMmdl.
 48 50  0  0  0  0  0  0  0  0  2 V2000
  148.7792  132.4236  158.1604 C   0  0  0  0  0  0  0  0  0  0  0  0
  148.4568  133.6191  159.0161 C   0  0  0  0  0  0  0  0  0  0  0  0
  149.0288  134.7332  158.6957 N   0  0  0  0  0  0  0  0  0  0  0  0
  148.7999  135.8917  159.4126 N   0  0  0  0  0  0  0  0  0  0  0  0
  149.5412  137.0573  158.9158 C   0  0  0  0  0  0  0  0  0  0  0  0
  150.3143  136.7395  157.6174 C   0  0  2  0  0  0  0  0  0  0  0  0
  151.5948  136.2458  157.9607 O   0  0  0  0  0  0  0  0  0  0  0  0
  150.5230  138.0050  156.7598 C   0  0  0  0  0  0  0  0  0  0  0  0
  150.7184  139.2327  157.5748 N   0  3  2  0  0  0  0  0  0  0  0  0
  150.6508  140.4693  156.7607 C   0  0  0  0  0  0  0  0  0  0  0  0
  150.5222  141.6967  157.6718 C   0  0  0  0  0  0  0  0  0  0  0  0
  151.5621  141.7057  158.7769 C   0  0  0  0  0  0  0  0  0  0  0  0
  151.8441  142.9040  159.4647 C   0  0  0  0  0  0  0  0  0  0  0  0
  152.7795  142.9123  160.5168 C   0  0  0  0  0  0  0  0  0  0  0  0
  153.4329  141.7217  160.8868 C   0  0  0  0  0  0  0  0  0  0  0  0
  153.1537  140.5230  160.2028 C   0  0  0  0  0  0  0  0  0  0  0  0
  152.2194  140.5074  159.1459 C   0  0  0  0  0  0  0  0  0  0  0  0
  151.9535  139.2024  158.4043 C   0  0  0  0  0  0  0  0  0  0  0  0
  147.9791  135.9844  160.4975 C   0  0  0  0  0  0  0  0  0  0  0  0
  147.8084  137.0384  161.1118 O   0  0  0  0  0  0  0  0  0  0  0  0
  147.3329  134.7191  160.8540 C   0  0  0  0  0  0  0  0  0  0  0  0
  146.4575  134.7728  161.9804 C   0  0  0  0  0  0  0  0  0  0  0  0
  145.7456  134.7958  162.8929 N   0  0  0  0  0  0  0  0  0  0  0  0
  147.5513  133.5743  160.1596 C   0  0  0  0  0  0  0  0  0  0  0  0
  146.9054  132.2357  160.4905 C   0  0  0  0  0  0  0  0  0  0  0  0
  147.8692  131.9709  157.7667 H   0  0  0  0  0  0  0  0  0  0  0  0
  149.3113  131.6675  158.7383 H   0  0  0  0  0  0  0  0  0  0  0  0
  149.4069  132.6898  157.3086 H   0  0  0  0  0  0  0  0  0  0  0  0
  148.8137  137.8460  158.7146 H   0  0  0  0  0  0  0  0  0  0  0  0
  150.2022  137.4812  159.6744 H   0  0  0  0  0  0  0  0  0  0  0  0
  149.7760  135.9811  157.0497 H   0  0  0  0  0  0  0  0  0  0  0  0
  151.9118  135.7028  157.2547 H   0  0  0  0  0  0  0  0  0  0  0  0
  151.3809  137.8803  156.0972 H   0  0  0  0  0  0  0  0  0  0  0  0
  149.6546  138.1275  156.1103 H   0  0  0  0  0  0  0  0  0  0  0  0
  151.5458  140.5435  156.1407 H   0  0  0  0  0  0  0  0  0  0  0  0
  149.7963  140.4412  156.0838 H   0  0  0  0  0  0  0  0  0  0  0  0
  150.6062  142.6092  157.0802 H   0  0  0  0  0  0  0  0  0  0  0  0
  149.5356  141.7116  158.1364 H   0  0  0  0  0  0  0  0  0  0  0  0
  151.3393  143.8193  159.1916 H   0  0  0  0  0  0  0  0  0  0  0  0
  152.9928  143.8312  161.0428 H   0  0  0  0  0  0  0  0  0  0  0  0
  154.1495  141.7281  161.6951 H   0  0  0  0  0  0  0  0  0  0  0  0
  153.6635  139.6148  160.4898 H   0  0  0  0  0  0  0  0  0  0  0  0
  151.8899  138.4001  159.1385 H   0  0  0  0  0  0  0  0  0  0  0  0
  152.8168  138.9923  157.7713 H   0  0  0  0  0  0  0  0  0  0  0  0
  146.3465  132.2686  161.4251 H   0  0  0  0  0  0  0  0  0  0  0  0
  147.6600  131.4553  160.5930 H   0  0  0  0  0  0  0  0  0  0  0  0
  146.2129  131.9432  159.7007 H   0  0  0  0  0  0  0  0  0  0  0  0
  149.9353  139.2769  158.2118 H   0  0  0  0  0  0  0  0  0  0  0  0
  1  2  1  0  0  0  0
  1 26  1  0  0  0  0
  1 27  1  0  0  0  0
  1 28  1  0  0  0  0
  2 24  1  0  0  0  0
  2  3  2  0  0  0  0
  3  4  1  0  0  0  0
  4  5  1  0  0  0  0
  4 19  1  0  0  0  0
  5  6  1  0  0  0  0
  5 29  1  0  0  0  0
  5 30  1  0  0  0  0
  6  7  1  0  0  0  0
  6  8  1  0  0  0  0
  6 31  1  0  0  0  0
  7 32  1  0  0  0  0
  8  9  1  0  0  0  0
  8 33  1  0  0  0  0
  8 34  1  0  0  0  0
  9 18  1  0  0  0  0
  9 10  1  0  0  0  0
  9 48  1  0  0  0  0
 10 11  1  0  0  0  0
 10 35  1  0  0  0  0
 10 36  1  0  0  0  0
 11 12  1  0  0  0  0
 11 37  1  0  0  0  0
 11 38  1  0  0  0  0
 12 17  2  0  0  0  0
 12 13  1  0  0  0  0
 13 14  2  0  0  0  0
 13 39  1  0  0  0  0
 14 15  1  0  0  0  0
 14 40  1  0  0  0  0
 15 16  2  0  0  0  0
 15 41  1  0  0  0  0
 16 17  1  0  0  0  0
 16 42  1  0  0  0  0
 17 18  1  0  0  0  0
 18 43  1  0  0  0  0
 18 44  1  0  0  0  0
 19 20  2  0  0  0  0
 19 21  1  0  0  0  0
 21 22  1  0  0  0  0
 21 24  2  0  0  0  0
 22 23  3  0  0  0  0
 24 25  1  0  0  0  0
 25 45  1  0  0  0  0
 25 46  1  0  0  0  0
 25 47  1  0  0  0  0
M  CHG  1   9   1
M  END
> <s_m_source_file>
AV-unprocessed.smi

> <i_m_source_file_index>
1870

> <i_lp_mmshare_version>
43012

> <i_f3d_flags>
0

> <s_epik_input>
TiNDYyhjMVtDSDNdKWMoPU8pbihuYzFbQ0gzXSlbQ0gyXVtDQEhdKFtPSF0pW0NIMl1OKFtDSDJdW0NIMl0yKVtDSDJdYyhjMjMpW2NIXVtjSF1bY0hdW2NIXTM=

> <s_epik_cmdline>
J2VwaWtfcHl0aG9uJywgJy1waCcsICc3LjAnLCAnLXRuJywgJzgnLCAnLW1hJywgJzIwMCcsICctbWV0YWxfYmluZGluZycsICctaW1hZScsICc8aW5maWxlLm1hZT4nLCAnLW9tYWUnLCAnPG91dGZpbGUubWFlPic=

> <r_epik_Ionization_Penalty>
0.0122865

> <r_epik_Ionization_Penalty_Charging>
0.0122864

> <r_epik_Ionization_Penalty_Neutral>
1.48087e-07

> <r_epik_State_Penalty>
0.00950248

> <r_epik_Charging_Adjusted_Penalty>
0.0217889

> <i_epik_Tot_Q>
1

> <i_epik_Tot_abs_Q>
1

> <r_epik_Metal_State_Penalty>
0.00950248

> <b_epik_Metal_Only>
0

> <s_lp_Force_Field>
OPLS_2005

> <r_lp_Energy>
38.404

> <b_lp_Chiralities_Consistent>
1

> <s_lp_Variant>
AV-unprocessed.smi:1870-3

> <Gold.Version>
5.8.1

> <Gold.Id.Protein>
6NUR|6NUR_protein|mol2

> <Gold.PLP.Fitness>
47.9014

> <Gold.PLP.PLP>
-42.0553

> <Gold.PLP.part.hbond>
-4.4565

> <Gold.PLP.part.metal>
0.0000

> <Gold.PLP.part.buried>
-3.7348

> <Gold.PLP.part.nonpolar>
-33.9117

> <Gold.PLP.part.repulsive>
0.0352

> <Gold.PLP.ligand.clash>
0.0000

> <Gold.PLP.ligand.torsion>
0.6716

> <Gold.PLP.Chemscore.Hbond>
2.3895

> <Gold.PLP.Chemscore.CHOScore>
0.0000

> <Gold.PLP.Chemscore.Metal>
0.0000

> <Gold.Chemscore.Hbonds>
donor molecule, donor type, donor heavy atom, donor atom, acceptor molecule, acceptor atom, score
      P1  H  6896  6908       L1     3  0.64
      P1  H  6931  6943       L1    20  1.00
      P1  H  6934  6947       L1    20  0.72

> <Gold.PLP.Chemscore.Internal.Correction>
0.0208

> <Gold.Rescore>
     Score         DG    S(hbond)    S(metal)    S(lipo)     H(rot)  DE(clash)    DE(int)     intcor
     16.90     -17.80       1.78        0.00     101.79       2.16       0.01       0.89       ----

> <Gold.Chemscore.Fitness>
16.8968

> <Gold.Chemscore.DG>
-17.7961

> <Gold.Chemscore.ZeroCoef>
-5.4800

> <Gold.Chemscore.Hbond>
1.7795

> <Gold.Chemscore.Metal>
0.0000

> <Gold.Chemscore.Lipo>
101.7883

> <Gold.Chemscore.Internal_Hbond>
0.0000

> <Gold.Chemscore.DEClash>
0.0121

> <Gold.Chemscore.DEInternal>
0.8871

> <Gold.Chemscore.Rot>
2.1628

> <Gold.Chemscore.Internal.Correction>
   9.000000E+99

> <Gold.Chemscore.Hbonds>
donor molecule, donor type, donor heavy atom, donor atom, acceptor molecule, acceptor atom, score
      P1  H  6896  6908       L1     3  0.01
      P1  H  6931  6943       L1    20  0.95
      P1  H  6934  6947       L1    20  0.70

> <Gold.Chemscore.Hbond.Weighted>
-5.9436

> <Gold.Chemscore.Metal.Weighted>
-0.0000

> <Gold.Chemscore.Lipo.Weighted>
-11.9092

> <Gold.Chemscore.Internal_Hbond.Weighted>
0.0000

> <Gold.Chemscore.DEClash.Weighted>
0.0121

> <Gold.Chemscore.DEInternal.Weighted>
0.8871

> <Gold.Chemscore.Rot.Weighted>
5.5367

> <Gold.Chemscore.Internal.Correction.Weighted>
   9.000000E+99

> <Gold.Protein.RotatedTorsions>
[ 6907 6896 6895 6894 ] final  155.14 input  -60.11 | X-H torsion
[ 7974 7965 7964 7962 ] final -137.39 input  175.53 | X-H torsion
[ 8008 7997 7996 7995 ] final  -44.00 input   59.86 | X-H torsion
[ 10167 10162 10161 10158 ] final  117.35 input  -65.29 | X-H torsion
[ 10718 10713 10712 10709 ] final -179.34 input   66.30 | X-H torsion
[ 10763 10752 10751 10750 ] final  135.86 input  -60.55 | X-H torsion
[ 11005 11000 10999 10996 ] final  124.89 input  -57.11 | X-H torsion

> <Gold.Protein.ActiveResidues>
 VAL166  LYS551  ARG553  GLY616  TRP617  ASP618  TYR619  PRO620  LYS621  CYS622 
 ASP623  PHE694  ASN695  SER759  ASP760  ASP761  ALA762  ILE779  LEU786  VAL792 
 PHE793  MET794  SER795  GLU796  ALA797  LYS798  CYS799  TRP800  GLU811  SER814 

> <Gold.Protein.RotatedAtoms>
  152.0485  133.4008  159.4366 H   0  0  0  0  0  0  0  0  0  0  0  0  # atno 6907 bound_to 6896
  150.6871  134.3335  159.4846 H   0  0  0  0  0  0  0  0  0  0  0  0  # atno 6908 bound_to 6896
  152.1142  134.9252  160.0616 H   0  0  0  0  0  0  0  0  0  0  0  0  # atno 6909 bound_to 6896
  144.8846  140.6556  143.5184 H   0  0  0  0  0  0  0  0  0  0  0  0  # atno 7974 bound_to 7965
  154.3997  140.1433  156.3612 H   0  0  0  0  0  0  0  0  0  0  0  0  # atno 8008 bound_to 7997
  155.8179  140.3470  155.5476 H   0  0  0  0  0  0  0  0  0  0  0  0  # atno 8009 bound_to 7997
  155.8318  140.0913  157.1778 H   0  0  0  0  0  0  0  0  0  0  0  0  # atno 8010 bound_to 7997
  139.6185  144.7096  151.2687 H   0  0  0  0  0  0  0  0  0  0  0  0  # atno 10167 bound_to 10162
  156.8577  130.9741  151.3086 H   0  0  0  0  0  0  0  0  0  0  0  0  # atno 10718 bound_to 10713
  153.8470  135.3084  155.3430 H   0  0  0  0  0  0  0  0  0  0  0  0  # atno 10763 bound_to 10752
  154.7908  135.4784  154.0051 H   0  0  0  0  0  0  0  0  0  0  0  0  # atno 10764 bound_to 10752
  153.1541  135.6848  153.8931 H   0  0  0  0  0  0  0  0  0  0  0  0  # atno 10765 bound_to 10752
  139.9380  134.9638  156.8477 H   0  0  0  0  0  0  0  0  0  0  0  0  # atno 11005 bound_to 11000
  145.3892  139.1620  143.4238 LP  0  0  0  0  0  0  0  0  0  0  0  0  # atno 17320 bound_to 7965
  146.3016  140.3980  142.8702 LP  0  0  0  0  0  0  0  0  0  0  0  0  # atno 17321 bound_to 7965
  140.7366  143.6701  150.8089 LP  0  0  0  0  0  0  0  0  0  0  0  0  # atno 17342 bound_to 10162
  140.0308  143.5446  152.2761 LP  0  0  0  0  0  0  0  0  0  0  0  0  # atno 17343 bound_to 10162
  157.6268  130.8698  149.9203 LP  0  0  0  0  0  0  0  0  0  0  0  0  # atno 17370 bound_to 10713
  156.0794  130.3675  150.0612 LP  0  0  0  0  0  0  0  0  0  0  0  0  # atno 17371 bound_to 10713
  140.6025  134.0158  155.7543 LP  0  0  0  0  0  0  0  0  0  0  0  0  # atno 17394 bound_to 11000
  141.1002  133.9779  157.3091 LP  0  0  0  0  0  0  0  0  0  0  0  0  # atno 17395 bound_to 11000

$$$$
