AV-unprocessed.smi:1084|AV-procd|sdf|4719|dock2
  -GOLD-   22720 3243D 1   1.00000     0.00000
 Structure written by MMmdl.
 53 55  0  0  0  0  0  0  0  0  2 V2000
  143.9384  135.8662  151.5181 C   0  0  0  0  0  0  0  0  0  0  0  0
  145.4513  136.1942  151.4710 C   0  0  1  0  0  0  0  0  0  0  0  0
  145.7400  137.5726  152.1321 C   0  0  0  0  0  0  0  0  0  0  0  0
  147.0653  137.6665  152.7413 N   0  0  0  0  0  0  0  0  0  0  0  0
  147.4790  138.6547  153.5483 C   0  0  0  0  0  0  0  0  0  0  0  0
  146.7826  139.6275  153.8350 O   0  0  0  0  0  0  0  0  0  0  0  0
  148.7379  138.4420  153.9692 N   0  0  0  0  0  0  0  0  0  0  0  0
  149.5514  139.2501  154.8108 C   0  0  0  0  0  0  0  0  0  0  0  0
  150.9645  139.2986  154.7649 C   0  0  0  0  0  0  0  0  0  0  0  0
  151.6475  140.1492  155.6548 C   0  0  0  0  0  0  0  0  0  0  0  0
  150.9081  140.9379  156.5665 C   0  0  0  0  0  0  0  0  0  0  0  0
  151.5774  141.7920  157.4693 N   0  0  0  0  0  0  0  0  0  0  0  0
  151.6486  141.3177  158.8491 C   0  0  0  0  0  0  0  0  0  0  0  0
  152.6486  142.1637  159.6561 C   0  0  0  0  0  0  0  0  0  0  0  0
  152.3041  143.5419  159.5601 O   0  0  0  0  0  0  0  0  0  0  0  0
  152.3518  144.0073  158.2156 C   0  0  0  0  0  0  0  0  0  0  0  0
  151.3354  143.2295  157.3628 C   0  0  0  0  0  0  0  0  0  0  0  0
  149.5535  140.9037  156.5951 N   0  0  0  0  0  0  0  0  0  0  0  0
  148.9028  140.0850  155.7426 C   0  0  0  0  0  0  0  0  0  0  0  0
  146.2681  135.0900  152.0807 N   0  3  0  0  0  0  0  0  0  0  0  0
  146.0635  134.9411  153.5497 C   0  0  0  0  0  0  0  0  0  0  0  0
  146.9356  133.8168  154.1322 C   0  0  0  0  0  0  0  0  0  0  0  0
  146.6505  132.5975  153.4666 O   0  0  0  0  0  0  0  0  0  0  0  0
  146.9672  132.6832  152.0869 C   0  0  0  0  0  0  0  0  0  0  0  0
  146.1013  133.7645  151.4186 C   0  0  0  0  0  0  0  0  0  0  0  0
  143.3336  136.6627  151.0874 H   0  0  0  0  0  0  0  0  0  0  0  0
  143.5988  135.7123  152.5429 H   0  0  0  0  0  0  0  0  0  0  0  0
  143.6796  134.9823  150.9385 H   0  0  0  0  0  0  0  0  0  0  0  0
  145.7397  136.2712  150.4212 H   0  0  0  0  0  0  0  0  0  0  0  0
  145.5823  138.3783  151.4130 H   0  0  0  0  0  0  0  0  0  0  0  0
  145.0508  137.7555  152.9552 H   0  0  0  0  0  0  0  0  0  0  0  0
  147.7069  136.9099  152.5528 H   0  0  0  0  0  0  0  0  0  0  0  0
  149.1903  137.6162  153.6049 H   0  0  0  0  0  0  0  0  0  0  0  0
  151.5426  138.7173  154.0648 H   0  0  0  0  0  0  0  0  0  0  0  0
  152.7253  140.1992  155.6153 H   0  0  0  0  0  0  0  0  0  0  0  0
  150.6560  141.3873  159.2957 H   0  0  0  0  0  0  0  0  0  0  0  0
  151.9466  140.2715  158.9018 H   0  0  0  0  0  0  0  0  0  0  0  0
  152.6306  141.8658  160.7044 H   0  0  0  0  0  0  0  0  0  0  0  0
  153.6675  142.0064  159.2984 H   0  0  0  0  0  0  0  0  0  0  0  0
  152.1189  145.0720  158.1992 H   0  0  0  0  0  0  0  0  0  0  0  0
  153.3611  143.8958  157.8161 H   0  0  0  0  0  0  0  0  0  0  0  0
  151.4149  143.5501  156.3232 H   0  0  0  0  0  0  0  0  0  0  0  0
  150.3210  143.4513  157.6972 H   0  0  0  0  0  0  0  0  0  0  0  0
  147.8247  140.0961  155.8108 H   0  0  0  0  0  0  0  0  0  0  0  0
  146.3253  135.8537  154.0807 H   0  0  0  0  0  0  0  0  0  0  0  0
  145.0109  134.7388  153.7536 H   0  0  0  0  0  0  0  0  0  0  0  0
  147.9962  134.0585  154.0435 H   0  0  0  0  0  0  0  0  0  0  0  0
  146.7270  133.6941  155.1951 H   0  0  0  0  0  0  0  0  0  0  0  0
  148.0293  132.8970  151.9550 H   0  0  0  0  0  0  0  0  0  0  0  0
  146.7797  131.7147  151.6230 H   0  0  0  0  0  0  0  0  0  0  0  0
  145.0505  133.4715  151.4458 H   0  0  0  0  0  0  0  0  0  0  0  0
  146.4030  133.8066  150.3735 H   0  0  0  0  0  0  0  0  0  0  0  0
  147.2362  135.3480  151.9502 H   0  0  0  0  0  0  0  0  0  0  0  0
  1  2  1  0  0  0  0
  1 26  1  0  0  0  0
  1 27  1  0  0  0  0
  1 28  1  0  0  0  0
  2  3  1  0  0  0  0
  2 20  1  0  0  0  0
  2 29  1  0  0  0  0
  3  4  1  0  0  0  0
  3 30  1  0  0  0  0
  3 31  1  0  0  0  0
  4  5  1  0  0  0  0
  4 32  1  0  0  0  0
  5  6  2  0  0  0  0
  5  7  1  0  0  0  0
  7  8  1  0  0  0  0
  7 33  1  0  0  0  0
  8 19  1  0  0  0  0
  8  9  2  0  0  0  0
  9 10  1  0  0  0  0
  9 34  1  0  0  0  0
 10 11  2  0  0  0  0
 10 35  1  0  0  0  0
 11 12  1  0  0  0  0
 11 18  1  0  0  0  0
 12 17  1  0  0  0  0
 12 13  1  0  0  0  0
 13 14  1  0  0  0  0
 13 36  1  0  0  0  0
 13 37  1  0  0  0  0
 14 15  1  0  0  0  0
 14 38  1  0  0  0  0
 14 39  1  0  0  0  0
 15 16  1  0  0  0  0
 16 17  1  0  0  0  0
 16 40  1  0  0  0  0
 16 41  1  0  0  0  0
 17 42  1  0  0  0  0
 17 43  1  0  0  0  0
 18 19  2  0  0  0  0
 19 44  1  0  0  0  0
 20 25  1  0  0  0  0
 20 21  1  0  0  0  0
 20 53  1  0  0  0  0
 21 22  1  0  0  0  0
 21 45  1  0  0  0  0
 21 46  1  0  0  0  0
 22 23  1  0  0  0  0
 22 47  1  0  0  0  0
 22 48  1  0  0  0  0
 23 24  1  0  0  0  0
 24 25  1  0  0  0  0
 24 49  1  0  0  0  0
 24 50  1  0  0  0  0
 25 51  1  0  0  0  0
 25 52  1  0  0  0  0
M  CHG  1  20   1
M  END
> <s_m_source_file>
AV-unprocessed.smi

> <i_m_source_file_index>
1084

> <i_lp_mmshare_version>
43012

> <i_f3d_flags>
0

> <s_epik_input>
W0NIMl0xW0NIMl1PW0NIMl1bQ0gyXU4xW0NASF0oW0NIM10pW0NIMl1bTkhdQyg9TylbTkhdYzJbY0hdW2NIXWMobltjSF0yKU4zW0NIMl1bQ0gyXU9bQ0gyXVtDSDJdMw==

> <s_epik_cmdline>
J2VwaWtfcHl0aG9uJywgJy1waCcsICc3LjAnLCAnLXRuJywgJzgnLCAnLW1hJywgJzIwMCcsICctbWV0YWxfYmluZGluZycsICctaW1hZScsICc8aW5maWxlLm1hZT4nLCAnLW9tYWUnLCAnPG91dGZpbGUubWFlPic=

> <r_lp_tautomer_probability>
1

> <r_epik_Ionization_Penalty>
0.604236

> <r_epik_Ionization_Penalty_Charging>
0.602531

> <r_epik_Ionization_Penalty_Neutral>
0.00170595

> <r_epik_State_Penalty>
0.59929

> <r_epik_Charging_Adjusted_Penalty>
1.20182

> <i_epik_Tot_Q>
1

> <i_epik_Tot_abs_Q>
1

> <r_epik_Metal_State_Penalty>
0.598238

> <b_epik_Metal_Only>
0

> <s_lp_Force_Field>
OPLS_2005

> <r_lp_Energy>
38.2929

> <b_lp_Chiralities_Consistent>
1

> <s_lp_Variant>
AV-unprocessed.smi:1084-4

> <Gold.Version>
5.8.1

> <Gold.Id.Protein>
6NUR|6NUR_protein|mol2

> <Gold.PLP.Fitness>
49.3102

> <Gold.PLP.PLP>
-39.9747

> <Gold.PLP.part.hbond>
-2.9977

> <Gold.PLP.part.metal>
0.0000

> <Gold.PLP.part.buried>
-1.5719

> <Gold.PLP.part.nonpolar>
-35.9771

> <Gold.PLP.part.repulsive>
0.4515

> <Gold.PLP.ligand.clash>
0.0000

> <Gold.PLP.ligand.torsion>
0.8773

> <Gold.PLP.Chemscore.Hbond>
3.5460

> <Gold.PLP.Chemscore.CHOScore>
0.0000

> <Gold.PLP.Chemscore.Metal>
0.0000

> <Gold.Chemscore.Hbonds>
donor molecule, donor type, donor heavy atom, donor atom, acceptor molecule, acceptor atom, score
      L1  H     4    32       P1  7948  1.00
      L1  H     7    33       P1  7948  0.41
      L1  H    20    53       P1  7948  2.00

> <Gold.PLP.Chemscore.Internal.Correction>
0.4522

> <Gold.Rescore>
     Score         DG    S(hbond)    S(metal)    S(lipo)     H(rot)  DE(clash)    DE(int)     intcor
     18.96     -21.21       2.52        0.00      99.27       1.68       0.14       2.10       ----

> <Gold.Chemscore.Fitness>
18.9642

> <Gold.Chemscore.DG>
-21.2057

> <Gold.Chemscore.ZeroCoef>
-5.4800

> <Gold.Chemscore.Hbond>
2.5184

> <Gold.Chemscore.Metal>
0.0000

> <Gold.Chemscore.Lipo>
99.2722

> <Gold.Chemscore.Internal_Hbond>
0.0000

> <Gold.Chemscore.DEClash>
0.1365

> <Gold.Chemscore.DEInternal>
2.1049

> <Gold.Chemscore.Rot>
1.6800

> <Gold.Chemscore.Internal.Correction>
   9.000000E+99

> <Gold.Chemscore.Hbonds>
donor molecule, donor type, donor heavy atom, donor atom, acceptor molecule, acceptor atom, score
      L1  H     4    32       P1  7948  0.95
      L1  H     7    33       P1  7948  0.41
      L1  H    20    53       P1  7948  1.00

> <Gold.Chemscore.Hbond.Weighted>
-8.4115

> <Gold.Chemscore.Metal.Weighted>
-0.0000

> <Gold.Chemscore.Lipo.Weighted>
-11.6149

> <Gold.Chemscore.Internal_Hbond.Weighted>
0.0000

> <Gold.Chemscore.DEClash.Weighted>
0.1365

> <Gold.Chemscore.DEInternal.Weighted>
2.1049

> <Gold.Chemscore.Rot.Weighted>
4.3007

> <Gold.Chemscore.Internal.Correction.Weighted>
   9.000000E+99

> <Gold.Protein.RotatedTorsions>
[ 6907 6896 6895 6894 ] final    3.76 input  -60.11 | X-H torsion
[ 7974 7965 7964 7962 ] final -117.64 input  175.53 | X-H torsion
[ 8008 7997 7996 7995 ] final   50.43 input   59.86 | X-H torsion
[ 10167 10162 10161 10158 ] final  143.64 input  -65.29 | X-H torsion
[ 10718 10713 10712 10709 ] final  -93.95 input   66.30 | X-H torsion
[ 10763 10752 10751 10750 ] final -145.44 input  -60.55 | X-H torsion
[ 11005 11000 10999 10996 ] final  101.82 input  -57.11 | X-H torsion

> <Gold.Protein.ActiveResidues>
 VAL166  LYS551  ARG553  GLY616  TRP617  ASP618  TYR619  PRO620  LYS621  CYS622 
 ASP623  PHE694  ASN695  SER759  ASP760  ASP761  ALA762  ILE779  LEU786  VAL792 
 PHE793  MET794  SER795  GLU796  ALA797  LYS798  CYS799  TRP800  GLU811  SER814 

> <Gold.Protein.RotatedAtoms>
  151.6303  135.1023  160.0120 H   0  0  0  0  0  0  0  0  0  0  0  0  # atno 6907 bound_to 6896
  152.4110  133.6959  159.6406 H   0  0  0  0  0  0  0  0  0  0  0  0  # atno 6908 bound_to 6896
  150.8000  133.8542  159.3254 H   0  0  0  0  0  0  0  0  0  0  0  0  # atno 6909 bound_to 6896
  145.0829  140.8438  143.4028 H   0  0  0  0  0  0  0  0  0  0  0  0  # atno 7974 bound_to 7965
  155.4185  140.3445  155.4269 H   0  0  0  0  0  0  0  0  0  0  0  0  # atno 8008 bound_to 7997
  156.1407  140.1541  156.8957 H   0  0  0  0  0  0  0  0  0  0  0  0  # atno 8009 bound_to 7997
  154.4968  140.0825  156.7695 H   0  0  0  0  0  0  0  0  0  0  0  0  # atno 8010 bound_to 7997
  139.4965  144.6026  151.6447 H   0  0  0  0  0  0  0  0  0  0  0  0  # atno 10167 bound_to 10162
  156.0020  130.5048  150.5853 H   0  0  0  0  0  0  0  0  0  0  0  0  # atno 10718 bound_to 10713
  154.8383  135.3413  154.6505 H   0  0  0  0  0  0  0  0  0  0  0  0  # atno 10763 bound_to 10752
  153.7118  135.6963  153.5040 H   0  0  0  0  0  0  0  0  0  0  0  0  # atno 10764 bound_to 10752
  153.2446  135.4373  155.0688 H   0  0  0  0  0  0  0  0  0  0  0  0  # atno 10765 bound_to 10752
  139.8775  134.9199  156.4964 H   0  0  0  0  0  0  0  0  0  0  0  0  # atno 11005 bound_to 11000
  145.1156  139.2727  143.5615 LP  0  0  0  0  0  0  0  0  0  0  0  0  # atno 17320 bound_to 7965
  146.3531  140.0765  142.8620 LP  0  0  0  0  0  0  0  0  0  0  0  0  # atno 17321 bound_to 7965
  140.5680  144.0157  150.6202 LP  0  0  0  0  0  0  0  0  0  0  0  0  # atno 17342 bound_to 10162
  140.3265  143.3104  152.0731 LP  0  0  0  0  0  0  0  0  0  0  0  0  # atno 17343 bound_to 10162
  157.3727  131.0768  151.1544 LP  0  0  0  0  0  0  0  0  0  0  0  0  # atno 17370 bound_to 10713
  157.2292  130.6517  149.5843 LP  0  0  0  0  0  0  0  0  0  0  0  0  # atno 17371 bound_to 10713
  140.8621  133.8052  155.9276 LP  0  0  0  0  0  0  0  0  0  0  0  0  # atno 17394 bound_to 11000
  140.9039  134.2345  157.5026 LP  0  0  0  0  0  0  0  0  0  0  0  0  # atno 17395 bound_to 11000

$$$$
