AV-unprocessed.smi:1114|AV-procd|sdf|4800|dock4
  -GOLD-   22720 3343D 1   1.00000     0.00000
 Structure written by MMmdl.
 52 54  0  0  0  0  0  0  0  0  1 V2000
  144.4841  132.7834  149.5120 C   0  0  0  0  0  0  0  0  0  0  0  0
  144.3454  132.9023  151.0314 C   0  0  0  0  0  0  0  0  0  0  0  0
  144.4086  131.8706  151.7001 O   0  0  0  0  0  0  0  0  0  0  0  0
  144.1644  134.1248  151.5865 N   0  0  0  0  0  0  0  0  0  0  0  0
  144.1091  134.3374  153.0373 C   0  0  0  0  0  0  0  0  0  0  0  0
  145.3967  135.0547  153.4820 C   0  0  0  0  0  0  0  0  0  0  0  0
  145.6048  136.3739  152.7069 C   0  0  0  0  0  0  0  0  0  0  0  0
  146.9230  136.9193  153.0160 N   0  0  0  0  0  0  0  0  0  0  0  0
  147.2075  137.7194  154.0534 C   0  0  0  0  0  0  0  0  0  0  0  0
  146.3699  138.0800  154.8795 O   0  0  0  0  0  0  0  0  0  0  0  0
  148.5100  138.0526  154.0596 N   0  0  0  0  0  0  0  0  0  0  0  0
  149.2251  138.8882  154.9617 C   0  0  0  0  0  0  0  0  0  0  0  0
  150.5908  139.1102  154.6996 C   0  0  0  0  0  0  0  0  0  0  0  0
  151.3347  139.9388  155.5601 C   0  0  0  0  0  0  0  0  0  0  0  0
  150.6922  140.5325  156.6714 C   0  0  0  0  0  0  0  0  0  0  0  0
  151.4183  141.3649  157.5514 N   0  0  0  0  0  0  0  0  0  0  0  0
  151.7261  140.7821  158.8593 C   0  0  0  0  0  0  0  0  0  0  0  0
  152.8420  141.5672  159.5693 C   0  0  0  0  0  0  0  0  0  0  0  0
  152.4970  143.0612  159.6570 C   0  0  0  0  0  0  0  0  0  0  0  0
  152.1934  143.6122  158.2564 C   0  0  0  0  0  0  0  0  0  0  0  0
  151.0891  142.7930  157.5669 C   0  0  0  0  0  0  0  0  0  0  0  0
  149.3749  140.3293  156.9174 N   0  0  0  0  0  0  0  0  0  0  0  0
  148.6642  139.5342  156.0897 C   0  0  0  0  0  0  0  0  0  0  0  0
  145.4469  136.1660  151.1825 C   0  0  0  0  0  0  0  0  0  0  0  0
  144.1549  135.3972  150.8544 C   0  0  0  0  0  0  0  0  0  0  0  0
  145.3257  133.3761  149.1524 H   0  0  0  0  0  0  0  0  0  0  0  0
  143.5741  133.1183  149.0136 H   0  0  0  0  0  0  0  0  0  0  0  0
  144.6599  131.7469  149.2221 H   0  0  0  0  0  0  0  0  0  0  0  0
  143.2365  134.9445  153.2822 H   0  0  0  0  0  0  0  0  0  0  0  0
  143.9897  133.4084  153.5965 H   0  0  0  0  0  0  0  0  0  0  0  0
  145.3607  135.2520  154.5540 H   0  0  0  0  0  0  0  0  0  0  0  0
  146.2469  134.3905  153.3182 H   0  0  0  0  0  0  0  0  0  0  0  0
  144.8379  137.0762  153.0401 H   0  0  0  0  0  0  0  0  0  0  0  0
  147.6739  136.6707  152.3886 H   0  0  0  0  0  0  0  0  0  0  0  0
  149.0699  137.6374  153.3295 H   0  0  0  0  0  0  0  0  0  0  0  0
  151.0683  138.6531  153.8450 H   0  0  0  0  0  0  0  0  0  0  0  0
  152.3783  140.1205  155.3507 H   0  0  0  0  0  0  0  0  0  0  0  0
  150.8204  140.7962  159.4666 H   0  0  0  0  0  0  0  0  0  0  0  0
  152.0282  139.7390  158.7775 H   0  0  0  0  0  0  0  0  0  0  0  0
  153.0057  141.1616  160.5678 H   0  0  0  0  0  0  0  0  0  0  0  0
  153.7789  141.4398  159.0254 H   0  0  0  0  0  0  0  0  0  0  0  0
  151.6307  143.2027  160.3046 H   0  0  0  0  0  0  0  0  0  0  0  0
  153.3209  143.6135  160.1095 H   0  0  0  0  0  0  0  0  0  0  0  0
  151.8956  144.6589  158.3213 H   0  0  0  0  0  0  0  0  0  0  0  0
  153.0996  143.5849  157.6497 H   0  0  0  0  0  0  0  0  0  0  0  0
  150.9586  143.1614  156.5487 H   0  0  0  0  0  0  0  0  0  0  0  0
  150.1402  142.9351  158.0862 H   0  0  0  0  0  0  0  0  0  0  0  0
  147.6237  139.4411  156.3543 H   0  0  0  0  0  0  0  0  0  0  0  0
  145.4455  137.1280  150.6686 H   0  0  0  0  0  0  0  0  0  0  0  0
  146.3013  135.6099  150.7933 H   0  0  0  0  0  0  0  0  0  0  0  0
  144.0550  135.2805  149.7762 H   0  0  0  0  0  0  0  0  0  0  0  0
  143.2870  135.9821  151.1633 H   0  0  0  0  0  0  0  0  0  0  0  0
  1  2  1  0  0  0  0
  1 26  1  0  0  0  0
  1 27  1  0  0  0  0
  1 28  1  0  0  0  0
  2  3  2  0  0  0  0
  2  4  1  0  0  0  0
  4 25  1  0  0  0  0
  4  5  1  0  0  0  0
  5  6  1  0  0  0  0
  5 29  1  0  0  0  0
  5 30  1  0  0  0  0
  6  7  1  0  0  0  0
  6 31  1  0  0  0  0
  6 32  1  0  0  0  0
  7  8  1  0  0  0  0
  7 24  1  0  0  0  0
  7 33  1  0  0  0  0
  8  9  1  0  0  0  0
  8 34  1  0  0  0  0
  9 10  2  0  0  0  0
  9 11  1  0  0  0  0
 11 12  1  0  0  0  0
 11 35  1  0  0  0  0
 12 23  1  0  0  0  0
 12 13  2  0  0  0  0
 13 14  1  0  0  0  0
 13 36  1  0  0  0  0
 14 15  2  0  0  0  0
 14 37  1  0  0  0  0
 15 16  1  0  0  0  0
 15 22  1  0  0  0  0
 16 21  1  0  0  0  0
 16 17  1  0  0  0  0
 17 18  1  0  0  0  0
 17 38  1  0  0  0  0
 17 39  1  0  0  0  0
 18 19  1  0  0  0  0
 18 40  1  0  0  0  0
 18 41  1  0  0  0  0
 19 20  1  0  0  0  0
 19 42  1  0  0  0  0
 19 43  1  0  0  0  0
 20 21  1  0  0  0  0
 20 44  1  0  0  0  0
 20 45  1  0  0  0  0
 21 46  1  0  0  0  0
 21 47  1  0  0  0  0
 22 23  2  0  0  0  0
 23 48  1  0  0  0  0
 24 25  1  0  0  0  0
 24 49  1  0  0  0  0
 24 50  1  0  0  0  0
 25 51  1  0  0  0  0
 25 52  1  0  0  0  0
M  END
> <s_m_source_file>
AV-unprocessed.smi

> <i_m_source_file_index>
1114

> <i_lp_mmshare_version>
43012

> <i_f3d_flags>
0

> <s_epik_input>
W0NIM11DKD1PKU4xW0NIMl1bQ0gyXVtDSF0oW0NIMl1bQ0gyXTEpW05IXUMoPU8pW05IXWMyW2NIXVtjSF1jKG5bY0hdMilOM1tDSDJdW0NIMl1bQ0gyXVtDSDJdW0NIMl0z

> <s_epik_cmdline>
J2VwaWtfcHl0aG9uJywgJy1waCcsICc3LjAnLCAnLXRuJywgJzgnLCAnLW1hJywgJzIwMCcsICctbWV0YWxfYmluZGluZycsICctaW1hZScsICc8aW5maWxlLm1hZT4nLCAnLW9tYWUnLCAnPG91dGZpbGUubWFlPic=

> <r_lp_tautomer_probability>
1

> <r_epik_Ionization_Penalty>
0.108876

> <r_epik_Ionization_Penalty_Charging>
0

> <r_epik_Ionization_Penalty_Neutral>
0.108876

> <r_epik_State_Penalty>
0.0925502

> <r_epik_Charging_Adjusted_Penalty>
0.0925502

> <i_epik_Tot_Q>
0

> <i_epik_Tot_abs_Q>
0

> <r_epik_Metal_State_Penalty>
0.0787426

> <b_epik_Metal_Only>
0

> <s_lp_Force_Field>
OPLS_2005

> <r_lp_Energy>
37.4481

> <b_lp_Chiralities_Consistent>
1

> <s_lp_Variant>
AV-unprocessed.smi:1114-1

> <Gold.Version>
5.8.1

> <Gold.Id.Protein>
6NUR|6NUR_protein|mol2

> <Gold.PLP.Fitness>
45.8849

> <Gold.PLP.PLP>
-41.7494

> <Gold.PLP.part.hbond>
-1.6661

> <Gold.PLP.part.metal>
0.0000

> <Gold.PLP.part.buried>
-5.0802

> <Gold.PLP.part.nonpolar>
-36.6041

> <Gold.PLP.part.repulsive>
0.2987

> <Gold.PLP.ligand.clash>
0.0000

> <Gold.PLP.ligand.torsion>
0.5976

> <Gold.PLP.Chemscore.Hbond>
1.6280

> <Gold.PLP.Chemscore.CHOScore>
0.0000

> <Gold.PLP.Chemscore.Metal>
0.0000

> <Gold.Chemscore.Hbonds>
donor molecule, donor type, donor heavy atom, donor atom, acceptor molecule, acceptor atom, score
      L1  H     8    34       P1  7948  0.78
      L1  H    11    35       P1  7948  0.85

> <Gold.PLP.Chemscore.Internal.Correction>
0.4466

> <Gold.Rescore>
     Score         DG    S(hbond)    S(metal)    S(lipo)     H(rot)  DE(clash)    DE(int)     intcor
     18.70     -20.64       1.80        0.00     104.39       1.20       0.21       1.73       ----

> <Gold.Chemscore.Fitness>
18.6994

> <Gold.Chemscore.DG>
-20.6420

> <Gold.Chemscore.ZeroCoef>
-5.4800

> <Gold.Chemscore.Hbond>
1.8028

> <Gold.Chemscore.Metal>
0.0000

> <Gold.Chemscore.Lipo>
104.3887

> <Gold.Chemscore.Internal_Hbond>
0.0000

> <Gold.Chemscore.DEClash>
0.2120

> <Gold.Chemscore.DEInternal>
1.7305

> <Gold.Chemscore.Rot>
1.2003

> <Gold.Chemscore.Internal.Correction>
   9.000000E+99

> <Gold.Chemscore.Hbonds>
donor molecule, donor type, donor heavy atom, donor atom, acceptor molecule, acceptor atom, score
      L1  H     8    34       P1  7948  0.77
      L1  H    11    35       P1  7948  0.79

> <Gold.Chemscore.Hbond.Weighted>
-6.0213

> <Gold.Chemscore.Metal.Weighted>
-0.0000

> <Gold.Chemscore.Lipo.Weighted>
-12.2135

> <Gold.Chemscore.Internal_Hbond.Weighted>
0.0000

> <Gold.Chemscore.DEClash.Weighted>
0.2120

> <Gold.Chemscore.DEInternal.Weighted>
1.7305

> <Gold.Chemscore.Rot.Weighted>
3.0728

> <Gold.Chemscore.Internal.Correction.Weighted>
   9.000000E+99

> <Gold.Protein.RotatedTorsions>
[ 6907 6896 6895 6894 ] final  -72.77 input  -60.11 | X-H torsion
[ 7974 7965 7964 7962 ] final -116.97 input  175.53 | X-H torsion
[ 8008 7997 7996 7995 ] final   58.45 input   59.86 | X-H torsion
[ 10167 10162 10161 10158 ] final  165.33 input  -65.29 | X-H torsion
[ 10718 10713 10712 10709 ] final   78.95 input   66.30 | X-H torsion
[ 10763 10752 10751 10750 ] final  177.10 input  -60.55 | X-H torsion
[ 11005 11000 10999 10996 ] final  162.27 input  -57.11 | X-H torsion

> <Gold.Protein.ActiveResidues>
 VAL166  LYS551  ARG553  GLY616  TRP617  ASP618  TYR619  PRO620  LYS621  CYS622 
 ASP623  PHE694  ASN695  SER759  ASP760  ASP761  ALA762  ILE779  LEU786  VAL792 
 PHE793  MET794  SER795  GLU796  ALA797  LYS798  CYS799  TRP800  GLU811  SER814 

> <Gold.Protein.RotatedAtoms>
  150.7156  134.5114  159.5608 H   0  0  0  0  0  0  0  0  0  0  0  0  # atno 6907 bound_to 6896
  152.2690  134.7950  160.0426 H   0  0  0  0  0  0  0  0  0  0  0  0  # atno 6908 bound_to 6896
  151.8637  133.3427  159.3749 H   0  0  0  0  0  0  0  0  0  0  0  0  # atno 6909 bound_to 6896
  145.0906  140.8487  143.3985 H   0  0  0  0  0  0  0  0  0  0  0  0  # atno 7974 bound_to 7965
  155.5503  140.3486  155.4467 H   0  0  0  0  0  0  0  0  0  0  0  0  # atno 8008 bound_to 7997
  156.0588  140.1335  156.9991 H   0  0  0  0  0  0  0  0  0  0  0  0  # atno 8009 bound_to 7997
  154.4469  140.0989  156.6471 H   0  0  0  0  0  0  0  0  0  0  0  0  # atno 8010 bound_to 7997
  139.4904  144.4143  151.9263 H   0  0  0  0  0  0  0  0  0  0  0  0  # atno 10167 bound_to 10162
  157.6761  130.9892  150.1861 H   0  0  0  0  0  0  0  0  0  0  0  0  # atno 10718 bound_to 10713
  154.4900  135.2778  155.1504 H   0  0  0  0  0  0  0  0  0  0  0  0  # atno 10763 bound_to 10752
  154.3179  135.6215  153.5498 H   0  0  0  0  0  0  0  0  0  0  0  0  # atno 10764 bound_to 10752
  152.9886  135.5735  154.5319 H   0  0  0  0  0  0  0  0  0  0  0  0  # atno 10765 bound_to 10752
  140.2240  134.8174  157.3250 H   0  0  0  0  0  0  0  0  0  0  0  0  # atno 11005 bound_to 11000
  145.1071  139.2782  143.5656 LP  0  0  0  0  0  0  0  0  0  0  0  0  # atno 17320 bound_to 7965
  146.3531  140.0655  142.8626 LP  0  0  0  0  0  0  0  0  0  0  0  0  # atno 17321 bound_to 7965
  140.3585  144.3002  150.5937 LP  0  0  0  0  0  0  0  0  0  0  0  0  # atno 17342 bound_to 10162
  140.5424  143.2221  151.8063 LP  0  0  0  0  0  0  0  0  0  0  0  0  # atno 17343 bound_to 10162
  156.2583  130.3708  149.8158 LP  0  0  0  0  0  0  0  0  0  0  0  0  # atno 17370 bound_to 10713
  156.5910  130.8506  151.3408 LP  0  0  0  0  0  0  0  0  0  0  0  0  # atno 17371 bound_to 10713
  140.1819  134.4479  155.7767 LP  0  0  0  0  0  0  0  0  0  0  0  0  # atno 17394 bound_to 11000
  141.2221  133.6987  156.7883 LP  0  0  0  0  0  0  0  0  0  0  0  0  # atno 17395 bound_to 11000

$$$$
