AV-unprocessed.smi:316|AV-procd|sdf|2324|dock9
  -GOLD-   2262022223D 1   1.00000     0.00000
 Structure written by MMmdl.
 42 43  0  0  0  0  0  0  0  0  1 V2000
  151.0528  141.2287  155.9543 C   0  0  0  0  0  0  0  0  0  0  0  0
  150.9393  139.9335  155.3017 N   0  0  0  0  0  0  0  0  0  0  0  0
  151.9767  139.1231  155.0469 C   0  0  0  0  0  0  0  0  0  0  0  0
  153.1375  139.3977  155.3517 O   0  0  0  0  0  0  0  0  0  0  0  0
  151.6547  137.8008  154.3470 C   0  0  0  0  0  0  0  0  0  0  0  0
  150.8237  136.8565  155.2371 C   0  0  0  0  0  0  0  0  0  0  0  0
  149.9548  135.9935  154.4451 N   0  0  0  0  0  0  0  0  0  0  0  0
  149.7487  134.6895  154.6777 C   0  0  0  0  0  0  0  0  0  0  0  0
  150.2870  134.0696  155.5951 O   0  0  0  0  0  0  0  0  0  0  0  0
  148.9051  134.1626  153.7747 N   0  0  0  0  0  0  0  0  0  0  0  0
  148.5014  132.8043  153.6358 C   0  0  0  0  0  0  0  0  0  0  0  0
  149.0840  131.7726  154.4122 C   0  0  0  0  0  0  0  0  0  0  0  0
  148.6056  130.4577  154.2827 C   0  0  0  0  0  0  0  0  0  0  0  0
  147.5459  130.2208  153.3917 C   0  0  0  0  0  0  0  0  0  0  0  0
  146.9698  131.1933  152.6575 N   0  0  0  0  0  0  0  0  0  0  0  0
  147.4303  132.4645  152.7601 C   0  0  0  0  0  0  0  0  0  0  0  0
  146.7993  133.4396  151.9539 N   0  0  0  0  0  0  0  0  0  0  0  0
  146.1879  134.6187  152.5581 C   0  0  0  0  0  0  0  0  0  0  0  0
  145.2885  135.1988  151.4703 C   0  0  0  0  0  0  0  0  0  0  0  0
  144.7792  133.9447  150.7665 C   0  0  0  0  0  0  0  0  0  0  0  0
  145.9651  132.9774  150.8482 C   0  0  0  0  0  0  0  0  0  0  0  0
  150.0715  141.6987  156.0208 H   0  0  0  0  0  0  0  0  0  0  0  0
  151.7105  141.8917  155.3905 H   0  0  0  0  0  0  0  0  0  0  0  0
  151.4490  141.1205  156.9645 H   0  0  0  0  0  0  0  0  0  0  0  0
  150.0162  139.6366  155.0193 H   0  0  0  0  0  0  0  0  0  0  0  0
  151.1126  138.0207  153.4268 H   0  0  0  0  0  0  0  0  0  0  0  0
  152.5855  137.3141  154.0509 H   0  0  0  0  0  0  0  0  0  0  0  0
  151.4749  136.2459  155.8656 H   0  0  0  0  0  0  0  0  0  0  0  0
  150.1921  137.4338  155.9132 H   0  0  0  0  0  0  0  0  0  0  0  0
  149.4738  136.4215  153.6673 H   0  0  0  0  0  0  0  0  0  0  0  0
  148.6088  134.7780  153.0313 H   0  0  0  0  0  0  0  0  0  0  0  0
  149.8734  131.9700  155.1210 H   0  0  0  0  0  0  0  0  0  0  0  0
  149.0323  129.6528  154.8627 H   0  0  0  0  0  0  0  0  0  0  0  0
  147.1452  129.2255  153.2692 H   0  0  0  0  0  0  0  0  0  0  0  0
  145.5799  134.3433  153.4210 H   0  0  0  0  0  0  0  0  0  0  0  0
  146.9429  135.3343  152.8848 H   0  0  0  0  0  0  0  0  0  0  0  0
  144.4878  135.8226  151.8684 H   0  0  0  0  0  0  0  0  0  0  0  0
  145.8789  135.8010  150.7781 H   0  0  0  0  0  0  0  0  0  0  0  0
  143.9322  133.5350  151.3184 H   0  0  0  0  0  0  0  0  0  0  0  0
  144.4543  134.1318  149.7427 H   0  0  0  0  0  0  0  0  0  0  0  0
  146.5460  133.0252  149.9270 H   0  0  0  0  0  0  0  0  0  0  0  0
  145.6312  131.9479  150.9850 H   0  0  0  0  0  0  0  0  0  0  0  0
  1  2  1  0  0  0  0
  1 22  1  0  0  0  0
  1 23  1  0  0  0  0
  1 24  1  0  0  0  0
  2  3  1  0  0  0  0
  2 25  1  0  0  0  0
  3  4  2  0  0  0  0
  3  5  1  0  0  0  0
  5  6  1  0  0  0  0
  5 26  1  0  0  0  0
  5 27  1  0  0  0  0
  6  7  1  0  0  0  0
  6 28  1  0  0  0  0
  6 29  1  0  0  0  0
  7  8  1  0  0  0  0
  7 30  1  0  0  0  0
  8  9  2  0  0  0  0
  8 10  1  0  0  0  0
 10 11  1  0  0  0  0
 10 31  1  0  0  0  0
 11 16  1  0  0  0  0
 11 12  2  0  0  0  0
 12 13  1  0  0  0  0
 12 32  1  0  0  0  0
 13 14  2  0  0  0  0
 13 33  1  0  0  0  0
 14 15  1  0  0  0  0
 14 34  1  0  0  0  0
 15 16  2  0  0  0  0
 16 17  1  0  0  0  0
 17 21  1  0  0  0  0
 17 18  1  0  0  0  0
 18 19  1  0  0  0  0
 18 35  1  0  0  0  0
 18 36  1  0  0  0  0
 19 20  1  0  0  0  0
 19 37  1  0  0  0  0
 19 38  1  0  0  0  0
 20 21  1  0  0  0  0
 20 39  1  0  0  0  0
 20 40  1  0  0  0  0
 21 41  1  0  0  0  0
 21 42  1  0  0  0  0
M  END
> <s_m_source_file>
AV-unprocessed.smi

> <i_m_source_file_index>
316

> <i_lp_mmshare_version>
43012

> <i_f3d_flags>
0

> <s_epik_input>
W0NIM11bTkhdQyg9TylbQ0gyXVtDSDJdW05IXUMoPU8pW05IXWMxW2NIXVtjSF1bY0hdbmMxTjJbQ0gyXVtDSDJdW0NIMl1bQ0gyXTI=

> <s_epik_cmdline>
J2VwaWtfcHl0aG9uJywgJy1waCcsICc3LjAnLCAnLXRuJywgJzgnLCAnLW1hJywgJzIwMCcsICctbWV0YWxfYmluZGluZycsICctaW1hZScsICc8aW5maWxlLm1hZT4nLCAnLW9tYWUnLCAnPG91dGZpbGUubWFlPic=

> <r_lp_tautomer_probability>
1

> <r_epik_Ionization_Penalty>
0.0916714

> <r_epik_Ionization_Penalty_Charging>
0

> <r_epik_Ionization_Penalty_Neutral>
0.0916714

> <r_epik_State_Penalty>
0.0814442

> <r_epik_Charging_Adjusted_Penalty>
0.0814442

> <i_epik_Tot_Q>
0

> <i_epik_Tot_abs_Q>
0

> <r_epik_Metal_State_Penalty>
0.0705089

> <b_epik_Metal_Only>
0

> <s_lp_Force_Field>
OPLS_2005

> <r_lp_Energy>
29.6087

> <b_lp_Chiralities_Consistent>
1

> <s_lp_Variant>
AV-unprocessed.smi:316-1

> <Gold.Version>
5.8.1

> <Gold.Id.Protein>
6NUR|6NUR_protein|mol2

> <Gold.PLP.Fitness>
45.7409

> <Gold.PLP.PLP>
-37.7664

> <Gold.PLP.part.hbond>
-3.3792

> <Gold.PLP.part.metal>
0.0000

> <Gold.PLP.part.buried>
-4.2706

> <Gold.PLP.part.nonpolar>
-30.2412

> <Gold.PLP.part.repulsive>
0.9056

> <Gold.PLP.ligand.clash>
0.0000

> <Gold.PLP.ligand.torsion>
0.5809

> <Gold.PLP.Chemscore.Hbond>
2.9280

> <Gold.PLP.Chemscore.CHOScore>
0.0000

> <Gold.PLP.Chemscore.Metal>
0.0000

> <Gold.Chemscore.Hbonds>
donor molecule, donor type, donor heavy atom, donor atom, acceptor molecule, acceptor atom, score
      L1  H     7    30       P1  7948  0.90
      L1  H    10    31       P1  7948  0.99
      P1  H  7997  8008       L1     4  1.00

> <Gold.PLP.Chemscore.Internal.Correction>
0.3524

> <Gold.Rescore>
     Score         DG    S(hbond)    S(metal)    S(lipo)     H(rot)  DE(clash)    DE(int)     intcor
     12.80     -15.73       2.35        0.00      63.18       1.94       0.09       2.85       ----

> <Gold.Chemscore.Fitness>
12.7951

> <Gold.Chemscore.DG>
-15.7322

> <Gold.Chemscore.ZeroCoef>
-5.4800

> <Gold.Chemscore.Hbond>
2.3461

> <Gold.Chemscore.Metal>
0.0000

> <Gold.Chemscore.Lipo>
63.1803

> <Gold.Chemscore.Internal_Hbond>
0.0000

> <Gold.Chemscore.DEClash>
0.0913

> <Gold.Chemscore.DEInternal>
2.8458

> <Gold.Chemscore.Rot>
1.9437

> <Gold.Chemscore.Internal.Correction>
   9.000000E+99

> <Gold.Chemscore.Hbonds>
donor molecule, donor type, donor heavy atom, donor atom, acceptor molecule, acceptor atom, score
      L1  H     7    30       P1  7948  0.66
      L1  H    10    31       P1  7948  0.33
      P1  H  7997  8008       L1     4  0.98

> <Gold.Chemscore.Hbond.Weighted>
-7.8360

> <Gold.Chemscore.Metal.Weighted>
-0.0000

> <Gold.Chemscore.Lipo.Weighted>
-7.3921

> <Gold.Chemscore.Internal_Hbond.Weighted>
0.0000

> <Gold.Chemscore.DEClash.Weighted>
0.0913

> <Gold.Chemscore.DEInternal.Weighted>
2.8458

> <Gold.Chemscore.Rot.Weighted>
4.9759

> <Gold.Chemscore.Internal.Correction.Weighted>
   9.000000E+99

> <Gold.Protein.RotatedTorsions>
[ 6907 6896 6895 6894 ] final  -85.30 input  -60.11 | X-H torsion
[ 7974 7965 7964 7962 ] final -176.61 input  175.53 | X-H torsion
[ 8008 7997 7996 7995 ] final  -37.65 input   59.86 | X-H torsion
[ 10167 10162 10161 10158 ] final -170.47 input  -65.29 | X-H torsion
[ 10718 10713 10712 10709 ] final  132.79 input   66.30 | X-H torsion
[ 10763 10752 10751 10750 ] final -164.45 input  -60.55 | X-H torsion
[ 11005 11000 10999 10996 ] final  133.12 input  -57.11 | X-H torsion

> <Gold.Protein.ActiveResidues>
 VAL166  LYS551  ARG553  GLY616  TRP617  ASP618  TYR619  PRO620  LYS621  CYS622 
 ASP623  PHE694  ASN695  SER759  ASP760  ASP761  ALA762  ILE779  LEU786  VAL792 
 PHE793  MET794  SER795  GLU796  ALA797  LYS798  CYS799  TRP800  GLU811  SER814 

> <Gold.Protein.RotatedAtoms>
  150.6871  134.3226  159.4792 H   0  0  0  0  0  0  0  0  0  0  0  0  # atno 6907 bound_to 6896
  152.1099  134.9279  160.0576 H   0  0  0  0  0  0  0  0  0  0  0  0  # atno 6908 bound_to 6896
  152.0525  133.3991  159.4420 H   0  0  0  0  0  0  0  0  0  0  0  0  # atno 6909 bound_to 6896
  144.7127  140.1143  143.6409 H   0  0  0  0  0  0  0  0  0  0  0  0  # atno 7974 bound_to 7965
  154.4050  140.1598  156.2571 H   0  0  0  0  0  0  0  0  0  0  0  0  # atno 8008 bound_to 7997
  155.9069  140.3430  155.6046 H   0  0  0  0  0  0  0  0  0  0  0  0  # atno 8009 bound_to 7997
  155.7382  140.0789  157.2248 H   0  0  0  0  0  0  0  0  0  0  0  0  # atno 8010 bound_to 7997
  139.5860  144.1318  152.1576 H   0  0  0  0  0  0  0  0  0  0  0  0  # atno 10167 bound_to 10162
  157.4837  131.1087  150.9648 H   0  0  0  0  0  0  0  0  0  0  0  0  # atno 10718 bound_to 10713
  154.7027  135.2991  154.9317 H   0  0  0  0  0  0  0  0  0  0  0  0  # atno 10763 bound_to 10752
  154.0243  135.6678  153.4779 H   0  0  0  0  0  0  0  0  0  0  0  0  # atno 10764 bound_to 10752
  153.0693  135.5070  154.8180 H   0  0  0  0  0  0  0  0  0  0  0  0  # atno 10765 bound_to 10752
  139.9832  134.9541  156.9680 H   0  0  0  0  0  0  0  0  0  0  0  0  # atno 11005 bound_to 11000
  145.9427  139.2679  143.1259 LP  0  0  0  0  0  0  0  0  0  0  0  0  # atno 17320 bound_to 7965
  145.9407  140.8982  143.0309 LP  0  0  0  0  0  0  0  0  0  0  0  0  # atno 17321 bound_to 7965
  140.0881  144.5644  150.7074 LP  0  0  0  0  0  0  0  0  0  0  0  0  # atno 17342 bound_to 10162
  140.7131  143.2522  151.4518 LP  0  0  0  0  0  0  0  0  0  0  0  0  # atno 17343 bound_to 10162
  157.0373  130.5735  149.5351 LP  0  0  0  0  0  0  0  0  0  0  0  0  # atno 17370 bound_to 10713
  156.0135  130.5228  150.8063 LP  0  0  0  0  0  0  0  0  0  0  0  0  # atno 17371 bound_to 10713
  140.5054  134.1055  155.7259 LP  0  0  0  0  0  0  0  0  0  0  0  0  # atno 17394 bound_to 11000
  141.1501  133.8984  157.2118 LP  0  0  0  0  0  0  0  0  0  0  0  0  # atno 17395 bound_to 11000

$$$$
