AV-unprocessed.smi:356|AV-procd|sdf|2410|dock2
  -GOLD-   2262022343D 1   1.00000     0.00000
 Structure written by MMmdl.
 42 44  0  0  0  0  0  0  0  0  2 V2000
  151.6665  139.3190  155.0099 C   0  0  0  0  0  0  0  0  0  0  0  0
  151.8129  140.2292  156.1879 C   0  0  0  0  0  0  0  0  0  0  0  0
  152.6678  139.9759  157.1783 N   0  0  0  0  0  0  0  0  0  0  0  0
  152.4821  141.0533  158.0228 C   0  0  0  0  0  0  0  0  0  0  0  0
  153.0963  141.3713  159.2551 C   0  0  0  0  0  0  0  0  0  0  0  0
  152.7377  142.5454  159.9493 C   0  0  0  0  0  0  0  0  0  0  0  0
  151.7624  143.4167  159.4229 C   0  0  0  0  0  0  0  0  0  0  0  0
  151.1372  143.1185  158.1969 C   0  0  0  0  0  0  0  0  0  0  0  0
  151.4983  141.9449  157.5078 C   0  0  0  0  0  0  0  0  0  0  0  0
  151.0813  141.3641  156.3133 N   0  0  0  0  0  0  0  0  0  0  0  0
  150.0719  141.8853  155.4020 C   0  0  0  0  0  0  0  0  0  0  0  0
  148.6558  141.3528  155.7035 C   0  0  2  0  0  0  0  0  0  0  0  0
  148.7401  139.9454  155.8041 O   0  0  0  0  0  0  0  0  0  0  0  0
  147.6147  141.7116  154.6196 C   0  0  0  0  0  0  0  0  0  0  0  0
  146.8145  142.9133  154.9666 N   0  3  0  0  0  0  0  0  0  0  0  0
  145.9930  143.4287  153.8428 C   0  0  0  0  0  0  0  0  0  0  0  0
  145.2266  144.6914  154.2721 C   0  0  0  0  0  0  0  0  0  0  0  0
  144.4246  144.4021  155.4105 O   0  0  0  0  0  0  0  0  0  0  0  0
  145.2091  143.9903  156.5227 C   0  0  0  0  0  0  0  0  0  0  0  0
  145.9713  142.7028  156.1675 C   0  0  0  0  0  0  0  0  0  0  0  0
  152.3757  138.4932  155.0753 H   0  0  0  0  0  0  0  0  0  0  0  0
  151.8611  139.8611  154.0845 H   0  0  0  0  0  0  0  0  0  0  0  0
  150.6609  138.9018  154.9739 H   0  0  0  0  0  0  0  0  0  0  0  0
  153.8452  140.7109  159.6668 H   0  0  0  0  0  0  0  0  0  0  0  0
  153.2144  142.7791  160.8901 H   0  0  0  0  0  0  0  0  0  0  0  0
  151.4952  144.3146  159.9612 H   0  0  0  0  0  0  0  0  0  0  0  0
  150.3893  143.7845  157.7931 H   0  0  0  0  0  0  0  0  0  0  0  0
  150.0841  142.9743  155.4632 H   0  0  0  0  0  0  0  0  0  0  0  0
  150.3622  141.6400  154.3799 H   0  0  0  0  0  0  0  0  0  0  0  0
  148.3399  141.7375  156.6717 H   0  0  0  0  0  0  0  0  0  0  0  0
  148.3018  139.6726  156.5964 H   0  0  0  0  0  0  0  0  0  0  0  0
  148.0928  141.8818  153.6546 H   0  0  0  0  0  0  0  0  0  0  0  0
  146.9508  140.8562  154.4838 H   0  0  0  0  0  0  0  0  0  0  0  0
  146.6209  143.6657  152.9846 H   0  0  0  0  0  0  0  0  0  0  0  0
  145.2893  142.6594  153.5204 H   0  0  0  0  0  0  0  0  0  0  0  0
  145.9148  145.5085  154.4947 H   0  0  0  0  0  0  0  0  0  0  0  0
  144.5802  145.0314  153.4628 H   0  0  0  0  0  0  0  0  0  0  0  0
  145.8987  144.7850  156.8122 H   0  0  0  0  0  0  0  0  0  0  0  0
  144.5507  143.8143  157.3735 H   0  0  0  0  0  0  0  0  0  0  0  0
  145.2672  141.8898  155.9827 H   0  0  0  0  0  0  0  0  0  0  0  0
  146.5946  142.4027  157.0107 H   0  0  0  0  0  0  0  0  0  0  0  0
  147.4780  143.6360  155.2090 H   0  0  0  0  0  0  0  0  0  0  0  0
  1  2  1  0  0  0  0
  1 21  1  0  0  0  0
  1 22  1  0  0  0  0
  1 23  1  0  0  0  0
  2 10  1  0  0  0  0
  2  3  2  0  0  0  0
  3  4  1  0  0  0  0
  4  9  2  0  0  0  0
  4  5  1  0  0  0  0
  5  6  2  0  0  0  0
  5 24  1  0  0  0  0
  6  7  1  0  0  0  0
  6 25  1  0  0  0  0
  7  8  2  0  0  0  0
  7 26  1  0  0  0  0
  8  9  1  0  0  0  0
  8 27  1  0  0  0  0
  9 10  1  0  0  0  0
 10 11  1  0  0  0  0
 11 12  1  0  0  0  0
 11 28  1  0  0  0  0
 11 29  1  0  0  0  0
 12 13  1  0  0  0  0
 12 14  1  0  0  0  0
 12 30  1  0  0  0  0
 13 31  1  0  0  0  0
 14 15  1  0  0  0  0
 14 32  1  0  0  0  0
 14 33  1  0  0  0  0
 15 20  1  0  0  0  0
 15 16  1  0  0  0  0
 15 42  1  0  0  0  0
 16 17  1  0  0  0  0
 16 34  1  0  0  0  0
 16 35  1  0  0  0  0
 17 18  1  0  0  0  0
 17 36  1  0  0  0  0
 17 37  1  0  0  0  0
 18 19  1  0  0  0  0
 19 20  1  0  0  0  0
 19 38  1  0  0  0  0
 19 39  1  0  0  0  0
 20 40  1  0  0  0  0
 20 41  1  0  0  0  0
M  CHG  1  15   1
M  END
> <s_m_source_file>
AV-unprocessed.smi

> <i_m_source_file_index>
356

> <i_lp_mmshare_version>
43012

> <i_f3d_flags>
0

> <s_epik_input>
W2NIXTFbY0hdW2NIXVtjSF1jKGMxMiluKGMobjIpW0NIM10pW0NIMl1bQ0BIXShbT0hdKVtDSDJdTjNbQ0gyXVtDSDJdT1tDSDJdW0NIMl0z

> <s_epik_cmdline>
J2VwaWtfcHl0aG9uJywgJy1waCcsICc3LjAnLCAnLXRuJywgJzgnLCAnLW1hJywgJzIwMCcsICctbWV0YWxfYmluZGluZycsICctaW1hZScsICc8aW5maWxlLm1hZT4nLCAnLW9tYWUnLCAnPG91dGZpbGUubWFlPic=

> <r_epik_Ionization_Penalty>
0.706388

> <r_epik_Ionization_Penalty_Charging>
0.608065

> <r_epik_Ionization_Penalty_Neutral>
0.0983237

> <r_epik_State_Penalty>
0.742533

> <r_epik_Charging_Adjusted_Penalty>
1.3506

> <i_epik_Tot_Q>
1

> <i_epik_Tot_abs_Q>
1

> <r_epik_Metal_State_Penalty>
0.651809

> <b_epik_Metal_Only>
0

> <s_lp_Force_Field>
OPLS_2005

> <r_lp_Energy>
21.62

> <b_lp_Chiralities_Consistent>
1

> <s_lp_Variant>
AV-unprocessed.smi:356-3

> <Gold.Version>
5.8.1

> <Gold.Id.Protein>
6NUR|6NUR_protein|mol2

> <Gold.PLP.Fitness>
46.6729

> <Gold.PLP.PLP>
-39.5764

> <Gold.PLP.part.hbond>
-1.9984

> <Gold.PLP.part.metal>
0.0000

> <Gold.PLP.part.buried>
-5.7550

> <Gold.PLP.part.nonpolar>
-30.4584

> <Gold.PLP.part.repulsive>
0.2553

> <Gold.PLP.ligand.clash>
0.0000

> <Gold.PLP.ligand.torsion>
0.9657

> <Gold.PLP.Chemscore.Hbond>
3.0000

> <Gold.PLP.Chemscore.CHOScore>
0.0000

> <Gold.PLP.Chemscore.Metal>
0.0000

> <Gold.Chemscore.Hbonds>
donor molecule, donor type, donor heavy atom, donor atom, acceptor molecule, acceptor atom, score
      L1  H    15    42       P1  8028  1.20
      P1  H  7997  8010       L1     3  1.00

> <Gold.PLP.Chemscore.Internal.Correction>
0.0281

> <Gold.Rescore>
     Score         DG    S(hbond)    S(metal)    S(lipo)     H(rot)  DE(clash)    DE(int)     intcor
     14.31     -15.31       0.92        0.00     102.95       2.07       0.10       0.90       ----

> <Gold.Chemscore.Fitness>
14.3077

> <Gold.Chemscore.DG>
-15.3082

> <Gold.Chemscore.ZeroCoef>
-5.4800

> <Gold.Chemscore.Hbond>
0.9193

> <Gold.Chemscore.Metal>
0.0000

> <Gold.Chemscore.Lipo>
102.9548

> <Gold.Chemscore.Internal_Hbond>
0.0000

> <Gold.Chemscore.DEClash>
0.0994

> <Gold.Chemscore.DEInternal>
0.9011

> <Gold.Chemscore.Rot>
2.0656

> <Gold.Chemscore.Internal.Correction>
   9.000000E+99

> <Gold.Chemscore.Hbonds>
donor molecule, donor type, donor heavy atom, donor atom, acceptor molecule, acceptor atom, score
      L1  H    15    42       P1  8028  0.04
      P1  H  7997  8010       L1     3  0.41

> <Gold.Chemscore.Hbond.Weighted>
-3.0703

> <Gold.Chemscore.Metal.Weighted>
-0.0000

> <Gold.Chemscore.Lipo.Weighted>
-12.0457

> <Gold.Chemscore.Internal_Hbond.Weighted>
0.0000

> <Gold.Chemscore.DEClash.Weighted>
0.0994

> <Gold.Chemscore.DEInternal.Weighted>
0.9011

> <Gold.Chemscore.Rot.Weighted>
5.2879

> <Gold.Chemscore.Internal.Correction.Weighted>
   9.000000E+99

> <Gold.Protein.RotatedTorsions>
[ 6907 6896 6895 6894 ] final   -6.19 input  -60.11 | X-H torsion
[ 7974 7965 7964 7962 ] final  -62.24 input  175.53 | X-H torsion
[ 8008 7997 7996 7995 ] final   63.16 input   59.86 | X-H torsion
[ 10167 10162 10161 10158 ] final   -0.42 input  -65.29 | X-H torsion
[ 10718 10713 10712 10709 ] final  -70.85 input   66.30 | X-H torsion
[ 10763 10752 10751 10750 ] final  127.88 input  -60.55 | X-H torsion
[ 11005 11000 10999 10996 ] final  173.69 input  -57.11 | X-H torsion

> <Gold.Protein.ActiveResidues>
 VAL166  LYS551  ARG553  GLY616  TRP617  ASP618  TYR619  PRO620  LYS621  CYS622 
 ASP623  PHE694  ASN695  SER759  ASP760  ASP761  ALA762  ILE779  LEU786  VAL792 
 PHE793  MET794  SER795  GLU796  ALA797  LYS798  CYS799  TRP800  GLU811  SER814 

> <Gold.Protein.RotatedAtoms>
  151.4696  135.1045  159.9747 H   0  0  0  0  0  0  0  0  0  0  0  0  # atno 6907 bound_to 6896
  152.4822  133.8278  159.7097 H   0  0  0  0  0  0  0  0  0  0  0  0  # atno 6908 bound_to 6896
  150.8902  133.7193  159.2933 H   0  0  0  0  0  0  0  0  0  0  0  0  # atno 6909 bound_to 6896
  145.7936  140.8695  143.0268 H   0  0  0  0  0  0  0  0  0  0  0  0  # atno 7974 bound_to 7965
  155.6258  140.3496  155.4667 H   0  0  0  0  0  0  0  0  0  0  0  0  # atno 8008 bound_to 7997
  156.0042  140.1219  157.0541 H   0  0  0  0  0  0  0  0  0  0  0  0  # atno 8009 bound_to 7997
  154.4259  140.1094  156.5726 H   0  0  0  0  0  0  0  0  0  0  0  0  # atno 8010 bound_to 7997
  140.6766  143.6897  150.8038 H   0  0  0  0  0  0  0  0  0  0  0  0  # atno 10167 bound_to 10162
  156.0389  130.4339  150.2357 H   0  0  0  0  0  0  0  0  0  0  0  0  # atno 10718 bound_to 10713
  153.7165  135.3260  155.3257 H   0  0  0  0  0  0  0  0  0  0  0  0  # atno 10763 bound_to 10752
  154.8369  135.4489  154.1261 H   0  0  0  0  0  0  0  0  0  0  0  0  # atno 10764 bound_to 10752
  153.2369  135.6966  153.7906 H   0  0  0  0  0  0  0  0  0  0  0  0  # atno 10765 bound_to 10752
  140.3432  134.7258  157.4217 H   0  0  0  0  0  0  0  0  0  0  0  0  # atno 11005 bound_to 11000
  144.6778  140.0159  143.7484 LP  0  0  0  0  0  0  0  0  0  0  0  0  # atno 17320 bound_to 7965
  145.9951  139.3045  143.0961 LP  0  0  0  0  0  0  0  0  0  0  0  0  # atno 17321 bound_to 7965
  140.0591  143.5173  152.2637 LP  0  0  0  0  0  0  0  0  0  0  0  0  # atno 17342 bound_to 10162
  139.6063  144.7597  151.3055 LP  0  0  0  0  0  0  0  0  0  0  0  0  # atno 17343 bound_to 10162
  157.0454  131.0047  151.3270 LP  0  0  0  0  0  0  0  0  0  0  0  0  # atno 17370 bound_to 10713
  157.5179  130.7980  149.7777 LP  0  0  0  0  0  0  0  0  0  0  0  0  # atno 17371 bound_to 10713
  140.0764  134.5792  155.8587 LP  0  0  0  0  0  0  0  0  0  0  0  0  # atno 17394 bound_to 11000
  141.2033  133.6631  156.6053 LP  0  0  0  0  0  0  0  0  0  0  0  0  # atno 17395 bound_to 11000

$$$$
