AV-unprocessed.smi:781|AV-procd|sdf|3709|dock9
  -GOLD-   22720 1133D 1   1.00000     0.00000
 Structure written by MMmdl.
 38 40  0  0  0  0  0  0  0  0  1 V2000
  154.0683  141.8582  160.6425 C   0  0  0  0  0  0  0  0  0  0  0  0
  153.1190  142.5060  159.6935 C   0  0  0  0  0  0  0  0  0  0  0  0
  152.3497  142.0237  158.6720 C   0  0  0  0  0  0  0  0  0  0  0  0
  151.6906  143.1865  158.1913 C   0  0  0  0  0  0  0  0  0  0  0  0
  150.7821  143.1103  157.1051 N   0  0  0  0  0  0  0  0  0  0  0  0
  150.5455  142.0561  156.3060 C   0  0  0  0  0  0  0  0  0  0  0  0
  151.1091  140.9641  156.3843 O   0  0  0  0  0  0  0  0  0  0  0  0
  149.6087  142.3420  155.3915 N   0  0  0  0  0  0  0  0  0  0  0  0
  149.1245  141.4147  154.3713 C   0  0  2  0  0  0  0  0  0  0  0  0
  147.8005  141.8672  153.7043 C   0  0  2  0  0  0  0  0  0  0  0  0
  146.7286  142.2210  154.7573 C   0  0  0  0  0  0  0  0  0  0  0  0
  146.3801  140.8461  155.3575 C   0  0  0  0  0  0  0  0  0  0  0  0
  147.2695  139.8840  154.5455 C   0  0  1  0  0  0  0  0  0  0  0  0
  147.2590  140.5464  153.1725 C   0  0  0  0  0  0  0  0  0  0  0  0
  148.7414  140.0448  154.9920 C   0  0  1  0  0  0  0  0  0  0  0  0
  149.6394  138.8849  154.5207 C   0  0  0  0  0  0  0  0  0  0  0  0
  150.9836  139.3106  154.4432 O   0  0  0  0  0  0  0  0  0  0  0  0
  152.0271  144.2799  158.8585 N   0  0  0  0  0  0  0  0  0  0  0  0
  152.9442  143.8492  159.8245 O   0  0  0  0  0  0  0  0  0  0  0  0
  154.0678  140.7754  160.5166 H   0  0  0  0  0  0  0  0  0  0  0  0
  153.7940  142.0778  161.6744 H   0  0  0  0  0  0  0  0  0  0  0  0
  155.0843  142.2172  160.4777 H   0  0  0  0  0  0  0  0  0  0  0  0
  152.2732  141.0034  158.3268 H   0  0  0  0  0  0  0  0  0  0  0  0
  150.2508  143.9479  156.9193 H   0  0  0  0  0  0  0  0  0  0  0  0
  149.1980  143.2640  155.3990 H   0  0  0  0  0  0  0  0  0  0  0  0
  149.8915  141.2814  153.6059 H   0  0  0  0  0  0  0  0  0  0  0  0
  147.9369  142.6406  152.9475 H   0  0  0  0  0  0  0  0  0  0  0  0
  147.0713  142.9336  155.5073 H   0  0  0  0  0  0  0  0  0  0  0  0
  145.8517  142.6557  154.2755 H   0  0  0  0  0  0  0  0  0  0  0  0
  146.5825  140.7959  156.4279 H   0  0  0  0  0  0  0  0  0  0  0  0
  145.3237  140.6203  155.2075 H   0  0  0  0  0  0  0  0  0  0  0  0
  146.9131  138.8536  154.5623 H   0  0  0  0  0  0  0  0  0  0  0  0
  146.2605  140.6299  152.7396 H   0  0  0  0  0  0  0  0  0  0  0  0
  147.9193  140.0680  152.4479 H   0  0  0  0  0  0  0  0  0  0  0  0
  148.7805  140.0773  156.0825 H   0  0  0  0  0  0  0  0  0  0  0  0
  149.5844  138.0542  155.2248 H   0  0  0  0  0  0  0  0  0  0  0  0
  149.3261  138.5043  153.5485 H   0  0  0  0  0  0  0  0  0  0  0  0
  151.5405  138.6017  154.7271 H   0  0  0  0  0  0  0  0  0  0  0  0
  1  2  1  0  0  0  0
  1 20  1  0  0  0  0
  1 21  1  0  0  0  0
  1 22  1  0  0  0  0
  2 19  1  0  0  0  0
  2  3  2  0  0  0  0
  3  4  1  0  0  0  0
  3 23  1  0  0  0  0
  4  5  1  0  0  0  0
  4 18  2  0  0  0  0
  5  6  1  0  0  0  0
  5 24  1  0  0  0  0
  6  7  2  0  0  0  0
  6  8  1  0  0  0  0
  8  9  1  0  0  0  0
  8 25  1  0  0  0  0
  9 15  1  0  0  0  0
  9 10  1  0  0  0  0
  9 26  1  0  0  0  0
 10 14  1  0  0  0  0
 10 11  1  0  0  0  0
 10 27  1  0  0  0  0
 11 12  1  0  0  0  0
 11 28  1  0  0  0  0
 11 29  1  0  0  0  0
 12 13  1  0  0  0  0
 12 30  1  0  0  0  0
 12 31  1  0  0  0  0
 13 14  1  0  0  0  0
 13 15  1  0  0  0  0
 13 32  1  0  0  0  0
 14 33  1  0  0  0  0
 14 34  1  0  0  0  0
 15 16  1  0  0  0  0
 15 35  1  0  0  0  0
 16 17  1  0  0  0  0
 16 36  1  0  0  0  0
 16 37  1  0  0  0  0
 17 38  1  0  0  0  0
 18 19  1  0  0  0  0
M  END
> <s_m_source_file>
AV-unprocessed.smi

> <i_m_source_file_index>
781

> <i_lp_mmshare_version>
43012

> <i_f3d_flags>
0

> <s_epik_input>
W0NIM11jMVtjSF1jKG5vMSlbTkhdQyg9TylbTkhdW0NASF0oW0NAQEhdMjMpW0NASF0oW0NIMl1bT0hdKVtDQEBIXShbQ0gyXTMpW0NIMl1bQ0gyXTI=

> <s_epik_cmdline>
J2VwaWtfcHl0aG9uJywgJy1waCcsICc3LjAnLCAnLXRuJywgJzgnLCAnLW1hJywgJzIwMCcsICctbWV0YWxfYmluZGluZycsICctaW1hZScsICc8aW5maWxlLm1hZT4nLCAnLW9tYWUnLCAnPG91dGZpbGUubWFlPic=

> <r_lp_tautomer_probability>
1

> <r_epik_Ionization_Penalty>
2.32222e-05

> <r_epik_Ionization_Penalty_Charging>
0

> <r_epik_Ionization_Penalty_Neutral>
2.32222e-05

> <r_epik_State_Penalty>
-0

> <r_epik_Charging_Adjusted_Penalty>
0

> <i_epik_Tot_Q>
0

> <i_epik_Tot_abs_Q>
0

> <r_epik_Metal_State_Penalty>
-0

> <b_epik_Metal_Only>
0

> <s_lp_Force_Field>
OPLS_2005

> <r_lp_Energy>
46.3862

> <b_lp_Chiralities_Consistent>
1

> <s_lp_Variant>
AV-unprocessed.smi:781-3

> <Gold.Version>
5.8.1

> <Gold.Id.Protein>
6NUR|6NUR_protein|mol2

> <Gold.PLP.Fitness>
44.6648

> <Gold.PLP.PLP>
-36.8912

> <Gold.PLP.part.hbond>
-2.9239

> <Gold.PLP.part.metal>
0.0000

> <Gold.PLP.part.buried>
-5.2675

> <Gold.PLP.part.nonpolar>
-28.1661

> <Gold.PLP.part.repulsive>
0.2661

> <Gold.PLP.ligand.clash>
0.0000

> <Gold.PLP.ligand.torsion>
0.3940

> <Gold.PLP.Chemscore.Hbond>
2.8480

> <Gold.PLP.Chemscore.CHOScore>
0.0000

> <Gold.PLP.Chemscore.Metal>
0.0000

> <Gold.Chemscore.Hbonds>
donor molecule, donor type, donor heavy atom, donor atom, acceptor molecule, acceptor atom, score
      L1  H     5    24       P1  8028  0.86
      L1  H     8    25       P1  8028  0.94
      P1  H  7989  7998       L1    17  1.00

> <Gold.PLP.Chemscore.Internal.Correction>
0.0176

> <Gold.Rescore>
     Score         DG    S(hbond)    S(metal)    S(lipo)     H(rot)  DE(clash)    DE(int)     intcor
     16.08     -19.25       2.86        0.00      76.78       1.86       0.11       3.06       ----

> <Gold.Chemscore.Fitness>
16.0764

> <Gold.Chemscore.DG>
-19.2480

> <Gold.Chemscore.ZeroCoef>
-5.4800

> <Gold.Chemscore.Hbond>
2.8573

> <Gold.Chemscore.Metal>
0.0000

> <Gold.Chemscore.Lipo>
76.7765

> <Gold.Chemscore.Internal_Hbond>
0.0000

> <Gold.Chemscore.DEClash>
0.1120

> <Gold.Chemscore.DEInternal>
3.0596

> <Gold.Chemscore.Rot>
1.8587

> <Gold.Chemscore.Internal.Correction>
   9.000000E+99

> <Gold.Chemscore.Hbonds>
donor molecule, donor type, donor heavy atom, donor atom, acceptor molecule, acceptor atom, score
      L1  H     5    24       P1  8028  0.83
      L1  H     8    25       P1  8028  0.90
      P1  H  7989  7998       L1    17  0.99

> <Gold.Chemscore.Hbond.Weighted>
-9.5434

> <Gold.Chemscore.Metal.Weighted>
-0.0000

> <Gold.Chemscore.Lipo.Weighted>
-8.9828

> <Gold.Chemscore.Internal_Hbond.Weighted>
0.0000

> <Gold.Chemscore.DEClash.Weighted>
0.1120

> <Gold.Chemscore.DEInternal.Weighted>
3.0596

> <Gold.Chemscore.Rot.Weighted>
4.7583

> <Gold.Chemscore.Internal.Correction.Weighted>
   9.000000E+99

> <Gold.Protein.RotatedTorsions>
[ 6907 6896 6895 6894 ] final  -59.07 input  -60.11 | X-H torsion
[ 7974 7965 7964 7962 ] final  -83.97 input  175.53 | X-H torsion
[ 8008 7997 7996 7995 ] final   90.28 input   59.86 | X-H torsion
[ 10167 10162 10161 10158 ] final -177.65 input  -65.29 | X-H torsion
[ 10718 10713 10712 10709 ] final   11.20 input   66.30 | X-H torsion
[ 10763 10752 10751 10750 ] final  -52.87 input  -60.55 | X-H torsion
[ 11005 11000 10999 10996 ] final   97.55 input  -57.11 | X-H torsion

> <Gold.Protein.ActiveResidues>
 VAL166  LYS551  ARG553  GLY616  TRP617  ASP618  TYR619  PRO620  LYS621  CYS622 
 ASP623  PHE694  ASN695  SER759  ASP760  ASP761  ALA762  ILE779  LEU786  VAL792 
 PHE793  MET794  SER795  GLU796  ALA797  LYS798  CYS799  TRP800  GLU811  SER814 

> <Gold.Protein.RotatedAtoms>
  150.7958  134.7016  159.6552 H   0  0  0  0  0  0  0  0  0  0  0  0  # atno 6907 bound_to 6896
  152.4070  134.6187  160.0055 H   0  0  0  0  0  0  0  0  0  0  0  0  # atno 6908 bound_to 6896
  151.6441  133.3287  159.3173 H   0  0  0  0  0  0  0  0  0  0  0  0  # atno 6909 bound_to 6896
  145.5128  140.9538  143.1698 H   0  0  0  0  0  0  0  0  0  0  0  0  # atno 7974 bound_to 7965
  156.0101  140.3351  155.6932 H   0  0  0  0  0  0  0  0  0  0  0  0  # atno 8008 bound_to 7997
  155.6170  140.0671  157.2707 H   0  0  0  0  0  0  0  0  0  0  0  0  # atno 8009 bound_to 7997
  154.4278  140.1783  156.1320 H   0  0  0  0  0  0  0  0  0  0  0  0  # atno 8010 bound_to 7997
  139.5470  144.2209  152.1006 H   0  0  0  0  0  0  0  0  0  0  0  0  # atno 10167 bound_to 10162
  156.9921  130.6046  149.5687 H   0  0  0  0  0  0  0  0  0  0  0  0  # atno 10718 bound_to 10713
  154.1497  135.6492  153.4961 H   0  0  0  0  0  0  0  0  0  0  0  0  # atno 10763 bound_to 10752
  153.0141  135.5335  154.6820 H   0  0  0  0  0  0  0  0  0  0  0  0  # atno 10764 bound_to 10752
  154.6105  135.2953  155.0409 H   0  0  0  0  0  0  0  0  0  0  0  0  # atno 10765 bound_to 10752
  139.8775  134.9006  156.4324 H   0  0  0  0  0  0  0  0  0  0  0  0  # atno 11005 bound_to 11000
  144.7718  139.6718  143.7191 LP  0  0  0  0  0  0  0  0  0  0  0  0  # atno 17320 bound_to 7965
  146.2155  139.5542  142.9652 LP  0  0  0  0  0  0  0  0  0  0  0  0  # atno 17321 bound_to 7965
  140.1698  144.4947  150.6586 LP  0  0  0  0  0  0  0  0  0  0  0  0  # atno 17342 bound_to 10162
  140.6721  143.2290  151.5599 LP  0  0  0  0  0  0  0  0  0  0  0  0  # atno 17343 bound_to 10162
  156.0203  130.5298  150.8256 LP  0  0  0  0  0  0  0  0  0  0  0  0  # atno 17370 bound_to 10713
  157.5451  131.0942  150.9774 LP  0  0  0  0  0  0  0  0  0  0  0  0  # atno 17371 bound_to 10713
  140.9057  133.7747  155.9733 LP  0  0  0  0  0  0  0  0  0  0  0  0  # atno 17394 bound_to 11000
  140.8601  134.2850  157.5238 LP  0  0  0  0  0  0  0  0  0  0  0  0  # atno 17395 bound_to 11000

$$$$
