AV-unprocessed.smi:2528|AV-procd|sdf|9951|dock5
  -GOLD-   2272013593D 1   1.00000     0.00000
 Structure written by MMmdl.
 44 46  0  0  0  0  0  0  0  0  2 V2000
  149.0762  133.0620  154.9267 O   0  0  0  0  0  0  0  0  0  0  0  0
  148.8164  133.9205  154.0832 C   0  0  0  0  0  0  0  0  0  0  0  0
  149.3335  135.1575  154.1068 N   0  0  0  0  0  0  0  0  0  0  0  0
  150.2810  135.6512  155.1009 C   0  0  0  0  0  0  0  0  0  0  0  0
  150.8649  137.0171  154.6985 C   0  0  1  0  0  0  0  0  0  0  0  0
  149.9308  138.1767  155.0891 C   0  0  0  0  0  0  0  0  0  0  0  0
  150.5470  139.4809  154.7412 N   0  3  1  0  0  0  0  0  0  0  0  0
  149.6779  140.6524  155.0258 C   0  0  0  0  0  0  0  0  0  0  0  0
  149.6152  140.9810  156.5296 C   0  0  0  0  0  0  0  0  0  0  0  0
  151.0225  141.1643  157.1135 C   0  0  0  0  0  0  0  0  0  0  0  0
  151.8904  139.9338  156.8135 C   0  0  0  0  0  0  0  0  0  0  0  0
  151.9195  139.6307  155.2993 C   0  0  1  0  0  0  0  0  0  0  0  0
  152.7721  138.3933  154.9562 C   0  0  0  0  0  0  0  0  0  0  0  0
  152.1074  137.2059  155.3680 O   0  0  0  0  0  0  0  0  0  0  0  0
  148.0027  133.7528  153.0262 N   0  0  0  0  0  0  0  0  0  0  0  0
  147.2791  132.5890  152.6522 C   0  0  0  0  0  0  0  0  0  0  0  0
  146.5012  132.7195  151.4796 C   0  0  0  0  0  0  0  0  0  0  0  0
  145.7473  131.6211  151.0227 C   0  0  0  0  0  0  0  0  0  0  0  0
  145.7881  130.4202  151.7532 C   0  0  0  0  0  0  0  0  0  0  0  0
  146.5854  130.3753  152.9116 C   0  0  0  0  0  0  0  0  0  0  0  0
  147.3109  131.4259  153.3499 N   0  0  0  0  0  0  0  0  0  0  0  0
  149.0617  135.8008  153.3778 H   0  0  0  0  0  0  0  0  0  0  0  0
  149.7413  135.7469  156.0434 H   0  0  0  0  0  0  0  0  0  0  0  0
  151.0771  134.9254  155.2762 H   0  0  0  0  0  0  0  0  0  0  0  0
  151.0249  137.0270  153.6184 H   0  0  0  0  0  0  0  0  0  0  0  0
  148.9795  138.0777  154.5654 H   0  0  0  0  0  0  0  0  0  0  0  0
  149.7099  138.1313  156.1556 H   0  0  0  0  0  0  0  0  0  0  0  0
  150.0768  141.5116  154.4852 H   0  0  0  0  0  0  0  0  0  0  0  0
  148.6764  140.4791  154.6299 H   0  0  0  0  0  0  0  0  0  0  0  0
  149.0306  141.8882  156.6848 H   0  0  0  0  0  0  0  0  0  0  0  0
  149.0929  140.1890  157.0669 H   0  0  0  0  0  0  0  0  0  0  0  0
  151.4848  142.0538  156.6835 H   0  0  0  0  0  0  0  0  0  0  0  0
  150.9652  141.3324  158.1893 H   0  0  0  0  0  0  0  0  0  0  0  0
  152.9036  140.1073  157.1773 H   0  0  0  0  0  0  0  0  0  0  0  0
  151.5132  139.0734  157.3673 H   0  0  0  0  0  0  0  0  0  0  0  0
  152.3755  140.4892  154.8039 H   0  0  0  0  0  0  0  0  0  0  0  0
  152.9722  138.3486  153.8843 H   0  0  0  0  0  0  0  0  0  0  0  0
  153.7418  138.4487  155.4514 H   0  0  0  0  0  0  0  0  0  0  0  0
  147.8954  134.5454  152.4109 H   0  0  0  0  0  0  0  0  0  0  0  0
  146.4809  133.6496  150.9304 H   0  0  0  0  0  0  0  0  0  0  0  0
  145.1483  131.6999  150.1275 H   0  0  0  0  0  0  0  0  0  0  0  0
  145.2230  129.5567  151.4348 H   0  0  0  0  0  0  0  0  0  0  0  0
  146.6425  129.4728  153.5019 H   0  0  0  0  0  0  0  0  0  0  0  0
  150.6591  139.4580  153.7376 H   0  0  0  0  0  0  0  0  0  0  0  0
  1  2  2  0  0  0  0
  2  3  1  0  0  0  0
  2 15  1  0  0  0  0
  3  4  1  0  0  0  0
  3 22  1  0  0  0  0
  4  5  1  0  0  0  0
  4 23  1  0  0  0  0
  4 24  1  0  0  0  0
  5 14  1  0  0  0  0
  5  6  1  0  0  0  0
  5 25  1  0  0  0  0
  6  7  1  0  0  0  0
  6 26  1  0  0  0  0
  6 27  1  0  0  0  0
  7 12  1  0  0  0  0
  7  8  1  0  0  0  0
  7 44  1  0  0  0  0
  8  9  1  0  0  0  0
  8 28  1  0  0  0  0
  8 29  1  0  0  0  0
  9 10  1  0  0  0  0
  9 30  1  0  0  0  0
  9 31  1  0  0  0  0
 10 11  1  0  0  0  0
 10 32  1  0  0  0  0
 10 33  1  0  0  0  0
 11 12  1  0  0  0  0
 11 34  1  0  0  0  0
 11 35  1  0  0  0  0
 12 13  1  0  0  0  0
 12 36  1  0  0  0  0
 13 14  1  0  0  0  0
 13 37  1  0  0  0  0
 13 38  1  0  0  0  0
 15 16  1  0  0  0  0
 15 39  1  0  0  0  0
 16 21  1  0  0  0  0
 16 17  2  0  0  0  0
 17 18  1  0  0  0  0
 17 40  1  0  0  0  0
 18 19  2  0  0  0  0
 18 41  1  0  0  0  0
 19 20  1  0  0  0  0
 19 42  1  0  0  0  0
 20 21  2  0  0  0  0
 20 43  1  0  0  0  0
M  CHG  1   7   1
M  END
> <s_m_source_file>
AV-unprocessed.smi

> <i_m_source_file_index>
2528

> <i_lp_mmshare_version>
43012

> <i_f3d_flags>
0

> <s_epik_input>
bjFbY0hdW2NIXVtjSF1bY0hdYzFbTkhdQyg9TylbTkhdW0NIMl1bQ0BIXShbQ0gyXTIpT1tDSDJdW0NAQEhdKE4yMylbQ0gyXVtDSDJdW0NIMl1bQ0gyXTM=

> <s_epik_cmdline>
J2VwaWtfcHl0aG9uJywgJy1waCcsICc3LjAnLCAnLXRuJywgJzgnLCAnLW1hJywgJzIwMCcsICctbWV0YWxfYmluZGluZycsICctaW1hZScsICc8aW5maWxlLm1hZT4nLCAnLW9tYWUnLCAnPG91dGZpbGUubWFlPic=

> <r_epik_Ionization_Penalty>
0.0932337

> <r_epik_Ionization_Penalty_Charging>
0.0931942

> <r_epik_Ionization_Penalty_Neutral>
3.9565e-05

> <r_epik_State_Penalty>
0.0834605

> <r_epik_Charging_Adjusted_Penalty>
0.176655

> <i_epik_Tot_Q>
1

> <i_epik_Tot_abs_Q>
1

> <r_epik_Metal_State_Penalty>
0.0834607

> <b_epik_Metal_Only>
0

> <s_lp_Force_Field>
OPLS_2005

> <r_lp_Energy>
26.7775

> <b_lp_Chiralities_Consistent>
1

> <s_lp_Variant>
AV-unprocessed.smi:2528-4

> <Gold.Version>
5.8.1

> <Gold.Id.Protein>
6NUR|6NUR_protein|mol2

> <Gold.PLP.Fitness>
44.3726

> <Gold.PLP.PLP>
-37.0003

> <Gold.PLP.part.hbond>
-3.0384

> <Gold.PLP.part.metal>
0.0000

> <Gold.PLP.part.buried>
-2.9344

> <Gold.PLP.part.nonpolar>
-31.6016

> <Gold.PLP.part.repulsive>
0.3147

> <Gold.PLP.ligand.clash>
0.0000

> <Gold.PLP.ligand.torsion>
0.2862

> <Gold.PLP.Chemscore.Hbond>
2.6480

> <Gold.PLP.Chemscore.CHOScore>
0.0000

> <Gold.PLP.Chemscore.Metal>
0.0000

> <Gold.Chemscore.Hbonds>
donor molecule, donor type, donor heavy atom, donor atom, acceptor molecule, acceptor atom, score
      L1  H     3    22       P1  7948  1.00
      L1  H    15    39       P1  7948  0.77
      P1  H 10752 10764       L1    14  0.85

> <Gold.PLP.Chemscore.Internal.Correction>
0.0006

> <Gold.Rescore>
     Score         DG    S(hbond)    S(metal)    S(lipo)     H(rot)  DE(clash)    DE(int)     intcor
     15.89     -17.58       1.66        0.00      84.23       1.29       0.12       1.57       ----

> <Gold.Chemscore.Fitness>
15.8892

> <Gold.Chemscore.DG>
-17.5787

> <Gold.Chemscore.ZeroCoef>
-5.4800

> <Gold.Chemscore.Hbond>
1.6583

> <Gold.Chemscore.Metal>
0.0000

> <Gold.Chemscore.Lipo>
84.2284

> <Gold.Chemscore.Internal_Hbond>
0.0000

> <Gold.Chemscore.DEClash>
0.1234

> <Gold.Chemscore.DEInternal>
1.5662

> <Gold.Chemscore.Rot>
1.2870

> <Gold.Chemscore.Internal.Correction>
   9.000000E+99

> <Gold.Chemscore.Hbonds>
donor molecule, donor type, donor heavy atom, donor atom, acceptor molecule, acceptor atom, score
      L1  H     3    22       P1  7948  0.75
      L1  H    15    39       P1  7948  0.36
      P1  H 10752 10764       L1    14  0.19

> <Gold.Chemscore.Hbond.Weighted>
-5.5389

> <Gold.Chemscore.Metal.Weighted>
-0.0000

> <Gold.Chemscore.Lipo.Weighted>
-9.8547

> <Gold.Chemscore.Internal_Hbond.Weighted>
0.0000

> <Gold.Chemscore.DEClash.Weighted>
0.1234

> <Gold.Chemscore.DEInternal.Weighted>
1.5662

> <Gold.Chemscore.Rot.Weighted>
3.2948

> <Gold.Chemscore.Internal.Correction.Weighted>
   9.000000E+99

> <Gold.Protein.RotatedTorsions>
[ 6907 6896 6895 6894 ] final -112.88 input  -60.11 | X-H torsion
[ 7974 7965 7964 7962 ] final -151.63 input  175.53 | X-H torsion
[ 8008 7997 7996 7995 ] final  -41.32 input   59.86 | X-H torsion
[ 10167 10162 10161 10158 ] final   17.62 input  -65.29 | X-H torsion
[ 10718 10713 10712 10709 ] final   30.04 input   66.30 | X-H torsion
[ 10763 10752 10751 10750 ] final  -44.69 input  -60.55 | X-H torsion
[ 11005 11000 10999 10996 ] final  -64.06 input  -57.11 | X-H torsion

> <Gold.Protein.ActiveResidues>
 VAL166  LYS551  ARG553  GLY616  TRP617  ASP618  TYR619  PRO620  LYS621  CYS622 
 ASP623  PHE694  ASN695  SER759  ASP760  ASP761  ALA762  ILE779  LEU786  VAL792 
 PHE793  MET794  SER795  GLU796  ALA797  LYS798  CYS799  TRP800  GLU811  SER814 

> <Gold.Protein.RotatedAtoms>
  150.7789  133.9025  159.3345 H   0  0  0  0  0  0  0  0  0  0  0  0  # atno 6907 bound_to 6896
  151.6893  135.0947  160.0240 H   0  0  0  0  0  0  0  0  0  0  0  0  # atno 6908 bound_to 6896
  152.3835  133.6540  159.6215 H   0  0  0  0  0  0  0  0  0  0  0  0  # atno 6909 bound_to 6896
  144.7839  140.4772  143.5820 H   0  0  0  0  0  0  0  0  0  0  0  0  # atno 7974 bound_to 7965
  154.4005  140.1502  156.3171 H   0  0  0  0  0  0  0  0  0  0  0  0  # atno 8008 bound_to 7997
  155.8563  140.3455  155.5705 H   0  0  0  0  0  0  0  0  0  0  0  0  # atno 8009 bound_to 7997
  155.7929  140.0859  157.1989 H   0  0  0  0  0  0  0  0  0  0  0  0  # atno 8010 bound_to 7997
  140.5712  143.9157  150.6714 H   0  0  0  0  0  0  0  0  0  0  0  0  # atno 10167 bound_to 10162
  157.2544  130.7131  149.6422 H   0  0  0  0  0  0  0  0  0  0  0  0  # atno 10718 bound_to 10713
  154.0163  135.6675  153.4769 H   0  0  0  0  0  0  0  0  0  0  0  0  # atno 10763 bound_to 10752
  153.0599  135.5034  154.8065 H   0  0  0  0  0  0  0  0  0  0  0  0  # atno 10764 bound_to 10752
  154.6965  135.3071  154.9368 H   0  0  0  0  0  0  0  0  0  0  0  0  # atno 10765 bound_to 10752
  141.1413  133.6660  156.5775 H   0  0  0  0  0  0  0  0  0  0  0  0  # atno 11005 bound_to 11000
  145.5974  139.1501  143.3148 LP  0  0  0  0  0  0  0  0  0  0  0  0  # atno 17320 bound_to 7965
  146.2061  140.6097  142.9080 LP  0  0  0  0  0  0  0  0  0  0  0  0  # atno 17321 bound_to 7965
  140.2633  143.3508  152.1303 LP  0  0  0  0  0  0  0  0  0  0  0  0  # atno 17342 bound_to 10162
  139.5119  144.6907  151.5766 LP  0  0  0  0  0  0  0  0  0  0  0  0  # atno 17343 bound_to 10162
  155.9665  130.4417  150.5352 LP  0  0  0  0  0  0  0  0  0  0  0  0  # atno 17370 bound_to 10713
  157.3243  131.0687  151.1908 LP  0  0  0  0  0  0  0  0  0  0  0  0  # atno 17371 bound_to 10713
  140.3864  134.7478  157.4694 LP  0  0  0  0  0  0  0  0  0  0  0  0  # atno 17394 bound_to 11000
  140.0599  134.6011  155.8761 LP  0  0  0  0  0  0  0  0  0  0  0  0  # atno 17395 bound_to 11000

$$$$
