AV-unprocessed.smi:527|AV-procd|sdf|2822|dock7
  -GOLD-   2262023303D 1   1.00000     0.00000
 Structure written by MMmdl.
 42 43  0  0  0  0  0  0  0  0  1 V2000
  147.6091  140.9370  153.7159 C   0  0  0  0  0  0  0  0  0  0  0  0
  148.1547  139.5348  154.0395 C   0  0  1  0  0  0  0  0  0  0  0  0
  149.6383  139.6359  154.4506 C   0  0  0  0  0  0  0  0  0  0  0  0
  150.2451  138.2644  154.7746 C   0  0  0  0  0  0  0  0  0  0  0  0
  149.4364  137.5517  155.8674 C   0  0  0  0  0  0  0  0  0  0  0  0
  147.9484  137.4218  155.4854 C   0  0  2  0  0  0  0  0  0  0  0  0
  147.7740  136.4686  154.3878 N   0  0  0  0  0  0  0  0  0  0  0  0
  147.1810  135.2695  154.4820 C   0  0  0  0  0  0  0  0  0  0  0  0
  146.5715  134.8919  155.4851 O   0  0  0  0  0  0  0  0  0  0  0  0
  147.3503  134.5584  153.3509 N   0  0  0  0  0  0  0  0  0  0  0  0
  146.6971  133.4379  152.9796 C   0  0  0  0  0  0  0  0  0  0  0  0
  145.8090  132.8832  153.6299 O   0  0  0  0  0  0  0  0  0  0  0  0
  147.1240  132.8371  151.6397 C   0  0  0  0  0  0  0  0  0  0  0  0
  145.9916  132.7123  150.7414 N   0  0  0  0  0  0  0  0  0  0  0  0
  144.7182  133.2388  150.9180 C   0  0  0  0  0  0  0  0  0  0  0  0
  143.9805  132.8608  149.8189 C   0  0  0  0  0  0  0  0  0  0  0  0
  144.7737  132.1038  148.9597 N   0  0  0  0  0  0  0  0  0  0  0  0
  145.9494  132.0581  149.5722 C   0  0  0  0  0  0  0  0  0  0  0  0
  147.3305  138.8008  155.1344 C   0  0  2  0  0  0  0  0  0  0  0  0
  145.8351  138.6684  154.7809 C   0  0  0  0  0  0  0  0  0  0  0  0
  147.5629  141.5610  154.6088 H   0  0  0  0  0  0  0  0  0  0  0  0
  146.6096  140.8932  153.2840 H   0  0  0  0  0  0  0  0  0  0  0  0
  148.2445  141.4451  152.9900 H   0  0  0  0  0  0  0  0  0  0  0  0
  148.1038  138.9480  153.1211 H   0  0  0  0  0  0  0  0  0  0  0  0
  150.2157  140.1049  153.6529 H   0  0  0  0  0  0  0  0  0  0  0  0
  149.7343  140.2867  155.3209 H   0  0  0  0  0  0  0  0  0  0  0  0
  150.2742  137.6513  153.8730 H   0  0  0  0  0  0  0  0  0  0  0  0
  151.2793  138.3837  155.0983 H   0  0  0  0  0  0  0  0  0  0  0  0
  149.8675  136.5707  156.0712 H   0  0  0  0  0  0  0  0  0  0  0  0
  149.5195  138.1153  156.7974 H   0  0  0  0  0  0  0  0  0  0  0  0
  147.4135  137.0357  156.3554 H   0  0  0  0  0  0  0  0  0  0  0  0
  148.1378  136.7484  153.4888 H   0  0  0  0  0  0  0  0  0  0  0  0
  148.0507  134.8989  152.7091 H   0  0  0  0  0  0  0  0  0  0  0  0
  147.8797  133.4690  151.1713 H   0  0  0  0  0  0  0  0  0  0  0  0
  147.5736  131.8539  151.7879 H   0  0  0  0  0  0  0  0  0  0  0  0
  144.4492  133.8208  151.7875 H   0  0  0  0  0  0  0  0  0  0  0  0
  142.9479  133.0721  149.5833 H   0  0  0  0  0  0  0  0  0  0  0  0
  146.8003  131.5343  149.1615 H   0  0  0  0  0  0  0  0  0  0  0  0
  147.3837  139.4075  156.0399 H   0  0  0  0  0  0  0  0  0  0  0  0
  145.6898  138.1824  153.8157 H   0  0  0  0  0  0  0  0  0  0  0  0
  145.3437  139.6401  154.7410 H   0  0  0  0  0  0  0  0  0  0  0  0
  145.3084  138.0787  155.5317 H   0  0  0  0  0  0  0  0  0  0  0  0
  1  2  1  0  0  0  0
  1 21  1  0  0  0  0
  1 22  1  0  0  0  0
  1 23  1  0  0  0  0
  2 19  1  0  0  0  0
  2  3  1  0  0  0  0
  2 24  1  0  0  0  0
  3  4  1  0  0  0  0
  3 25  1  0  0  0  0
  3 26  1  0  0  0  0
  4  5  1  0  0  0  0
  4 27  1  0  0  0  0
  4 28  1  0  0  0  0
  5  6  1  0  0  0  0
  5 29  1  0  0  0  0
  5 30  1  0  0  0  0
  6  7  1  0  0  0  0
  6 19  1  0  0  0  0
  6 31  1  0  0  0  0
  7  8  1  0  0  0  0
  7 32  1  0  0  0  0
  8  9  2  0  0  0  0
  8 10  1  0  0  0  0
 10 11  1  0  0  0  0
 10 33  1  0  0  0  0
 11 12  2  0  0  0  0
 11 13  1  0  0  0  0
 13 14  1  0  0  0  0
 13 34  1  0  0  0  0
 13 35  1  0  0  0  0
 14 18  1  0  0  0  0
 14 15  1  0  0  0  0
 15 16  2  0  0  0  0
 15 36  1  0  0  0  0
 16 17  1  0  0  0  0
 16 37  1  0  0  0  0
 17 18  2  0  0  0  0
 18 38  1  0  0  0  0
 19 20  1  0  0  0  0
 19 39  1  0  0  0  0
 20 40  1  0  0  0  0
 20 41  1  0  0  0  0
 20 42  1  0  0  0  0
M  END
> <s_m_source_file>
AV-unprocessed.smi

> <i_m_source_file_index>
527

> <i_lp_mmshare_version>
43012

> <i_f3d_flags>
0

> <s_epik_input>
W0NIM11bQ0BASF0xW0NIMl1bQ0gyXVtDSDJdW0NASF0oW0NASF0xW0NIM10pW05IXUMoPU8pW05IXUMoPU8pW0NIMl1uMltjSF1bY0hdbltjSF0y

> <s_epik_cmdline>
J2VwaWtfcHl0aG9uJywgJy1waCcsICc3LjAnLCAnLXRuJywgJzgnLCAnLW1hJywgJzIwMCcsICctbWV0YWxfYmluZGluZycsICctaW1hZScsICc8aW5maWxlLm1hZT4nLCAnLW9tYWUnLCAnPG91dGZpbGUubWFlPic=

> <r_lp_tautomer_probability>
1

> <r_epik_Ionization_Penalty>
0.172132

> <r_epik_Ionization_Penalty_Charging>
0.172105

> <r_epik_Ionization_Penalty_Neutral>
2.71747e-05

> <r_epik_State_Penalty>
0.161503

> <r_epik_Charging_Adjusted_Penalty>
0.333607

> <i_epik_Tot_Q>
0

> <i_epik_Tot_abs_Q>
0

> <r_epik_Metal_State_Penalty>
0.124763

> <b_epik_Metal_Only>
0

> <s_lp_Force_Field>
OPLS_2005

> <r_lp_Energy>
14.576

> <b_lp_Chiralities_Consistent>
1

> <s_lp_Variant>
AV-unprocessed.smi:527-8

> <Gold.Version>
5.8.1

> <Gold.Id.Protein>
6NUR|6NUR_protein|mol2

> <Gold.PLP.Fitness>
40.8607

> <Gold.PLP.PLP>
-29.3170

> <Gold.PLP.part.hbond>
-2.7445

> <Gold.PLP.part.metal>
0.0000

> <Gold.PLP.part.buried>
-2.7538

> <Gold.PLP.part.nonpolar>
-24.4104

> <Gold.PLP.part.repulsive>
0.3372

> <Gold.PLP.ligand.clash>
0.0000

> <Gold.PLP.ligand.torsion>
0.2107

> <Gold.PLP.Chemscore.Hbond>
1.9760

> <Gold.PLP.Chemscore.CHOScore>
2.0000

> <Gold.PLP.Chemscore.Metal>
0.0000

> <Gold.Chemscore.Hbonds>
donor molecule, donor type, donor heavy atom, donor atom, acceptor molecule, acceptor atom, score
      L1  H     7    32       P1  7948  0.96
      L1  H    10    33       P1  7948  1.00
      L1  C    16    37       P1 10186  1.00
      L1  C    18    38       P1 10747  1.00

> <Gold.PLP.Chemscore.Internal.Correction>
0.0371

> <Gold.Rescore>
     Score         DG    S(hbond)    S(metal)    S(lipo)     H(rot)  DE(clash)    DE(int)     intcor
     13.30     -16.29       2.59        0.00      54.99       1.66       0.04       2.95       ----

> <Gold.Chemscore.Fitness>
13.3039

> <Gold.Chemscore.DG>
-16.2929

> <Gold.Chemscore.ZeroCoef>
-5.4800

> <Gold.Chemscore.Hbond>
2.5856

> <Gold.Chemscore.Metal>
0.0000

> <Gold.Chemscore.Lipo>
54.9914

> <Gold.Chemscore.Internal_Hbond>
0.0000

> <Gold.Chemscore.DEClash>
0.0398

> <Gold.Chemscore.DEInternal>
2.9491

> <Gold.Chemscore.Rot>
1.6629

> <Gold.Chemscore.Internal.Correction>
   9.000000E+99

> <Gold.Chemscore.Hbonds>
donor molecule, donor type, donor heavy atom, donor atom, acceptor molecule, acceptor atom, score
      L1  H     7    32       P1  7948  0.92
      L1  H    10    33       P1  7948  0.83

> <Gold.Chemscore.Hbond.Weighted>
-8.6358

> <Gold.Chemscore.Metal.Weighted>
-0.0000

> <Gold.Chemscore.Lipo.Weighted>
-6.4340

> <Gold.Chemscore.Internal_Hbond.Weighted>
0.0000

> <Gold.Chemscore.DEClash.Weighted>
0.0398

> <Gold.Chemscore.DEInternal.Weighted>
2.9491

> <Gold.Chemscore.Rot.Weighted>
4.2569

> <Gold.Chemscore.Internal.Correction.Weighted>
   9.000000E+99

> <Gold.Protein.RotatedTorsions>
[ 6907 6896 6895 6894 ] final -125.82 input  -60.11 | X-H torsion
[ 7974 7965 7964 7962 ] final -124.49 input  175.53 | X-H torsion
[ 8008 7997 7996 7995 ] final  167.44 input   59.86 | X-H torsion
[ 10167 10162 10161 10158 ] final  -22.30 input  -65.29 | X-H torsion
[ 10718 10713 10712 10709 ] final  -83.60 input   66.30 | X-H torsion
[ 10763 10752 10751 10750 ] final -133.63 input  -60.55 | X-H torsion
[ 11005 11000 10999 10996 ] final  105.81 input  -57.11 | X-H torsion

> <Gold.Protein.ActiveResidues>
 VAL166  LYS551  ARG553  GLY616  TRP617  ASP618  TYR619  PRO620  LYS621  CYS622 
 ASP623  PHE694  ASN695  SER759  ASP760  ASP761  ALA762  ILE779  LEU786  VAL792 
 PHE793  MET794  SER795  GLU796  ALA797  LYS798  CYS799  TRP800  GLU811  SER814 

> <Gold.Protein.RotatedAtoms>
  150.8906  133.7248  159.2905 H   0  0  0  0  0  0  0  0  0  0  0  0  # atno 6907 bound_to 6896
  151.4800  135.1050  159.9784 H   0  0  0  0  0  0  0  0  0  0  0  0  # atno 6908 bound_to 6896
  152.4817  133.8225  159.7116 H   0  0  0  0  0  0  0  0  0  0  0  0  # atno 6909 bound_to 6896
  145.0076  140.7876  143.4458 H   0  0  0  0  0  0  0  0  0  0  0  0  # atno 7974 bound_to 7965
  156.1634  140.1617  156.8573 H   0  0  0  0  0  0  0  0  0  0  0  0  # atno 8008 bound_to 7997
  154.5183  140.0784  156.8158 H   0  0  0  0  0  0  0  0  0  0  0  0  # atno 8009 bound_to 7997
  155.3661  140.3398  155.4244 H   0  0  0  0  0  0  0  0  0  0  0  0  # atno 8010 bound_to 7997
  140.7285  143.4547  151.0465 H   0  0  0  0  0  0  0  0  0  0  0  0  # atno 10167 bound_to 10162
  156.0016  130.4671  150.4282 H   0  0  0  0  0  0  0  0  0  0  0  0  # atno 10718 bound_to 10713
  154.8730  135.3760  154.4604 H   0  0  0  0  0  0  0  0  0  0  0  0  # atno 10763 bound_to 10752
  153.5273  135.7028  153.5706 H   0  0  0  0  0  0  0  0  0  0  0  0  # atno 10764 bound_to 10752
  153.3926  135.3968  155.1899 H   0  0  0  0  0  0  0  0  0  0  0  0  # atno 10765 bound_to 10752
  139.8806  134.9348  156.5570 H   0  0  0  0  0  0  0  0  0  0  0  0  # atno 11005 bound_to 11000
  145.2068  139.2225  143.5164 LP  0  0  0  0  0  0  0  0  0  0  0  0  # atno 17320 bound_to 7965
  146.3464  140.1897  142.8589 LP  0  0  0  0  0  0  0  0  0  0  0  0  # atno 17321 bound_to 7965
  139.8227  143.7798  152.3177 LP  0  0  0  0  0  0  0  0  0  0  0  0  # atno 17342 bound_to 10162
  139.7886  144.7418  150.9986 LP  0  0  0  0  0  0  0  0  0  0  0  0  # atno 17343 bound_to 10162
  157.2333  131.0509  151.2480 LP  0  0  0  0  0  0  0  0  0  0  0  0  # atno 17370 bound_to 10713
  157.3691  130.7171  149.6552 LP  0  0  0  0  0  0  0  0  0  0  0  0  # atno 17371 bound_to 10713
  140.8197  133.8363  155.8884 LP  0  0  0  0  0  0  0  0  0  0  0  0  # atno 17394 bound_to 11000
  140.9430  134.1877  157.4784 LP  0  0  0  0  0  0  0  0  0  0  0  0  # atno 17395 bound_to 11000

$$$$
