AV-unprocessed.smi:218|AV-procd|sdf|1668|dock3
  -GOLD-   2262020 73D 1   1.00000     0.00000
 Structure written by MMmdl.
 54 57  0  0  0  0  0  0  0  0  1 V2000
  153.2089  142.2398  160.4021 C   0  0  0  0  0  0  0  0  0  0  0  0
  152.4859  143.1304  159.3845 C   0  0  0  0  0  0  0  0  0  0  0  0
  152.2382  144.5380  159.9531 C   0  0  0  0  0  0  0  0  0  0  0  0
  151.2418  142.4947  159.0844 O   0  0  0  0  0  0  0  0  0  0  0  0
  151.1160  141.7160  157.9501 C   0  0  0  0  0  0  0  0  0  0  0  0
  150.2680  142.1700  156.9195 C   0  0  0  0  0  0  0  0  0  0  0  0
  150.1223  141.3820  155.7600 C   0  0  0  0  0  0  0  0  0  0  0  0
  149.2290  141.8408  154.6275 C   0  0  0  0  0  0  0  0  0  0  0  0
  147.9855  142.4345  155.0983 N   0  0  0  0  0  0  0  0  0  0  0  0
  146.9129  141.6517  155.3421 C   0  0  0  0  0  0  0  0  0  0  0  0
  145.8522  142.1206  156.0488 N   0  0  0  0  0  0  0  0  0  0  0  0
  144.7951  141.3333  156.2641 C   0  0  0  0  0  0  0  0  0  0  0  0
  144.6027  140.0717  155.8742 N   0  0  0  0  0  0  0  0  0  0  0  0
  145.6701  139.5865  155.1734 C   0  0  0  0  0  0  0  0  0  0  0  0
  146.8516  140.3173  154.8626 C   0  0  0  0  0  0  0  0  0  0  0  0
  147.7126  139.5261  154.1169 N   0  0  0  0  0  0  0  0  0  0  0  0
  147.0701  138.3973  153.9888 C   0  0  0  0  0  0  0  0  0  0  0  0
  145.8465  138.3273  154.6242 N   0  0  0  0  0  0  0  0  0  0  0  0
  144.8709  137.1765  154.6162 C   0  0  2  0  0  0  0  0  0  0  0  0
  145.1134  136.3655  153.5113 O   0  0  0  0  0  0  0  0  0  0  0  0
  144.4140  136.8866  152.3916 C   0  0  1  0  0  0  0  0  0  0  0  0
  144.3023  135.7998  151.3121 C   0  0  0  0  0  0  0  0  0  0  0  0
  144.8484  136.2551  150.0927 O   0  0  0  0  0  0  0  0  0  0  0  0
  143.0793  137.3395  152.9991 C   0  0  2  0  0  0  0  0  0  0  0  0
  142.6070  138.4903  152.3265 O   0  0  0  0  0  0  0  0  0  0  0  0
  143.4209  137.6766  154.4540 C   0  0  1  0  0  0  0  0  0  0  0  0
  142.5489  137.0088  155.3425 O   0  0  0  0  0  0  0  0  0  0  0  0
  150.8334  140.1689  155.6728 C   0  0  0  0  0  0  0  0  0  0  0  0
  151.6564  139.7978  156.7538 C   0  0  0  0  0  0  0  0  0  0  0  0
  151.7986  140.5465  157.8681 N   0  0  0  0  0  0  0  0  0  0  0  0
  145.0715  136.6581  155.5546 H   0  0  0  0  0  0  0  0  0  0  0  0
  144.9770  137.7413  152.0104 H   0  0  0  0  0  0  0  0  0  0  0  0
  142.3369  136.5417  152.9427 H   0  0  0  0  0  0  0  0  0  0  0  0
  143.3493  138.7459  154.6505 H   0  0  0  0  0  0  0  0  0  0  0  0
  154.1764  142.6615  160.6762 H   0  0  0  0  0  0  0  0  0  0  0  0
  153.3860  141.2451  159.9923 H   0  0  0  0  0  0  0  0  0  0  0  0
  152.6233  142.1247  161.3146 H   0  0  0  0  0  0  0  0  0  0  0  0
  153.1229  143.1909  158.5009 H   0  0  0  0  0  0  0  0  0  0  0  0
  153.1778  145.0216  160.2213 H   0  0  0  0  0  0  0  0  0  0  0  0
  151.6180  144.4958  160.8488 H   0  0  0  0  0  0  0  0  0  0  0  0
  151.7339  145.1819  159.2332 H   0  0  0  0  0  0  0  0  0  0  0  0
  149.7397  143.1071  157.0190 H   0  0  0  0  0  0  0  0  0  0  0  0
  149.7665  142.5647  154.0135 H   0  0  0  0  0  0  0  0  0  0  0  0
  149.0080  140.9820  153.9920 H   0  0  0  0  0  0  0  0  0  0  0  0
  147.9810  143.4387  155.2056 H   0  0  0  0  0  0  0  0  0  0  0  0
  143.9881  141.7761  156.8290 H   0  0  0  0  0  0  0  0  0  0  0  0
  147.4801  137.5785  153.4156 H   0  0  0  0  0  0  0  0  0  0  0  0
  144.8531  134.9111  151.6210 H   0  0  0  0  0  0  0  0  0  0  0  0
  143.2650  135.5001  151.1616 H   0  0  0  0  0  0  0  0  0  0  0  0
  144.8174  137.1995  150.0835 H   0  0  0  0  0  0  0  0  0  0  0  0
  143.2019  138.6910  151.6204 H   0  0  0  0  0  0  0  0  0  0  0  0
  142.9979  136.2524  155.6886 H   0  0  0  0  0  0  0  0  0  0  0  0
  150.7535  139.5368  154.8005 H   0  0  0  0  0  0  0  0  0  0  0  0
  152.2160  138.8748  156.7226 H   0  0  0  0  0  0  0  0  0  0  0  0
  1  2  1  0  0  0  0
  1 35  1  0  0  0  0
  1 36  1  0  0  0  0
  1 37  1  0  0  0  0
  2  3  1  0  0  0  0
  2  4  1  0  0  0  0
  2 38  1  0  0  0  0
  3 39  1  0  0  0  0
  3 40  1  0  0  0  0
  3 41  1  0  0  0  0
  4  5  1  0  0  0  0
  5 30  1  0  0  0  0
  5  6  2  0  0  0  0
  6  7  1  0  0  0  0
  6 42  1  0  0  0  0
  7  8  1  0  0  0  0
  7 28  2  0  0  0  0
  8  9  1  0  0  0  0
  8 43  1  0  0  0  0
  8 44  1  0  0  0  0
  9 10  1  0  0  0  0
  9 45  1  0  0  0  0
 10 15  1  0  0  0  0
 10 11  2  0  0  0  0
 11 12  1  0  0  0  0
 12 13  2  0  0  0  0
 12 46  1  0  0  0  0
 13 14  1  0  0  0  0
 14 18  1  0  0  0  0
 14 15  2  0  0  0  0
 15 16  1  0  0  0  0
 16 17  2  0  0  0  0
 17 18  1  0  0  0  0
 17 47  1  0  0  0  0
 18 19  1  0  0  0  0
 19 31  1  0  0  0  0
 19 26  1  0  0  0  0
 19 20  1  0  0  0  0
 20 21  1  0  0  0  0
 21 32  1  0  0  0  0
 21 22  1  0  0  0  0
 21 24  1  0  0  0  0
 22 23  1  0  0  0  0
 22 48  1  0  0  0  0
 22 49  1  0  0  0  0
 23 50  1  0  0  0  0
 24 33  1  0  0  0  0
 24 25  1  0  0  0  0
 24 26  1  0  0  0  0
 25 51  1  0  0  0  0
 26 34  1  0  0  0  0
 26 27  1  0  0  0  0
 27 52  1  0  0  0  0
 28 29  1  0  0  0  0
 28 53  1  0  0  0  0
 29 30  2  0  0  0  0
 29 54  1  0  0  0  0
M  END
> <s_m_source_file>
AV-unprocessed.smi

> <i_m_source_file_index>
218

> <i_lp_mmshare_version>
43012

> <i_f3d_flags>
0

> <s_epik_input>
W0NIM11bQ0hdKFtDSDNdKU9jMVtjSF1jKFtjSF1bY0hdbjEpW0NIMl1bTkhdYyhuW2NIXW4yKWMoYzIzKW5bY0hdbjNbQ0BASF00T1tDQEhdKFtDSDJdW09IXSlbQ0BASF0oW09IXSlbQ0BIXTRbT0hd

> <s_epik_cmdline>
J2VwaWtfcHl0aG9uJywgJy1waCcsICc3LjAnLCAnLXRuJywgJzgnLCAnLW1hJywgJzIwMCcsICctbWV0YWxfYmluZGluZycsICctaW1hZScsICc8aW5maWxlLm1hZT4nLCAnLW9tYWUnLCAnPG91dGZpbGUubWFlPic=

> <r_lp_tautomer_probability>
1

> <r_epik_Ionization_Penalty>
0.00457014

> <r_epik_Ionization_Penalty_Charging>
0

> <r_epik_Ionization_Penalty_Neutral>
0.00457014

> <r_epik_State_Penalty>
-0

> <r_epik_Charging_Adjusted_Penalty>
0

> <i_epik_Tot_Q>
0

> <i_epik_Tot_abs_Q>
0

> <r_epik_Metal_State_Penalty>
-0

> <b_epik_Metal_Only>
0

> <s_epik_Chemistry_Notes>
This compound contains an acetal/aminal-like group ( X-CH(R)-Y where X, Y are N, S, or O) that may be acid/base labile, releasing an aldehyde.

> <s_lp_Force_Field>
OPLS_2005

> <r_lp_Energy>
35.6768

> <b_lp_Chiralities_Consistent>
1

> <s_lp_Variant>
AV-unprocessed.smi:218-7

> <Gold.Version>
5.8.1

> <Gold.Id.Protein>
6NUR|6NUR_protein|mol2

> <Gold.PLP.Fitness>
50.3760

> <Gold.PLP.PLP>
-43.2886

> <Gold.PLP.part.hbond>
-4.9268

> <Gold.PLP.part.metal>
0.0000

> <Gold.PLP.part.buried>
-3.0372

> <Gold.PLP.part.nonpolar>
-34.9382

> <Gold.PLP.part.repulsive>
0.5519

> <Gold.PLP.ligand.clash>
0.0000

> <Gold.PLP.ligand.torsion>
2.4656

> <Gold.PLP.Chemscore.Hbond>
2.9280

> <Gold.PLP.Chemscore.CHOScore>
1.0000

> <Gold.PLP.Chemscore.Metal>
0.0000

> <Gold.Chemscore.Hbonds>
donor molecule, donor type, donor heavy atom, donor atom, acceptor molecule, acceptor atom, score
      L1  H     9    45       P1  8028  0.91
      L1  H    23    50       P1 10171  0.93
      L1  H    25    51       P1 10171  0.85
      L1  C    17    47       P1  7948  1.00

> <Gold.PLP.Chemscore.Internal.Correction>
0.2346

> <Gold.Rescore>
     Score         DG    S(hbond)    S(metal)    S(lipo)     H(rot)  DE(clash)    DE(int)     intcor
      7.18     -11.65       2.49        0.00      89.07       4.90       0.45       4.03       ----

> <Gold.Chemscore.Fitness>
7.1751

> <Gold.Chemscore.DG>
-11.6531

> <Gold.Chemscore.ZeroCoef>
-5.4800

> <Gold.Chemscore.Hbond>
2.4862

> <Gold.Chemscore.Metal>
0.0000

> <Gold.Chemscore.Lipo>
89.0667

> <Gold.Chemscore.Internal_Hbond>
0.0000

> <Gold.Chemscore.DEClash>
0.4493

> <Gold.Chemscore.DEInternal>
4.0287

> <Gold.Chemscore.Rot>
4.9029

> <Gold.Chemscore.Internal.Correction>
   9.000000E+99

> <Gold.Chemscore.Hbonds>
donor molecule, donor type, donor heavy atom, donor atom, acceptor molecule, acceptor atom, score
      L1  H     9    45       P1  8028  0.57
      L1  H    23    50       P1 10171  0.90
      L1  H    25    51       P1 10171  0.14

> <Gold.Chemscore.Hbond.Weighted>
-8.3038

> <Gold.Chemscore.Metal.Weighted>
-0.0000

> <Gold.Chemscore.Lipo.Weighted>
-10.4208

> <Gold.Chemscore.Internal_Hbond.Weighted>
0.0000

> <Gold.Chemscore.DEClash.Weighted>
0.4493

> <Gold.Chemscore.DEInternal.Weighted>
4.0287

> <Gold.Chemscore.Rot.Weighted>
12.5515

> <Gold.Chemscore.Internal.Correction.Weighted>
   9.000000E+99

> <Gold.Protein.RotatedTorsions>
[ 6907 6896 6895 6894 ] final   28.13 input  -60.11 | X-H torsion
[ 7974 7965 7964 7962 ] final -132.51 input  175.53 | X-H torsion
[ 8008 7997 7996 7995 ] final -175.14 input   59.86 | X-H torsion
[ 10167 10162 10161 10158 ] final  -90.97 input  -65.29 | X-H torsion
[ 10718 10713 10712 10709 ] final -173.33 input   66.30 | X-H torsion
[ 10763 10752 10751 10750 ] final  158.99 input  -60.55 | X-H torsion
[ 11005 11000 10999 10996 ] final  -71.35 input  -57.11 | X-H torsion

> <Gold.Protein.ActiveResidues>
 VAL166  LYS551  ARG553  GLY616  TRP617  ASP618  TYR619  PRO620  LYS621  CYS622 
 ASP623  PHE694  ASN695  SER759  ASP760  ASP761  ALA762  ILE779  LEU786  VAL792 
 PHE793  MET794  SER795  GLU796  ALA797  LYS798  CYS799  TRP800  GLU811  SER814 

> <Gold.Protein.RotatedAtoms>
  152.0125  134.9868  160.0568 H   0  0  0  0  0  0  0  0  0  0  0  0  # atno 6907 bound_to 6896
  152.1415  133.4462  159.4777 H   0  0  0  0  0  0  0  0  0  0  0  0  # atno 6908 bound_to 6896
  150.6865  134.2217  159.4442 H   0  0  0  0  0  0  0  0  0  0  0  0  # atno 6909 bound_to 6896
  144.9279  140.7093  143.4924 H   0  0  0  0  0  0  0  0  0  0  0  0  # atno 7974 bound_to 7965
  155.9789  140.1177  157.0745 H   0  0  0  0  0  0  0  0  0  0  0  0  # atno 8008 bound_to 7997
  154.4177  140.1148  156.5475 H   0  0  0  0  0  0  0  0  0  0  0  0  # atno 8009 bound_to 7997
  155.6498  140.3473  155.4746 H   0  0  0  0  0  0  0  0  0  0  0  0  # atno 8010 bound_to 7997
  140.3496  143.2898  151.9741 H   0  0  0  0  0  0  0  0  0  0  0  0  # atno 10167 bound_to 10162
  156.7688  130.9441  151.3119 H   0  0  0  0  0  0  0  0  0  0  0  0  # atno 10718 bound_to 10713
  154.2247  135.2780  155.2912 H   0  0  0  0  0  0  0  0  0  0  0  0  # atno 10763 bound_to 10752
  154.5673  135.5629  153.7065 H   0  0  0  0  0  0  0  0  0  0  0  0  # atno 10764 bound_to 10752
  153.0033  135.6312  154.2388 H   0  0  0  0  0  0  0  0  0  0  0  0  # atno 10765 bound_to 10752
  141.1590  133.6815  156.6892 H   0  0  0  0  0  0  0  0  0  0  0  0  # atno 11005 bound_to 11000
  145.3190  139.1794  143.4598 LP  0  0  0  0  0  0  0  0  0  0  0  0  # atno 17320 bound_to 7965
  146.3234  140.3205  142.8633 LP  0  0  0  0  0  0  0  0  0  0  0  0  # atno 17321 bound_to 7965
  139.4828  144.6087  151.7473 LP  0  0  0  0  0  0  0  0  0  0  0  0  # atno 17342 bound_to 10162
  140.5232  144.0847  150.6029 LP  0  0  0  0  0  0  0  0  0  0  0  0  # atno 17343 bound_to 10162
  157.6701  130.9043  150.0020 LP  0  0  0  0  0  0  0  0  0  0  0  0  # atno 17370 bound_to 10713
  156.1292  130.3644  149.9760 LP  0  0  0  0  0  0  0  0  0  0  0  0  # atno 17371 bound_to 10713
  140.3043  134.8138  157.4124 LP  0  0  0  0  0  0  0  0  0  0  0  0  # atno 17394 bound_to 11000
  140.1234  134.5190  155.8165 LP  0  0  0  0  0  0  0  0  0  0  0  0  # atno 17395 bound_to 11000

$$$$
