AV-unprocessed.smi:224|AV-procd|sdf|1707|dock7
  -GOLD-   2262020173D 1   1.00000     0.00000
 Structure written by MMmdl.
 56 59  0  0  0  0  0  0  0  0  2 V2000
  146.1655  131.7252  149.7517 C   0  0  0  0  0  0  0  0  0  0  0  0
  146.1281  132.5746  151.0309 C   0  0  2  0  0  0  0  0  0  0  0  0
  147.3888  132.4802  151.6605 O   0  0  0  0  0  0  0  0  0  0  0  0
  145.0479  132.1114  152.0310 C   0  0  0  0  0  0  0  0  0  0  0  0
  144.6841  133.1668  153.0200 N   0  3  2  0  0  0  0  0  0  0  0  0
  144.1182  134.3700  152.3447 C   0  0  0  0  0  0  0  0  0  0  0  0
  143.6719  135.4405  153.3502 C   0  0  0  0  0  0  0  0  0  0  0  0
  144.7767  135.7987  154.2279 N   0  0  0  0  0  0  0  0  0  0  0  0
  145.5960  136.7960  153.7991 C   0  0  0  0  0  0  0  0  0  0  0  0
  145.3800  137.3737  152.5871 N   0  0  0  0  0  0  0  0  0  0  0  0
  146.1697  138.3612  152.1558 C   0  0  0  0  0  0  0  0  0  0  0  0
  147.2197  138.9142  152.7640 N   0  0  0  0  0  0  0  0  0  0  0  0
  147.4538  138.3319  153.9743 C   0  0  0  0  0  0  0  0  0  0  0  0
  146.6976  137.2786  154.5633 C   0  0  0  0  0  0  0  0  0  0  0  0
  147.2430  136.9420  155.7970 N   0  0  0  0  0  0  0  0  0  0  0  0
  148.2554  137.7544  155.9328 C   0  0  0  0  0  0  0  0  0  0  0  0
  148.4588  138.6193  154.8816 N   0  0  0  0  0  0  0  0  0  0  0  0
  149.5102  139.6187  154.7679 C   0  0  0  0  0  0  0  0  0  0  0  0
  150.8967  139.1034  155.2187 C   0  0  1  0  0  0  0  0  0  0  0  0
  151.8770  140.0722  154.8875 O   0  0  0  0  0  0  0  0  0  0  0  0
  150.9968  138.8032  156.7114 C   0  0  0  0  0  0  0  0  0  0  0  0
  151.9991  137.6589  156.7597 C   0  0  0  0  0  0  0  0  0  0  0  0
  151.6339  136.8827  155.6314 O   0  0  0  0  0  0  0  0  0  0  0  0
  151.2958  137.7648  154.5656 C   0  0  0  0  0  0  0  0  0  0  0  0
  145.3460  134.6559  154.9355 C   0  0  0  0  0  0  0  0  0  0  0  0
  145.7806  133.5164  153.9805 C   0  0  1  0  0  0  0  0  0  0  0  0
  146.2315  132.3194  154.8426 C   0  0  0  0  0  0  0  0  0  0  0  0
  145.2272  131.7978  149.2013 H   0  0  0  0  0  0  0  0  0  0  0  0
  146.3386  130.6721  149.9758 H   0  0  0  0  0  0  0  0  0  0  0  0
  146.9603  132.0581  149.0831 H   0  0  0  0  0  0  0  0  0  0  0  0
  145.9902  133.6220  150.7659 H   0  0  0  0  0  0  0  0  0  0  0  0
  147.9969  132.0656  151.0673 H   0  0  0  0  0  0  0  0  0  0  0  0
  144.1868  131.7981  151.4462 H   0  0  0  0  0  0  0  0  0  0  0  0
  145.3782  131.2192  152.5658 H   0  0  0  0  0  0  0  0  0  0  0  0
  144.8663  134.7914  151.6709 H   0  0  0  0  0  0  0  0  0  0  0  0
  143.2612  134.0994  151.7303 H   0  0  0  0  0  0  0  0  0  0  0  0
  143.2776  136.3031  152.8152 H   0  0  0  0  0  0  0  0  0  0  0  0
  142.8533  135.0592  153.9614 H   0  0  0  0  0  0  0  0  0  0  0  0
  145.9262  138.7652  151.1842 H   0  0  0  0  0  0  0  0  0  0  0  0
  148.8917  137.7405  156.8061 H   0  0  0  0  0  0  0  0  0  0  0  0
  149.5544  139.9516  153.7301 H   0  0  0  0  0  0  0  0  0  0  0  0
  149.2206  140.4910  155.3556 H   0  0  0  0  0  0  0  0  0  0  0  0
  152.1280  140.5257  155.6777 H   0  0  0  0  0  0  0  0  0  0  0  0
  151.2900  139.6617  157.3168 H   0  0  0  0  0  0  0  0  0  0  0  0
  150.0398  138.4415  157.0887 H   0  0  0  0  0  0  0  0  0  0  0  0
  153.0204  138.0245  156.6427 H   0  0  0  0  0  0  0  0  0  0  0  0
  151.9397  137.0822  157.6829 H   0  0  0  0  0  0  0  0  0  0  0  0
  150.4829  137.3260  153.9860 H   0  0  0  0  0  0  0  0  0  0  0  0
  152.1507  137.8724  153.8959 H   0  0  0  0  0  0  0  0  0  0  0  0
  146.1795  134.9722  155.5644 H   0  0  0  0  0  0  0  0  0  0  0  0
  144.5834  134.2844  155.6211 H   0  0  0  0  0  0  0  0  0  0  0  0
  146.6359  133.8583  153.3960 H   0  0  0  0  0  0  0  0  0  0  0  0
  146.9015  132.6480  155.6378 H   0  0  0  0  0  0  0  0  0  0  0  0
  146.7858  131.5724  154.2767 H   0  0  0  0  0  0  0  0  0  0  0  0
  145.3809  131.8274  155.3157 H   0  0  0  0  0  0  0  0  0  0  0  0
  143.9426  132.7810  153.5867 H   0  0  0  0  0  0  0  0  0  0  0  0
  1  2  1  0  0  0  0
  1 28  1  0  0  0  0
  1 29  1  0  0  0  0
  1 30  1  0  0  0  0
  2  3  1  0  0  0  0
  2  4  1  0  0  0  0
  2 31  1  0  0  0  0
  3 32  1  0  0  0  0
  4  5  1  0  0  0  0
  4 33  1  0  0  0  0
  4 34  1  0  0  0  0
  5 26  1  0  0  0  0
  5  6  1  0  0  0  0
  5 56  1  0  0  0  0
  6  7  1  0  0  0  0
  6 35  1  0  0  0  0
  6 36  1  0  0  0  0
  7  8  1  0  0  0  0
  7 37  1  0  0  0  0
  7 38  1  0  0  0  0
  8  9  1  0  0  0  0
  8 25  1  0  0  0  0
  9 14  1  0  0  0  0
  9 10  2  0  0  0  0
 10 11  1  0  0  0  0
 11 12  2  0  0  0  0
 11 39  1  0  0  0  0
 12 13  1  0  0  0  0
 13 17  1  0  0  0  0
 13 14  2  0  0  0  0
 14 15  1  0  0  0  0
 15 16  2  0  0  0  0
 16 17  1  0  0  0  0
 16 40  1  0  0  0  0
 17 18  1  0  0  0  0
 18 19  1  0  0  0  0
 18 41  1  0  0  0  0
 18 42  1  0  0  0  0
 19 24  1  0  0  0  0
 19 20  1  0  0  0  0
 19 21  1  0  0  0  0
 20 43  1  0  0  0  0
 21 22  1  0  0  0  0
 21 44  1  0  0  0  0
 21 45  1  0  0  0  0
 22 23  1  0  0  0  0
 22 46  1  0  0  0  0
 22 47  1  0  0  0  0
 23 24  1  0  0  0  0
 24 48  1  0  0  0  0
 24 49  1  0  0  0  0
 25 26  1  0  0  0  0
 25 50  1  0  0  0  0
 25 51  1  0  0  0  0
 26 27  1  0  0  0  0
 26 52  1  0  0  0  0
 27 53  1  0  0  0  0
 27 54  1  0  0  0  0
 27 55  1  0  0  0  0
M  CHG  1   5   1
M  END
> <s_m_source_file>
AV-unprocessed.smi

> <i_m_source_file_index>
224

> <i_lp_mmshare_version>
43012

> <i_f3d_flags>
0

> <s_epik_input>
W0NIM11bQ0BIXShbT0hdKVtDSDJdTjFbQ0gyXVtDSDJdTihbQ0gyXVtDQEhdMVtDSDNdKWMobltjSF1uMiljKGMyMyluW2NIXW4zW0NIMl1bQ0BAXTQoW09IXSlbQ0gyXVtDSDJdT1tDSDJdNA==

> <s_epik_cmdline>
J2VwaWtfcHl0aG9uJywgJy1waCcsICc3LjAnLCAnLXRuJywgJzgnLCAnLW1hJywgJzIwMCcsICctbWV0YWxfYmluZGluZycsICctaW1hZScsICc8aW5maWxlLm1hZT4nLCAnLW9tYWUnLCAnPG91dGZpbGUubWFlPic=

> <r_lp_tautomer_probability>
1

> <r_epik_Ionization_Penalty>
0.00516958

> <r_epik_Ionization_Penalty_Charging>
0.00509693

> <r_epik_Ionization_Penalty_Neutral>
7.26542e-05

> <r_epik_State_Penalty>
-0

> <r_epik_Charging_Adjusted_Penalty>
0.00509693

> <i_epik_Tot_Q>
1

> <i_epik_Tot_abs_Q>
1

> <r_epik_Metal_State_Penalty>
-0

> <b_epik_Metal_Only>
0

> <s_lp_Force_Field>
OPLS_2005

> <r_lp_Energy>
50.3284

> <b_lp_Chiralities_Consistent>
1

> <s_lp_Variant>
AV-unprocessed.smi:224-1

> <Gold.Version>
5.8.1

> <Gold.Id.Protein>
6NUR|6NUR_protein|mol2

> <Gold.PLP.Fitness>
48.7558

> <Gold.PLP.PLP>
-32.1122

> <Gold.PLP.part.hbond>
-3.7651

> <Gold.PLP.part.metal>
0.0000

> <Gold.PLP.part.buried>
-6.3575

> <Gold.PLP.part.nonpolar>
-24.5165

> <Gold.PLP.part.repulsive>
1.2405

> <Gold.PLP.ligand.clash>
0.0000

> <Gold.PLP.ligand.torsion>
0.7704

> <Gold.PLP.Chemscore.Hbond>
4.8640

> <Gold.PLP.Chemscore.CHOScore>
1.0000

> <Gold.PLP.Chemscore.Metal>
0.0000

> <Gold.Chemscore.Hbonds>
donor molecule, donor type, donor heavy atom, donor atom, acceptor molecule, acceptor atom, score
      L1  H     3    32       P1 10747  1.00
      L1  H     5    56       P1 10957  2.00
      P1  H  7989  7998       L1    20  0.90
      P1  H 10752 10765       L1    23  0.88
      L1  C    11    39       P1 10171  1.00

> <Gold.PLP.Chemscore.Internal.Correction>
0.5924

> <Gold.Rescore>
     Score         DG    S(hbond)    S(metal)    S(lipo)     H(rot)  DE(clash)    DE(int)     intcor
     14.15     -15.92       3.34        0.00      67.36       3.36       0.01       1.76       ----

> <Gold.Chemscore.Fitness>
14.1478

> <Gold.Chemscore.DG>
-15.9200

> <Gold.Chemscore.ZeroCoef>
-5.4800

> <Gold.Chemscore.Hbond>
3.3424

> <Gold.Chemscore.Metal>
0.0000

> <Gold.Chemscore.Lipo>
67.3592

> <Gold.Chemscore.Internal_Hbond>
0.0000

> <Gold.Chemscore.DEClash>
0.0106

> <Gold.Chemscore.DEInternal>
1.7615

> <Gold.Chemscore.Rot>
3.3611

> <Gold.Chemscore.Internal.Correction>
   9.000000E+99

> <Gold.Chemscore.Hbonds>
donor molecule, donor type, donor heavy atom, donor atom, acceptor molecule, acceptor atom, score
      L1  H     3    32       P1 10747  1.00
      L1  H     5    56       P1 10957  0.66
      P1  H  7989  7998       L1    20  0.81
      P1  H 10752 10765       L1    23  0.46

> <Gold.Chemscore.Hbond.Weighted>
-11.1635

> <Gold.Chemscore.Metal.Weighted>
-0.0000

> <Gold.Chemscore.Lipo.Weighted>
-7.8810

> <Gold.Chemscore.Internal_Hbond.Weighted>
0.0000

> <Gold.Chemscore.DEClash.Weighted>
0.0106

> <Gold.Chemscore.DEInternal.Weighted>
1.7615

> <Gold.Chemscore.Rot.Weighted>
8.6045

> <Gold.Chemscore.Internal.Correction.Weighted>
   9.000000E+99

> <Gold.Protein.RotatedTorsions>
[ 6907 6896 6895 6894 ] final  -25.10 input  -60.11 | X-H torsion
[ 7974 7965 7964 7962 ] final -145.02 input  175.53 | X-H torsion
[ 8008 7997 7996 7995 ] final  128.89 input   59.86 | X-H torsion
[ 10167 10162 10161 10158 ] final   81.05 input  -65.29 | X-H torsion
[ 10718 10713 10712 10709 ] final  156.12 input   66.30 | X-H torsion
[ 10763 10752 10751 10750 ] final -164.54 input  -60.55 | X-H torsion
[ 11005 11000 10999 10996 ] final  -22.33 input  -57.11 | X-H torsion

> <Gold.Protein.ActiveResidues>
 VAL166  LYS551  ARG553  GLY616  TRP617  ASP618  TYR619  PRO620  LYS621  CYS622 
 ASP623  PHE694  ASN695  SER759  ASP760  ASP761  ALA762  ILE779  LEU786  VAL792 
 PHE793  MET794  SER795  GLU796  ALA797  LYS798  CYS799  TRP800  GLU811  SER814 

> <Gold.Protein.RotatedAtoms>
  151.1800  135.0357  159.8788 H   0  0  0  0  0  0  0  0  0  0  0  0  # atno 6907 bound_to 6896
  152.5445  134.1073  159.8353 H   0  0  0  0  0  0  0  0  0  0  0  0  # atno 6908 bound_to 6896
  151.1189  133.5071  159.2635 H   0  0  0  0  0  0  0  0  0  0  0  0  # atno 6909 bound_to 6896
  144.8257  140.5637  143.5549 H   0  0  0  0  0  0  0  0  0  0  0  0  # atno 7974 bound_to 7965
  156.2925  140.2634  156.2509 H   0  0  0  0  0  0  0  0  0  0  0  0  # atno 8008 bound_to 7997
  154.9883  140.0389  157.2327 H   0  0  0  0  0  0  0  0  0  0  0  0  # atno 8009 bound_to 7997
  154.7709  140.2778  155.6143 H   0  0  0  0  0  0  0  0  0  0  0  0  # atno 8010 bound_to 7997
  139.9433  144.6075  150.8231 H   0  0  0  0  0  0  0  0  0  0  0  0  # atno 10167 bound_to 10162
  157.2093  131.0694  151.1979 H   0  0  0  0  0  0  0  0  0  0  0  0  # atno 10718 bound_to 10713
  154.7018  135.2989  154.9329 H   0  0  0  0  0  0  0  0  0  0  0  0  # atno 10763 bound_to 10752
  154.0259  135.6676  153.4780 H   0  0  0  0  0  0  0  0  0  0  0  0  # atno 10764 bound_to 10752
  153.0687  135.5073  154.8167 H   0  0  0  0  0  0  0  0  0  0  0  0  # atno 10765 bound_to 10752
  140.8646  133.7763  156.0115 H   0  0  0  0  0  0  0  0  0  0  0  0  # atno 11005 bound_to 11000
  145.5006  139.1483  143.3659 LP  0  0  0  0  0  0  0  0  0  0  0  0  # atno 17320 bound_to 7965
  146.2562  140.5146  142.8872 LP  0  0  0  0  0  0  0  0  0  0  0  0  # atno 17321 bound_to 7965
  140.7604  143.3151  151.2752 LP  0  0  0  0  0  0  0  0  0  0  0  0  # atno 17342 bound_to 10162
  139.6687  144.0059  152.2739 LP  0  0  0  0  0  0  0  0  0  0  0  0  # atno 17343 bound_to 10162
  157.3689  130.7170  149.6551 LP  0  0  0  0  0  0  0  0  0  0  0  0  # atno 17370 bound_to 10713
  155.9692  130.4204  150.4423 LP  0  0  0  0  0  0  0  0  0  0  0  0  # atno 17371 bound_to 10713
  140.8643  134.2803  157.5220 LP  0  0  0  0  0  0  0  0  0  0  0  0  # atno 17394 bound_to 11000
  139.8708  134.9534  156.4146 LP  0  0  0  0  0  0  0  0  0  0  0  0  # atno 17395 bound_to 11000

$$$$
