AV-unprocessed.smi:738|AV-procd|sdf|3538|dock2
  -GOLD-   22720 0533D 1   1.00000     0.00000
 Structure written by MMmdl.
 35 37  0  0  0  0  0  0  0  0  1 V2000
  143.5568  137.5043  151.9854 N   0  0  0  0  0  0  0  0  0  0  0  0
  144.5303  136.6772  152.3789 C   0  0  0  0  0  0  0  0  0  0  0  0
  144.5061  135.4706  152.1434 O   0  0  0  0  0  0  0  0  0  0  0  0
  145.6999  137.3126  153.0730 C   0  0  0  0  0  0  0  0  0  0  0  0
  146.1416  138.6013  152.7029 C   0  0  0  0  0  0  0  0  0  0  0  0
  147.1972  139.2193  153.2729 N   0  0  0  0  0  0  0  0  0  0  0  0
  147.8811  138.5739  154.2480 C   0  0  0  0  0  0  0  0  0  0  0  0
  148.9902  139.2256  154.8185 N   0  0  0  0  0  0  0  0  0  0  0  0
  150.2368  138.5556  154.4777 C   0  0  0  0  0  0  0  0  0  0  0  0
  151.3699  139.0957  155.3596 C   0  0  0  0  0  0  0  0  0  0  0  0
  151.4907  140.5042  155.1852 O   0  0  0  0  0  0  0  0  0  0  0  0
  150.2884  141.2429  155.4132 C   0  0  2  0  0  0  0  0  0  0  0  0
  149.8597  141.3755  156.8819 C   0  0  0  0  0  0  0  0  0  0  0  0
  148.3394  141.5955  156.8427 C   0  0  0  0  0  0  0  0  0  0  0  0
  147.9011  141.4055  155.3810 C   0  0  0  0  0  0  0  0  0  0  0  0
  149.0611  140.6828  154.6755 C   0  0  2  0  0  0  0  0  0  0  0  0
  147.5270  137.2730  154.6802 C   0  0  0  0  0  0  0  0  0  0  0  0
  148.4036  136.4601  155.9299 Cl  0  0  0  0  0  0  0  0  0  0  0  0
  146.4232  136.6366  154.0804 C   0  0  0  0  0  0  0  0  0  0  0  0
  142.7479  137.1326  151.5088 H   0  0  0  0  0  0  0  0  0  0  0  0
  143.6328  138.4959  152.1596 H   0  0  0  0  0  0  0  0  0  0  0  0
  145.6353  139.1609  151.9297 H   0  0  0  0  0  0  0  0  0  0  0  0
  150.1431  137.4779  154.6163 H   0  0  0  0  0  0  0  0  0  0  0  0
  150.4647  138.7260  153.4246 H   0  0  0  0  0  0  0  0  0  0  0  0
  151.1975  138.8474  156.4068 H   0  0  0  0  0  0  0  0  0  0  0  0
  152.3146  138.6285  155.0814 H   0  0  0  0  0  0  0  0  0  0  0  0
  150.4686  142.2517  155.0388 H   0  0  0  0  0  0  0  0  0  0  0  0
  150.0700  140.4649  157.4413 H   0  0  0  0  0  0  0  0  0  0  0  0
  150.3833  142.1897  157.3837 H   0  0  0  0  0  0  0  0  0  0  0  0
  147.8419  140.8707  157.4879 H   0  0  0  0  0  0  0  0  0  0  0  0
  148.0697  142.5890  157.2020 H   0  0  0  0  0  0  0  0  0  0  0  0
  146.9415  140.8952  155.2960 H   0  0  0  0  0  0  0  0  0  0  0  0
  147.7739  142.3875  154.9238 H   0  0  0  0  0  0  0  0  0  0  0  0
  149.1044  140.9409  153.6164 H   0  0  0  0  0  0  0  0  0  0  0  0
  146.1442  135.6414  154.3954 H   0  0  0  0  0  0  0  0  0  0  0  0
  1  2  1  0  0  0  0
  1 20  1  0  0  0  0
  1 21  1  0  0  0  0
  2  3  2  0  0  0  0
  2  4  1  0  0  0  0
  4 19  1  0  0  0  0
  4  5  2  0  0  0  0
  5  6  1  0  0  0  0
  5 22  1  0  0  0  0
  6  7  2  0  0  0  0
  7  8  1  0  0  0  0
  7 17  1  0  0  0  0
  8 16  1  0  0  0  0
  8  9  1  0  0  0  0
  9 10  1  0  0  0  0
  9 23  1  0  0  0  0
  9 24  1  0  0  0  0
 10 11  1  0  0  0  0
 10 25  1  0  0  0  0
 10 26  1  0  0  0  0
 11 12  1  0  0  0  0
 12 16  1  0  0  0  0
 12 13  1  0  0  0  0
 12 27  1  0  0  0  0
 13 14  1  0  0  0  0
 13 28  1  0  0  0  0
 13 29  1  0  0  0  0
 14 15  1  0  0  0  0
 14 30  1  0  0  0  0
 14 31  1  0  0  0  0
 15 16  1  0  0  0  0
 15 32  1  0  0  0  0
 15 33  1  0  0  0  0
 16 34  1  0  0  0  0
 17 18  1  0  0  0  0
 17 19  2  0  0  0  0
 19 35  1  0  0  0  0
M  END
> <s_m_source_file>
AV-unprocessed.smi

> <i_m_source_file_index>
738

> <i_lp_mmshare_version>
43012

> <i_f3d_flags>
0

> <s_epik_input>
W05IMl1DKD1PKWMxW2NIXW5jKGMoQ2wpW2NIXTEpTihbQ0gyXVtDSDJdTzIpW0NASF0oW0NASF0yMylbQ0gyXVtDSDJdW0NIMl0z

> <s_epik_cmdline>
J2VwaWtfcHl0aG9uJywgJy1waCcsICc3LjAnLCAnLXRuJywgJzgnLCAnLW1hJywgJzIwMCcsICctbWV0YWxfYmluZGluZycsICctaW1hZScsICc8aW5maWxlLm1hZT4nLCAnLW9tYWUnLCAnPG91dGZpbGUubWFlPic=

> <r_lp_tautomer_probability>
1

> <r_epik_Ionization_Penalty>
6.75978e-06

> <r_epik_Ionization_Penalty_Charging>
0

> <r_epik_Ionization_Penalty_Neutral>
6.75978e-06

> <r_epik_State_Penalty>
-0

> <r_epik_Charging_Adjusted_Penalty>
0

> <i_epik_Tot_Q>
0

> <i_epik_Tot_abs_Q>
0

> <r_epik_Metal_State_Penalty>
-0

> <b_epik_Metal_Only>
0

> <s_lp_Force_Field>
OPLS_2005

> <r_lp_Energy>
42.794

> <b_lp_Chiralities_Consistent>
1

> <s_lp_Variant>
AV-unprocessed.smi:738-1

> <Gold.Version>
5.8.1

> <Gold.Id.Protein>
6NUR|6NUR_protein|mol2

> <Gold.PLP.Fitness>
30.4276

> <Gold.PLP.PLP>
-22.8098

> <Gold.PLP.part.hbond>
-2.7858

> <Gold.PLP.part.metal>
0.0000

> <Gold.PLP.part.buried>
-1.2809

> <Gold.PLP.part.nonpolar>
-19.3530

> <Gold.PLP.part.repulsive>
0.5465

> <Gold.PLP.ligand.clash>
0.0000

> <Gold.PLP.ligand.torsion>
0.8125

> <Gold.PLP.Chemscore.Hbond>
1.8480

> <Gold.PLP.Chemscore.CHOScore>
1.1773

> <Gold.PLP.Chemscore.Metal>
0.0000

> <Gold.Chemscore.Hbonds>
donor molecule, donor type, donor heavy atom, donor atom, acceptor molecule, acceptor atom, score
      L1  H     1    21       P1 10175  1.00
      P1  H  7989  7998       L1    11  0.73
      L1  C     5    22       P1 10171  0.33
      L1  C     5    22       P1 10175  0.82

> <Gold.PLP.Chemscore.Internal.Correction>
0.1669

> <Gold.Rescore>
     Score         DG    S(hbond)    S(metal)    S(lipo)     H(rot)  DE(clash)    DE(int)     intcor
     12.45     -13.14       1.11        0.00      55.79       1.00       0.06       0.63       ----

> <Gold.Chemscore.Fitness>
12.4534

> <Gold.Chemscore.DG>
-13.1407

> <Gold.Chemscore.ZeroCoef>
-5.4800

> <Gold.Chemscore.Hbond>
1.1057

> <Gold.Chemscore.Metal>
0.0000

> <Gold.Chemscore.Lipo>
55.7920

> <Gold.Chemscore.Internal_Hbond>
0.0000

> <Gold.Chemscore.DEClash>
0.0621

> <Gold.Chemscore.DEInternal>
0.6252

> <Gold.Chemscore.Rot>
1.0000

> <Gold.Chemscore.Internal.Correction>
   9.000000E+99

> <Gold.Chemscore.Hbonds>
donor molecule, donor type, donor heavy atom, donor atom, acceptor molecule, acceptor atom, score
      L1  H     1    21       P1 10175  0.99
      P1  H  7989  7998       L1    11  0.09

> <Gold.Chemscore.Hbond.Weighted>
-3.6930

> <Gold.Chemscore.Metal.Weighted>
-0.0000

> <Gold.Chemscore.Lipo.Weighted>
-6.5277

> <Gold.Chemscore.Internal_Hbond.Weighted>
0.0000

> <Gold.Chemscore.DEClash.Weighted>
0.0621

> <Gold.Chemscore.DEInternal.Weighted>
0.6252

> <Gold.Chemscore.Rot.Weighted>
2.5600

> <Gold.Chemscore.Internal.Correction.Weighted>
   9.000000E+99

> <Gold.Protein.RotatedTorsions>
[ 6907 6896 6895 6894 ] final -173.77 input  -60.11 | X-H torsion
[ 7974 7965 7964 7962 ] final   78.53 input  175.53 | X-H torsion
[ 8008 7997 7996 7995 ] final -117.04 input   59.86 | X-H torsion
[ 10167 10162 10161 10158 ] final    0.04 input  -65.29 | X-H torsion
[ 10718 10713 10712 10709 ] final   57.68 input   66.30 | X-H torsion
[ 10763 10752 10751 10750 ] final   32.67 input  -60.55 | X-H torsion
[ 11005 11000 10999 10996 ] final   -8.85 input  -57.11 | X-H torsion

> <Gold.Protein.ActiveResidues>
 VAL166  LYS551  ARG553  GLY616  TRP617  ASP618  TYR619  PRO620  LYS621  CYS622 
 ASP623  PHE694  ASN695  SER759  ASP760  ASP761  ALA762  ILE779  LEU786  VAL792 
 PHE793  MET794  SER795  GLU796  ALA797  LYS798  CYS799  TRP800  GLU811  SER814 

> <Gold.Protein.RotatedAtoms>
  151.5615  133.3402  159.2971 H   0  0  0  0  0  0  0  0  0  0  0  0  # atno 6907 bound_to 6896
  150.8420  134.7718  159.6951 H   0  0  0  0  0  0  0  0  0  0  0  0  # atno 6908 bound_to 6896
  152.4485  134.5450  159.9902 H   0  0  0  0  0  0  0  0  0  0  0  0  # atno 6909 bound_to 6896
  145.6760  139.2510  143.1841 H   0  0  0  0  0  0  0  0  0  0  0  0  # atno 7974 bound_to 7965
  155.0774  140.0394  157.2628 H   0  0  0  0  0  0  0  0  0  0  0  0  # atno 8008 bound_to 7997
  154.6934  140.2658  155.6765 H   0  0  0  0  0  0  0  0  0  0  0  0  # atno 8009 bound_to 7997
  156.2736  140.2755  156.1520 H   0  0  0  0  0  0  0  0  0  0  0  0  # atno 8010 bound_to 7997
  140.6746  143.6951  150.7996 H   0  0  0  0  0  0  0  0  0  0  0  0  # atno 10167 bound_to 10162
  157.5534  130.8782  149.8998 H   0  0  0  0  0  0  0  0  0  0  0  0  # atno 10718 bound_to 10713
  153.0251  135.6407  154.1391 H   0  0  0  0  0  0  0  0  0  0  0  0  # atno 10763 bound_to 10752
  154.1121  135.2852  155.3230 H   0  0  0  0  0  0  0  0  0  0  0  0  # atno 10764 bound_to 10752
  154.6324  135.5488  153.7758 H   0  0  0  0  0  0  0  0  0  0  0  0  # atno 10765 bound_to 10752
  140.7279  133.8774  155.8870 H   0  0  0  0  0  0  0  0  0  0  0  0  # atno 11005 bound_to 11000
  146.1005  140.7549  142.9551 LP  0  0  0  0  0  0  0  0  0  0  0  0  # atno 17320 bound_to 7965
  144.7041  140.3779  143.7132 LP  0  0  0  0  0  0  0  0  0  0  0  0  # atno 17321 bound_to 7965
  140.0642  143.5124  152.2612 LP  0  0  0  0  0  0  0  0  0  0  0  0  # atno 17342 bound_to 10162
  139.6032  144.7589  151.3123 LP  0  0  0  0  0  0  0  0  0  0  0  0  # atno 17343 bound_to 10162
  156.0597  130.3702  150.1011 LP  0  0  0  0  0  0  0  0  0  0  0  0  # atno 17370 bound_to 10713
  156.9181  130.9674  151.3553 LP  0  0  0  0  0  0  0  0  0  0  0  0  # atno 17371 bound_to 10713
  140.9947  134.1232  157.4375 LP  0  0  0  0  0  0  0  0  0  0  0  0  # atno 17394 bound_to 11000
  139.8833  135.0051  156.6290 LP  0  0  0  0  0  0  0  0  0  0  0  0  # atno 17395 bound_to 11000

$$$$
