AV-unprocessed.smi:460|AV-procd|sdf|2628|dock9
  -GOLD-   2262023 33D 1   1.00000     0.00000
 Structure written by MMmdl.
 47 49  0  0  0  0  0  0  0  0  2 V2000
  153.9883  137.5493  161.1841 C   0  0  0  0  0  0  0  0  0  0  0  0
  153.9740  139.0513  160.8584 C   0  0  0  0  0  0  0  0  0  0  0  0
  153.2186  139.4150  159.5623 C   0  0  2  0  0  0  0  0  0  0  0  0
  154.0408  139.0943  158.4612 O   0  0  0  0  0  0  0  0  0  0  0  0
  152.7881  140.8514  159.5227 C   0  0  0  0  0  0  0  0  0  0  0  0
  152.9898  141.7712  160.5099 N   0  3  0  0  0  0  0  0  0  0  0  0
  152.4617  143.0036  160.1280 C   0  0  0  0  0  0  0  0  0  0  0  0
  152.4120  144.2205  160.8004 C   0  0  0  0  0  0  0  0  0  0  0  0
  151.7943  145.2924  160.1234 C   0  0  0  0  0  0  0  0  0  0  0  0
  151.2561  145.1308  158.8302 C   0  0  0  0  0  0  0  0  0  0  0  0
  151.3147  143.8919  158.1582 C   0  0  0  0  0  0  0  0  0  0  0  0
  151.9295  142.8372  158.8336 C   0  0  0  0  0  0  0  0  0  0  0  0
  152.1745  141.5021  158.4897 N   0  0  0  0  0  0  0  0  0  0  0  0
  151.7669  141.0244  157.1589 C   0  0  0  0  0  0  0  0  0  0  0  0
  150.4695  140.2054  157.1975 C   0  0  0  0  0  0  0  0  0  0  0  0
  149.3753  141.0955  157.3617 O   0  0  0  0  0  0  0  0  0  0  0  0
  148.5892  141.3817  156.2667 C   0  0  0  0  0  0  0  0  0  0  0  0
  148.9677  141.0848  154.9338 C   0  0  0  0  0  0  0  0  0  0  0  0
  148.1196  141.4158  153.8616 C   0  0  0  0  0  0  0  0  0  0  0  0
  146.8887  142.0469  154.1088 C   0  0  0  0  0  0  0  0  0  0  0  0
  146.5033  142.3451  155.4286 C   0  0  0  0  0  0  0  0  0  0  0  0
  147.3491  142.0135  156.5172 C   0  0  0  0  0  0  0  0  0  0  0  0
  147.0302  142.2608  157.8366 O   0  0  0  0  0  0  0  0  0  0  0  0
  145.7829  142.8730  158.1265 C   0  0  0  0  0  0  0  0  0  0  0  0
  154.6157  137.3501  162.0530 H   0  0  0  0  0  0  0  0  0  0  0  0
  154.3806  136.9644  160.3542 H   0  0  0  0  0  0  0  0  0  0  0  0
  152.9907  137.1736  161.4097 H   0  0  0  0  0  0  0  0  0  0  0  0
  153.5419  139.5889  161.7036 H   0  0  0  0  0  0  0  0  0  0  0  0
  155.0045  139.3992  160.7762 H   0  0  0  0  0  0  0  0  0  0  0  0
  152.3358  138.7810  159.4936 H   0  0  0  0  0  0  0  0  0  0  0  0
  153.8457  138.2102  158.1897 H   0  0  0  0  0  0  0  0  0  0  0  0
  152.8226  144.3453  161.7915 H   0  0  0  0  0  0  0  0  0  0  0  0
  151.7311  146.2570  160.6057 H   0  0  0  0  0  0  0  0  0  0  0  0
  150.7887  145.9743  158.3431 H   0  0  0  0  0  0  0  0  0  0  0  0
  150.8965  143.7809  157.1689 H   0  0  0  0  0  0  0  0  0  0  0  0
  151.6629  141.8804  156.4923 H   0  0  0  0  0  0  0  0  0  0  0  0
  152.5817  140.4248  156.7519 H   0  0  0  0  0  0  0  0  0  0  0  0
  150.3633  139.6258  156.2794 H   0  0  0  0  0  0  0  0  0  0  0  0
  150.5097  139.5078  158.0354 H   0  0  0  0  0  0  0  0  0  0  0  0
  149.9090  140.6079  154.7078 H   0  0  0  0  0  0  0  0  0  0  0  0
  148.4155  141.1873  152.8482 H   0  0  0  0  0  0  0  0  0  0  0  0
  146.2381  142.3018  153.2852 H   0  0  0  0  0  0  0  0  0  0  0  0
  145.5491  142.8260  155.5803 H   0  0  0  0  0  0  0  0  0  0  0  0
  145.7028  143.0286  159.2021 H   0  0  0  0  0  0  0  0  0  0  0  0
  144.9476  142.2412  157.8212 H   0  0  0  0  0  0  0  0  0  0  0  0
  145.6953  143.8481  157.6456 H   0  0  0  0  0  0  0  0  0  0  0  0
  153.4489  141.5607  161.3866 H   0  0  0  0  0  0  0  0  0  0  0  0
  1  2  1  0  0  0  0
  1 25  1  0  0  0  0
  1 26  1  0  0  0  0
  1 27  1  0  0  0  0
  2  3  1  0  0  0  0
  2 28  1  0  0  0  0
  2 29  1  0  0  0  0
  3  4  1  0  0  0  0
  3  5  1  0  0  0  0
  3 30  1  0  0  0  0
  4 31  1  0  0  0  0
  5 13  1  0  0  0  0
  5  6  2  0  0  0  0
  6  7  1  0  0  0  0
  6 47  1  0  0  0  0
  7 12  2  0  0  0  0
  7  8  1  0  0  0  0
  8  9  2  0  0  0  0
  8 32  1  0  0  0  0
  9 10  1  0  0  0  0
  9 33  1  0  0  0  0
 10 11  2  0  0  0  0
 10 34  1  0  0  0  0
 11 12  1  0  0  0  0
 11 35  1  0  0  0  0
 12 13  1  0  0  0  0
 13 14  1  0  0  0  0
 14 15  1  0  0  0  0
 14 36  1  0  0  0  0
 14 37  1  0  0  0  0
 15 16  1  0  0  0  0
 15 38  1  0  0  0  0
 15 39  1  0  0  0  0
 16 17  1  0  0  0  0
 17 22  1  0  0  0  0
 17 18  2  0  0  0  0
 18 19  1  0  0  0  0
 18 40  1  0  0  0  0
 19 20  2  0  0  0  0
 19 41  1  0  0  0  0
 20 21  1  0  0  0  0
 20 42  1  0  0  0  0
 21 22  2  0  0  0  0
 21 43  1  0  0  0  0
 22 23  1  0  0  0  0
 23 24  1  0  0  0  0
 24 44  1  0  0  0  0
 24 45  1  0  0  0  0
 24 46  1  0  0  0  0
M  CHG  1   6   1
M  END
> <s_m_source_file>
AV-unprocessed.smi

> <i_m_source_file_index>
460

> <i_lp_mmshare_version>
43012

> <i_f3d_flags>
0

> <s_epik_input>
W2NIXTFbY0hdW2NIXVtjSF1jKGMxMiluKGMobjIpW0NAQEhdKFtPSF0pW0NIMl1bQ0gzXSlbQ0gyXVtDSDJdT2MzW2NIXVtjSF1bY0hdW2NIXWMzT1tDSDNd

> <s_epik_cmdline>
J2VwaWtfcHl0aG9uJywgJy1waCcsICc3LjAnLCAnLXRuJywgJzgnLCAnLW1hJywgJzIwMCcsICctbWV0YWxfYmluZGluZycsICctaW1hZScsICc8aW5maWxlLm1hZT4nLCAnLW9tYWUnLCAnPG91dGZpbGUubWFlPic=

> <r_lp_tautomer_probability>
1

> <r_epik_Ionization_Penalty>
1.48085

> <r_epik_Ionization_Penalty_Charging>
1.48083

> <r_epik_Ionization_Penalty_Neutral>
1.80167e-05

> <r_epik_State_Penalty>
1.56944

> <r_epik_Charging_Adjusted_Penalty>
3.05027

> <i_epik_Tot_Q>
1

> <i_epik_Tot_abs_Q>
1

> <r_epik_Metal_State_Penalty>
5.61877

> <b_epik_Metal_Only>
0

> <s_lp_Force_Field>
OPLS_2005

> <r_lp_Energy>
23.3046

> <b_lp_Chiralities_Consistent>
1

> <s_lp_Variant>
AV-unprocessed.smi:460-3

> <Gold.Version>
5.8.1

> <Gold.Id.Protein>
6NUR|6NUR_protein|mol2

> <Gold.PLP.Fitness>
50.0519

> <Gold.PLP.PLP>
-48.9663

> <Gold.PLP.part.hbond>
-1.0000

> <Gold.PLP.part.metal>
0.0000

> <Gold.PLP.part.buried>
-6.9620

> <Gold.PLP.part.nonpolar>
-40.0001

> <Gold.PLP.part.repulsive>
0.2574

> <Gold.PLP.ligand.clash>
0.0000

> <Gold.PLP.ligand.torsion>
0.9956

> <Gold.PLP.Chemscore.Hbond>
1.0000

> <Gold.PLP.Chemscore.CHOScore>
0.0000

> <Gold.PLP.Chemscore.Metal>
0.0000

> <Gold.Chemscore.Hbonds>
donor molecule, donor type, donor heavy atom, donor atom, acceptor molecule, acceptor atom, score
      P1  H  7997  8008       L1     4  1.00

> <Gold.PLP.Chemscore.Internal.Correction>
0.0767

> <Gold.Rescore>
     Score         DG    S(hbond)    S(metal)    S(lipo)     H(rot)  DE(clash)    DE(int)     intcor
     17.22     -18.18       0.99        0.00     133.88       2.45       0.04       0.93       ----

> <Gold.Chemscore.Fitness>
17.2189

> <Gold.Chemscore.DG>
-18.1842

> <Gold.Chemscore.ZeroCoef>
-5.4800

> <Gold.Chemscore.Hbond>
0.9879

> <Gold.Chemscore.Metal>
0.0000

> <Gold.Chemscore.Lipo>
133.8788

> <Gold.Chemscore.Internal_Hbond>
0.0000

> <Gold.Chemscore.DEClash>
0.0351

> <Gold.Chemscore.DEInternal>
0.9301

> <Gold.Chemscore.Rot>
2.4450

> <Gold.Chemscore.Internal.Correction>
   9.000000E+99

> <Gold.Chemscore.Hbonds>
donor molecule, donor type, donor heavy atom, donor atom, acceptor molecule, acceptor atom, score
      P1  H  7997  8008       L1     4  0.82

> <Gold.Chemscore.Hbond.Weighted>
-3.2996

> <Gold.Chemscore.Metal.Weighted>
-0.0000

> <Gold.Chemscore.Lipo.Weighted>
-15.6638

> <Gold.Chemscore.Internal_Hbond.Weighted>
0.0000

> <Gold.Chemscore.DEClash.Weighted>
0.0351

> <Gold.Chemscore.DEInternal.Weighted>
0.9301

> <Gold.Chemscore.Rot.Weighted>
6.2593

> <Gold.Chemscore.Internal.Correction.Weighted>
   9.000000E+99

> <Gold.Protein.RotatedTorsions>
[ 6907 6896 6895 6894 ] final  -70.04 input  -60.11 | X-H torsion
[ 7974 7965 7964 7962 ] final  -96.34 input  175.53 | X-H torsion
[ 8008 7997 7996 7995 ] final -100.08 input   59.86 | X-H torsion
[ 10167 10162 10161 10158 ] final -150.18 input  -65.29 | X-H torsion
[ 10718 10713 10712 10709 ] final  -33.25 input   66.30 | X-H torsion
[ 10763 10752 10751 10750 ] final  -54.79 input  -60.55 | X-H torsion
[ 11005 11000 10999 10996 ] final    8.71 input  -57.11 | X-H torsion

> <Gold.Protein.ActiveResidues>
 VAL166  LYS551  ARG553  GLY616  TRP617  ASP618  TYR619  PRO620  LYS621  CYS622 
 ASP623  PHE694  ASN695  SER759  ASP760  ASP761  ALA762  ILE779  LEU786  VAL792 
 PHE793  MET794  SER795  GLU796  ALA797  LYS798  CYS799  TRP800  GLU811  SER814 

> <Gold.Protein.RotatedAtoms>
  150.7277  134.5511  159.5794 H   0  0  0  0  0  0  0  0  0  0  0  0  # atno 6907 bound_to 6896
  152.2998  134.7621  160.0369 H   0  0  0  0  0  0  0  0  0  0  0  0  # atno 6908 bound_to 6896
  151.8206  133.3358  159.3619 H   0  0  0  0  0  0  0  0  0  0  0  0  # atno 6909 bound_to 6896
  145.3482  140.9472  143.2569 H   0  0  0  0  0  0  0  0  0  0  0  0  # atno 7974 bound_to 7965
  154.8237  140.0443  157.1429 H   0  0  0  0  0  0  0  0  0  0  0  0  # atno 8008 bound_to 7997
  154.9230  140.3029  155.5186 H   0  0  0  0  0  0  0  0  0  0  0  0  # atno 8009 bound_to 7997
  156.2982  140.2337  156.4282 H   0  0  0  0  0  0  0  0  0  0  0  0  # atno 8010 bound_to 7997
  139.7377  143.8710  152.2553 H   0  0  0  0  0  0  0  0  0  0  0  0  # atno 10167 bound_to 10162
  156.3649  130.4330  149.7593 H   0  0  0  0  0  0  0  0  0  0  0  0  # atno 10718 bound_to 10713
  154.1805  135.6444  153.5033 H   0  0  0  0  0  0  0  0  0  0  0  0  # atno 10763 bound_to 10752
  153.0060  135.5405  154.6520 H   0  0  0  0  0  0  0  0  0  0  0  0  # atno 10764 bound_to 10752
  154.5882  135.2931  155.0635 H   0  0  0  0  0  0  0  0  0  0  0  0  # atno 10765 bound_to 10752
  140.5339  134.0439  155.7882 H   0  0  0  0  0  0  0  0  0  0  0  0  # atno 11005 bound_to 11000
  144.8738  139.5000  143.6755 LP  0  0  0  0  0  0  0  0  0  0  0  0  # atno 17320 bound_to 7965
  146.2979  139.7335  142.9113 LP  0  0  0  0  0  0  0  0  0  0  0  0  # atno 17321 bound_to 7965
  139.8652  144.7097  150.9053 LP  0  0  0  0  0  0  0  0  0  0  0  0  # atno 17342 bound_to 10162
  140.7781  143.3784  151.1521 LP  0  0  0  0  0  0  0  0  0  0  0  0  # atno 17343 bound_to 10162
  156.4743  130.8011  151.3028 LP  0  0  0  0  0  0  0  0  0  0  0  0  # atno 17370 bound_to 10713
  157.7477  131.0026  150.3006 LP  0  0  0  0  0  0  0  0  0  0  0  0  # atno 17371 bound_to 10713
  141.1266  133.9373  157.2623 LP  0  0  0  0  0  0  0  0  0  0  0  0  # atno 17394 bound_to 11000
  139.9539  135.0169  156.9074 LP  0  0  0  0  0  0  0  0  0  0  0  0  # atno 17395 bound_to 11000

$$$$
