AV-unprocessed.smi:11|AV-procd|sdf|57|dock9
  -GOLD-   2262015173D 1   1.00000     0.00000
 Structure written by MMmdl.
 34 36  0  0  0  0  0  0  0  0  2 V2000
  152.1043  144.5938  158.1234 C   0  0  0  0  0  0  0  0  0  0  0  0
  151.8133  143.2213  157.4939 C   0  0  0  0  0  0  0  0  0  0  0  0
  151.0228  142.2354  158.3899 C   0  0  1  0  0  0  0  0  0  0  0  0
  151.6372  142.1903  159.6627 O   0  0  0  0  0  0  0  0  0  0  0  0
  149.5255  142.5602  158.5062 C   0  0  0  0  0  0  0  0  0  0  0  0
  148.9267  141.8913  157.2703 C   0  0  0  0  0  0  0  0  0  0  0  0
  149.7467  140.7070  157.0579 N   0  0  0  0  0  0  0  0  0  0  0  0
  149.6521  139.9509  155.8723 C   0  0  0  0  0  0  0  0  0  0  0  0
  148.4452  139.9005  155.2444 N   0  0  0  0  0  0  0  0  0  0  0  0
  148.2500  139.2133  154.1100 C   0  0  0  0  0  0  0  0  0  0  0  0
  149.2215  138.5188  153.5098 N   0  3  0  0  0  0  0  0  0  0  0  0
  150.4389  138.5287  154.1090 C   0  0  0  0  0  0  0  0  0  0  0  0
  151.5979  137.8955  153.7118 N   0  0  0  0  0  0  0  0  0  0  0  0
  152.6129  138.1564  154.6161 C   0  0  0  0  0  0  0  0  0  0  0  0
  152.1267  138.9648  155.6129 C   0  0  0  0  0  0  0  0  0  0  0  0
  150.7413  139.2250  155.3080 C   0  0  0  0  0  0  0  0  0  0  0  0
  151.0090  140.8237  157.7759 C   0  0  0  0  0  0  0  0  0  0  0  0
  151.7204  137.3163  152.8932 H   0  0  0  0  0  0  0  0  0  0  0  0
  152.7048  145.2027  157.4476 H   0  0  0  0  0  0  0  0  0  0  0  0
  152.6599  144.4981  159.0563 H   0  0  0  0  0  0  0  0  0  0  0  0
  151.1903  145.1489  158.3308 H   0  0  0  0  0  0  0  0  0  0  0  0
  151.2788  143.3747  156.5557 H   0  0  0  0  0  0  0  0  0  0  0  0
  152.7649  142.7646  157.2182 H   0  0  0  0  0  0  0  0  0  0  0  0
  151.8461  143.0731  159.9278 H   0  0  0  0  0  0  0  0  0  0  0  0
  149.1103  142.0874  159.3981 H   0  0  0  0  0  0  0  0  0  0  0  0
  149.2946  143.6229  158.5672 H   0  0  0  0  0  0  0  0  0  0  0  0
  147.8782  141.6318  157.4193 H   0  0  0  0  0  0  0  0  0  0  0  0
  148.9987  142.5553  156.4079 H   0  0  0  0  0  0  0  0  0  0  0  0
  147.2781  139.2016  153.6387 H   0  0  0  0  0  0  0  0  0  0  0  0
  153.6013  137.7422  154.4783 H   0  0  0  0  0  0  0  0  0  0  0  0
  152.6764  139.3359  156.4650 H   0  0  0  0  0  0  0  0  0  0  0  0
  151.8719  140.6628  157.1287 H   0  0  0  0  0  0  0  0  0  0  0  0
  151.0226  140.0587  158.5535 H   0  0  0  0  0  0  0  0  0  0  0  0
  149.0618  137.9990  152.6469 H   0  0  0  0  0  0  0  0  0  0  0  0
  1  2  1  0  0  0  0
  1 19  1  0  0  0  0
  1 20  1  0  0  0  0
  1 21  1  0  0  0  0
  2  3  1  0  0  0  0
  2 22  1  0  0  0  0
  2 23  1  0  0  0  0
  3 17  1  0  0  0  0
  3  4  1  0  0  0  0
  3  5  1  0  0  0  0
  4 24  1  0  0  0  0
  5  6  1  0  0  0  0
  5 25  1  0  0  0  0
  5 26  1  0  0  0  0
  6  7  1  0  0  0  0
  6 27  1  0  0  0  0
  6 28  1  0  0  0  0
  7  8  1  0  0  0  0
  7 17  1  0  0  0  0
  8 16  1  0  0  0  0
  8  9  2  0  0  0  0
  9 10  1  0  0  0  0
 10 11  2  0  0  0  0
 10 29  1  0  0  0  0
 11 12  1  0  0  0  0
 11 34  1  0  0  0  0
 12 16  2  0  0  0  0
 12 13  1  0  0  0  0
 13 18  1  0  0  0  0
 13 14  1  0  0  0  0
 14 15  2  0  0  0  0
 14 30  1  0  0  0  0
 15 16  1  0  0  0  0
 15 31  1  0  0  0  0
 17 32  1  0  0  0  0
 17 33  1  0  0  0  0
M  CHG  1  11   1
M  END
> <s_m_source_file>
AV-unprocessed.smi

> <i_m_source_file_index>
11

> <i_lp_mmshare_version>
43012

> <i_f3d_flags>
0

> <s_epik_input>
W0NIM11bQ0gyXVtDQEBdMShbT0hdKVtDSDJdW0NIMl1OKFtDSDJdMSljKG5bY0hdbjIpYyhjMjMpW2NIXVtjSF1bbkhdMw==

> <s_epik_cmdline>
J2VwaWtfcHl0aG9uJywgJy1waCcsICc3LjAnLCAnLXRuJywgJzgnLCAnLW1hJywgJzIwMCcsICctbWV0YWxfYmluZGluZycsICctaW1hZScsICc8aW5maWxlLm1hZT4nLCAnLW9tYWUnLCAnPG91dGZpbGUubWFlPic=

> <r_lp_tautomer_probability>
1.75997e-05

> <r_epik_Ionization_Penalty>
1.53257

> <r_epik_Ionization_Penalty_Charging>
1.53255

> <r_epik_Ionization_Penalty_Neutral>
1.78556e-05

> <r_epik_State_Penalty>
1.6253

> <r_epik_Charging_Adjusted_Penalty>
3.15785

> <i_epik_Tot_Q>
1

> <i_epik_Tot_abs_Q>
1

> <r_epik_Metal_State_Penalty>
1.66891

> <b_epik_Metal_Only>
0

> <s_lp_Force_Field>
OPLS_2005

> <r_lp_Energy>
33.1489

> <b_lp_Chiralities_Consistent>
1

> <s_lp_Variant>
AV-unprocessed.smi:11-3

> <Gold.Version>
5.8.1

> <Gold.Id.Protein>
6NUR|6NUR_protein|mol2

> <Gold.PLP.Fitness>
40.4217

> <Gold.PLP.PLP>
-29.0448

> <Gold.PLP.part.hbond>
-3.2055

> <Gold.PLP.part.metal>
0.0000

> <Gold.PLP.part.buried>
-3.0957

> <Gold.PLP.part.nonpolar>
-23.3283

> <Gold.PLP.part.repulsive>
0.2478

> <Gold.PLP.ligand.clash>
0.0000

> <Gold.PLP.ligand.torsion>
0.3101

> <Gold.PLP.Chemscore.Hbond>
3.9200

> <Gold.PLP.Chemscore.CHOScore>
0.0000

> <Gold.PLP.Chemscore.Metal>
0.0000

> <Gold.Chemscore.Hbonds>
donor molecule, donor type, donor heavy atom, donor atom, acceptor molecule, acceptor atom, score
      L1  H    11    34       P1  7948  1.82
      L1  H    13    18       P1  7949  2.00

> <Gold.PLP.Chemscore.Internal.Correction>
0.2371

> <Gold.Rescore>
     Score         DG    S(hbond)    S(metal)    S(lipo)     H(rot)  DE(clash)    DE(int)     intcor
     13.97     -16.32       1.87        0.00      70.91       1.44       1.07       1.28       ----

> <Gold.Chemscore.Fitness>
13.9698

> <Gold.Chemscore.DG>
-16.3225

> <Gold.Chemscore.ZeroCoef>
-5.4800

> <Gold.Chemscore.Hbond>
1.8655

> <Gold.Chemscore.Metal>
0.0000

> <Gold.Chemscore.Lipo>
70.9085

> <Gold.Chemscore.Internal_Hbond>
0.0000

> <Gold.Chemscore.DEClash>
1.0684

> <Gold.Chemscore.DEInternal>
1.2843

> <Gold.Chemscore.Rot>
1.4392

> <Gold.Chemscore.Internal.Correction>
   9.000000E+99

> <Gold.Chemscore.Hbonds>
donor molecule, donor type, donor heavy atom, donor atom, acceptor molecule, acceptor atom, score
      L1  H    11    34       P1  7948  0.88
      L1  H    13    18       P1  7949  0.93

> <Gold.Chemscore.Hbond.Weighted>
-6.2306

> <Gold.Chemscore.Metal.Weighted>
-0.0000

> <Gold.Chemscore.Lipo.Weighted>
-8.2963

> <Gold.Chemscore.Internal_Hbond.Weighted>
0.0000

> <Gold.Chemscore.DEClash.Weighted>
1.0684

> <Gold.Chemscore.DEInternal.Weighted>
1.2843

> <Gold.Chemscore.Rot.Weighted>
3.6844

> <Gold.Chemscore.Internal.Correction.Weighted>
   9.000000E+99

> <Gold.Protein.RotatedTorsions>
[ 6907 6896 6895 6894 ] final   57.53 input  -60.11 | X-H torsion
[ 7974 7965 7964 7962 ] final   34.07 input  175.53 | X-H torsion
[ 8008 7997 7996 7995 ] final   92.52 input   59.86 | X-H torsion
[ 10167 10162 10161 10158 ] final   73.27 input  -65.29 | X-H torsion
[ 10718 10713 10712 10709 ] final -117.60 input   66.30 | X-H torsion
[ 10763 10752 10751 10750 ] final -146.38 input  -60.55 | X-H torsion
[ 11005 11000 10999 10996 ] final -155.87 input  -57.11 | X-H torsion

> <Gold.Protein.ActiveResidues>
 VAL166  LYS551  ARG553  GLY616  TRP617  ASP618  TYR619  PRO620  LYS621  CYS622 
 ASP623  PHE694  ASN695  SER759  ASP760  ASP761  ALA762  ILE779  LEU786  VAL792 
 PHE793  MET794  SER795  GLU796  ALA797  LYS798  CYS799  TRP800  GLU811  SER814 

> <Gold.Protein.RotatedAtoms>
  152.3739  134.6692  160.0166 H   0  0  0  0  0  0  0  0  0  0  0  0  # atno 6907 bound_to 6896
  151.6976  133.3305  159.3266 H   0  0  0  0  0  0  0  0  0  0  0  0  # atno 6908 bound_to 6896
  150.7695  134.6579  159.6368 H   0  0  0  0  0  0  0  0  0  0  0  0  # atno 6909 bound_to 6896
  146.1378  139.6316  142.9183 H   0  0  0  0  0  0  0  0  0  0  0  0  # atno 7974 bound_to 7965
  156.0363  140.3324  155.7194 H   0  0  0  0  0  0  0  0  0  0  0  0  # atno 8008 bound_to 7997
  155.5811  140.0637  157.2800 H   0  0  0  0  0  0  0  0  0  0  0  0  # atno 8009 bound_to 7997
  154.4374  140.1844  156.0966 H   0  0  0  0  0  0  0  0  0  0  0  0  # atno 8010 bound_to 7997
  140.0263  144.5501  150.7542 H   0  0  0  0  0  0  0  0  0  0  0  0  # atno 10167 bound_to 10162
  156.1045  130.6199  150.9185 H   0  0  0  0  0  0  0  0  0  0  0  0  # atno 10718 bound_to 10713
  154.8338  135.3388  154.6653 H   0  0  0  0  0  0  0  0  0  0  0  0  # atno 10763 bound_to 10752
  153.7270  135.6954  153.5003 H   0  0  0  0  0  0  0  0  0  0  0  0  # atno 10764 bound_to 10752
  153.2340  135.4407  155.0578 H   0  0  0  0  0  0  0  0  0  0  0  0  # atno 10765 bound_to 10752
  140.6817  134.4137  157.5226 H   0  0  0  0  0  0  0  0  0  0  0  0  # atno 11005 bound_to 11000
  145.5116  141.0435  143.2485 LP  0  0  0  0  0  0  0  0  0  0  0  0  # atno 17320 bound_to 7965
  144.7759  139.6632  143.7175 LP  0  0  0  0  0  0  0  0  0  0  0  0  # atno 17321 bound_to 7965
  140.7321  143.2702  151.3914 LP  0  0  0  0  0  0  0  0  0  0  0  0  # atno 17342 bound_to 10162
  139.6106  144.1107  152.2294 LP  0  0  0  0  0  0  0  0  0  0  0  0  # atno 17343 bound_to 10162
  157.6220  131.0929  150.8604 LP  0  0  0  0  0  0  0  0  0  0  0  0  # atno 17370 bound_to 10713
  156.8725  130.5151  149.5296 LP  0  0  0  0  0  0  0  0  0  0  0  0  # atno 17371 bound_to 10713
  139.8950  134.8694  156.2153 LP  0  0  0  0  0  0  0  0  0  0  0  0  # atno 17394 bound_to 11000
  141.0312  133.6988  156.1433 LP  0  0  0  0  0  0  0  0  0  0  0  0  # atno 17395 bound_to 11000

$$$$
