AV-unprocessed.smi:2302|AV-procd|sdf|9241|dock9
  -GOLD-   2272012463D 1   1.00000     0.00000
 Structure written by MMmdl.
 39 40  0  0  0  0  0  0  0  0  1 V2000
  146.0974  129.0987  152.5517 C   0  0  0  0  0  0  0  0  0  0  0  0
  146.0621  130.5626  152.1658 C   0  0  0  0  0  0  0  0  0  0  0  0
  145.0027  131.0842  151.3977 C   0  0  0  0  0  0  0  0  0  0  0  0
  145.0328  132.4513  151.0692 C   0  0  0  0  0  0  0  0  0  0  0  0
  146.1131  133.2349  151.5189 C   0  0  0  0  0  0  0  0  0  0  0  0
  147.1370  132.6334  152.2851 C   0  0  0  0  0  0  0  0  0  0  0  0
  148.1829  133.5071  152.6855 N   0  0  0  0  0  0  0  0  0  0  0  0
  149.2063  133.2507  153.5193 C   0  0  0  0  0  0  0  0  0  0  0  0
  149.3927  132.1873  154.1117 O   0  0  0  0  0  0  0  0  0  0  0  0
  150.0166  134.3131  153.6328 N   0  0  0  0  0  0  0  0  0  0  0  0
  151.2139  134.3720  154.4673 C   0  0  0  0  0  0  0  0  0  0  0  0
  151.7147  135.8121  154.6885 C   0  0  1  0  0  0  0  0  0  0  0  0
  152.7744  135.9353  155.8048 C   0  0  0  0  0  0  0  0  0  0  0  0
  153.2424  137.3068  155.9545 N   0  0  0  0  0  0  0  0  0  0  0  0
  154.2400  137.4227  157.0071 C   0  0  0  0  0  0  0  0  0  0  0  0
  153.7489  137.7911  154.6772 C   0  0  0  0  0  0  0  0  0  0  0  0
  152.6939  137.6687  153.5647 C   0  0  0  0  0  0  0  0  0  0  0  0
  152.2521  136.3182  153.4678 O   0  0  0  0  0  0  0  0  0  0  0  0
  147.0987  131.3136  152.5959 N   0  0  0  0  0  0  0  0  0  0  0  0
  145.1321  128.6223  152.3787 H   0  0  0  0  0  0  0  0  0  0  0  0
  146.3459  128.9860  153.6075 H   0  0  0  0  0  0  0  0  0  0  0  0
  146.8496  128.5727  151.9632 H   0  0  0  0  0  0  0  0  0  0  0  0
  144.1887  130.4559  151.0670 H   0  0  0  0  0  0  0  0  0  0  0  0
  144.2412  132.8923  150.4816 H   0  0  0  0  0  0  0  0  0  0  0  0
  146.1516  134.2866  151.2748 H   0  0  0  0  0  0  0  0  0  0  0  0
  148.1548  134.4310  152.2808 H   0  0  0  0  0  0  0  0  0  0  0  0
  149.7866  135.1450  153.1095 H   0  0  0  0  0  0  0  0  0  0  0  0
  151.0409  133.8813  155.4265 H   0  0  0  0  0  0  0  0  0  0  0  0
  151.9910  133.7923  153.9687 H   0  0  0  0  0  0  0  0  0  0  0  0
  150.8520  136.4256  154.9547 H   0  0  0  0  0  0  0  0  0  0  0  0
  152.3506  135.5867  156.7473 H   0  0  0  0  0  0  0  0  0  0  0  0
  153.6221  135.2846  155.5844 H   0  0  0  0  0  0  0  0  0  0  0  0
  154.5521  138.4603  157.1301 H   0  0  0  0  0  0  0  0  0  0  0  0
  155.1245  136.8260  156.7802 H   0  0  0  0  0  0  0  0  0  0  0  0
  153.8357  137.0830  157.9611 H   0  0  0  0  0  0  0  0  0  0  0  0
  154.0578  138.8327  154.7718 H   0  0  0  0  0  0  0  0  0  0  0  0
  154.6381  137.2257  154.3936 H   0  0  0  0  0  0  0  0  0  0  0  0
  151.8437  138.3223  153.7653 H   0  0  0  0  0  0  0  0  0  0  0  0
  153.1151  137.9754  152.6072 H   0  0  0  0  0  0  0  0  0  0  0  0
  1  2  1  0  0  0  0
  1 20  1  0  0  0  0
  1 21  1  0  0  0  0
  1 22  1  0  0  0  0
  2 19  1  0  0  0  0
  2  3  2  0  0  0  0
  3  4  1  0  0  0  0
  3 23  1  0  0  0  0
  4  5  2  0  0  0  0
  4 24  1  0  0  0  0
  5  6  1  0  0  0  0
  5 25  1  0  0  0  0
  6  7  1  0  0  0  0
  6 19  2  0  0  0  0
  7  8  1  0  0  0  0
  7 26  1  0  0  0  0
  8  9  2  0  0  0  0
  8 10  1  0  0  0  0
 10 11  1  0  0  0  0
 10 27  1  0  0  0  0
 11 12  1  0  0  0  0
 11 28  1  0  0  0  0
 11 29  1  0  0  0  0
 12 18  1  0  0  0  0
 12 13  1  0  0  0  0
 12 30  1  0  0  0  0
 13 14  1  0  0  0  0
 13 31  1  0  0  0  0
 13 32  1  0  0  0  0
 14 15  1  0  0  0  0
 14 16  1  0  0  0  0
 15 33  1  0  0  0  0
 15 34  1  0  0  0  0
 15 35  1  0  0  0  0
 16 17  1  0  0  0  0
 16 36  1  0  0  0  0
 16 37  1  0  0  0  0
 17 18  1  0  0  0  0
 17 38  1  0  0  0  0
 17 39  1  0  0  0  0
M  END
> <s_m_source_file>
AV-unprocessed.smi

> <i_m_source_file_index>
2302

> <i_lp_mmshare_version>
43012

> <i_f3d_flags>
0

> <s_epik_input>
W0NIM11jMVtjSF1bY0hdW2NIXWMobjEpW05IXUMoPU8pW05IXVtDSDJdW0NAQEhdMltDSDJdTihbQ0gzXSlbQ0gyXVtDSDJdTzI=

> <s_epik_cmdline>
J2VwaWtfcHl0aG9uJywgJy1waCcsICc3LjAnLCAnLXRuJywgJzgnLCAnLW1hJywgJzIwMCcsICctbWV0YWxfYmluZGluZycsICctaW1hZScsICc8aW5maWxlLm1hZT4nLCAnLW9tYWUnLCAnPG91dGZpbGUubWFlPic=

> <r_epik_Ionization_Penalty>
0.729465

> <r_epik_Ionization_Penalty_Charging>
0

> <r_epik_Ionization_Penalty_Neutral>
0.729465

> <r_epik_State_Penalty>
0.754525

> <r_epik_Charging_Adjusted_Penalty>
0.754525

> <i_epik_Tot_Q>
0

> <i_epik_Tot_abs_Q>
0

> <r_epik_Metal_State_Penalty>
0.754521

> <b_epik_Metal_Only>
0

> <s_lp_Force_Field>
OPLS_2005

> <r_lp_Energy>
21.4946

> <b_lp_Chiralities_Consistent>
1

> <s_lp_Variant>
AV-unprocessed.smi:2302-6

> <Gold.Version>
5.8.1

> <Gold.Id.Protein>
6NUR|6NUR_protein|mol2

> <Gold.PLP.Fitness>
41.5455

> <Gold.PLP.PLP>
-32.9013

> <Gold.PLP.part.hbond>
-3.0000

> <Gold.PLP.part.metal>
0.0000

> <Gold.PLP.part.buried>
-6.2894

> <Gold.PLP.part.nonpolar>
-24.8791

> <Gold.PLP.part.repulsive>
0.9559

> <Gold.PLP.ligand.clash>
0.0000

> <Gold.PLP.ligand.torsion>
0.1792

> <Gold.PLP.Chemscore.Hbond>
3.0000

> <Gold.PLP.Chemscore.CHOScore>
0.0000

> <Gold.PLP.Chemscore.Metal>
0.0000

> <Gold.Chemscore.Hbonds>
donor molecule, donor type, donor heavy atom, donor atom, acceptor molecule, acceptor atom, score
      L1  H     7    26       P1  7948  0.85

> <Gold.PLP.Chemscore.Internal.Correction>
0.0027

> <Gold.Rescore>
     Score         DG    S(hbond)    S(metal)    S(lipo)     H(rot)  DE(clash)    DE(int)     intcor
     16.49     -18.05       2.21        0.00      71.85       1.25       0.05       1.52       ----

> <Gold.Chemscore.Fitness>
16.4869

> <Gold.Chemscore.DG>
-18.0509

> <Gold.Chemscore.ZeroCoef>
-5.4800

> <Gold.Chemscore.Hbond>
2.2054

> <Gold.Chemscore.Metal>
0.0000

> <Gold.Chemscore.Lipo>
71.8500

> <Gold.Chemscore.Internal_Hbond>
0.0000

> <Gold.Chemscore.DEClash>
0.0480

> <Gold.Chemscore.DEInternal>
1.5160

> <Gold.Chemscore.Rot>
1.2506

> <Gold.Chemscore.Internal.Correction>
   9.000000E+99

> <Gold.Chemscore.Hbonds>
donor molecule, donor type, donor heavy atom, donor atom, acceptor molecule, acceptor atom, score
      L1  H     7    26       P1  7948  0.14

> <Gold.Chemscore.Hbond.Weighted>
-7.3659

> <Gold.Chemscore.Metal.Weighted>
-0.0000

> <Gold.Chemscore.Lipo.Weighted>
-8.4065

> <Gold.Chemscore.Internal_Hbond.Weighted>
0.0000

> <Gold.Chemscore.DEClash.Weighted>
0.0480

> <Gold.Chemscore.DEInternal.Weighted>
1.5160

> <Gold.Chemscore.Rot.Weighted>
3.2015

> <Gold.Chemscore.Internal.Correction.Weighted>
   9.000000E+99

> <Gold.Protein.RotatedTorsions>
[ 6907 6896 6895 6894 ] final    0.51 input  -60.11 | X-H torsion
[ 7974 7965 7964 7962 ] final -165.80 input  175.53 | X-H torsion
[ 8008 7997 7996 7995 ] final   23.65 input   59.86 | X-H torsion
[ 10167 10162 10161 10158 ] final -171.22 input  -65.29 | X-H torsion
[ 10718 10713 10712 10709 ] final  -14.96 input   66.30 | X-H torsion
[ 10763 10752 10751 10750 ] final  159.66 input  -60.55 | X-H torsion
[ 11005 11000 10999 10996 ] final  150.71 input  -57.11 | X-H torsion

> <Gold.Protein.ActiveResidues>
 VAL166  LYS551  ARG553  GLY616  TRP617  ASP618  TYR619  PRO620  LYS621  CYS622 
 ASP623  PHE694  ASN695  SER759  ASP760  ASP761  ALA762  ILE779  LEU786  VAL792 
 PHE793  MET794  SER795  GLU796  ALA797  LYS798  CYS799  TRP800  GLU811  SER814 

> <Gold.Protein.RotatedAtoms>
  151.5776  135.1060  160.0009 H   0  0  0  0  0  0  0  0  0  0  0  0  # atno 6907 bound_to 6896
  152.4370  133.7374  159.6632 H   0  0  0  0  0  0  0  0  0  0  0  0  # atno 6908 bound_to 6896
  150.8269  133.8087  159.3138 H   0  0  0  0  0  0  0  0  0  0  0  0  # atno 6909 bound_to 6896
  144.7261  140.2760  143.6243 H   0  0  0  0  0  0  0  0  0  0  0  0  # atno 7974 bound_to 7965
  154.9842  140.3106  155.4933 H   0  0  0  0  0  0  0  0  0  0  0  0  # atno 8008 bound_to 7997
  156.2949  140.2261  156.4882 H   0  0  0  0  0  0  0  0  0  0  0  0  # atno 8009 bound_to 7997
  154.7762  140.0449  157.1079 H   0  0  0  0  0  0  0  0  0  0  0  0  # atno 8010 bound_to 7997
  139.5815  144.1412  152.1521 H   0  0  0  0  0  0  0  0  0  0  0  0  # atno 10167 bound_to 10162
  156.6085  130.4843  149.6211 H   0  0  0  0  0  0  0  0  0  0  0  0  # atno 10718 bound_to 10713
  154.2353  135.2777  155.2874 H   0  0  0  0  0  0  0  0  0  0  0  0  # atno 10763 bound_to 10752
  154.5590  135.5652  153.6993 H   0  0  0  0  0  0  0  0  0  0  0  0  # atno 10764 bound_to 10752
  153.0011  135.6293  154.2495 H   0  0  0  0  0  0  0  0  0  0  0  0  # atno 10765 bound_to 10752
  140.1155  134.8897  157.1997 H   0  0  0  0  0  0  0  0  0  0  0  0  # atno 11005 bound_to 11000
  145.7996  139.1959  143.2056 LP  0  0  0  0  0  0  0  0  0  0  0  0  # atno 17320 bound_to 7965
  146.0688  140.7892  142.9698 LP  0  0  0  0  0  0  0  0  0  0  0  0  # atno 17321 bound_to 7965
  140.0966  144.5575  150.7017 LP  0  0  0  0  0  0  0  0  0  0  0  0  # atno 17342 bound_to 10162
  140.7093  143.2492  151.4631 LP  0  0  0  0  0  0  0  0  0  0  0  0  # atno 17343 bound_to 10162
  156.2409  130.6851  151.1555 LP  0  0  0  0  0  0  0  0  0  0  0  0  # atno 17370 bound_to 10713
  157.7260  131.0649  150.5926 LP  0  0  0  0  0  0  0  0  0  0  0  0  # atno 17371 bound_to 10713
  140.3034  134.3105  155.7284 LP  0  0  0  0  0  0  0  0  0  0  0  0  # atno 17394 bound_to 11000
  141.2140  133.7606  156.9674 LP  0  0  0  0  0  0  0  0  0  0  0  0  # atno 17395 bound_to 11000

$$$$
