AV-unprocessed.smi:3284|AV-procd|sdf|12576|dock10
  -GOLD-   2272018503D 1   1.00000     0.00000
 Structure written by MMmdl.
 45 46  0  0  0  0  0  0  0  0  3 V2000
  147.6729  138.3742  154.9051 C   0  0  0  0  0  0  0  0  0  0  0  0
  147.2106  139.7726  155.2789 C   0  0  0  0  0  0  0  0  0  0  0  0
  146.5562  139.9957  156.4358 C   0  0  0  0  0  0  0  0  0  0  0  0
  146.0109  141.3423  156.8777 C   0  0  0  0  0  0  0  0  0  0  0  0
  146.4328  142.4982  155.9557 C   0  0  0  0  0  0  0  0  0  0  0  0
  146.4700  142.0589  154.4816 C   0  0  1  0  0  0  0  0  0  0  0  0
  146.6606  143.2505  153.5274 C   0  0  0  0  0  0  0  0  0  0  0  0
  147.4827  140.8978  154.2715 C   0  0  1  0  0  0  0  0  0  0  0  0
  148.9604  141.3688  154.3044 C   0  0  0  0  0  0  0  0  0  0  0  0
  149.3570  141.9232  155.6137 N   0  3  0  0  0  0  0  0  0  0  0  0
  150.4692  141.2005  156.2637 C   0  0  0  0  0  0  0  0  0  0  0  0
  150.4714  141.3995  157.7880 C   0  0  0  0  0  0  0  0  0  0  0  0
  151.2628  142.5901  158.2447 C   0  0  0  0  0  0  0  0  0  0  0  0
  151.1159  143.8373  157.7807 N   0  3  0  0  0  0  0  0  0  0  0  0
  151.9909  144.6856  158.4028 C   0  0  0  0  0  0  0  0  0  0  0  0
  152.7084  143.9218  159.2854 C   0  0  0  0  0  0  0  0  0  0  0  0
  152.2402  142.6383  159.1667 N   0  0  0  0  0  0  0  0  0  0  0  0
  152.7095  141.4722  159.9178 C   0  0  0  0  0  0  0  0  0  0  0  0
  147.4112  138.1451  153.8720 H   0  0  0  0  0  0  0  0  0  0  0  0
  147.1995  137.6241  155.5397 H   0  0  0  0  0  0  0  0  0  0  0  0
  148.7492  138.2668  155.0281 H   0  0  0  0  0  0  0  0  0  0  0  0
  146.3641  139.1719  157.1079 H   0  0  0  0  0  0  0  0  0  0  0  0
  144.9233  141.2637  156.8927 H   0  0  0  0  0  0  0  0  0  0  0  0
  146.3255  141.5446  157.9018 H   0  0  0  0  0  0  0  0  0  0  0  0
  145.7442  143.3335  156.0885 H   0  0  0  0  0  0  0  0  0  0  0  0
  147.4137  142.8673  156.2555 H   0  0  0  0  0  0  0  0  0  0  0  0
  145.4824  141.6554  154.2503 H   0  0  0  0  0  0  0  0  0  0  0  0
  147.5525  143.8291  153.7673 H   0  0  0  0  0  0  0  0  0  0  0  0
  145.8119  143.9323  153.5894 H   0  0  0  0  0  0  0  0  0  0  0  0
  146.7375  142.9189  152.4914 H   0  0  0  0  0  0  0  0  0  0  0  0
  147.2844  140.4931  153.2778 H   0  0  0  0  0  0  0  0  0  0  0  0
  149.6347  140.5394  154.0961 H   0  0  0  0  0  0  0  0  0  0  0  0
  149.1329  142.1211  153.5342 H   0  0  0  0  0  0  0  0  0  0  0  0
  149.6357  142.8843  155.4751 H   0  0  0  0  0  0  0  0  0  0  0  0
  150.4048  140.1384  156.0239 H   0  0  0  0  0  0  0  0  0  0  0  0
  151.4111  141.5640  155.8514 H   0  0  0  0  0  0  0  0  0  0  0  0
  149.4527  141.5525  158.1461 H   0  0  0  0  0  0  0  0  0  0  0  0
  150.8537  140.5152  158.2977 H   0  0  0  0  0  0  0  0  0  0  0  0
  152.0358  145.7415  158.1777 H   0  0  0  0  0  0  0  0  0  0  0  0
  153.4966  144.1921  159.9737 H   0  0  0  0  0  0  0  0  0  0  0  0
  153.4868  141.7789  160.6186 H   0  0  0  0  0  0  0  0  0  0  0  0
  153.1200  140.7373  159.2263 H   0  0  0  0  0  0  0  0  0  0  0  0
  151.8780  141.0385  160.4740 H   0  0  0  0  0  0  0  0  0  0  0  0
  148.5525  141.9038  156.2238 H   0  0  0  0  0  0  0  0  0  0  0  0
  150.4450  144.1157  157.0752 H   0  0  0  0  0  0  0  0  0  0  0  0
  1  2  1  0  0  0  0
  1 19  1  0  0  0  0
  1 20  1  0  0  0  0
  1 21  1  0  0  0  0
  2  8  1  0  0  0  0
  2  3  2  0  0  0  0
  3  4  1  0  0  0  0
  3 22  1  0  0  0  0
  4  5  1  0  0  0  0
  4 23  1  0  0  0  0
  4 24  1  0  0  0  0
  5  6  1  0  0  0  0
  5 25  1  0  0  0  0
  5 26  1  0  0  0  0
  6  7  1  0  0  0  0
  6  8  1  0  0  0  0
  6 27  1  0  0  0  0
  7 28  1  0  0  0  0
  7 29  1  0  0  0  0
  7 30  1  0  0  0  0
  8  9  1  0  0  0  0
  8 31  1  0  0  0  0
  9 10  1  0  0  0  0
  9 32  1  0  0  0  0
  9 33  1  0  0  0  0
 10 11  1  0  0  0  0
 10 34  1  0  0  0  0
 10 44  1  0  0  0  0
 11 12  1  0  0  0  0
 11 35  1  0  0  0  0
 11 36  1  0  0  0  0
 12 13  1  0  0  0  0
 12 37  1  0  0  0  0
 12 38  1  0  0  0  0
 13 17  1  0  0  0  0
 13 14  2  0  0  0  0
 14 15  1  0  0  0  0
 14 45  1  0  0  0  0
 15 16  2  0  0  0  0
 15 39  1  0  0  0  0
 16 17  1  0  0  0  0
 16 40  1  0  0  0  0
 17 18  1  0  0  0  0
 18 41  1  0  0  0  0
 18 42  1  0  0  0  0
 18 43  1  0  0  0  0
M  CHG  1  10   1
M  CHG  1  14   1
M  END
> <s_m_source_file>
AV-unprocessed.smi

> <i_m_source_file_index>
3284

> <i_lp_mmshare_version>
43012

> <i_f3d_flags>
0

> <s_epik_input>
W0NIM11DMT1bQ0hdW0NIMl1bQ0gyXVtDQEBIXShbQ0gzXSlbQ0BIXTFbQ0gyXVtOSF1bQ0gyXVtDSDJdYzJuW2NIXVtjSF1uMltDSDNd

> <s_epik_cmdline>
J2VwaWtfcHl0aG9uJywgJy1waCcsICc3LjAnLCAnLXRuJywgJzgnLCAnLW1hJywgJzIwMCcsICctbWV0YWxfYmluZGluZycsICctaW1hZScsICc8aW5maWxlLm1hZT4nLCAnLW9tYWUnLCAnPG91dGZpbGUubWFlPic=

> <r_lp_tautomer_probability>
1

> <r_epik_Ionization_Penalty>
0.892846

> <r_epik_Ionization_Penalty_Charging>
0.00275802

> <r_epik_Ionization_Penalty_Neutral>
0.890088

> <r_epik_State_Penalty>
0.485211

> <r_epik_Charging_Adjusted_Penalty>
0.487969

> <i_epik_Tot_Q>
2

> <i_epik_Tot_abs_Q>
2

> <r_epik_Metal_State_Penalty>
4.22898

> <b_epik_Metal_Only>
0

> <s_lp_Force_Field>
OPLS_2005

> <r_lp_Energy>
25.5845

> <b_lp_Chiralities_Consistent>
1

> <s_lp_Variant>
AV-unprocessed.smi:3284-5

> <Gold.Version>
5.8.1

> <Gold.Id.Protein>
6NUR|6NUR_protein|mol2

> <Gold.PLP.Fitness>
49.0045

> <Gold.PLP.PLP>
-38.4685

> <Gold.PLP.part.hbond>
-2.0000

> <Gold.PLP.part.metal>
0.0000

> <Gold.PLP.part.buried>
-4.3694

> <Gold.PLP.part.nonpolar>
-32.2423

> <Gold.PLP.part.repulsive>
0.1949

> <Gold.PLP.ligand.clash>
0.0079

> <Gold.PLP.ligand.torsion>
0.7409

> <Gold.PLP.Chemscore.Hbond>
4.0000

> <Gold.PLP.Chemscore.CHOScore>
0.0000

> <Gold.PLP.Chemscore.Metal>
0.0000

> <Gold.Chemscore.Hbonds>
donor molecule, donor type, donor heavy atom, donor atom, acceptor molecule, acceptor atom, score
      L1  H    10    34       P1  8028  1.60
      L1  H    14    45       P1  8028  1.33

> <Gold.PLP.Chemscore.Internal.Correction>
0.0258

> <Gold.Rescore>
     Score         DG    S(hbond)    S(metal)    S(lipo)     H(rot)  DE(clash)    DE(int)     intcor
     16.55     -17.58       1.93        0.00      85.55       1.70       0.20       0.83       ----

> <Gold.Chemscore.Fitness>
16.5507

> <Gold.Chemscore.DG>
-17.5830

> <Gold.Chemscore.ZeroCoef>
-5.4800

> <Gold.Chemscore.Hbond>
1.9298

> <Gold.Chemscore.Metal>
0.0000

> <Gold.Chemscore.Lipo>
85.5452

> <Gold.Chemscore.Internal_Hbond>
0.0000

> <Gold.Chemscore.DEClash>
0.1986

> <Gold.Chemscore.DEInternal>
0.8338

> <Gold.Chemscore.Rot>
1.6997

> <Gold.Chemscore.Internal.Correction>
   9.000000E+99

> <Gold.Chemscore.Hbonds>
donor molecule, donor type, donor heavy atom, donor atom, acceptor molecule, acceptor atom, score
      L1  H    10    34       P1  8028  0.77
      L1  H    14    45       P1  8028  0.64

> <Gold.Chemscore.Hbond.Weighted>
-6.4455

> <Gold.Chemscore.Metal.Weighted>
-0.0000

> <Gold.Chemscore.Lipo.Weighted>
-10.0088

> <Gold.Chemscore.Internal_Hbond.Weighted>
0.0000

> <Gold.Chemscore.DEClash.Weighted>
0.1986

> <Gold.Chemscore.DEInternal.Weighted>
0.8338

> <Gold.Chemscore.Rot.Weighted>
4.3512

> <Gold.Chemscore.Internal.Correction.Weighted>
   9.000000E+99

> <Gold.Protein.RotatedTorsions>
[ 6907 6896 6895 6894 ] final  174.76 input  -60.11 | X-H torsion
[ 7974 7965 7964 7962 ] final  103.49 input  175.53 | X-H torsion
[ 8008 7997 7996 7995 ] final  -29.57 input   59.86 | X-H torsion
[ 10167 10162 10161 10158 ] final -174.95 input  -65.29 | X-H torsion
[ 10718 10713 10712 10709 ] final  152.68 input   66.30 | X-H torsion
[ 10763 10752 10751 10750 ] final -174.86 input  -60.55 | X-H torsion
[ 11005 11000 10999 10996 ] final  100.22 input  -57.11 | X-H torsion

> <Gold.Protein.ActiveResidues>
 VAL166  LYS551  ARG553  GLY616  TRP617  ASP618  TYR619  PRO620  LYS621  CYS622 
 ASP623  PHE694  ASN695  SER759  ASP760  ASP761  ALA762  ILE779  LEU786  VAL792 
 PHE793  MET794  SER795  GLU796  ALA797  LYS798  CYS799  TRP800  GLU811  SER814 

> <Gold.Protein.RotatedAtoms>
  151.7471  133.3325  159.3381 H   0  0  0  0  0  0  0  0  0  0  0  0  # atno 6907 bound_to 6896
  150.7550  134.6225  159.6153 H   0  0  0  0  0  0  0  0  0  0  0  0  # atno 6908 bound_to 6896
  152.3492  134.7030  160.0293 H   0  0  0  0  0  0  0  0  0  0  0  0  # atno 6909 bound_to 6896
  145.3452  139.2452  143.3588 H   0  0  0  0  0  0  0  0  0  0  0  0  # atno 7974 bound_to 7965
  154.4285  140.1815  156.1268 H   0  0  0  0  0  0  0  0  0  0  0  0  # atno 8008 bound_to 7997
  156.0099  140.3351  155.6905 H   0  0  0  0  0  0  0  0  0  0  0  0  # atno 8009 bound_to 7997
  155.6125  140.0651  157.2692 H   0  0  0  0  0  0  0  0  0  0  0  0  # atno 8010 bound_to 7997
  139.5607  144.1878  152.1233 H   0  0  0  0  0  0  0  0  0  0  0  0  # atno 10167 bound_to 10162
  157.2547  131.0786  151.1706 H   0  0  0  0  0  0  0  0  0  0  0  0  # atno 10718 bound_to 10713
  154.5912  135.2845  155.0633 H   0  0  0  0  0  0  0  0  0  0  0  0  # atno 10763 bound_to 10752
  154.1933  135.6437  153.5070 H   0  0  0  0  0  0  0  0  0  0  0  0  # atno 10764 bound_to 10752
  153.0122  135.5451  154.6599 H   0  0  0  0  0  0  0  0  0  0  0  0  # atno 10765 bound_to 10752
  139.8771  134.9130  156.4723 H   0  0  0  0  0  0  0  0  0  0  0  0  # atno 11005 bound_to 11000
  146.2991  140.4057  142.8711 LP  0  0  0  0  0  0  0  0  0  0  0  0  # atno 17320 bound_to 7965
  144.8760  140.7336  143.6017 LP  0  0  0  0  0  0  0  0  0  0  0  0  # atno 17321 bound_to 7965
  140.1390  144.5219  150.6755 LP  0  0  0  0  0  0  0  0  0  0  0  0  # atno 17342 bound_to 10162
  140.6886  143.2363  151.5193 LP  0  0  0  0  0  0  0  0  0  0  0  0  # atno 17343 bound_to 10162
  157.3240  130.6951  149.6286 LP  0  0  0  0  0  0  0  0  0  0  0  0  # atno 17370 bound_to 10713
  155.9665  130.4327  150.4974 LP  0  0  0  0  0  0  0  0  0  0  0  0  # atno 17371 bound_to 10713
  140.8787  133.7934  155.9443 LP  0  0  0  0  0  0  0  0  0  0  0  0  # atno 17394 bound_to 11000
  140.8877  134.2534  157.5111 LP  0  0  0  0  0  0  0  0  0  0  0  0  # atno 17395 bound_to 11000

$$$$
