AV-unprocessed.smi:21|AV-procd|sdf|127|dock10
  -GOLD-   2262015313D 1   1.00000     0.00000
 Structure written by MMmdl.
 62 65  0  0  0  0  0  0  0  0  2 V2000
  148.8412  126.4618  150.4335 C   0  0  0  0  0  0  0  0  0  0  0  0
  148.8956  127.3249  151.5581 O   0  0  0  0  0  0  0  0  0  0  0  0
  147.6395  127.5161  152.1960 C   0  0  1  0  0  0  0  0  0  0  0  0
  147.8634  128.2319  153.5219 C   0  0  0  0  0  0  0  0  0  0  0  0
  147.9981  129.7121  153.1379 C   0  0  2  0  0  0  0  0  0  0  0  0
  147.5977  130.6846  154.2776 C   0  0  0  0  0  0  0  0  0  0  0  0
  148.4200  131.8939  154.3143 N   0  0  0  0  0  0  0  0  0  0  0  0
  148.5133  132.6974  153.0956 C   0  0  0  0  0  0  0  0  0  0  0  0
  148.8004  132.4497  155.5038 C   0  0  0  0  0  0  0  0  0  0  0  0
  149.8449  133.3227  155.4987 N   0  0  0  0  0  0  0  0  0  0  0  0
  150.2576  133.9129  156.6227 C   0  0  0  0  0  0  0  0  0  0  0  0
  149.7754  133.7793  157.8570 N   0  0  0  0  0  0  0  0  0  0  0  0
  148.7328  132.9028  157.8839 C   0  0  0  0  0  0  0  0  0  0  0  0
  148.1871  132.1954  156.7719 C   0  0  0  0  0  0  0  0  0  0  0  0
  147.1398  131.3907  157.2147 N   0  0  0  0  0  0  0  0  0  0  0  0
  147.0677  131.6147  158.4974 C   0  0  0  0  0  0  0  0  0  0  0  0
  147.9815  132.5203  158.9802 N   0  0  0  0  0  0  0  0  0  0  0  0
  148.1283  132.9659  160.3538 C   0  0  0  0  0  0  0  0  0  0  0  0
  146.8705  133.6783  160.9193 C   0  0  1  0  0  0  0  0  0  0  0  0
  146.0194  132.7440  161.8175 C   0  0  0  0  0  0  0  0  0  0  0  0
  145.6460  131.5552  161.1507 O   0  0  0  0  0  0  0  0  0  0  0  0
  147.2794  134.9681  161.6789 C   0  0  2  0  0  0  0  0  0  0  0  0
  146.1311  135.7325  162.3189 C   0  0  0  0  0  0  0  0  0  0  0  0
  146.7354  137.1148  162.5387 C   0  0  0  0  0  0  0  0  0  0  0  0
  147.6731  137.2988  161.4854 O   0  0  0  0  0  0  0  0  0  0  0  0
  147.8732  136.0710  160.7934 C   0  0  0  0  0  0  0  0  0  0  0  0
  147.2491  129.8678  151.8568 N   0  3  2  0  0  0  0  0  0  0  0  0
  146.1941  130.9058  151.7903 C   0  0  0  0  0  0  0  0  0  0  0  0
  146.7844  128.5289  151.4294 C   0  0  0  0  0  0  0  0  0  0  0  0
  147.1297  126.5626  152.3461 H   0  0  0  0  0  0  0  0  0  0  0  0
  149.0401  129.8887  152.8704 H   0  0  0  0  0  0  0  0  0  0  0  0
  149.8338  126.3782  149.9916 H   0  0  0  0  0  0  0  0  0  0  0  0
  148.1646  126.8365  149.6654 H   0  0  0  0  0  0  0  0  0  0  0  0
  148.5195  125.4607  150.7232 H   0  0  0  0  0  0  0  0  0  0  0  0
  146.9869  128.0900  154.1558 H   0  0  0  0  0  0  0  0  0  0  0  0
  148.7295  127.8548  154.0672 H   0  0  0  0  0  0  0  0  0  0  0  0
  146.5510  130.9735  154.2166 H   0  0  0  0  0  0  0  0  0  0  0  0
  147.6892  130.1727  155.2358 H   0  0  0  0  0  0  0  0  0  0  0  0
  149.5344  133.0489  152.9427 H   0  0  0  0  0  0  0  0  0  0  0  0
  147.8532  133.5637  153.1518 H   0  0  0  0  0  0  0  0  0  0  0  0
  148.2314  132.1202  152.2150 H   0  0  0  0  0  0  0  0  0  0  0  0
  151.0920  134.5904  156.5167 H   0  0  0  0  0  0  0  0  0  0  0  0
  146.3360  131.1308  159.1281 H   0  0  0  0  0  0  0  0  0  0  0  0
  148.3824  132.1052  160.9736 H   0  0  0  0  0  0  0  0  0  0  0  0
  148.9937  133.6278  160.3796 H   0  0  0  0  0  0  0  0  0  0  0  0
  146.2486  133.9891  160.0781 H   0  0  0  0  0  0  0  0  0  0  0  0
  146.5531  132.4964  162.7355 H   0  0  0  0  0  0  0  0  0  0  0  0
  145.0893  133.2237  162.1172 H   0  0  0  0  0  0  0  0  0  0  0  0
  146.3866  130.9681  161.1489 H   0  0  0  0  0  0  0  0  0  0  0  0
  148.0047  134.7185  162.4552 H   0  0  0  0  0  0  0  0  0  0  0  0
  145.2870  135.7992  161.6306 H   0  0  0  0  0  0  0  0  0  0  0  0
  145.7779  135.2915  163.2510 H   0  0  0  0  0  0  0  0  0  0  0  0
  145.9817  137.9025  162.5449 H   0  0  0  0  0  0  0  0  0  0  0  0
  147.2705  137.1498  163.4885 H   0  0  0  0  0  0  0  0  0  0  0  0
  148.9316  135.9155  160.5836 H   0  0  0  0  0  0  0  0  0  0  0  0
  147.3452  136.1275  159.8404 H   0  0  0  0  0  0  0  0  0  0  0  0
  145.4034  130.7215  152.5188 H   0  0  0  0  0  0  0  0  0  0  0  0
  145.7406  130.9135  150.7989 H   0  0  0  0  0  0  0  0  0  0  0  0
  146.6098  131.8989  151.9615 H   0  0  0  0  0  0  0  0  0  0  0  0
  146.8322  128.4154  150.3470 H   0  0  0  0  0  0  0  0  0  0  0  0
  145.7419  128.3999  151.7251 H   0  0  0  0  0  0  0  0  0  0  0  0
  147.9485  130.1421  151.1816 H   0  0  0  0  0  0  0  0  0  0  0  0
  1  2  1  0  0  0  0
  1 32  1  0  0  0  0
  1 33  1  0  0  0  0
  1 34  1  0  0  0  0
  2  3  1  0  0  0  0
  3 30  1  0  0  0  0
  3 29  1  0  0  0  0
  3  4  1  0  0  0  0
  4  5  1  0  0  0  0
  4 35  1  0  0  0  0
  4 36  1  0  0  0  0
  5 31  1  0  0  0  0
  5  6  1  0  0  0  0
  5 27  1  0  0  0  0
  6  7  1  0  0  0  0
  6 37  1  0  0  0  0
  6 38  1  0  0  0  0
  7  8  1  0  0  0  0
  7  9  1  0  0  0  0
  8 39  1  0  0  0  0
  8 40  1  0  0  0  0
  8 41  1  0  0  0  0
  9 14  1  0  0  0  0
  9 10  2  0  0  0  0
 10 11  1  0  0  0  0
 11 12  2  0  0  0  0
 11 42  1  0  0  0  0
 12 13  1  0  0  0  0
 13 17  1  0  0  0  0
 13 14  2  0  0  0  0
 14 15  1  0  0  0  0
 15 16  2  0  0  0  0
 16 17  1  0  0  0  0
 16 43  1  0  0  0  0
 17 18  1  0  0  0  0
 18 19  1  0  0  0  0
 18 44  1  0  0  0  0
 18 45  1  0  0  0  0
 19 20  1  0  0  0  0
 19 22  1  0  0  0  0
 19 46  1  0  0  0  0
 20 21  1  0  0  0  0
 20 47  1  0  0  0  0
 20 48  1  0  0  0  0
 21 49  1  0  0  0  0
 22 26  1  0  0  0  0
 22 23  1  0  0  0  0
 22 50  1  0  0  0  0
 23 24  1  0  0  0  0
 23 51  1  0  0  0  0
 23 52  1  0  0  0  0
 24 25  1  0  0  0  0
 24 53  1  0  0  0  0
 24 54  1  0  0  0  0
 25 26  1  0  0  0  0
 26 55  1  0  0  0  0
 26 56  1  0  0  0  0
 27 28  1  0  0  0  0
 27 29  1  0  0  0  0
 27 62  1  0  0  0  0
 28 57  1  0  0  0  0
 28 58  1  0  0  0  0
 28 59  1  0  0  0  0
 29 60  1  0  0  0  0
 29 61  1  0  0  0  0
M  CHG  1  27   1
M  END
> <s_m_source_file>
AV-unprocessed.smi

> <i_m_source_file_index>
21

> <i_lp_mmshare_version>
43012

> <i_f3d_flags>
0

> <s_epik_input>
W0NIM11PW0NASF0xW0NIMl1bQ0BIXShOKFtDSDNdKVtDSDJdMSlbQ0gyXU4oW0NIM10pYyhuW2NIXW4yKWMoYzIzKW5bY0hdbjNbQ0gyXVtDQEhdKFtDSDJdW09IXSlbQ0BASF00W0NIMl1bQ0gyXU9bQ0gyXTQ=

> <s_epik_cmdline>
J2VwaWtfcHl0aG9uJywgJy1waCcsICc3LjAnLCAnLXRuJywgJzgnLCAnLW1hJywgJzIwMCcsICctbWV0YWxfYmluZGluZycsICctaW1hZScsICc8aW5maWxlLm1hZT4nLCAnLW9tYWUnLCAnPG91dGZpbGUubWFlPic=

> <r_lp_tautomer_probability>
1

> <r_epik_Ionization_Penalty>
0.0157465

> <r_epik_Ionization_Penalty_Charging>
0.015354

> <r_epik_Ionization_Penalty_Neutral>
0.000392529

> <r_epik_State_Penalty>
0.0120612

> <r_epik_Charging_Adjusted_Penalty>
0.0274152

> <i_epik_Tot_Q>
1

> <i_epik_Tot_abs_Q>
1

> <r_epik_Metal_State_Penalty>
0.0121253

> <b_epik_Metal_Only>
0

> <s_lp_Force_Field>
OPLS_2005

> <r_lp_Energy>
61.4457

> <b_lp_Chiralities_Consistent>
1

> <s_lp_Variant>
AV-unprocessed.smi:21-7

> <Gold.Version>
5.8.1

> <Gold.Id.Protein>
6NUR|6NUR_protein|mol2

> <Gold.PLP.Fitness>
53.7366

> <Gold.PLP.PLP>
-45.3537

> <Gold.PLP.part.hbond>
-4.0000

> <Gold.PLP.part.metal>
0.0000

> <Gold.PLP.part.buried>
-5.7354

> <Gold.PLP.part.nonpolar>
-36.1539

> <Gold.PLP.part.repulsive>
0.2503

> <Gold.PLP.ligand.clash>
0.0000

> <Gold.PLP.ligand.torsion>
1.7377

> <Gold.PLP.Chemscore.Hbond>
3.7360

> <Gold.PLP.Chemscore.CHOScore>
0.0000

> <Gold.PLP.Chemscore.Metal>
0.0000

> <Gold.Chemscore.Hbonds>
donor molecule, donor type, donor heavy atom, donor atom, acceptor molecule, acceptor atom, score
      L1  H    27    62       P1 10747  0.98
      P1  H  6896  6907       L1    12  1.00
      P1  H  6931  6943       L1    25  0.94
      P1  H  6934  6947       L1    25  0.73

> <Gold.PLP.Chemscore.Internal.Correction>
0.6503

> <Gold.Rescore>
     Score         DG    S(hbond)    S(metal)    S(lipo)     H(rot)  DE(clash)    DE(int)     intcor
     19.26     -21.97       3.41        0.00     110.75       3.08       0.12       2.58       ----

> <Gold.Chemscore.Fitness>
19.2624

> <Gold.Chemscore.DG>
-21.9673

> <Gold.Chemscore.ZeroCoef>
-5.4800

> <Gold.Chemscore.Hbond>
3.4143

> <Gold.Chemscore.Metal>
0.0000

> <Gold.Chemscore.Lipo>
110.7488

> <Gold.Chemscore.Internal_Hbond>
0.0000

> <Gold.Chemscore.DEClash>
0.1206

> <Gold.Chemscore.DEInternal>
2.5843

> <Gold.Chemscore.Rot>
3.0758

> <Gold.Chemscore.Internal.Correction>
   9.000000E+99

> <Gold.Chemscore.Hbonds>
donor molecule, donor type, donor heavy atom, donor atom, acceptor molecule, acceptor atom, score
      L1  H    27    62       P1 10747  0.92
      P1  H  6896  6907       L1    12  0.90
      P1  H  6931  6943       L1    25  0.78
      P1  H  6934  6947       L1    25  0.16

> <Gold.Chemscore.Hbond.Weighted>
-11.4039

> <Gold.Chemscore.Metal.Weighted>
-0.0000

> <Gold.Chemscore.Lipo.Weighted>
-12.9576

> <Gold.Chemscore.Internal_Hbond.Weighted>
0.0000

> <Gold.Chemscore.DEClash.Weighted>
0.1206

> <Gold.Chemscore.DEInternal.Weighted>
2.5843

> <Gold.Chemscore.Rot.Weighted>
7.8741

> <Gold.Chemscore.Internal.Correction.Weighted>
   9.000000E+99

> <Gold.Protein.RotatedTorsions>
[ 6907 6896 6895 6894 ] final -124.46 input  -60.11 | X-H torsion
[ 7974 7965 7964 7962 ] final   -4.60 input  175.53 | X-H torsion
[ 8008 7997 7996 7995 ] final  113.57 input   59.86 | X-H torsion
[ 10167 10162 10161 10158 ] final -146.68 input  -65.29 | X-H torsion
[ 10718 10713 10712 10709 ] final  131.69 input   66.30 | X-H torsion
[ 10763 10752 10751 10750 ] final   22.25 input  -60.55 | X-H torsion
[ 11005 11000 10999 10996 ] final  148.02 input  -57.11 | X-H torsion

> <Gold.Protein.ActiveResidues>
 VAL166  LYS551  ARG553  GLY616  TRP617  ASP618  TYR619  PRO620  LYS621  CYS622 
 ASP623  PHE694  ASN695  SER759  ASP760  ASP761  ALA762  ILE779  LEU786  VAL792 
 PHE793  MET794  SER795  GLU796  ALA797  LYS798  CYS799  TRP800  GLU811  SER814 

> <Gold.Protein.RotatedAtoms>
  150.8770  133.7425  159.2943 H   0  0  0  0  0  0  0  0  0  0  0  0  # atno 6907 bound_to 6896
  151.5019  135.1060  159.9840 H   0  0  0  0  0  0  0  0  0  0  0  0  # atno 6908 bound_to 6896
  152.4734  133.8037  159.7022 H   0  0  0  0  0  0  0  0  0  0  0  0  # atno 6909 bound_to 6896
  146.2369  140.1895  142.8332 H   0  0  0  0  0  0  0  0  0  0  0  0  # atno 7974 bound_to 7965
  156.2266  140.2977  156.0083 H   0  0  0  0  0  0  0  0  0  0  0  0  # atno 8008 bound_to 7997
  155.2339  140.0420  157.2983 H   0  0  0  0  0  0  0  0  0  0  0  0  # atno 8009 bound_to 7997
  154.5926  140.2405  155.7907 H   0  0  0  0  0  0  0  0  0  0  0  0  # atno 8010 bound_to 7997
  139.7691  143.8264  152.2621 H   0  0  0  0  0  0  0  0  0  0  0  0  # atno 10167 bound_to 10162
  157.4943  131.1092  150.9514 H   0  0  0  0  0  0  0  0  0  0  0  0  # atno 10718 bound_to 10713
  153.0931  135.6652  153.9816 H   0  0  0  0  0  0  0  0  0  0  0  0  # atno 10763 bound_to 10752
  153.9407  135.2994  155.3444 H   0  0  0  0  0  0  0  0  0  0  0  0  # atno 10764 bound_to 10752
  154.7347  135.5107  153.9095 H   0  0  0  0  0  0  0  0  0  0  0  0  # atno 10765 bound_to 10752
  140.0925  134.9032  157.1672 H   0  0  0  0  0  0  0  0  0  0  0  0  # atno 11005 bound_to 11000
  144.9869  140.8511  143.5363 LP  0  0  0  0  0  0  0  0  0  0  0  0  # atno 17320 bound_to 7965
  145.1895  139.2308  143.5250 LP  0  0  0  0  0  0  0  0  0  0  0  0  # atno 17321 bound_to 7965
  139.8293  144.7261  150.9471 LP  0  0  0  0  0  0  0  0  0  0  0  0  # atno 17342 bound_to 10162
  140.7813  143.4085  151.1032 LP  0  0  0  0  0  0  0  0  0  0  0  0  # atno 17343 bound_to 10162
  157.0205  130.5672  149.5331 LP  0  0  0  0  0  0  0  0  0  0  0  0  # atno 17370 bound_to 10713
  156.0191  130.5286  150.8224 LP  0  0  0  0  0  0  0  0  0  0  0  0  # atno 17371 bound_to 10713
  140.3333  134.2786  155.7224 LP  0  0  0  0  0  0  0  0  0  0  0  0  # atno 17394 bound_to 11000
  141.2082  133.7784  157.0073 LP  0  0  0  0  0  0  0  0  0  0  0  0  # atno 17395 bound_to 11000

$$$$
