AV-unprocessed.smi:2175|AV-procd|sdf|8844|dock2
  -GOLD-   2272012 33D 1   1.00000     0.00000
 Structure written by MMmdl.
 34 35  0  0  0  0  0  0  0  0  1 V2000
  150.3585  134.9822  154.7036 C   0  0  0  0  0  0  0  0  0  0  0  0
  150.6251  136.4516  154.9475 C   0  0  0  0  0  0  0  0  0  0  0  0
  149.6592  137.2877  154.4127 N   0  0  0  0  0  0  0  0  0  0  0  0
  149.8144  138.6513  154.5882 C   0  0  0  0  0  0  0  0  0  0  0  0
  148.7110  139.4957  153.9749 C   0  0  0  0  0  0  0  0  0  0  0  0
  150.8810  139.1568  155.2582 C   0  0  0  0  0  0  0  0  0  0  0  0
  151.0873  140.6558  155.4706 C   0  0  0  0  0  0  0  0  0  0  0  0
  150.8055  141.1685  156.8851 C   0  0  0  0  0  0  0  0  0  0  0  0
  150.3515  140.4088  157.7409 O   0  0  0  0  0  0  0  0  0  0  0  0
  151.0826  142.4603  157.1183 N   0  0  0  0  0  0  0  0  0  0  0  0
  150.8874  143.1404  158.3922 C   0  0  0  0  0  0  0  0  0  0  0  0
  152.0992  143.8947  158.9059 C   0  0  0  0  0  0  0  0  0  0  0  0
  152.1616  144.3889  160.3321 C   0  0  0  0  0  0  0  0  0  0  0  0
  152.0122  145.3741  159.1976 C   0  0  0  0  0  0  0  0  0  0  0  0
  151.8870  138.2124  155.7995 C   0  0  0  0  0  0  0  0  0  0  0  0
  152.8835  138.6083  156.4024 O   0  0  0  0  0  0  0  0  0  0  0  0
  151.6781  136.8377  155.6016 N   0  0  0  0  0  0  0  0  0  0  0  0
  148.8515  136.9543  153.9066 H   0  0  0  0  0  0  0  0  0  0  0  0
  151.0769  134.3610  155.2402 H   0  0  0  0  0  0  0  0  0  0  0  0
  150.4375  134.7551  153.6401 H   0  0  0  0  0  0  0  0  0  0  0  0
  149.3574  134.7138  155.0423 H   0  0  0  0  0  0  0  0  0  0  0  0
  148.1954  140.0679  154.7462 H   0  0  0  0  0  0  0  0  0  0  0  0
  147.9698  138.8794  153.4646 H   0  0  0  0  0  0  0  0  0  0  0  0
  149.1241  140.1926  153.2454 H   0  0  0  0  0  0  0  0  0  0  0  0
  150.4799  141.2323  154.7724 H   0  0  0  0  0  0  0  0  0  0  0  0
  152.1167  140.8986  155.2052 H   0  0  0  0  0  0  0  0  0  0  0  0
  151.4526  143.0120  156.3580 H   0  0  0  0  0  0  0  0  0  0  0  0
  150.0514  143.8369  158.3101 H   0  0  0  0  0  0  0  0  0  0  0  0
  150.5899  142.3955  159.1307 H   0  0  0  0  0  0  0  0  0  0  0  0
  153.0403  143.5622  158.4717 H   0  0  0  0  0  0  0  0  0  0  0  0
  151.2941  144.2183  160.9667 H   0  0  0  0  0  0  0  0  0  0  0  0
  153.1244  144.3443  160.8368 H   0  0  0  0  0  0  0  0  0  0  0  0
  152.8758  145.9865  158.9464 H   0  0  0  0  0  0  0  0  0  0  0  0
  151.0455  145.8595  159.0793 H   0  0  0  0  0  0  0  0  0  0  0  0
  1 19  1  0  0  0  0
  1 20  1  0  0  0  0
  1 21  1  0  0  0  0
  1  2  1  0  0  0  0
  2  3  1  0  0  0  0
  2 17  2  0  0  0  0
  3  4  1  0  0  0  0
  3 18  1  0  0  0  0
  4  6  2  0  0  0  0
  4  5  1  0  0  0  0
  5 22  1  0  0  0  0
  5 23  1  0  0  0  0
  5 24  1  0  0  0  0
  6 15  1  0  0  0  0
  6  7  1  0  0  0  0
  7  8  1  0  0  0  0
  7 25  1  0  0  0  0
  7 26  1  0  0  0  0
  8  9  2  0  0  0  0
  8 10  1  0  0  0  0
 10 11  1  0  0  0  0
 10 27  1  0  0  0  0
 11 12  1  0  0  0  0
 11 28  1  0  0  0  0
 11 29  1  0  0  0  0
 12 14  1  0  0  0  0
 12 13  1  0  0  0  0
 12 30  1  0  0  0  0
 13 14  1  0  0  0  0
 13 31  1  0  0  0  0
 13 32  1  0  0  0  0
 14 33  1  0  0  0  0
 14 34  1  0  0  0  0
 15 16  2  0  0  0  0
 15 17  1  0  0  0  0
M  END
> <s_m_source_file>
AV-unprocessed.smi

> <i_m_source_file_index>
2175

> <i_lp_mmshare_version>
43012

> <i_f3d_flags>
0

> <s_epik_input>
W0NIM11jMW5jKFtDSDNdKWMoYyg9TylbbkhdMSlbQ0gyXUMoPU8pW05IXVtDSDJdW0NIXTJbQ0gyXVtDSDJdMg==

> <s_epik_cmdline>
J2VwaWtfcHl0aG9uJywgJy1waCcsICc3LjAnLCAnLXRuJywgJzgnLCAnLW1hJywgJzIwMCcsICctbWV0YWxfYmluZGluZycsICctaW1hZScsICc8aW5maWxlLm1hZT4nLCAnLW9tYWUnLCAnPG91dGZpbGUubWFlPic=

> <r_lp_tautomer_probability>
0.156392

> <r_epik_Ionization_Penalty>
0.0142343

> <r_epik_Ionization_Penalty_Charging>
0.0141145

> <r_epik_Ionization_Penalty_Neutral>
0.000119779

> <r_epik_State_Penalty>
1.52879

> <r_epik_Charging_Adjusted_Penalty>
1.5429

> <i_epik_Tot_Q>
0

> <i_epik_Tot_abs_Q>
0

> <r_epik_Metal_State_Penalty>
1.70685

> <b_epik_Metal_Only>
0

> <s_lp_Force_Field>
OPLS_2005

> <r_lp_Energy>
17.5363

> <b_lp_Chiralities_Consistent>
1

> <s_lp_Variant>
AV-unprocessed.smi:2175-2

> <Gold.Version>
5.8.1

> <Gold.Id.Protein>
6NUR|6NUR_protein|mol2

> <Gold.PLP.Fitness>
39.0284

> <Gold.PLP.PLP>
-33.2411

> <Gold.PLP.part.hbond>
-3.0000

> <Gold.PLP.part.metal>
0.0000

> <Gold.PLP.part.buried>
-2.9357

> <Gold.PLP.part.nonpolar>
-28.1346

> <Gold.PLP.part.repulsive>
0.1094

> <Gold.PLP.ligand.clash>
0.0000

> <Gold.PLP.ligand.torsion>
0.6578

> <Gold.PLP.Chemscore.Hbond>
2.1872

> <Gold.PLP.Chemscore.CHOScore>
0.0000

> <Gold.PLP.Chemscore.Metal>
0.0000

> <Gold.Chemscore.Hbonds>
donor molecule, donor type, donor heavy atom, donor atom, acceptor molecule, acceptor atom, score
      L1  H     3    18       P1  7948  0.29
      P1  H  7997  8009       L1    16  0.88
      P1  H 10752 10763       L1    17  0.99

> <Gold.PLP.Chemscore.Internal.Correction>
0.5414

> <Gold.Rescore>
     Score         DG    S(hbond)    S(metal)    S(lipo)     H(rot)  DE(clash)    DE(int)     intcor
     14.33     -15.42       1.53        0.00      79.51       1.75       0.50       0.59       ----

> <Gold.Chemscore.Fitness>
14.3292

> <Gold.Chemscore.DG>
-15.4206

> <Gold.Chemscore.ZeroCoef>
-5.4800

> <Gold.Chemscore.Hbond>
1.5321

> <Gold.Chemscore.Metal>
0.0000

> <Gold.Chemscore.Lipo>
79.5077

> <Gold.Chemscore.Internal_Hbond>
0.0000

> <Gold.Chemscore.DEClash>
0.4967

> <Gold.Chemscore.DEInternal>
0.5947

> <Gold.Chemscore.Rot>
1.7497

> <Gold.Chemscore.Internal.Correction>
   9.000000E+99

> <Gold.Chemscore.Hbonds>
donor molecule, donor type, donor heavy atom, donor atom, acceptor molecule, acceptor atom, score
      L1  H     3    18       P1  7948  0.29
      P1  H  7997  8009       L1    16  0.85
      P1  H 10752 10763       L1    17  0.31

> <Gold.Chemscore.Hbond.Weighted>
-5.1173

> <Gold.Chemscore.Metal.Weighted>
-0.0000

> <Gold.Chemscore.Lipo.Weighted>
-9.3024

> <Gold.Chemscore.Internal_Hbond.Weighted>
0.0000

> <Gold.Chemscore.DEClash.Weighted>
0.4967

> <Gold.Chemscore.DEInternal.Weighted>
0.5947

> <Gold.Chemscore.Rot.Weighted>
4.4791

> <Gold.Chemscore.Internal.Correction.Weighted>
   9.000000E+99

> <Gold.Protein.RotatedTorsions>
[ 6907 6896 6895 6894 ] final   81.29 input  -60.11 | X-H torsion
[ 7974 7965 7964 7962 ] final  174.11 input  175.53 | X-H torsion
[ 8008 7997 7996 7995 ] final -171.02 input   59.86 | X-H torsion
[ 10167 10162 10161 10158 ] final    7.65 input  -65.29 | X-H torsion
[ 10718 10713 10712 10709 ] final  155.99 input   66.30 | X-H torsion
[ 10763 10752 10751 10750 ] final   84.00 input  -60.55 | X-H torsion
[ 11005 11000 10999 10996 ] final   94.37 input  -57.11 | X-H torsion

> <Gold.Protein.ActiveResidues>
 VAL166  LYS551  ARG553  GLY616  TRP617  ASP618  TYR619  PRO620  LYS621  CYS622 
 ASP623  PHE694  ASN695  SER759  ASP760  ASP761  ALA762  ILE779  LEU786  VAL792 
 PHE793  MET794  SER795  GLU796  ALA797  LYS798  CYS799  TRP800  GLU811  SER814 

> <Gold.Protein.RotatedAtoms>
  152.5263  134.3226  159.9153 H   0  0  0  0  0  0  0  0  0  0  0  0  # atno 6907 bound_to 6896
  151.3175  133.4047  159.2659 H   0  0  0  0  0  0  0  0  0  0  0  0  # atno 6908 bound_to 6896
  150.9987  134.9321  159.7998 H   0  0  0  0  0  0  0  0  0  0  0  0  # atno 6909 bound_to 6896
  144.7228  139.9748  143.6437 H   0  0  0  0  0  0  0  0  0  0  0  0  # atno 7974 bound_to 7965
  155.9260  140.1082  157.1169 H   0  0  0  0  0  0  0  0  0  0  0  0  # atno 8008 bound_to 7997
  154.4062  140.1246  156.4807 H   0  0  0  0  0  0  0  0  0  0  0  0  # atno 8009 bound_to 7997
  155.7138  140.3470  155.4987 H   0  0  0  0  0  0  0  0  0  0  0  0  # atno 8010 bound_to 7997
  140.6359  143.7887  150.7359 H   0  0  0  0  0  0  0  0  0  0  0  0  # atno 10167 bound_to 10162
  157.2110  131.0697  151.1969 H   0  0  0  0  0  0  0  0  0  0  0  0  # atno 10718 bound_to 10713
  153.1342  135.4670  154.9396 H   0  0  0  0  0  0  0  0  0  0  0  0  # atno 10763 bound_to 10752
  154.7691  135.3153  154.8228 H   0  0  0  0  0  0  0  0  0  0  0  0  # atno 10764 bound_to 10752
  153.8764  135.6898  153.4824 H   0  0  0  0  0  0  0  0  0  0  0  0  # atno 10765 bound_to 10752
  139.8799  134.8842  156.3855 H   0  0  0  0  0  0  0  0  0  0  0  0  # atno 11005 bound_to 11000
  146.0534  139.3533  143.0625 LP  0  0  0  0  0  0  0  0  0  0  0  0  # atno 17320 bound_to 7965
  145.8186  140.9690  143.0911 LP  0  0  0  0  0  0  0  0  0  0  0  0  # atno 17321 bound_to 7965
  140.1508  143.4359  152.2132 LP  0  0  0  0  0  0  0  0  0  0  0  0  # atno 17342 bound_to 10162
  139.5570  144.7379  151.4266 LP  0  0  0  0  0  0  0  0  0  0  0  0  # atno 17343 bound_to 10162
  157.3672  130.7162  149.6541 LP  0  0  0  0  0  0  0  0  0  0  0  0  # atno 17370 bound_to 10713
  155.9690  130.4209  150.4444 LP  0  0  0  0  0  0  0  0  0  0  0  0  # atno 17371 bound_to 10713
  140.9369  133.7541  156.0096 LP  0  0  0  0  0  0  0  0  0  0  0  0  # atno 17394 bound_to 11000
  140.8265  134.3228  157.5364 LP  0  0  0  0  0  0  0  0  0  0  0  0  # atno 17395 bound_to 11000

$$$$
