AV-unprocessed.smi:54|AV-procd|sdf|544|dock7
  -GOLD-   2262016433D 1   1.00000     0.00000
 Structure written by MMmdl.
 44 46  0  0  0  0  0  0  0  0  1 V2000
  147.8025  136.7054  163.1925 C   0  0  0  0  0  0  0  0  0  0  0  0
  147.0968  135.8946  162.0942 C   0  0  0  0  0  0  0  0  0  0  0  0
  147.0544  134.3982  162.4446 C   0  0  0  0  0  0  0  0  0  0  0  0
  147.7786  136.1169  160.7393 C   0  0  0  0  0  0  0  0  0  0  0  0
  148.2646  137.2035  160.4219 O   0  0  0  0  0  0  0  0  0  0  0  0
  147.8008  134.9640  159.8573 N   0  0  0  0  0  0  0  0  0  0  0  0
  148.3387  134.8950  158.6178 C   0  0  0  0  0  0  0  0  0  0  0  0
  148.9226  135.9274  158.0257 N   0  0  0  0  0  0  0  0  0  0  0  0
  149.4166  135.6609  156.7790 C   0  0  0  0  0  0  0  0  0  0  0  0
  149.3658  134.4542  156.1136 C   0  0  0  0  0  0  0  0  0  0  0  0
  149.9685  134.5702  154.8658 N   0  0  0  0  0  0  0  0  0  0  0  0
  150.3556  135.8146  154.8149 C   0  0  0  0  0  0  0  0  0  0  0  0
  150.0564  136.5472  155.9400 N   0  0  0  0  0  0  0  0  0  0  0  0
  150.3380  137.9832  156.2448 C   0  0  1  0  0  0  0  0  0  0  0  0
  151.2065  138.0303  157.3414 O   0  0  0  0  0  0  0  0  0  0  0  0
  152.4395  138.6379  156.9674 C   0  0  1  0  0  0  0  0  0  0  0  0
  153.6140  138.0781  157.7910 C   0  0  0  0  0  0  0  0  0  0  0  0
  154.3407  139.0930  158.4523 O   0  0  0  0  0  0  0  0  0  0  0  0
  152.5182  138.4939  155.4462 C   0  0  2  0  0  0  0  0  0  0  0  0
  153.3461  139.4634  154.8329 O   0  0  0  0  0  0  0  0  0  0  0  0
  151.0547  138.6282  155.0470 C   0  0  2  0  0  0  0  0  0  0  0  0
  150.6403  139.9719  154.8768 O   0  0  0  0  0  0  0  0  0  0  0  0
  148.7464  133.3250  156.7457 C   0  0  0  0  0  0  0  0  0  0  0  0
  148.6142  132.1838  156.3087 O   0  0  0  0  0  0  0  0  0  0  0  0
  148.2529  133.6380  158.0192 N   0  0  0  0  0  0  0  0  0  0  0  0
  149.3609  138.4098  156.4762 H   0  0  0  0  0  0  0  0  0  0  0  0
  152.3269  139.6957  157.2120 H   0  0  0  0  0  0  0  0  0  0  0  0
  152.8680  137.4985  155.1706 H   0  0  0  0  0  0  0  0  0  0  0  0
  150.8370  138.0929  154.1216 H   0  0  0  0  0  0  0  0  0  0  0  0
  147.8260  137.7681  162.9475 H   0  0  0  0  0  0  0  0  0  0  0  0
  148.8315  136.3736  163.3379 H   0  0  0  0  0  0  0  0  0  0  0  0
  147.2842  136.6027  164.1462 H   0  0  0  0  0  0  0  0  0  0  0  0
  146.0680  136.2499  162.0190 H   0  0  0  0  0  0  0  0  0  0  0  0
  146.5718  133.8188  161.6565 H   0  0  0  0  0  0  0  0  0  0  0  0
  146.4925  134.2299  163.3638 H   0  0  0  0  0  0  0  0  0  0  0  0
  148.0559  133.9915  162.5917 H   0  0  0  0  0  0  0  0  0  0  0  0
  147.3285  134.1385  160.1952 H   0  0  0  0  0  0  0  0  0  0  0  0
  150.8688  136.2239  153.9575 H   0  0  0  0  0  0  0  0  0  0  0  0
  153.2329  137.3972  158.5522 H   0  0  0  0  0  0  0  0  0  0  0  0
  154.2867  137.5009  157.1564 H   0  0  0  0  0  0  0  0  0  0  0  0
  153.7347  139.6219  158.9486 H   0  0  0  0  0  0  0  0  0  0  0  0
  152.8455  139.8951  154.1572 H   0  0  0  0  0  0  0  0  0  0  0  0
  149.8791  140.1196  155.4177 H   0  0  0  0  0  0  0  0  0  0  0  0
  147.8007  132.8898  158.5233 H   0  0  0  0  0  0  0  0  0  0  0  0
  1  2  1  0  0  0  0
  1 30  1  0  0  0  0
  1 31  1  0  0  0  0
  1 32  1  0  0  0  0
  2  3  1  0  0  0  0
  2  4  1  0  0  0  0
  2 33  1  0  0  0  0
  3 34  1  0  0  0  0
  3 35  1  0  0  0  0
  3 36  1  0  0  0  0
  4  5  2  0  0  0  0
  4  6  1  0  0  0  0
  6 37  1  0  0  0  0
  6  7  1  0  0  0  0
  7 25  1  0  0  0  0
  7  8  2  0  0  0  0
  8  9  1  0  0  0  0
  9 13  1  0  0  0  0
  9 10  2  0  0  0  0
 10 11  1  0  0  0  0
 10 23  1  0  0  0  0
 11 12  2  0  0  0  0
 12 13  1  0  0  0  0
 12 38  1  0  0  0  0
 13 14  1  0  0  0  0
 14 26  1  0  0  0  0
 14 21  1  0  0  0  0
 14 15  1  0  0  0  0
 15 16  1  0  0  0  0
 16 27  1  0  0  0  0
 16 17  1  0  0  0  0
 16 19  1  0  0  0  0
 17 18  1  0  0  0  0
 17 39  1  0  0  0  0
 17 40  1  0  0  0  0
 18 41  1  0  0  0  0
 19 28  1  0  0  0  0
 19 20  1  0  0  0  0
 19 21  1  0  0  0  0
 20 42  1  0  0  0  0
 21 29  1  0  0  0  0
 21 22  1  0  0  0  0
 22 43  1  0  0  0  0
 23 24  2  0  0  0  0
 23 25  1  0  0  0  0
 25 44  1  0  0  0  0
M  END
> <s_m_source_file>
AV-unprocessed.smi

> <i_m_source_file_index>
54

> <i_lp_mmshare_version>
43012

> <i_f3d_flags>
0

> <s_epik_input>
W0NIM11bQ0hdKFtDSDNdKUMoPU8pW05IXWMobjEpW25IXWMoPU8pYyhjMTIpbltjSF1uMltDQEBIXTNPW0NASF0oW0NIMl1bT0hdKVtDQEBIXShbT0hdKVtDQEhdM1tPSF0=

> <s_epik_cmdline>
J2VwaWtfcHl0aG9uJywgJy1waCcsICc3LjAnLCAnLXRuJywgJzgnLCAnLW1hJywgJzIwMCcsICctbWV0YWxfYmluZGluZycsICctaW1hZScsICc8aW5maWxlLm1hZT4nLCAnLW9tYWUnLCAnPG91dGZpbGUubWFlPic=

> <r_lp_tautomer_probability>
0.85571

> <r_epik_Ionization_Penalty>
0.0316551

> <r_epik_Ionization_Penalty_Charging>
0.0316043

> <r_epik_Ionization_Penalty_Neutral>
5.07097e-05

> <r_epik_State_Penalty>
3.15494e-07

> <r_epik_Charging_Adjusted_Penalty>
0.0316047

> <i_epik_Tot_Q>
0

> <i_epik_Tot_abs_Q>
0

> <r_epik_Metal_State_Penalty>
0.421206

> <b_epik_Metal_Only>
0

> <s_epik_Chemistry_Notes>
This compound contains an acetal/aminal-like group ( X-CH(R)-Y where X, Y are N, S, or O) that may be acid/base labile, releasing an aldehyde.

> <s_lp_Force_Field>
OPLS_2005

> <r_lp_Energy>
44.5551

> <b_lp_Chiralities_Consistent>
1

> <s_lp_Variant>
AV-unprocessed.smi:54-16

> <Gold.Version>
5.8.1

> <Gold.Id.Protein>
6NUR|6NUR_protein|mol2

> <Gold.PLP.Fitness>
46.1249

> <Gold.PLP.PLP>
-33.9680

> <Gold.PLP.part.hbond>
-5.8120

> <Gold.PLP.part.metal>
0.0000

> <Gold.PLP.part.buried>
-4.3092

> <Gold.PLP.part.nonpolar>
-23.8705

> <Gold.PLP.part.repulsive>
0.2697

> <Gold.PLP.ligand.clash>
0.0000

> <Gold.PLP.ligand.torsion>
1.4005

> <Gold.PLP.Chemscore.Hbond>
4.0772

> <Gold.PLP.Chemscore.CHOScore>
0.8965

> <Gold.PLP.Chemscore.Metal>
0.0000

> <Gold.Chemscore.Hbonds>
donor molecule, donor type, donor heavy atom, donor atom, acceptor molecule, acceptor atom, score
      P1  H  6931  6943       L1     5  0.72
      P1  H  6934  6947       L1     5  0.43
      P1  H  7989  7998       L1    22  1.00
      P1  H  7997  8009       L1    18  1.00
      P1  H  7997  8010       L1    20  1.00
      L1  C    12    38       P1  7948  0.03
      L1  C    12    38       P1  7949  0.83

> <Gold.PLP.Chemscore.Internal.Correction>
0.0369

> <Gold.Rescore>
     Score         DG    S(hbond)    S(metal)    S(lipo)     H(rot)  DE(clash)    DE(int)     intcor
     12.38     -14.94       3.94        0.00      56.95       4.05       0.00       2.56       ----

> <Gold.Chemscore.Fitness>
12.3788

> <Gold.Chemscore.DG>
-14.9435

> <Gold.Chemscore.ZeroCoef>
-5.4800

> <Gold.Chemscore.Hbond>
3.9423

> <Gold.Chemscore.Metal>
0.0000

> <Gold.Chemscore.Lipo>
56.9454

> <Gold.Chemscore.Internal_Hbond>
0.0000

> <Gold.Chemscore.DEClash>
0.0038

> <Gold.Chemscore.DEInternal>
2.5610

> <Gold.Chemscore.Rot>
4.0493

> <Gold.Chemscore.Internal.Correction>
   9.000000E+99

> <Gold.Chemscore.Hbonds>
donor molecule, donor type, donor heavy atom, donor atom, acceptor molecule, acceptor atom, score
      P1  H  6931  6943       L1     5  0.66
      P1  H  6934  6947       L1     5  0.42
      P1  H  7989  7998       L1    22  0.82
      P1  H  7997  8009       L1    18  0.42
      P1  H  7997  8010       L1    20  0.98

> <Gold.Chemscore.Hbond.Weighted>
-13.1671

> <Gold.Chemscore.Metal.Weighted>
-0.0000

> <Gold.Chemscore.Lipo.Weighted>
-6.6626

> <Gold.Chemscore.Internal_Hbond.Weighted>
0.0000

> <Gold.Chemscore.DEClash.Weighted>
0.0038

> <Gold.Chemscore.DEInternal.Weighted>
2.5610

> <Gold.Chemscore.Rot.Weighted>
10.3662

> <Gold.Chemscore.Internal.Correction.Weighted>
   9.000000E+99

> <Gold.Protein.RotatedTorsions>
[ 6907 6896 6895 6894 ] final   69.81 input  -60.11 | X-H torsion
[ 7974 7965 7964 7962 ] final   10.58 input  175.53 | X-H torsion
[ 8008 7997 7996 7995 ] final  124.20 input   59.86 | X-H torsion
[ 10167 10162 10161 10158 ] final  149.08 input  -65.29 | X-H torsion
[ 10718 10713 10712 10709 ] final  169.62 input   66.30 | X-H torsion
[ 10763 10752 10751 10750 ] final -156.80 input  -60.55 | X-H torsion
[ 11005 11000 10999 10996 ] final -131.27 input  -57.11 | X-H torsion

> <Gold.Protein.ActiveResidues>
 VAL166  LYS551  ARG553  GLY616  TRP617  ASP618  TYR619  PRO620  LYS621  CYS622 
 ASP623  PHE694  ASN695  SER759  ASP760  ASP761  ALA762  ILE779  LEU786  VAL792 
 PHE793  MET794  SER795  GLU796  ALA797  LYS798  CYS799  TRP800  GLU811  SER814 

> <Gold.Protein.RotatedAtoms>
  152.4710  134.4961  159.9709 H   0  0  0  0  0  0  0  0  0  0  0  0  # atno 6907 bound_to 6896
  151.4987  133.3503  159.2873 H   0  0  0  0  0  0  0  0  0  0  0  0  # atno 6908 bound_to 6896
  150.8720  134.8123  159.7223 H   0  0  0  0  0  0  0  0  0  0  0  0  # atno 6909 bound_to 6896
  146.2386  139.9612  142.8458 H   0  0  0  0  0  0  0  0  0  0  0  0  # atno 7974 bound_to 7965
  156.2793  140.2745  156.1750 H   0  0  0  0  0  0  0  0  0  0  0  0  # atno 8008 bound_to 7997
  155.0615  140.0386  157.2596 H   0  0  0  0  0  0  0  0  0  0  0  0  # atno 8009 bound_to 7997
  154.7113  140.2669  155.6632 H   0  0  0  0  0  0  0  0  0  0  0  0  # atno 8010 bound_to 7997
  139.4866  144.5630  151.7197 H   0  0  0  0  0  0  0  0  0  0  0  0  # atno 10167 bound_to 10162
  157.0200  131.0229  151.2777 H   0  0  0  0  0  0  0  0  0  0  0  0  # atno 10718 bound_to 10713
  154.7685  135.3138  154.8237 H   0  0  0  0  0  0  0  0  0  0  0  0  # atno 10763 bound_to 10752
  153.8979  135.6819  153.4761 H   0  0  0  0  0  0  0  0  0  0  0  0  # atno 10764 bound_to 10752
  153.1295  135.4786  154.9260 H   0  0  0  0  0  0  0  0  0  0  0  0  # atno 10765 bound_to 10752
  140.9273  134.1365  157.4264 H   0  0  0  0  0  0  0  0  0  0  0  0  # atno 11005 bound_to 11000
  145.1769  140.9748  143.4289 LP  0  0  0  0  0  0  0  0  0  0  0  0  # atno 17320 bound_to 7965
  144.9977  139.3628  143.6183 LP  0  0  0  0  0  0  0  0  0  0  0  0  # atno 17321 bound_to 7965
  140.5203  144.0890  150.6020 LP  0  0  0  0  0  0  0  0  0  0  0  0  # atno 17342 bound_to 10162
  140.3845  143.2785  152.0132 LP  0  0  0  0  0  0  0  0  0  0  0  0  # atno 17343 bound_to 10162
  157.5257  130.8026  149.7859 LP  0  0  0  0  0  0  0  0  0  0  0  0  # atno 17370 bound_to 10713
  156.0106  130.3835  150.2279 LP  0  0  0  0  0  0  0  0  0  0  0  0  # atno 17371 bound_to 10713
  139.8788  134.9993  156.5946 LP  0  0  0  0  0  0  0  0  0  0  0  0  # atno 17394 bound_to 11000
  140.7909  133.8583  155.8645 LP  0  0  0  0  0  0  0  0  0  0  0  0  # atno 17395 bound_to 11000

$$$$
