AV-unprocessed.smi:1128|AV-procd|sdf|4843|dock7
  -GOLD-   22720 3413D 1   1.00000     0.00000
 Structure written by MMmdl.
 38 39  0  0  0  0  0  0  0  0  1 V2000
  151.4597  141.4679  157.0805 O   0  0  0  0  0  0  0  0  0  0  0  0
  150.5804  142.2554  156.7326 C   0  0  0  0  0  0  0  0  0  0  0  0
  150.6280  143.5693  156.9932 N   0  0  0  0  0  0  0  0  0  0  0  0
  151.7092  144.2460  157.7025 C   0  0  0  0  0  0  0  0  0  0  0  0
  151.6261  144.0528  159.2312 C   0  0  1  0  0  0  0  0  0  0  0  0
  152.6341  142.9984  159.7477 C   0  0  0  0  0  0  0  0  0  0  0  0
  152.7694  143.0080  161.2599 C   0  0  0  0  0  0  0  0  0  0  0  0
  152.3160  144.0044  162.0384 C   0  0  0  0  0  0  0  0  0  0  0  0
  151.6237  145.2389  161.4925 C   0  0  0  0  0  0  0  0  0  0  0  0
  151.8152  145.3900  159.9719 C   0  0  0  0  0  0  0  0  0  0  0  0
  149.4539  141.9417  156.0663 N   0  0  0  0  0  0  0  0  0  0  0  0
  149.0058  140.6954  155.5953 C   0  0  0  0  0  0  0  0  0  0  0  0
  147.7257  140.2447  155.6676 C   0  0  0  0  0  0  0  0  0  0  0  0
  147.3367  138.9405  155.1574 C   0  0  0  0  0  0  0  0  0  0  0  0
  145.9129  138.4248  155.2974 C   0  0  0  0  0  0  0  0  0  0  0  0
  145.0742  139.4019  155.6445 F   0  0  0  0  0  0  0  0  0  0  0  0
  145.4835  137.8918  154.1535 F   0  0  0  0  0  0  0  0  0  0  0  0
  145.8636  137.4820  156.2373 F   0  0  0  0  0  0  0  0  0  0  0  0
  148.3176  138.1850  154.6299 C   0  0  0  0  0  0  0  0  0  0  0  0
  149.6348  138.6412  154.5488 N   0  0  0  0  0  0  0  0  0  0  0  0
  150.0510  139.8456  155.0000 C   0  0  0  0  0  0  0  0  0  0  0  0
  151.2339  140.1702  154.9007 O   0  0  0  0  0  0  0  0  0  0  0  0
  150.3110  138.0189  154.1302 H   0  0  0  0  0  0  0  0  0  0  0  0
  149.8611  144.1452  156.6780 H   0  0  0  0  0  0  0  0  0  0  0  0
  152.6546  143.8514  157.3291 H   0  0  0  0  0  0  0  0  0  0  0  0
  151.7023  145.3085  157.4530 H   0  0  0  0  0  0  0  0  0  0  0  0
  150.6222  143.6969  159.4695 H   0  0  0  0  0  0  0  0  0  0  0  0
  152.3265  142.0005  159.4330 H   0  0  0  0  0  0  0  0  0  0  0  0
  153.6229  143.1747  159.3231 H   0  0  0  0  0  0  0  0  0  0  0  0
  153.2686  142.1618  161.7089 H   0  0  0  0  0  0  0  0  0  0  0  0
  152.4292  143.9425  163.1108 H   0  0  0  0  0  0  0  0  0  0  0  0
  150.5630  145.1656  161.7339 H   0  0  0  0  0  0  0  0  0  0  0  0
  152.0062  146.1224  162.0043 H   0  0  0  0  0  0  0  0  0  0  0  0
  152.8168  145.7723  159.7703 H   0  0  0  0  0  0  0  0  0  0  0  0
  151.1192  146.1389  159.5922 H   0  0  0  0  0  0  0  0  0  0  0  0
  148.8127  142.7031  155.8968 H   0  0  0  0  0  0  0  0  0  0  0  0
  146.9478  140.8405  156.1155 H   0  0  0  0  0  0  0  0  0  0  0  0
  148.1752  137.1879  154.2400 H   0  0  0  0  0  0  0  0  0  0  0  0
  1  2  2  0  0  0  0
  2  3  1  0  0  0  0
  2 11  1  0  0  0  0
  3  4  1  0  0  0  0
  3 24  1  0  0  0  0
  4  5  1  0  0  0  0
  4 25  1  0  0  0  0
  4 26  1  0  0  0  0
  5 10  1  0  0  0  0
  5  6  1  0  0  0  0
  5 27  1  0  0  0  0
  6  7  1  0  0  0  0
  6 28  1  0  0  0  0
  6 29  1  0  0  0  0
  7  8  2  0  0  0  0
  7 30  1  0  0  0  0
  8  9  1  0  0  0  0
  8 31  1  0  0  0  0
  9 10  1  0  0  0  0
  9 32  1  0  0  0  0
  9 33  1  0  0  0  0
 10 34  1  0  0  0  0
 10 35  1  0  0  0  0
 11 12  1  0  0  0  0
 11 36  1  0  0  0  0
 12 21  1  0  0  0  0
 12 13  2  0  0  0  0
 13 14  1  0  0  0  0
 13 37  1  0  0  0  0
 14 15  1  0  0  0  0
 14 19  2  0  0  0  0
 15 16  1  0  0  0  0
 15 17  1  0  0  0  0
 15 18  1  0  0  0  0
 19 20  1  0  0  0  0
 19 38  1  0  0  0  0
 20 23  1  0  0  0  0
 20 21  1  0  0  0  0
 21 22  2  0  0  0  0
M  END
> <s_m_source_file>
AV-unprocessed.smi

> <i_m_source_file_index>
1128

> <i_lp_mmshare_version>
43012

> <i_f3d_flags>
0

> <s_epik_input>
Tz1jMVtuSF1bY0hdYyhDKEYpKEYpRilbY0hdYzFbTkhdQyg9TylbTkhdW0NIMl1bQ0BASF0yW0NIMl1bQ0hdPVtDSF1bQ0gyXVtDSDJdMg==

> <s_epik_cmdline>
J2VwaWtfcHl0aG9uJywgJy1waCcsICc3LjAnLCAnLXRuJywgJzgnLCAnLW1hJywgJzIwMCcsICctbWV0YWxfYmluZGluZycsICctaW1hZScsICc8aW5maWxlLm1hZT4nLCAnLW9tYWUnLCAnPG91dGZpbGUubWFlPic=

> <r_lp_tautomer_probability>
1

> <r_epik_Ionization_Penalty>
0.00381734

> <r_epik_Ionization_Penalty_Charging>
0.00379608

> <r_epik_Ionization_Penalty_Neutral>
2.12611e-05

> <r_epik_State_Penalty>
-0

> <r_epik_Charging_Adjusted_Penalty>
0.00379608

> <i_epik_Tot_Q>
0

> <i_epik_Tot_abs_Q>
0

> <r_epik_Metal_State_Penalty>
0.371155

> <b_epik_Metal_Only>
0

> <s_lp_Force_Field>
OPLS_2005

> <r_lp_Energy>
19.5554

> <b_lp_Chiralities_Consistent>
1

> <s_lp_Variant>
AV-unprocessed.smi:1128-2

> <Gold.Version>
5.8.1

> <Gold.Id.Protein>
6NUR|6NUR_protein|mol2

> <Gold.PLP.Fitness>
45.8748

> <Gold.PLP.PLP>
-38.4550

> <Gold.PLP.part.hbond>
-2.7807

> <Gold.PLP.part.metal>
0.0000

> <Gold.PLP.part.buried>
-4.2934

> <Gold.PLP.part.nonpolar>
-30.8828

> <Gold.PLP.part.repulsive>
0.2397

> <Gold.PLP.ligand.clash>
0.0000

> <Gold.PLP.ligand.torsion>
1.4816

> <Gold.PLP.Chemscore.Hbond>
2.4534

> <Gold.PLP.Chemscore.CHOScore>
0.9944

> <Gold.PLP.Chemscore.Metal>
0.0000

> <Gold.Chemscore.Hbonds>
donor molecule, donor type, donor heavy atom, donor atom, acceptor molecule, acceptor atom, score
      L1  H     3    24       P1  8028  0.93
      L1  H    11    36       P1  8028  0.78
      P1  H  7989  7998       L1    22  1.00
      L1  C    19    38       P1  7948  0.61

> <Gold.PLP.Chemscore.Internal.Correction>
0.0398

> <Gold.Rescore>
     Score         DG    S(hbond)    S(metal)    S(lipo)     H(rot)  DE(clash)    DE(int)     intcor
     15.99     -23.80       3.08        0.00      97.05       1.30       2.26       5.54       ----

> <Gold.Chemscore.Fitness>
15.9924

> <Gold.Chemscore.DG>
-23.7987

> <Gold.Chemscore.ZeroCoef>
-5.4800

> <Gold.Chemscore.Hbond>
3.0844

> <Gold.Chemscore.Metal>
0.0000

> <Gold.Chemscore.Lipo>
97.0470

> <Gold.Chemscore.Internal_Hbond>
0.0000

> <Gold.Chemscore.DEClash>
2.2641

> <Gold.Chemscore.DEInternal>
5.5422

> <Gold.Chemscore.Rot>
1.3038

> <Gold.Chemscore.Internal.Correction>
   9.000000E+99

> <Gold.Chemscore.Hbonds>
donor molecule, donor type, donor heavy atom, donor atom, acceptor molecule, acceptor atom, score
      L1  H     3    24       P1  8028  0.85
      L1  H    11    36       P1  8028  0.73
      P1  H  7989  7998       L1    22  0.89

> <Gold.Chemscore.Hbond.Weighted>
-10.3020

> <Gold.Chemscore.Metal.Weighted>
-0.0000

> <Gold.Chemscore.Lipo.Weighted>
-11.3545

> <Gold.Chemscore.Internal_Hbond.Weighted>
0.0000

> <Gold.Chemscore.DEClash.Weighted>
2.2641

> <Gold.Chemscore.DEInternal.Weighted>
5.5422

> <Gold.Chemscore.Rot.Weighted>
3.3377

> <Gold.Chemscore.Internal.Correction.Weighted>
   9.000000E+99

> <Gold.Protein.RotatedTorsions>
[ 6907 6896 6895 6894 ] final  168.35 input  -60.11 | X-H torsion
[ 7974 7965 7964 7962 ] final   71.00 input  175.53 | X-H torsion
[ 8008 7997 7996 7995 ] final  -73.86 input   59.86 | X-H torsion
[ 10167 10162 10161 10158 ] final -147.07 input  -65.29 | X-H torsion
[ 10718 10713 10712 10709 ] final   88.12 input   66.30 | X-H torsion
[ 10763 10752 10751 10750 ] final  -53.57 input  -60.55 | X-H torsion
[ 11005 11000 10999 10996 ] final   51.60 input  -57.11 | X-H torsion

> <Gold.Protein.ActiveResidues>
 VAL166  LYS551  ARG553  GLY616  TRP617  ASP618  TYR619  PRO620  LYS621  CYS622 
 ASP623  PHE694  ASN695  SER759  ASP760  ASP761  ALA762  ILE779  LEU786  VAL792 
 PHE793  MET794  SER795  GLU796  ALA797  LYS798  CYS799  TRP800  GLU811  SER814 

> <Gold.Protein.RotatedAtoms>
  151.8490  133.3436  159.3666 H   0  0  0  0  0  0  0  0  0  0  0  0  # atno 6907 bound_to 6896
  150.7212  134.5317  159.5713 H   0  0  0  0  0  0  0  0  0  0  0  0  # atno 6908 bound_to 6896
  152.2807  134.7832  160.0448 H   0  0  0  0  0  0  0  0  0  0  0  0  # atno 6909 bound_to 6896
  145.7713  139.2844  143.1319 H   0  0  0  0  0  0  0  0  0  0  0  0  # atno 7974 bound_to 7965
  154.5283  140.0771  156.8298 H   0  0  0  0  0  0  0  0  0  0  0  0  # atno 8008 bound_to 7997
  155.3429  140.3408  155.4221 H   0  0  0  0  0  0  0  0  0  0  0  0  # atno 8009 bound_to 7997
  156.1754  140.1634  156.8358 H   0  0  0  0  0  0  0  0  0  0  0  0  # atno 8010 bound_to 7997
  139.7655  143.8314  152.2615 H   0  0  0  0  0  0  0  0  0  0  0  0  # atno 10167 bound_to 10162
  157.6946  131.0282  150.3226 H   0  0  0  0  0  0  0  0  0  0  0  0  # atno 10718 bound_to 10713
  154.1610  135.6474  153.4986 H   0  0  0  0  0  0  0  0  0  0  0  0  # atno 10763 bound_to 10752
  153.0110  135.5361  154.6710 H   0  0  0  0  0  0  0  0  0  0  0  0  # atno 10764 bound_to 10752
  154.6024  135.2945  155.0493 H   0  0  0  0  0  0  0  0  0  0  0  0  # atno 10765 bound_to 10752
  140.0919  134.5197  155.8844 H   0  0  0  0  0  0  0  0  0  0  0  0  # atno 11005 bound_to 11000
  146.0167  140.8386  142.9944 LP  0  0  0  0  0  0  0  0  0  0  0  0  # atno 17320 bound_to 7965
  144.6812  140.2569  143.7324 LP  0  0  0  0  0  0  0  0  0  0  0  0  # atno 17321 bound_to 7965
  139.8333  144.7244  150.9423 LP  0  0  0  0  0  0  0  0  0  0  0  0  # atno 17342 bound_to 10162
  140.7810  143.4050  151.1086 LP  0  0  0  0  0  0  0  0  0  0  0  0  # atno 17343 bound_to 10162
  156.3711  130.3863  149.7174 LP  0  0  0  0  0  0  0  0  0  0  0  0  # atno 17370 bound_to 10713
  156.4588  130.7942  151.2962 LP  0  0  0  0  0  0  0  0  0  0  0  0  # atno 17371 bound_to 10713
  141.2080  133.6670  156.6345 LP  0  0  0  0  0  0  0  0  0  0  0  0  # atno 17394 bound_to 11000
  140.3340  134.7905  157.4348 LP  0  0  0  0  0  0  0  0  0  0  0  0  # atno 17395 bound_to 11000

$$$$
