AV-unprocessed.smi:1633|AV-procd|sdf|6534|dock2
  -GOLD-   22720 7213D 1   1.00000     0.00000
 Structure written by MMmdl.
 52 54  0  0  0  0  0  0  0  0  3 V2000
  144.9602  134.0237  152.0477 C   0  0  0  0  0  0  0  0  0  0  0  0
  144.5927  134.9276  153.2265 C   0  0  0  0  0  0  0  0  0  0  0  0
  144.3614  134.3963  154.3123 O   0  0  0  0  0  0  0  0  0  0  0  0
  144.5327  136.2683  153.0416 N   0  0  0  0  0  0  0  0  0  0  0  0
  144.8524  136.9089  151.7627 C   0  0  0  0  0  0  0  0  0  0  0  0
  146.1245  137.7601  151.9273 C   0  0  0  0  0  0  0  0  0  0  0  0
  145.9806  138.7460  153.0314 N   0  3  0  0  0  0  0  0  0  0  0  0
  147.1876  139.5994  153.1834 C   0  0  0  0  0  0  0  0  0  0  0  0
  147.0607  140.6210  154.3320 C   0  0  2  0  0  0  0  0  0  0  0  0
  145.9028  141.4036  154.1152 O   0  0  0  0  0  0  0  0  0  0  0  0
  148.2960  141.5395  154.4161 C   0  0  0  0  0  0  0  0  0  0  0  0
  149.5200  140.8208  154.8006 N   0  0  0  0  0  0  0  0  0  0  0  0
  150.1631  139.8024  154.1664 C   0  0  0  0  0  0  0  0  0  0  0  0
  151.2562  139.4787  154.9111 N   0  3  0  0  0  0  0  0  0  0  0  0
  151.3145  140.3029  156.0366 C   0  0  0  0  0  0  0  0  0  0  0  0
  152.2309  140.3531  157.0801 C   0  0  0  0  0  0  0  0  0  0  0  0
  152.0062  141.3153  158.0900 C   0  0  0  0  0  0  0  0  0  0  0  0
  152.9858  141.3924  159.2489 C   0  0  0  0  0  0  0  0  0  0  0  0
  150.8919  142.1916  158.0285 C   0  0  0  0  0  0  0  0  0  0  0  0
  150.6611  143.2236  159.1194 C   0  0  0  0  0  0  0  0  0  0  0  0
  149.9720  142.1257  156.9576 C   0  0  0  0  0  0  0  0  0  0  0  0
  150.2054  141.1691  155.9718 C   0  0  0  0  0  0  0  0  0  0  0  0
  145.5273  138.1177  154.3034 C   0  0  0  0  0  0  0  0  0  0  0  0
  144.2662  137.2615  154.0870 C   0  0  0  0  0  0  0  0  0  0  0  0
  144.2378  134.1293  151.2379 H   0  0  0  0  0  0  0  0  0  0  0  0
  144.9655  132.9768  152.3536 H   0  0  0  0  0  0  0  0  0  0  0  0
  145.9549  134.2640  151.6711 H   0  0  0  0  0  0  0  0  0  0  0  0
  144.9929  136.1938  150.9509 H   0  0  0  0  0  0  0  0  0  0  0  0
  144.0152  137.5399  151.4607 H   0  0  0  0  0  0  0  0  0  0  0  0
  146.9795  137.1127  152.1302 H   0  0  0  0  0  0  0  0  0  0  0  0
  146.3348  138.2818  150.9929 H   0  0  0  0  0  0  0  0  0  0  0  0
  148.0617  138.9632  153.3307 H   0  0  0  0  0  0  0  0  0  0  0  0
  147.3637  140.1466  152.2558 H   0  0  0  0  0  0  0  0  0  0  0  0
  146.9507  140.1085  155.2872 H   0  0  0  0  0  0  0  0  0  0  0  0
  145.2932  140.9013  153.5958 H   0  0  0  0  0  0  0  0  0  0  0  0
  148.4867  141.9914  153.4419 H   0  0  0  0  0  0  0  0  0  0  0  0
  148.1315  142.3673  155.1065 H   0  0  0  0  0  0  0  0  0  0  0  0
  149.8633  139.3360  153.2389 H   0  0  0  0  0  0  0  0  0  0  0  0
  153.0782  139.6841  157.1200 H   0  0  0  0  0  0  0  0  0  0  0  0
  153.4781  142.3649  159.2692 H   0  0  0  0  0  0  0  0  0  0  0  0
  153.7596  140.6282  159.1692 H   0  0  0  0  0  0  0  0  0  0  0  0
  152.4704  141.2447  160.1981 H   0  0  0  0  0  0  0  0  0  0  0  0
  149.7993  143.8536  158.8975 H   0  0  0  0  0  0  0  0  0  0  0  0
  151.5294  143.8748  159.2226 H   0  0  0  0  0  0  0  0  0  0  0  0
  150.4789  142.7332  160.0760 H   0  0  0  0  0  0  0  0  0  0  0  0
  149.1224  142.7908  156.9163 H   0  0  0  0  0  0  0  0  0  0  0  0
  146.3288  137.4962  154.7065 H   0  0  0  0  0  0  0  0  0  0  0  0
  145.3123  138.8810  155.0499 H   0  0  0  0  0  0  0  0  0  0  0  0
  143.4374  137.8956  153.7682 H   0  0  0  0  0  0  0  0  0  0  0  0
  143.9520  136.8283  155.0354 H   0  0  0  0  0  0  0  0  0  0  0  0
  145.2380  139.3670  152.7411 H   0  0  0  0  0  0  0  0  0  0  0  0
  151.9144  138.7500  154.6656 H   0  0  0  0  0  0  0  0  0  0  0  0
  1  2  1  0  0  0  0
  1 25  1  0  0  0  0
  1 26  1  0  0  0  0
  1 27  1  0  0  0  0
  2  3  2  0  0  0  0
  2  4  1  0  0  0  0
  4 24  1  0  0  0  0
  4  5  1  0  0  0  0
  5  6  1  0  0  0  0
  5 28  1  0  0  0  0
  5 29  1  0  0  0  0
  6  7  1  0  0  0  0
  6 30  1  0  0  0  0
  6 31  1  0  0  0  0
  7  8  1  0  0  0  0
  7 23  1  0  0  0  0
  7 51  1  0  0  0  0
  8  9  1  0  0  0  0
  8 32  1  0  0  0  0
  8 33  1  0  0  0  0
  9 10  1  0  0  0  0
  9 11  1  0  0  0  0
  9 34  1  0  0  0  0
 10 35  1  0  0  0  0
 11 12  1  0  0  0  0
 11 36  1  0  0  0  0
 11 37  1  0  0  0  0
 12 22  1  0  0  0  0
 12 13  1  0  0  0  0
 13 14  2  0  0  0  0
 13 38  1  0  0  0  0
 14 15  1  0  0  0  0
 14 52  1  0  0  0  0
 15 22  2  0  0  0  0
 15 16  1  0  0  0  0
 16 17  2  0  0  0  0
 16 39  1  0  0  0  0
 17 18  1  0  0  0  0
 17 19  1  0  0  0  0
 18 40  1  0  0  0  0
 18 41  1  0  0  0  0
 18 42  1  0  0  0  0
 19 20  1  0  0  0  0
 19 21  2  0  0  0  0
 20 43  1  0  0  0  0
 20 44  1  0  0  0  0
 20 45  1  0  0  0  0
 21 22  1  0  0  0  0
 21 46  1  0  0  0  0
 23 24  1  0  0  0  0
 23 47  1  0  0  0  0
 23 48  1  0  0  0  0
 24 49  1  0  0  0  0
 24 50  1  0  0  0  0
M  CHG  1   7   1
M  CHG  1  14   1
M  END
> <s_m_source_file>
AV-unprocessed.smi

> <i_m_source_file_index>
1633

> <i_lp_mmshare_version>
43012

> <i_f3d_flags>
0

> <s_epik_input>
W0NIM11DKD1PKU4xW0NIMl1bQ0gyXU4oW0NIMl1bQ0gyXTEpW0NIMl1bQ0BIXShbT0hdKVtDSDJdbihbY0hdbjIpYyhjMjMpW2NIXWMoW0NIM10pYyhbY0hdMylbQ0gzXQ==

> <s_epik_cmdline>
J2VwaWtfcHl0aG9uJywgJy1waCcsICc3LjAnLCAnLXRuJywgJzgnLCAnLW1hJywgJzIwMCcsICctbWV0YWxfYmluZGluZycsICctaW1hZScsICc8aW5maWxlLm1hZT4nLCAnLW9tYWUnLCAnPG91dGZpbGUubWFlPic=

> <r_epik_Ionization_Penalty>
1.18448

> <r_epik_Ionization_Penalty_Charging>
1.18447

> <r_epik_Ionization_Penalty_Neutral>
4.53746e-06

> <r_epik_State_Penalty>
1.28566

> <r_epik_Charging_Adjusted_Penalty>
2.47013

> <i_epik_Tot_Q>
2

> <i_epik_Tot_abs_Q>
2

> <r_epik_Metal_State_Penalty>
5.30076

> <b_epik_Metal_Only>
0

> <s_lp_Force_Field>
OPLS_2005

> <r_lp_Energy>
52.9318

> <b_lp_Chiralities_Consistent>
1

> <s_lp_Variant>
AV-unprocessed.smi:1633-3

> <Gold.Version>
5.8.1

> <Gold.Id.Protein>
6NUR|6NUR_protein|mol2

> <Gold.PLP.Fitness>
47.7699

> <Gold.PLP.PLP>
-36.2754

> <Gold.PLP.part.hbond>
-2.0000

> <Gold.PLP.part.metal>
0.0000

> <Gold.PLP.part.buried>
0.4748

> <Gold.PLP.part.nonpolar>
-35.1011

> <Gold.PLP.part.repulsive>
0.2075

> <Gold.PLP.ligand.clash>
0.0000

> <Gold.PLP.ligand.torsion>
0.0590

> <Gold.PLP.Chemscore.Hbond>
2.9913

> <Gold.PLP.Chemscore.CHOScore>
0.8689

> <Gold.PLP.Chemscore.Metal>
0.0000

> <Gold.Chemscore.Hbonds>
donor molecule, donor type, donor heavy atom, donor atom, acceptor molecule, acceptor atom, score
      L1  H     7    51       P1 10175  2.00
      L1  H    10    35       P1 10175  1.00
      L1  C    13    38       P1  7957  1.00

> <Gold.PLP.Chemscore.Internal.Correction>
0.0318

> <Gold.Rescore>
     Score         DG    S(hbond)    S(metal)    S(lipo)     H(rot)  DE(clash)    DE(int)     intcor
     16.39     -16.82       1.81        0.00      93.79       2.22       0.38       0.05       ----

> <Gold.Chemscore.Fitness>
16.3858

> <Gold.Chemscore.DG>
-16.8234

> <Gold.Chemscore.ZeroCoef>
-5.4800

> <Gold.Chemscore.Hbond>
1.8105

> <Gold.Chemscore.Metal>
0.0000

> <Gold.Chemscore.Lipo>
93.7931

> <Gold.Chemscore.Internal_Hbond>
0.0000

> <Gold.Chemscore.DEClash>
0.3845

> <Gold.Chemscore.DEInternal>
0.0532

> <Gold.Chemscore.Rot>
2.2178

> <Gold.Chemscore.Internal.Correction>
   9.000000E+99

> <Gold.Chemscore.Hbonds>
donor molecule, donor type, donor heavy atom, donor atom, acceptor molecule, acceptor atom, score
      L1  H     7    51       P1 10175  1.00
      L1  H    10    35       P1 10175  0.75

> <Gold.Chemscore.Hbond.Weighted>
-6.0472

> <Gold.Chemscore.Metal.Weighted>
-0.0000

> <Gold.Chemscore.Lipo.Weighted>
-10.9738

> <Gold.Chemscore.Internal_Hbond.Weighted>
0.0000

> <Gold.Chemscore.DEClash.Weighted>
0.3845

> <Gold.Chemscore.DEInternal.Weighted>
0.0532

> <Gold.Chemscore.Rot.Weighted>
5.6775

> <Gold.Chemscore.Internal.Correction.Weighted>
   9.000000E+99

> <Gold.Protein.RotatedTorsions>
[ 6907 6896 6895 6894 ] final -138.56 input  -60.11 | X-H torsion
[ 7974 7965 7964 7962 ] final   84.60 input  175.53 | X-H torsion
[ 8008 7997 7996 7995 ] final   62.40 input   59.86 | X-H torsion
[ 10167 10162 10161 10158 ] final    8.51 input  -65.29 | X-H torsion
[ 10718 10713 10712 10709 ] final  -15.85 input   66.30 | X-H torsion
[ 10763 10752 10751 10750 ] final  166.84 input  -60.55 | X-H torsion
[ 11005 11000 10999 10996 ] final  128.31 input  -57.11 | X-H torsion

> <Gold.Protein.ActiveResidues>
 VAL166  LYS551  ARG553  GLY616  TRP617  ASP618  TYR619  PRO620  LYS621  CYS622 
 ASP623  PHE694  ASN695  SER759  ASP760  ASP761  ALA762  ILE779  LEU786  VAL792 
 PHE793  MET794  SER795  GLU796  ALA797  LYS798  CYS799  TRP800  GLU811  SER814 

> <Gold.Protein.RotatedAtoms>
  151.0366  133.5742  159.2655 H   0  0  0  0  0  0  0  0  0  0  0  0  # atno 6907 bound_to 6896
  151.2804  135.0711  159.9177 H   0  0  0  0  0  0  0  0  0  0  0  0  # atno 6908 bound_to 6896
  152.5356  134.0082  159.7980 H   0  0  0  0  0  0  0  0  0  0  0  0  # atno 6909 bound_to 6896
  145.5966  139.2346  143.2269 H   0  0  0  0  0  0  0  0  0  0  0  0  # atno 7974 bound_to 7965
  155.6137  140.3495  155.4630 H   0  0  0  0  0  0  0  0  0  0  0  0  # atno 8008 bound_to 7997
  156.0134  140.1238  157.0455 H   0  0  0  0  0  0  0  0  0  0  0  0  # atno 8009 bound_to 7997
  154.4289  140.1077  156.5847 H   0  0  0  0  0  0  0  0  0  0  0  0  # atno 8010 bound_to 7997
  140.6310  143.7994  150.7295 H   0  0  0  0  0  0  0  0  0  0  0  0  # atno 10167 bound_to 10162
  156.5959  130.4811  149.6260 H   0  0  0  0  0  0  0  0  0  0  0  0  # atno 10718 bound_to 10713
  154.3450  135.2753  155.2402 H   0  0  0  0  0  0  0  0  0  0  0  0  # atno 10763 bound_to 10752
  154.4656  135.5896  153.6289 H   0  0  0  0  0  0  0  0  0  0  0  0  # atno 10764 bound_to 10752
  152.9854  135.6075  154.3655 H   0  0  0  0  0  0  0  0  0  0  0  0  # atno 10765 bound_to 10752
  139.9554  134.9614  156.8983 H   0  0  0  0  0  0  0  0  0  0  0  0  # atno 11005 bound_to 11000
  146.1607  140.6792  142.9279 LP  0  0  0  0  0  0  0  0  0  0  0  0  # atno 17320 bound_to 7965
  144.7328  140.4721  143.6925 LP  0  0  0  0  0  0  0  0  0  0  0  0  # atno 17321 bound_to 7965
  140.1605  143.4279  152.2070 LP  0  0  0  0  0  0  0  0  0  0  0  0  # atno 17342 bound_to 10162
  139.5524  144.7347  151.4395 LP  0  0  0  0  0  0  0  0  0  0  0  0  # atno 17343 bound_to 10162
  156.2510  130.6907  151.1644 LP  0  0  0  0  0  0  0  0  0  0  0  0  # atno 17370 bound_to 10713
  157.7292  131.0626  150.5786 LP  0  0  0  0  0  0  0  0  0  0  0  0  # atno 17371 bound_to 10713
  140.5622  134.0524  155.7402 LP  0  0  0  0  0  0  0  0  0  0  0  0  # atno 17394 bound_to 11000
  141.1224  133.9439  157.2703 LP  0  0  0  0  0  0  0  0  0  0  0  0  # atno 17395 bound_to 11000

$$$$
