AV-unprocessed.smi:525|AV-procd|sdf|2807|dock1
  -GOLD-   2262023283D 1   1.00000     0.00000
 Structure written by MMmdl.
 43 45  0  0  0  0  0  0  0  0  1 V2000
  152.5555  137.4965  160.1388 C   0  0  0  0  0  0  0  0  0  0  0  0
  151.4188  137.4466  159.2941 O   0  0  0  0  0  0  0  0  0  0  0  0
  150.9860  138.7357  158.8965 C   0  0  0  0  0  0  0  0  0  0  0  0
  152.0644  139.3805  158.0177 C   0  0  0  0  0  0  0  0  0  0  0  0
  151.7489  140.7679  157.7162 N   0  0  0  0  0  0  0  0  0  0  0  0
  151.0753  141.2551  156.6461 C   0  0  0  0  0  0  0  0  0  0  0  0
  150.4357  140.2019  155.3867 S   0  0  0  0  0  0  0  0  0  0  0  0
  148.7928  140.9704  155.1839 C   0  0  2  0  0  0  0  0  0  0  0  0
  148.0655  141.1613  156.5250 C   0  0  0  0  0  0  0  0  0  0  0  0
  147.7441  142.4148  156.8564 N   0  0  0  0  0  0  0  0  0  0  0  0
  147.7768  140.2082  157.2477 O   0  0  0  0  0  0  0  0  0  0  0  0
  147.9695  140.1649  154.1801 C   0  0  0  0  0  0  0  0  0  0  0  0
  147.6297  138.8151  154.4308 C   0  0  0  0  0  0  0  0  0  0  0  0
  146.8885  138.0797  153.4861 C   0  0  0  0  0  0  0  0  0  0  0  0
  146.4792  138.6872  152.2840 C   0  0  0  0  0  0  0  0  0  0  0  0
  146.8117  140.0309  152.0278 C   0  0  0  0  0  0  0  0  0  0  0  0
  147.5532  140.7669  152.9721 C   0  0  0  0  0  0  0  0  0  0  0  0
  150.9240  142.5793  156.6105 N   0  0  0  0  0  0  0  0  0  0  0  0
  151.5677  142.9898  157.7616 C   0  0  0  0  0  0  0  0  0  0  0  0
  151.7609  144.2847  158.2939 C   0  0  0  0  0  0  0  0  0  0  0  0
  152.4649  144.4611  159.5032 C   0  0  0  0  0  0  0  0  0  0  0  0
  152.9855  143.3485  160.1953 C   0  0  0  0  0  0  0  0  0  0  0  0
  152.8036  142.0497  159.6826 C   0  0  0  0  0  0  0  0  0  0  0  0
  152.0984  141.8788  158.4764 C   0  0  0  0  0  0  0  0  0  0  0  0
  152.8457  136.4854  160.4239 H   0  0  0  0  0  0  0  0  0  0  0  0
  152.3452  138.0566  161.0508 H   0  0  0  0  0  0  0  0  0  0  0  0
  153.4033  137.9587  159.6320 H   0  0  0  0  0  0  0  0  0  0  0  0
  150.0454  138.6624  158.3480 H   0  0  0  0  0  0  0  0  0  0  0  0
  150.8057  139.3505  159.7775 H   0  0  0  0  0  0  0  0  0  0  0  0
  153.0378  139.3315  158.5063 H   0  0  0  0  0  0  0  0  0  0  0  0
  152.1635  138.8311  157.0811 H   0  0  0  0  0  0  0  0  0  0  0  0
  148.9293  141.9699  154.7696 H   0  0  0  0  0  0  0  0  0  0  0  0
  147.2617  142.5980  157.7249 H   0  0  0  0  0  0  0  0  0  0  0  0
  147.9813  143.1744  156.2351 H   0  0  0  0  0  0  0  0  0  0  0  0
  147.9370  138.3385  155.3501 H   0  0  0  0  0  0  0  0  0  0  0  0
  146.6340  137.0491  153.6846 H   0  0  0  0  0  0  0  0  0  0  0  0
  145.9109  138.1226  151.5597 H   0  0  0  0  0  0  0  0  0  0  0  0
  146.4989  140.4975  151.1053 H   0  0  0  0  0  0  0  0  0  0  0  0
  147.8044  141.7961  152.7615 H   0  0  0  0  0  0  0  0  0  0  0  0
  151.3670  145.1438  157.7710 H   0  0  0  0  0  0  0  0  0  0  0  0
  152.6066  145.4552  159.9017 H   0  0  0  0  0  0  0  0  0  0  0  0
  153.5243  143.4923  161.1203 H   0  0  0  0  0  0  0  0  0  0  0  0
  153.2016  141.1958  160.2104 H   0  0  0  0  0  0  0  0  0  0  0  0
  1  2  1  0  0  0  0
  1 25  1  0  0  0  0
  1 26  1  0  0  0  0
  1 27  1  0  0  0  0
  2  3  1  0  0  0  0
  3  4  1  0  0  0  0
  3 28  1  0  0  0  0
  3 29  1  0  0  0  0
  4  5  1  0  0  0  0
  4 30  1  0  0  0  0
  4 31  1  0  0  0  0
  5 24  1  0  0  0  0
  5  6  1  0  0  0  0
  6  7  1  0  0  0  0
  6 18  2  0  0  0  0
  7  8  1  0  0  0  0
  8  9  1  0  0  0  0
  8 12  1  0  0  0  0
  8 32  1  0  0  0  0
  9 10  1  0  0  0  0
  9 11  2  0  0  0  0
 10 33  1  0  0  0  0
 10 34  1  0  0  0  0
 12 17  1  0  0  0  0
 12 13  2  0  0  0  0
 13 14  1  0  0  0  0
 13 35  1  0  0  0  0
 14 15  2  0  0  0  0
 14 36  1  0  0  0  0
 15 16  1  0  0  0  0
 15 37  1  0  0  0  0
 16 17  2  0  0  0  0
 16 38  1  0  0  0  0
 17 39  1  0  0  0  0
 18 19  1  0  0  0  0
 19 24  2  0  0  0  0
 19 20  1  0  0  0  0
 20 21  2  0  0  0  0
 20 40  1  0  0  0  0
 21 22  1  0  0  0  0
 21 41  1  0  0  0  0
 22 23  2  0  0  0  0
 22 42  1  0  0  0  0
 23 24  1  0  0  0  0
 23 43  1  0  0  0  0
M  END
> <s_m_source_file>
AV-unprocessed.smi

> <i_m_source_file_index>
525

> <i_lp_mmshare_version>
43012

> <i_f3d_flags>
0

> <s_epik_input>
W2NIXTFbY0hdW2NIXVtjSF1jKGMxMiluKFtDSDJdW0NIMl1PW0NIM10pYyhuMilTW0NASF0oQyg9TylbTkgyXSljM1tjSF1bY0hdW2NIXVtjSF1bY0hdMw==

> <s_epik_cmdline>
J2VwaWtfcHl0aG9uJywgJy1waCcsICc3LjAnLCAnLXRuJywgJzgnLCAnLW1hJywgJzIwMCcsICctbWV0YWxfYmluZGluZycsICctaW1hZScsICc8aW5maWxlLm1hZT4nLCAnLW9tYWUnLCAnPG91dGZpbGUubWFlPic=

> <r_epik_Ionization_Penalty>
0.0706634

> <r_epik_Ionization_Penalty_Charging>
0

> <r_epik_Ionization_Penalty_Neutral>
0.0706634

> <r_epik_State_Penalty>
0.0619781

> <r_epik_Charging_Adjusted_Penalty>
0.0619781

> <i_epik_Tot_Q>
0

> <i_epik_Tot_abs_Q>
0

> <r_epik_Metal_State_Penalty>
0.0552401

> <b_epik_Metal_Only>
0

> <s_lp_Force_Field>
OPLS_2005

> <r_lp_Energy>
11.715

> <b_lp_Chiralities_Consistent>
1

> <s_lp_Variant>
AV-unprocessed.smi:525-1

> <Gold.Version>
5.8.1

> <Gold.Id.Protein>
6NUR|6NUR_protein|mol2

> <Gold.PLP.Fitness>
45.9398

> <Gold.PLP.PLP>
-43.8471

> <Gold.PLP.part.hbond>
-1.0000

> <Gold.PLP.part.metal>
0.0000

> <Gold.PLP.part.buried>
-0.3003

> <Gold.PLP.part.nonpolar>
-42.9446

> <Gold.PLP.part.repulsive>
0.3596

> <Gold.PLP.ligand.clash>
0.0000

> <Gold.PLP.ligand.torsion>
0.6672

> <Gold.PLP.Chemscore.Hbond>
1.0000

> <Gold.PLP.Chemscore.CHOScore>
0.0000

> <Gold.PLP.Chemscore.Metal>
0.0000

> <Gold.Chemscore.Hbonds>
donor molecule, donor type, donor heavy atom, donor atom, acceptor molecule, acceptor atom, score
      L1  H    10    34       P1  8028  1.00

> <Gold.PLP.Chemscore.Internal.Correction>
0.4270

> <Gold.Rescore>
     Score         DG    S(hbond)    S(metal)    S(lipo)     H(rot)  DE(clash)    DE(int)     intcor
     14.82     -16.48       0.54        0.00     132.02       2.44       1.08       0.58       ----

> <Gold.Chemscore.Fitness>
14.8215

> <Gold.Chemscore.DG>
-16.4805

> <Gold.Chemscore.ZeroCoef>
-5.4800

> <Gold.Chemscore.Hbond>
0.5388

> <Gold.Chemscore.Metal>
0.0000

> <Gold.Chemscore.Lipo>
132.0211

> <Gold.Chemscore.Internal_Hbond>
0.0000

> <Gold.Chemscore.DEClash>
1.0778

> <Gold.Chemscore.DEInternal>
0.5813

> <Gold.Chemscore.Rot>
2.4396

> <Gold.Chemscore.Internal.Correction>
   9.000000E+99

> <Gold.Chemscore.Hbonds>
donor molecule, donor type, donor heavy atom, donor atom, acceptor molecule, acceptor atom, score
      L1  H    10    34       P1  8028  0.30

> <Gold.Chemscore.Hbond.Weighted>
-1.7995

> <Gold.Chemscore.Metal.Weighted>
-0.0000

> <Gold.Chemscore.Lipo.Weighted>
-15.4465

> <Gold.Chemscore.Internal_Hbond.Weighted>
0.0000

> <Gold.Chemscore.DEClash.Weighted>
1.0778

> <Gold.Chemscore.DEInternal.Weighted>
0.5813

> <Gold.Chemscore.Rot.Weighted>
6.2454

> <Gold.Chemscore.Internal.Correction.Weighted>
   9.000000E+99

> <Gold.Protein.RotatedTorsions>
[ 6907 6896 6895 6894 ] final -113.79 input  -60.11 | X-H torsion
[ 7974 7965 7964 7962 ] final   25.05 input  175.53 | X-H torsion
[ 8008 7997 7996 7995 ] final -179.45 input   59.86 | X-H torsion
[ 10167 10162 10161 10158 ] final    2.81 input  -65.29 | X-H torsion
[ 10718 10713 10712 10709 ] final  141.75 input   66.30 | X-H torsion
[ 10763 10752 10751 10750 ] final  101.51 input  -60.55 | X-H torsion
[ 11005 11000 10999 10996 ] final   93.78 input  -57.11 | X-H torsion

> <Gold.Protein.ActiveResidues>
 VAL166  LYS551  ARG553  GLY616  TRP617  ASP618  TYR619  PRO620  LYS621  CYS622 
 ASP623  PHE694  ASN695  SER759  ASP760  ASP761  ALA762  ILE779  LEU786  VAL792 
 PHE793  MET794  SER795  GLU796  ALA797  LYS798  CYS799  TRP800  GLU811  SER814 

> <Gold.Protein.RotatedAtoms>
  150.7855  133.8894  159.3308 H   0  0  0  0  0  0  0  0  0  0  0  0  # atno 6907 bound_to 6896
  151.6745  135.0969  160.0214 H   0  0  0  0  0  0  0  0  0  0  0  0  # atno 6908 bound_to 6896
  152.3917  133.6650  159.6279 H   0  0  0  0  0  0  0  0  0  0  0  0  # atno 6909 bound_to 6896
  146.1907  139.7519  142.8833 H   0  0  0  0  0  0  0  0  0  0  0  0  # atno 7974 bound_to 7965
  156.0306  140.1281  157.0262 H   0  0  0  0  0  0  0  0  0  0  0  0  # atno 8008 bound_to 7997
  154.4348  140.1050  156.6165 H   0  0  0  0  0  0  0  0  0  0  0  0  # atno 8009 bound_to 7997
  155.5812  140.3468  155.4543 H   0  0  0  0  0  0  0  0  0  0  0  0  # atno 8010 bound_to 7997
  140.6617  143.7287  150.7750 H   0  0  0  0  0  0  0  0  0  0  0  0  # atno 10167 bound_to 10162
  157.3884  131.1001  151.0671 H   0  0  0  0  0  0  0  0  0  0  0  0  # atno 10718 bound_to 10713
  153.3276  135.4042  155.1469 H   0  0  0  0  0  0  0  0  0  0  0  0  # atno 10763 bound_to 10752
  154.8615  135.3603  154.5513 H   0  0  0  0  0  0  0  0  0  0  0  0  # atno 10764 bound_to 10752
  153.5949  135.7073  153.5467 H   0  0  0  0  0  0  0  0  0  0  0  0  # atno 10765 bound_to 10752
  139.8806  134.8809  156.3768 H   0  0  0  0  0  0  0  0  0  0  0  0  # atno 11005 bound_to 11000
  145.3800  141.0356  143.3183 LP  0  0  0  0  0  0  0  0  0  0  0  0  # atno 17320 bound_to 7965
  144.8482  139.5363  143.6869 LP  0  0  0  0  0  0  0  0  0  0  0  0  # atno 17321 bound_to 7965
  140.0957  143.4835  152.2453 LP  0  0  0  0  0  0  0  0  0  0  0  0  # atno 17342 bound_to 10162
  139.5852  144.7528  151.3537 LP  0  0  0  0  0  0  0  0  0  0  0  0  # atno 17343 bound_to 10162
  157.1714  130.6269  149.5642 LP  0  0  0  0  0  0  0  0  0  0  0  0  # atno 17370 bound_to 10713
  155.9792  130.4784  150.6702 LP  0  0  0  0  0  0  0  0  0  0  0  0  # atno 17371 bound_to 10713
  140.9426  133.7504  156.0166 LP  0  0  0  0  0  0  0  0  0  0  0  0  # atno 17394 bound_to 11000
  140.8201  134.3299  157.5384 LP  0  0  0  0  0  0  0  0  0  0  0  0  # atno 17395 bound_to 11000

$$$$
