AV-unprocessed.smi:1225|AV-procd|sdf|5136|dock2
  -GOLD-   22720 4193D 1   1.00000     0.00000
 Structure written by MMmdl.
 48 50  0  0  0  0  0  0  0  0  1 V2000
  143.6974  134.8430  152.8509 C   0  0  0  0  0  0  0  0  0  0  0  0
  144.6229  135.9315  153.2748 C   0  0  0  0  0  0  0  0  0  0  0  0
  144.2681  137.2165  153.3458 N   0  0  0  0  0  0  0  0  0  0  0  0
  145.3159  138.0353  153.7726 C   0  0  0  0  0  0  0  0  0  0  0  0
  146.4818  137.3566  154.0292 C   0  0  0  0  0  0  0  0  0  0  0  0
  147.7825  137.9266  154.4957 C   0  0  0  0  0  0  0  0  0  0  0  0
  147.7049  139.3517  154.8318 N   0  0  0  0  0  0  0  0  0  0  0  0
  146.8574  139.5475  156.0050 C   0  0  0  0  0  0  0  0  0  0  0  0
  149.0312  139.9402  155.0510 C   0  0  0  0  0  0  0  0  0  0  0  0
  149.0506  141.4140  155.5199 C   0  0  2  0  0  0  0  0  0  0  0  0
  148.2243  142.1782  154.6631 O   0  0  0  0  0  0  0  0  0  0  0  0
  150.4391  142.0704  155.6549 C   0  0  0  0  0  0  0  0  0  0  0  0
  151.2872  141.3806  156.6096 N   0  0  0  0  0  0  0  0  0  0  0  0
  151.8441  140.1618  156.4710 C   0  0  0  0  0  0  0  0  0  0  0  0
  152.5904  139.7159  157.4774 N   0  0  0  0  0  0  0  0  0  0  0  0
  152.5033  140.7658  158.3757 C   0  0  0  0  0  0  0  0  0  0  0  0
  153.0722  140.9248  159.6582 C   0  0  0  0  0  0  0  0  0  0  0  0
  152.8437  142.0982  160.4120 C   0  0  0  0  0  0  0  0  0  0  0  0
  153.4714  142.2248  161.7890 C   0  0  0  0  0  0  0  0  0  0  0  0
  152.0362  143.1370  159.8827 C   0  0  0  0  0  0  0  0  0  0  0  0
  151.7758  144.4058  160.6750 C   0  0  0  0  0  0  0  0  0  0  0  0
  151.4619  142.9951  158.6021 C   0  0  0  0  0  0  0  0  0  0  0  0
  151.6948  141.8221  157.8631 C   0  0  0  0  0  0  0  0  0  0  0  0
  146.2960  135.6467  153.7379 S   0  0  0  0  0  0  0  0  0  0  0  0
  142.8395  135.2545  152.3181 H   0  0  0  0  0  0  0  0  0  0  0  0
  143.3393  134.2985  153.7247 H   0  0  0  0  0  0  0  0  0  0  0  0
  144.2158  134.1469  152.1912 H   0  0  0  0  0  0  0  0  0  0  0  0
  145.1452  139.0974  153.8693 H   0  0  0  0  0  0  0  0  0  0  0  0
  148.1436  137.3650  155.3585 H   0  0  0  0  0  0  0  0  0  0  0  0
  148.5198  137.7534  153.7162 H   0  0  0  0  0  0  0  0  0  0  0  0
  146.7575  140.6085  156.2364 H   0  0  0  0  0  0  0  0  0  0  0  0
  147.2731  139.0467  156.8803 H   0  0  0  0  0  0  0  0  0  0  0  0
  145.8523  139.1601  155.8366 H   0  0  0  0  0  0  0  0  0  0  0  0
  149.5661  139.3657  155.8093 H   0  0  0  0  0  0  0  0  0  0  0  0
  149.6318  139.8348  154.1463 H   0  0  0  0  0  0  0  0  0  0  0  0
  148.5723  141.4396  156.4997 H   0  0  0  0  0  0  0  0  0  0  0  0
  148.5235  143.0744  154.6799 H   0  0  0  0  0  0  0  0  0  0  0  0
  150.9507  142.0756  154.6920 H   0  0  0  0  0  0  0  0  0  0  0  0
  150.3438  143.1085  155.9763 H   0  0  0  0  0  0  0  0  0  0  0  0
  151.6953  139.5702  155.5794 H   0  0  0  0  0  0  0  0  0  0  0  0
  153.6873  140.1332  160.0607 H   0  0  0  0  0  0  0  0  0  0  0  0
  152.6991  142.3237  162.5522 H   0  0  0  0  0  0  0  0  0  0  0  0
  154.1196  143.1000  161.8359 H   0  0  0  0  0  0  0  0  0  0  0  0
  154.0735  141.3493  162.0342 H   0  0  0  0  0  0  0  0  0  0  0  0
  151.1333  145.0940  160.1247 H   0  0  0  0  0  0  0  0  0  0  0  0
  152.7121  144.9212  160.8894 H   0  0  0  0  0  0  0  0  0  0  0  0
  151.2840  144.1718  161.6193 H   0  0  0  0  0  0  0  0  0  0  0  0
  150.8452  143.7781  158.1860 H   0  0  0  0  0  0  0  0  0  0  0  0
  1  2  1  0  0  0  0
  1 25  1  0  0  0  0
  1 26  1  0  0  0  0
  1 27  1  0  0  0  0
  2 24  1  0  0  0  0
  2  3  2  0  0  0  0
  3  4  1  0  0  0  0
  4  5  2  0  0  0  0
  4 28  1  0  0  0  0
  5  6  1  0  0  0  0
  5 24  1  0  0  0  0
  6  7  1  0  0  0  0
  6 29  1  0  0  0  0
  6 30  1  0  0  0  0
  7  8  1  0  0  0  0
  7  9  1  0  0  0  0
  8 31  1  0  0  0  0
  8 32  1  0  0  0  0
  8 33  1  0  0  0  0
  9 10  1  0  0  0  0
  9 34  1  0  0  0  0
  9 35  1  0  0  0  0
 10 11  1  0  0  0  0
 10 12  1  0  0  0  0
 10 36  1  0  0  0  0
 11 37  1  0  0  0  0
 12 13  1  0  0  0  0
 12 38  1  0  0  0  0
 12 39  1  0  0  0  0
 13 23  1  0  0  0  0
 13 14  1  0  0  0  0
 14 15  2  0  0  0  0
 14 40  1  0  0  0  0
 15 16  1  0  0  0  0
 16 23  2  0  0  0  0
 16 17  1  0  0  0  0
 17 18  2  0  0  0  0
 17 41  1  0  0  0  0
 18 19  1  0  0  0  0
 18 20  1  0  0  0  0
 19 42  1  0  0  0  0
 19 43  1  0  0  0  0
 19 44  1  0  0  0  0
 20 21  1  0  0  0  0
 20 22  2  0  0  0  0
 21 45  1  0  0  0  0
 21 46  1  0  0  0  0
 21 47  1  0  0  0  0
 22 23  1  0  0  0  0
 22 48  1  0  0  0  0
M  END
> <s_m_source_file>
AV-unprocessed.smi

> <i_m_source_file_index>
1225

> <i_lp_mmshare_version>
43012

> <i_f3d_flags>
0

> <s_epik_input>
W0NIM11jMW5bY0hdYyhzMSlbQ0gyXU4oW0NIM10pW0NIMl1bQ0BIXShbT0hdKVtDSDJdbihbY0hdbjIpYyhjMjMpW2NIXWMoW0NIM10pYyhbY0hdMylbQ0gzXQ==

> <s_epik_cmdline>
J2VwaWtfcHl0aG9uJywgJy1waCcsICc3LjAnLCAnLXRuJywgJzgnLCAnLW1hJywgJzIwMCcsICctbWV0YWxfYmluZGluZycsICctaW1hZScsICc8aW5maWxlLm1hZT4nLCAnLW9tYWUnLCAnPG91dGZpbGUubWFlPic=

> <r_epik_Ionization_Penalty>
0.12717

> <r_epik_Ionization_Penalty_Charging>
0

> <r_epik_Ionization_Penalty_Neutral>
0.12717

> <r_epik_State_Penalty>
0.11216

> <r_epik_Charging_Adjusted_Penalty>
0.11216

> <i_epik_Tot_Q>
0

> <i_epik_Tot_abs_Q>
0

> <r_epik_Metal_State_Penalty>
0.099641

> <b_epik_Metal_Only>
0

> <s_lp_Force_Field>
OPLS_2005

> <r_lp_Energy>
23.0021

> <b_lp_Chiralities_Consistent>
1

> <s_lp_Variant>
AV-unprocessed.smi:1225-1

> <Gold.Version>
5.8.1

> <Gold.Id.Protein>
6NUR|6NUR_protein|mol2

> <Gold.PLP.Fitness>
46.8244

> <Gold.PLP.PLP>
-38.1719

> <Gold.PLP.part.hbond>
-2.0129

> <Gold.PLP.part.metal>
0.0000

> <Gold.PLP.part.buried>
-4.7405

> <Gold.PLP.part.nonpolar>
-30.9784

> <Gold.PLP.part.repulsive>
0.2129

> <Gold.PLP.ligand.clash>
0.0000

> <Gold.PLP.ligand.torsion>
0.2357

> <Gold.PLP.Chemscore.Hbond>
2.0000

> <Gold.PLP.Chemscore.CHOScore>
0.9673

> <Gold.PLP.Chemscore.Metal>
0.0000

> <Gold.Chemscore.Hbonds>
donor molecule, donor type, donor heavy atom, donor atom, acceptor molecule, acceptor atom, score
      L1  H    11    37       P1  8028  1.00
      P1  H  7997  8010       L1    15  0.85
      L1  C     4    28       P1 10175  0.93

> <Gold.PLP.Chemscore.Internal.Correction>
0.2220

> <Gold.Rescore>
     Score         DG    S(hbond)    S(metal)    S(lipo)     H(rot)  DE(clash)    DE(int)     intcor
     16.08     -16.59       1.21        0.00     110.30       2.28       0.21       0.30       ----

> <Gold.Chemscore.Fitness>
16.0823

> <Gold.Chemscore.DG>
-16.5908

> <Gold.Chemscore.ZeroCoef>
-5.4800

> <Gold.Chemscore.Hbond>
1.2138

> <Gold.Chemscore.Metal>
0.0000

> <Gold.Chemscore.Lipo>
110.2984

> <Gold.Chemscore.Internal_Hbond>
0.0000

> <Gold.Chemscore.DEClash>
0.2133

> <Gold.Chemscore.DEInternal>
0.2953

> <Gold.Chemscore.Rot>
2.2844

> <Gold.Chemscore.Internal.Correction>
   9.000000E+99

> <Gold.Chemscore.Hbonds>
donor molecule, donor type, donor heavy atom, donor atom, acceptor molecule, acceptor atom, score
      L1  H    11    37       P1  8028  0.95
      P1  H  7997  8010       L1    15  0.06

> <Gold.Chemscore.Hbond.Weighted>
-4.0539

> <Gold.Chemscore.Metal.Weighted>
-0.0000

> <Gold.Chemscore.Lipo.Weighted>
-12.9049

> <Gold.Chemscore.Internal_Hbond.Weighted>
0.0000

> <Gold.Chemscore.DEClash.Weighted>
0.2133

> <Gold.Chemscore.DEInternal.Weighted>
0.2953

> <Gold.Chemscore.Rot.Weighted>
5.8480

> <Gold.Chemscore.Internal.Correction.Weighted>
   9.000000E+99

> <Gold.Protein.RotatedTorsions>
[ 6907 6896 6895 6894 ] final    0.51 input  -60.11 | X-H torsion
[ 7974 7965 7964 7962 ] final  -99.78 input  175.53 | X-H torsion
[ 8008 7997 7996 7995 ] final   45.89 input   59.86 | X-H torsion
[ 10167 10162 10161 10158 ] final -168.16 input  -65.29 | X-H torsion
[ 10718 10713 10712 10709 ] final  102.38 input   66.30 | X-H torsion
[ 10763 10752 10751 10750 ] final  174.83 input  -60.55 | X-H torsion
[ 11005 11000 10999 10996 ] final -147.76 input  -57.11 | X-H torsion

> <Gold.Protein.ActiveResidues>
 VAL166  LYS551  ARG553  GLY616  TRP617  ASP618  TYR619  PRO620  LYS621  CYS622 
 ASP623  PHE694  ASN695  SER759  ASP760  ASP761  ALA762  ILE779  LEU786  VAL792 
 PHE793  MET794  SER795  GLU796  ALA797  LYS798  CYS799  TRP800  GLU811  SER814 

> <Gold.Protein.RotatedAtoms>
  151.5776  135.1060  160.0009 H   0  0  0  0  0  0  0  0  0  0  0  0  # atno 6907 bound_to 6896
  152.4370  133.7374  159.6632 H   0  0  0  0  0  0  0  0  0  0  0  0  # atno 6908 bound_to 6896
  150.8269  133.8087  159.3138 H   0  0  0  0  0  0  0  0  0  0  0  0  # atno 6909 bound_to 6896
  145.3031  140.9382  143.2812 H   0  0  0  0  0  0  0  0  0  0  0  0  # atno 7974 bound_to 7965
  155.3434  140.3409  155.4239 H   0  0  0  0  0  0  0  0  0  0  0  0  # atno 8008 bound_to 7997
  156.1801  140.1661  156.8326 H   0  0  0  0  0  0  0  0  0  0  0  0  # atno 8009 bound_to 7997
  154.5324  140.0742  156.8352 H   0  0  0  0  0  0  0  0  0  0  0  0  # atno 8010 bound_to 7997
  139.6003  144.1025  152.1735 H   0  0  0  0  0  0  0  0  0  0  0  0  # atno 10167 bound_to 10162
  157.6803  131.0751  150.5396 H   0  0  0  0  0  0  0  0  0  0  0  0  # atno 10718 bound_to 10713
  154.4593  135.2767  155.1724 H   0  0  0  0  0  0  0  0  0  0  0  0  # atno 10763 bound_to 10752
  154.3519  135.6148  153.5650 H   0  0  0  0  0  0  0  0  0  0  0  0  # atno 10764 bound_to 10752
  152.9853  135.5813  154.4953 H   0  0  0  0  0  0  0  0  0  0  0  0  # atno 10765 bound_to 10752
  140.7683  134.3219  157.5082 H   0  0  0  0  0  0  0  0  0  0  0  0  # atno 11005 bound_to 11000
  144.9077  139.4568  143.6602 LP  0  0  0  0  0  0  0  0  0  0  0  0  # atno 17320 bound_to 7965
  146.3145  139.7868  142.8994 LP  0  0  0  0  0  0  0  0  0  0  0  0  # atno 17321 bound_to 7965
  140.0619  144.5849  150.7256 LP  0  0  0  0  0  0  0  0  0  0  0  0  # atno 17342 bound_to 10162
  140.7244  143.2621  151.4169 LP  0  0  0  0  0  0  0  0  0  0  0  0  # atno 17343 bound_to 10162
  156.5703  130.4278  149.6022 LP  0  0  0  0  0  0  0  0  0  0  0  0  # atno 17370 bound_to 10713
  156.2746  130.7036  151.1843 LP  0  0  0  0  0  0  0  0  0  0  0  0  # atno 17371 bound_to 10713
  139.8760  134.9245  156.3351 LP  0  0  0  0  0  0  0  0  0  0  0  0  # atno 17394 bound_to 11000
  140.9598  133.7396  156.0385 LP  0  0  0  0  0  0  0  0  0  0  0  0  # atno 17395 bound_to 11000

$$$$
