AV-unprocessed.smi:3030|AV-procd|sdf|11540|dock4
  -GOLD-   2272016483D 1   1.00000     0.00000
 Structure written by MMmdl.
 52 53  0  0  0  0  0  0  0  0  1 V2000
  152.2968  144.1514  161.8353 C   0  0  0  0  0  0  0  0  0  0  0  0
  153.1192  142.9665  162.3535 C   0  0  0  0  0  0  0  0  0  0  0  0
  153.3073  141.9507  161.3278 N   0  0  0  0  0  0  0  0  0  0  0  0
  154.2313  140.9238  161.4894 C   0  0  0  0  0  0  0  0  0  0  0  0
  154.4944  139.9915  160.5535 C   0  0  0  0  0  0  0  0  0  0  0  0
  153.7768  140.0386  159.2634 C   0  0  0  0  0  0  0  0  0  0  0  0
  153.9927  139.2020  158.3864 O   0  0  0  0  0  0  0  0  0  0  0  0
  152.7926  141.1396  159.0881 C   0  0  0  0  0  0  0  0  0  0  0  0
  152.1099  141.1710  157.8606 N   0  0  0  0  0  0  0  0  0  0  0  0
  150.8990  140.6783  157.5423 C   0  0  0  0  0  0  0  0  0  0  0  0
  150.1271  140.1041  158.3094 O   0  0  0  0  0  0  0  0  0  0  0  0
  150.6218  140.9000  156.2496 N   0  0  0  0  0  0  0  0  0  0  0  0
  149.3999  140.4905  155.5594 C   0  0  1  0  0  0  0  0  0  0  0  0
  148.5890  141.7491  155.1802 C   0  0  0  0  0  0  0  0  0  0  0  0
  147.3116  141.4258  154.3828 C   0  0  2  0  0  0  0  0  0  0  0  0
  146.2071  140.8072  155.2578 C   0  0  0  0  0  0  0  0  0  0  0  0
  147.6527  140.5622  153.1550 C   0  0  0  0  0  0  0  0  0  0  0  0
  148.4437  139.2981  153.5286 C   0  0  0  0  0  0  0  0  0  0  0  0
  149.7371  139.6327  154.3089 C   0  0  2  0  0  0  0  0  0  0  0  0
  150.6083  138.3783  154.6206 C   0  0  0  0  0  0  0  0  0  0  0  0
  150.0381  137.5408  155.7784 C   0  0  0  0  0  0  0  0  0  0  0  0
  152.0979  138.6888  154.8573 C   0  0  0  0  0  0  0  0  0  0  0  0
  152.6226  142.0107  160.1156 C   0  0  0  0  0  0  0  0  0  0  0  0
  152.1721  144.9052  162.6127 H   0  0  0  0  0  0  0  0  0  0  0  0
  151.3037  143.8327  161.5176 H   0  0  0  0  0  0  0  0  0  0  0  0
  152.7848  144.6281  160.9848 H   0  0  0  0  0  0  0  0  0  0  0  0
  154.0919  143.3151  162.7026 H   0  0  0  0  0  0  0  0  0  0  0  0
  152.6253  142.5235  163.2190 H   0  0  0  0  0  0  0  0  0  0  0  0
  154.7321  140.9221  162.4468 H   0  0  0  0  0  0  0  0  0  0  0  0
  155.2185  139.2086  160.7252 H   0  0  0  0  0  0  0  0  0  0  0  0
  152.6085  141.6431  157.1201 H   0  0  0  0  0  0  0  0  0  0  0  0
  151.3129  141.3824  155.6940 H   0  0  0  0  0  0  0  0  0  0  0  0
  148.7941  139.8865  156.2359 H   0  0  0  0  0  0  0  0  0  0  0  0
  148.3293  142.3145  156.0764 H   0  0  0  0  0  0  0  0  0  0  0  0
  149.2171  142.4102  154.5809 H   0  0  0  0  0  0  0  0  0  0  0  0
  146.9132  142.3715  154.0130 H   0  0  0  0  0  0  0  0  0  0  0  0
  146.5067  139.8505  155.6845 H   0  0  0  0  0  0  0  0  0  0  0  0
  145.2987  140.6389  154.6788 H   0  0  0  0  0  0  0  0  0  0  0  0
  145.9488  141.4691  156.0848 H   0  0  0  0  0  0  0  0  0  0  0  0
  146.7419  140.2879  152.6218 H   0  0  0  0  0  0  0  0  0  0  0  0
  148.2444  141.1545  152.4559 H   0  0  0  0  0  0  0  0  0  0  0  0
  147.8081  138.6355  154.1154 H   0  0  0  0  0  0  0  0  0  0  0  0
  148.6803  138.7588  152.6123 H   0  0  0  0  0  0  0  0  0  0  0  0
  150.3386  140.2677  153.6558 H   0  0  0  0  0  0  0  0  0  0  0  0
  150.5645  137.7235  153.7504 H   0  0  0  0  0  0  0  0  0  0  0  0
  150.1283  138.0539  156.7356 H   0  0  0  0  0  0  0  0  0  0  0  0
  150.5686  136.5926  155.8693 H   0  0  0  0  0  0  0  0  0  0  0  0
  148.9847  137.3096  155.6184 H   0  0  0  0  0  0  0  0  0  0  0  0
  152.2482  139.3019  155.7457 H   0  0  0  0  0  0  0  0  0  0  0  0
  152.5440  139.2084  154.0099 H   0  0  0  0  0  0  0  0  0  0  0  0
  152.6654  137.7690  155.0000 H   0  0  0  0  0  0  0  0  0  0  0  0
  151.9209  142.8285  160.0841 H   0  0  0  0  0  0  0  0  0  0  0  0
  1  2  1  0  0  0  0
  1 24  1  0  0  0  0
  1 25  1  0  0  0  0
  1 26  1  0  0  0  0
  2  3  1  0  0  0  0
  2 27  1  0  0  0  0
  2 28  1  0  0  0  0
  3 23  1  0  0  0  0
  3  4  1  0  0  0  0
  4  5  2  0  0  0  0
  4 29  1  0  0  0  0
  5  6  1  0  0  0  0
  5 30  1  0  0  0  0
  6  7  2  0  0  0  0
  6  8  1  0  0  0  0
  8  9  1  0  0  0  0
  8 23  2  0  0  0  0
  9 10  1  0  0  0  0
  9 31  1  0  0  0  0
 10 11  2  0  0  0  0
 10 12  1  0  0  0  0
 12 13  1  0  0  0  0
 12 32  1  0  0  0  0
 13 19  1  0  0  0  0
 13 14  1  0  0  0  0
 13 33  1  0  0  0  0
 14 15  1  0  0  0  0
 14 34  1  0  0  0  0
 14 35  1  0  0  0  0
 15 16  1  0  0  0  0
 15 17  1  0  0  0  0
 15 36  1  0  0  0  0
 16 37  1  0  0  0  0
 16 38  1  0  0  0  0
 16 39  1  0  0  0  0
 17 18  1  0  0  0  0
 17 40  1  0  0  0  0
 17 41  1  0  0  0  0
 18 19  1  0  0  0  0
 18 42  1  0  0  0  0
 18 43  1  0  0  0  0
 19 20  1  0  0  0  0
 19 44  1  0  0  0  0
 20 21  1  0  0  0  0
 20 22  1  0  0  0  0
 20 45  1  0  0  0  0
 21 46  1  0  0  0  0
 21 47  1  0  0  0  0
 21 48  1  0  0  0  0
 22 49  1  0  0  0  0
 22 50  1  0  0  0  0
 22 51  1  0  0  0  0
 23 52  1  0  0  0  0
M  END
> <s_m_source_file>
AV-unprocessed.smi

> <i_m_source_file_index>
3030

> <i_lp_mmshare_version>
43012

> <i_f3d_flags>
0

> <s_epik_input>
W0NIM11bQ0gyXW4xW2NIXVtjSF1jKD1PKWMoW2NIXTEpW05IXUMoPU8pW05IXVtDQEBIXTJbQ0gyXVtDQEBIXShbQ0gzXSlbQ0gyXVtDSDJdW0NASF0yW0NIXShbQ0gzXSlbQ0gzXQ==

> <s_epik_cmdline>
J2VwaWtfcHl0aG9uJywgJy1waCcsICc3LjAnLCAnLXRuJywgJzgnLCAnLW1hJywgJzIwMCcsICctbWV0YWxfYmluZGluZycsICctaW1hZScsICc8aW5maWxlLm1hZT4nLCAnLW9tYWUnLCAnPG91dGZpbGUubWFlPic=

> <r_lp_tautomer_probability>
1

> <r_epik_Ionization_Penalty>
0.00147933

> <r_epik_Ionization_Penalty_Charging>
0.00145753

> <r_epik_Ionization_Penalty_Neutral>
2.17987e-05

> <r_epik_State_Penalty>
0.00097457

> <r_epik_Charging_Adjusted_Penalty>
0.0024321

> <i_epik_Tot_Q>
0

> <i_epik_Tot_abs_Q>
0

> <r_epik_Metal_State_Penalty>
-0

> <b_epik_Metal_Only>
0

> <s_lp_Force_Field>
OPLS_2005

> <r_lp_Energy>
11.4945

> <b_lp_Chiralities_Consistent>
1

> <s_lp_Variant>
AV-unprocessed.smi:3030-8

> <Gold.Version>
5.8.1

> <Gold.Id.Protein>
6NUR|6NUR_protein|mol2

> <Gold.PLP.Fitness>
43.8999

> <Gold.PLP.PLP>
-43.1765

> <Gold.PLP.part.hbond>
-1.0000

> <Gold.PLP.part.metal>
0.0000

> <Gold.PLP.part.buried>
2.5373

> <Gold.PLP.part.nonpolar>
-44.5222

> <Gold.PLP.part.repulsive>
0.1652

> <Gold.PLP.ligand.clash>
0.0000

> <Gold.PLP.ligand.torsion>
1.1768

> <Gold.PLP.Chemscore.Hbond>
1.0000

> <Gold.PLP.Chemscore.CHOScore>
0.0000

> <Gold.PLP.Chemscore.Metal>
0.0000

> <Gold.Chemscore.Hbonds>
donor molecule, donor type, donor heavy atom, donor atom, acceptor molecule, acceptor atom, score
      P1  H  7997  8008       L1     7  1.00

> <Gold.PLP.Chemscore.Internal.Correction>
0.0771

> <Gold.Rescore>
     Score         DG    S(hbond)    S(metal)    S(lipo)     H(rot)  DE(clash)    DE(int)     intcor
     16.03     -18.67       0.84        0.00     116.55       1.27       0.42       2.22       ----

> <Gold.Chemscore.Fitness>
16.0343

> <Gold.Chemscore.DG>
-18.6709

> <Gold.Chemscore.ZeroCoef>
-5.4800

> <Gold.Chemscore.Hbond>
0.8388

> <Gold.Chemscore.Metal>
0.0000

> <Gold.Chemscore.Lipo>
116.5536

> <Gold.Chemscore.Internal_Hbond>
0.0000

> <Gold.Chemscore.DEClash>
0.4163

> <Gold.Chemscore.DEInternal>
2.2204

> <Gold.Chemscore.Rot>
1.2685

> <Gold.Chemscore.Internal.Correction>
   9.000000E+99

> <Gold.Chemscore.Hbonds>
donor molecule, donor type, donor heavy atom, donor atom, acceptor molecule, acceptor atom, score
      P1  H  7997  8008       L1     7  0.50

> <Gold.Chemscore.Hbond.Weighted>
-2.8016

> <Gold.Chemscore.Metal.Weighted>
-0.0000

> <Gold.Chemscore.Lipo.Weighted>
-13.6368

> <Gold.Chemscore.Internal_Hbond.Weighted>
0.0000

> <Gold.Chemscore.DEClash.Weighted>
0.4163

> <Gold.Chemscore.DEInternal.Weighted>
2.2204

> <Gold.Chemscore.Rot.Weighted>
3.2474

> <Gold.Chemscore.Internal.Correction.Weighted>
   9.000000E+99

> <Gold.Protein.RotatedTorsions>
[ 6907 6896 6895 6894 ] final -117.34 input  -60.11 | X-H torsion
[ 7974 7965 7964 7962 ] final  -88.17 input  175.53 | X-H torsion
[ 8008 7997 7996 7995 ] final -103.52 input   59.86 | X-H torsion
[ 10167 10162 10161 10158 ] final -159.71 input  -65.29 | X-H torsion
[ 10718 10713 10712 10709 ] final  127.46 input   66.30 | X-H torsion
[ 10763 10752 10751 10750 ] final  116.35 input  -60.55 | X-H torsion
[ 11005 11000 10999 10996 ] final -103.62 input  -57.11 | X-H torsion

> <Gold.Protein.ActiveResidues>
 VAL166  LYS551  ARG553  GLY616  TRP617  ASP618  TYR619  PRO620  LYS621  CYS622 
 ASP623  PHE694  ASN695  SER759  ASP760  ASP761  ALA762  ILE779  LEU786  VAL792 
 PHE793  MET794  SER795  GLU796  ALA797  LYS798  CYS799  TRP800  GLU811  SER814 

> <Gold.Protein.RotatedAtoms>
  150.8129  133.8390  159.3173 H   0  0  0  0  0  0  0  0  0  0  0  0  # atno 6907 bound_to 6896
  151.6170  135.1033  160.0103 H   0  0  0  0  0  0  0  0  0  0  0  0  # atno 6908 bound_to 6896
  152.4220  133.7092  159.6526 H   0  0  0  0  0  0  0  0  0  0  0  0  # atno 6909 bound_to 6896
  145.4567  140.9561  143.1992 H   0  0  0  0  0  0  0  0  0  0  0  0  # atno 7974 bound_to 7965
  154.8721  140.0422  157.1731 H   0  0  0  0  0  0  0  0  0  0  0  0  # atno 8008 bound_to 7997
  154.8727  140.2961  155.5451 H   0  0  0  0  0  0  0  0  0  0  0  0  # atno 8009 bound_to 7997
  156.2999  140.2426  156.3719 H   0  0  0  0  0  0  0  0  0  0  0  0  # atno 8010 bound_to 7997
  139.6594  143.9940  152.2215 H   0  0  0  0  0  0  0  0  0  0  0  0  # atno 10167 bound_to 10162
  157.5331  131.1098  150.8978 H   0  0  0  0  0  0  0  0  0  0  0  0  # atno 10718 bound_to 10713
  153.5360  135.3568  155.2697 H   0  0  0  0  0  0  0  0  0  0  0  0  # atno 10763 bound_to 10752
  154.8722  135.4079  154.3098 H   0  0  0  0  0  0  0  0  0  0  0  0  # atno 10764 bound_to 10752
  153.3796  135.7067  153.6643 H   0  0  0  0  0  0  0  0  0  0  0  0  # atno 10765 bound_to 10752
  141.1137  133.8656  157.1509 H   0  0  0  0  0  0  0  0  0  0  0  0  # atno 11005 bound_to 11000
  144.8028  139.6108  143.7064 LP  0  0  0  0  0  0  0  0  0  0  0  0  # atno 17320 bound_to 7965
  146.2474  139.6127  142.9450 LP  0  0  0  0  0  0  0  0  0  0  0  0  # atno 17321 bound_to 7965
  139.9675  144.6516  150.8021 LP  0  0  0  0  0  0  0  0  0  0  0  0  # atno 17342 bound_to 10162
  140.7573  143.3084  151.2905 LP  0  0  0  0  0  0  0  0  0  0  0  0  # atno 17343 bound_to 10162
  156.9553  130.5435  149.5284 LP  0  0  0  0  0  0  0  0  0  0  0  0  # atno 17370 bound_to 10713
  156.0438  130.5517  150.8832 LP  0  0  0  0  0  0  0  0  0  0  0  0  # atno 17371 bound_to 10713
  140.0046  135.0014  157.0265 LP  0  0  0  0  0  0  0  0  0  0  0  0  # atno 17394 bound_to 11000
  140.4704  134.1392  155.7202 LP  0  0  0  0  0  0  0  0  0  0  0  0  # atno 17395 bound_to 11000

$$$$
