AV-unprocessed.smi:72|AV-procd|sdf|685|dock8
  -GOLD-   2262016593D 1   1.00000     0.00000
 Structure written by MMmdl.
 29 30  0  0  0  0  0  0  0  0  1 V2000
  152.2538  140.8383  158.9731 N   0  0  0  0  0  0  0  0  0  0  0  0
  151.5153  140.9280  157.9258 C   0  0  0  0  0  0  0  0  0  0  0  0
  150.3770  141.7377  157.8013 N   0  0  0  0  0  0  0  0  0  0  0  0
  149.7130  141.7110  156.6868 C   0  0  0  0  0  0  0  0  0  0  0  0
  150.0949  140.8511  155.5728 N   0  0  0  0  0  0  0  0  0  0  0  0
  149.3352  140.8243  154.2555 C   0  0  2  0  0  0  0  0  0  0  0  0
  148.5422  141.9666  154.1263 O   0  0  0  0  0  0  0  0  0  0  0  0
  147.2251  141.6879  154.5847 C   0  0  1  0  0  0  0  0  0  0  0  0
  146.2437  142.7256  154.0204 C   0  0  0  0  0  0  0  0  0  0  0  0
  144.9226  142.3856  154.3832 O   0  0  0  0  0  0  0  0  0  0  0  0
  146.9978  140.2719  154.0533 C   0  0  2  0  0  0  0  0  0  0  0  0
  146.0441  139.5958  154.8480 O   0  0  0  0  0  0  0  0  0  0  0  0
  148.3716  139.6175  154.1868 C   0  0  1  0  0  0  0  0  0  0  0  0
  148.6369  138.8040  153.0628 O   0  0  0  0  0  0  0  0  0  0  0  0
  151.2770  140.0740  155.6669 C   0  0  0  0  0  0  0  0  0  0  0  0
  151.6860  139.3819  154.7345 O   0  0  0  0  0  0  0  0  0  0  0  0
  151.9282  140.1360  156.8480 N   0  0  0  0  0  0  0  0  0  0  0  0
  150.1126  140.8272  153.4892 H   0  0  0  0  0  0  0  0  0  0  0  0
  147.2027  141.6804  155.6763 H   0  0  0  0  0  0  0  0  0  0  0  0
  146.6760  140.3063  153.0109 H   0  0  0  0  0  0  0  0  0  0  0  0
  148.4411  139.0257  155.1012 H   0  0  0  0  0  0  0  0  0  0  0  0
  151.8932  141.4359  159.7033 H   0  0  0  0  0  0  0  0  0  0  0  0
  148.8337  142.3341  156.5238 H   0  0  0  0  0  0  0  0  0  0  0  0
  146.4863  143.7316  154.3639 H   0  0  0  0  0  0  0  0  0  0  0  0
  146.2917  142.7336  152.9311 H   0  0  0  0  0  0  0  0  0  0  0  0
  144.6753  141.6019  153.9166 H   0  0  0  0  0  0  0  0  0  0  0  0
  145.3328  140.1913  155.0298 H   0  0  0  0  0  0  0  0  0  0  0  0
  149.2146  139.2775  152.4832 H   0  0  0  0  0  0  0  0  0  0  0  0
  152.7656  139.5816  156.9517 H   0  0  0  0  0  0  0  0  0  0  0  0
  1  2  2  0  0  0  0
  1 22  1  0  0  0  0
  2 17  1  0  0  0  0
  2  3  1  0  0  0  0
  3  4  2  0  0  0  0
  4  5  1  0  0  0  0
  4 23  1  0  0  0  0
  5  6  1  0  0  0  0
  5 15  1  0  0  0  0
  6 18  1  0  0  0  0
  6 13  1  0  0  0  0
  6  7  1  0  0  0  0
  7  8  1  0  0  0  0
  8 19  1  0  0  0  0
  8  9  1  0  0  0  0
  8 11  1  0  0  0  0
  9 10  1  0  0  0  0
  9 24  1  0  0  0  0
  9 25  1  0  0  0  0
 10 26  1  0  0  0  0
 11 20  1  0  0  0  0
 11 12  1  0  0  0  0
 11 13  1  0  0  0  0
 12 27  1  0  0  0  0
 13 21  1  0  0  0  0
 13 14  1  0  0  0  0
 14 28  1  0  0  0  0
 15 16  2  0  0  0  0
 15 17  1  0  0  0  0
 17 29  1  0  0  0  0
M  END
> <s_m_source_file>
AV-unprocessed.smi

> <i_m_source_file_index>
72

> <i_lp_mmshare_version>
43012

> <i_f3d_flags>
0

> <s_epik_input>
W05IMl1jMW5bY0hdbihjKD1PKW4xKVtDQEBIXTJPW0NASF0oW0NIMl1bT0hdKVtDQEBIXShbT0hdKVtDQEhdMltPSF0=

> <s_epik_cmdline>
J2VwaWtfcHl0aG9uJywgJy1waCcsICc3LjAnLCAnLXRuJywgJzgnLCAnLW1hJywgJzIwMCcsICctbWV0YWxfYmluZGluZycsICctaW1hZScsICc8aW5maWxlLm1hZT4nLCAnLW9tYWUnLCAnPG91dGZpbGUubWFlPic=

> <r_lp_tautomer_probability>
7.17554e-07

> <r_epik_Ionization_Penalty>
0.0066451

> <r_epik_Ionization_Penalty_Charging>
0.00663793

> <r_epik_Ionization_Penalty_Neutral>
7.17052e-06

> <r_epik_State_Penalty>
0.419231

> <r_epik_Charging_Adjusted_Penalty>
0.425868

> <i_epik_Tot_Q>
0

> <i_epik_Tot_abs_Q>
0

> <r_epik_Metal_State_Penalty>
1.44144

> <b_epik_Metal_Only>
0

> <s_epik_Chemistry_Notes>
This compound contains an acetal/aminal-like group ( X-CH(R)-Y where X, Y are N, S, or O) that may be acid/base labile, releasing an aldehyde.

> <s_lp_Force_Field>
OPLS_2005

> <r_lp_Energy>
35.407

> <b_lp_Chiralities_Consistent>
1

> <s_lp_Variant>
AV-unprocessed.smi:72-23

> <Gold.Version>
5.8.1

> <Gold.Id.Protein>
6NUR|6NUR_protein|mol2

> <Gold.PLP.Fitness>
37.6606

> <Gold.PLP.PLP>
-28.2564

> <Gold.PLP.part.hbond>
-5.1953

> <Gold.PLP.part.metal>
0.0000

> <Gold.PLP.part.buried>
-2.7745

> <Gold.PLP.part.nonpolar>
-20.7046

> <Gold.PLP.part.repulsive>
0.4393

> <Gold.PLP.ligand.clash>
0.0000

> <Gold.PLP.ligand.torsion>
0.6068

> <Gold.PLP.Chemscore.Hbond>
2.6311

> <Gold.PLP.Chemscore.CHOScore>
0.8954

> <Gold.PLP.Chemscore.Metal>
0.0000

> <Gold.Chemscore.Hbonds>
donor molecule, donor type, donor heavy atom, donor atom, acceptor molecule, acceptor atom, score
      L1  H    10    26       P1 10175  0.81
      L1  H    14    28       P1  7957  1.00
      P1  H  7989  7998       L1    16  0.65
      P1  H  8011  8017       L1     7  0.06
      L1  C     4    23       P1  8028  0.90

> <Gold.PLP.Chemscore.Internal.Correction>
0.0382

> <Gold.Rescore>
     Score         DG    S(hbond)    S(metal)    S(lipo)     H(rot)  DE(clash)    DE(int)     intcor
      2.62      -3.17       1.67        0.00      21.33       4.06       0.11       0.43       ----

> <Gold.Chemscore.Fitness>
2.6235

> <Gold.Chemscore.DG>
-3.1660

> <Gold.Chemscore.ZeroCoef>
-5.4800

> <Gold.Chemscore.Hbond>
1.6718

> <Gold.Chemscore.Metal>
0.0000

> <Gold.Chemscore.Lipo>
21.3305

> <Gold.Chemscore.Internal_Hbond>
0.0000

> <Gold.Chemscore.DEClash>
0.1123

> <Gold.Chemscore.DEInternal>
0.4302

> <Gold.Chemscore.Rot>
4.0600

> <Gold.Chemscore.Internal.Correction>
   9.000000E+99

> <Gold.Chemscore.Hbonds>
donor molecule, donor type, donor heavy atom, donor atom, acceptor molecule, acceptor atom, score
      L1  H    10    26       P1 10175  0.13
      L1  H    14    28       P1  7957  0.95
      P1  H  7989  7998       L1    16  0.05

> <Gold.Chemscore.Hbond.Weighted>
-5.5839

> <Gold.Chemscore.Metal.Weighted>
-0.0000

> <Gold.Chemscore.Lipo.Weighted>
-2.4957

> <Gold.Chemscore.Internal_Hbond.Weighted>
0.0000

> <Gold.Chemscore.DEClash.Weighted>
0.1123

> <Gold.Chemscore.DEInternal.Weighted>
0.4302

> <Gold.Chemscore.Rot.Weighted>
10.3936

> <Gold.Chemscore.Internal.Correction.Weighted>
   9.000000E+99

> <Gold.Protein.RotatedTorsions>
[ 6907 6896 6895 6894 ] final -174.53 input  -60.11 | X-H torsion
[ 7974 7965 7964 7962 ] final  122.90 input  175.53 | X-H torsion
[ 8008 7997 7996 7995 ] final  -96.78 input   59.86 | X-H torsion
[ 10167 10162 10161 10158 ] final   55.58 input  -65.29 | X-H torsion
[ 10718 10713 10712 10709 ] final -105.29 input   66.30 | X-H torsion
[ 10763 10752 10751 10750 ] final   99.24 input  -60.55 | X-H torsion
[ 11005 11000 10999 10996 ] final  122.32 input  -57.11 | X-H torsion

> <Gold.Protein.ActiveResidues>
 VAL166  LYS551  ARG553  GLY616  TRP617  ASP618  TYR619  PRO620  LYS621  CYS622 
 ASP623  PHE694  ASN695  SER759  ASP760  ASP761  ALA762  ILE779  LEU786  VAL792 
 PHE793  MET794  SER795  GLU796  ALA797  LYS798  CYS799  TRP800  GLU811  SER814 

> <Gold.Protein.RotatedAtoms>
  151.5738  133.3386  159.2994 H   0  0  0  0  0  0  0  0  0  0  0  0  # atno 6907 bound_to 6896
  150.8352  134.7625  159.6898 H   0  0  0  0  0  0  0  0  0  0  0  0  # atno 6908 bound_to 6896
  152.4430  134.5560  159.9932 H   0  0  0  0  0  0  0  0  0  0  0  0  # atno 6909 bound_to 6896
  145.1021  139.3511  143.4806 H   0  0  0  0  0  0  0  0  0  0  0  0  # atno 7974 bound_to 7965
  154.7790  140.0468  157.1112 H   0  0  0  0  0  0  0  0  0  0  0  0  # atno 8008 bound_to 7997
  154.9728  140.3091  155.4961 H   0  0  0  0  0  0  0  0  0  0  0  0  # atno 8009 bound_to 7997
  156.2933  140.2250  156.4822 H   0  0  0  0  0  0  0  0  0  0  0  0  # atno 8010 bound_to 7997
  140.2179  144.3819  150.6462 H   0  0  0  0  0  0  0  0  0  0  0  0  # atno 10167 bound_to 10162
  156.0340  130.5557  150.7519 H   0  0  0  0  0  0  0  0  0  0  0  0  # atno 10718 bound_to 10713
  153.2990  135.4120  155.1235 H   0  0  0  0  0  0  0  0  0  0  0  0  # atno 10763 bound_to 10752
  154.8543  135.3536  154.5878 H   0  0  0  0  0  0  0  0  0  0  0  0  # atno 10764 bound_to 10752
  153.6303  135.7061  153.5336 H   0  0  0  0  0  0  0  0  0  0  0  0  # atno 10765 bound_to 10752
  139.9263  134.9641  156.8091 H   0  0  0  0  0  0  0  0  0  0  0  0  # atno 11005 bound_to 11000
  146.3529  140.0903  142.8613 LP  0  0  0  0  0  0  0  0  0  0  0  0  # atno 17320 bound_to 7965
  145.0943  140.9305  143.4750 LP  0  0  0  0  0  0  0  0  0  0  0  0  # atno 17321 bound_to 7965
  140.6276  143.2183  151.6564 LP  0  0  0  0  0  0  0  0  0  0  0  0  # atno 17342 bound_to 10162
  139.5155  144.3377  152.0769 LP  0  0  0  0  0  0  0  0  0  0  0  0  # atno 17343 bound_to 10162
  157.5061  131.0922  151.0256 LP  0  0  0  0  0  0  0  0  0  0  0  0  # atno 17370 bound_to 10713
  157.0623  130.5830  149.5388 LP  0  0  0  0  0  0  0  0  0  0  0  0  # atno 17371 bound_to 10713
  140.6327  133.9891  155.7669 LP  0  0  0  0  0  0  0  0  0  0  0  0  # atno 17394 bound_to 11000
  141.0823  134.0044  157.3368 LP  0  0  0  0  0  0  0  0  0  0  0  0  # atno 17395 bound_to 11000

$$$$
