AV-unprocessed.smi:209|AV-procd|sdf|1609|dock1
  -GOLD-   2262019533D 1   1.00000     0.00000
 Structure written by MMmdl.
 48 52  0  0  0  0  0  0  0  0  1 V2000
  151.2547  145.3998  160.1510 O   0  0  0  0  0  0  0  0  0  0  0  0
  151.1570  144.5011  159.3184 C   0  0  0  0  0  0  0  0  0  0  0  0
  150.2820  144.4371  158.3075 N   0  0  0  0  0  0  0  0  0  0  0  0
  150.3793  143.1860  157.5620 C   0  0  0  0  0  0  0  0  0  0  0  0
  151.1377  142.2898  158.5529 C   0  0  2  0  0  0  0  0  0  0  0  0
  152.0524  143.2769  159.2621 C   0  0  2  0  0  0  0  0  0  0  0  0
  152.5958  142.6350  160.5399 C   0  0  0  0  0  0  0  0  0  0  0  0
  153.3816  141.3762  160.0998 C   0  0  0  0  0  0  0  0  0  0  0  0
  152.5616  140.4472  159.1625 C   0  0  0  0  0  0  0  0  0  0  0  0
  151.9341  141.1762  158.0501 N   0  0  0  0  0  0  0  0  0  0  0  0
  151.2721  140.3719  157.1901 C   0  0  0  0  0  0  0  0  0  0  0  0
  151.2135  140.6824  155.8681 N   0  0  0  0  0  0  0  0  0  0  0  0
  150.5659  139.8742  155.0235 C   0  0  0  0  0  0  0  0  0  0  0  0
  149.9294  138.7301  155.2852 N   0  0  0  0  0  0  0  0  0  0  0  0
  149.9962  138.4143  156.6109 C   0  0  0  0  0  0  0  0  0  0  0  0
  150.6374  139.1799  157.6237 C   0  0  0  0  0  0  0  0  0  0  0  0
  150.4912  138.5612  158.8576 N   0  0  0  0  0  0  0  0  0  0  0  0
  149.7944  137.4905  158.5906 C   0  0  0  0  0  0  0  0  0  0  0  0
  149.4722  137.3105  157.2628 N   0  0  0  0  0  0  0  0  0  0  0  0
  148.7090  136.2110  156.6893 C   0  0  0  0  0  0  0  0  0  0  0  0
  149.5328  135.2528  155.8032 C   0  0  0  0  0  0  0  0  0  0  0  0
  148.5599  134.4163  154.9482 C   0  0  0  0  0  0  0  0  0  0  0  0
  147.7925  135.2068  154.0622 O   0  0  0  0  0  0  0  0  0  0  0  0
  150.6976  135.9325  155.0670 C   0  0  0  0  0  0  0  0  0  0  0  0
  151.6904  135.2530  155.8664 O   0  0  0  0  0  0  0  0  0  0  0  0
  150.6553  134.4761  156.5079 C   0  0  0  0  0  0  0  0  0  0  0  0
  150.4152  141.8947  159.2713 H   0  0  0  0  0  0  0  0  0  0  0  0
  152.8899  143.5439  158.6139 H   0  0  0  0  0  0  0  0  0  0  0  0
  149.5760  145.1343  158.1196 H   0  0  0  0  0  0  0  0  0  0  0  0
  149.3986  142.7851  157.3038 H   0  0  0  0  0  0  0  0  0  0  0  0
  150.9479  143.3514  156.6455 H   0  0  0  0  0  0  0  0  0  0  0  0
  153.2472  143.3252  161.0766 H   0  0  0  0  0  0  0  0  0  0  0  0
  151.7826  142.3645  161.2148 H   0  0  0  0  0  0  0  0  0  0  0  0
  154.2855  141.6902  159.5761 H   0  0  0  0  0  0  0  0  0  0  0  0
  153.7165  140.8194  160.9751 H   0  0  0  0  0  0  0  0  0  0  0  0
  153.2081  139.6637  158.7648 H   0  0  0  0  0  0  0  0  0  0  0  0
  151.7885  139.9474  159.7483 H   0  0  0  0  0  0  0  0  0  0  0  0
  150.5579  140.1878  153.9900 H   0  0  0  0  0  0  0  0  0  0  0  0
  149.5013  136.7924  159.3612 H   0  0  0  0  0  0  0  0  0  0  0  0
  148.2371  135.6656  157.5075 H   0  0  0  0  0  0  0  0  0  0  0  0
  147.8870  136.6430  156.1171 H   0  0  0  0  0  0  0  0  0  0  0  0
  149.0989  133.6927  154.3381 H   0  0  0  0  0  0  0  0  0  0  0  0
  147.8717  133.8528  155.5790 H   0  0  0  0  0  0  0  0  0  0  0  0
  148.2949  135.3518  153.2749 H   0  0  0  0  0  0  0  0  0  0  0  0
  150.7835  135.6793  154.0101 H   0  0  0  0  0  0  0  0  0  0  0  0
  150.7347  137.0144  155.2007 H   0  0  0  0  0  0  0  0  0  0  0  0
  150.6741  134.5888  157.5905 H   0  0  0  0  0  0  0  0  0  0  0  0
  150.7117  133.4216  156.2348 H   0  0  0  0  0  0  0  0  0  0  0  0
  1  2  2  0  0  0  0
  2  6  1  0  0  0  0
  2  3  1  0  0  0  0
  3  4  1  0  0  0  0
  3 29  1  0  0  0  0
  4  5  1  0  0  0  0
  4 30  1  0  0  0  0
  4 31  1  0  0  0  0
  5 27  1  0  0  0  0
  5 10  1  0  0  0  0
  5  6  1  0  0  0  0
  6 28  1  0  0  0  0
  6  7  1  0  0  0  0
  7  8  1  0  0  0  0
  7 32  1  0  0  0  0
  7 33  1  0  0  0  0
  8  9  1  0  0  0  0
  8 34  1  0  0  0  0
  8 35  1  0  0  0  0
  9 10  1  0  0  0  0
  9 36  1  0  0  0  0
  9 37  1  0  0  0  0
 10 11  1  0  0  0  0
 11 16  1  0  0  0  0
 11 12  2  0  0  0  0
 12 13  1  0  0  0  0
 13 14  2  0  0  0  0
 13 38  1  0  0  0  0
 14 15  1  0  0  0  0
 15 19  1  0  0  0  0
 15 16  2  0  0  0  0
 16 17  1  0  0  0  0
 17 18  2  0  0  0  0
 18 19  1  0  0  0  0
 18 39  1  0  0  0  0
 19 20  1  0  0  0  0
 20 21  1  0  0  0  0
 20 40  1  0  0  0  0
 20 41  1  0  0  0  0
 21 26  1  0  0  0  0
 21 22  1  0  0  0  0
 21 24  1  0  0  0  0
 22 23  1  0  0  0  0
 22 42  1  0  0  0  0
 22 43  1  0  0  0  0
 23 44  1  0  0  0  0
 24 25  1  0  0  0  0
 24 45  1  0  0  0  0
 24 46  1  0  0  0  0
 25 26  1  0  0  0  0
 26 47  1  0  0  0  0
 26 48  1  0  0  0  0
M  END
> <s_m_source_file>
AV-unprocessed.smi

> <i_m_source_file_index>
209

> <i_lp_mmshare_version>
43012

> <i_f3d_flags>
0

> <s_epik_input>
W0NIMl0xW05IXUMoPU8pW0NAQEhdKFtDQEBIXTEyKVtDSDJdW0NIMl1bQ0gyXU4yYyhuW2NIXW4zKWMoYzM0KW5bY0hdbjRbQ0gyXUM1KFtDSDJdW09IXSlbQ0gyXU9bQ0gyXTU=

> <s_epik_cmdline>
J2VwaWtfcHl0aG9uJywgJy1waCcsICc3LjAnLCAnLXRuJywgJzgnLCAnLW1hJywgJzIwMCcsICctbWV0YWxfYmluZGluZycsICctaW1hZScsICc8aW5maWxlLm1hZT4nLCAnLW9tYWUnLCAnPG91dGZpbGUubWFlPic=

> <r_lp_tautomer_probability>
1

> <r_epik_Ionization_Penalty>
0.00113306

> <r_epik_Ionization_Penalty_Charging>
0

> <r_epik_Ionization_Penalty_Neutral>
0.00113306

> <r_epik_State_Penalty>
0.000624042

> <r_epik_Charging_Adjusted_Penalty>
0.000624042

> <i_epik_Tot_Q>
0

> <i_epik_Tot_abs_Q>
0

> <r_epik_Metal_State_Penalty>
-0

> <b_epik_Metal_Only>
0

> <s_lp_Force_Field>
OPLS_2005

> <r_lp_Energy>
56.7924

> <b_lp_Chiralities_Consistent>
1

> <s_lp_Variant>
AV-unprocessed.smi:209-3

> <Gold.Version>
5.8.1

> <Gold.Id.Protein>
6NUR|6NUR_protein|mol2

> <Gold.PLP.Fitness>
43.4480

> <Gold.PLP.PLP>
-36.3512

> <Gold.PLP.part.hbond>
-4.4174

> <Gold.PLP.part.metal>
0.0000

> <Gold.PLP.part.buried>
-2.9766

> <Gold.PLP.part.nonpolar>
-29.7848

> <Gold.PLP.part.repulsive>
0.4179

> <Gold.PLP.ligand.clash>
0.0000

> <Gold.PLP.ligand.torsion>
1.1316

> <Gold.PLP.Chemscore.Hbond>
2.9913

> <Gold.PLP.Chemscore.CHOScore>
0.0000

> <Gold.PLP.Chemscore.Metal>
0.0000

> <Gold.Chemscore.Hbonds>
donor molecule, donor type, donor heavy atom, donor atom, acceptor molecule, acceptor atom, score
      L1  H     3    29       P1  8029  0.99
      L1  H    23    44       P1  7948  1.00
      P1  H 10752 10764       L1    25  1.00

> <Gold.PLP.Chemscore.Internal.Correction>
0.3863

> <Gold.Rescore>
     Score         DG    S(hbond)    S(metal)    S(lipo)     H(rot)  DE(clash)    DE(int)     intcor
     11.63     -14.28       1.94        0.00      78.03       2.66       0.13       2.52       ----

> <Gold.Chemscore.Fitness>
11.6324

> <Gold.Chemscore.DG>
-14.2842

> <Gold.Chemscore.ZeroCoef>
-5.4800

> <Gold.Chemscore.Hbond>
1.9430

> <Gold.Chemscore.Metal>
0.0000

> <Gold.Chemscore.Lipo>
78.0293

> <Gold.Chemscore.Internal_Hbond>
0.0000

> <Gold.Chemscore.DEClash>
0.1299

> <Gold.Chemscore.DEInternal>
2.5219

> <Gold.Chemscore.Rot>
2.6620

> <Gold.Chemscore.Internal.Correction>
   9.000000E+99

> <Gold.Chemscore.Hbonds>
donor molecule, donor type, donor heavy atom, donor atom, acceptor molecule, acceptor atom, score
      L1  H     3    29       P1  8029  0.23
      L1  H    23    44       P1  7948  0.98
      P1  H 10752 10764       L1    25  0.29

> <Gold.Chemscore.Hbond.Weighted>
-6.4895

> <Gold.Chemscore.Metal.Weighted>
-0.0000

> <Gold.Chemscore.Lipo.Weighted>
-9.1294

> <Gold.Chemscore.Internal_Hbond.Weighted>
0.0000

> <Gold.Chemscore.DEClash.Weighted>
0.1299

> <Gold.Chemscore.DEInternal.Weighted>
2.5219

> <Gold.Chemscore.Rot.Weighted>
6.8148

> <Gold.Chemscore.Internal.Correction.Weighted>
   9.000000E+99

> <Gold.Protein.RotatedTorsions>
[ 6907 6896 6895 6894 ] final   67.06 input  -60.11 | X-H torsion
[ 7974 7965 7964 7962 ] final  -38.54 input  175.53 | X-H torsion
[ 8008 7997 7996 7995 ] final -156.97 input   59.86 | X-H torsion
[ 10167 10162 10161 10158 ] final  -50.65 input  -65.29 | X-H torsion
[ 10718 10713 10712 10709 ] final -159.51 input   66.30 | X-H torsion
[ 10763 10752 10751 10750 ] final  -38.08 input  -60.55 | X-H torsion
[ 11005 11000 10999 10996 ] final -122.59 input  -57.11 | X-H torsion

> <Gold.Protein.ActiveResidues>
 VAL166  LYS551  ARG553  GLY616  TRP617  ASP618  TYR619  PRO620  LYS621  CYS622 
 ASP623  PHE694  ASN695  SER759  ASP760  ASP761  ALA762  ILE779  LEU786  VAL792 
 PHE793  MET794  SER795  GLU796  ALA797  LYS798  CYS799  TRP800  GLU811  SER814 

> <Gold.Protein.RotatedAtoms>
  152.4525  134.5362  159.9825 H   0  0  0  0  0  0  0  0  0  0  0  0  # atno 6907 bound_to 6896
  151.5431  133.3423  159.2947 H   0  0  0  0  0  0  0  0  0  0  0  0  # atno 6908 bound_to 6896
  150.8459  134.7799  159.7033 H   0  0  0  0  0  0  0  0  0  0  0  0  # atno 6909 bound_to 6896
  146.0477  140.6523  142.9057 H   0  0  0  0  0  0  0  0  0  0  0  0  # atno 7974 bound_to 7965
  155.7253  140.0795  157.2313 H   0  0  0  0  0  0  0  0  0  0  0  0  # atno 8008 bound_to 7997
  154.4040  140.1605  156.2502 H   0  0  0  0  0  0  0  0  0  0  0  0  # atno 8009 bound_to 7997
  155.9159  140.3401  155.6137 H   0  0  0  0  0  0  0  0  0  0  0  0  # atno 8010 bound_to 7997
  140.6627  143.2649  151.4390 H   0  0  0  0  0  0  0  0  0  0  0  0  # atno 10167 bound_to 10162
  156.5692  130.8681  151.2832 H   0  0  0  0  0  0  0  0  0  0  0  0  # atno 10718 bound_to 10713
  153.9070  135.6796  153.4752 H   0  0  0  0  0  0  0  0  0  0  0  0  # atno 10763 bound_to 10752
  153.1099  135.4788  154.9014 H   0  0  0  0  0  0  0  0  0  0  0  0  # atno 10764 bound_to 10752
  154.7546  135.3194  154.8448 H   0  0  0  0  0  0  0  0  0  0  0  0  # atno 10765 bound_to 10752
  140.9984  134.0439  157.3569 H   0  0  0  0  0  0  0  0  0  0  0  0  # atno 11005 bound_to 11000
  144.7106  140.4025  143.7083 LP  0  0  0  0  0  0  0  0  0  0  0  0  # atno 17320 bound_to 7965
  145.6777  139.1612  143.2718 LP  0  0  0  0  0  0  0  0  0  0  0  0  # atno 17321 bound_to 7965
  139.5866  144.1591  152.2036 LP  0  0  0  0  0  0  0  0  0  0  0  0  # atno 17342 bound_to 10162
  140.0933  144.5602  150.7040 LP  0  0  0  0  0  0  0  0  0  0  0  0  # atno 17343 bound_to 10162
  157.7352  130.9758  150.2068 LP  0  0  0  0  0  0  0  0  0  0  0  0  # atno 17370 bound_to 10713
  156.2730  130.3724  149.8012 LP  0  0  0  0  0  0  0  0  0  0  0  0  # atno 17371 bound_to 10713
  139.9026  135.0170  156.7339 LP  0  0  0  0  0  0  0  0  0  0  0  0  # atno 17394 bound_to 11000
  140.6929  133.9374  155.7977 LP  0  0  0  0  0  0  0  0  0  0  0  0  # atno 17395 bound_to 11000

$$$$
