AV-unprocessed.smi:787|AV-procd|sdf|3727|dock7
  -GOLD-   22720 1163D 1   1.00000     0.00000
 Structure written by MMmdl.
 47 49  0  0  0  0  0  0  0  0  2 V2000
  147.4475  141.6529  156.8554 C   0  0  0  0  0  0  0  0  0  0  0  0
  148.7134  142.2322  156.4352 N   0  0  0  0  0  0  0  0  0  0  0  0
  149.8914  141.4729  156.4689 C   0  0  0  0  0  0  0  0  0  0  0  0
  150.9084  141.8402  157.2823 N   0  0  0  0  0  0  0  0  0  0  0  0
  152.0116  141.0806  157.2897 C   0  0  0  0  0  0  0  0  0  0  0  0
  152.2762  139.9683  156.5869 N   0  0  0  0  0  0  0  0  0  0  0  0
  151.2763  139.5977  155.7758 C   0  0  0  0  0  0  0  0  0  0  0  0
  151.2752  138.4951  154.9390 N   0  0  0  0  0  0  0  0  0  0  0  0
  150.0762  138.5872  154.3705 C   0  0  0  0  0  0  0  0  0  0  0  0
  149.2979  139.6291  154.7250 N   0  0  0  0  0  0  0  0  0  0  0  0
  147.9702  139.9299  154.2174 C   0  0  0  0  0  0  0  0  0  0  0  0
  147.5003  138.9275  153.1437 C   0  0  2  0  0  0  0  0  0  0  0  0
  146.7920  139.6488  152.1568 O   0  0  0  0  0  0  0  0  0  0  0  0
  146.5941  137.8002  153.6873 C   0  0  0  0  0  0  0  0  0  0  0  0
  146.3130  136.7737  152.6528 N   0  3  2  0  0  0  0  0  0  0  0  0
  145.1748  137.1489  151.7825 C   0  0  0  0  0  0  0  0  0  0  0  0
  146.1758  135.4040  153.2112 C   0  0  0  0  0  0  0  0  0  0  0  0
  145.7436  134.4152  152.1449 C   0  0  0  0  0  0  0  0  0  0  0  0
  146.7004  133.7839  151.3217 C   0  0  0  0  0  0  0  0  0  0  0  0
  146.2891  132.8642  150.3372 C   0  0  0  0  0  0  0  0  0  0  0  0
  144.9212  132.5738  150.1715 C   0  0  0  0  0  0  0  0  0  0  0  0
  143.9638  133.2043  150.9893 C   0  0  0  0  0  0  0  0  0  0  0  0
  144.3739  134.1240  151.9739 C   0  0  0  0  0  0  0  0  0  0  0  0
  150.0508  140.3226  155.6705 C   0  0  0  0  0  0  0  0  0  0  0  0
  146.6489  142.3869  156.7479 H   0  0  0  0  0  0  0  0  0  0  0  0
  147.4905  141.3456  157.9007 H   0  0  0  0  0  0  0  0  0  0  0  0
  147.1975  140.7850  156.2443 H   0  0  0  0  0  0  0  0  0  0  0  0
  148.7222  143.1671  156.0537 H   0  0  0  0  0  0  0  0  0  0  0  0
  152.7973  141.4090  157.9539 H   0  0  0  0  0  0  0  0  0  0  0  0
  149.7489  137.8590  153.6427 H   0  0  0  0  0  0  0  0  0  0  0  0
  147.2738  139.9356  155.0577 H   0  0  0  0  0  0  0  0  0  0  0  0
  147.9786  140.9443  153.8167 H   0  0  0  0  0  0  0  0  0  0  0  0
  148.3769  138.4988  152.6614 H   0  0  0  0  0  0  0  0  0  0  0  0
  146.5505  140.4923  152.5094 H   0  0  0  0  0  0  0  0  0  0  0  0
  147.0432  137.3051  154.5492 H   0  0  0  0  0  0  0  0  0  0  0  0
  145.6636  138.2440  154.0450 H   0  0  0  0  0  0  0  0  0  0  0  0
  144.2483  137.2084  152.3551 H   0  0  0  0  0  0  0  0  0  0  0  0
  145.0360  136.4222  150.9819 H   0  0  0  0  0  0  0  0  0  0  0  0
  145.3501  138.1178  151.3139 H   0  0  0  0  0  0  0  0  0  0  0  0
  147.1226  135.0506  153.6196 H   0  0  0  0  0  0  0  0  0  0  0  0
  145.4730  135.4036  154.0459 H   0  0  0  0  0  0  0  0  0  0  0  0
  147.7516  134.0001  151.4431 H   0  0  0  0  0  0  0  0  0  0  0  0
  147.0229  132.3812  149.7088 H   0  0  0  0  0  0  0  0  0  0  0  0
  144.6064  131.8682  149.4167 H   0  0  0  0  0  0  0  0  0  0  0  0
  142.9146  132.9818  150.8612 H   0  0  0  0  0  0  0  0  0  0  0  0
  143.6345  134.6030  152.5992 H   0  0  0  0  0  0  0  0  0  0  0  0
  147.1299  136.7609  152.0580 H   0  0  0  0  0  0  0  0  0  0  0  0
  1  2  1  0  0  0  0
  1 25  1  0  0  0  0
  1 26  1  0  0  0  0
  1 27  1  0  0  0  0
  2  3  1  0  0  0  0
  2 28  1  0  0  0  0
  3 24  1  0  0  0  0
  3  4  2  0  0  0  0
  4  5  1  0  0  0  0
  5  6  2  0  0  0  0
  5 29  1  0  0  0  0
  6  7  1  0  0  0  0
  7 24  2  0  0  0  0
  7  8  1  0  0  0  0
  8  9  2  0  0  0  0
  9 10  1  0  0  0  0
  9 30  1  0  0  0  0
 10 11  1  0  0  0  0
 10 24  1  0  0  0  0
 11 12  1  0  0  0  0
 11 31  1  0  0  0  0
 11 32  1  0  0  0  0
 12 13  1  0  0  0  0
 12 14  1  0  0  0  0
 12 33  1  0  0  0  0
 13 34  1  0  0  0  0
 14 15  1  0  0  0  0
 14 35  1  0  0  0  0
 14 36  1  0  0  0  0
 15 16  1  0  0  0  0
 15 17  1  0  0  0  0
 15 47  1  0  0  0  0
 16 37  1  0  0  0  0
 16 38  1  0  0  0  0
 16 39  1  0  0  0  0
 17 18  1  0  0  0  0
 17 40  1  0  0  0  0
 17 41  1  0  0  0  0
 18 23  1  0  0  0  0
 18 19  2  0  0  0  0
 19 20  1  0  0  0  0
 19 42  1  0  0  0  0
 20 21  2  0  0  0  0
 20 43  1  0  0  0  0
 21 22  1  0  0  0  0
 21 44  1  0  0  0  0
 22 23  2  0  0  0  0
 22 45  1  0  0  0  0
 23 46  1  0  0  0  0
M  CHG  1  15   1
M  END
> <s_m_source_file>
AV-unprocessed.smi

> <i_m_source_file_index>
787

> <i_lp_mmshare_version>
43012

> <i_f3d_flags>
0

> <s_epik_input>
bjFbY0hdbmMoW05IXVtDSDNdKWMoYzEyKW4oW2NIXW4yKVtDSDJdW0NASF0oW09IXSlbQ0gyXU4oW0NIM10pW0NIMl1jM1tjSF1bY0hdW2NIXVtjSF1bY0hdMw==

> <s_epik_cmdline>
J2VwaWtfcHl0aG9uJywgJy1waCcsICc3LjAnLCAnLXRuJywgJzgnLCAnLW1hJywgJzIwMCcsICctbWV0YWxfYmluZGluZycsICctaW1hZScsICc8aW5maWxlLm1hZT4nLCAnLW9tYWUnLCAnPG91dGZpbGUubWFlPic=

> <r_lp_tautomer_probability>
0.999987

> <r_epik_Ionization_Penalty>
0.0526284

> <r_epik_Ionization_Penalty_Charging>
0.0475377

> <r_epik_Ionization_Penalty_Neutral>
0.00509065

> <r_epik_State_Penalty>
0.0404888

> <r_epik_Charging_Adjusted_Penalty>
0.0880265

> <i_epik_Tot_Q>
1

> <i_epik_Tot_abs_Q>
1

> <r_epik_Metal_State_Penalty>
0.040507

> <b_epik_Metal_Only>
0

> <s_lp_Force_Field>
OPLS_2005

> <r_lp_Energy>
15.7703

> <b_lp_Chiralities_Consistent>
1

> <s_lp_Variant>
AV-unprocessed.smi:787-3

> <Gold.Version>
5.8.1

> <Gold.Id.Protein>
6NUR|6NUR_protein|mol2

> <Gold.PLP.Fitness>
46.6801

> <Gold.PLP.PLP>
-35.8727

> <Gold.PLP.part.hbond>
-4.2882

> <Gold.PLP.part.metal>
0.0000

> <Gold.PLP.part.buried>
-3.3998

> <Gold.PLP.part.nonpolar>
-28.7841

> <Gold.PLP.part.repulsive>
0.2169

> <Gold.PLP.ligand.clash>
0.0000

> <Gold.PLP.ligand.torsion>
1.9264

> <Gold.PLP.Chemscore.Hbond>
3.7713

> <Gold.PLP.Chemscore.CHOScore>
1.0000

> <Gold.PLP.Chemscore.Metal>
0.0000

> <Gold.Chemscore.Hbonds>
donor molecule, donor type, donor heavy atom, donor atom, acceptor molecule, acceptor atom, score
      L1  H     2    28       P1  8028  1.00
      L1  H    15    47       P1  7948  1.92
      P1  H  7997  8008       L1     6  0.68
      L1  C     9    30       P1  7948  1.00

> <Gold.PLP.Chemscore.Internal.Correction>
0.3462

> <Gold.Rescore>
     Score         DG    S(hbond)    S(metal)    S(lipo)     H(rot)  DE(clash)    DE(int)     intcor
      9.33     -12.37       2.22        0.00      65.27       3.19       0.03       3.01       ----

> <Gold.Chemscore.Fitness>
9.3318

> <Gold.Chemscore.DG>
-12.3727

> <Gold.Chemscore.ZeroCoef>
-5.4800

> <Gold.Chemscore.Hbond>
2.2243

> <Gold.Chemscore.Metal>
0.0000

> <Gold.Chemscore.Lipo>
65.2739

> <Gold.Chemscore.Internal_Hbond>
0.0000

> <Gold.Chemscore.DEClash>
0.0270

> <Gold.Chemscore.DEInternal>
3.0138

> <Gold.Chemscore.Rot>
3.1928

> <Gold.Chemscore.Internal.Correction>
   9.000000E+99

> <Gold.Chemscore.Hbonds>
donor molecule, donor type, donor heavy atom, donor atom, acceptor molecule, acceptor atom, score
      L1  H     2    28       P1  8028  0.98
      L1  H    15    47       P1  7948  0.92
      P1  H  7997  8008       L1     6  0.11

> <Gold.Chemscore.Hbond.Weighted>
-7.4292

> <Gold.Chemscore.Metal.Weighted>
-0.0000

> <Gold.Chemscore.Lipo.Weighted>
-7.6370

> <Gold.Chemscore.Internal_Hbond.Weighted>
0.0000

> <Gold.Chemscore.DEClash.Weighted>
0.0270

> <Gold.Chemscore.DEInternal.Weighted>
3.0138

> <Gold.Chemscore.Rot.Weighted>
8.1736

> <Gold.Chemscore.Internal.Correction.Weighted>
   9.000000E+99

> <Gold.Protein.RotatedTorsions>
[ 6907 6896 6895 6894 ] final -161.21 input  -60.11 | X-H torsion
[ 7974 7965 7964 7962 ] final -140.74 input  175.53 | X-H torsion
[ 8008 7997 7996 7995 ] final  -62.55 input   59.86 | X-H torsion
[ 10167 10162 10161 10158 ] final -119.91 input  -65.29 | X-H torsion
[ 10718 10713 10712 10709 ] final -157.17 input   66.30 | X-H torsion
[ 10763 10752 10751 10750 ] final   62.86 input  -60.55 | X-H torsion
[ 11005 11000 10999 10996 ] final  -22.58 input  -57.11 | X-H torsion

> <Gold.Protein.ActiveResidues>
 VAL166  LYS551  ARG553  GLY616  TRP617  ASP618  TYR619  PRO620  LYS621  CYS622 
 ASP623  PHE694  ASN695  SER759  ASP760  ASP761  ALA762  ILE779  LEU786  VAL792 
 PHE793  MET794  SER795  GLU796  ALA797  LYS798  CYS799  TRP800  GLU811  SER814 

> <Gold.Protein.RotatedAtoms>
  151.3612  133.3889  159.2689 H   0  0  0  0  0  0  0  0  0  0  0  0  # atno 6907 bound_to 6896
  150.9724  134.9096  159.7806 H   0  0  0  0  0  0  0  0  0  0  0  0  # atno 6908 bound_to 6896
  152.5189  134.3574  159.9325 H   0  0  0  0  0  0  0  0  0  0  0  0  # atno 6909 bound_to 6896
  144.8573  140.6163  143.5351 H   0  0  0  0  0  0  0  0  0  0  0  0  # atno 7974 bound_to 7965
  154.4506  140.0993  156.6605 H   0  0  0  0  0  0  0  0  0  0  0  0  # atno 8008 bound_to 7997
  155.5299  140.3481  155.4405 H   0  0  0  0  0  0  0  0  0  0  0  0  # atno 8009 bound_to 7997
  156.0672  140.1340  156.9861 H   0  0  0  0  0  0  0  0  0  0  0  0  # atno 8010 bound_to 7997
  140.0415  143.5148  152.2127 H   0  0  0  0  0  0  0  0  0  0  0  0  # atno 10167 bound_to 10162
  156.5366  130.8545  151.2735 H   0  0  0  0  0  0  0  0  0  0  0  0  # atno 10718 bound_to 10713
  152.9997  135.5450  154.6261 H   0  0  0  0  0  0  0  0  0  0  0  0  # atno 10763 bound_to 10752
  154.5549  135.2829  155.0976 H   0  0  0  0  0  0  0  0  0  0  0  0  # atno 10764 bound_to 10752
  154.2201  135.6452  153.5195 H   0  0  0  0  0  0  0  0  0  0  0  0  # atno 10765 bound_to 10752
  140.8670  133.7747  156.0142 H   0  0  0  0  0  0  0  0  0  0  0  0  # atno 11005 bound_to 11000
  145.4381  139.1539  143.3985 LP  0  0  0  0  0  0  0  0  0  0  0  0  # atno 17320 bound_to 7965
  146.2833  140.4500  142.8768 LP  0  0  0  0  0  0  0  0  0  0  0  0  # atno 17321 bound_to 7965
  139.6010  144.7582  151.3171 LP  0  0  0  0  0  0  0  0  0  0  0  0  # atno 17342 bound_to 10162
  140.7258  143.7008  150.7846 LP  0  0  0  0  0  0  0  0  0  0  0  0  # atno 17343 bound_to 10162
  157.7412  130.9866  150.2433 LP  0  0  0  0  0  0  0  0  0  0  0  0  # atno 17370 bound_to 10713
  156.3010  130.3758  149.7750 LP  0  0  0  0  0  0  0  0  0  0  0  0  # atno 17371 bound_to 10713
  140.8617  134.2833  157.5231 LP  0  0  0  0  0  0  0  0  0  0  0  0  # atno 17394 bound_to 11000
  139.8710  134.9521  156.4106 LP  0  0  0  0  0  0  0  0  0  0  0  0  # atno 17395 bound_to 11000

$$$$
