AV-unprocessed.smi:2351|AV-procd|sdf|9375|dock9
  -GOLD-   2272013 03D 1   1.00000     0.00000
 Structure written by MMmdl.
 47 49  0  0  0  0  0  0  0  0  2 V2000
  144.4019  136.6543  152.3751 O   0  0  0  0  0  0  0  0  0  0  0  0
  145.6164  136.4557  152.3869 C   0  0  0  0  0  0  0  0  0  0  0  0
  146.2310  135.3417  151.9536 N   0  0  0  0  0  0  0  0  0  0  0  0
  145.6605  134.1722  151.3799 C   0  0  0  0  0  0  0  0  0  0  0  0
  144.3249  134.0799  150.9182 C   0  0  0  0  0  0  0  0  0  0  0  0
  143.8795  132.8545  150.3826 C   0  0  0  0  0  0  0  0  0  0  0  0
  144.6574  131.7549  150.2916 N   0  0  0  0  0  0  0  0  0  0  0  0
  145.9256  131.8428  150.7450 C   0  0  0  0  0  0  0  0  0  0  0  0
  146.4697  133.0191  151.2986 C   0  0  0  0  0  0  0  0  0  0  0  0
  147.7510  133.0380  151.7393 F   0  0  0  0  0  0  0  0  0  0  0  0
  146.5046  137.3575  152.8302 N   0  0  0  0  0  0  0  0  0  0  0  0
  146.1707  138.6880  153.3304 C   0  0  2  0  0  0  0  0  0  0  0  0
  147.3621  139.6373  153.1309 C   0  0  0  0  0  0  0  0  0  0  0  0
  147.0665  141.0288  153.7155 C   0  0  0  0  0  0  0  0  0  0  0  0
  146.7057  140.9431  155.1548 N   0  3  1  0  0  0  0  0  0  0  0  0
  146.5470  142.2788  155.7874 C   0  0  0  0  0  0  0  0  0  0  0  0
  145.2625  142.9927  155.3247 C   0  0  1  0  0  0  0  0  0  0  0  0
  144.8614  144.1475  156.2215 C   0  0  0  0  0  0  0  0  0  0  0  0
  143.8963  144.9249  155.3325 C   0  0  0  0  0  0  0  0  0  0  0  0
  144.3462  144.7137  153.9979 O   0  0  0  0  0  0  0  0  0  0  0  0
  145.3522  143.7066  153.9745 C   0  0  0  0  0  0  0  0  0  0  0  0
  145.5334  140.0538  155.3695 C   0  0  0  0  0  0  0  0  0  0  0  0
  145.7977  138.6410  154.8228 C   0  0  0  0  0  0  0  0  0  0  0  0
  147.2402  135.3585  151.9689 H   0  0  0  0  0  0  0  0  0  0  0  0
  143.6357  134.9080  150.9723 H   0  0  0  0  0  0  0  0  0  0  0  0
  142.8665  132.7538  150.0224 H   0  0  0  0  0  0  0  0  0  0  0  0
  146.5250  130.9479  150.6659 H   0  0  0  0  0  0  0  0  0  0  0  0
  147.4836  137.1122  152.8023 H   0  0  0  0  0  0  0  0  0  0  0  0
  145.3239  139.0804  152.7636 H   0  0  0  0  0  0  0  0  0  0  0  0
  148.2516  139.2247  153.6099 H   0  0  0  0  0  0  0  0  0  0  0  0
  147.5956  139.7270  152.0692 H   0  0  0  0  0  0  0  0  0  0  0  0
  147.9492  141.6580  153.5937 H   0  0  0  0  0  0  0  0  0  0  0  0
  146.2558  141.5061  153.1629 H   0  0  0  0  0  0  0  0  0  0  0  0
  146.4784  142.1586  156.8699 H   0  0  0  0  0  0  0  0  0  0  0  0
  147.4296  142.8978  155.6176 H   0  0  0  0  0  0  0  0  0  0  0  0
  144.4362  142.2800  155.2980 H   0  0  0  0  0  0  0  0  0  0  0  0
  144.4063  143.8261  157.1589 H   0  0  0  0  0  0  0  0  0  0  0  0
  145.7290  144.7655  156.4582 H   0  0  0  0  0  0  0  0  0  0  0  0
  142.8861  144.5247  155.4250 H   0  0  0  0  0  0  0  0  0  0  0  0
  143.8647  145.9861  155.5806 H   0  0  0  0  0  0  0  0  0  0  0  0
  146.3210  144.1940  153.8565 H   0  0  0  0  0  0  0  0  0  0  0  0
  145.2069  143.0295  153.1327 H   0  0  0  0  0  0  0  0  0  0  0  0
  145.2983  139.9870  156.4307 H   0  0  0  0  0  0  0  0  0  0  0  0
  144.6566  140.4826  154.8815 H   0  0  0  0  0  0  0  0  0  0  0  0
  144.9126  138.0208  154.9714 H   0  0  0  0  0  0  0  0  0  0  0  0
  146.6018  138.1745  155.3938 H   0  0  0  0  0  0  0  0  0  0  0  0
  147.4941  140.5069  155.6114 H   0  0  0  0  0  0  0  0  0  0  0  0
  1  2  2  0  0  0  0
  2  3  1  0  0  0  0
  2 11  1  0  0  0  0
  3  4  1  0  0  0  0
  3 24  1  0  0  0  0
  4  9  1  0  0  0  0
  4  5  2  0  0  0  0
  5  6  1  0  0  0  0
  5 25  1  0  0  0  0
  6  7  2  0  0  0  0
  6 26  1  0  0  0  0
  7  8  1  0  0  0  0
  8  9  2  0  0  0  0
  8 27  1  0  0  0  0
  9 10  1  0  0  0  0
 11 12  1  0  0  0  0
 11 28  1  0  0  0  0
 12 23  1  0  0  0  0
 12 13  1  0  0  0  0
 12 29  1  0  0  0  0
 13 14  1  0  0  0  0
 13 30  1  0  0  0  0
 13 31  1  0  0  0  0
 14 15  1  0  0  0  0
 14 32  1  0  0  0  0
 14 33  1  0  0  0  0
 15 16  1  0  0  0  0
 15 22  1  0  0  0  0
 15 47  1  0  0  0  0
 16 17  1  0  0  0  0
 16 34  1  0  0  0  0
 16 35  1  0  0  0  0
 17 21  1  0  0  0  0
 17 18  1  0  0  0  0
 17 36  1  0  0  0  0
 18 19  1  0  0  0  0
 18 37  1  0  0  0  0
 18 38  1  0  0  0  0
 19 20  1  0  0  0  0
 19 39  1  0  0  0  0
 19 40  1  0  0  0  0
 20 21  1  0  0  0  0
 21 41  1  0  0  0  0
 21 42  1  0  0  0  0
 22 23  1  0  0  0  0
 22 43  1  0  0  0  0
 22 44  1  0  0  0  0
 23 45  1  0  0  0  0
 23 46  1  0  0  0  0
M  CHG  1  15   1
M  END
> <s_m_source_file>
AV-unprocessed.smi

> <i_m_source_file_index>
2351

> <i_lp_mmshare_version>
43012

> <i_f3d_flags>
0

> <s_epik_input>
RmMxW2NIXW5bY0hdW2NIXWMxW05IXUMoPU8pW05IXVtDSF0yW0NIMl1bQ0gyXU4oW0NIMl1bQ0gyXTIpW0NIMl1bQ0BASF0zW0NIMl1bQ0gyXU9bQ0gyXTM=

> <s_epik_cmdline>
J2VwaWtfcHl0aG9uJywgJy1waCcsICc3LjAnLCAnLXRuJywgJzgnLCAnLW1hJywgJzIwMCcsICctbWV0YWxfYmluZGluZycsICctaW1hZScsICc8aW5maWxlLm1hZT4nLCAnLW9tYWUnLCAnPG91dGZpbGUubWFlPic=

> <r_epik_Ionization_Penalty>
0.0102464

> <r_epik_Ionization_Penalty_Charging>
0.00747775

> <r_epik_Ionization_Penalty_Neutral>
0.00276864

> <r_epik_State_Penalty>
0.00558817

> <r_epik_Charging_Adjusted_Penalty>
0.0130659

> <i_epik_Tot_Q>
1

> <i_epik_Tot_abs_Q>
1

> <r_epik_Metal_State_Penalty>
-0

> <b_epik_Metal_Only>
0

> <s_lp_Force_Field>
OPLS_2005

> <r_lp_Energy>
39.8259

> <b_lp_Chiralities_Consistent>
1

> <s_lp_Variant>
AV-unprocessed.smi:2351-2

> <Gold.Version>
5.8.1

> <Gold.Id.Protein>
6NUR|6NUR_protein|mol2

> <Gold.PLP.Fitness>
44.3695

> <Gold.PLP.PLP>
-34.2393

> <Gold.PLP.part.hbond>
-2.0000

> <Gold.PLP.part.metal>
0.0000

> <Gold.PLP.part.buried>
-4.1019

> <Gold.PLP.part.nonpolar>
-29.1466

> <Gold.PLP.part.repulsive>
0.4979

> <Gold.PLP.ligand.clash>
0.0000

> <Gold.PLP.ligand.torsion>
0.6123

> <Gold.PLP.Chemscore.Hbond>
1.8960

> <Gold.PLP.Chemscore.CHOScore>
1.8806

> <Gold.PLP.Chemscore.Metal>
0.0000

> <Gold.Chemscore.Hbonds>
donor molecule, donor type, donor heavy atom, donor atom, acceptor molecule, acceptor atom, score
      L1  H     3    24       P1  7948  1.00
      L1  H    11    28       P1  7948  0.96
      L1  C     6    26       P1 10186  0.98
      L1  C     8    27       P1 10747  0.93

> <Gold.PLP.Chemscore.Internal.Correction>
0.0249

> <Gold.Rescore>
     Score         DG    S(hbond)    S(metal)    S(lipo)     H(rot)  DE(clash)    DE(int)     intcor
     15.30     -17.48       1.94        0.00      78.92       1.45       0.61       1.57       ----

> <Gold.Chemscore.Fitness>
15.3004

> <Gold.Chemscore.DG>
-17.4806

> <Gold.Chemscore.ZeroCoef>
-5.4800

> <Gold.Chemscore.Hbond>
1.9386

> <Gold.Chemscore.Metal>
0.0000

> <Gold.Chemscore.Lipo>
78.9176

> <Gold.Chemscore.Internal_Hbond>
0.0000

> <Gold.Chemscore.DEClash>
0.6065

> <Gold.Chemscore.DEInternal>
1.5736

> <Gold.Chemscore.Rot>
1.4483

> <Gold.Chemscore.Internal.Correction>
   9.000000E+99

> <Gold.Chemscore.Hbonds>
donor molecule, donor type, donor heavy atom, donor atom, acceptor molecule, acceptor atom, score
      L1  H     3    24       P1  7948  0.97
      L1  H    11    28       P1  7948  0.91

> <Gold.Chemscore.Hbond.Weighted>
-6.4750

> <Gold.Chemscore.Metal.Weighted>
-0.0000

> <Gold.Chemscore.Lipo.Weighted>
-9.2334

> <Gold.Chemscore.Internal_Hbond.Weighted>
0.0000

> <Gold.Chemscore.DEClash.Weighted>
0.6065

> <Gold.Chemscore.DEInternal.Weighted>
1.5736

> <Gold.Chemscore.Rot.Weighted>
3.7077

> <Gold.Chemscore.Internal.Correction.Weighted>
   9.000000E+99

> <Gold.Protein.RotatedTorsions>
[ 6907 6896 6895 6894 ] final  -19.04 input  -60.11 | X-H torsion
[ 7974 7965 7964 7962 ] final -159.33 input  175.53 | X-H torsion
[ 8008 7997 7996 7995 ] final  149.15 input   59.86 | X-H torsion
[ 10167 10162 10161 10158 ] final  -23.74 input  -65.29 | X-H torsion
[ 10718 10713 10712 10709 ] final   40.44 input   66.30 | X-H torsion
[ 10763 10752 10751 10750 ] final -173.08 input  -60.55 | X-H torsion
[ 11005 11000 10999 10996 ] final   73.10 input  -57.11 | X-H torsion

> <Gold.Protein.ActiveResidues>
 VAL166  LYS551  ARG553  GLY616  TRP617  ASP618  TYR619  PRO620  LYS621  CYS622 
 ASP623  PHE694  ASN695  SER759  ASP760  ASP761  ALA762  ILE779  LEU786  VAL792 
 PHE793  MET794  SER795  GLU796  ALA797  LYS798  CYS799  TRP800  GLU811  SER814 

> <Gold.Protein.RotatedAtoms>
  151.2691  135.0678  159.9126 H   0  0  0  0  0  0  0  0  0  0  0  0  # atno 6907 bound_to 6896
  152.5353  134.0150  159.7966 H   0  0  0  0  0  0  0  0  0  0  0  0  # atno 6908 bound_to 6896
  151.0385  133.5677  159.2684 H   0  0  0  0  0  0  0  0  0  0  0  0  # atno 6909 bound_to 6896
  144.7469  140.3700  143.6078 H   0  0  0  0  0  0  0  0  0  0  0  0  # atno 7974 bound_to 7965
  156.2765  140.2109  156.5812 H   0  0  0  0  0  0  0  0  0  0  0  0  # atno 8008 bound_to 7997
  154.7057  140.0516  157.0525 H   0  0  0  0  0  0  0  0  0  0  0  0  # atno 8009 bound_to 7997
  155.0674  140.3173  155.4644 H   0  0  0  0  0  0  0  0  0  0  0  0  # atno 8010 bound_to 7997
  140.7288  143.4416  151.0648 H   0  0  0  0  0  0  0  0  0  0  0  0  # atno 10167 bound_to 10162
  157.3822  130.7760  149.7202 H   0  0  0  0  0  0  0  0  0  0  0  0  # atno 10718 bound_to 10713
  154.6120  135.2865  155.0422 H   0  0  0  0  0  0  0  0  0  0  0  0  # atno 10763 bound_to 10752
  154.1648  135.6482  153.4998 H   0  0  0  0  0  0  0  0  0  0  0  0  # atno 10764 bound_to 10752
  153.0199  135.5387  154.6877 H   0  0  0  0  0  0  0  0  0  0  0  0  # atno 10765 bound_to 10752
  139.9457  134.7318  156.0986 H   0  0  0  0  0  0  0  0  0  0  0  0  # atno 11005 bound_to 11000
  145.7087  139.1679  143.2551 LP  0  0  0  0  0  0  0  0  0  0  0  0  # atno 17320 bound_to 7965
  146.1362  140.7119  142.9388 LP  0  0  0  0  0  0  0  0  0  0  0  0  # atno 17321 bound_to 7965
  139.8084  143.7986  152.3169 LP  0  0  0  0  0  0  0  0  0  0  0  0  # atno 17342 bound_to 10162
  139.8027  144.7368  150.9803 LP  0  0  0  0  0  0  0  0  0  0  0  0  # atno 17343 bound_to 10162
  155.9778  130.4058  150.3687 LP  0  0  0  0  0  0  0  0  0  0  0  0  # atno 17370 bound_to 10713
  157.1792  131.0388  151.2757 LP  0  0  0  0  0  0  0  0  0  0  0  0  # atno 17371 bound_to 10713
  141.1106  133.6644  156.2970 LP  0  0  0  0  0  0  0  0  0  0  0  0  # atno 17394 bound_to 11000
  140.5841  134.5716  157.5486 LP  0  0  0  0  0  0  0  0  0  0  0  0  # atno 17395 bound_to 11000

$$$$
