AV-unprocessed.smi:3116|AV-procd|sdf|11865|dock2
  -GOLD-   2272017243D 1   1.00000     0.00000
 Structure written by MMmdl.
 34 34  0  0  0  0  0  0  0  0  2 V2000
  147.9322  131.9397  153.9238 C   0  0  0  0  0  0  0  0  0  0  0  0
  148.6056  133.2135  153.3911 C   0  0  1  0  0  0  0  0  0  0  0  0
  147.6290  133.9985  152.6000 N   0  3  0  0  0  0  0  0  0  0  0  0
  146.2527  134.0746  153.1506 C   0  0  1  0  0  0  0  0  0  0  0  0
  146.2437  134.9998  154.3825 C   0  0  0  0  0  0  0  0  0  0  0  0
  145.2671  134.5408  152.0469 C   0  0  2  0  0  0  0  0  0  0  0  0
  143.8469  134.8264  152.5720 C   0  0  0  0  0  0  0  0  0  0  0  0
  145.2081  133.5666  150.9618 N   0  0  0  0  0  0  0  0  0  0  0  0
  144.1739  133.3050  150.0839 C   0  0  0  0  0  0  0  0  0  0  0  0
  144.5718  132.2786  149.2764 C   0  0  0  0  0  0  0  0  0  0  0  0
  145.8756  131.9630  149.7489 C   0  0  0  0  0  0  0  0  0  0  0  0
  146.2495  132.7288  150.7612 N   0  0  0  0  0  0  0  0  0  0  0  0
  149.1723  134.0337  154.5589 C   0  0  0  0  0  0  0  0  0  0  0  0
  149.5005  135.3038  154.3088 N   0  0  0  0  0  0  0  0  0  0  0  0
  149.3254  133.5262  155.6683 O   0  0  0  0  0  0  0  0  0  0  0  0
  148.6332  131.3287  154.4941 H   0  0  0  0  0  0  0  0  0  0  0  0
  147.5573  131.3245  153.1051 H   0  0  0  0  0  0  0  0  0  0  0  0
  147.0886  132.1733  154.5752 H   0  0  0  0  0  0  0  0  0  0  0  0
  149.4266  132.9113  152.7396 H   0  0  0  0  0  0  0  0  0  0  0  0
  147.9734  134.9415  152.4920 H   0  0  0  0  0  0  0  0  0  0  0  0
  145.9467  133.0765  153.4681 H   0  0  0  0  0  0  0  0  0  0  0  0
  145.2724  135.0042  154.8763 H   0  0  0  0  0  0  0  0  0  0  0  0
  146.4830  136.0274  154.1069 H   0  0  0  0  0  0  0  0  0  0  0  0
  146.9701  134.6821  155.1302 H   0  0  0  0  0  0  0  0  0  0  0  0
  145.6435  135.4756  151.6262 H   0  0  0  0  0  0  0  0  0  0  0  0
  143.8311  135.6843  153.2437 H   0  0  0  0  0  0  0  0  0  0  0  0
  143.4390  133.9724  153.1133 H   0  0  0  0  0  0  0  0  0  0  0  0
  143.1656  135.0566  151.7519 H   0  0  0  0  0  0  0  0  0  0  0  0
  143.2488  133.8619  150.1059 H   0  0  0  0  0  0  0  0  0  0  0  0
  144.0139  131.8185  148.4744 H   0  0  0  0  0  0  0  0  0  0  0  0
  146.5544  131.2022  149.3925 H   0  0  0  0  0  0  0  0  0  0  0  0
  149.8698  135.8889  155.0445 H   0  0  0  0  0  0  0  0  0  0  0  0
  149.3699  135.6801  153.3804 H   0  0  0  0  0  0  0  0  0  0  0  0
  147.5788  133.5724  151.6845 H   0  0  0  0  0  0  0  0  0  0  0  0
  1  2  1  0  0  0  0
  1 16  1  0  0  0  0
  1 17  1  0  0  0  0
  1 18  1  0  0  0  0
  2  3  1  0  0  0  0
  2 13  1  0  0  0  0
  2 19  1  0  0  0  0
  3  4  1  0  0  0  0
  3 20  1  0  0  0  0
  3 34  1  0  0  0  0
  4  5  1  0  0  0  0
  4  6  1  0  0  0  0
  4 21  1  0  0  0  0
  5 22  1  0  0  0  0
  5 23  1  0  0  0  0
  5 24  1  0  0  0  0
  6  7  1  0  0  0  0
  6  8  1  0  0  0  0
  6 25  1  0  0  0  0
  7 26  1  0  0  0  0
  7 27  1  0  0  0  0
  7 28  1  0  0  0  0
  8 12  1  0  0  0  0
  8  9  1  0  0  0  0
  9 10  2  0  0  0  0
  9 29  1  0  0  0  0
 10 11  1  0  0  0  0
 10 30  1  0  0  0  0
 11 12  2  0  0  0  0
 11 31  1  0  0  0  0
 13 14  1  0  0  0  0
 13 15  2  0  0  0  0
 14 32  1  0  0  0  0
 14 33  1  0  0  0  0
M  CHG  1   3   1
M  END
> <s_m_source_file>
AV-unprocessed.smi

> <i_m_source_file_index>
3116

> <i_lp_mmshare_version>
43012

> <i_f3d_flags>
0

> <s_epik_input>
W05IMl1DKD1PKVtDQEhdKFtDSDNdKVtOSF1bQ0BIXShbQ0gzXSlbQ0BIXShbQ0gzXSluMVtjSF1bY0hdW2NIXW4x

> <s_epik_cmdline>
J2VwaWtfcHl0aG9uJywgJy1waCcsICc3LjAnLCAnLXRuJywgJzgnLCAnLW1hJywgJzIwMCcsICctbWV0YWxfYmluZGluZycsICctaW1hZScsICc8aW5maWxlLm1hZT4nLCAnLW9tYWUnLCAnPG91dGZpbGUubWFlPic=

> <r_lp_tautomer_probability>
1

> <r_epik_Ionization_Penalty>
0.15658

> <r_epik_Ionization_Penalty_Charging>
0.156568

> <r_epik_Ionization_Penalty_Neutral>
1.19778e-05

> <r_epik_State_Penalty>
0.145866

> <r_epik_Charging_Adjusted_Penalty>
0.302434

> <i_epik_Tot_Q>
1

> <i_epik_Tot_abs_Q>
1

> <r_epik_Metal_State_Penalty>
0.146064

> <b_epik_Metal_Only>
0

> <s_lp_Force_Field>
OPLS_2005

> <r_lp_Energy>
9.00386

> <b_lp_Chiralities_Consistent>
1

> <s_lp_Variant>
AV-unprocessed.smi:3116-4

> <Gold.Version>
5.8.1

> <Gold.Id.Protein>
6NUR|6NUR_protein|mol2

> <Gold.PLP.Fitness>
38.7681

> <Gold.PLP.PLP>
-27.0433

> <Gold.PLP.part.hbond>
-2.0000

> <Gold.PLP.part.metal>
0.0000

> <Gold.PLP.part.buried>
-3.0377

> <Gold.PLP.part.nonpolar>
-21.1876

> <Gold.PLP.part.repulsive>
0.2472

> <Gold.PLP.ligand.clash>
0.0000

> <Gold.PLP.ligand.torsion>
1.5136

> <Gold.PLP.Chemscore.Hbond>
3.0000

> <Gold.PLP.Chemscore.CHOScore>
1.8765

> <Gold.PLP.Chemscore.Metal>
0.0000

> <Gold.Chemscore.Hbonds>
donor molecule, donor type, donor heavy atom, donor atom, acceptor molecule, acceptor atom, score
      L1  H     3    20       P1  7948  2.00
      L1  H    14    33       P1  7948  1.00
      L1  C     9    29       P1 10186  1.00
      L1  C    11    31       P1 10747  0.81

> <Gold.PLP.Chemscore.Internal.Correction>
0.1225

> <Gold.Rescore>
     Score         DG    S(hbond)    S(metal)    S(lipo)     H(rot)  DE(clash)    DE(int)     intcor
      7.85     -11.88       1.88        0.00      54.50       2.45       0.08       3.95       ----

> <Gold.Chemscore.Fitness>
7.8476

> <Gold.Chemscore.DG>
-11.8775

> <Gold.Chemscore.ZeroCoef>
-5.4800

> <Gold.Chemscore.Hbond>
1.8814

> <Gold.Chemscore.Metal>
0.0000

> <Gold.Chemscore.Lipo>
54.5035

> <Gold.Chemscore.Internal_Hbond>
0.0000

> <Gold.Chemscore.DEClash>
0.0833

> <Gold.Chemscore.DEInternal>
3.9466

> <Gold.Chemscore.Rot>
2.4465

> <Gold.Chemscore.Internal.Correction>
   9.000000E+99

> <Gold.Chemscore.Hbonds>
donor molecule, donor type, donor heavy atom, donor atom, acceptor molecule, acceptor atom, score
      L1  H     3    20       P1  7948  0.84
      L1  H    14    33       P1  7948  0.30

> <Gold.Chemscore.Hbond.Weighted>
-6.2837

> <Gold.Chemscore.Metal.Weighted>
-0.0000

> <Gold.Chemscore.Lipo.Weighted>
-6.3769

> <Gold.Chemscore.Internal_Hbond.Weighted>
0.0000

> <Gold.Chemscore.DEClash.Weighted>
0.0833

> <Gold.Chemscore.DEInternal.Weighted>
3.9466

> <Gold.Chemscore.Rot.Weighted>
6.2631

> <Gold.Chemscore.Internal.Correction.Weighted>
   9.000000E+99

> <Gold.Protein.RotatedTorsions>
[ 6907 6896 6895 6894 ] final   44.21 input  -60.11 | X-H torsion
[ 7974 7965 7964 7962 ] final  129.86 input  175.53 | X-H torsion
[ 8008 7997 7996 7995 ] final -115.86 input   59.86 | X-H torsion
[ 10167 10162 10161 10158 ] final   54.86 input  -65.29 | X-H torsion
[ 10718 10713 10712 10709 ] final   -2.37 input   66.30 | X-H torsion
[ 10763 10752 10751 10750 ] final   51.64 input  -60.55 | X-H torsion
[ 11005 11000 10999 10996 ] final  174.43 input  -57.11 | X-H torsion

> <Gold.Protein.ActiveResidues>
 VAL166  LYS551  ARG553  GLY616  TRP617  ASP618  TYR619  PRO620  LYS621  CYS622 
 ASP623  PHE694  ASN695  SER759  ASP760  ASP761  ALA762  ILE779  LEU786  VAL792 
 PHE793  MET794  SER795  GLU796  ALA797  LYS798  CYS799  TRP800  GLU811  SER814 

> <Gold.Protein.RotatedAtoms>
  152.2297  134.8334  160.0475 H   0  0  0  0  0  0  0  0  0  0  0  0  # atno 6907 bound_to 6896
  151.9087  133.3551  159.3864 H   0  0  0  0  0  0  0  0  0  0  0  0  # atno 6908 bound_to 6896
  150.7022  134.4679  159.5456 H   0  0  0  0  0  0  0  0  0  0  0  0  # atno 6909 bound_to 6896
  145.0241  139.4105  143.5182 H   0  0  0  0  0  0  0  0  0  0  0  0  # atno 7974 bound_to 7965
  155.0588  140.0393  157.2569 H   0  0  0  0  0  0  0  0  0  0  0  0  # atno 8008 bound_to 7997
  154.7077  140.2686  155.6635 H   0  0  0  0  0  0  0  0  0  0  0  0  # atno 8009 bound_to 7997
  156.2780  140.2728  156.1708 H   0  0  0  0  0  0  0  0  0  0  0  0  # atno 8010 bound_to 7997
  140.2256  144.3742  150.6434 H   0  0  0  0  0  0  0  0  0  0  0  0  # atno 10167 bound_to 10162
  156.7918  130.5364  149.5734 H   0  0  0  0  0  0  0  0  0  0  0  0  # atno 10718 bound_to 10713
  152.9786  135.5839  154.4448 H   0  0  0  0  0  0  0  0  0  0  0  0  # atno 10763 bound_to 10752
  154.4044  135.2769  155.2078 H   0  0  0  0  0  0  0  0  0  0  0  0  # atno 10764 bound_to 10752
  154.3895  135.6128  153.5889 H   0  0  0  0  0  0  0  0  0  0  0  0  # atno 10765 bound_to 10752
  140.3512  134.7193  157.4269 H   0  0  0  0  0  0  0  0  0  0  0  0  # atno 11005 bound_to 11000
  146.3489  139.9755  142.8701 LP  0  0  0  0  0  0  0  0  0  0  0  0  # atno 17320 bound_to 7965
  145.1857  140.9788  143.4240 LP  0  0  0  0  0  0  0  0  0  0  0  0  # atno 17321 bound_to 7965
  140.6223  143.2177  151.6669 LP  0  0  0  0  0  0  0  0  0  0  0  0  # atno 17342 bound_to 10162
  139.5128  144.3463  152.0693 LP  0  0  0  0  0  0  0  0  0  0  0  0  # atno 17343 bound_to 10162
  156.1154  130.6071  151.0113 LP  0  0  0  0  0  0  0  0  0  0  0  0  # atno 17370 bound_to 10713
  157.6597  131.0883  150.7867 LP  0  0  0  0  0  0  0  0  0  0  0  0  # atno 17371 bound_to 10713
  140.0701  134.5874  155.8651 LP  0  0  0  0  0  0  0  0  0  0  0  0  # atno 17394 bound_to 11000
  141.2011  133.6617  156.5934 LP  0  0  0  0  0  0  0  0  0  0  0  0  # atno 17395 bound_to 11000

$$$$
