AV-unprocessed.smi:3031|AV-procd|sdf|11541|dock5
  -GOLD-   2272016493D 1   1.00000     0.00000
 Structure written by MMmdl.
 47 48  0  0  0  0  0  0  0  0  2 V2000
  145.3284  131.7786  151.5845 C   0  0  0  0  0  0  0  0  0  0  0  0
  145.1209  133.2435  151.3288 C   0  0  0  0  0  0  0  0  0  0  0  0
  143.9505  133.8900  150.8384 C   0  0  0  0  0  0  0  0  0  0  0  0
  144.0969  135.2000  150.7242 N   0  0  0  0  0  0  0  0  0  0  0  0
  145.3604  135.4351  151.1366 N   0  0  0  0  0  0  0  0  0  0  0  0
  145.8794  136.7905  151.1343 C   0  0  0  0  0  0  0  0  0  0  0  0
  145.6507  137.5224  152.4736 C   0  0  2  0  0  0  0  0  0  0  0  0
  144.1685  137.4794  152.8687 C   0  0  0  0  0  0  0  0  0  0  0  0
  146.0977  138.9321  152.3975 N   0  3  0  0  0  0  0  0  0  0  0  0
  147.0329  139.3526  153.4636 C   0  0  0  0  0  0  0  0  0  0  0  0
  147.4021  140.8417  153.3319 C   0  0  2  0  0  0  0  0  0  0  0  0
  148.8029  140.9135  153.1486 O   0  0  0  0  0  0  0  0  0  0  0  0
  147.0823  141.7206  154.5632 C   0  0  0  0  0  0  0  0  0  0  0  0
  145.8885  142.5656  154.4629 N   0  0  0  0  0  0  0  0  0  0  0  0
  145.5352  143.1974  155.7350 C   0  0  0  0  0  0  0  0  0  0  0  0
  144.2909  144.0939  155.6071 C   0  0  0  0  0  0  0  0  0  0  0  0
  144.5188  145.0855  154.6120 O   0  0  0  0  0  0  0  0  0  0  0  0
  144.8366  144.5246  153.3432 C   0  0  0  0  0  0  0  0  0  0  0  0
  146.0782  143.6251  153.4742 C   0  0  0  0  0  0  0  0  0  0  0  0
  146.0009  134.2727  151.5089 C   0  0  0  0  0  0  0  0  0  0  0  0
  144.4027  131.2125  151.4776 H   0  0  0  0  0  0  0  0  0  0  0  0
  145.7012  131.5951  152.5925 H   0  0  0  0  0  0  0  0  0  0  0  0
  146.0499  131.3478  150.8901 H   0  0  0  0  0  0  0  0  0  0  0  0
  143.0045  133.4477  150.5621 H   0  0  0  0  0  0  0  0  0  0  0  0
  146.9420  136.7659  150.8855 H   0  0  0  0  0  0  0  0  0  0  0  0
  145.3867  137.3313  150.3253 H   0  0  0  0  0  0  0  0  0  0  0  0
  146.2092  137.0097  153.2588 H   0  0  0  0  0  0  0  0  0  0  0  0
  143.8172  136.4514  152.9641 H   0  0  0  0  0  0  0  0  0  0  0  0
  143.5431  137.9763  152.1260 H   0  0  0  0  0  0  0  0  0  0  0  0
  144.0028  137.9714  153.8277 H   0  0  0  0  0  0  0  0  0  0  0  0
  146.5403  139.0812  151.5012 H   0  0  0  0  0  0  0  0  0  0  0  0
  146.5239  139.1695  154.4069 H   0  0  0  0  0  0  0  0  0  0  0  0
  147.9324  138.7371  153.4500 H   0  0  0  0  0  0  0  0  0  0  0  0
  146.9258  141.2669  152.4475 H   0  0  0  0  0  0  0  0  0  0  0  0
  149.0919  140.1219  152.7199 H   0  0  0  0  0  0  0  0  0  0  0  0
  147.0463  141.1157  155.4706 H   0  0  0  0  0  0  0  0  0  0  0  0
  147.9462  142.3745  154.6958 H   0  0  0  0  0  0  0  0  0  0  0  0
  145.3461  142.4559  156.5049 H   0  0  0  0  0  0  0  0  0  0  0  0
  146.3714  143.8009  156.0919 H   0  0  0  0  0  0  0  0  0  0  0  0
  143.4121  143.5015  155.3479 H   0  0  0  0  0  0  0  0  0  0  0  0
  144.0779  144.5855  156.5566 H   0  0  0  0  0  0  0  0  0  0  0  0
  143.9855  143.9561  152.9651 H   0  0  0  0  0  0  0  0  0  0  0  0
  145.0246  145.3305  152.6336 H   0  0  0  0  0  0  0  0  0  0  0  0
  146.9405  144.2363  153.7461 H   0  0  0  0  0  0  0  0  0  0  0  0
  146.3004  143.1881  152.5001 H   0  0  0  0  0  0  0  0  0  0  0  0
  147.0209  134.2736  151.8643 H   0  0  0  0  0  0  0  0  0  0  0  0
  145.2840  139.5273  152.4553 H   0  0  0  0  0  0  0  0  0  0  0  0
  1  2  1  0  0  0  0
  1 21  1  0  0  0  0
  1 22  1  0  0  0  0
  1 23  1  0  0  0  0
  2 20  2  0  0  0  0
  2  3  1  0  0  0  0
  3  4  2  0  0  0  0
  3 24  1  0  0  0  0
  4  5  1  0  0  0  0
  5  6  1  0  0  0  0
  5 20  1  0  0  0  0
  6  7  1  0  0  0  0
  6 25  1  0  0  0  0
  6 26  1  0  0  0  0
  7  8  1  0  0  0  0
  7  9  1  0  0  0  0
  7 27  1  0  0  0  0
  8 28  1  0  0  0  0
  8 29  1  0  0  0  0
  8 30  1  0  0  0  0
  9 10  1  0  0  0  0
  9 31  1  0  0  0  0
  9 47  1  0  0  0  0
 10 11  1  0  0  0  0
 10 32  1  0  0  0  0
 10 33  1  0  0  0  0
 11 12  1  0  0  0  0
 11 13  1  0  0  0  0
 11 34  1  0  0  0  0
 12 35  1  0  0  0  0
 13 14  1  0  0  0  0
 13 36  1  0  0  0  0
 13 37  1  0  0  0  0
 14 19  1  0  0  0  0
 14 15  1  0  0  0  0
 15 16  1  0  0  0  0
 15 38  1  0  0  0  0
 15 39  1  0  0  0  0
 16 17  1  0  0  0  0
 16 40  1  0  0  0  0
 16 41  1  0  0  0  0
 17 18  1  0  0  0  0
 18 19  1  0  0  0  0
 18 42  1  0  0  0  0
 18 43  1  0  0  0  0
 19 44  1  0  0  0  0
 19 45  1  0  0  0  0
 20 46  1  0  0  0  0
M  CHG  1   9   1
M  END
> <s_m_source_file>
AV-unprocessed.smi

> <i_m_source_file_index>
3031

> <i_lp_mmshare_version>
43012

> <i_f3d_flags>
0

> <s_epik_input>
W0NIM11jMVtjSF1ubihbY0hdMSlbQ0gyXVtDQEhdKFtDSDNdKVtOSF1bQ0gyXVtDQEhdKFtPSF0pW0NIMl1OMltDSDJdW0NIMl1PW0NIMl1bQ0gyXTI=

> <s_epik_cmdline>
J2VwaWtfcHl0aG9uJywgJy1waCcsICc3LjAnLCAnLXRuJywgJzgnLCAnLW1hJywgJzIwMCcsICctbWV0YWxfYmluZGluZycsICctaW1hZScsICc8aW5maWxlLm1hZT4nLCAnLW9tYWUnLCAnPG91dGZpbGUubWFlPic=

> <r_lp_tautomer_probability>
1

> <r_epik_Ionization_Penalty>
0.108564

> <r_epik_Ionization_Penalty_Charging>
0.01811

> <r_epik_Ionization_Penalty_Neutral>
0.0904541

> <r_epik_State_Penalty>
0.141043

> <r_epik_Charging_Adjusted_Penalty>
0.159153

> <i_epik_Tot_Q>
1

> <i_epik_Tot_abs_Q>
1

> <r_epik_Metal_State_Penalty>
0.141052

> <b_epik_Metal_Only>
0

> <s_lp_Force_Field>
OPLS_2005

> <r_lp_Energy>
31.5788

> <b_lp_Chiralities_Consistent>
1

> <s_lp_Variant>
AV-unprocessed.smi:3031-1

> <Gold.Version>
5.8.1

> <Gold.Id.Protein>
6NUR|6NUR_protein|mol2

> <Gold.PLP.Fitness>
48.3593

> <Gold.PLP.PLP>
-35.8051

> <Gold.PLP.part.hbond>
-2.3559

> <Gold.PLP.part.metal>
0.0000

> <Gold.PLP.part.buried>
-2.8429

> <Gold.PLP.part.nonpolar>
-31.4975

> <Gold.PLP.part.repulsive>
0.5702

> <Gold.PLP.ligand.clash>
0.0000

> <Gold.PLP.ligand.torsion>
2.4863

> <Gold.PLP.Chemscore.Hbond>
3.7680

> <Gold.PLP.Chemscore.CHOScore>
1.9991

> <Gold.PLP.Chemscore.Metal>
0.0000

> <Gold.Chemscore.Hbonds>
donor molecule, donor type, donor heavy atom, donor atom, acceptor molecule, acceptor atom, score
      L1  H     9    47       P1 10175  2.00
      L1  H    12    35       P1  7957  0.48
      P1  H  8011  8017       L1    12  1.00
      L1  C     3    24       P1 10186  1.00
      L1  C    20    46       P1  7948  0.57

> <Gold.PLP.Chemscore.Internal.Correction>
0.2257

> <Gold.Rescore>
     Score         DG    S(hbond)    S(metal)    S(lipo)     H(rot)  DE(clash)    DE(int)     intcor
     11.77     -15.35       2.02        0.00      84.00       2.63       1.25       2.32       ----

> <Gold.Chemscore.Fitness>
11.7701

> <Gold.Chemscore.DG>
-15.3464

> <Gold.Chemscore.ZeroCoef>
-5.4800

> <Gold.Chemscore.Hbond>
2.0249

> <Gold.Chemscore.Metal>
0.0000

> <Gold.Chemscore.Lipo>
84.0040

> <Gold.Chemscore.Internal_Hbond>
0.0000

> <Gold.Chemscore.DEClash>
1.2526

> <Gold.Chemscore.DEInternal>
2.3236

> <Gold.Chemscore.Rot>
2.6270

> <Gold.Chemscore.Internal.Correction>
   9.000000E+99

> <Gold.Chemscore.Hbonds>
donor molecule, donor type, donor heavy atom, donor atom, acceptor molecule, acceptor atom, score
      L1  H     9    47       P1 10175  1.00
      L1  H    12    35       P1  7957  0.48
      P1  H  8011  8017       L1    12  0.59

> <Gold.Chemscore.Hbond.Weighted>
-6.7630

> <Gold.Chemscore.Metal.Weighted>
-0.0000

> <Gold.Chemscore.Lipo.Weighted>
-9.8285

> <Gold.Chemscore.Internal_Hbond.Weighted>
0.0000

> <Gold.Chemscore.DEClash.Weighted>
1.2526

> <Gold.Chemscore.DEInternal.Weighted>
2.3236

> <Gold.Chemscore.Rot.Weighted>
6.7251

> <Gold.Chemscore.Internal.Correction.Weighted>
   9.000000E+99

> <Gold.Protein.RotatedTorsions>
[ 6907 6896 6895 6894 ] final  -13.31 input  -60.11 | X-H torsion
[ 7974 7965 7964 7962 ] final  -63.39 input  175.53 | X-H torsion
[ 8008 7997 7996 7995 ] final -107.07 input   59.86 | X-H torsion
[ 10167 10162 10161 10158 ] final -171.29 input  -65.29 | X-H torsion
[ 10718 10713 10712 10709 ] final  -30.56 input   66.30 | X-H torsion
[ 10763 10752 10751 10750 ] final  160.35 input  -60.55 | X-H torsion
[ 11005 11000 10999 10996 ] final -174.87 input  -57.11 | X-H torsion

> <Gold.Protein.ActiveResidues>
 VAL166  LYS551  ARG553  GLY616  TRP617  ASP618  TYR619  PRO620  LYS621  CYS622 
 ASP623  PHE694  ASN695  SER759  ASP760  ASP761  ALA762  ILE779  LEU786  VAL792 
 PHE793  MET794  SER795  GLU796  ALA797  LYS798  CYS799  TRP800  GLU811  SER814 

> <Gold.Protein.RotatedAtoms>
  151.3569  135.0896  159.9421 H   0  0  0  0  0  0  0  0  0  0  0  0  # atno 6907 bound_to 6896
  152.5172  133.9296  159.7584 H   0  0  0  0  0  0  0  0  0  0  0  0  # atno 6908 bound_to 6896
  150.9683  133.6317  159.2771 H   0  0  0  0  0  0  0  0  0  0  0  0  # atno 6909 bound_to 6896
  145.7796  140.8769  143.0337 H   0  0  0  0  0  0  0  0  0  0  0  0  # atno 7974 bound_to 7965
  154.9239  140.0406  157.2012 H   0  0  0  0  0  0  0  0  0  0  0  0  # atno 8008 bound_to 7997
  154.8227  140.2886  155.5754 H   0  0  0  0  0  0  0  0  0  0  0  0  # atno 8009 bound_to 7997
  156.2981  140.2516  156.3137 H   0  0  0  0  0  0  0  0  0  0  0  0  # atno 8010 bound_to 7997
  139.5811  144.1422  152.1516 H   0  0  0  0  0  0  0  0  0  0  0  0  # atno 10167 bound_to 10162
  156.3982  130.4385  149.7342 H   0  0  0  0  0  0  0  0  0  0  0  0  # atno 10718 bound_to 10713
  154.2461  135.2773  155.2835 H   0  0  0  0  0  0  0  0  0  0  0  0  # atno 10763 bound_to 10752
  154.5504  135.5676  153.6921 H   0  0  0  0  0  0  0  0  0  0  0  0  # atno 10764 bound_to 10752
  152.9990  135.6273  154.2606 H   0  0  0  0  0  0  0  0  0  0  0  0  # atno 10765 bound_to 10752
  140.4697  134.6177  157.4877 H   0  0  0  0  0  0  0  0  0  0  0  0  # atno 11005 bound_to 11000
  144.6798  139.9970  143.7484 LP  0  0  0  0  0  0  0  0  0  0  0  0  # atno 17320 bound_to 7965
  146.0088  139.3152  143.0883 LP  0  0  0  0  0  0  0  0  0  0  0  0  # atno 17321 bound_to 7965
  140.0975  144.5568  150.7012 LP  0  0  0  0  0  0  0  0  0  0  0  0  # atno 17342 bound_to 10162
  140.7089  143.2489  151.4642 LP  0  0  0  0  0  0  0  0  0  0  0  0  # atno 17343 bound_to 10162
  156.4369  130.7842  151.2863 LP  0  0  0  0  0  0  0  0  0  0  0  0  # atno 17370 bound_to 10713
  157.7502  131.0137  150.3434 LP  0  0  0  0  0  0  0  0  0  0  0  0  # atno 17371 bound_to 10713
  139.9893  134.7011  155.9718 LP  0  0  0  0  0  0  0  0  0  0  0  0  # atno 17394 bound_to 11000
  141.1583  133.6541  156.4233 LP  0  0  0  0  0  0  0  0  0  0  0  0  # atno 17395 bound_to 11000

$$$$
