AV-unprocessed.smi:1990|AV-procd|sdf|8065|dock7
  -GOLD-   2272010273D 1   1.00000     0.00000
 Structure written by MMmdl.
 46 47  0  0  0  0  0  0  0  0  1 V2000
  150.1346  142.3646  156.5971 C   0  0  0  0  0  0  0  0  0  0  0  0
  150.8991  142.6319  157.8979 C   0  0  1  0  0  0  0  0  0  0  0  0
  151.8001  141.4456  158.2876 C   0  0  0  0  0  0  0  0  0  0  0  0
  152.6147  141.7858  159.4489 N   0  0  0  0  0  0  0  0  0  0  0  0
  153.2369  140.6970  160.0954 C   0  0  0  0  0  0  0  0  0  0  0  0
  154.1549  140.9273  161.1462 C   0  0  0  0  0  0  0  0  0  0  0  0
  154.7706  139.8296  161.7780 C   0  0  0  0  0  0  0  0  0  0  0  0
  154.4471  138.5211  161.3476 C   0  0  0  0  0  0  0  0  0  0  0  0
  155.0005  137.3250  161.8815 N   0  0  0  0  0  0  0  0  0  0  0  0
  154.7517  136.0428  161.5536 C   0  0  0  0  0  0  0  0  0  0  0  0
  154.0001  135.6844  160.6480 O   0  0  0  0  0  0  0  0  0  0  0  0
  155.5039  134.9916  162.3824 C   0  0  2  0  0  0  0  0  0  0  0  0
  154.9941  133.5674  162.1069 C   0  0  0  0  0  0  0  0  0  0  0  0
  155.3490  135.3778  164.1896 S   0  0  0  0  0  0  0  0  0  0  0  0
  154.6429  133.8277  164.8928 C   0  0  0  0  0  0  0  0  0  0  0  0
  156.6938  135.5637  164.7564 O   0  0  0  0  0  0  0  0  0  0  0  0
  154.3497  136.4465  164.3410 O   0  0  0  0  0  0  0  0  0  0  0  0
  153.5282  138.3946  160.2869 C   0  0  0  0  0  0  0  0  0  0  0  0
  152.9391  139.4432  159.6764 N   0  0  0  0  0  0  0  0  0  0  0  0
  153.3898  143.0112  159.2700 C   0  0  0  0  0  0  0  0  0  0  0  0
  152.4829  144.1800  158.8388 C   0  0  2  0  0  0  0  0  0  0  0  0
  151.6217  144.7428  159.9840 C   0  0  0  0  0  0  0  0  0  0  0  0
  151.6965  143.8004  157.7074 O   0  0  0  0  0  0  0  0  0  0  0  0
  149.4936  141.4880  156.6920 H   0  0  0  0  0  0  0  0  0  0  0  0
  150.8185  142.1913  155.7657 H   0  0  0  0  0  0  0  0  0  0  0  0
  149.5015  143.2130  156.3363 H   0  0  0  0  0  0  0  0  0  0  0  0
  150.1682  142.8108  158.6866 H   0  0  0  0  0  0  0  0  0  0  0  0
  151.1795  140.5700  158.4756 H   0  0  0  0  0  0  0  0  0  0  0  0
  152.4633  141.1901  157.4601 H   0  0  0  0  0  0  0  0  0  0  0  0
  154.4063  141.9298  161.4597 H   0  0  0  0  0  0  0  0  0  0  0  0
  155.4822  140.0233  162.5642 H   0  0  0  0  0  0  0  0  0  0  0  0
  155.6901  137.4637  162.6058 H   0  0  0  0  0  0  0  0  0  0  0  0
  156.5657  135.0312  162.1359 H   0  0  0  0  0  0  0  0  0  0  0  0
  155.0414  133.3264  161.0444 H   0  0  0  0  0  0  0  0  0  0  0  0
  153.9614  133.4406  162.4344 H   0  0  0  0  0  0  0  0  0  0  0  0
  155.5980  132.8305  162.6368 H   0  0  0  0  0  0  0  0  0  0  0  0
  154.4075  133.9857  165.9449 H   0  0  0  0  0  0  0  0  0  0  0  0
  155.3672  133.0178  164.8106 H   0  0  0  0  0  0  0  0  0  0  0  0
  153.7324  133.5624  164.3562 H   0  0  0  0  0  0  0  0  0  0  0  0
  153.2550  137.4187  159.9122 H   0  0  0  0  0  0  0  0  0  0  0  0
  153.9121  143.2724  160.1915 H   0  0  0  0  0  0  0  0  0  0  0  0
  154.1498  142.8363  158.5071 H   0  0  0  0  0  0  0  0  0  0  0  0
  153.1279  144.9921  158.5023 H   0  0  0  0  0  0  0  0  0  0  0  0
  152.2514  145.1474  160.7764 H   0  0  0  0  0  0  0  0  0  0  0  0
  150.9846  143.9830  160.4359 H   0  0  0  0  0  0  0  0  0  0  0  0
  150.9809  145.5497  159.6282 H   0  0  0  0  0  0  0  0  0  0  0  0
  1  2  1  0  0  0  0
  1 24  1  0  0  0  0
  1 25  1  0  0  0  0
  1 26  1  0  0  0  0
  2 23  1  0  0  0  0
  2  3  1  0  0  0  0
  2 27  1  0  0  0  0
  3  4  1  0  0  0  0
  3 28  1  0  0  0  0
  3 29  1  0  0  0  0
  4  5  1  0  0  0  0
  4 20  1  0  0  0  0
  5 19  1  0  0  0  0
  5  6  2  0  0  0  0
  6  7  1  0  0  0  0
  6 30  1  0  0  0  0
  7  8  2  0  0  0  0
  7 31  1  0  0  0  0
  8  9  1  0  0  0  0
  8 18  1  0  0  0  0
  9 10  1  0  0  0  0
  9 32  1  0  0  0  0
 10 11  2  0  0  0  0
 10 12  1  0  0  0  0
 12 13  1  0  0  0  0
 12 14  1  0  0  0  0
 12 33  1  0  0  0  0
 13 34  1  0  0  0  0
 13 35  1  0  0  0  0
 13 36  1  0  0  0  0
 14 15  1  0  0  0  0
 14 16  2  0  0  0  0
 14 17  2  0  0  0  0
 15 37  1  0  0  0  0
 15 38  1  0  0  0  0
 15 39  1  0  0  0  0
 18 19  2  0  0  0  0
 18 40  1  0  0  0  0
 20 21  1  0  0  0  0
 20 41  1  0  0  0  0
 20 42  1  0  0  0  0
 21 22  1  0  0  0  0
 21 23  1  0  0  0  0
 21 43  1  0  0  0  0
 22 44  1  0  0  0  0
 22 45  1  0  0  0  0
 22 46  1  0  0  0  0
M  END
> <s_m_source_file>
AV-unprocessed.smi

> <i_m_source_file_index>
1990

> <i_lp_mmshare_version>
43012

> <i_f3d_flags>
0

> <s_epik_input>
W0NIM11bQ0BASF0xW0NIMl1OKFtDSDJdW0NASF0oTzEpW0NIM10pYzJbY0hdW2NIXWMoW2NIXW4yKVtOSF1DKD1PKVtDQEhdKFtDSDNdKVMoPU8pKD1PKVtDSDNd

> <s_epik_cmdline>
J2VwaWtfcHl0aG9uJywgJy1waCcsICc3LjAnLCAnLXRuJywgJzgnLCAnLW1hJywgJzIwMCcsICctbWV0YWxfYmluZGluZycsICctaW1hZScsICc8aW5maWxlLm1hZT4nLCAnLW9tYWUnLCAnPG91dGZpbGUubWFlPic=

> <r_lp_tautomer_probability>
1

> <r_epik_Ionization_Penalty>
0.000334888

> <r_epik_Ionization_Penalty_Charging>
0

> <r_epik_Ionization_Penalty_Neutral>
0.000334888

> <r_epik_State_Penalty>
0.000200905

> <r_epik_Charging_Adjusted_Penalty>
0.000200905

> <i_epik_Tot_Q>
0

> <i_epik_Tot_abs_Q>
0

> <r_epik_Metal_State_Penalty>
-0

> <b_epik_Metal_Only>
0

> <s_lp_Force_Field>
OPLS_2005

> <r_lp_Energy>
21.5774

> <b_lp_Chiralities_Consistent>
1

> <s_lp_Variant>
AV-unprocessed.smi:1990-5

> <Gold.Version>
5.8.1

> <Gold.Id.Protein>
6NUR|6NUR_protein|mol2

> <Gold.PLP.Fitness>
42.9993

> <Gold.PLP.PLP>
-40.9314

> <Gold.PLP.part.hbond>
-1.0000

> <Gold.PLP.part.metal>
0.0000

> <Gold.PLP.part.buried>
-4.1989

> <Gold.PLP.part.nonpolar>
-36.5498

> <Gold.PLP.part.repulsive>
0.2720

> <Gold.PLP.ligand.clash>
0.0000

> <Gold.PLP.ligand.torsion>
0.7050

> <Gold.PLP.Chemscore.Hbond>
1.0000

> <Gold.PLP.Chemscore.CHOScore>
0.0000

> <Gold.PLP.Chemscore.Metal>
0.0000

> <Gold.Chemscore.Hbonds>
donor molecule, donor type, donor heavy atom, donor atom, acceptor molecule, acceptor atom, score
      P1  H  6896  6909       L1    11  1.00

> <Gold.PLP.Chemscore.Internal.Correction>
0.4778

> <Gold.Rescore>
     Score         DG    S(hbond)    S(metal)    S(lipo)     H(rot)  DE(clash)    DE(int)     intcor
     13.67     -16.67       0.99        0.00     100.56       1.52       0.04       2.97       ----

> <Gold.Chemscore.Fitness>
13.6650

> <Gold.Chemscore.DG>
-16.6711

> <Gold.Chemscore.ZeroCoef>
-5.4800

> <Gold.Chemscore.Hbond>
0.9913

> <Gold.Chemscore.Metal>
0.0000

> <Gold.Chemscore.Lipo>
100.5588

> <Gold.Chemscore.Internal_Hbond>
0.0000

> <Gold.Chemscore.DEClash>
0.0392

> <Gold.Chemscore.DEInternal>
2.9670

> <Gold.Chemscore.Rot>
1.5177

> <Gold.Chemscore.Internal.Correction>
   9.000000E+99

> <Gold.Chemscore.Hbonds>
donor molecule, donor type, donor heavy atom, donor atom, acceptor molecule, acceptor atom, score
      P1  H  6896  6909       L1    11  0.99

> <Gold.Chemscore.Hbond.Weighted>
-3.3110

> <Gold.Chemscore.Metal.Weighted>
-0.0000

> <Gold.Chemscore.Lipo.Weighted>
-11.7654

> <Gold.Chemscore.Internal_Hbond.Weighted>
0.0000

> <Gold.Chemscore.DEClash.Weighted>
0.0392

> <Gold.Chemscore.DEInternal.Weighted>
2.9670

> <Gold.Chemscore.Rot.Weighted>
3.8853

> <Gold.Chemscore.Internal.Correction.Weighted>
   9.000000E+99

> <Gold.Protein.RotatedTorsions>
[ 6907 6896 6895 6894 ] final  178.22 input  -60.11 | X-H torsion
[ 7974 7965 7964 7962 ] final  -56.25 input  175.53 | X-H torsion
[ 8008 7997 7996 7995 ] final -177.82 input   59.86 | X-H torsion
[ 10167 10162 10161 10158 ] final  128.47 input  -65.29 | X-H torsion
[ 10718 10713 10712 10709 ] final  164.53 input   66.30 | X-H torsion
[ 10763 10752 10751 10750 ] final  -46.63 input  -60.55 | X-H torsion
[ 11005 11000 10999 10996 ] final -140.85 input  -57.11 | X-H torsion

> <Gold.Protein.ActiveResidues>
 VAL166  LYS551  ARG553  GLY616  TRP617  ASP618  TYR619  PRO620  LYS621  CYS622 
 ASP623  PHE694  ASN695  SER759  ASP760  ASP761  ALA762  ILE779  LEU786  VAL792 
 PHE793  MET794  SER795  GLU796  ALA797  LYS798  CYS799  TRP800  GLU811  SER814 

> <Gold.Protein.RotatedAtoms>
  151.6914  133.3311  159.3243 H   0  0  0  0  0  0  0  0  0  0  0  0  # atno 6907 bound_to 6896
  150.7777  134.6695  159.6393 H   0  0  0  0  0  0  0  0  0  0  0  0  # atno 6908 bound_to 6896
  152.3825  134.6571  160.0190 H   0  0  0  0  0  0  0  0  0  0  0  0  # atno 6909 bound_to 6896
  145.8649  140.8259  142.9918 H   0  0  0  0  0  0  0  0  0  0  0  0  # atno 7974 bound_to 7965
  156.0115  140.1241  157.0449 H   0  0  0  0  0  0  0  0  0  0  0  0  # atno 8008 bound_to 7997
  154.4277  140.1087  156.5906 H   0  0  0  0  0  0  0  0  0  0  0  0  # atno 8009 bound_to 7997
  155.6073  140.3471  155.4614 H   0  0  0  0  0  0  0  0  0  0  0  0  # atno 8010 bound_to 7997
  139.5525  144.6824  151.4280 H   0  0  0  0  0  0  0  0  0  0  0  0  # atno 10167 bound_to 10162
  157.0931  131.0423  151.2529 H   0  0  0  0  0  0  0  0  0  0  0  0  # atno 10718 bound_to 10713
  154.0482  135.6635  153.4797 H   0  0  0  0  0  0  0  0  0  0  0  0  # atno 10763 bound_to 10752
  153.0474  135.5106  154.7776 H   0  0  0  0  0  0  0  0  0  0  0  0  # atno 10764 bound_to 10752
  154.6774  135.3039  154.9626 H   0  0  0  0  0  0  0  0  0  0  0  0  # atno 10765 bound_to 10752
  140.8382  134.2435  157.4823 H   0  0  0  0  0  0  0  0  0  0  0  0  # atno 11005 bound_to 11000
  144.6726  140.1151  143.7453 LP  0  0  0  0  0  0  0  0  0  0  0  0  # atno 17320 bound_to 7965
  145.9205  139.2543  143.1384 LP  0  0  0  0  0  0  0  0  0  0  0  0  # atno 17321 bound_to 7965
  140.6791  143.8122  150.7098 LP  0  0  0  0  0  0  0  0  0  0  0  0  # atno 17342 bound_to 10162
  140.1570  143.4308  152.2093 LP  0  0  0  0  0  0  0  0  0  0  0  0  # atno 17343 bound_to 10162
  157.4704  130.7705  149.7318 LP  0  0  0  0  0  0  0  0  0  0  0  0  # atno 17370 bound_to 10713
  155.9893  130.3953  150.3080 LP  0  0  0  0  0  0  0  0  0  0  0  0  # atno 17371 bound_to 10713
  139.8703  134.9621  156.4419 LP  0  0  0  0  0  0  0  0  0  0  0  0  # atno 17394 bound_to 11000
  140.8925  133.7838  155.9587 LP  0  0  0  0  0  0  0  0  0  0  0  0  # atno 17395 bound_to 11000

$$$$
