AV-unprocessed.smi:1056|AV-procd|sdf|4637|dock3
  -GOLD-   22720 3143D 1   1.00000     0.00000
 Structure written by MMmdl.
 46 48  0  0  0  0  0  0  0  0  3 V2000
  152.4250  143.6065  160.2951 C   0  0  0  0  0  0  0  0  0  0  0  0
  152.0868  142.6674  159.1494 C   0  0  0  0  0  0  0  0  0  0  0  0
  151.0991  143.0661  158.2203 C   0  0  0  0  0  0  0  0  0  0  0  0
  150.8115  142.1868  157.1835 C   0  0  0  0  0  0  0  0  0  0  0  0
  149.9063  142.2841  156.1243 N   0  3  0  0  0  0  0  0  0  0  0  0
  149.9856  141.1640  155.3537 C   0  0  0  0  0  0  0  0  0  0  0  0
  150.9249  140.3501  155.9091 N   0  0  0  0  0  0  0  0  0  0  0  0
  151.4065  139.0315  155.4773 C   0  0  0  0  0  0  0  0  0  0  0  0
  150.2842  138.1298  154.9206 C   0  0  1  0  0  0  0  0  0  0  0  0
  150.0854  138.4239  153.5530 O   0  0  0  0  0  0  0  0  0  0  0  0
  150.6116  136.6269  155.0388 C   0  0  0  0  0  0  0  0  0  0  0  0
  149.5453  135.7563  154.4821 N   0  3  1  0  0  0  0  0  0  0  0  0
  149.8476  134.3075  154.5675 C   0  0  0  0  0  0  0  0  0  0  0  0
  148.8024  133.5018  153.7756 C   0  0  0  0  0  0  0  0  0  0  0  0
  147.4351  133.9655  153.9990 N   0  0  0  0  0  0  0  0  0  0  0  0
  147.0921  135.1340  154.5654 C   0  0  0  0  0  0  0  0  0  0  0  0
  145.9176  135.4628  154.7090 O   0  0  0  0  0  0  0  0  0  0  0  0
  148.2080  136.0748  155.0449 C   0  0  0  0  0  0  0  0  0  0  0  0
  151.4690  140.9482  157.0509 C   0  0  0  0  0  0  0  0  0  0  0  0
  152.4446  140.5392  157.9568 C   0  0  0  0  0  0  0  0  0  0  0  0
  152.7491  141.4189  159.0204 C   0  0  0  0  0  0  0  0  0  0  0  0
  153.8057  140.9988  160.0277 C   0  0  0  0  0  0  0  0  0  0  0  0
  151.8827  144.5490  160.2119 H   0  0  0  0  0  0  0  0  0  0  0  0
  153.4906  143.8373  160.3035 H   0  0  0  0  0  0  0  0  0  0  0  0
  152.1613  143.1527  161.2507 H   0  0  0  0  0  0  0  0  0  0  0  0
  150.5905  144.0149  158.3131 H   0  0  0  0  0  0  0  0  0  0  0  0
  149.4076  140.9591  154.4638 H   0  0  0  0  0  0  0  0  0  0  0  0
  152.1711  139.1974  154.7167 H   0  0  0  0  0  0  0  0  0  0  0  0
  151.9088  138.5608  156.3234 H   0  0  0  0  0  0  0  0  0  0  0  0
  149.3456  138.3521  155.4267 H   0  0  0  0  0  0  0  0  0  0  0  0
  149.5890  137.7212  153.1616 H   0  0  0  0  0  0  0  0  0  0  0  0
  151.5566  136.3978  154.5432 H   0  0  0  0  0  0  0  0  0  0  0  0
  150.7555  136.3886  156.0942 H   0  0  0  0  0  0  0  0  0  0  0  0
  150.8400  134.0840  154.1782 H   0  0  0  0  0  0  0  0  0  0  0  0
  149.8427  134.0024  155.6154 H   0  0  0  0  0  0  0  0  0  0  0  0
  149.0076  133.5881  152.7080 H   0  0  0  0  0  0  0  0  0  0  0  0
  148.8714  132.4423  154.0235 H   0  0  0  0  0  0  0  0  0  0  0  0
  146.6899  133.3551  153.6935 H   0  0  0  0  0  0  0  0  0  0  0  0
  148.2497  136.0213  156.1339 H   0  0  0  0  0  0  0  0  0  0  0  0
  147.9403  137.0997  154.7840 H   0  0  0  0  0  0  0  0  0  0  0  0
  152.9507  139.5907  157.8577 H   0  0  0  0  0  0  0  0  0  0  0  0
  154.1732  139.9922  159.8256 H   0  0  0  0  0  0  0  0  0  0  0  0
  153.3975  141.0063  161.0388 H   0  0  0  0  0  0  0  0  0  0  0  0
  154.6572  141.6788  159.9931 H   0  0  0  0  0  0  0  0  0  0  0  0
  149.4842  135.9763  153.4985 H   0  0  0  0  0  0  0  0  0  0  0  0
  149.2814  143.0583  155.9368 H   0  0  0  0  0  0  0  0  0  0  0  0
  1  2  1  0  0  0  0
  1 23  1  0  0  0  0
  1 24  1  0  0  0  0
  1 25  1  0  0  0  0
  2 21  1  0  0  0  0
  2  3  2  0  0  0  0
  3  4  1  0  0  0  0
  3 26  1  0  0  0  0
  4 19  2  0  0  0  0
  4  5  1  0  0  0  0
  5  6  2  0  0  0  0
  5 46  1  0  0  0  0
  6  7  1  0  0  0  0
  6 27  1  0  0  0  0
  7  8  1  0  0  0  0
  7 19  1  0  0  0  0
  8  9  1  0  0  0  0
  8 28  1  0  0  0  0
  8 29  1  0  0  0  0
  9 10  1  0  0  0  0
  9 11  1  0  0  0  0
  9 30  1  0  0  0  0
 10 31  1  0  0  0  0
 11 12  1  0  0  0  0
 11 32  1  0  0  0  0
 11 33  1  0  0  0  0
 12 18  1  0  0  0  0
 12 13  1  0  0  0  0
 12 45  1  0  0  0  0
 13 14  1  0  0  0  0
 13 34  1  0  0  0  0
 13 35  1  0  0  0  0
 14 15  1  0  0  0  0
 14 36  1  0  0  0  0
 14 37  1  0  0  0  0
 15 16  1  0  0  0  0
 15 38  1  0  0  0  0
 16 17  2  0  0  0  0
 16 18  1  0  0  0  0
 18 39  1  0  0  0  0
 18 40  1  0  0  0  0
 19 20  1  0  0  0  0
 20 21  2  0  0  0  0
 20 41  1  0  0  0  0
 21 22  1  0  0  0  0
 22 42  1  0  0  0  0
 22 43  1  0  0  0  0
 22 44  1  0  0  0  0
M  CHG  1   5   1
M  CHG  1  12   1
M  END
> <s_m_source_file>
AV-unprocessed.smi

> <i_m_source_file_index>
1056

> <i_lp_mmshare_version>
43012

> <i_f3d_flags>
0

> <s_epik_input>
W0NIM11jKFtjSF0xKWMoW0NIM10pW2NIXWMoYzEyKW4oW2NIXW4yKVtDSDJdW0NASF0oW09IXSlbQ0gyXU4zW0NIMl1bQ0gyXVtOSF1DKD1PKVtDSDJdMw==

> <s_epik_cmdline>
J2VwaWtfcHl0aG9uJywgJy1waCcsICc3LjAnLCAnLXRuJywgJzgnLCAnLW1hJywgJzIwMCcsICctbWV0YWxfYmluZGluZycsICctaW1hZScsICc8aW5maWxlLm1hZT4nLCAnLW9tYWUnLCAnPG91dGZpbGUubWFlPic=

> <r_epik_Ionization_Penalty>
1.262

> <r_epik_Ionization_Penalty_Charging>
1.26188

> <r_epik_Ionization_Penalty_Neutral>
0.000125436

> <r_epik_State_Penalty>
1.3387

> <r_epik_Charging_Adjusted_Penalty>
2.60058

> <i_epik_Tot_Q>
2

> <i_epik_Tot_abs_Q>
2

> <r_epik_Metal_State_Penalty>
1.58938

> <b_epik_Metal_Only>
0

> <s_lp_Force_Field>
OPLS_2005

> <r_lp_Energy>
35.3979

> <b_lp_Chiralities_Consistent>
1

> <s_lp_Variant>
AV-unprocessed.smi:1056-8

> <Gold.Version>
5.8.1

> <Gold.Id.Protein>
6NUR|6NUR_protein|mol2

> <Gold.PLP.Fitness>
56.2410

> <Gold.PLP.PLP>
-42.3977

> <Gold.PLP.part.hbond>
-4.0535

> <Gold.PLP.part.metal>
0.0000

> <Gold.PLP.part.buried>
-2.7529

> <Gold.PLP.part.nonpolar>
-34.4809

> <Gold.PLP.part.repulsive>
0.2018

> <Gold.PLP.ligand.clash>
0.0000

> <Gold.PLP.ligand.torsion>
0.6037

> <Gold.PLP.Chemscore.Hbond>
5.0000

> <Gold.PLP.Chemscore.CHOScore>
0.0000

> <Gold.PLP.Chemscore.Metal>
0.0000

> <Gold.Chemscore.Hbonds>
donor molecule, donor type, donor heavy atom, donor atom, acceptor molecule, acceptor atom, score
      L1  H     5    46       P1  8028  2.00
      L1  H    10    31       P1  7948  0.98
      L1  H    12    45       P1  7948  2.00

> <Gold.PLP.Chemscore.Internal.Correction>
0.0506

> <Gold.Rescore>
     Score         DG    S(hbond)    S(metal)    S(lipo)     H(rot)  DE(clash)    DE(int)     intcor
     20.10     -20.77       2.85        0.00     102.47       2.44       0.12       0.55       ----

> <Gold.Chemscore.Fitness>
20.0993

> <Gold.Chemscore.DG>
-20.7655

> <Gold.Chemscore.ZeroCoef>
-5.4800

> <Gold.Chemscore.Hbond>
2.8538

> <Gold.Chemscore.Metal>
0.0000

> <Gold.Chemscore.Lipo>
102.4725

> <Gold.Chemscore.Internal_Hbond>
0.0000

> <Gold.Chemscore.DEClash>
0.1193

> <Gold.Chemscore.DEInternal>
0.5469

> <Gold.Chemscore.Rot>
2.4357

> <Gold.Chemscore.Internal.Correction>
   9.000000E+99

> <Gold.Chemscore.Hbonds>
donor molecule, donor type, donor heavy atom, donor atom, acceptor molecule, acceptor atom, score
      L1  H     5    46       P1  8028  0.98
      L1  H    10    31       P1  7948  0.76
      L1  H    12    45       P1  7948  0.40

> <Gold.Chemscore.Hbond.Weighted>
-9.5316

> <Gold.Chemscore.Metal.Weighted>
-0.0000

> <Gold.Chemscore.Lipo.Weighted>
-11.9893

> <Gold.Chemscore.Internal_Hbond.Weighted>
0.0000

> <Gold.Chemscore.DEClash.Weighted>
0.1193

> <Gold.Chemscore.DEInternal.Weighted>
0.5469

> <Gold.Chemscore.Rot.Weighted>
6.2353

> <Gold.Chemscore.Internal.Correction.Weighted>
   9.000000E+99

> <Gold.Protein.RotatedTorsions>
[ 6907 6896 6895 6894 ] final -120.27 input  -60.11 | X-H torsion
[ 7974 7965 7964 7962 ] final  121.77 input  175.53 | X-H torsion
[ 8008 7997 7996 7995 ] final -130.68 input   59.86 | X-H torsion
[ 10167 10162 10161 10158 ] final -160.33 input  -65.29 | X-H torsion
[ 10718 10713 10712 10709 ] final  166.44 input   66.30 | X-H torsion
[ 10763 10752 10751 10750 ] final -104.83 input  -60.55 | X-H torsion
[ 11005 11000 10999 10996 ] final   48.85 input  -57.11 | X-H torsion

> <Gold.Protein.ActiveResidues>
 VAL166  LYS551  ARG553  GLY616  TRP617  ASP618  TYR619  PRO620  LYS621  CYS622 
 ASP623  PHE694  ASN695  SER759  ASP760  ASP761  ALA762  ILE779  LEU786  VAL792 
 PHE793  MET794  SER795  GLU796  ALA797  LYS798  CYS799  TRP800  GLU811  SER814 

> <Gold.Protein.RotatedAtoms>
  150.8378  133.7985  159.3072 H   0  0  0  0  0  0  0  0  0  0  0  0  # atno 6907 bound_to 6896
  151.5695  135.1061  160.0001 H   0  0  0  0  0  0  0  0  0  0  0  0  # atno 6908 bound_to 6896
  152.4448  133.7473  159.6730 H   0  0  0  0  0  0  0  0  0  0  0  0  # atno 6909 bound_to 6896
  145.1154  139.3424  143.4741 H   0  0  0  0  0  0  0  0  0  0  0  0  # atno 7974 bound_to 7965
  155.2998  140.0452  157.3028 H   0  0  0  0  0  0  0  0  0  0  0  0  # atno 8008 bound_to 7997
  154.5493  140.2312  155.8478 H   0  0  0  0  0  0  0  0  0  0  0  0  # atno 8009 bound_to 7997
  156.1952  140.3040  155.9420 H   0  0  0  0  0  0  0  0  0  0  0  0  # atno 8010 bound_to 7997
  139.6548  144.0019  152.2186 H   0  0  0  0  0  0  0  0  0  0  0  0  # atno 10167 bound_to 10162
  157.0658  131.0352  151.2630 H   0  0  0  0  0  0  0  0  0  0  0  0  # atno 10718 bound_to 10713
  154.7905  135.4771  154.0043 H   0  0  0  0  0  0  0  0  0  0  0  0  # atno 10763 bound_to 10752
  153.1624  135.6811  153.8730 H   0  0  0  0  0  0  0  0  0  0  0  0  # atno 10764 bound_to 10752
  153.8339  135.3188  155.3399 H   0  0  0  0  0  0  0  0  0  0  0  0  # atno 10765 bound_to 10752
  140.1155  134.4898  155.8641 H   0  0  0  0  0  0  0  0  0  0  0  0  # atno 11005 bound_to 11000
  146.3524  140.1091  142.8604 LP  0  0  0  0  0  0  0  0  0  0  0  0  # atno 17320 bound_to 7965
  145.0800  140.9214  143.4831 LP  0  0  0  0  0  0  0  0  0  0  0  0  # atno 17321 bound_to 7965
  139.9742  144.6473  150.7960 LP  0  0  0  0  0  0  0  0  0  0  0  0  # atno 17342 bound_to 10162
  140.7554  143.3045  151.2996 LP  0  0  0  0  0  0  0  0  0  0  0  0  # atno 17343 bound_to 10162
  157.4918  130.7826  149.7515 LP  0  0  0  0  0  0  0  0  0  0  0  0  # atno 17370 bound_to 10713
  155.9965  130.3905  150.2778 LP  0  0  0  0  0  0  0  0  0  0  0  0  # atno 17371 bound_to 10713
  141.2140  133.6742  156.6787 LP  0  0  0  0  0  0  0  0  0  0  0  0  # atno 17394 bound_to 11000
  140.3034  134.8145  157.4117 LP  0  0  0  0  0  0  0  0  0  0  0  0  # atno 17395 bound_to 11000

$$$$
