AV-unprocessed.smi:2243|AV-procd|sdf|9070|dock2
  -GOLD-   2272012273D 1   1.00000     0.00000
 Structure written by MMmdl.
 33 34  0  0  0  0  0  0  0  0  2 V2000
  147.6458  137.3821  156.1649 C   0  0  0  0  0  0  0  0  0  0  0  0
  148.7969  137.5282  157.1749 C   0  0  2  0  0  0  0  0  0  0  0  0
  148.2082  137.6172  158.5130 N   0  0  0  0  0  0  0  0  0  0  0  0
  148.5167  136.8680  159.5832 C   0  0  0  0  0  0  0  0  0  0  0  0
  149.3918  136.0030  159.5028 O   0  0  0  0  0  0  0  0  0  0  0  0
  147.7949  137.1745  160.6845 N   0  5  0  0  0  0  0  0  0  0  0  0
  147.3282  136.1924  161.4722 C   0  0  0  0  0  0  0  0  0  0  0  0
  147.9440  135.0419  161.7511 N   0  0  0  0  0  0  0  0  0  0  0  0
  147.0874  134.3479  162.5918 C   0  0  0  0  0  0  0  0  0  0  0  0
  145.9716  135.1166  162.7815 C   0  0  0  0  0  0  0  0  0  0  0  0
  146.1099  136.2809  162.0777 O   0  0  0  0  0  0  0  0  0  0  0  0
  149.7085  138.7535  156.8925 C   0  0  0  0  0  0  0  0  0  0  0  0
  150.5275  138.5963  155.5950 C   0  0  0  0  0  0  0  0  0  0  0  0
  151.4734  139.7891  155.3803 C   0  0  0  0  0  0  0  0  0  0  0  0
  152.3369  139.9365  156.5005 O   0  0  0  0  0  0  0  0  0  0  0  0
  151.6292  140.2135  157.7026 C   0  0  0  0  0  0  0  0  0  0  0  0
  150.6937  139.0434  158.0452 C   0  0  0  0  0  0  0  0  0  0  0  0
  148.0117  137.1695  155.1610 H   0  0  0  0  0  0  0  0  0  0  0  0
  147.0404  138.2880  156.1184 H   0  0  0  0  0  0  0  0  0  0  0  0
  146.9874  136.5578  156.4414 H   0  0  0  0  0  0  0  0  0  0  0  0
  149.4061  136.6262  157.0984 H   0  0  0  0  0  0  0  0  0  0  0  0
  147.4878  138.3128  158.6399 H   0  0  0  0  0  0  0  0  0  0  0  0
  147.3369  133.3728  162.9829 H   0  0  0  0  0  0  0  0  0  0  0  0
  145.0581  134.9927  163.3435 H   0  0  0  0  0  0  0  0  0  0  0  0
  149.0680  139.6297  156.7783 H   0  0  0  0  0  0  0  0  0  0  0  0
  151.1107  137.6755  155.6363 H   0  0  0  0  0  0  0  0  0  0  0  0
  149.8708  138.5128  154.7297 H   0  0  0  0  0  0  0  0  0  0  0  0
  152.0803  139.6283  154.4893 H   0  0  0  0  0  0  0  0  0  0  0  0
  150.9096  140.7090  155.2179 H   0  0  0  0  0  0  0  0  0  0  0  0
  152.3486  140.3641  158.5075 H   0  0  0  0  0  0  0  0  0  0  0  0
  151.0673  141.1432  157.6013 H   0  0  0  0  0  0  0  0  0  0  0  0
  150.1572  139.2819  158.9637 H   0  0  0  0  0  0  0  0  0  0  0  0
  151.2882  138.1533  158.2552 H   0  0  0  0  0  0  0  0  0  0  0  0
  1  2  1  0  0  0  0
  1 18  1  0  0  0  0
  1 19  1  0  0  0  0
  1 20  1  0  0  0  0
  2  3  1  0  0  0  0
  2 12  1  0  0  0  0
  2 21  1  0  0  0  0
  3 22  1  0  0  0  0
  3  4  1  0  0  0  0
  4  6  1  0  0  0  0
  4  5  2  0  0  0  0
  6  7  1  0  0  0  0
  7 11  1  0  0  0  0
  7  8  2  0  0  0  0
  8  9  1  0  0  0  0
  9 23  1  0  0  0  0
  9 10  2  0  0  0  0
 10 24  1  0  0  0  0
 10 11  1  0  0  0  0
 12 17  1  0  0  0  0
 12 13  1  0  0  0  0
 12 25  1  0  0  0  0
 13 14  1  0  0  0  0
 13 26  1  0  0  0  0
 13 27  1  0  0  0  0
 14 15  1  0  0  0  0
 14 28  1  0  0  0  0
 14 29  1  0  0  0  0
 15 16  1  0  0  0  0
 16 17  1  0  0  0  0
 16 30  1  0  0  0  0
 16 31  1  0  0  0  0
 17 32  1  0  0  0  0
 17 33  1  0  0  0  0
M  CHG  1   6  -1
M  END
> <s_m_source_file>
AV-unprocessed.smi

> <i_m_source_file_index>
2243

> <i_lp_mmshare_version>
43012

> <i_f3d_flags>
0

> <s_epik_input>
W0NIMl0xW0NIMl1PW0NIMl1bQ0gyXVtDSF0xW0NASF0oW0NIM10pW05IXUMoPU8pW05IXWMybltjSF1bY0hdbzI=

> <s_epik_cmdline>
J2VwaWtfcHl0aG9uJywgJy1waCcsICc3LjAnLCAnLXRuJywgJzgnLCAnLW1hJywgJzIwMCcsICctbWV0YWxfYmluZGluZycsICctaW1hZScsICc8aW5maWxlLm1hZT4nLCAnLW9tYWUnLCAnPG91dGZpbGUubWFlPic=

> <r_lp_tautomer_probability>
0.107061

> <r_epik_Ionization_Penalty>
11.1403

> <r_epik_Ionization_Penalty_Charging>
7.81312

> <r_epik_Ionization_Penalty_Neutral>
3.32719

> <r_epik_State_Penalty>
5.94317

> <r_epik_Charging_Adjusted_Penalty>
13.7563

> <i_epik_Tot_Q>
-1

> <i_epik_Tot_abs_Q>
1

> <r_epik_Metal_State_Penalty>
1.86619

> <b_epik_Metal_Only>
1

> <s_lp_Force_Field>
OPLS_2005

> <r_lp_Energy>
6.48942

> <b_lp_Chiralities_Consistent>
1

> <s_lp_Variant>
AV-unprocessed.smi:2243-9

> <Gold.Version>
5.8.1

> <Gold.Id.Protein>
6NUR|6NUR_protein|mol2

> <Gold.PLP.Fitness>
38.9080

> <Gold.PLP.PLP>
-24.0563

> <Gold.PLP.part.hbond>
-4.0000

> <Gold.PLP.part.metal>
0.0000

> <Gold.PLP.part.buried>
-3.6345

> <Gold.PLP.part.nonpolar>
-16.6985

> <Gold.PLP.part.repulsive>
0.1418

> <Gold.PLP.ligand.clash>
0.0000

> <Gold.PLP.ligand.torsion>
0.7744

> <Gold.PLP.Chemscore.Hbond>
5.4560

> <Gold.PLP.Chemscore.CHOScore>
0.0000

> <Gold.PLP.Chemscore.Metal>
0.0000

> <Gold.Chemscore.Hbonds>
donor molecule, donor type, donor heavy atom, donor atom, acceptor molecule, acceptor atom, score
      P1  H  6896  6907       L1     5  1.00
      P1  H  6931  6943       L1     6  1.59
      P1  H  6934  6947       L1     6  1.73
      P1  H  7997  8010       L1    15  0.67

> <Gold.PLP.Chemscore.Internal.Correction>
0.0326

> <Gold.Rescore>
     Score         DG    S(hbond)    S(metal)    S(lipo)     H(rot)  DE(clash)    DE(int)     intcor
     15.02     -17.15       3.01        0.00      42.25       1.31       0.00       2.12       ----

> <Gold.Chemscore.Fitness>
15.0247

> <Gold.Chemscore.DG>
-17.1459

> <Gold.Chemscore.ZeroCoef>
-5.4800

> <Gold.Chemscore.Hbond>
3.0141

> <Gold.Chemscore.Metal>
0.0000

> <Gold.Chemscore.Lipo>
42.2486

> <Gold.Chemscore.Internal_Hbond>
0.0000

> <Gold.Chemscore.DEClash>
0.0000

> <Gold.Chemscore.DEInternal>
2.1212

> <Gold.Chemscore.Rot>
1.3063

> <Gold.Chemscore.Internal.Correction>
   9.000000E+99

> <Gold.Chemscore.Hbonds>
donor molecule, donor type, donor heavy atom, donor atom, acceptor molecule, acceptor atom, score
      P1  H  6896  6907       L1     5  0.97
      P1  H  6931  6943       L1     6  0.20
      P1  H  6934  6947       L1     6  0.80
      P1  H  7997  8010       L1    15  0.53

> <Gold.Chemscore.Hbond.Weighted>
-10.0671

> <Gold.Chemscore.Metal.Weighted>
-0.0000

> <Gold.Chemscore.Lipo.Weighted>
-4.9431

> <Gold.Chemscore.Internal_Hbond.Weighted>
0.0000

> <Gold.Chemscore.DEClash.Weighted>
0.0000

> <Gold.Chemscore.DEInternal.Weighted>
2.1212

> <Gold.Chemscore.Rot.Weighted>
3.3443

> <Gold.Chemscore.Internal.Correction.Weighted>
   9.000000E+99

> <Gold.Protein.RotatedTorsions>
[ 6907 6896 6895 6894 ] final  -69.50 input  -60.11 | X-H torsion
[ 7974 7965 7964 7962 ] final  104.48 input  175.53 | X-H torsion
[ 8008 7997 7996 7995 ] final   49.91 input   59.86 | X-H torsion
[ 10167 10162 10161 10158 ] final  119.18 input  -65.29 | X-H torsion
[ 10718 10713 10712 10709 ] final   83.47 input   66.30 | X-H torsion
[ 10763 10752 10751 10750 ] final -132.93 input  -60.55 | X-H torsion
[ 11005 11000 10999 10996 ] final  -34.94 input  -57.11 | X-H torsion

> <Gold.Protein.ActiveResidues>
 VAL166  LYS551  ARG553  GLY616  TRP617  ASP618  TYR619  PRO620  LYS621  CYS622 
 ASP623  PHE694  ASN695  SER759  ASP760  ASP761  ALA762  ILE779  LEU786  VAL792 
 PHE793  MET794  SER795  GLU796  ALA797  LYS798  CYS799  TRP800  GLU811  SER814 

> <Gold.Protein.RotatedAtoms>
  150.7303  134.5588  159.5831 H   0  0  0  0  0  0  0  0  0  0  0  0  # atno 6907 bound_to 6896
  152.3057  134.7555  160.0357 H   0  0  0  0  0  0  0  0  0  0  0  0  # atno 6908 bound_to 6896
  151.8121  133.3347  159.3595 H   0  0  0  0  0  0  0  0  0  0  0  0  # atno 6909 bound_to 6896
  145.3322  139.2484  143.3654 H   0  0  0  0  0  0  0  0  0  0  0  0  # atno 7974 bound_to 7965
  155.4100  140.3442  155.4263 H   0  0  0  0  0  0  0  0  0  0  0  0  # atno 8008 bound_to 7997
  156.1454  140.1555  156.8886 H   0  0  0  0  0  0  0  0  0  0  0  0  # atno 8009 bound_to 7997
  154.5006  140.0815  156.7771 H   0  0  0  0  0  0  0  0  0  0  0  0  # atno 8010 bound_to 7997
  139.6063  144.7070  151.2946 H   0  0  0  0  0  0  0  0  0  0  0  0  # atno 10167 bound_to 10162
  157.6879  131.0092  150.2529 H   0  0  0  0  0  0  0  0  0  0  0  0  # atno 10718 bound_to 10713
  154.8738  135.3782  154.4490 H   0  0  0  0  0  0  0  0  0  0  0  0  # atno 10763 bound_to 10752
  153.5168  135.7029  153.5757 H   0  0  0  0  0  0  0  0  0  0  0  0  # atno 10764 bound_to 10752
  153.4022  135.3945  155.1961 H   0  0  0  0  0  0  0  0  0  0  0  0  # atno 10765 bound_to 10752
  140.9756  133.7085  156.1597 H   0  0  0  0  0  0  0  0  0  0  0  0  # atno 11005 bound_to 11000
  146.3041  140.3902  142.8693 LP  0  0  0  0  0  0  0  0  0  0  0  0  # atno 17320 bound_to 7965
  144.8855  140.7456  143.5959 LP  0  0  0  0  0  0  0  0  0  0  0  0  # atno 17321 bound_to 7965
  140.7287  143.6928  150.7908 LP  0  0  0  0  0  0  0  0  0  0  0  0  # atno 17342 bound_to 10162
  140.0514  143.5246  152.2671 LP  0  0  0  0  0  0  0  0  0  0  0  0  # atno 17343 bound_to 10162
  156.3122  130.3773  149.7651 LP  0  0  0  0  0  0  0  0  0  0  0  0  # atno 17370 bound_to 10713
  156.5248  130.8231  151.3216 LP  0  0  0  0  0  0  0  0  0  0  0  0  # atno 17371 bound_to 10713
  140.7264  134.4303  157.5570 LP  0  0  0  0  0  0  0  0  0  0  0  0  # atno 17394 bound_to 11000
  139.8929  134.8743  156.2248 LP  0  0  0  0  0  0  0  0  0  0  0  0  # atno 17395 bound_to 11000

$$$$
