AV-unprocessed.smi:3097|AV-procd|sdf|11799|dock6
  -GOLD-   2272017173D 1   1.00000     0.00000
 Structure written by MMmdl.
 35 35  0  0  0  0  0  0  0  0  2 V2000
  140.2161  137.4680  153.4672 C   0  0  0  0  0  0  0  0  0  0  0  0
  141.4859  136.6172  153.5696 C   0  0  0  0  0  0  0  0  0  0  0  0
  142.7503  137.4089  153.2150 C   0  0  0  0  0  0  0  0  0  0  0  0
  143.9092  136.5196  153.0714 N   0  0  0  0  0  0  0  0  0  0  0  0
  145.1275  136.8760  152.6203 C   0  0  0  0  0  0  0  0  0  0  0  0
  145.3558  138.1480  152.2393 N   0  3  0  0  0  0  0  0  0  0  0  0
  146.6288  138.6736  151.7321 C   0  0  0  0  0  0  0  0  0  0  0  0
  146.1202  135.9662  152.5509 N   0  0  0  0  0  0  0  0  0  0  0  0
  146.0365  134.5539  152.9549 C   0  0  0  0  0  0  0  0  0  0  0  0
  146.5089  133.6114  151.8358 C   0  0  0  0  0  0  0  0  0  0  0  0
  145.4063  133.0964  151.0453 N   0  0  0  0  0  0  0  0  0  0  0  0
  144.8879  133.5955  149.8686 C   0  0  0  0  0  0  0  0  0  0  0  0
  143.8615  132.7750  149.4973 C   0  0  0  0  0  0  0  0  0  0  0  0
  143.8229  131.7941  150.5272 C   0  0  0  0  0  0  0  0  0  0  0  0
  144.7518  131.9865  151.4501 N   0  0  0  0  0  0  0  0  0  0  0  0
  139.3337  136.8818  153.7243 H   0  0  0  0  0  0  0  0  0  0  0  0
  140.0782  137.8497  152.4552 H   0  0  0  0  0  0  0  0  0  0  0  0
  140.2581  138.3210  154.1452 H   0  0  0  0  0  0  0  0  0  0  0  0
  141.5716  136.2230  154.5824 H   0  0  0  0  0  0  0  0  0  0  0  0
  141.3957  135.7536  152.9094 H   0  0  0  0  0  0  0  0  0  0  0  0
  142.6037  137.9536  152.2818 H   0  0  0  0  0  0  0  0  0  0  0  0
  142.9644  138.1445  153.9912 H   0  0  0  0  0  0  0  0  0  0  0  0
  143.7748  135.5619  153.3647 H   0  0  0  0  0  0  0  0  0  0  0  0
  146.5324  139.7347  151.5022 H   0  0  0  0  0  0  0  0  0  0  0  0
  146.9229  138.1484  150.8232 H   0  0  0  0  0  0  0  0  0  0  0  0
  147.4157  138.5517  152.4769 H   0  0  0  0  0  0  0  0  0  0  0  0
  147.0229  136.2798  152.2240 H   0  0  0  0  0  0  0  0  0  0  0  0
  146.5872  134.3812  153.8797 H   0  0  0  0  0  0  0  0  0  0  0  0
  144.9905  134.3423  153.1771 H   0  0  0  0  0  0  0  0  0  0  0  0
  147.1968  134.1347  151.1706 H   0  0  0  0  0  0  0  0  0  0  0  0
  147.0615  132.7693  152.2546 H   0  0  0  0  0  0  0  0  0  0  0  0
  145.2895  134.4806  149.3975 H   0  0  0  0  0  0  0  0  0  0  0  0
  143.2312  132.8644  148.6248 H   0  0  0  0  0  0  0  0  0  0  0  0
  143.1554  130.9511  150.6285 H   0  0  0  0  0  0  0  0  0  0  0  0
  144.5929  138.8069  152.3024 H   0  0  0  0  0  0  0  0  0  0  0  0
  1  2  1  0  0  0  0
  1 16  1  0  0  0  0
  1 17  1  0  0  0  0
  1 18  1  0  0  0  0
  2  3  1  0  0  0  0
  2 19  1  0  0  0  0
  2 20  1  0  0  0  0
  3  4  1  0  0  0  0
  3 21  1  0  0  0  0
  3 22  1  0  0  0  0
  4  5  1  0  0  0  0
  4 23  1  0  0  0  0
  5  6  2  0  0  0  0
  5  8  1  0  0  0  0
  6  7  1  0  0  0  0
  6 35  1  0  0  0  0
  7 24  1  0  0  0  0
  7 25  1  0  0  0  0
  7 26  1  0  0  0  0
  8  9  1  0  0  0  0
  8 27  1  0  0  0  0
  9 10  1  0  0  0  0
  9 28  1  0  0  0  0
  9 29  1  0  0  0  0
 10 11  1  0  0  0  0
 10 30  1  0  0  0  0
 10 31  1  0  0  0  0
 11 15  1  0  0  0  0
 11 12  1  0  0  0  0
 12 13  2  0  0  0  0
 12 32  1  0  0  0  0
 13 14  1  0  0  0  0
 13 33  1  0  0  0  0
 14 15  2  0  0  0  0
 14 34  1  0  0  0  0
M  CHG  1   6   1
M  END
> <s_m_source_file>
AV-unprocessed.smi

> <i_m_source_file_index>
3097

> <i_lp_mmshare_version>
43012

> <i_f3d_flags>
0

> <s_epik_input>
W0NIM11bQ0gyXVtDSDJdW05IXS9DKD1OXFtDSDNdKVtOSF1bQ0gyXVtDSDJdbjFbY0hdW2NIXVtjSF1uMQ==

> <s_epik_cmdline>
J2VwaWtfcHl0aG9uJywgJy1waCcsICc3LjAnLCAnLXRuJywgJzgnLCAnLW1hJywgJzIwMCcsICctbWV0YWxfYmluZGluZycsICctaW1hZScsICc8aW5maWxlLm1hZT4nLCAnLW9tYWUnLCAnPG91dGZpbGUubWFlPic=

> <r_lp_tautomer_probability>
1

> <r_epik_Ionization_Penalty>
4.40305e-05

> <r_epik_Ionization_Penalty_Charging>
1.64417e-07

> <r_epik_Ionization_Penalty_Neutral>
4.38661e-05

> <r_epik_State_Penalty>
-0

> <r_epik_Charging_Adjusted_Penalty>
1.64417e-07

> <i_epik_Tot_Q>
1

> <i_epik_Tot_abs_Q>
1

> <r_epik_Metal_State_Penalty>
-0

> <b_epik_Metal_Only>
0

> <s_epik_Chemistry_Notes>
This compound has an imine and may undergo hydrolysis.

> <s_lp_Force_Field>
OPLS_2005

> <r_lp_Energy>
5.03608

> <b_lp_Chiralities_Consistent>
1

> <s_lp_Variant>
AV-unprocessed.smi:3097-2

> <Gold.Version>
5.8.1

> <Gold.Id.Protein>
6NUR|6NUR_protein|mol2

> <Gold.PLP.Fitness>
45.2939

> <Gold.PLP.PLP>
-28.7063

> <Gold.PLP.part.hbond>
-3.0000

> <Gold.PLP.part.metal>
0.0000

> <Gold.PLP.part.buried>
-2.6716

> <Gold.PLP.part.nonpolar>
-24.4967

> <Gold.PLP.part.repulsive>
0.1670

> <Gold.PLP.ligand.clash>
0.0000

> <Gold.PLP.ligand.torsion>
0.6971

> <Gold.PLP.Chemscore.Hbond>
4.0000

> <Gold.PLP.Chemscore.CHOScore>
1.9900

> <Gold.PLP.Chemscore.Metal>
0.0000

> <Gold.Chemscore.Hbonds>
donor molecule, donor type, donor heavy atom, donor atom, acceptor molecule, acceptor atom, score
      L1  H     6    35       P1 10175  2.00
      L1  H     8    27       P1  7948  2.00
      L1  C    12    32       P1  7921  0.88
      L1  C    14    34       P1 10952  0.75

> <Gold.PLP.Chemscore.Internal.Correction>
0.0120

> <Gold.Rescore>
     Score         DG    S(hbond)    S(metal)    S(lipo)     H(rot)  DE(clash)    DE(int)     intcor
     13.79     -14.77       1.88        0.00      66.31       1.86       0.27       0.71       ----

> <Gold.Chemscore.Fitness>
13.7936

> <Gold.Chemscore.DG>
-14.7712

> <Gold.Chemscore.ZeroCoef>
-5.4800

> <Gold.Chemscore.Hbond>
1.8815

> <Gold.Chemscore.Metal>
0.0000

> <Gold.Chemscore.Lipo>
66.3140

> <Gold.Chemscore.Internal_Hbond>
0.0000

> <Gold.Chemscore.DEClash>
0.2715

> <Gold.Chemscore.DEInternal>
0.7061

> <Gold.Chemscore.Rot>
1.8561

> <Gold.Chemscore.Internal.Correction>
   9.000000E+99

> <Gold.Chemscore.Hbonds>
donor molecule, donor type, donor heavy atom, donor atom, acceptor molecule, acceptor atom, score
      L1  H     6    35       P1 10175  1.00
      L1  H     8    27       P1  7948  0.98

> <Gold.Chemscore.Hbond.Weighted>
-6.2842

> <Gold.Chemscore.Metal.Weighted>
-0.0000

> <Gold.Chemscore.Lipo.Weighted>
-7.7587

> <Gold.Chemscore.Internal_Hbond.Weighted>
0.0000

> <Gold.Chemscore.DEClash.Weighted>
0.2715

> <Gold.Chemscore.DEInternal.Weighted>
0.7061

> <Gold.Chemscore.Rot.Weighted>
4.7517

> <Gold.Chemscore.Internal.Correction.Weighted>
   9.000000E+99

> <Gold.Protein.RotatedTorsions>
[ 6907 6896 6895 6894 ] final  -51.91 input  -60.11 | X-H torsion
[ 7974 7965 7964 7962 ] final -141.43 input  175.53 | X-H torsion
[ 8008 7997 7996 7995 ] final  -57.03 input   59.86 | X-H torsion
[ 10167 10162 10161 10158 ] final -125.53 input  -65.29 | X-H torsion
[ 10718 10713 10712 10709 ] final  114.04 input   66.30 | X-H torsion
[ 10763 10752 10751 10750 ] final -175.33 input  -60.55 | X-H torsion
[ 11005 11000 10999 10996 ] final  156.76 input  -57.11 | X-H torsion

> <Gold.Protein.ActiveResidues>
 VAL166  LYS551  ARG553  GLY616  TRP617  ASP618  TYR619  PRO620  LYS621  CYS622 
 ASP623  PHE694  ASN695  SER759  ASP760  ASP761  ALA762  ILE779  LEU786  VAL792 
 PHE793  MET794  SER795  GLU796  ALA797  LYS798  CYS799  TRP800  GLU811  SER814 

> <Gold.Protein.RotatedAtoms>
  150.8567  134.7908  159.7051 H   0  0  0  0  0  0  0  0  0  0  0  0  # atno 6907 bound_to 6896
  152.4617  134.5166  159.9780 H   0  0  0  0  0  0  0  0  0  0  0  0  # atno 6908 bound_to 6896
  151.5277  133.3416  159.2948 H   0  0  0  0  0  0  0  0  0  0  0  0  # atno 6909 bound_to 6896
  144.8520  140.6081  143.5384 H   0  0  0  0  0  0  0  0  0  0  0  0  # atno 7974 bound_to 7965
  154.4252  140.1116  156.5733 H   0  0  0  0  0  0  0  0  0  0  0  0  # atno 8008 bound_to 7997
  155.6189  140.3495  155.4627 H   0  0  0  0  0  0  0  0  0  0  0  0  # atno 8009 bound_to 7997
  156.0040  140.1205  157.0509 H   0  0  0  0  0  0  0  0  0  0  0  0  # atno 8010 bound_to 7997
  139.9811  143.5741  152.2378 H   0  0  0  0  0  0  0  0  0  0  0  0  # atno 10167 bound_to 10162
  157.6304  131.0993  150.7128 H   0  0  0  0  0  0  0  0  0  0  0  0  # atno 10718 bound_to 10713
  154.5856  135.2840  155.0688 H   0  0  0  0  0  0  0  0  0  0  0  0  # atno 10763 bound_to 10752
  154.2007  135.6425  153.5090 H   0  0  0  0  0  0  0  0  0  0  0  0  # atno 10764 bound_to 10752
  153.0103  135.5468  154.6525 H   0  0  0  0  0  0  0  0  0  0  0  0  # atno 10765 bound_to 10752
  140.1705  134.8546  157.2684 H   0  0  0  0  0  0  0  0  0  0  0  0  # atno 11005 bound_to 11000
  145.4481  139.1527  143.3933 LP  0  0  0  0  0  0  0  0  0  0  0  0  # atno 17320 bound_to 7965
  146.2792  140.4606  142.8783 LP  0  0  0  0  0  0  0  0  0  0  0  0  # atno 17321 bound_to 7965
  139.6409  144.7654  151.2341 LP  0  0  0  0  0  0  0  0  0  0  0  0  # atno 17342 bound_to 10162
  140.7489  143.6319  150.8415 LP  0  0  0  0  0  0  0  0  0  0  0  0  # atno 17343 bound_to 10162
  156.7469  130.4756  149.5465 LP  0  0  0  0  0  0  0  0  0  0  0  0  # atno 17370 bound_to 10713
  156.1503  130.6305  151.0587 LP  0  0  0  0  0  0  0  0  0  0  0  0  # atno 17371 bound_to 10713
  140.2383  134.3826  155.7491 LP  0  0  0  0  0  0  0  0  0  0  0  0  # atno 17394 bound_to 11000
  141.2217  133.7251  156.8749 LP  0  0  0  0  0  0  0  0  0  0  0  0  # atno 17395 bound_to 11000

$$$$
