AV-unprocessed.smi:26|AV-procd|sdf|185|dock4
  -GOLD-   2262015453D 1   1.00000     0.00000
 Structure written by MMmdl.
 58 61  0  0  0  0  0  0  0  0  1 V2000
  148.0637  140.9525  157.3970 C   0  0  0  0  0  0  0  0  0  0  0  0
  149.0185  139.9405  156.8455 C   0  0  0  0  0  0  0  0  0  0  0  0
  148.8777  138.5852  156.8178 C   0  0  0  0  0  0  0  0  0  0  0  0
  150.0209  138.0181  156.1938 C   0  0  0  0  0  0  0  0  0  0  0  0
  150.3179  136.5795  155.9724 C   0  0  0  0  0  0  0  0  0  0  0  0
  151.4583  136.1381  155.8252 O   0  0  0  0  0  0  0  0  0  0  0  0
  149.0968  135.6407  155.9535 C   0  0  0  0  0  0  0  0  0  0  0  0
  148.1253  135.9459  156.9969 N   0  0  0  0  0  0  0  0  0  0  0  0
  146.8116  136.2932  156.5939 C   0  0  0  0  0  0  0  0  0  0  0  0
  146.4806  136.3376  155.4077 O   0  0  0  0  0  0  0  0  0  0  0  0
  145.8962  136.5786  157.6932 C   0  0  0  0  0  0  0  0  0  0  0  0
  144.6274  136.9316  157.4261 F   0  0  0  0  0  0  0  0  0  0  0  0
  146.3015  136.4963  158.9791 C   0  0  0  0  0  0  0  0  0  0  0  0
  147.5890  136.1374  159.3444 N   0  0  0  0  0  0  0  0  0  0  0  0
  148.0179  136.0461  160.7934 C   0  0  2  0  0  0  0  0  0  0  0  0
  147.3581  134.8354  161.4791 C   0  0  0  0  0  0  0  0  0  0  0  0
  146.7711  135.4445  162.7365 C   0  0  0  0  0  0  0  0  0  0  0  0
  146.4722  136.8665  162.2870 C   0  0  0  0  0  0  0  0  0  0  0  0
  147.6018  137.1888  161.4860 O   0  0  0  0  0  0  0  0  0  0  0  0
  148.5442  135.8483  158.3456 C   0  0  0  0  0  0  0  0  0  0  0  0
  149.6919  135.5140  158.6495 O   0  0  0  0  0  0  0  0  0  0  0  0
  150.8424  139.0596  155.8248 C   0  0  0  0  0  0  0  0  0  0  0  0
  152.1534  139.0698  155.0862 C   0  0  0  0  0  0  0  0  0  0  0  0
  150.2509  140.2496  156.2660 N   0  0  0  0  0  0  0  0  0  0  0  0
  150.8277  141.5932  156.0969 C   0  0  1  0  0  0  0  0  0  0  0  0
  149.8577  142.5185  155.3372 C   0  0  0  0  0  0  0  0  0  0  0  0
  151.4015  142.1549  157.4002 C   0  0  0  0  0  0  0  0  0  0  0  0
  152.0383  141.2707  158.2996 C   0  0  0  0  0  0  0  0  0  0  0  0
  152.5792  141.7446  159.5098 C   0  0  0  0  0  0  0  0  0  0  0  0
  152.4936  143.1118  159.8311 C   0  0  0  0  0  0  0  0  0  0  0  0
  151.8675  144.0030  158.9401 C   0  0  0  0  0  0  0  0  0  0  0  0
  151.3254  143.5292  157.7297 C   0  0  0  0  0  0  0  0  0  0  0  0
  147.0811  140.5073  157.5541 H   0  0  0  0  0  0  0  0  0  0  0  0
  147.9316  141.7956  156.7213 H   0  0  0  0  0  0  0  0  0  0  0  0
  148.4069  141.3299  158.3601 H   0  0  0  0  0  0  0  0  0  0  0  0
  148.0278  138.0514  157.2173 H   0  0  0  0  0  0  0  0  0  0  0  0
  148.5874  135.6836  154.9898 H   0  0  0  0  0  0  0  0  0  0  0  0
  149.4008  134.5995  156.0732 H   0  0  0  0  0  0  0  0  0  0  0  0
  145.5718  136.7240  159.7406 H   0  0  0  0  0  0  0  0  0  0  0  0
  149.1087  136.0125  160.7792 H   0  0  0  0  0  0  0  0  0  0  0  0
  146.5661  134.4290  160.8478 H   0  0  0  0  0  0  0  0  0  0  0  0
  148.0889  134.0516  161.6799 H   0  0  0  0  0  0  0  0  0  0  0  0
  145.8886  134.9155  163.0965 H   0  0  0  0  0  0  0  0  0  0  0  0
  147.5161  135.4533  163.5332 H   0  0  0  0  0  0  0  0  0  0  0  0
  145.5621  136.9000  161.6867 H   0  0  0  0  0  0  0  0  0  0  0  0
  146.3609  137.5590  163.1216 H   0  0  0  0  0  0  0  0  0  0  0  0
  152.2947  138.1733  154.4859 H   0  0  0  0  0  0  0  0  0  0  0  0
  152.9894  139.1470  155.7812 H   0  0  0  0  0  0  0  0  0  0  0  0
  152.2121  139.9015  154.3849 H   0  0  0  0  0  0  0  0  0  0  0  0
  151.7129  141.5040  155.4696 H   0  0  0  0  0  0  0  0  0  0  0  0
  150.3263  143.4755  155.1070 H   0  0  0  0  0  0  0  0  0  0  0  0
  148.9472  142.7172  155.9008 H   0  0  0  0  0  0  0  0  0  0  0  0
  149.5592  142.0700  154.3893 H   0  0  0  0  0  0  0  0  0  0  0  0
  152.1086  140.2191  158.0625 H   0  0  0  0  0  0  0  0  0  0  0  0
  153.0599  141.0585  160.1914 H   0  0  0  0  0  0  0  0  0  0  0  0
  152.9085  143.4768  160.7591 H   0  0  0  0  0  0  0  0  0  0  0  0
  151.8023  145.0528  159.1854 H   0  0  0  0  0  0  0  0  0  0  0  0
  150.8483  144.2368  157.0694 H   0  0  0  0  0  0  0  0  0  0  0  0
  1  2  1  0  0  0  0
  1 33  1  0  0  0  0
  1 34  1  0  0  0  0
  1 35  1  0  0  0  0
  2 24  1  0  0  0  0
  2  3  2  0  0  0  0
  3  4  1  0  0  0  0
  3 36  1  0  0  0  0
  4  5  1  0  0  0  0
  4 22  2  0  0  0  0
  5  6  2  0  0  0  0
  5  7  1  0  0  0  0
  7  8  1  0  0  0  0
  7 37  1  0  0  0  0
  7 38  1  0  0  0  0
  8 20  1  0  0  0  0
  8  9  1  0  0  0  0
  9 10  2  0  0  0  0
  9 11  1  0  0  0  0
 11 12  1  0  0  0  0
 11 13  2  0  0  0  0
 13 14  1  0  0  0  0
 13 39  1  0  0  0  0
 14 15  1  0  0  0  0
 14 20  1  0  0  0  0
 15 19  1  0  0  0  0
 15 16  1  0  0  0  0
 15 40  1  0  0  0  0
 16 17  1  0  0  0  0
 16 41  1  0  0  0  0
 16 42  1  0  0  0  0
 17 18  1  0  0  0  0
 17 43  1  0  0  0  0
 17 44  1  0  0  0  0
 18 19  1  0  0  0  0
 18 45  1  0  0  0  0
 18 46  1  0  0  0  0
 20 21  2  0  0  0  0
 22 23  1  0  0  0  0
 22 24  1  0  0  0  0
 23 47  1  0  0  0  0
 23 48  1  0  0  0  0
 23 49  1  0  0  0  0
 24 25  1  0  0  0  0
 25 26  1  0  0  0  0
 25 27  1  0  0  0  0
 25 50  1  0  0  0  0
 26 51  1  0  0  0  0
 26 52  1  0  0  0  0
 26 53  1  0  0  0  0
 27 32  1  0  0  0  0
 27 28  2  0  0  0  0
 28 29  1  0  0  0  0
 28 54  1  0  0  0  0
 29 30  2  0  0  0  0
 29 55  1  0  0  0  0
 30 31  1  0  0  0  0
 30 56  1  0  0  0  0
 31 32  2  0  0  0  0
 31 57  1  0  0  0  0
 32 58  1  0  0  0  0
M  END
> <s_m_source_file>
AV-unprocessed.smi

> <i_m_source_file_index>
26

> <i_lp_mmshare_version>
43012

> <i_f3d_flags>
0

> <s_epik_input>
W2NIXTFbY0hdW2NIXVtjSF1bY0hdYzFbQ0BASF0oW0NIM10pbjJjKFtDSDNdKWMoW2NIXWMyW0NIM10pQyg9TylbQ0gyXW4zYyg9TyljKEYpW2NIXW4oYzM9TylbQ0BASF00W0NIMl1bQ0gyXVtDSDJdTzQ=

> <s_epik_cmdline>
J2VwaWtfcHl0aG9uJywgJy1waCcsICc3LjAnLCAnLXRuJywgJzgnLCAnLW1hJywgJzIwMCcsICctbWV0YWxfYmluZGluZycsICctaW1hZScsICc8aW5maWxlLm1hZT4nLCAnLW9tYWUnLCAnPG91dGZpbGUubWFlPic=

> <r_lp_tautomer_probability>
1

> <r_epik_Ionization_Penalty>
5.02402e-09

> <r_epik_Ionization_Penalty_Charging>
5.01743e-09

> <r_epik_Ionization_Penalty_Neutral>
6.58831e-12

> <r_epik_State_Penalty>
-0

> <r_epik_Charging_Adjusted_Penalty>
5.01743e-09

> <i_epik_Tot_Q>
0

> <i_epik_Tot_abs_Q>
0

> <r_epik_Metal_State_Penalty>
-0

> <b_epik_Metal_Only>
0

> <s_epik_Chemistry_Notes>
This compound contains an acetal/aminal-like group ( X-CH(R)-Y where X, Y are N, S, or O) that may be acid/base labile, releasing an aldehyde.

> <s_lp_Force_Field>
OPLS_2005

> <r_lp_Energy>
50.3932

> <b_lp_Chiralities_Consistent>
1

> <s_lp_Variant>
AV-unprocessed.smi:26-3

> <Gold.Version>
5.8.1

> <Gold.Id.Protein>
6NUR|6NUR_protein|mol2

> <Gold.PLP.Fitness>
55.0451

> <Gold.PLP.PLP>
-46.4078

> <Gold.PLP.part.hbond>
-4.0000

> <Gold.PLP.part.metal>
0.0000

> <Gold.PLP.part.buried>
-1.7512

> <Gold.PLP.part.nonpolar>
-40.6192

> <Gold.PLP.part.repulsive>
0.0837

> <Gold.PLP.ligand.clash>
0.0000

> <Gold.PLP.ligand.torsion>
1.4455

> <Gold.PLP.Chemscore.Hbond>
3.7520

> <Gold.PLP.Chemscore.CHOScore>
0.0000

> <Gold.PLP.Chemscore.Metal>
0.0000

> <Gold.Chemscore.Hbonds>
donor molecule, donor type, donor heavy atom, donor atom, acceptor molecule, acceptor atom, score
      P1  H  6896  6909       L1    21  1.00
      P1  H  6931  6943       L1    19  0.98
      P1  H  6934  6947       L1    19  0.82
      P1  H 10752 10764       L1     6  1.00

> <Gold.PLP.Chemscore.Internal.Correction>
0.2724

> <Gold.Rescore>
     Score         DG    S(hbond)    S(metal)    S(lipo)     H(rot)  DE(clash)    DE(int)     intcor
     20.43     -26.16       3.07        0.00     129.16       1.84       1.75       3.98       ----

> <Gold.Chemscore.Fitness>
20.4278

> <Gold.Chemscore.DG>
-26.1587

> <Gold.Chemscore.ZeroCoef>
-5.4800

> <Gold.Chemscore.Hbond>
3.0739

> <Gold.Chemscore.Metal>
0.0000

> <Gold.Chemscore.Lipo>
129.1600

> <Gold.Chemscore.Internal_Hbond>
0.0000

> <Gold.Chemscore.DEClash>
1.7527

> <Gold.Chemscore.DEInternal>
3.9782

> <Gold.Chemscore.Rot>
1.8359

> <Gold.Chemscore.Internal.Correction>
   9.000000E+99

> <Gold.Chemscore.Hbonds>
donor molecule, donor type, donor heavy atom, donor atom, acceptor molecule, acceptor atom, score
      P1  H  6896  6909       L1    21  0.99
      P1  H  6931  6943       L1    19  0.73
      P1  H  6934  6947       L1    19  0.28
      P1  H 10752 10764       L1     6  0.99

> <Gold.Chemscore.Hbond.Weighted>
-10.2669

> <Gold.Chemscore.Metal.Weighted>
-0.0000

> <Gold.Chemscore.Lipo.Weighted>
-15.1117

> <Gold.Chemscore.Internal_Hbond.Weighted>
0.0000

> <Gold.Chemscore.DEClash.Weighted>
1.7527

> <Gold.Chemscore.DEInternal.Weighted>
3.9782

> <Gold.Chemscore.Rot.Weighted>
4.7000

> <Gold.Chemscore.Internal.Correction.Weighted>
   9.000000E+99

> <Gold.Protein.RotatedTorsions>
[ 6907 6896 6895 6894 ] final   44.65 input  -60.11 | X-H torsion
[ 7974 7965 7964 7962 ] final -156.13 input  175.53 | X-H torsion
[ 8008 7997 7996 7995 ] final  138.75 input   59.86 | X-H torsion
[ 10167 10162 10161 10158 ] final -102.39 input  -65.29 | X-H torsion
[ 10718 10713 10712 10709 ] final -156.52 input   66.30 | X-H torsion
[ 10763 10752 10751 10750 ] final  -38.04 input  -60.55 | X-H torsion
[ 11005 11000 10999 10996 ] final   -6.83 input  -57.11 | X-H torsion

> <Gold.Protein.ActiveResidues>
 VAL166  LYS551  ARG553  GLY616  TRP617  ASP618  TYR619  PRO620  LYS621  CYS622 
 ASP623  PHE694  ASN695  SER759  ASP760  ASP761  ALA762  ILE779  LEU786  VAL792 
 PHE793  MET794  SER795  GLU796  ALA797  LYS798  CYS799  TRP800  GLU811  SER814 

> <Gold.Protein.RotatedAtoms>
  152.2351  134.8284  160.0468 H   0  0  0  0  0  0  0  0  0  0  0  0  # atno 6907 bound_to 6896
  151.9019  133.3535  159.3842 H   0  0  0  0  0  0  0  0  0  0  0  0  # atno 6908 bound_to 6896
  150.7037  134.4745  159.5485 H   0  0  0  0  0  0  0  0  0  0  0  0  # atno 6909 bound_to 6896
  144.7607  140.4153  143.5978 H   0  0  0  0  0  0  0  0  0  0  0  0  # atno 7974 bound_to 7965
  156.2995  140.2385  156.4124 H   0  0  0  0  0  0  0  0  0  0  0  0  # atno 8008 bound_to 7997
  154.8429  140.0427  157.1573 H   0  0  0  0  0  0  0  0  0  0  0  0  # atno 8009 bound_to 7997
  154.9083  140.2987  155.5284 H   0  0  0  0  0  0  0  0  0  0  0  0  # atno 8010 bound_to 7997
  140.2312  143.3605  152.0885 H   0  0  0  0  0  0  0  0  0  0  0  0  # atno 10167 bound_to 10162
  156.5276  130.8506  151.2705 H   0  0  0  0  0  0  0  0  0  0  0  0  # atno 10718 bound_to 10713
  153.9063  135.6797  153.4753 H   0  0  0  0  0  0  0  0  0  0  0  0  # atno 10763 bound_to 10752
  153.1102  135.4786  154.9019 H   0  0  0  0  0  0  0  0  0  0  0  0  # atno 10764 bound_to 10752
  154.7549  135.3195  154.8442 H   0  0  0  0  0  0  0  0  0  0  0  0  # atno 10765 bound_to 10752
  140.7062  133.8947  155.8718 H   0  0  0  0  0  0  0  0  0  0  0  0  # atno 11005 bound_to 11000
  145.6628  139.1584  143.2799 LP  0  0  0  0  0  0  0  0  0  0  0  0  # atno 17320 bound_to 7965
  146.1667  140.6707  142.9252 LP  0  0  0  0  0  0  0  0  0  0  0  0  # atno 17321 bound_to 7965
  139.5109  144.6892  151.5805 LP  0  0  0  0  0  0  0  0  0  0  0  0  # atno 17342 bound_to 10162
  140.6184  143.9306  150.6506 LP  0  0  0  0  0  0  0  0  0  0  0  0  # atno 17343 bound_to 10162
  157.7427  130.9896  150.2535 LP  0  0  0  0  0  0  0  0  0  0  0  0  # atno 17370 bound_to 10713
  156.3090  130.3769  149.7679 LP  0  0  0  0  0  0  0  0  0  0  0  0  # atno 17371 bound_to 10713
  141.0123  134.1004  157.4209 LP  0  0  0  0  0  0  0  0  0  0  0  0  # atno 17394 bound_to 11000
  139.8883  135.0097  156.6615 LP  0  0  0  0  0  0  0  0  0  0  0  0  # atno 17395 bound_to 11000

$$$$
