AV-unprocessed.smi:81|AV-procd|sdf|789|dock5
  -GOLD-   2262017163D 1   1.00000     0.00000
 Structure written by MMmdl.
 64 67  0  0  0  0  0  0  0  0  2 V2000
  152.4313  143.7366  158.0437 C   0  0  0  0  0  0  0  0  0  0  0  0
  151.9722  142.3740  158.5890 C   0  0  0  0  0  0  0  0  0  0  0  0
  153.1022  141.7037  159.3835 C   0  0  0  0  0  0  0  0  0  0  0  0
  151.4801  141.4395  157.4610 C   0  0  0  0  0  0  0  0  0  0  0  0
  150.2768  140.6739  157.8009 N   0  0  0  0  0  0  0  0  0  0  0  0
  150.5076  139.3960  158.1943 C   0  0  0  0  0  0  0  0  0  0  0  0
  151.7826  138.9385  158.3051 N   0  0  0  0  0  0  0  0  0  0  0  0
  152.0105  137.6825  158.7005 C   0  0  0  0  0  0  0  0  0  0  0  0
  151.1269  136.7374  159.0285 N   0  0  0  0  0  0  0  0  0  0  0  0
  149.8468  137.1965  158.9245 C   0  0  0  0  0  0  0  0  0  0  0  0
  149.4528  138.5031  158.5231 C   0  0  0  0  0  0  0  0  0  0  0  0
  148.0686  138.6139  158.5503 N   0  0  0  0  0  0  0  0  0  0  0  0
  147.6658  137.4373  158.9465 C   0  0  0  0  0  0  0  0  0  0  0  0
  148.6666  136.5203  159.1797 N   0  0  0  0  0  0  0  0  0  0  0  0
  148.5026  135.1451  159.6251 C   0  0  0  0  0  0  0  0  0  0  0  0
  148.5737  134.0945  158.4822 C   0  0  2  0  0  0  0  0  0  0  0  0
  149.8954  134.0252  157.9813 O   0  0  0  0  0  0  0  0  0  0  0  0
  147.6221  134.3733  157.3250 C   0  0  0  0  0  0  0  0  0  0  0  0
  146.3070  133.7894  157.8316 C   0  0  0  0  0  0  0  0  0  0  0  0
  146.6712  132.7009  158.6752 O   0  0  0  0  0  0  0  0  0  0  0  0
  148.0809  132.6912  158.8876 C   0  0  2  0  0  0  0  0  0  0  0  0
  148.4124  132.2250  160.3132 C   0  0  0  0  0  0  0  0  0  0  0  0
  149.1052  140.8844  156.9379 C   0  0  2  0  0  0  0  0  0  0  0  0
  149.4561  141.1130  155.4522 C   0  0  0  0  0  0  0  0  0  0  0  0
  148.1830  141.2407  154.6003 C   0  0  0  0  0  0  0  0  0  0  0  0
  147.3132  142.3323  155.1044 N   0  3  1  0  0  0  0  0  0  0  0  0
  146.1417  142.5670  154.2334 C   0  0  0  0  0  0  0  0  0  0  0  0
  146.9309  142.1287  156.5238 C   0  0  0  0  0  0  0  0  0  0  0  0
  148.1744  142.0178  157.4214 C   0  0  0  0  0  0  0  0  0  0  0  0
  153.2521  143.6236  157.3347 H   0  0  0  0  0  0  0  0  0  0  0  0
  152.7744  144.3860  158.8493 H   0  0  0  0  0  0  0  0  0  0  0  0
  151.6207  144.2564  157.5332 H   0  0  0  0  0  0  0  0  0  0  0  0
  151.1559  142.5500  159.2902 H   0  0  0  0  0  0  0  0  0  0  0  0
  153.9651  141.4973  158.7497 H   0  0  0  0  0  0  0  0  0  0  0  0
  152.7712  140.7581  159.8141 H   0  0  0  0  0  0  0  0  0  0  0  0
  153.4364  142.3382  160.2047 H   0  0  0  0  0  0  0  0  0  0  0  0
  151.2797  142.0338  156.5690 H   0  0  0  0  0  0  0  0  0  0  0  0
  152.2781  140.7484  157.1858 H   0  0  0  0  0  0  0  0  0  0  0  0
  153.0492  137.3929  158.7635 H   0  0  0  0  0  0  0  0  0  0  0  0
  146.6191  137.2009  159.0728 H   0  0  0  0  0  0  0  0  0  0  0  0
  149.2719  134.9451  160.3718 H   0  0  0  0  0  0  0  0  0  0  0  0
  147.5485  135.0739  160.1485 H   0  0  0  0  0  0  0  0  0  0  0  0
  149.8977  134.3530  157.0950 H   0  0  0  0  0  0  0  0  0  0  0  0
  147.5449  135.4202  157.0360 H   0  0  0  0  0  0  0  0  0  0  0  0
  147.9330  133.8182  156.4381 H   0  0  0  0  0  0  0  0  0  0  0  0
  145.7639  134.5255  158.4253 H   0  0  0  0  0  0  0  0  0  0  0  0
  145.6563  133.4643  157.0196 H   0  0  0  0  0  0  0  0  0  0  0  0
  148.4852  131.9608  158.1842 H   0  0  0  0  0  0  0  0  0  0  0  0
  149.4878  132.2458  160.4911 H   0  0  0  0  0  0  0  0  0  0  0  0
  148.0699  131.2028  160.4733 H   0  0  0  0  0  0  0  0  0  0  0  0
  147.9315  132.8501  161.0656 H   0  0  0  0  0  0  0  0  0  0  0  0
  148.5360  139.9550  156.9843 H   0  0  0  0  0  0  0  0  0  0  0  0
  150.0520  142.0185  155.3304 H   0  0  0  0  0  0  0  0  0  0  0  0
  150.0615  140.2861  155.0794 H   0  0  0  0  0  0  0  0  0  0  0  0
  148.4587  141.4429  153.5644 H   0  0  0  0  0  0  0  0  0  0  0  0
  147.6313  140.2992  154.6041 H   0  0  0  0  0  0  0  0  0  0  0  0
  145.4878  141.6943  154.2119 H   0  0  0  0  0  0  0  0  0  0  0  0
  146.4580  142.7832  153.2125 H   0  0  0  0  0  0  0  0  0  0  0  0
  145.5631  143.4202  154.5885 H   0  0  0  0  0  0  0  0  0  0  0  0
  146.3151  142.9640  156.8596 H   0  0  0  0  0  0  0  0  0  0  0  0
  146.3208  141.2284  156.6139 H   0  0  0  0  0  0  0  0  0  0  0  0
  147.8601  141.8423  158.4504 H   0  0  0  0  0  0  0  0  0  0  0  0
  148.7006  142.9727  157.4154 H   0  0  0  0  0  0  0  0  0  0  0  0
  147.8653  143.1776  155.0740 H   0  0  0  0  0  0  0  0  0  0  0  0
  1  2  1  0  0  0  0
  1 30  1  0  0  0  0
  1 31  1  0  0  0  0
  1 32  1  0  0  0  0
  2  3  1  0  0  0  0
  2  4  1  0  0  0  0
  2 33  1  0  0  0  0
  3 34  1  0  0  0  0
  3 35  1  0  0  0  0
  3 36  1  0  0  0  0
  4  5  1  0  0  0  0
  4 37  1  0  0  0  0
  4 38  1  0  0  0  0
  5  6  1  0  0  0  0
  5 23  1  0  0  0  0
  6 11  1  0  0  0  0
  6  7  2  0  0  0  0
  7  8  1  0  0  0  0
  8  9  2  0  0  0  0
  8 39  1  0  0  0  0
  9 10  1  0  0  0  0
 10 14  1  0  0  0  0
 10 11  2  0  0  0  0
 11 12  1  0  0  0  0
 12 13  2  0  0  0  0
 13 14  1  0  0  0  0
 13 40  1  0  0  0  0
 14 15  1  0  0  0  0
 15 16  1  0  0  0  0
 15 41  1  0  0  0  0
 15 42  1  0  0  0  0
 16 21  1  0  0  0  0
 16 17  1  0  0  0  0
 16 18  1  0  0  0  0
 17 43  1  0  0  0  0
 18 19  1  0  0  0  0
 18 44  1  0  0  0  0
 18 45  1  0  0  0  0
 19 20  1  0  0  0  0
 19 46  1  0  0  0  0
 19 47  1  0  0  0  0
 20 21  1  0  0  0  0
 21 22  1  0  0  0  0
 21 48  1  0  0  0  0
 22 49  1  0  0  0  0
 22 50  1  0  0  0  0
 22 51  1  0  0  0  0
 23 29  1  0  0  0  0
 23 24  1  0  0  0  0
 23 52  1  0  0  0  0
 24 25  1  0  0  0  0
 24 53  1  0  0  0  0
 24 54  1  0  0  0  0
 25 26  1  0  0  0  0
 25 55  1  0  0  0  0
 25 56  1  0  0  0  0
 26 27  1  0  0  0  0
 26 28  1  0  0  0  0
 26 64  1  0  0  0  0
 27 57  1  0  0  0  0
 27 58  1  0  0  0  0
 27 59  1  0  0  0  0
 28 29  1  0  0  0  0
 28 60  1  0  0  0  0
 28 61  1  0  0  0  0
 29 62  1  0  0  0  0
 29 63  1  0  0  0  0
M  CHG  1  26   1
M  END
> <s_m_source_file>
AV-unprocessed.smi

> <i_m_source_file_index>
81

> <i_lp_mmshare_version>
43012

> <i_f3d_flags>
0

> <s_epik_input>
W0NIMl0xW0NIMl1OKFtDSDNdKVtDSDJdW0NIMl1bQ0hdMU4oW0NIMl1bQ0hdKFtDSDNdKVtDSDNdKWMobltjSF1uMiljKGMyMyluW2NIXW4zW0NIMl1bQ0BAXTQoW09IXSlbQ0gyXVtDSDJdT1tDQEhdNFtDSDNd

> <s_epik_cmdline>
J2VwaWtfcHl0aG9uJywgJy1waCcsICc3LjAnLCAnLXRuJywgJzgnLCAnLW1hJywgJzIwMCcsICctbWV0YWxfYmluZGluZycsICctaW1hZScsICc8aW5maWxlLm1hZT4nLCAnLW9tYWUnLCAnPG91dGZpbGUubWFlPic=

> <r_lp_tautomer_probability>
1

> <r_epik_Ionization_Penalty>
0.00272708

> <r_epik_Ionization_Penalty_Charging>
0.00158983

> <r_epik_Ionization_Penalty_Neutral>
0.00113725

> <r_epik_State_Penalty>
-0

> <r_epik_Charging_Adjusted_Penalty>
0.00158983

> <i_epik_Tot_Q>
1

> <i_epik_Tot_abs_Q>
1

> <r_epik_Metal_State_Penalty>
-0

> <b_epik_Metal_Only>
0

> <s_lp_Force_Field>
OPLS_2005

> <r_lp_Energy>
46.4423

> <b_lp_Chiralities_Consistent>
1

> <s_lp_Variant>
AV-unprocessed.smi:81-4

> <Gold.Version>
5.8.1

> <Gold.Id.Protein>
6NUR|6NUR_protein|mol2

> <Gold.PLP.Fitness>
46.9461

> <Gold.PLP.PLP>
-40.1132

> <Gold.PLP.part.hbond>
-3.8695

> <Gold.PLP.part.metal>
0.0000

> <Gold.PLP.part.buried>
-6.1589

> <Gold.PLP.part.nonpolar>
-30.2957

> <Gold.PLP.part.repulsive>
0.1398

> <Gold.PLP.ligand.clash>
0.0000

> <Gold.PLP.ligand.torsion>
2.9097

> <Gold.PLP.Chemscore.Hbond>
3.9280

> <Gold.PLP.Chemscore.CHOScore>
0.0000

> <Gold.PLP.Chemscore.Metal>
0.0000

> <Gold.Chemscore.Hbonds>
donor molecule, donor type, donor heavy atom, donor atom, acceptor molecule, acceptor atom, score
      L1  H    26    64       P1  8028  2.00
      P1  H  6896  6907       L1    17  1.00
      P1  H  6896  6908       L1     9  0.88

> <Gold.PLP.Chemscore.Internal.Correction>
0.8684

> <Gold.Rescore>
     Score         DG    S(hbond)    S(metal)    S(lipo)     H(rot)  DE(clash)    DE(int)     intcor
     13.91     -18.08       2.71        0.00      86.77       2.58       0.11       4.06       ----

> <Gold.Chemscore.Fitness>
13.9118

> <Gold.Chemscore.DG>
-18.0826

> <Gold.Chemscore.ZeroCoef>
-5.4800

> <Gold.Chemscore.Hbond>
2.7092

> <Gold.Chemscore.Metal>
0.0000

> <Gold.Chemscore.Lipo>
86.7707

> <Gold.Chemscore.Internal_Hbond>
0.0000

> <Gold.Chemscore.DEClash>
0.1104

> <Gold.Chemscore.DEInternal>
4.0604

> <Gold.Chemscore.Rot>
2.5774

> <Gold.Chemscore.Internal.Correction>
   9.000000E+99

> <Gold.Chemscore.Hbonds>
donor molecule, donor type, donor heavy atom, donor atom, acceptor molecule, acceptor atom, score
      L1  H    26    64       P1  8028  0.74
      P1  H  6896  6907       L1    17  0.47
      P1  H  6896  6908       L1     9  0.85

> <Gold.Chemscore.Hbond.Weighted>
-9.0487

> <Gold.Chemscore.Metal.Weighted>
-0.0000

> <Gold.Chemscore.Lipo.Weighted>
-10.1522

> <Gold.Chemscore.Internal_Hbond.Weighted>
0.0000

> <Gold.Chemscore.DEClash.Weighted>
0.1104

> <Gold.Chemscore.DEInternal.Weighted>
4.0604

> <Gold.Chemscore.Rot.Weighted>
6.5982

> <Gold.Chemscore.Internal.Correction.Weighted>
   9.000000E+99

> <Gold.Protein.RotatedTorsions>
[ 6907 6896 6895 6894 ] final -119.97 input  -60.11 | X-H torsion
[ 7974 7965 7964 7962 ] final -118.69 input  175.53 | X-H torsion
[ 8008 7997 7996 7995 ] final -168.40 input   59.86 | X-H torsion
[ 10167 10162 10161 10158 ] final  147.49 input  -65.29 | X-H torsion
[ 10718 10713 10712 10709 ] final   46.88 input   66.30 | X-H torsion
[ 10763 10752 10751 10750 ] final   51.91 input  -60.55 | X-H torsion
[ 11005 11000 10999 10996 ] final -161.80 input  -57.11 | X-H torsion

> <Gold.Protein.ActiveResidues>
 VAL166  LYS551  ARG553  GLY616  TRP617  ASP618  TYR619  PRO620  LYS621  CYS622 
 ASP623  PHE694  ASN695  SER759  ASP760  ASP761  ALA762  ILE779  LEU786  VAL792 
 PHE793  MET794  SER795  GLU796  ALA797  LYS798  CYS799  TRP800  GLU811  SER814 

> <Gold.Protein.RotatedAtoms>
  150.8352  133.8026  159.3082 H   0  0  0  0  0  0  0  0  0  0  0  0  # atno 6907 bound_to 6896
  151.5744  135.1059  160.0012 H   0  0  0  0  0  0  0  0  0  0  0  0  # atno 6908 bound_to 6896
  152.4425  133.7433  159.6709 H   0  0  0  0  0  0  0  0  0  0  0  0  # atno 6909 bound_to 6896
  145.0709  140.8358  143.4096 H   0  0  0  0  0  0  0  0  0  0  0  0  # atno 7974 bound_to 7965
  155.8909  140.1024  157.1419 H   0  0  0  0  0  0  0  0  0  0  0  0  # atno 8008 bound_to 7997
  154.4015  140.1311  156.4378 H   0  0  0  0  0  0  0  0  0  0  0  0  # atno 8009 bound_to 7997
  155.7535  140.3464  155.5164 H   0  0  0  0  0  0  0  0  0  0  0  0  # atno 8010 bound_to 7997
  139.4889  144.5751  151.6980 H   0  0  0  0  0  0  0  0  0  0  0  0  # atno 10167 bound_to 10162
  157.4527  130.8148  149.7805 H   0  0  0  0  0  0  0  0  0  0  0  0  # atno 10718 bound_to 10713
  152.9787  135.5830  154.4493 H   0  0  0  0  0  0  0  0  0  0  0  0  # atno 10763 bound_to 10752
  154.4084  135.2769  155.2054 H   0  0  0  0  0  0  0  0  0  0  0  0  # atno 10764 bound_to 10752
  154.3855  135.6137  153.5868 H   0  0  0  0  0  0  0  0  0  0  0  0  # atno 10765 bound_to 10752
  140.6163  134.4797  157.5220 H   0  0  0  0  0  0  0  0  0  0  0  0  # atno 11005 bound_to 11000
  145.1294  139.2642  143.5547 LP  0  0  0  0  0  0  0  0  0  0  0  0  # atno 17320 bound_to 7965
  146.3528  140.0940  142.8611 LP  0  0  0  0  0  0  0  0  0  0  0  0  # atno 17321 bound_to 7965
  140.5346  144.0676  150.6066 LP  0  0  0  0  0  0  0  0  0  0  0  0  # atno 17342 bound_to 10162
  140.3677  143.2872  152.0313 LP  0  0  0  0  0  0  0  0  0  0  0  0  # atno 17343 bound_to 10162
  155.9994  130.3889  150.2665 LP  0  0  0  0  0  0  0  0  0  0  0  0  # atno 17370 bound_to 10713
  157.0838  131.0151  151.3147 LP  0  0  0  0  0  0  0  0  0  0  0  0  # atno 17371 bound_to 10713
  139.9171  134.8223  156.1330 LP  0  0  0  0  0  0  0  0  0  0  0  0  # atno 17394 bound_to 11000
  141.0773  133.6770  156.2263 LP  0  0  0  0  0  0  0  0  0  0  0  0  # atno 17395 bound_to 11000

$$$$
