AV-unprocessed.smi:3220|AV-procd|sdf|12300|dock9
  -GOLD-   2272018143D 1   1.00000     0.00000
 Structure written by MMmdl.
 33 34  0  0  0  0  0  0  0  0  1 V2000
  149.6156  140.3538  157.9580 C   0  0  0  0  0  0  0  0  0  0  0  0
  150.8753  141.0442  157.4149 C   0  0  1  0  0  0  0  0  0  0  0  0
  150.5382  142.0221  156.2728 C   0  0  0  0  0  0  0  0  0  0  0  0
  149.8073  141.3804  155.1944 N   0  0  0  0  0  0  0  0  0  0  0  0
  148.5839  141.7280  154.6611 C   0  0  0  0  0  0  0  0  0  0  0  0
  148.3080  140.8380  153.6631 C   0  0  0  0  0  0  0  0  0  0  0  0
  149.4375  139.9724  153.6609 C   0  0  0  0  0  0  0  0  0  0  0  0
  150.3333  140.2997  154.5785 N   0  0  0  0  0  0  0  0  0  0  0  0
  151.5506  141.7563  158.4980 N   0  0  0  0  0  0  0  0  0  0  0  0
  152.7021  141.3883  159.0799 C   0  0  0  0  0  0  0  0  0  0  0  0
  153.3257  140.3733  158.7685 O   0  0  0  0  0  0  0  0  0  0  0  0
  153.2333  142.3244  160.1712 C   0  0  1  0  0  0  0  0  0  0  0  0
  152.3648  143.5741  160.4101 C   0  0  0  0  0  0  0  0  0  0  0  0
  151.7374  143.3200  161.7665 C   0  0  0  0  0  0  0  0  0  0  0  0
  152.8010  142.4695  162.4455 C   0  0  0  0  0  0  0  0  0  0  0  0
  153.2358  141.6083  161.4050 O   0  0  0  0  0  0  0  0  0  0  0  0
  149.1021  139.8007  157.1711 H   0  0  0  0  0  0  0  0  0  0  0  0
  148.9116  141.0778  158.3695 H   0  0  0  0  0  0  0  0  0  0  0  0
  149.8648  139.6445  158.7480 H   0  0  0  0  0  0  0  0  0  0  0  0
  151.5339  140.2718  157.0129 H   0  0  0  0  0  0  0  0  0  0  0  0
  149.9323  142.8474  156.6501 H   0  0  0  0  0  0  0  0  0  0  0  0
  151.4472  142.4658  155.8641 H   0  0  0  0  0  0  0  0  0  0  0  0
  148.0201  142.5722  155.0297 H   0  0  0  0  0  0  0  0  0  0  0  0
  147.4337  140.8101  153.0302 H   0  0  0  0  0  0  0  0  0  0  0  0
  149.6316  139.1220  153.0243 H   0  0  0  0  0  0  0  0  0  0  0  0
  151.1154  142.6085  158.8199 H   0  0  0  0  0  0  0  0  0  0  0  0
  154.2543  142.6304  159.9363 H   0  0  0  0  0  0  0  0  0  0  0  0
  153.0019  144.4583  160.4549 H   0  0  0  0  0  0  0  0  0  0  0  0
  151.6151  143.7546  159.6385 H   0  0  0  0  0  0  0  0  0  0  0  0
  151.5080  144.2358  162.3117 H   0  0  0  0  0  0  0  0  0  0  0  0
  150.8167  142.7462  161.6530 H   0  0  0  0  0  0  0  0  0  0  0  0
  153.6359  143.0852  162.7837 H   0  0  0  0  0  0  0  0  0  0  0  0
  152.4155  141.9092  163.2973 H   0  0  0  0  0  0  0  0  0  0  0  0
  1  2  1  0  0  0  0
  1 17  1  0  0  0  0
  1 18  1  0  0  0  0
  1 19  1  0  0  0  0
  2  3  1  0  0  0  0
  2  9  1  0  0  0  0
  2 20  1  0  0  0  0
  3  4  1  0  0  0  0
  3 21  1  0  0  0  0
  3 22  1  0  0  0  0
  4  8  1  0  0  0  0
  4  5  1  0  0  0  0
  5  6  2  0  0  0  0
  5 23  1  0  0  0  0
  6  7  1  0  0  0  0
  6 24  1  0  0  0  0
  7  8  2  0  0  0  0
  7 25  1  0  0  0  0
  9 10  1  0  0  0  0
  9 26  1  0  0  0  0
 10 11  2  0  0  0  0
 10 12  1  0  0  0  0
 12 16  1  0  0  0  0
 12 13  1  0  0  0  0
 12 27  1  0  0  0  0
 13 14  1  0  0  0  0
 13 28  1  0  0  0  0
 13 29  1  0  0  0  0
 14 15  1  0  0  0  0
 14 30  1  0  0  0  0
 14 31  1  0  0  0  0
 15 16  1  0  0  0  0
 15 32  1  0  0  0  0
 15 33  1  0  0  0  0
M  END
> <s_m_source_file>
AV-unprocessed.smi

> <i_m_source_file_index>
3220

> <i_lp_mmshare_version>
43012

> <i_f3d_flags>
0

> <s_epik_input>
bjFbY0hdW2NIXVtjSF1uMVtDSDJdW0NAQEhdKFtDSDNdKVtOSF1DKD1PKVtDQEBIXTJbQ0gyXVtDSDJdW0NIMl1PMg==

> <s_epik_cmdline>
J2VwaWtfcHl0aG9uJywgJy1waCcsICc3LjAnLCAnLXRuJywgJzgnLCAnLW1hJywgJzIwMCcsICctbWV0YWxfYmluZGluZycsICctaW1hZScsICc8aW5maWxlLm1hZT4nLCAnLW9tYWUnLCAnPG91dGZpbGUubWFlPic=

> <r_lp_tautomer_probability>
1

> <r_epik_Ionization_Penalty>
0.00033363

> <r_epik_Ionization_Penalty_Charging>
0

> <r_epik_Ionization_Penalty_Neutral>
0.00033363

> <r_epik_State_Penalty>
-0

> <r_epik_Charging_Adjusted_Penalty>
0

> <i_epik_Tot_Q>
0

> <i_epik_Tot_abs_Q>
0

> <r_epik_Metal_State_Penalty>
-0

> <b_epik_Metal_Only>
0

> <s_lp_Force_Field>
OPLS_2005

> <r_lp_Energy>
17.8243

> <b_lp_Chiralities_Consistent>
1

> <s_lp_Variant>
AV-unprocessed.smi:3220-4

> <Gold.Version>
5.8.1

> <Gold.Id.Protein>
6NUR|6NUR_protein|mol2

> <Gold.PLP.Fitness>
45.3276

> <Gold.PLP.PLP>
-35.4818

> <Gold.PLP.part.hbond>
-2.0000

> <Gold.PLP.part.metal>
0.0000

> <Gold.PLP.part.buried>
0.9584

> <Gold.PLP.part.nonpolar>
-32.8054

> <Gold.PLP.part.repulsive>
0.1732

> <Gold.PLP.ligand.clash>
0.0000

> <Gold.PLP.ligand.torsion>
0.1515

> <Gold.PLP.Chemscore.Hbond>
1.9440

> <Gold.PLP.Chemscore.CHOScore>
1.4304

> <Gold.PLP.Chemscore.Metal>
0.0000

> <Gold.Chemscore.Hbonds>
donor molecule, donor type, donor heavy atom, donor atom, acceptor molecule, acceptor atom, score
      P1  H  7989  7998       L1     8  0.90
      P1  H  7997  8010       L1    11  0.58
      L1  C     5    23       P1  8028  0.96
      L1  C     7    25       P1  7957  0.42

> <Gold.PLP.Chemscore.Internal.Correction>
0.0256

> <Gold.Rescore>
     Score         DG    S(hbond)    S(metal)    S(lipo)     H(rot)  DE(clash)    DE(int)     intcor
     14.89     -16.91       1.74        0.00      83.54       1.62       1.71       0.31       ----

> <Gold.Chemscore.Fitness>
14.8924

> <Gold.Chemscore.DG>
-16.9064

> <Gold.Chemscore.ZeroCoef>
-5.4800

> <Gold.Chemscore.Hbond>
1.7377

> <Gold.Chemscore.Metal>
0.0000

> <Gold.Chemscore.Lipo>
83.5415

> <Gold.Chemscore.Internal_Hbond>
0.0000

> <Gold.Chemscore.DEClash>
1.7072

> <Gold.Chemscore.DEInternal>
0.3068

> <Gold.Chemscore.Rot>
1.6219

> <Gold.Chemscore.Internal.Correction>
   9.000000E+99

> <Gold.Chemscore.Hbonds>
donor molecule, donor type, donor heavy atom, donor atom, acceptor molecule, acceptor atom, score
      P1  H  7989  7998       L1     8  0.11
      P1  H  7997  8010       L1    11  0.57

> <Gold.Chemscore.Hbond.Weighted>
-5.8040

> <Gold.Chemscore.Metal.Weighted>
-0.0000

> <Gold.Chemscore.Lipo.Weighted>
-9.7744

> <Gold.Chemscore.Internal_Hbond.Weighted>
0.0000

> <Gold.Chemscore.DEClash.Weighted>
1.7072

> <Gold.Chemscore.DEInternal.Weighted>
0.3068

> <Gold.Chemscore.Rot.Weighted>
4.1520

> <Gold.Chemscore.Internal.Correction.Weighted>
   9.000000E+99

> <Gold.Protein.RotatedTorsions>
[ 6907 6896 6895 6894 ] final   71.30 input  -60.11 | X-H torsion
[ 7974 7965 7964 7962 ] final   52.39 input  175.53 | X-H torsion
[ 8008 7997 7996 7995 ] final   30.70 input   59.86 | X-H torsion
[ 10167 10162 10161 10158 ] final -103.67 input  -65.29 | X-H torsion
[ 10718 10713 10712 10709 ] final   49.42 input   66.30 | X-H torsion
[ 10763 10752 10751 10750 ] final -105.82 input  -60.55 | X-H torsion
[ 11005 11000 10999 10996 ] final   25.74 input  -57.11 | X-H torsion

> <Gold.Protein.ActiveResidues>
 VAL166  LYS551  ARG553  GLY616  TRP617  ASP618  TYR619  PRO620  LYS621  CYS622 
 ASP623  PHE694  ASN695  SER759  ASP760  ASP761  ALA762  ILE779  LEU786  VAL792 
 PHE793  MET794  SER795  GLU796  ALA797  LYS798  CYS799  TRP800  GLU811  SER814 

> <Gold.Protein.RotatedAtoms>
  152.4802  134.4740  159.9644 H   0  0  0  0  0  0  0  0  0  0  0  0  # atno 6907 bound_to 6896
  151.4748  133.3554  159.2837 H   0  0  0  0  0  0  0  0  0  0  0  0  # atno 6908 bound_to 6896
  150.8869  134.8293  159.7326 H   0  0  0  0  0  0  0  0  0  0  0  0  # atno 6909 bound_to 6896
  145.9817  139.4249  143.0127 H   0  0  0  0  0  0  0  0  0  0  0  0  # atno 7974 bound_to 7965
  155.0946  140.3223  155.4564 H   0  0  0  0  0  0  0  0  0  0  0  0  # atno 8008 bound_to 7997
  156.2733  140.2072  156.6020 H   0  0  0  0  0  0  0  0  0  0  0  0  # atno 8009 bound_to 7997
  154.6876  140.0519  157.0318 H   0  0  0  0  0  0  0  0  0  0  0  0  # atno 8010 bound_to 7997
  140.2175  143.3700  152.0998 H   0  0  0  0  0  0  0  0  0  0  0  0  # atno 10167 bound_to 10162
  157.4785  130.8300  149.8066 H   0  0  0  0  0  0  0  0  0  0  0  0  # atno 10718 bound_to 10713
  154.7971  135.4735  154.0188 H   0  0  0  0  0  0  0  0  0  0  0  0  # atno 10763 bound_to 10752
  153.1722  135.6827  153.8600 H   0  0  0  0  0  0  0  0  0  0  0  0  # atno 10764 bound_to 10752
  153.8178  135.3208  155.3385 H   0  0  0  0  0  0  0  0  0  0  0  0  # atno 10765 bound_to 10752
  140.3446  134.2296  155.7686 H   0  0  0  0  0  0  0  0  0  0  0  0  # atno 11005 bound_to 11000
  145.7759  140.9877  143.1125 LP  0  0  0  0  0  0  0  0  0  0  0  0  # atno 17320 bound_to 7965
  144.6863  139.9504  143.7478 LP  0  0  0  0  0  0  0  0  0  0  0  0  # atno 17321 bound_to 7965
  139.5156  144.6966  151.5614 LP  0  0  0  0  0  0  0  0  0  0  0  0  # atno 17342 bound_to 10162
  140.6279  143.9133  150.6580 LP  0  0  0  0  0  0  0  0  0  0  0  0  # atno 17343 bound_to 10162
  156.0109  130.3834  150.2268 LP  0  0  0  0  0  0  0  0  0  0  0  0  # atno 17370 bound_to 10713
  157.0454  131.0047  151.3270 LP  0  0  0  0  0  0  0  0  0  0  0  0  # atno 17371 bound_to 10713
  141.2029  133.7925  157.0366 LP  0  0  0  0  0  0  0  0  0  0  0  0  # atno 17394 bound_to 11000
  140.0753  134.9679  157.1535 LP  0  0  0  0  0  0  0  0  0  0  0  0  # atno 17395 bound_to 11000

$$$$
