AV-unprocessed.smi:1019|AV-procd|sdf|4443|dock5
  -GOLD-   22720 2403D 1   1.00000     0.00000
 Structure written by MMmdl.
 44 46  0  0  0  0  0  0  0  0  2 V2000
  149.1305  132.9661  153.3169 C   0  0  0  0  0  0  0  0  0  0  0  0
  148.5029  134.1712  153.9086 N   0  3  1  0  0  0  0  0  0  0  0  0
  147.0404  134.0130  154.1174 C   0  0  0  0  0  0  0  0  0  0  0  0
  146.2799  134.0043  152.8034 C   0  0  0  0  0  0  0  0  0  0  0  0
  146.4943  132.9647  151.8738 C   0  0  0  0  0  0  0  0  0  0  0  0
  145.7882  132.9487  150.6552 C   0  0  0  0  0  0  0  0  0  0  0  0
  144.8671  133.9724  150.3609 C   0  0  0  0  0  0  0  0  0  0  0  0
  144.6529  135.0135  151.2850 C   0  0  0  0  0  0  0  0  0  0  0  0
  145.3586  135.0306  152.5037 C   0  0  0  0  0  0  0  0  0  0  0  0
  149.2177  134.6331  155.1260 C   0  0  0  0  0  0  0  0  0  0  0  0
  149.2811  136.1707  155.2144 C   0  0  2  0  0  0  0  0  0  0  0  0
  148.3515  136.7164  154.2974 O   0  0  0  0  0  0  0  0  0  0  0  0
  150.6906  136.7062  154.8974 C   0  0  0  0  0  0  0  0  0  0  0  0
  150.7781  138.1499  155.0278 N   0  0  0  0  0  0  0  0  0  0  0  0
  150.3928  139.0687  154.1213 C   0  0  0  0  0  0  0  0  0  0  0  0
  150.5662  140.3484  154.4382 N   0  0  0  0  0  0  0  0  0  0  0  0
  151.1275  140.2502  155.6997 C   0  0  0  0  0  0  0  0  0  0  0  0
  151.5537  141.2576  156.5944 C   0  0  0  0  0  0  0  0  0  0  0  0
  152.1046  140.9147  157.8467 C   0  0  0  0  0  0  0  0  0  0  0  0
  152.2382  139.5625  158.2230 C   0  0  0  0  0  0  0  0  0  0  0  0
  151.8215  138.5407  157.3483 C   0  0  0  0  0  0  0  0  0  0  0  0
  151.2721  138.8870  156.0994 C   0  0  0  0  0  0  0  0  0  0  0  0
  149.0554  132.1141  153.9937 H   0  0  0  0  0  0  0  0  0  0  0  0
  150.1856  133.1440  153.1065 H   0  0  0  0  0  0  0  0  0  0  0  0
  148.6579  132.6962  152.3726 H   0  0  0  0  0  0  0  0  0  0  0  0
  146.8390  133.1007  154.6813 H   0  0  0  0  0  0  0  0  0  0  0  0
  146.6461  134.8326  154.7174 H   0  0  0  0  0  0  0  0  0  0  0  0
  147.1990  132.1757  152.0940 H   0  0  0  0  0  0  0  0  0  0  0  0
  145.9528  132.1509  149.9458 H   0  0  0  0  0  0  0  0  0  0  0  0
  144.3253  133.9596  149.4265 H   0  0  0  0  0  0  0  0  0  0  0  0
  143.9468  135.7989  151.0584 H   0  0  0  0  0  0  0  0  0  0  0  0
  145.1871  135.8317  153.2078 H   0  0  0  0  0  0  0  0  0  0  0  0
  148.7315  134.2141  156.0085 H   0  0  0  0  0  0  0  0  0  0  0  0
  150.2381  134.2458  155.1320 H   0  0  0  0  0  0  0  0  0  0  0  0
  149.0001  136.5048  156.2132 H   0  0  0  0  0  0  0  0  0  0  0  0
  148.6763  136.5846  153.4193 H   0  0  0  0  0  0  0  0  0  0  0  0
  151.4232  136.2596  155.5710 H   0  0  0  0  0  0  0  0  0  0  0  0
  150.9890  136.4267  153.8861 H   0  0  0  0  0  0  0  0  0  0  0  0
  149.9638  138.7812  153.1723 H   0  0  0  0  0  0  0  0  0  0  0  0
  151.4566  142.2969  156.3170 H   0  0  0  0  0  0  0  0  0  0  0  0
  152.4263  141.6935  158.5224 H   0  0  0  0  0  0  0  0  0  0  0  0
  152.6607  139.3104  159.1848 H   0  0  0  0  0  0  0  0  0  0  0  0
  151.9237  137.5050  157.6353 H   0  0  0  0  0  0  0  0  0  0  0  0
  148.6195  134.9104  153.2295 H   0  0  0  0  0  0  0  0  0  0  0  0
  1  2  1  0  0  0  0
  1 23  1  0  0  0  0
  1 24  1  0  0  0  0
  1 25  1  0  0  0  0
  2  3  1  0  0  0  0
  2 10  1  0  0  0  0
  2 44  1  0  0  0  0
  3  4  1  0  0  0  0
  3 26  1  0  0  0  0
  3 27  1  0  0  0  0
  4  9  1  0  0  0  0
  4  5  2  0  0  0  0
  5  6  1  0  0  0  0
  5 28  1  0  0  0  0
  6  7  2  0  0  0  0
  6 29  1  0  0  0  0
  7  8  1  0  0  0  0
  7 30  1  0  0  0  0
  8  9  2  0  0  0  0
  8 31  1  0  0  0  0
  9 32  1  0  0  0  0
 10 11  1  0  0  0  0
 10 33  1  0  0  0  0
 10 34  1  0  0  0  0
 11 12  1  0  0  0  0
 11 13  1  0  0  0  0
 11 35  1  0  0  0  0
 12 36  1  0  0  0  0
 13 14  1  0  0  0  0
 13 37  1  0  0  0  0
 13 38  1  0  0  0  0
 14 22  1  0  0  0  0
 14 15  1  0  0  0  0
 15 16  2  0  0  0  0
 15 39  1  0  0  0  0
 16 17  1  0  0  0  0
 17 22  2  0  0  0  0
 17 18  1  0  0  0  0
 18 19  2  0  0  0  0
 18 40  1  0  0  0  0
 19 20  1  0  0  0  0
 19 41  1  0  0  0  0
 20 21  2  0  0  0  0
 20 42  1  0  0  0  0
 21 22  1  0  0  0  0
 21 43  1  0  0  0  0
M  CHG  1   2   1
M  END
> <s_m_source_file>
AV-unprocessed.smi

> <i_m_source_file_index>
1019

> <i_lp_mmshare_version>
43012

> <i_f3d_flags>
0

> <s_epik_input>
W2NIXTFbY0hdW2NIXVtjSF1bY0hdYzFbQ0gyXU4oW0NIM10pW0NIMl1bQ0BIXShbT0hdKVtDSDJdbihbY0hdbjIpYyhjMjMpW2NIXVtjSF1bY0hdW2NIXTM=

> <s_epik_cmdline>
J2VwaWtfcHl0aG9uJywgJy1waCcsICc3LjAnLCAnLXRuJywgJzgnLCAnLW1hJywgJzIwMCcsICctbWV0YWxfYmluZGluZycsICctaW1hZScsICc8aW5maWxlLm1hZT4nLCAnLW9tYWUnLCAnPG91dGZpbGUubWFlPic=

> <r_epik_Ionization_Penalty>
0.0996557

> <r_epik_Ionization_Penalty_Charging>
0.0475377

> <r_epik_Ionization_Penalty_Neutral>
0.0521179

> <r_epik_State_Penalty>
0.0851777

> <r_epik_Charging_Adjusted_Penalty>
0.132715

> <i_epik_Tot_Q>
1

> <i_epik_Tot_abs_Q>
1

> <r_epik_Metal_State_Penalty>
0.0423478

> <b_epik_Metal_Only>
0

> <s_lp_Force_Field>
OPLS_2005

> <r_lp_Energy>
15.2714

> <b_lp_Chiralities_Consistent>
1

> <s_lp_Variant>
AV-unprocessed.smi:1019-1

> <Gold.Version>
5.8.1

> <Gold.Id.Protein>
6NUR|6NUR_protein|mol2

> <Gold.PLP.Fitness>
49.7391

> <Gold.PLP.PLP>
-37.5830

> <Gold.PLP.part.hbond>
-3.0000

> <Gold.PLP.part.metal>
0.0000

> <Gold.PLP.part.buried>
-4.1555

> <Gold.PLP.part.nonpolar>
-29.8621

> <Gold.PLP.part.repulsive>
0.1152

> <Gold.PLP.ligand.clash>
0.0000

> <Gold.PLP.ligand.torsion>
1.5288

> <Gold.PLP.Chemscore.Hbond>
3.9920

> <Gold.PLP.Chemscore.CHOScore>
0.9953

> <Gold.PLP.Chemscore.Metal>
0.0000

> <Gold.Chemscore.Hbonds>
donor molecule, donor type, donor heavy atom, donor atom, acceptor molecule, acceptor atom, score
      L1  H     2    44       P1  7948  2.00
      L1  H    12    36       P1  7948  1.00
      P1  H  7989  7998       L1    16  0.94
      L1  C    15    39       P1  7957  1.00

> <Gold.PLP.Chemscore.Internal.Correction>
0.2520

> <Gold.Rescore>
     Score         DG    S(hbond)    S(metal)    S(lipo)     H(rot)  DE(clash)    DE(int)     intcor
     14.55     -16.34       1.90        0.00      90.32       2.36       0.11       1.68       ----

> <Gold.Chemscore.Fitness>
14.5476

> <Gold.Chemscore.DG>
-16.3395

> <Gold.Chemscore.ZeroCoef>
-5.4800

> <Gold.Chemscore.Hbond>
1.8977

> <Gold.Chemscore.Metal>
0.0000

> <Gold.Chemscore.Lipo>
90.3165

> <Gold.Chemscore.Internal_Hbond>
0.0000

> <Gold.Chemscore.DEClash>
0.1085

> <Gold.Chemscore.DEInternal>
1.6835

> <Gold.Chemscore.Rot>
2.3616

> <Gold.Chemscore.Internal.Correction>
   9.000000E+99

> <Gold.Chemscore.Hbonds>
donor molecule, donor type, donor heavy atom, donor atom, acceptor molecule, acceptor atom, score
      L1  H     2    44       P1  7948  0.55
      L1  H    12    36       P1  7948  0.99
      P1  H  7989  7998       L1    16  0.32

> <Gold.Chemscore.Hbond.Weighted>
-6.3382

> <Gold.Chemscore.Metal.Weighted>
-0.0000

> <Gold.Chemscore.Lipo.Weighted>
-10.5670

> <Gold.Chemscore.Internal_Hbond.Weighted>
0.0000

> <Gold.Chemscore.DEClash.Weighted>
0.1085

> <Gold.Chemscore.DEInternal.Weighted>
1.6835

> <Gold.Chemscore.Rot.Weighted>
6.0457

> <Gold.Chemscore.Internal.Correction.Weighted>
   9.000000E+99

> <Gold.Protein.RotatedTorsions>
[ 6907 6896 6895 6894 ] final   92.79 input  -60.11 | X-H torsion
[ 7974 7965 7964 7962 ] final   88.07 input  175.53 | X-H torsion
[ 8008 7997 7996 7995 ] final  148.50 input   59.86 | X-H torsion
[ 10167 10162 10161 10158 ] final  -18.31 input  -65.29 | X-H torsion
[ 10718 10713 10712 10709 ] final  165.01 input   66.30 | X-H torsion
[ 10763 10752 10751 10750 ] final    5.43 input  -60.55 | X-H torsion
[ 11005 11000 10999 10996 ] final -162.28 input  -57.11 | X-H torsion

> <Gold.Protein.ActiveResidues>
 VAL166  LYS551  ARG553  GLY616  TRP617  ASP618  TYR619  PRO620  LYS621  CYS622 
 ASP623  PHE694  ASN695  SER759  ASP760  ASP761  ALA762  ILE779  LEU786  VAL792 
 PHE793  MET794  SER795  GLU796  ALA797  LYS798  CYS799  TRP800  GLU811  SER814 

> <Gold.Protein.RotatedAtoms>
  152.5453  134.1448  159.8493 H   0  0  0  0  0  0  0  0  0  0  0  0  # atno 6907 bound_to 6896
  151.1481  133.4919  159.2603 H   0  0  0  0  0  0  0  0  0  0  0  0  # atno 6908 bound_to 6896
  151.1501  135.0234  159.8719 H   0  0  0  0  0  0  0  0  0  0  0  0  # atno 6909 bound_to 6896
  145.5506  139.2295  143.2515 H   0  0  0  0  0  0  0  0  0  0  0  0  # atno 7974 bound_to 7965
  156.2789  140.2127  156.5708 H   0  0  0  0  0  0  0  0  0  0  0  0  # atno 8008 bound_to 7997
  154.7137  140.0509  157.0598 H   0  0  0  0  0  0  0  0  0  0  0  0  # atno 8009 bound_to 7997
  155.0570  140.3162  155.4676 H   0  0  0  0  0  0  0  0  0  0  0  0  # atno 8010 bound_to 7997
  140.7257  143.4929  150.9968 H   0  0  0  0  0  0  0  0  0  0  0  0  # atno 10167 bound_to 10162
  157.0863  131.0405  151.2555 H   0  0  0  0  0  0  0  0  0  0  0  0  # atno 10718 bound_to 10713
  153.2595  135.6922  153.7593 H   0  0  0  0  0  0  0  0  0  0  0  0  # atno 10763 bound_to 10752
  153.6658  135.3353  155.3140 H   0  0  0  0  0  0  0  0  0  0  0  0  # atno 10764 bound_to 10752
  154.8425  135.4488  154.1581 H   0  0  0  0  0  0  0  0  0  0  0  0  # atno 10765 bound_to 10752
  140.6110  134.4849  157.5215 H   0  0  0  0  0  0  0  0  0  0  0  0  # atno 11005 bound_to 11000
  146.1919  140.6329  142.9141 LP  0  0  0  0  0  0  0  0  0  0  0  0  # atno 17320 bound_to 7965
  144.7531  140.5241  143.6788 LP  0  0  0  0  0  0  0  0  0  0  0  0  # atno 17321 bound_to 7965
  139.8634  143.7285  152.3172 LP  0  0  0  0  0  0  0  0  0  0  0  0  # atno 17342 bound_to 10162
  139.7508  144.7534  151.0509 LP  0  0  0  0  0  0  0  0  0  0  0  0  # atno 17343 bound_to 10162
  157.4758  130.7736  149.7367 LP  0  0  0  0  0  0  0  0  0  0  0  0  # atno 17370 bound_to 10713
  155.9910  130.3941  150.3004 LP  0  0  0  0  0  0  0  0  0  0  0  0  # atno 17371 bound_to 10713
  139.9192  134.8183  156.1266 LP  0  0  0  0  0  0  0  0  0  0  0  0  # atno 17394 bound_to 11000
  141.0808  133.6755  156.2332 LP  0  0  0  0  0  0  0  0  0  0  0  0  # atno 17395 bound_to 11000

$$$$
