AV-unprocessed.smi:1225|AV-procd|sdf|5138|dock7
  -GOLD-   22720 4203D 1   1.00000     0.00000
 Structure written by MMmdl.
 49 51  0  0  0  0  0  0  0  0  2 V2000
  146.3954  130.2555  150.8600 C   0  0  0  0  0  0  0  0  0  0  0  0
  145.8953  131.6521  150.7160 C   0  0  0  0  0  0  0  0  0  0  0  0
  144.6450  131.9573  150.3615 N   0  0  0  0  0  0  0  0  0  0  0  0
  144.4301  133.3361  150.3001 C   0  0  0  0  0  0  0  0  0  0  0  0
  145.5354  134.0858  150.6191 C   0  0  0  0  0  0  0  0  0  0  0  0
  145.6453  135.5775  150.6490 C   0  0  0  0  0  0  0  0  0  0  0  0
  146.0574  136.1148  151.9467 N   0  0  0  0  0  0  0  0  0  0  0  0
  145.4165  135.3899  153.0439 C   0  0  0  0  0  0  0  0  0  0  0  0
  145.7819  137.5519  152.0150 C   0  0  0  0  0  0  0  0  0  0  0  0
  146.7117  138.3623  152.9397 C   0  0  2  0  0  0  0  0  0  0  0  0
  146.0004  138.6593  154.1243 O   0  0  0  0  0  0  0  0  0  0  0  0
  147.1818  139.6805  152.2912 C   0  0  0  0  0  0  0  0  0  0  0  0
  147.8842  140.5612  153.2331 N   0  0  0  0  0  0  0  0  0  0  0  0
  147.5275  141.7760  153.7317 C   0  0  0  0  0  0  0  0  0  0  0  0
  148.5225  142.1832  154.5683 N   0  3  0  0  0  0  0  0  0  0  0  0
  149.5298  141.2159  154.5999 C   0  0  0  0  0  0  0  0  0  0  0  0
  150.7330  141.1746  155.2943 C   0  0  0  0  0  0  0  0  0  0  0  0
  151.5467  140.0339  155.1075 C   0  0  0  0  0  0  0  0  0  0  0  0
  152.8686  139.9573  155.8524 C   0  0  0  0  0  0  0  0  0  0  0  0
  151.1425  138.9813  154.2455 C   0  0  0  0  0  0  0  0  0  0  0  0
  152.0246  137.7595  154.0521 C   0  0  0  0  0  0  0  0  0  0  0  0
  149.9152  139.0427  153.5475 C   0  0  0  0  0  0  0  0  0  0  0  0
  149.1264  140.1732  153.7440 C   0  0  0  0  0  0  0  0  0  0  0  0
  146.9012  133.0672  150.9996 S   0  0  0  0  0  0  0  0  0  0  0  0
  145.6400  129.5404  150.5326 H   0  0  0  0  0  0  0  0  0  0  0  0
  146.6393  130.0539  151.9032 H   0  0  0  0  0  0  0  0  0  0  0  0
  147.2927  130.1166  150.2567 H   0  0  0  0  0  0  0  0  0  0  0  0
  143.4523  133.7007  150.0216 H   0  0  0  0  0  0  0  0  0  0  0  0
  146.3689  135.8723  149.8882 H   0  0  0  0  0  0  0  0  0  0  0  0
  144.6963  136.0242  150.3483 H   0  0  0  0  0  0  0  0  0  0  0  0
  145.7789  135.7301  154.0125 H   0  0  0  0  0  0  0  0  0  0  0  0
  145.6308  134.3224  152.9903 H   0  0  0  0  0  0  0  0  0  0  0  0
  144.3335  135.5175  153.0206 H   0  0  0  0  0  0  0  0  0  0  0  0
  145.8607  137.9794  151.0142 H   0  0  0  0  0  0  0  0  0  0  0  0
  144.7449  137.7037  152.3198 H   0  0  0  0  0  0  0  0  0  0  0  0
  147.5709  137.7616  153.2350 H   0  0  0  0  0  0  0  0  0  0  0  0
  145.4381  137.9275  154.3269 H   0  0  0  0  0  0  0  0  0  0  0  0
  147.8438  139.4892  151.4456 H   0  0  0  0  0  0  0  0  0  0  0  0
  146.3294  140.2345  151.8956 H   0  0  0  0  0  0  0  0  0  0  0  0
  146.6195  142.3170  153.5062 H   0  0  0  0  0  0  0  0  0  0  0  0
  151.0339  141.9798  155.9484 H   0  0  0  0  0  0  0  0  0  0  0  0
  152.8770  139.1020  156.5284 H   0  0  0  0  0  0  0  0  0  0  0  0
  153.0442  140.8544  156.4468 H   0  0  0  0  0  0  0  0  0  0  0  0
  153.6984  139.8546  155.1527 H   0  0  0  0  0  0  0  0  0  0  0  0
  151.5601  137.0340  153.3836 H   0  0  0  0  0  0  0  0  0  0  0  0
  152.2074  137.2631  155.0053 H   0  0  0  0  0  0  0  0  0  0  0  0
  152.9838  138.0452  153.6198 H   0  0  0  0  0  0  0  0  0  0  0  0
  149.6064  138.2431  152.8902 H   0  0  0  0  0  0  0  0  0  0  0  0
  148.5129  143.0578  155.0774 H   0  0  0  0  0  0  0  0  0  0  0  0
  1  2  1  0  0  0  0
  1 25  1  0  0  0  0
  1 26  1  0  0  0  0
  1 27  1  0  0  0  0
  2 24  1  0  0  0  0
  2  3  2  0  0  0  0
  3  4  1  0  0  0  0
  4  5  2  0  0  0  0
  4 28  1  0  0  0  0
  5  6  1  0  0  0  0
  5 24  1  0  0  0  0
  6  7  1  0  0  0  0
  6 29  1  0  0  0  0
  6 30  1  0  0  0  0
  7  8  1  0  0  0  0
  7  9  1  0  0  0  0
  8 31  1  0  0  0  0
  8 32  1  0  0  0  0
  8 33  1  0  0  0  0
  9 10  1  0  0  0  0
  9 34  1  0  0  0  0
  9 35  1  0  0  0  0
 10 11  1  0  0  0  0
 10 12  1  0  0  0  0
 10 36  1  0  0  0  0
 11 37  1  0  0  0  0
 12 13  1  0  0  0  0
 12 38  1  0  0  0  0
 12 39  1  0  0  0  0
 13 23  1  0  0  0  0
 13 14  1  0  0  0  0
 14 15  2  0  0  0  0
 14 40  1  0  0  0  0
 15 16  1  0  0  0  0
 15 49  1  0  0  0  0
 16 23  2  0  0  0  0
 16 17  1  0  0  0  0
 17 18  2  0  0  0  0
 17 41  1  0  0  0  0
 18 19  1  0  0  0  0
 18 20  1  0  0  0  0
 19 42  1  0  0  0  0
 19 43  1  0  0  0  0
 19 44  1  0  0  0  0
 20 21  1  0  0  0  0
 20 22  2  0  0  0  0
 21 45  1  0  0  0  0
 21 46  1  0  0  0  0
 21 47  1  0  0  0  0
 22 23  1  0  0  0  0
 22 48  1  0  0  0  0
M  CHG  1  15   1
M  END
> <s_m_source_file>
AV-unprocessed.smi

> <i_m_source_file_index>
1225

> <i_lp_mmshare_version>
43012

> <i_f3d_flags>
0

> <s_epik_input>
W0NIM11jMW5bY0hdYyhzMSlbQ0gyXU4oW0NIM10pW0NIMl1bQ0BIXShbT0hdKVtDSDJdbihbY0hdbjIpYyhjMjMpW2NIXWMoW0NIM10pYyhbY0hdMylbQ0gzXQ==

> <s_epik_cmdline>
J2VwaWtfcHl0aG9uJywgJy1waCcsICc3LjAnLCAnLXRuJywgJzgnLCAnLW1hJywgJzIwMCcsICctbWV0YWxfYmluZGluZycsICctaW1hZScsICc8aW5maWxlLm1hZT4nLCAnLW9tYWUnLCAnPG91dGZpbGUubWFlPic=

> <r_epik_Ionization_Penalty>
1.25968

> <r_epik_Ionization_Penalty_Charging>
1.21782

> <r_epik_Ionization_Penalty_Neutral>
0.0418565

> <r_epik_State_Penalty>
1.29962

> <r_epik_Charging_Adjusted_Penalty>
2.51745

> <i_epik_Tot_Q>
1

> <i_epik_Tot_abs_Q>
1

> <r_epik_Metal_State_Penalty>
1.36802

> <b_epik_Metal_Only>
0

> <s_lp_Force_Field>
OPLS_2005

> <r_lp_Energy>
21.2232

> <b_lp_Chiralities_Consistent>
1

> <s_lp_Variant>
AV-unprocessed.smi:1225-3

> <Gold.Version>
5.8.1

> <Gold.Id.Protein>
6NUR|6NUR_protein|mol2

> <Gold.PLP.Fitness>
54.3149

> <Gold.PLP.PLP>
-47.4914

> <Gold.PLP.part.hbond>
-1.8919

> <Gold.PLP.part.metal>
0.0000

> <Gold.PLP.part.buried>
-0.6248

> <Gold.PLP.part.nonpolar>
-44.6899

> <Gold.PLP.part.repulsive>
0.4907

> <Gold.PLP.ligand.clash>
0.0000

> <Gold.PLP.ligand.torsion>
1.1832

> <Gold.PLP.Chemscore.Hbond>
1.9840

> <Gold.PLP.Chemscore.CHOScore>
1.0000

> <Gold.PLP.Chemscore.Metal>
0.0000

> <Gold.Chemscore.Hbonds>
donor molecule, donor type, donor heavy atom, donor atom, acceptor molecule, acceptor atom, score
      L1  H    15    49       P1  8028  2.00
      L1  C     4    28       P1 10186  0.85

> <Gold.PLP.Chemscore.Internal.Correction>
0.2379

> <Gold.Rescore>
     Score         DG    S(hbond)    S(metal)    S(lipo)     H(rot)  DE(clash)    DE(int)     intcor
     14.80     -16.56       0.99        0.00     118.10       2.36       0.14       1.61       ----

> <Gold.Chemscore.Fitness>
14.8006

> <Gold.Chemscore.DG>
-16.5567

> <Gold.Chemscore.ZeroCoef>
-5.4800

> <Gold.Chemscore.Hbond>
0.9918

> <Gold.Chemscore.Metal>
0.0000

> <Gold.Chemscore.Lipo>
118.1039

> <Gold.Chemscore.Internal_Hbond>
0.0000

> <Gold.Chemscore.DEClash>
0.1415

> <Gold.Chemscore.DEInternal>
1.6146

> <Gold.Chemscore.Rot>
2.3649

> <Gold.Chemscore.Internal.Correction>
   9.000000E+99

> <Gold.Chemscore.Hbonds>
donor molecule, donor type, donor heavy atom, donor atom, acceptor molecule, acceptor atom, score
      L1  H    15    49       P1  8028  1.00

> <Gold.Chemscore.Hbond.Weighted>
-3.3125

> <Gold.Chemscore.Metal.Weighted>
-0.0000

> <Gold.Chemscore.Lipo.Weighted>
-13.8182

> <Gold.Chemscore.Internal_Hbond.Weighted>
0.0000

> <Gold.Chemscore.DEClash.Weighted>
0.1415

> <Gold.Chemscore.DEInternal.Weighted>
1.6146

> <Gold.Chemscore.Rot.Weighted>
6.0540

> <Gold.Chemscore.Internal.Correction.Weighted>
   9.000000E+99

> <Gold.Protein.RotatedTorsions>
[ 6907 6896 6895 6894 ] final -148.02 input  -60.11 | X-H torsion
[ 7974 7965 7964 7962 ] final   94.99 input  175.53 | X-H torsion
[ 8008 7997 7996 7995 ] final   16.81 input   59.86 | X-H torsion
[ 10167 10162 10161 10158 ] final  -82.10 input  -65.29 | X-H torsion
[ 10718 10713 10712 10709 ] final  142.72 input   66.30 | X-H torsion
[ 10763 10752 10751 10750 ] final  -92.98 input  -60.55 | X-H torsion
[ 11005 11000 10999 10996 ] final  -95.71 input  -57.11 | X-H torsion

> <Gold.Protein.ActiveResidues>
 VAL166  LYS551  ARG553  GLY616  TRP617  ASP618  TYR619  PRO620  LYS621  CYS622 
 ASP623  PHE694  ASN695  SER759  ASP760  ASP761  ALA762  ILE779  LEU786  VAL792 
 PHE793  MET794  SER795  GLU796  ALA797  LYS798  CYS799  TRP800  GLU811  SER814 

> <Gold.Protein.RotatedAtoms>
  151.1639  133.4827  159.2593 H   0  0  0  0  0  0  0  0  0  0  0  0  # atno 6907 bound_to 6896
  151.1426  135.0187  159.8642 H   0  0  0  0  0  0  0  0  0  0  0  0  # atno 6908 bound_to 6896
  152.5462  134.1531  159.8580 H   0  0  0  0  0  0  0  0  0  0  0  0  # atno 6909 bound_to 6896
  145.4581  139.2288  143.3002 H   0  0  0  0  0  0  0  0  0  0  0  0  # atno 7974 bound_to 7965
  154.8823  140.2975  155.5418 H   0  0  0  0  0  0  0  0  0  0  0  0  # atno 8008 bound_to 7997
  156.3022  140.2440  156.3762 H   0  0  0  0  0  0  0  0  0  0  0  0  # atno 8009 bound_to 7997
  154.8704  140.0401  157.1710 H   0  0  0  0  0  0  0  0  0  0  0  0  # atno 8010 bound_to 7997
  140.4351  143.2534  151.8705 H   0  0  0  0  0  0  0  0  0  0  0  0  # atno 10167 bound_to 10162
  157.3773  131.0987  151.0772 H   0  0  0  0  0  0  0  0  0  0  0  0  # atno 10718 bound_to 10713
  154.6915  135.5211  153.8399 H   0  0  0  0  0  0  0  0  0  0  0  0  # atno 10763 bound_to 10752
  153.0635  135.6577  154.0416 H   0  0  0  0  0  0  0  0  0  0  0  0  # atno 10764 bound_to 10752
  154.0290  135.2987  155.3351 H   0  0  0  0  0  0  0  0  0  0  0  0  # atno 10765 bound_to 10752
  141.1433  133.8045  157.0472 H   0  0  0  0  0  0  0  0  0  0  0  0  # atno 11005 bound_to 11000
  146.2466  140.5347  142.8911 LP  0  0  0  0  0  0  0  0  0  0  0  0  # atno 17320 bound_to 7965
  144.8019  140.6229  143.6472 LP  0  0  0  0  0  0  0  0  0  0  0  0  # atno 17321 bound_to 7965
  139.4786  144.5291  151.8692 LP  0  0  0  0  0  0  0  0  0  0  0  0  # atno 17342 bound_to 10162
  140.4383  144.2022  150.5890 LP  0  0  0  0  0  0  0  0  0  0  0  0  # atno 17343 bound_to 10162
  157.1854  130.6328  149.5686 LP  0  0  0  0  0  0  0  0  0  0  0  0  # atno 17370 bound_to 10713
  155.9768  130.4740  150.6552 LP  0  0  0  0  0  0  0  0  0  0  0  0  # atno 17371 bound_to 10713
  140.0655  134.9731  157.1378 LP  0  0  0  0  0  0  0  0  0  0  0  0  # atno 17394 bound_to 11000
  140.3787  134.2311  155.7172 LP  0  0  0  0  0  0  0  0  0  0  0  0  # atno 17395 bound_to 11000

$$$$
