AV-unprocessed.smi:1287|AV-procd|sdf|5380|dock7
  -GOLD-   22720 4523D 1   1.00000     0.00000
 Structure written by MMmdl.
 44 45  0  0  0  0  0  0  0  0  1 V2000
  150.2467  131.2956  156.1789 C   0  0  0  0  0  0  0  0  0  0  0  0
  149.9708  132.7619  156.4927 C   0  0  0  0  0  0  0  0  0  0  0  0
  150.2526  133.2216  157.5991 O   0  0  0  0  0  0  0  0  0  0  0  0
  149.4174  133.4857  155.5068 N   0  0  0  0  0  0  0  0  0  0  0  0
  149.0544  134.8993  155.5994 C   0  0  1  0  0  0  0  0  0  0  0  0
  148.3565  135.1247  156.9511 C   0  0  0  0  0  0  0  0  0  0  0  0
  150.3081  135.7879  155.5619 C   0  0  0  0  0  0  0  0  0  0  0  0
  151.1686  135.6994  156.4394 O   0  0  0  0  0  0  0  0  0  0  0  0
  150.3830  136.6616  154.5465 N   0  0  0  0  0  0  0  0  0  0  0  0
  151.4705  137.6127  154.3421 C   0  0  0  0  0  0  0  0  0  0  0  0
  151.4721  138.7778  155.3216 C   0  0  0  0  0  0  0  0  0  0  0  0
  150.5735  139.8581  155.1998 C   0  0  0  0  0  0  0  0  0  0  0  0
  150.6308  140.9044  156.1400 C   0  0  0  0  0  0  0  0  0  0  0  0
  151.5908  140.8488  157.1785 C   0  0  0  0  0  0  0  0  0  0  0  0
  151.6651  141.8856  158.1340 N   0  0  0  0  0  0  0  0  0  0  0  0
  151.7065  143.2433  157.5959 C   0  0  0  0  0  0  0  0  0  0  0  0
  151.4719  144.2713  158.7163 C   0  0  0  0  0  0  0  0  0  0  0  0
  152.4101  144.0638  159.7670 O   0  0  0  0  0  0  0  0  0  0  0  0
  152.2735  142.7725  160.3506 C   0  0  0  0  0  0  0  0  0  0  0  0
  152.5413  141.6932  159.2881 C   0  0  0  0  0  0  0  0  0  0  0  0
  152.4537  139.8086  157.2902 N   0  0  0  0  0  0  0  0  0  0  0  0
  152.3949  138.8086  156.3859 C   0  0  0  0  0  0  0  0  0  0  0  0
  149.3453  130.8077  155.8070 H   0  0  0  0  0  0  0  0  0  0  0  0
  150.5778  130.7637  157.0715 H   0  0  0  0  0  0  0  0  0  0  0  0
  151.0253  131.2092  155.4203 H   0  0  0  0  0  0  0  0  0  0  0  0
  149.2132  133.0203  154.6343 H   0  0  0  0  0  0  0  0  0  0  0  0
  148.3757  135.1662  154.7868 H   0  0  0  0  0  0  0  0  0  0  0  0
  148.0590  136.1670  157.0745 H   0  0  0  0  0  0  0  0  0  0  0  0
  149.0012  134.8614  157.7913 H   0  0  0  0  0  0  0  0  0  0  0  0
  147.4526  134.5194  157.0275 H   0  0  0  0  0  0  0  0  0  0  0  0
  149.6337  136.6697  153.8696 H   0  0  0  0  0  0  0  0  0  0  0  0
  152.4271  137.0890  154.3850 H   0  0  0  0  0  0  0  0  0  0  0  0
  151.3848  138.0156  153.3329 H   0  0  0  0  0  0  0  0  0  0  0  0
  149.8456  139.8903  154.4025 H   0  0  0  0  0  0  0  0  0  0  0  0
  149.9317  141.7235  156.0622 H   0  0  0  0  0  0  0  0  0  0  0  0
  152.6819  143.4088  157.1367 H   0  0  0  0  0  0  0  0  0  0  0  0
  150.9603  143.3936  156.8171 H   0  0  0  0  0  0  0  0  0  0  0  0
  151.5927  145.2827  158.3280 H   0  0  0  0  0  0  0  0  0  0  0  0
  150.4541  144.1987  159.1031 H   0  0  0  0  0  0  0  0  0  0  0  0
  152.9850  142.6760  161.1705 H   0  0  0  0  0  0  0  0  0  0  0  0
  151.2764  142.6581  160.7788 H   0  0  0  0  0  0  0  0  0  0  0  0
  152.3790  140.7077  159.7263 H   0  0  0  0  0  0  0  0  0  0  0  0
  153.5817  141.7395  158.9636 H   0  0  0  0  0  0  0  0  0  0  0  0
  153.1062  138.0069  156.5204 H   0  0  0  0  0  0  0  0  0  0  0  0
  1  2  1  0  0  0  0
  1 23  1  0  0  0  0
  1 24  1  0  0  0  0
  1 25  1  0  0  0  0
  2  3  2  0  0  0  0
  2  4  1  0  0  0  0
  4  5  1  0  0  0  0
  4 26  1  0  0  0  0
  5  6  1  0  0  0  0
  5  7  1  0  0  0  0
  5 27  1  0  0  0  0
  6 28  1  0  0  0  0
  6 29  1  0  0  0  0
  6 30  1  0  0  0  0
  7  8  2  0  0  0  0
  7  9  1  0  0  0  0
  9 10  1  0  0  0  0
  9 31  1  0  0  0  0
 10 11  1  0  0  0  0
 10 32  1  0  0  0  0
 10 33  1  0  0  0  0
 11 22  1  0  0  0  0
 11 12  2  0  0  0  0
 12 13  1  0  0  0  0
 12 34  1  0  0  0  0
 13 14  2  0  0  0  0
 13 35  1  0  0  0  0
 14 15  1  0  0  0  0
 14 21  1  0  0  0  0
 15 20  1  0  0  0  0
 15 16  1  0  0  0  0
 16 17  1  0  0  0  0
 16 36  1  0  0  0  0
 16 37  1  0  0  0  0
 17 18  1  0  0  0  0
 17 38  1  0  0  0  0
 17 39  1  0  0  0  0
 18 19  1  0  0  0  0
 19 20  1  0  0  0  0
 19 40  1  0  0  0  0
 19 41  1  0  0  0  0
 20 42  1  0  0  0  0
 20 43  1  0  0  0  0
 21 22  2  0  0  0  0
 22 44  1  0  0  0  0
M  END
> <s_m_source_file>
AV-unprocessed.smi

> <i_m_source_file_index>
1287

> <i_lp_mmshare_version>
43012

> <i_f3d_flags>
0

> <s_epik_input>
W0NIM11DKD1PKVtOSF1bQ0BIXShbQ0gzXSlDKD1PKVtOSF1bQ0gyXWMxW2NIXVtjSF1jKG5bY0hdMSlOMltDSDJdW0NIMl1PW0NIMl1bQ0gyXTI=

> <s_epik_cmdline>
J2VwaWtfcHl0aG9uJywgJy1waCcsICc3LjAnLCAnLXRuJywgJzgnLCAnLW1hJywgJzIwMCcsICctbWV0YWxfYmluZGluZycsICctaW1hZScsICc8aW5maWxlLm1hZT4nLCAnLW9tYWUnLCAnPG91dGZpbGUubWFlPic=

> <r_lp_tautomer_probability>
1

> <r_epik_Ionization_Penalty>
0.00481935

> <r_epik_Ionization_Penalty_Charging>
0

> <r_epik_Ionization_Penalty_Neutral>
0.00481935

> <r_epik_State_Penalty>
0.00349439

> <r_epik_Charging_Adjusted_Penalty>
0.00349439

> <i_epik_Tot_Q>
0

> <i_epik_Tot_abs_Q>
0

> <r_epik_Metal_State_Penalty>
-0

> <b_epik_Metal_Only>
0

> <s_lp_Force_Field>
OPLS_2005

> <r_lp_Energy>
13.9902

> <b_lp_Chiralities_Consistent>
1

> <s_lp_Variant>
AV-unprocessed.smi:1287-2

> <Gold.Version>
5.8.1

> <Gold.Id.Protein>
6NUR|6NUR_protein|mol2

> <Gold.PLP.Fitness>
49.2094

> <Gold.PLP.PLP>
-40.6570

> <Gold.PLP.part.hbond>
-5.0000

> <Gold.PLP.part.metal>
0.0000

> <Gold.PLP.part.buried>
-4.0707

> <Gold.PLP.part.nonpolar>
-31.7212

> <Gold.PLP.part.repulsive>
0.1482

> <Gold.PLP.ligand.clash>
0.0000

> <Gold.PLP.ligand.torsion>
0.6541

> <Gold.PLP.Chemscore.Hbond>
3.1620

> <Gold.PLP.Chemscore.CHOScore>
0.0000

> <Gold.PLP.Chemscore.Metal>
0.0000

> <Gold.Chemscore.Hbonds>
donor molecule, donor type, donor heavy atom, donor atom, acceptor molecule, acceptor atom, score
      L1  H     9    31       P1  7948  0.71
      P1  H  6896  6907       L1     3  1.00
      P1  H  7997  8009       L1    21  0.29
      P1  H 10752 10764       L1     8  0.04

> <Gold.PLP.Chemscore.Internal.Correction>
0.3745

> <Gold.Rescore>
     Score         DG    S(hbond)    S(metal)    S(lipo)     H(rot)  DE(clash)    DE(int)     intcor
     16.40     -19.14       2.55        0.00      91.29       2.16       0.24       2.50       ----

> <Gold.Chemscore.Fitness>
16.4005

> <Gold.Chemscore.DG>
-19.1390

> <Gold.Chemscore.ZeroCoef>
-5.4800

> <Gold.Chemscore.Hbond>
2.5485

> <Gold.Chemscore.Metal>
0.0000

> <Gold.Chemscore.Lipo>
91.2864

> <Gold.Chemscore.Internal_Hbond>
0.0000

> <Gold.Chemscore.DEClash>
0.2397

> <Gold.Chemscore.DEInternal>
2.4988

> <Gold.Chemscore.Rot>
2.1616

> <Gold.Chemscore.Internal.Correction>
   9.000000E+99

> <Gold.Chemscore.Hbonds>
donor molecule, donor type, donor heavy atom, donor atom, acceptor molecule, acceptor atom, score
      L1  H     9    31       P1  7948  0.49
      P1  H  6896  6907       L1     3  0.98
      P1  H 10752 10764       L1     8  0.01

> <Gold.Chemscore.Hbond.Weighted>
-8.5121

> <Gold.Chemscore.Metal.Weighted>
-0.0000

> <Gold.Chemscore.Lipo.Weighted>
-10.6805

> <Gold.Chemscore.Internal_Hbond.Weighted>
0.0000

> <Gold.Chemscore.DEClash.Weighted>
0.2397

> <Gold.Chemscore.DEInternal.Weighted>
2.4988

> <Gold.Chemscore.Rot.Weighted>
5.5336

> <Gold.Chemscore.Internal.Correction.Weighted>
   9.000000E+99

> <Gold.Protein.RotatedTorsions>
[ 6907 6896 6895 6894 ] final -142.27 input  -60.11 | X-H torsion
[ 7974 7965 7964 7962 ] final  -42.88 input  175.53 | X-H torsion
[ 8008 7997 7996 7995 ] final -177.93 input   59.86 | X-H torsion
[ 10167 10162 10161 10158 ] final   66.14 input  -65.29 | X-H torsion
[ 10718 10713 10712 10709 ] final   21.00 input   66.30 | X-H torsion
[ 10763 10752 10751 10750 ] final  -35.13 input  -60.55 | X-H torsion
[ 11005 11000 10999 10996 ] final   -1.91 input  -57.11 | X-H torsion

> <Gold.Protein.ActiveResidues>
 VAL166  LYS551  ARG553  GLY616  TRP617  ASP618  TYR619  PRO620  LYS621  CYS622 
 ASP623  PHE694  ASN695  SER759  ASP760  ASP761  ALA762  ILE779  LEU786  VAL792 
 PHE793  MET794  SER795  GLU796  ALA797  LYS798  CYS799  TRP800  GLU811  SER814 

> <Gold.Protein.RotatedAtoms>
  151.0848  133.5361  159.2618 H   0  0  0  0  0  0  0  0  0  0  0  0  # atno 6907 bound_to 6896
  151.2251  135.0533  159.8975 H   0  0  0  0  0  0  0  0  0  0  0  0  # atno 6908 bound_to 6896
  152.5428  134.0645  159.8220 H   0  0  0  0  0  0  0  0  0  0  0  0  # atno 6909 bound_to 6896
  146.0073  140.7005  142.9241 H   0  0  0  0  0  0  0  0  0  0  0  0  # atno 7974 bound_to 7965
  156.0128  140.1244  157.0436 H   0  0  0  0  0  0  0  0  0  0  0  0  # atno 8008 bound_to 7997
  154.4282  140.1084  156.5923 H   0  0  0  0  0  0  0  0  0  0  0  0  # atno 8009 bound_to 7997
  155.6055  140.3471  155.4609 H   0  0  0  0  0  0  0  0  0  0  0  0  # atno 8010 bound_to 7997
  140.1036  144.4881  150.7021 H   0  0  0  0  0  0  0  0  0  0  0  0  # atno 10167 bound_to 10162
  157.1323  130.6596  149.5955 H   0  0  0  0  0  0  0  0  0  0  0  0  # atno 10718 bound_to 10713
  153.8581  135.6842  153.4785 H   0  0  0  0  0  0  0  0  0  0  0  0  # atno 10763 bound_to 10752
  153.1358  135.4678  154.9417 H   0  0  0  0  0  0  0  0  0  0  0  0  # atno 10764 bound_to 10752
  154.7771  135.3257  154.8017 H   0  0  0  0  0  0  0  0  0  0  0  0  # atno 10765 bound_to 10752
  140.6525  133.9392  155.8388 H   0  0  0  0  0  0  0  0  0  0  0  0  # atno 11005 bound_to 11000
  144.6940  140.3337  143.7211 LP  0  0  0  0  0  0  0  0  0  0  0  0  # atno 17320 bound_to 7965
  145.7396  139.1760  143.2383 LP  0  0  0  0  0  0  0  0  0  0  0  0  # atno 17321 bound_to 7965
  140.6964  143.2406  151.4988 LP  0  0  0  0  0  0  0  0  0  0  0  0  # atno 17342 bound_to 10162
  139.5657  144.2047  152.1761 LP  0  0  0  0  0  0  0  0  0  0  0  0  # atno 17343 bound_to 10162
  155.9805  130.4807  150.6778 LP  0  0  0  0  0  0  0  0  0  0  0  0  # atno 17370 bound_to 10713
  157.4381  131.0858  151.0971 LP  0  0  0  0  0  0  0  0  0  0  0  0  # atno 17371 bound_to 10713
  141.0526  134.0463  157.3764 LP  0  0  0  0  0  0  0  0  0  0  0  0  # atno 17394 bound_to 11000
  139.9041  135.0174  156.7404 LP  0  0  0  0  0  0  0  0  0  0  0  0  # atno 17395 bound_to 11000

$$$$
