AV-unprocessed.smi:3014|AV-procd|sdf|11466|dock1
  -GOLD-   2272016403D 1   1.00000     0.00000
 Structure written by MMmdl.
 45 46  0  0  0  0  0  0  0  0  1 V2000
  151.8083  145.1546  158.8595 C   0  0  0  0  0  0  0  0  0  0  0  0
  152.0628  143.8675  159.6567 C   0  0  2  0  0  0  0  0  0  0  0  0
  152.2158  144.1603  161.1618 C   0  0  0  0  0  0  0  0  0  0  0  0
  152.4825  142.8774  161.9646 C   0  0  0  0  0  0  0  0  0  0  0  0
  153.7084  142.1234  161.4234 C   0  0  0  0  0  0  0  0  0  0  0  0
  153.5714  141.8162  159.9218 C   0  0  1  0  0  0  0  0  0  0  0  0
  152.5064  140.8863  159.7694 O   0  0  0  0  0  0  0  0  0  0  0  0
  152.8643  139.6615  159.1404 C   0  0  0  0  0  0  0  0  0  0  0  0
  152.1981  139.5720  157.7651 C   0  0  0  0  0  0  0  0  0  0  0  0
  152.8758  139.2293  156.7965 O   0  0  0  0  0  0  0  0  0  0  0  0
  150.8850  139.8680  157.7114 N   0  0  0  0  0  0  0  0  0  0  0  0
  150.0355  139.8981  156.5759 C   0  0  0  0  0  0  0  0  0  0  0  0
  150.4494  139.1151  155.4770 C   0  0  0  0  0  0  0  0  0  0  0  0
  149.6222  139.1216  154.3376 C   0  0  0  0  0  0  0  0  0  0  0  0
  148.4819  139.8402  154.2917 N   0  0  0  0  0  0  0  0  0  0  0  0
  148.1611  140.5542  155.3775 C   0  0  0  0  0  0  0  0  0  0  0  0
  146.9775  141.2964  155.3365 N   0  0  0  0  0  0  0  0  0  0  0  0
  146.4281  141.9075  156.5436 C   0  0  0  0  0  0  0  0  0  0  0  0
  146.2325  141.4637  154.0922 C   0  0  0  0  0  0  0  0  0  0  0  0
  148.8851  140.6109  156.5026 N   0  0  0  0  0  0  0  0  0  0  0  0
  153.2974  143.1108  159.1261 C   0  0  0  0  0  0  0  0  0  0  0  0
  152.6464  145.8469  158.9459 H   0  0  0  0  0  0  0  0  0  0  0  0
  150.9149  145.6671  159.2172 H   0  0  0  0  0  0  0  0  0  0  0  0
  151.6619  144.9386  157.8010 H   0  0  0  0  0  0  0  0  0  0  0  0
  151.1908  143.2249  159.5253 H   0  0  0  0  0  0  0  0  0  0  0  0
  153.0356  144.8625  161.3189 H   0  0  0  0  0  0  0  0  0  0  0  0
  151.3162  144.6467  161.5407 H   0  0  0  0  0  0  0  0  0  0  0  0
  152.6329  143.1230  163.0162 H   0  0  0  0  0  0  0  0  0  0  0  0
  151.6050  142.2309  161.9229 H   0  0  0  0  0  0  0  0  0  0  0  0
  154.6026  142.7256  161.5892 H   0  0  0  0  0  0  0  0  0  0  0  0
  153.8542  141.1986  161.9825 H   0  0  0  0  0  0  0  0  0  0  0  0
  154.5027  141.3615  159.5797 H   0  0  0  0  0  0  0  0  0  0  0  0
  153.9439  139.5871  159.0106 H   0  0  0  0  0  0  0  0  0  0  0  0
  152.5414  138.8155  159.7482 H   0  0  0  0  0  0  0  0  0  0  0  0
  150.4521  140.1170  158.5889 H   0  0  0  0  0  0  0  0  0  0  0  0
  151.3592  138.5333  155.5013 H   0  0  0  0  0  0  0  0  0  0  0  0
  149.8768  138.5464  153.4599 H   0  0  0  0  0  0  0  0  0  0  0  0
  147.1570  142.5807  156.9964 H   0  0  0  0  0  0  0  0  0  0  0  0
  146.1705  141.1393  157.2734 H   0  0  0  0  0  0  0  0  0  0  0  0
  145.5279  142.4858  156.3351 H   0  0  0  0  0  0  0  0  0  0  0  0
  145.9535  140.4924  153.6824 H   0  0  0  0  0  0  0  0  0  0  0  0
  146.8399  141.9873  153.3533 H   0  0  0  0  0  0  0  0  0  0  0  0
  145.3170  142.0370  154.2387 H   0  0  0  0  0  0  0  0  0  0  0  0
  153.1751  142.8924  158.0656 H   0  0  0  0  0  0  0  0  0  0  0  0
  154.1723  143.7586  159.1951 H   0  0  0  0  0  0  0  0  0  0  0  0
  1  2  1  0  0  0  0
  1 22  1  0  0  0  0
  1 23  1  0  0  0  0
  1 24  1  0  0  0  0
  2 21  1  0  0  0  0
  2  3  1  0  0  0  0
  2 25  1  0  0  0  0
  3  4  1  0  0  0  0
  3 26  1  0  0  0  0
  3 27  1  0  0  0  0
  4  5  1  0  0  0  0
  4 28  1  0  0  0  0
  4 29  1  0  0  0  0
  5  6  1  0  0  0  0
  5 30  1  0  0  0  0
  5 31  1  0  0  0  0
  6  7  1  0  0  0  0
  6 21  1  0  0  0  0
  6 32  1  0  0  0  0
  7  8  1  0  0  0  0
  8  9  1  0  0  0  0
  8 33  1  0  0  0  0
  8 34  1  0  0  0  0
  9 10  2  0  0  0  0
  9 11  1  0  0  0  0
 11 12  1  0  0  0  0
 11 35  1  0  0  0  0
 12 20  1  0  0  0  0
 12 13  2  0  0  0  0
 13 14  1  0  0  0  0
 13 36  1  0  0  0  0
 14 15  2  0  0  0  0
 14 37  1  0  0  0  0
 15 16  1  0  0  0  0
 16 17  1  0  0  0  0
 16 20  2  0  0  0  0
 17 18  1  0  0  0  0
 17 19  1  0  0  0  0
 18 38  1  0  0  0  0
 18 39  1  0  0  0  0
 18 40  1  0  0  0  0
 19 41  1  0  0  0  0
 19 42  1  0  0  0  0
 19 43  1  0  0  0  0
 21 44  1  0  0  0  0
 21 45  1  0  0  0  0
M  END
> <s_m_source_file>
AV-unprocessed.smi

> <i_m_source_file_index>
3014

> <i_lp_mmshare_version>
43012

> <i_f3d_flags>
0

> <s_epik_input>
W0NIM11bQ0BASF0xW0NIMl1bQ0gyXVtDSDJdW0NASF0oW0NIMl0xKU9bQ0gyXUMoPU8pW05IXWMyW2NIXVtjSF1uYyhuMilOKFtDSDNdKVtDSDNd

> <s_epik_cmdline>
J2VwaWtfcHl0aG9uJywgJy1waCcsICc3LjAnLCAnLXRuJywgJzgnLCAnLW1hJywgJzIwMCcsICctbWV0YWxfYmluZGluZycsICctaW1hZScsICc8aW5maWxlLm1hZT4nLCAnLW9tYWUnLCAnPG91dGZpbGUubWFlPic=

> <r_lp_tautomer_probability>
1

> <r_epik_Ionization_Penalty>
0.000308195

> <r_epik_Ionization_Penalty_Charging>
0

> <r_epik_Ionization_Penalty_Neutral>
0.000308195

> <r_epik_State_Penalty>
-0

> <r_epik_Charging_Adjusted_Penalty>
0

> <i_epik_Tot_Q>
0

> <i_epik_Tot_abs_Q>
0

> <r_epik_Metal_State_Penalty>
-0

> <b_epik_Metal_Only>
0

> <s_lp_Force_Field>
OPLS_2005

> <r_lp_Energy>
6.70314

> <b_lp_Chiralities_Consistent>
1

> <s_lp_Variant>
AV-unprocessed.smi:3014-1

> <Gold.Version>
5.8.1

> <Gold.Id.Protein>
6NUR|6NUR_protein|mol2

> <Gold.PLP.Fitness>
49.4707

> <Gold.PLP.PLP>
-46.2318

> <Gold.PLP.part.hbond>
-1.0000

> <Gold.PLP.part.metal>
0.0000

> <Gold.PLP.part.buried>
-4.3169

> <Gold.PLP.part.nonpolar>
-41.9328

> <Gold.PLP.part.repulsive>
0.2523

> <Gold.PLP.ligand.clash>
0.0000

> <Gold.PLP.ligand.torsion>
1.4142

> <Gold.PLP.Chemscore.Hbond>
1.0000

> <Gold.PLP.Chemscore.CHOScore>
1.0000

> <Gold.PLP.Chemscore.Metal>
0.0000

> <Gold.Chemscore.Hbonds>
donor molecule, donor type, donor heavy atom, donor atom, acceptor molecule, acceptor atom, score
      P1  H  7997  8008       L1    10  0.98
      L1  C    14    37       P1  7948  0.03
      L1  C    14    37       P1  7957  0.30

> <Gold.PLP.Chemscore.Internal.Correction>
0.0674

> <Gold.Rescore>
     Score         DG    S(hbond)    S(metal)    S(lipo)     H(rot)  DE(clash)    DE(int)     intcor
     15.62     -18.51       0.98        0.00     114.67       1.43       0.14       2.75       ----

> <Gold.Chemscore.Fitness>
15.6227

> <Gold.Chemscore.DG>
-18.5068

> <Gold.Chemscore.ZeroCoef>
-5.4800

> <Gold.Chemscore.Hbond>
0.9802

> <Gold.Chemscore.Metal>
0.0000

> <Gold.Chemscore.Lipo>
114.6688

> <Gold.Chemscore.Internal_Hbond>
0.0000

> <Gold.Chemscore.DEClash>
0.1363

> <Gold.Chemscore.DEInternal>
2.7478

> <Gold.Chemscore.Rot>
1.4310

> <Gold.Chemscore.Internal.Correction>
   9.000000E+99

> <Gold.Chemscore.Hbonds>
donor molecule, donor type, donor heavy atom, donor atom, acceptor molecule, acceptor atom, score
      P1  H  7997  8008       L1    10  0.93

> <Gold.Chemscore.Hbond.Weighted>
-3.2738

> <Gold.Chemscore.Metal.Weighted>
-0.0000

> <Gold.Chemscore.Lipo.Weighted>
-13.4163

> <Gold.Chemscore.Internal_Hbond.Weighted>
0.0000

> <Gold.Chemscore.DEClash.Weighted>
0.1363

> <Gold.Chemscore.DEInternal.Weighted>
2.7478

> <Gold.Chemscore.Rot.Weighted>
3.6632

> <Gold.Chemscore.Internal.Correction.Weighted>
   9.000000E+99

> <Gold.Protein.RotatedTorsions>
[ 6907 6896 6895 6894 ] final -161.16 input  -60.11 | X-H torsion
[ 7974 7965 7964 7962 ] final  -11.77 input  175.53 | X-H torsion
[ 8008 7997 7996 7995 ] final  -34.93 input   59.86 | X-H torsion
[ 10167 10162 10161 10158 ] final -177.92 input  -65.29 | X-H torsion
[ 10718 10713 10712 10709 ] final  -21.94 input   66.30 | X-H torsion
[ 10763 10752 10751 10750 ] final    3.47 input  -60.55 | X-H torsion
[ 11005 11000 10999 10996 ] final   55.93 input  -57.11 | X-H torsion

> <Gold.Protein.ActiveResidues>
 VAL166  LYS551  ARG553  GLY616  TRP617  ASP618  TYR619  PRO620  LYS621  CYS622 
 ASP623  PHE694  ASN695  SER759  ASP760  ASP761  ALA762  ILE779  LEU786  VAL792 
 PHE793  MET794  SER795  GLU796  ALA797  LYS798  CYS799  TRP800  GLU811  SER814 

> <Gold.Protein.RotatedAtoms>
  151.3603  133.3892  159.2688 H   0  0  0  0  0  0  0  0  0  0  0  0  # atno 6907 bound_to 6896
  150.9731  134.9101  159.7810 H   0  0  0  0  0  0  0  0  0  0  0  0  # atno 6908 bound_to 6896
  152.5191  134.3565  159.9322 H   0  0  0  0  0  0  0  0  0  0  0  0  # atno 6909 bound_to 6896
  146.2176  140.2960  142.8372 H   0  0  0  0  0  0  0  0  0  0  0  0  # atno 7974 bound_to 7965
  154.4108  140.1670  156.2130 H   0  0  0  0  0  0  0  0  0  0  0  0  # atno 8008 bound_to 7997
  155.9428  140.3407  155.6318 H   0  0  0  0  0  0  0  0  0  0  0  0  # atno 8009 bound_to 7997
  155.6968  140.0740  157.2417 H   0  0  0  0  0  0  0  0  0  0  0  0  # atno 8010 bound_to 7997
  139.5457  144.2242  152.0983 H   0  0  0  0  0  0  0  0  0  0  0  0  # atno 10167 bound_to 10162
  156.5114  130.4611  149.6646 H   0  0  0  0  0  0  0  0  0  0  0  0  # atno 10718 bound_to 10713
  153.2829  135.6942  153.7368 H   0  0  0  0  0  0  0  0  0  0  0  0  # atno 10763 bound_to 10752
  153.6348  135.3404  155.3054 H   0  0  0  0  0  0  0  0  0  0  0  0  # atno 10764 bound_to 10752
  154.8501  135.4417  154.1888 H   0  0  0  0  0  0  0  0  0  0  0  0  # atno 10765 bound_to 10752
  140.0568  134.5658  155.9198 H   0  0  0  0  0  0  0  0  0  0  0  0  # atno 11005 bound_to 11000
  144.9092  140.7736  143.5818 LP  0  0  0  0  0  0  0  0  0  0  0  0  # atno 17320 bound_to 7965
  145.2890  139.1890  143.4750 LP  0  0  0  0  0  0  0  0  0  0  0  0  # atno 17321 bound_to 7965
  140.1728  144.4919  150.6570 LP  0  0  0  0  0  0  0  0  0  0  0  0  # atno 17342 bound_to 10162
  140.6704  143.2283  151.5639 LP  0  0  0  0  0  0  0  0  0  0  0  0  # atno 17343 bound_to 10162
  156.3237  130.7294  151.2211 LP  0  0  0  0  0  0  0  0  0  0  0  0  # atno 17370 bound_to 10713
  157.7450  131.0449  150.4814 LP  0  0  0  0  0  0  0  0  0  0  0  0  # atno 17371 bound_to 10713
  141.1956  133.6588  156.5649 LP  0  0  0  0  0  0  0  0  0  0  0  0  # atno 17394 bound_to 11000
  140.3831  134.7506  157.4674 LP  0  0  0  0  0  0  0  0  0  0  0  0  # atno 17395 bound_to 11000

$$$$
