AV-unprocessed.smi:2741|AV-procd|sdf|10561|dock9
  -GOLD-   2272015 13D 1   1.00000     0.00000
 Structure written by MMmdl.
 39 40  0  0  0  0  0  0  0  0  1 V2000
  153.0781  138.5437  160.0988 O   0  0  0  0  0  0  0  0  0  0  0  0
  153.5043  139.3755  159.2963 C   0  0  0  0  0  0  0  0  0  0  0  0
  154.4618  140.4891  159.7436 C   0  0  0  0  0  0  0  0  0  0  0  0
  153.7907  141.5952  160.4472 N   0  0  0  0  0  0  0  0  0  0  0  0
  153.1064  142.5374  159.6541 C   0  0  0  0  0  0  0  0  0  0  0  0
  152.4578  143.5982  160.1722 C   0  0  0  0  0  0  0  0  0  0  0  0
  151.6842  144.5736  159.2985 C   0  0  0  0  0  0  0  0  0  0  0  0
  152.4615  145.0697  158.3356 F   0  0  0  0  0  0  0  0  0  0  0  0
  150.6585  143.9491  158.7216 F   0  0  0  0  0  0  0  0  0  0  0  0
  151.2026  145.5908  160.0140 F   0  0  0  0  0  0  0  0  0  0  0  0
  152.4636  143.7152  161.6170 C   0  0  0  0  0  0  0  0  0  0  0  0
  153.1128  142.8229  162.3901 C   0  0  0  0  0  0  0  0  0  0  0  0
  153.8369  141.6895  161.8100 C   0  0  0  0  0  0  0  0  0  0  0  0
  154.4435  140.8740  162.5049 O   0  0  0  0  0  0  0  0  0  0  0  0
  153.1926  139.3637  157.9917 N   0  0  0  0  0  0  0  0  0  0  0  0
  152.3318  138.3823  157.3400 C   0  0  0  0  0  0  0  0  0  0  0  0
  152.0609  138.7388  155.8652 C   0  0  1  0  0  0  0  0  0  0  0  0
  151.2242  137.6894  155.1249 C   0  0  0  0  0  0  0  0  0  0  0  0
  150.6297  138.4576  153.9474 C   0  0  0  0  0  0  0  0  0  0  0  0
  150.2748  139.8177  154.5514 C   0  0  2  0  0  0  0  0  0  0  0  0
  150.2626  140.8405  153.5778 O   0  0  0  0  0  0  0  0  0  0  0  0
  151.3171  140.0726  155.6528 C   0  0  0  0  0  0  0  0  0  0  0  0
  155.2261  140.0421  160.3810 H   0  0  0  0  0  0  0  0  0  0  0  0
  155.0037  140.8676  158.8750 H   0  0  0  0  0  0  0  0  0  0  0  0
  153.1477  142.3437  158.5921 H   0  0  0  0  0  0  0  0  0  0  0  0
  151.9427  144.5362  162.0874 H   0  0  0  0  0  0  0  0  0  0  0  0
  153.0991  142.9437  163.4635 H   0  0  0  0  0  0  0  0  0  0  0  0
  153.5881  140.0832  157.4040 H   0  0  0  0  0  0  0  0  0  0  0  0
  152.7759  137.3884  157.4151 H   0  0  0  0  0  0  0  0  0  0  0  0
  151.3922  138.3413  157.8921 H   0  0  0  0  0  0  0  0  0  0  0  0
  153.0165  138.8102  155.3424 H   0  0  0  0  0  0  0  0  0  0  0  0
  151.8159  136.8300  154.8080 H   0  0  0  0  0  0  0  0  0  0  0  0
  150.4206  137.3236  155.7658 H   0  0  0  0  0  0  0  0  0  0  0  0
  151.3861  138.5699  153.1689 H   0  0  0  0  0  0  0  0  0  0  0  0
  149.7679  137.9558  153.5065 H   0  0  0  0  0  0  0  0  0  0  0  0
  149.2847  139.7575  155.0055 H   0  0  0  0  0  0  0  0  0  0  0  0
  150.0325  140.4595  152.7440 H   0  0  0  0  0  0  0  0  0  0  0  0
  150.8171  140.4069  156.5628 H   0  0  0  0  0  0  0  0  0  0  0  0
  152.0268  140.8528  155.3732 H   0  0  0  0  0  0  0  0  0  0  0  0
  1  2  2  0  0  0  0
  2  3  1  0  0  0  0
  2 15  1  0  0  0  0
  3  4  1  0  0  0  0
  3 23  1  0  0  0  0
  3 24  1  0  0  0  0
  4 13  1  0  0  0  0
  4  5  1  0  0  0  0
  5  6  2  0  0  0  0
  5 25  1  0  0  0  0
  6  7  1  0  0  0  0
  6 11  1  0  0  0  0
  7  8  1  0  0  0  0
  7  9  1  0  0  0  0
  7 10  1  0  0  0  0
 11 12  2  0  0  0  0
 11 26  1  0  0  0  0
 12 13  1  0  0  0  0
 12 27  1  0  0  0  0
 13 14  2  0  0  0  0
 15 16  1  0  0  0  0
 15 28  1  0  0  0  0
 16 17  1  0  0  0  0
 16 29  1  0  0  0  0
 16 30  1  0  0  0  0
 17 22  1  0  0  0  0
 17 18  1  0  0  0  0
 17 31  1  0  0  0  0
 18 19  1  0  0  0  0
 18 32  1  0  0  0  0
 18 33  1  0  0  0  0
 19 20  1  0  0  0  0
 19 34  1  0  0  0  0
 19 35  1  0  0  0  0
 20 21  1  0  0  0  0
 20 22  1  0  0  0  0
 20 36  1  0  0  0  0
 21 37  1  0  0  0  0
 22 38  1  0  0  0  0
 22 39  1  0  0  0  0
M  END
> <s_m_source_file>
AV-unprocessed.smi

> <i_m_source_file_index>
2741

> <i_lp_mmshare_version>
43012

> <i_f3d_flags>
0

> <s_epik_input>
W09IXVtDQEBIXShbQ0gyXTEpW0NIMl1bQ0gyXVtDQEhdMVtDSDJdW05IXUMoPU8pW0NIMl1uMltjSF1jKEMoRikoRilGKVtjSF1bY0hdYzI9Tw==

> <s_epik_cmdline>
J2VwaWtfcHl0aG9uJywgJy1waCcsICc3LjAnLCAnLXRuJywgJzgnLCAnLW1hJywgJzIwMCcsICctbWV0YWxfYmluZGluZycsICctaW1hZScsICc8aW5maWxlLm1hZT4nLCAnLW9tYWUnLCAnPG91dGZpbGUubWFlPic=

> <r_lp_tautomer_probability>
1

> <r_epik_Ionization_Penalty>
1.17551e-06

> <r_epik_Ionization_Penalty_Charging>
1.78841e-08

> <r_epik_Ionization_Penalty_Neutral>
1.15762e-06

> <r_epik_State_Penalty>
-0

> <r_epik_Charging_Adjusted_Penalty>
1.78841e-08

> <i_epik_Tot_Q>
0

> <i_epik_Tot_abs_Q>
0

> <r_epik_Metal_State_Penalty>
-0

> <b_epik_Metal_Only>
0

> <s_lp_Force_Field>
OPLS_2005

> <r_lp_Energy>
34.082

> <b_lp_Chiralities_Consistent>
1

> <s_lp_Variant>
AV-unprocessed.smi:2741-4

> <Gold.Version>
5.8.1

> <Gold.Id.Protein>
6NUR|6NUR_protein|mol2

> <Gold.PLP.Fitness>
58.9015

> <Gold.PLP.PLP>
-55.6367

> <Gold.PLP.part.hbond>
-2.8350

> <Gold.PLP.part.metal>
0.0000

> <Gold.PLP.part.buried>
-6.3174

> <Gold.PLP.part.nonpolar>
-48.4381

> <Gold.PLP.part.repulsive>
1.3964

> <Gold.PLP.ligand.clash>
0.0000

> <Gold.PLP.ligand.torsion>
0.6406

> <Gold.PLP.Chemscore.Hbond>
1.5016

> <Gold.PLP.Chemscore.CHOScore>
0.0000

> <Gold.PLP.Chemscore.Metal>
0.0000

> <Gold.Chemscore.Hbonds>
donor molecule, donor type, donor heavy atom, donor atom, acceptor molecule, acceptor atom, score
      L1  H    21    37       P1  7957  1.00
      P1  H  7989  7998       L1    21  0.16

> <Gold.PLP.Chemscore.Internal.Correction>
0.0411

> <Gold.Rescore>
     Score         DG    S(hbond)    S(metal)    S(lipo)     H(rot)  DE(clash)    DE(int)     intcor
     13.86     -14.89       1.01        0.00     105.99       2.48       0.43       0.61       ----

> <Gold.Chemscore.Fitness>
13.8577

> <Gold.Chemscore.DG>
-14.8945

> <Gold.Chemscore.ZeroCoef>
-5.4800

> <Gold.Chemscore.Hbond>
1.0075

> <Gold.Chemscore.Metal>
0.0000

> <Gold.Chemscore.Lipo>
105.9851

> <Gold.Chemscore.Internal_Hbond>
0.0000

> <Gold.Chemscore.DEClash>
0.4280

> <Gold.Chemscore.DEInternal>
0.6088

> <Gold.Chemscore.Rot>
2.4807

> <Gold.Chemscore.Internal.Correction>
   9.000000E+99

> <Gold.Chemscore.Hbonds>
donor molecule, donor type, donor heavy atom, donor atom, acceptor molecule, acceptor atom, score
      L1  H    21    37       P1  7957  1.00

> <Gold.Chemscore.Hbond.Weighted>
-3.3649

> <Gold.Chemscore.Metal.Weighted>
-0.0000

> <Gold.Chemscore.Lipo.Weighted>
-12.4003

> <Gold.Chemscore.Internal_Hbond.Weighted>
0.0000

> <Gold.Chemscore.DEClash.Weighted>
0.4280

> <Gold.Chemscore.DEInternal.Weighted>
0.6088

> <Gold.Chemscore.Rot.Weighted>
6.3507

> <Gold.Chemscore.Internal.Correction.Weighted>
   9.000000E+99

> <Gold.Protein.RotatedTorsions>
[ 6907 6896 6895 6894 ] final -140.63 input  -60.11 | X-H torsion
[ 7974 7965 7964 7962 ] final -127.22 input  175.53 | X-H torsion
[ 8008 7997 7996 7995 ] final   82.71 input   59.86 | X-H torsion
[ 10167 10162 10161 10158 ] final   18.25 input  -65.29 | X-H torsion
[ 10718 10713 10712 10709 ] final -140.60 input   66.30 | X-H torsion
[ 10763 10752 10751 10750 ] final  -59.70 input  -60.55 | X-H torsion
[ 11005 11000 10999 10996 ] final   80.82 input  -57.11 | X-H torsion

> <Gold.Protein.ActiveResidues>
 VAL166  LYS551  ARG553  GLY616  TRP617  ASP618  TYR619  PRO620  LYS621  CYS622 
 ASP623  PHE694  ASN695  SER759  ASP760  ASP761  ALA762  ILE779  LEU786  VAL792 
 PHE793  MET794  SER795  GLU796  ALA797  LYS798  CYS799  TRP800  GLU811  SER814 

> <Gold.Protein.RotatedAtoms>
  151.0632  133.5527  159.2632 H   0  0  0  0  0  0  0  0  0  0  0  0  # atno 6907 bound_to 6896
  151.2494  135.0616  159.9066 H   0  0  0  0  0  0  0  0  0  0  0  0  # atno 6908 bound_to 6896
  152.5401  134.0395  159.8115 H   0  0  0  0  0  0  0  0  0  0  0  0  # atno 6909 bound_to 6896
  144.9793  140.7624  143.4622 H   0  0  0  0  0  0  0  0  0  0  0  0  # atno 7974 bound_to 7965
  155.9143  140.3425  155.6123 H   0  0  0  0  0  0  0  0  0  0  0  0  # atno 8008 bound_to 7997
  155.7350  140.0800  157.2290 H   0  0  0  0  0  0  0  0  0  0  0  0  # atno 8009 bound_to 7997
  154.4060  140.1581  156.2539 H   0  0  0  0  0  0  0  0  0  0  0  0  # atno 8010 bound_to 7997
  140.5667  143.9237  150.6682 H   0  0  0  0  0  0  0  0  0  0  0  0  # atno 10167 bound_to 10162
  156.3242  130.7551  151.1655 H   0  0  0  0  0  0  0  0  0  0  0  0  # atno 10718 bound_to 10713
  154.2578  135.6314  153.5263 H   0  0  0  0  0  0  0  0  0  0  0  0  # atno 10763 bound_to 10752
  152.9901  135.5580  154.5738 H   0  0  0  0  0  0  0  0  0  0  0  0  # atno 10764 bound_to 10752
  154.5280  135.2886  155.1180 H   0  0  0  0  0  0  0  0  0  0  0  0  # atno 10765 bound_to 10752
  139.9120  134.7949  156.1959 H   0  0  0  0  0  0  0  0  0  0  0  0  # atno 11005 bound_to 11000
  145.2444  139.2058  143.4976 LP  0  0  0  0  0  0  0  0  0  0  0  0  # atno 17320 bound_to 7965
  146.3404  140.2345  142.8594 LP  0  0  0  0  0  0  0  0  0  0  0  0  # atno 17321 bound_to 7965
  140.2702  143.3461  152.1245 LP  0  0  0  0  0  0  0  0  0  0  0  0  # atno 17342 bound_to 10162
  139.5096  144.6871  151.5859 LP  0  0  0  0  0  0  0  0  0  0  0  0  # atno 17343 bound_to 10162
  157.7418  131.0499  150.5072 LP  0  0  0  0  0  0  0  0  0  0  0  0  # atno 17370 bound_to 10713
  156.5228  130.4166  149.6241 LP  0  0  0  0  0  0  0  0  0  0  0  0  # atno 17371 bound_to 10713
  141.0555  133.6867  156.1852 LP  0  0  0  0  0  0  0  0  0  0  0  0  # atno 17394 bound_to 11000
  140.6744  134.4834  157.5588 LP  0  0  0  0  0  0  0  0  0  0  0  0  # atno 17395 bound_to 11000

$$$$
