AV-unprocessed.smi:265|AV-procd|sdf|2019|dock6
  -GOLD-   2262021223D 1   1.00000     0.00000
 Structure written by MMmdl.
 52 56  0  0  0  0  0  0  0  0  1 V2000
  149.7333  133.6292  153.9609 C   0  0  0  0  0  0  0  0  0  0  0  0
  150.1061  133.6280  155.4519 C   0  0  2  0  0  0  0  0  0  0  0  0
  148.9401  133.2747  156.1914 O   0  0  0  0  0  0  0  0  0  0  0  0
  149.0042  133.8886  157.4659 C   0  0  0  0  0  0  0  0  0  0  0  0
  149.5541  135.2671  157.1340 C   0  0  0  0  0  0  0  0  0  0  0  0
  150.5955  134.9753  156.0561 C   0  0  1  0  0  0  0  0  0  0  0  0
  151.8332  134.7335  156.7037 O   0  0  0  0  0  0  0  0  0  0  0  0
  150.7969  136.1448  155.0566 C   0  0  0  0  0  0  0  0  0  0  0  0
  151.2526  137.3754  155.6864 N   0  0  0  0  0  0  0  0  0  0  0  0
  152.4893  137.9667  155.5502 C   0  0  0  0  0  0  0  0  0  0  0  0
  152.6565  139.0737  156.2218 N   0  0  0  0  0  0  0  0  0  0  0  0
  151.4465  139.2513  156.8796 C   0  0  0  0  0  0  0  0  0  0  0  0
  150.9462  140.2315  157.7752 C   0  0  0  0  0  0  0  0  0  0  0  0
  151.6874  141.2928  158.1591 N   0  0  0  0  0  0  0  0  0  0  0  0
  151.1033  142.5684  157.7587 C   0  0  0  0  0  0  0  0  0  0  0  0
  152.1050  143.7134  157.9755 C   0  0  0  0  0  0  0  0  0  0  0  0
  152.6500  143.7338  159.4142 C   0  0  1  0  0  0  0  0  0  0  0  0
  151.6248  144.1092  160.3251 O   0  0  0  0  0  0  0  0  0  0  0  0
  152.0909  144.3314  161.6576 C   0  0  0  0  0  0  0  0  0  0  0  0
  152.9783  143.1806  162.1678 C   0  0  0  0  0  0  0  0  0  0  0  0
  153.2197  143.0787  163.3683 O   0  0  0  0  0  0  0  0  0  0  0  0
  153.5021  142.3370  161.2641 N   0  0  0  0  0  0  0  0  0  0  0  0
  153.1680  142.3433  159.8435 C   0  0  1  0  0  0  0  0  0  0  0  0
  152.1299  141.2411  159.5494 C   0  0  0  0  0  0  0  0  0  0  0  0
  149.6780  140.0829  158.2409 N   0  0  0  0  0  0  0  0  0  0  0  0
  148.9453  139.0341  157.8529 C   0  0  0  0  0  0  0  0  0  0  0  0
  149.2805  138.0410  157.0257 N   0  0  0  0  0  0  0  0  0  0  0  0
  150.5528  138.1925  156.5572 C   0  0  0  0  0  0  0  0  0  0  0  0
  153.4542  144.4703  159.4695 H   0  0  0  0  0  0  0  0  0  0  0  0
  154.0786  142.1216  159.2855 H   0  0  0  0  0  0  0  0  0  0  0  0
  150.5917  133.8748  153.3354 H   0  0  0  0  0  0  0  0  0  0  0  0
  148.9377  134.3428  153.7464 H   0  0  0  0  0  0  0  0  0  0  0  0
  149.3790  132.6452  153.6536 H   0  0  0  0  0  0  0  0  0  0  0  0
  150.8482  132.8449  155.6188 H   0  0  0  0  0  0  0  0  0  0  0  0
  148.0256  133.9268  157.9446 H   0  0  0  0  0  0  0  0  0  0  0  0
  149.6874  133.3348  158.1117 H   0  0  0  0  0  0  0  0  0  0  0  0
  148.7463  135.8721  156.7202 H   0  0  0  0  0  0  0  0  0  0  0  0
  149.9511  135.7930  158.0036 H   0  0  0  0  0  0  0  0  0  0  0  0
  151.8978  133.8097  156.8918 H   0  0  0  0  0  0  0  0  0  0  0  0
  151.5207  135.8674  154.2892 H   0  0  0  0  0  0  0  0  0  0  0  0
  149.8655  136.3677  154.5357 H   0  0  0  0  0  0  0  0  0  0  0  0
  153.2695  137.5501  154.9303 H   0  0  0  0  0  0  0  0  0  0  0  0
  150.8073  142.5304  156.7093 H   0  0  0  0  0  0  0  0  0  0  0  0
  150.1979  142.7514  158.3396 H   0  0  0  0  0  0  0  0  0  0  0  0
  152.9375  143.5919  157.2814 H   0  0  0  0  0  0  0  0  0  0  0  0
  151.6404  144.6699  157.7347 H   0  0  0  0  0  0  0  0  0  0  0  0
  152.6631  145.2591  161.6920 H   0  0  0  0  0  0  0  0  0  0  0  0
  151.2328  144.4565  162.3185 H   0  0  0  0  0  0  0  0  0  0  0  0
  154.1131  141.6036  161.5927 H   0  0  0  0  0  0  0  0  0  0  0  0
  151.2660  141.3590  160.2056 H   0  0  0  0  0  0  0  0  0  0  0  0
  152.5589  140.2606  159.7611 H   0  0  0  0  0  0  0  0  0  0  0  0
  147.9473  138.9836  158.2631 H   0  0  0  0  0  0  0  0  0  0  0  0
  1  2  1  0  0  0  0
  1 31  1  0  0  0  0
  1 32  1  0  0  0  0
  1 33  1  0  0  0  0
  2  6  1  0  0  0  0
  2  3  1  0  0  0  0
  2 34  1  0  0  0  0
  3  4  1  0  0  0  0
  4  5  1  0  0  0  0
  4 35  1  0  0  0  0
  4 36  1  0  0  0  0
  5  6  1  0  0  0  0
  5 37  1  0  0  0  0
  5 38  1  0  0  0  0
  6  7  1  0  0  0  0
  6  8  1  0  0  0  0
  7 39  1  0  0  0  0
  8  9  1  0  0  0  0
  8 40  1  0  0  0  0
  8 41  1  0  0  0  0
  9 28  1  0  0  0  0
  9 10  1  0  0  0  0
 10 11  2  0  0  0  0
 10 42  1  0  0  0  0
 11 12  1  0  0  0  0
 12 28  2  0  0  0  0
 12 13  1  0  0  0  0
 13 14  1  0  0  0  0
 13 25  2  0  0  0  0
 14 24  1  0  0  0  0
 14 15  1  0  0  0  0
 15 16  1  0  0  0  0
 15 43  1  0  0  0  0
 15 44  1  0  0  0  0
 16 17  1  0  0  0  0
 16 45  1  0  0  0  0
 16 46  1  0  0  0  0
 17 29  1  0  0  0  0
 17 23  1  0  0  0  0
 17 18  1  0  0  0  0
 18 19  1  0  0  0  0
 19 20  1  0  0  0  0
 19 47  1  0  0  0  0
 19 48  1  0  0  0  0
 20 21  2  0  0  0  0
 20 22  1  0  0  0  0
 22 23  1  0  0  0  0
 22 49  1  0  0  0  0
 23 30  1  0  0  0  0
 23 24  1  0  0  0  0
 24 50  1  0  0  0  0
 24 51  1  0  0  0  0
 25 26  1  0  0  0  0
 26 27  2  0  0  0  0
 26 52  1  0  0  0  0
 27 28  1  0  0  0  0
M  END
> <s_m_source_file>
AV-unprocessed.smi

> <i_m_source_file_index>
265

> <i_lp_mmshare_version>
43012

> <i_f3d_flags>
0

> <s_epik_input>
W0NIMl0xW0NIMl1PW0NAQEhdKFtDSDNdKVtDQEBdMShbT0hdKVtDSDJdbihbY0hdbjIpYyhjMjMpbltjSF1uYzNOKFtDSDJdW0NIMl00KVtDSDJdW0NAQEhdKFtDQEhdNDUpW05IXUMoPU8pW0NIMl1PNQ==

> <s_epik_cmdline>
J2VwaWtfcHl0aG9uJywgJy1waCcsICc3LjAnLCAnLXRuJywgJzgnLCAnLW1hJywgJzIwMCcsICctbWV0YWxfYmluZGluZycsICctaW1hZScsICc8aW5maWxlLm1hZT4nLCAnLW9tYWUnLCAnPG91dGZpbGUubWFlPic=

> <r_lp_tautomer_probability>
1

> <r_epik_Ionization_Penalty>
0.00221504

> <r_epik_Ionization_Penalty_Charging>
0

> <r_epik_Ionization_Penalty_Neutral>
0.00221504

> <r_epik_State_Penalty>
-0

> <r_epik_Charging_Adjusted_Penalty>
0

> <i_epik_Tot_Q>
0

> <i_epik_Tot_abs_Q>
0

> <r_epik_Metal_State_Penalty>
-0

> <b_epik_Metal_Only>
0

> <s_lp_Force_Field>
OPLS_2005

> <r_lp_Energy>
45.6992

> <b_lp_Chiralities_Consistent>
1

> <s_lp_Variant>
AV-unprocessed.smi:265-5

> <Gold.Version>
5.8.1

> <Gold.Id.Protein>
6NUR|6NUR_protein|mol2

> <Gold.PLP.Fitness>
47.9284

> <Gold.PLP.PLP>
-42.3411

> <Gold.PLP.part.hbond>
-2.0000

> <Gold.PLP.part.metal>
0.0000

> <Gold.PLP.part.buried>
-6.0329

> <Gold.PLP.part.nonpolar>
-33.1617

> <Gold.PLP.part.repulsive>
0.2164

> <Gold.PLP.ligand.clash>
0.0000

> <Gold.PLP.ligand.torsion>
0.1850

> <Gold.PLP.Chemscore.Hbond>
1.9280

> <Gold.PLP.Chemscore.CHOScore>
0.0000

> <Gold.PLP.Chemscore.Metal>
0.0000

> <Gold.Chemscore.Hbonds>
donor molecule, donor type, donor heavy atom, donor atom, acceptor molecule, acceptor atom, score
      P1  H  7997  8008       L1    11  1.00
      P1  H 10752 10764       L1     7  0.47

> <Gold.PLP.Chemscore.Internal.Correction>
0.1734

> <Gold.Rescore>
     Score         DG    S(hbond)    S(metal)    S(lipo)     H(rot)  DE(clash)    DE(int)     intcor
     11.98     -15.59       1.40        0.00      95.50       2.25       2.09       1.51       ----

> <Gold.Chemscore.Fitness>
11.9770

> <Gold.Chemscore.DG>
-15.5859

> <Gold.Chemscore.ZeroCoef>
-5.4800

> <Gold.Chemscore.Hbond>
1.4014

> <Gold.Chemscore.Metal>
0.0000

> <Gold.Chemscore.Lipo>
95.4955

> <Gold.Chemscore.Internal_Hbond>
0.0000

> <Gold.Chemscore.DEClash>
2.0944

> <Gold.Chemscore.DEInternal>
1.5145

> <Gold.Chemscore.Rot>
2.2453

> <Gold.Chemscore.Internal.Correction>
   9.000000E+99

> <Gold.Chemscore.Hbonds>
donor molecule, donor type, donor heavy atom, donor atom, acceptor molecule, acceptor atom, score
      P1  H  7997  8008       L1    11  0.96
      P1  H 10752 10764       L1     7  0.08

> <Gold.Chemscore.Hbond.Weighted>
-4.6808

> <Gold.Chemscore.Metal.Weighted>
-0.0000

> <Gold.Chemscore.Lipo.Weighted>
-11.1730

> <Gold.Chemscore.Internal_Hbond.Weighted>
0.0000

> <Gold.Chemscore.DEClash.Weighted>
2.0944

> <Gold.Chemscore.DEInternal.Weighted>
1.5145

> <Gold.Chemscore.Rot.Weighted>
5.7479

> <Gold.Chemscore.Internal.Correction.Weighted>
   9.000000E+99

> <Gold.Protein.RotatedTorsions>
[ 6907 6896 6895 6894 ] final   14.57 input  -60.11 | X-H torsion
[ 7974 7965 7964 7962 ] final  114.04 input  175.53 | X-H torsion
[ 8008 7997 7996 7995 ] final  -54.78 input   59.86 | X-H torsion
[ 10167 10162 10161 10158 ] final -133.99 input  -65.29 | X-H torsion
[ 10718 10713 10712 10709 ] final   52.11 input   66.30 | X-H torsion
[ 10763 10752 10751 10750 ] final  -27.11 input  -60.55 | X-H torsion
[ 11005 11000 10999 10996 ] final -116.52 input  -57.11 | X-H torsion

> <Gold.Protein.ActiveResidues>
 VAL166  LYS551  ARG553  GLY616  TRP617  ASP618  TYR619  PRO620  LYS621  CYS622 
 ASP623  PHE694  ASN695  SER759  ASP760  ASP761  ALA762  ILE779  LEU786  VAL792 
 PHE793  MET794  SER795  GLU796  ALA797  LYS798  CYS799  TRP800  GLU811  SER814 

> <Gold.Protein.RotatedAtoms>
  151.8044  135.0699  160.0404 H   0  0  0  0  0  0  0  0  0  0  0  0  # atno 6907 bound_to 6896
  152.3066  133.5705  159.5661 H   0  0  0  0  0  0  0  0  0  0  0  0  # atno 6908 bound_to 6896
  150.7299  134.0130  159.3718 H   0  0  0  0  0  0  0  0  0  0  0  0  # atno 6909 bound_to 6896
  145.2094  139.2914  143.4276 H   0  0  0  0  0  0  0  0  0  0  0  0  # atno 7974 bound_to 7965
  154.4173  140.1168  156.5371 H   0  0  0  0  0  0  0  0  0  0  0  0  # atno 8008 bound_to 7997
  155.6546  140.3496  155.4741 H   0  0  0  0  0  0  0  0  0  0  0  0  # atno 8009 bound_to 7997
  155.9764  140.1151  157.0756 H   0  0  0  0  0  0  0  0  0  0  0  0  # atno 8010 bound_to 7997
  139.8926  143.6704  152.2609 H   0  0  0  0  0  0  0  0  0  0  0  0  # atno 10167 bound_to 10162
  157.5044  130.8459  149.8356 H   0  0  0  0  0  0  0  0  0  0  0  0  # atno 10718 bound_to 10713
  153.7268  135.6941  153.4999 H   0  0  0  0  0  0  0  0  0  0  0  0  # atno 10763 bound_to 10752
  153.2164  135.4385  155.0438 H   0  0  0  0  0  0  0  0  0  0  0  0  # atno 10764 bound_to 10752
  154.8266  135.3449  154.6799 H   0  0  0  0  0  0  0  0  0  0  0  0  # atno 10765 bound_to 10752
  141.0416  133.9827  157.2985 H   0  0  0  0  0  0  0  0  0  0  0  0  # atno 11005 bound_to 11000
  146.3401  140.2364  142.8594 LP  0  0  0  0  0  0  0  0  0  0  0  0  # atno 17320 bound_to 7965
  144.9871  140.8513  143.5362 LP  0  0  0  0  0  0  0  0  0  0  0  0  # atno 17321 bound_to 7965
  139.7096  144.7622  151.1134 LP  0  0  0  0  0  0  0  0  0  0  0  0  # atno 17342 bound_to 10162
  140.7723  143.5348  150.9381 LP  0  0  0  0  0  0  0  0  0  0  0  0  # atno 17343 bound_to 10162
  156.0249  130.3783  150.1852 LP  0  0  0  0  0  0  0  0  0  0  0  0  # atno 17370 bound_to 10713
  157.0042  130.9931  151.3383 LP  0  0  0  0  0  0  0  0  0  0  0  0  # atno 17371 bound_to 10713
  139.9280  135.0201  156.8302 LP  0  0  0  0  0  0  0  0  0  0  0  0  # atno 17394 bound_to 11000
  140.6223  133.9982  155.7624 LP  0  0  0  0  0  0  0  0  0  0  0  0  # atno 17395 bound_to 11000

$$$$
