AV-unprocessed.smi:2751|AV-procd|sdf|10602|dock7
  -GOLD-   2272015 53D 1   1.00000     0.00000
 Structure written by MMmdl.
 34 35  0  0  0  0  0  0  0  0  1 V2000
  150.5271  139.3698  154.0976 O   0  0  0  0  0  0  0  0  0  0  0  0
  151.1631  138.9763  155.0806 C   0  0  0  0  0  0  0  0  0  0  0  0
  151.4714  139.8023  156.0917 N   0  0  0  0  0  0  0  0  0  0  0  0
  151.1210  141.2164  156.1661 C   0  0  0  0  0  0  0  0  0  0  0  0
  150.6480  141.6072  157.5768 C   0  0  0  0  0  0  0  0  0  0  0  0
  151.6467  142.5149  158.3118 C   0  0  1  0  0  0  0  0  0  0  0  0
  151.5476  143.9789  157.8405 C   0  0  0  0  0  0  0  0  0  0  0  0
  152.4991  144.8714  158.6455 C   0  0  0  0  0  0  0  0  0  0  0  0
  152.2466  144.6759  160.1440 C   0  0  0  0  0  0  0  0  0  0  0  0
  152.3014  143.1828  160.5045 C   0  0  0  0  0  0  0  0  0  0  0  0
  151.3685  142.4568  159.7099 O   0  0  0  0  0  0  0  0  0  0  0  0
  151.6631  137.7066  155.3352 N   0  0  0  0  0  0  0  0  0  0  0  0
  150.9057  136.6643  155.1774 C   0  0  0  0  0  0  0  0  0  0  0  0
  149.5822  136.5033  154.7755 N   0  0  0  0  0  0  0  0  0  0  0  0
  149.2924  135.1676  154.7863 C   0  0  0  0  0  0  0  0  0  0  0  0
  150.3823  134.5131  155.1757 C   0  0  0  0  0  0  0  0  0  0  0  0
  151.3852  135.4021  155.4221 O   0  0  0  0  0  0  0  0  0  0  0  0
  151.9933  139.4214  156.8678 H   0  0  0  0  0  0  0  0  0  0  0  0
  151.9696  141.8295  155.8584 H   0  0  0  0  0  0  0  0  0  0  0  0
  150.3261  141.4044  155.4438 H   0  0  0  0  0  0  0  0  0  0  0  0
  149.6889  142.1206  157.4967 H   0  0  0  0  0  0  0  0  0  0  0  0
  150.4670  140.7115  158.1723 H   0  0  0  0  0  0  0  0  0  0  0  0
  152.6575  142.1447  158.1308 H   0  0  0  0  0  0  0  0  0  0  0  0
  151.7805  144.0513  156.7776 H   0  0  0  0  0  0  0  0  0  0  0  0
  150.5241  144.3364  157.9617 H   0  0  0  0  0  0  0  0  0  0  0  0
  153.5324  144.6134  158.4099 H   0  0  0  0  0  0  0  0  0  0  0  0
  152.3651  145.9176  158.3696 H   0  0  0  0  0  0  0  0  0  0  0  0
  152.9802  145.2331  160.7269 H   0  0  0  0  0  0  0  0  0  0  0  0
  151.2669  145.0778  160.4056 H   0  0  0  0  0  0  0  0  0  0  0  0
  153.3064  142.7833  160.3604 H   0  0  0  0  0  0  0  0  0  0  0  0
  152.0516  143.0427  161.5562 H   0  0  0  0  0  0  0  0  0  0  0  0
  148.9170  137.2174  154.5153 H   0  0  0  0  0  0  0  0  0  0  0  0
  148.3094  134.8189  154.5063 H   0  0  0  0  0  0  0  0  0  0  0  0
  150.5953  133.4644  155.3216 H   0  0  0  0  0  0  0  0  0  0  0  0
  1  2  2  0  0  0  0
  2 12  1  0  0  0  0
  2  3  1  0  0  0  0
  3  4  1  0  0  0  0
  3 18  1  0  0  0  0
  4  5  1  0  0  0  0
  4 19  1  0  0  0  0
  4 20  1  0  0  0  0
  5  6  1  0  0  0  0
  5 21  1  0  0  0  0
  5 22  1  0  0  0  0
  6 11  1  0  0  0  0
  6  7  1  0  0  0  0
  6 23  1  0  0  0  0
  7  8  1  0  0  0  0
  7 24  1  0  0  0  0
  7 25  1  0  0  0  0
  8  9  1  0  0  0  0
  8 26  1  0  0  0  0
  8 27  1  0  0  0  0
  9 10  1  0  0  0  0
  9 28  1  0  0  0  0
  9 29  1  0  0  0  0
 10 11  1  0  0  0  0
 10 30  1  0  0  0  0
 10 31  1  0  0  0  0
 12 13  2  0  0  0  0
 13 17  1  0  0  0  0
 13 14  1  0  0  0  0
 14 32  1  0  0  0  0
 14 15  1  0  0  0  0
 15 33  1  0  0  0  0
 15 16  2  0  0  0  0
 16 34  1  0  0  0  0
 16 17  1  0  0  0  0
M  END
> <s_m_source_file>
AV-unprocessed.smi

> <i_m_source_file_index>
2751

> <i_lp_mmshare_version>
43012

> <i_f3d_flags>
0

> <s_epik_input>
bzFbY0hdW2NIXW5jMVtOSF1DKD1PKVtOSF1bQ0gyXVtDSDJdW0NAQEhdMltDSDJdW0NIMl1bQ0gyXVtDSDJdTzI=

> <s_epik_cmdline>
J2VwaWtfcHl0aG9uJywgJy1waCcsICc3LjAnLCAnLXRuJywgJzgnLCAnLW1hJywgJzIwMCcsICctbWV0YWxfYmluZGluZycsICctaW1hZScsICc8aW5maWxlLm1hZT4nLCAnLW9tYWUnLCAnPG91dGZpbGUubWFlPic=

> <r_lp_tautomer_probability>
0.107061

> <r_epik_Ionization_Penalty>
1.421

> <r_epik_Ionization_Penalty_Charging>
1.42064

> <r_epik_Ionization_Penalty_Neutral>
0.0003614

> <r_epik_State_Penalty>
2.61489

> <r_epik_Charging_Adjusted_Penalty>
4.03553

> <i_epik_Tot_Q>
0

> <i_epik_Tot_abs_Q>
0

> <r_epik_Metal_State_Penalty>
3.57288

> <b_epik_Metal_Only>
0

> <s_lp_Force_Field>
OPLS_2005

> <r_lp_Energy>
32.5629

> <b_lp_Chiralities_Consistent>
1

> <s_lp_Variant>
AV-unprocessed.smi:2751-8

> <Gold.Version>
5.8.1

> <Gold.Id.Protein>
6NUR|6NUR_protein|mol2

> <Gold.PLP.Fitness>
39.4276

> <Gold.PLP.PLP>
-35.5296

> <Gold.PLP.part.hbond>
-3.5346

> <Gold.PLP.part.metal>
0.0000

> <Gold.PLP.part.buried>
-4.1884

> <Gold.PLP.part.nonpolar>
-27.8031

> <Gold.PLP.part.repulsive>
0.4648

> <Gold.PLP.ligand.clash>
0.0000

> <Gold.PLP.ligand.torsion>
1.0579

> <Gold.PLP.Chemscore.Hbond>
2.0000

> <Gold.PLP.Chemscore.CHOScore>
0.0000

> <Gold.PLP.Chemscore.Metal>
0.0000

> <Gold.Chemscore.Hbonds>
donor molecule, donor type, donor heavy atom, donor atom, acceptor molecule, acceptor atom, score
      P1  H  7989  7998       L1     1  1.00
      P1  H 10752 10763       L1    17  1.00

> <Gold.PLP.Chemscore.Internal.Correction>
0.0138

> <Gold.Rescore>
     Score         DG    S(hbond)    S(metal)    S(lipo)     H(rot)  DE(clash)    DE(int)     intcor
     15.54     -16.78       1.79        0.00      81.05       1.63       0.03       1.20       ----

> <Gold.Chemscore.Fitness>
15.5413

> <Gold.Chemscore.DG>
-16.7759

> <Gold.Chemscore.ZeroCoef>
-5.4800

> <Gold.Chemscore.Hbond>
1.7943

> <Gold.Chemscore.Metal>
0.0000

> <Gold.Chemscore.Lipo>
81.0512

> <Gold.Chemscore.Internal_Hbond>
0.0000

> <Gold.Chemscore.DEClash>
0.0322

> <Gold.Chemscore.DEInternal>
1.2024

> <Gold.Chemscore.Rot>
1.6328

> <Gold.Chemscore.Internal.Correction>
   9.000000E+99

> <Gold.Chemscore.Hbonds>
donor molecule, donor type, donor heavy atom, donor atom, acceptor molecule, acceptor atom, score
      P1  H  7989  7998       L1     1  0.34
      P1  H 10752 10763       L1    17  0.43

> <Gold.Chemscore.Hbond.Weighted>
-5.9929

> <Gold.Chemscore.Metal.Weighted>
-0.0000

> <Gold.Chemscore.Lipo.Weighted>
-9.4830

> <Gold.Chemscore.Internal_Hbond.Weighted>
0.0000

> <Gold.Chemscore.DEClash.Weighted>
0.0322

> <Gold.Chemscore.DEInternal.Weighted>
1.2024

> <Gold.Chemscore.Rot.Weighted>
4.1799

> <Gold.Chemscore.Internal.Correction.Weighted>
   9.000000E+99

> <Gold.Protein.RotatedTorsions>
[ 6907 6896 6895 6894 ] final   86.11 input  -60.11 | X-H torsion
[ 7974 7965 7964 7962 ] final   82.89 input  175.53 | X-H torsion
[ 8008 7997 7996 7995 ] final -110.93 input   59.86 | X-H torsion
[ 10167 10162 10161 10158 ] final   58.76 input  -65.29 | X-H torsion
[ 10718 10713 10712 10709 ] final    5.81 input   66.30 | X-H torsion
[ 10763 10752 10751 10750 ] final   80.30 input  -60.55 | X-H torsion
[ 11005 11000 10999 10996 ] final  125.53 input  -57.11 | X-H torsion

> <Gold.Protein.ActiveResidues>
 VAL166  LYS551  ARG553  GLY616  TRP617  ASP618  TYR619  PRO620  LYS621  CYS622 
 ASP623  PHE694  ASN695  SER759  ASP760  ASP761  ALA762  ILE779  LEU786  VAL792 
 PHE793  MET794  SER795  GLU796  ALA797  LYS798  CYS799  TRP800  GLU811  SER814 

> <Gold.Protein.RotatedAtoms>
  152.5388  134.2481  159.8887 H   0  0  0  0  0  0  0  0  0  0  0  0  # atno 6907 bound_to 6896
  151.2446  133.4375  159.2616 H   0  0  0  0  0  0  0  0  0  0  0  0  # atno 6908 bound_to 6896
  151.0595  134.9741  159.8309 H   0  0  0  0  0  0  0  0  0  0  0  0  # atno 6909 bound_to 6896
  145.6191  139.2382  143.2148 H   0  0  0  0  0  0  0  0  0  0  0  0  # atno 7974 bound_to 7965
  154.9821  140.0396  157.2282 H   0  0  0  0  0  0  0  0  0  0  0  0  # atno 8008 bound_to 7997
  154.7705  140.2801  155.6119 H   0  0  0  0  0  0  0  0  0  0  0  0  # atno 8009 bound_to 7997
  156.2920  140.2611  156.2506 H   0  0  0  0  0  0  0  0  0  0  0  0  # atno 8010 bound_to 7997
  140.1837  144.4156  150.6603 H   0  0  0  0  0  0  0  0  0  0  0  0  # atno 10167 bound_to 10162
  156.9129  130.5762  149.5647 H   0  0  0  0  0  0  0  0  0  0  0  0  # atno 10718 bound_to 10713
  153.1023  135.4807  154.8888 H   0  0  0  0  0  0  0  0  0  0  0  0  # atno 10763 bound_to 10752
  154.7392  135.3078  154.8761 H   0  0  0  0  0  0  0  0  0  0  0  0  # atno 10764 bound_to 10752
  153.9374  135.6838  153.4798 H   0  0  0  0  0  0  0  0  0  0  0  0  # atno 10765 bound_to 10752
  139.9411  134.9635  156.8572 H   0  0  0  0  0  0  0  0  0  0  0  0  # atno 11005 bound_to 11000
  146.1445  140.7012  142.9351 LP  0  0  0  0  0  0  0  0  0  0  0  0  # atno 17320 bound_to 7965
  144.7238  140.4460  143.6988 LP  0  0  0  0  0  0  0  0  0  0  0  0  # atno 17321 bound_to 7965
  140.6502  143.2223  151.6093 LP  0  0  0  0  0  0  0  0  0  0  0  0  # atno 17342 bound_to 10162
  139.5285  144.2986  152.1092 LP  0  0  0  0  0  0  0  0  0  0  0  0  # atno 17343 bound_to 10162
  156.0527  130.5594  150.9025 LP  0  0  0  0  0  0  0  0  0  0  0  0  # atno 17370 bound_to 10713
  157.5956  131.0943  150.9046 LP  0  0  0  0  0  0  0  0  0  0  0  0  # atno 17371 bound_to 10713
  140.5950  134.0226  155.7514 LP  0  0  0  0  0  0  0  0  0  0  0  0  # atno 17394 bound_to 11000
  141.1045  133.9715  157.3020 LP  0  0  0  0  0  0  0  0  0  0  0  0  # atno 17395 bound_to 11000

$$$$
