AV-unprocessed.smi:193|AV-procd|sdf|1517|dock4
  -GOLD-   2262019353D 1   1.00000     0.00000
 Structure written by MMmdl.
 61 65  0  0  0  0  0  0  0  0  1 V2000
  146.4365  137.0438  156.7931 C   0  0  0  0  0  0  0  0  0  0  0  0
  147.6189  136.2796  156.1789 C   0  0  1  0  0  0  0  0  0  0  0  0
  148.8607  136.4218  157.0849 C   0  0  0  0  0  0  0  0  0  0  0  0
  150.1309  136.2638  156.3707 N   0  0  0  0  0  0  0  0  0  0  0  0
  150.7998  137.3971  156.0386 C   0  0  0  0  0  0  0  0  0  0  0  0
  151.9551  137.3197  155.3245 N   0  0  0  0  0  0  0  0  0  0  0  0
  152.6374  138.4283  155.0236 C   0  0  0  0  0  0  0  0  0  0  0  0
  152.3510  139.6942  155.3328 N   0  0  0  0  0  0  0  0  0  0  0  0
  151.1900  139.7796  156.0429 C   0  0  0  0  0  0  0  0  0  0  0  0
  150.3615  138.6910  156.4373 C   0  0  0  0  0  0  0  0  0  0  0  0
  149.2645  139.1643  157.1478 N   0  0  0  0  0  0  0  0  0  0  0  0
  149.4392  140.4572  157.1786 C   0  0  0  0  0  0  0  0  0  0  0  0
  150.5667  140.9139  156.5338 N   0  0  0  0  0  0  0  0  0  0  0  0
  151.0041  142.2972  156.4176 C   0  0  0  0  0  0  0  0  0  0  0  0
  151.3688  142.9631  157.7682 C   0  0  0  0  0  0  0  0  0  0  0  0
  152.0184  141.9930  158.5711 O   0  0  0  0  0  0  0  0  0  0  0  0
  152.3183  144.1697  157.5996 C   0  0  0  0  0  0  0  0  0  0  0  0
  152.4995  144.9534  158.9120 C   0  0  0  0  0  0  0  0  0  0  0  0
  151.2339  145.3508  159.4252 O   0  0  0  0  0  0  0  0  0  0  0  0
  150.4067  144.2440  159.7621 C   0  0  0  0  0  0  0  0  0  0  0  0
  150.0911  143.4215  158.5003 C   0  0  0  0  0  0  0  0  0  0  0  0
  150.2690  135.2198  155.3563 C   0  0  0  0  0  0  0  0  0  0  0  0
  149.4649  133.9442  155.6533 C   0  0  0  0  0  0  0  0  0  0  0  0
  148.1204  134.0575  155.0909 N   0  0  0  0  0  0  0  0  0  0  0  0
  147.5682  132.7198  154.9216 C   0  0  2  0  0  0  0  0  0  0  0  0
  148.2924  131.7738  153.9897 C   0  0  0  0  0  0  0  0  0  0  0  0
  146.9538  132.3440  153.5846 C   0  0  2  0  0  0  0  0  0  0  0  0
  146.8585  133.3122  152.4206 C   0  0  0  0  0  0  0  0  0  0  0  0
  147.2298  134.7968  155.9862 C   0  0  0  0  0  0  0  0  0  0  0  0
  146.1715  136.6443  157.7727 H   0  0  0  0  0  0  0  0  0  0  0  0
  145.5532  136.9809  156.1570 H   0  0  0  0  0  0  0  0  0  0  0  0
  146.6736  138.1012  156.9160 H   0  0  0  0  0  0  0  0  0  0  0  0
  147.8158  136.7348  155.2068 H   0  0  0  0  0  0  0  0  0  0  0  0
  148.8467  137.3886  157.5907 H   0  0  0  0  0  0  0  0  0  0  0  0
  148.8209  135.6892  157.8914 H   0  0  0  0  0  0  0  0  0  0  0  0
  153.5451  138.2792  154.4577 H   0  0  0  0  0  0  0  0  0  0  0  0
  148.7420  141.1192  157.6712 H   0  0  0  0  0  0  0  0  0  0  0  0
  151.8650  142.3188  155.7482 H   0  0  0  0  0  0  0  0  0  0  0  0
  150.2184  142.8636  155.9154 H   0  0  0  0  0  0  0  0  0  0  0  0
  152.5756  142.4389  159.1906 H   0  0  0  0  0  0  0  0  0  0  0  0
  153.2930  143.8492  157.2305 H   0  0  0  0  0  0  0  0  0  0  0  0
  151.9105  144.8446  156.8460 H   0  0  0  0  0  0  0  0  0  0  0  0
  153.0342  144.3582  159.6540 H   0  0  0  0  0  0  0  0  0  0  0  0
  153.1000  145.8453  158.7323 H   0  0  0  0  0  0  0  0  0  0  0  0
  150.8915  143.6299  160.5227 H   0  0  0  0  0  0  0  0  0  0  0  0
  149.4827  144.6189  160.2032 H   0  0  0  0  0  0  0  0  0  0  0  0
  149.4930  144.0391  157.8290 H   0  0  0  0  0  0  0  0  0  0  0  0
  149.4691  142.5632  158.7586 H   0  0  0  0  0  0  0  0  0  0  0  0
  150.0155  135.6139  154.3704 H   0  0  0  0  0  0  0  0  0  0  0  0
  151.3207  134.9386  155.3068 H   0  0  0  0  0  0  0  0  0  0  0  0
  149.9759  133.1263  155.1432 H   0  0  0  0  0  0  0  0  0  0  0  0
  149.4562  133.6845  156.7128 H   0  0  0  0  0  0  0  0  0  0  0  0
  147.1100  132.2433  155.7870 H   0  0  0  0  0  0  0  0  0  0  0  0
  149.1778  132.1455  153.4769 H   0  0  0  0  0  0  0  0  0  0  0  0
  148.3263  130.7230  154.2695 H   0  0  0  0  0  0  0  0  0  0  0  0
  146.1095  131.6594  153.6393 H   0  0  0  0  0  0  0  0  0  0  0  0
  147.7434  133.9464  152.3614 H   0  0  0  0  0  0  0  0  0  0  0  0
  145.9808  133.9484  152.5333 H   0  0  0  0  0  0  0  0  0  0  0  0
  146.7686  132.7609  151.4845 H   0  0  0  0  0  0  0  0  0  0  0  0
  147.1630  134.2938  156.9524 H   0  0  0  0  0  0  0  0  0  0  0  0
  146.2282  134.7599  155.5562 H   0  0  0  0  0  0  0  0  0  0  0  0
  1  2  1  0  0  0  0
  1 30  1  0  0  0  0
  1 31  1  0  0  0  0
  1 32  1  0  0  0  0
  2 29  1  0  0  0  0
  2  3  1  0  0  0  0
  2 33  1  0  0  0  0
  3  4  1  0  0  0  0
  3 34  1  0  0  0  0
  3 35  1  0  0  0  0
  4  5  1  0  0  0  0
  4 22  1  0  0  0  0
  5 10  1  0  0  0  0
  5  6  2  0  0  0  0
  6  7  1  0  0  0  0
  7  8  2  0  0  0  0
  7 36  1  0  0  0  0
  8  9  1  0  0  0  0
  9 13  1  0  0  0  0
  9 10  2  0  0  0  0
 10 11  1  0  0  0  0
 11 12  2  0  0  0  0
 12 13  1  0  0  0  0
 12 37  1  0  0  0  0
 13 14  1  0  0  0  0
 14 15  1  0  0  0  0
 14 38  1  0  0  0  0
 14 39  1  0  0  0  0
 15 21  1  0  0  0  0
 15 16  1  0  0  0  0
 15 17  1  0  0  0  0
 16 40  1  0  0  0  0
 17 18  1  0  0  0  0
 17 41  1  0  0  0  0
 17 42  1  0  0  0  0
 18 19  1  0  0  0  0
 18 43  1  0  0  0  0
 18 44  1  0  0  0  0
 19 20  1  0  0  0  0
 20 21  1  0  0  0  0
 20 45  1  0  0  0  0
 20 46  1  0  0  0  0
 21 47  1  0  0  0  0
 21 48  1  0  0  0  0
 22 23  1  0  0  0  0
 22 49  1  0  0  0  0
 22 50  1  0  0  0  0
 23 24  1  0  0  0  0
 23 51  1  0  0  0  0
 23 52  1  0  0  0  0
 24 25  1  0  0  0  0
 24 29  1  0  0  0  0
 25 27  1  0  0  0  0
 25 26  1  0  0  0  0
 25 53  1  0  0  0  0
 26 27  1  0  0  0  0
 26 54  1  0  0  0  0
 26 55  1  0  0  0  0
 27 28  1  0  0  0  0
 27 56  1  0  0  0  0
 28 57  1  0  0  0  0
 28 58  1  0  0  0  0
 28 59  1  0  0  0  0
 29 60  1  0  0  0  0
 29 61  1  0  0  0  0
M  END
> <s_m_source_file>
AV-unprocessed.smi

> <i_m_source_file_index>
193

> <i_lp_mmshare_version>
43012

> <i_f3d_flags>
0

> <s_epik_input>
W0NIM11bQ0BASF0xW0NIMl1bQ0BIXTFOKFtDSDJdMilbQ0gyXVtDSDJdTihbQ0gyXVtDQEhdMltDSDNdKWMobltjSF1uMyljKGMzNCluW2NIXW40W0NIMl1DNShbT0hdKVtDSDJdW0NIMl1PW0NIMl1bQ0gyXTU=

> <s_epik_cmdline>
J2VwaWtfcHl0aG9uJywgJy1waCcsICc3LjAnLCAnLXRuJywgJzgnLCAnLW1hJywgJzIwMCcsICctbWV0YWxfYmluZGluZycsICctaW1hZScsICc8aW5maWxlLm1hZT4nLCAnLW9tYWUnLCAnPG91dGZpbGUubWFlPic=

> <r_lp_tautomer_probability>
1

> <r_epik_Ionization_Penalty>
1.45227

> <r_epik_Ionization_Penalty_Charging>
0

> <r_epik_Ionization_Penalty_Neutral>
1.45227

> <r_epik_State_Penalty>
2.02377

> <r_epik_Charging_Adjusted_Penalty>
2.02377

> <i_epik_Tot_Q>
0

> <i_epik_Tot_abs_Q>
0

> <r_epik_Metal_State_Penalty>
2.01937

> <b_epik_Metal_Only>
0

> <s_lp_Force_Field>
OPLS_2005

> <r_lp_Energy>
53.149

> <b_lp_Chiralities_Consistent>
1

> <s_lp_Variant>
AV-unprocessed.smi:193-22

> <Gold.Version>
5.8.1

> <Gold.Id.Protein>
6NUR|6NUR_protein|mol2

> <Gold.PLP.Fitness>
48.0963

> <Gold.PLP.PLP>
-44.4392

> <Gold.PLP.part.hbond>
-2.6094

> <Gold.PLP.part.metal>
0.0000

> <Gold.PLP.part.buried>
-7.6370

> <Gold.PLP.part.nonpolar>
-34.9264

> <Gold.PLP.part.repulsive>
0.3844

> <Gold.PLP.ligand.clash>
0.0000

> <Gold.PLP.ligand.torsion>
1.4249

> <Gold.PLP.Chemscore.Hbond>
1.5965

> <Gold.PLP.Chemscore.CHOScore>
0.0000

> <Gold.PLP.Chemscore.Metal>
0.0000

> <Gold.Chemscore.Hbonds>
donor molecule, donor type, donor heavy atom, donor atom, acceptor molecule, acceptor atom, score
      P1  H  7989  7998       L1     8  0.26
      P1  H  7997  8010       L1     8  0.41
      P1  H 10752 10764       L1     6  0.74

> <Gold.PLP.Chemscore.Internal.Correction>
1.7174

> <Gold.Rescore>
     Score         DG    S(hbond)    S(metal)    S(lipo)     H(rot)  DE(clash)    DE(int)     intcor
     12.01     -15.04       1.06        0.00      98.83       2.17       0.21       2.82       ----

> <Gold.Chemscore.Fitness>
12.0148

> <Gold.Chemscore.DG>
-15.0420

> <Gold.Chemscore.ZeroCoef>
-5.4800

> <Gold.Chemscore.Hbond>
1.0614

> <Gold.Chemscore.Metal>
0.0000

> <Gold.Chemscore.Lipo>
98.8266

> <Gold.Chemscore.Internal_Hbond>
0.0000

> <Gold.Chemscore.DEClash>
0.2096

> <Gold.Chemscore.DEInternal>
2.8176

> <Gold.Chemscore.Rot>
2.1664

> <Gold.Chemscore.Internal.Correction>
   9.000000E+99

> <Gold.Chemscore.Hbonds>
donor molecule, donor type, donor heavy atom, donor atom, acceptor molecule, acceptor atom, score
      P1  H  7989  7998       L1     8  0.04
      P1  H  7997  8010       L1     8  0.05
      P1  H 10752 10764       L1     6  0.56

> <Gold.Chemscore.Hbond.Weighted>
-3.5452

> <Gold.Chemscore.Metal.Weighted>
-0.0000

> <Gold.Chemscore.Lipo.Weighted>
-11.5627

> <Gold.Chemscore.Internal_Hbond.Weighted>
0.0000

> <Gold.Chemscore.DEClash.Weighted>
0.2096

> <Gold.Chemscore.DEInternal.Weighted>
2.8176

> <Gold.Chemscore.Rot.Weighted>
5.5459

> <Gold.Chemscore.Internal.Correction.Weighted>
   9.000000E+99

> <Gold.Protein.RotatedTorsions>
[ 6907 6896 6895 6894 ] final  -97.92 input  -60.11 | X-H torsion
[ 7974 7965 7964 7962 ] final  -85.03 input  175.53 | X-H torsion
[ 8008 7997 7996 7995 ] final   96.05 input   59.86 | X-H torsion
[ 10167 10162 10161 10158 ] final -131.45 input  -65.29 | X-H torsion
[ 10718 10713 10712 10709 ] final -147.33 input   66.30 | X-H torsion
[ 10763 10752 10751 10750 ] final  -56.15 input  -60.55 | X-H torsion
[ 11005 11000 10999 10996 ] final   40.38 input  -57.11 | X-H torsion

> <Gold.Protein.ActiveResidues>
 VAL166  LYS551  ARG553  GLY616  TRP617  ASP618  TYR619  PRO620  LYS621  CYS622 
 ASP623  PHE694  ASN695  SER759  ASP760  ASP761  ALA762  ILE779  LEU786  VAL792 
 PHE793  MET794  SER795  GLU796  ALA797  LYS798  CYS799  TRP800  GLU811  SER814 

> <Gold.Protein.RotatedAtoms>
  150.7031  134.1274  159.4056 H   0  0  0  0  0  0  0  0  0  0  0  0  # atno 6907 bound_to 6896
  151.9260  135.0275  160.0535 H   0  0  0  0  0  0  0  0  0  0  0  0  # atno 6908 bound_to 6896
  152.2216  133.4952  159.5202 H   0  0  0  0  0  0  0  0  0  0  0  0  # atno 6909 bound_to 6896
  145.4987  140.9548  143.1772 H   0  0  0  0  0  0  0  0  0  0  0  0  # atno 7974 bound_to 7965
  156.0755  140.3278  155.7628 H   0  0  0  0  0  0  0  0  0  0  0  0  # atno 8008 bound_to 7997
  155.5237  140.0587  157.2919 H   0  0  0  0  0  0  0  0  0  0  0  0  # atno 8009 bound_to 7997
  154.4553  140.1939  156.0415 H   0  0  0  0  0  0  0  0  0  0  0  0  # atno 8010 bound_to 7997
  139.9188  143.6407  152.2558 H   0  0  0  0  0  0  0  0  0  0  0  0  # atno 10167 bound_to 10162
  156.4062  130.7959  151.2173 H   0  0  0  0  0  0  0  0  0  0  0  0  # atno 10718 bound_to 10713
  154.2021  135.6409  153.5090 H   0  0  0  0  0  0  0  0  0  0  0  0  # atno 10763 bound_to 10752
  153.0009  135.5454  154.6304 H   0  0  0  0  0  0  0  0  0  0  0  0  # atno 10764 bound_to 10752
  154.5720  135.2917  155.0791 H   0  0  0  0  0  0  0  0  0  0  0  0  # atno 10765 bound_to 10752
  140.1936  134.3956  155.8133 H   0  0  0  0  0  0  0  0  0  0  0  0  # atno 11005 bound_to 11000
  144.7792  139.6562  143.7161 LP  0  0  0  0  0  0  0  0  0  0  0  0  # atno 17320 bound_to 7965
  146.2239  139.5687  142.9600 LP  0  0  0  0  0  0  0  0  0  0  0  0  # atno 17321 bound_to 7965
  139.6880  144.7650  151.1490 LP  0  0  0  0  0  0  0  0  0  0  0  0  # atno 17342 bound_to 10162
  140.7667  143.5630  150.9078 LP  0  0  0  0  0  0  0  0  0  0  0  0  # atno 17343 bound_to 10162
  157.7505  131.0271  150.3993 LP  0  0  0  0  0  0  0  0  0  0  0  0  # atno 17370 bound_to 10713
  156.4282  130.3966  149.6778 LP  0  0  0  0  0  0  0  0  0  0  0  0  # atno 17371 bound_to 10713
  141.2226  133.7059  156.8138 LP  0  0  0  0  0  0  0  0  0  0  0  0  # atno 17394 bound_to 11000
  140.2132  134.8812  157.3297 LP  0  0  0  0  0  0  0  0  0  0  0  0  # atno 17395 bound_to 11000

$$$$
