AV-unprocessed.smi:1607|AV-procd|sdf|6463|dock7
  -GOLD-   22720 7123D 1   1.00000     0.00000
 Structure written by MMmdl.
 39 40  0  0  0  0  0  0  0  0  2 V2000
  144.5024  134.3393  150.0361 C   0  0  0  0  0  0  0  0  0  0  0  0
  145.5547  134.6393  151.1131 C   0  0  2  0  0  0  0  0  0  0  0  0
  145.4837  133.6234  152.2656 C   0  0  0  0  0  0  0  0  0  0  0  0
  146.5246  133.9641  153.3388 C   0  0  0  0  0  0  0  0  0  0  0  0
  146.3550  135.4109  153.8272 C   0  0  0  0  0  0  0  0  0  0  0  0
  146.4358  136.3706  152.6959 N   0  3  2  0  0  0  0  0  0  0  0  0
  146.4101  137.7814  153.1573 C   0  0  0  0  0  0  0  0  0  0  0  0
  146.6218  138.7819  152.0043 C   0  0  0  0  0  0  0  0  0  0  0  0
  147.4252  139.9231  152.4268 N   0  0  0  0  0  0  0  0  0  0  0  0
  147.2670  140.5886  153.5817 C   0  0  0  0  0  0  0  0  0  0  0  0
  146.4139  140.2972  154.4196 O   0  0  0  0  0  0  0  0  0  0  0  0
  148.2163  141.7601  153.8325 C   0  0  0  0  0  0  0  0  0  0  0  0
  149.3430  141.3498  154.6481 N   0  0  0  0  0  0  0  0  0  0  0  0
  149.8193  141.8377  155.7956 C   0  0  0  0  0  0  0  0  0  0  0  0
  150.8840  141.1666  156.2071 N   0  0  0  0  0  0  0  0  0  0  0  0
  151.0503  140.2058  155.2235 N   0  0  0  0  0  0  0  0  0  0  0  0
  150.1395  140.3103  154.2950 N   0  0  0  0  0  0  0  0  0  0  0  0
  145.4125  136.0760  151.6564 C   0  0  0  0  0  0  0  0  0  0  0  0
  143.4912  134.4156  150.4369 H   0  0  0  0  0  0  0  0  0  0  0  0
  144.6261  133.3327  149.6353 H   0  0  0  0  0  0  0  0  0  0  0  0
  144.5831  135.0366  149.2018 H   0  0  0  0  0  0  0  0  0  0  0  0
  146.5369  134.5513  150.6457 H   0  0  0  0  0  0  0  0  0  0  0  0
  144.4864  133.6289  152.7079 H   0  0  0  0  0  0  0  0  0  0  0  0
  145.6534  132.6129  151.8918 H   0  0  0  0  0  0  0  0  0  0  0  0
  146.4340  133.2742  154.1782 H   0  0  0  0  0  0  0  0  0  0  0  0
  147.5285  133.8287  152.9338 H   0  0  0  0  0  0  0  0  0  0  0  0
  145.3979  135.5272  154.3385 H   0  0  0  0  0  0  0  0  0  0  0  0
  147.1347  135.6324  154.5571 H   0  0  0  0  0  0  0  0  0  0  0  0
  145.4735  137.9749  153.6831 H   0  0  0  0  0  0  0  0  0  0  0  0
  147.2068  137.9375  153.8859 H   0  0  0  0  0  0  0  0  0  0  0  0
  147.1390  138.2919  151.1788 H   0  0  0  0  0  0  0  0  0  0  0  0
  145.6736  139.1430  151.6051 H   0  0  0  0  0  0  0  0  0  0  0  0
  148.1461  140.2369  151.7923 H   0  0  0  0  0  0  0  0  0  0  0  0
  148.5916  142.1423  152.8824 H   0  0  0  0  0  0  0  0  0  0  0  0
  147.6909  142.5807  154.3239 H   0  0  0  0  0  0  0  0  0  0  0  0
  149.3910  142.6775  156.3227 H   0  0  0  0  0  0  0  0  0  0  0  0
  145.5086  136.7773  150.8284 H   0  0  0  0  0  0  0  0  0  0  0  0
  144.4162  136.2232  152.0768 H   0  0  0  0  0  0  0  0  0  0  0  0
  147.3399  136.2254  152.2699 H   0  0  0  0  0  0  0  0  0  0  0  0
  1  2  1  0  0  0  0
  1 19  1  0  0  0  0
  1 20  1  0  0  0  0
  1 21  1  0  0  0  0
  2 18  1  0  0  0  0
  2  3  1  0  0  0  0
  2 22  1  0  0  0  0
  3  4  1  0  0  0  0
  3 23  1  0  0  0  0
  3 24  1  0  0  0  0
  4  5  1  0  0  0  0
  4 25  1  0  0  0  0
  4 26  1  0  0  0  0
  5  6  1  0  0  0  0
  5 27  1  0  0  0  0
  5 28  1  0  0  0  0
  6  7  1  0  0  0  0
  6 18  1  0  0  0  0
  6 39  1  0  0  0  0
  7  8  1  0  0  0  0
  7 29  1  0  0  0  0
  7 30  1  0  0  0  0
  8  9  1  0  0  0  0
  8 31  1  0  0  0  0
  8 32  1  0  0  0  0
  9 10  1  0  0  0  0
  9 33  1  0  0  0  0
 10 11  2  0  0  0  0
 10 12  1  0  0  0  0
 12 13  1  0  0  0  0
 12 34  1  0  0  0  0
 12 35  1  0  0  0  0
 13 17  1  0  0  0  0
 13 14  1  0  0  0  0
 14 15  2  0  0  0  0
 14 36  1  0  0  0  0
 15 16  1  0  0  0  0
 16 17  2  0  0  0  0
 18 37  1  0  0  0  0
 18 38  1  0  0  0  0
M  CHG  1   6   1
M  END
> <s_m_source_file>
AV-unprocessed.smi

> <i_m_source_file_index>
1607

> <i_lp_mmshare_version>
43012

> <i_f3d_flags>
0

> <s_epik_input>
W0NIM11bQ0BASF0xW0NIMl1bQ0gyXVtDSDJdTihbQ0gyXTEpW0NIMl1bQ0gyXVtOSF1DKD1PKVtDSDJdbjJbY0hdbm5uMg==

> <s_epik_cmdline>
J2VwaWtfcHl0aG9uJywgJy1waCcsICc3LjAnLCAnLXRuJywgJzgnLCAnLW1hJywgJzIwMCcsICctbWV0YWxfYmluZGluZycsICctaW1hZScsICc8aW5maWxlLm1hZT4nLCAnLW9tYWUnLCAnPG91dGZpbGUubWFlPic=

> <r_lp_tautomer_probability>
1

> <r_epik_Ionization_Penalty>
0.00268321

> <r_epik_Ionization_Penalty_Charging>
0.00267875

> <r_epik_Ionization_Penalty_Neutral>
4.46125e-06

> <r_epik_State_Penalty>
0.00186642

> <r_epik_Charging_Adjusted_Penalty>
0.00454517

> <i_epik_Tot_Q>
1

> <i_epik_Tot_abs_Q>
1

> <r_epik_Metal_State_Penalty>
-0

> <b_epik_Metal_Only>
0

> <s_lp_Force_Field>
OPLS_2005

> <r_lp_Energy>
18.3574

> <b_lp_Chiralities_Consistent>
1

> <s_lp_Variant>
AV-unprocessed.smi:1607-1

> <Gold.Version>
5.8.1

> <Gold.Id.Protein>
6NUR|6NUR_protein|mol2

> <Gold.PLP.Fitness>
42.1017

> <Gold.PLP.PLP>
-31.5596

> <Gold.PLP.part.hbond>
-4.0000

> <Gold.PLP.part.metal>
0.0000

> <Gold.PLP.part.buried>
-2.4605

> <Gold.PLP.part.nonpolar>
-25.0005

> <Gold.PLP.part.repulsive>
0.5002

> <Gold.PLP.ligand.clash>
0.0000

> <Gold.PLP.ligand.torsion>
0.7281

> <Gold.PLP.Chemscore.Hbond>
2.9920

> <Gold.PLP.Chemscore.CHOScore>
1.0000

> <Gold.PLP.Chemscore.Metal>
0.0000

> <Gold.Chemscore.Hbonds>
donor molecule, donor type, donor heavy atom, donor atom, acceptor molecule, acceptor atom, score
      L1  H     6    39       P1  7948  2.00
      L1  H     9    33       P1  7957  1.00
      L1  C    14    36       P1  8028  1.00

> <Gold.PLP.Chemscore.Internal.Correction>
0.0223

> <Gold.Rescore>
     Score         DG    S(hbond)    S(metal)    S(lipo)     H(rot)  DE(clash)    DE(int)     intcor
      8.95     -11.00       1.98        0.00      49.63       2.69       0.15       1.90       ----

> <Gold.Chemscore.Fitness>
8.9540

> <Gold.Chemscore.DG>
-10.9990

> <Gold.Chemscore.ZeroCoef>
-5.4800

> <Gold.Chemscore.Hbond>
1.9780

> <Gold.Chemscore.Metal>
0.0000

> <Gold.Chemscore.Lipo>
49.6311

> <Gold.Chemscore.Internal_Hbond>
0.0000

> <Gold.Chemscore.DEClash>
0.1462

> <Gold.Chemscore.DEInternal>
1.8988

> <Gold.Chemscore.Rot>
2.6932

> <Gold.Chemscore.Internal.Correction>
   9.000000E+99

> <Gold.Chemscore.Hbonds>
donor molecule, donor type, donor heavy atom, donor atom, acceptor molecule, acceptor atom, score
      L1  H     6    39       P1  7948  1.00
      L1  H     9    33       P1  7957  0.93

> <Gold.Chemscore.Hbond.Weighted>
-6.6067

> <Gold.Chemscore.Metal.Weighted>
-0.0000

> <Gold.Chemscore.Lipo.Weighted>
-5.8068

> <Gold.Chemscore.Internal_Hbond.Weighted>
0.0000

> <Gold.Chemscore.DEClash.Weighted>
0.1462

> <Gold.Chemscore.DEInternal.Weighted>
1.8988

> <Gold.Chemscore.Rot.Weighted>
6.8945

> <Gold.Chemscore.Internal.Correction.Weighted>
   9.000000E+99

> <Gold.Protein.RotatedTorsions>
[ 6907 6896 6895 6894 ] final -137.07 input  -60.11 | X-H torsion
[ 7974 7965 7964 7962 ] final   -2.46 input  175.53 | X-H torsion
[ 8008 7997 7996 7995 ] final  162.61 input   59.86 | X-H torsion
[ 10167 10162 10161 10158 ] final -168.50 input  -65.29 | X-H torsion
[ 10718 10713 10712 10709 ] final   71.51 input   66.30 | X-H torsion
[ 10763 10752 10751 10750 ] final -163.03 input  -60.55 | X-H torsion
[ 11005 11000 10999 10996 ] final -178.45 input  -57.11 | X-H torsion

> <Gold.Protein.ActiveResidues>
 VAL166  LYS551  ARG553  GLY616  TRP617  ASP618  TYR619  PRO620  LYS621  CYS622 
 ASP623  PHE694  ASN695  SER759  ASP760  ASP761  ALA762  ILE779  LEU786  VAL792 
 PHE793  MET794  SER795  GLU796  ALA797  LYS798  CYS799  TRP800  GLU811  SER814 

> <Gold.Protein.RotatedAtoms>
  151.0178  133.5904  159.2674 H   0  0  0  0  0  0  0  0  0  0  0  0  # atno 6907 bound_to 6896
  151.3032  135.0773  159.9256 H   0  0  0  0  0  0  0  0  0  0  0  0  # atno 6908 bound_to 6896
  152.5316  133.9856  159.7881 H   0  0  0  0  0  0  0  0  0  0  0  0  # atno 6909 bound_to 6896
  146.2404  140.1575  142.8333 H   0  0  0  0  0  0  0  0  0  0  0  0  # atno 7974 bound_to 7965
  156.2018  140.1745  156.7883 H   0  0  0  0  0  0  0  0  0  0  0  0  # atno 8008 bound_to 7997
  154.5602  140.0701  156.8837 H   0  0  0  0  0  0  0  0  0  0  0  0  # atno 8009 bound_to 7997
  155.2863  140.3352  155.4257 H   0  0  0  0  0  0  0  0  0  0  0  0  # atno 8010 bound_to 7997
  139.5981  144.1069  152.1712 H   0  0  0  0  0  0  0  0  0  0  0  0  # atno 10167 bound_to 10162
  157.6455  130.9532  150.0800 H   0  0  0  0  0  0  0  0  0  0  0  0  # atno 10718 bound_to 10713
  154.7160  135.3016  154.9123 H   0  0  0  0  0  0  0  0  0  0  0  0  # atno 10763 bound_to 10752
  154.0010  135.6707  153.4763 H   0  0  0  0  0  0  0  0  0  0  0  0  # atno 10764 bound_to 10752
  153.0794  135.5017  154.8386 H   0  0  0  0  0  0  0  0  0  0  0  0  # atno 10765 bound_to 10752
  140.4296  134.6531  157.4705 H   0  0  0  0  0  0  0  0  0  0  0  0  # atno 11005 bound_to 11000
  145.0117  140.8719  143.5220 LP  0  0  0  0  0  0  0  0  0  0  0  0  # atno 17320 bound_to 7965
  145.1609  139.2459  143.5392 LP  0  0  0  0  0  0  0  0  0  0  0  0  # atno 17321 bound_to 7965
  140.0659  144.5819  150.7228 LP  0  0  0  0  0  0  0  0  0  0  0  0  # atno 17342 bound_to 10162
  140.7228  143.2605  151.4222 LP  0  0  0  0  0  0  0  0  0  0  0  0  # atno 17343 bound_to 10162
  156.1779  130.3649  149.9075 LP  0  0  0  0  0  0  0  0  0  0  0  0  # atno 17370 bound_to 10713
  156.7035  130.8942  151.3602 LP  0  0  0  0  0  0  0  0  0  0  0  0  # atno 17371 bound_to 10713
  140.0143  134.6643  155.9333 LP  0  0  0  0  0  0  0  0  0  0  0  0  # atno 17394 bound_to 11000
  141.1751  133.6540  156.4797 LP  0  0  0  0  0  0  0  0  0  0  0  0  # atno 17395 bound_to 11000

$$$$
