AV-unprocessed.smi:251|AV-procd|sdf|1934|dock7
  -GOLD-   2262021 53D 1   1.00000     0.00000
 Structure written by MMmdl.
 50 54  0  0  0  0  0  0  0  0  1 V2000
  148.9256  134.1495  153.7407 O   0  0  0  0  0  0  0  0  0  0  0  0
  148.1986  134.7354  154.8024 C   0  0  0  0  0  0  0  0  0  0  0  0
  149.0937  135.6302  155.7075 C   0  0  0  0  0  0  0  0  0  0  0  0
  149.2618  137.0519  155.0928 C   0  0  0  0  0  0  0  0  0  0  0  0
  149.7445  138.0670  156.0190 N   0  0  0  0  0  0  0  0  0  0  0  0
  149.0107  139.0907  156.5721 C   0  0  0  0  0  0  0  0  0  0  0  0
  149.6710  139.8753  157.3779 N   0  0  0  0  0  0  0  0  0  0  0  0
  150.9561  139.3436  157.4058 C   0  0  0  0  0  0  0  0  0  0  0  0
  152.1709  139.6895  158.0715 C   0  0  0  0  0  0  0  0  0  0  0  0
  152.3193  140.7484  158.9109 N   0  0  0  0  0  0  0  0  0  0  0  0
  153.5901  141.0517  159.5619 C   0  0  0  0  0  0  0  0  0  0  0  0
  153.4032  142.4099  160.1926 C   0  0  2  0  0  0  0  0  0  0  0  0
  152.2872  142.6802  161.1817 C   0  0  0  0  0  0  0  0  0  0  0  0
  152.1031  142.9721  159.7069 C   0  0  1  0  0  0  0  0  0  0  0  0
  151.9419  144.4052  159.2158 C   0  0  0  0  0  0  0  0  0  0  0  0
  152.7478  144.6335  158.1787 F   0  0  0  0  0  0  0  0  0  0  0  0
  150.6800  144.6108  158.8396 F   0  0  0  0  0  0  0  0  0  0  0  0
  152.2442  145.2761  160.1791 F   0  0  0  0  0  0  0  0  0  0  0  0
  151.4773  141.9385  158.7920 C   0  0  0  0  0  0  0  0  0  0  0  0
  153.2538  138.9035  157.8305 N   0  0  0  0  0  0  0  0  0  0  0  0
  153.1637  137.8508  157.0138 C   0  0  0  0  0  0  0  0  0  0  0  0
  152.1036  137.4112  156.3358 N   0  0  0  0  0  0  0  0  0  0  0  0
  151.0131  138.1984  156.5585 C   0  0  0  0  0  0  0  0  0  0  0  0
  148.4879  135.7805  157.1257 C   0  0  0  0  0  0  0  0  0  0  0  0
  148.5429  134.4785  157.9449 C   0  0  0  0  0  0  0  0  0  0  0  0
  149.8852  134.0187  158.0328 O   0  0  0  0  0  0  0  0  0  0  0  0
  150.4455  133.7066  156.7643 C   0  0  0  0  0  0  0  0  0  0  0  0
  150.4829  134.9655  155.8781 C   0  0  0  0  0  0  0  0  0  0  0  0
  148.7794  134.6604  152.9591 H   0  0  0  0  0  0  0  0  0  0  0  0
  147.3783  135.3002  154.3631 H   0  0  0  0  0  0  0  0  0  0  0  0
  147.7321  133.9390  155.3821 H   0  0  0  0  0  0  0  0  0  0  0  0
  149.9488  137.0189  154.2461 H   0  0  0  0  0  0  0  0  0  0  0  0
  148.3129  137.3995  154.6825 H   0  0  0  0  0  0  0  0  0  0  0  0
  147.9642  139.2436  156.3511 H   0  0  0  0  0  0  0  0  0  0  0  0
  153.8335  140.3158  160.3285 H   0  0  0  0  0  0  0  0  0  0  0  0
  154.3976  141.0914  158.8299 H   0  0  0  0  0  0  0  0  0  0  0  0
  154.2771  143.0569  160.2353 H   0  0  0  0  0  0  0  0  0  0  0  0
  151.7597  141.8248  161.5995 H   0  0  0  0  0  0  0  0  0  0  0  0
  152.4155  143.5198  161.8616 H   0  0  0  0  0  0  0  0  0  0  0  0
  151.4683  142.2958  157.7619 H   0  0  0  0  0  0  0  0  0  0  0  0
  150.4527  141.7320  159.1033 H   0  0  0  0  0  0  0  0  0  0  0  0
  154.0714  137.2800  156.8847 H   0  0  0  0  0  0  0  0  0  0  0  0
  149.0408  136.5441  157.6750 H   0  0  0  0  0  0  0  0  0  0  0  0
  147.4604  136.1410  157.0716 H   0  0  0  0  0  0  0  0  0  0  0  0
  148.1729  134.6614  158.9537 H   0  0  0  0  0  0  0  0  0  0  0  0
  147.9043  133.7057  157.5163 H   0  0  0  0  0  0  0  0  0  0  0  0
  151.4583  133.3330  156.9161 H   0  0  0  0  0  0  0  0  0  0  0  0
  149.8858  132.8984  156.2929 H   0  0  0  0  0  0  0  0  0  0  0  0
  150.9109  134.7125  154.9075 H   0  0  0  0  0  0  0  0  0  0  0  0
  151.1704  135.6773  156.3367 H   0  0  0  0  0  0  0  0  0  0  0  0
  1  2  1  0  0  0  0
  1 29  1  0  0  0  0
  2  3  1  0  0  0  0
  2 30  1  0  0  0  0
  2 31  1  0  0  0  0
  3 28  1  0  0  0  0
  3  4  1  0  0  0  0
  3 24  1  0  0  0  0
  4  5  1  0  0  0  0
  4 32  1  0  0  0  0
  4 33  1  0  0  0  0
  5 23  1  0  0  0  0
  5  6  1  0  0  0  0
  6  7  2  0  0  0  0
  6 34  1  0  0  0  0
  7  8  1  0  0  0  0
  8 23  2  0  0  0  0
  8  9  1  0  0  0  0
  9 10  1  0  0  0  0
  9 20  2  0  0  0  0
 10 19  1  0  0  0  0
 10 11  1  0  0  0  0
 11 12  1  0  0  0  0
 11 35  1  0  0  0  0
 11 36  1  0  0  0  0
 12 14  1  0  0  0  0
 12 13  1  0  0  0  0
 12 37  1  0  0  0  0
 13 14  1  0  0  0  0
 13 38  1  0  0  0  0
 13 39  1  0  0  0  0
 14 15  1  0  0  0  0
 14 19  1  0  0  0  0
 15 16  1  0  0  0  0
 15 17  1  0  0  0  0
 15 18  1  0  0  0  0
 19 40  1  0  0  0  0
 19 41  1  0  0  0  0
 20 21  1  0  0  0  0
 21 22  2  0  0  0  0
 21 42  1  0  0  0  0
 22 23  1  0  0  0  0
 24 25  1  0  0  0  0
 24 43  1  0  0  0  0
 24 44  1  0  0  0  0
 25 26  1  0  0  0  0
 25 45  1  0  0  0  0
 25 46  1  0  0  0  0
 26 27  1  0  0  0  0
 27 28  1  0  0  0  0
 27 47  1  0  0  0  0
 27 48  1  0  0  0  0
 28 49  1  0  0  0  0
 28 50  1  0  0  0  0
M  END
> <s_m_source_file>
AV-unprocessed.smi

> <i_m_source_file_index>
251

> <i_lp_mmshare_version>
43012

> <i_f3d_flags>
0

> <s_epik_input>
W0NIMl0xW0NIMl1PW0NIMl1bQ0gyXUMxKFtDSDJdW09IXSlbQ0gyXW4oW2NIXW4yKWMoYzIzKW5bY0hdbmMzTihbQ0gyXTQpW0NIMl1bQ0BIXShbQ0gyXTUpW0NAQF00NUMoRikoRilG

> <s_epik_cmdline>
J2VwaWtfcHl0aG9uJywgJy1waCcsICc3LjAnLCAnLXRuJywgJzgnLCAnLW1hJywgJzIwMCcsICctbWV0YWxfYmluZGluZycsICctaW1hZScsICc8aW5maWxlLm1hZT4nLCAnLW9tYWUnLCAnPG91dGZpbGUubWFlPic=

> <r_lp_tautomer_probability>
1

> <r_epik_Ionization_Penalty>
0.00226625

> <r_epik_Ionization_Penalty_Charging>
0

> <r_epik_Ionization_Penalty_Neutral>
0.00226625

> <r_epik_State_Penalty>
0.00138204

> <r_epik_Charging_Adjusted_Penalty>
0.00138204

> <i_epik_Tot_Q>
0

> <i_epik_Tot_abs_Q>
0

> <r_epik_Metal_State_Penalty>
-0

> <b_epik_Metal_Only>
0

> <s_lp_Force_Field>
OPLS_2005

> <r_lp_Energy>
66.9783

> <b_lp_Chiralities_Consistent>
1

> <s_lp_Variant>
AV-unprocessed.smi:251-1

> <Gold.Version>
5.8.1

> <Gold.Id.Protein>
6NUR|6NUR_protein|mol2

> <Gold.PLP.Fitness>
52.3297

> <Gold.PLP.PLP>
-45.5642

> <Gold.PLP.part.hbond>
-2.8355

> <Gold.PLP.part.metal>
0.0000

> <Gold.PLP.part.buried>
-6.4594

> <Gold.PLP.part.nonpolar>
-37.0831

> <Gold.PLP.part.repulsive>
0.0000

> <Gold.PLP.ligand.clash>
0.0000

> <Gold.PLP.ligand.torsion>
2.0086

> <Gold.PLP.Chemscore.Hbond>
3.0000

> <Gold.PLP.Chemscore.CHOScore>
0.0000

> <Gold.PLP.Chemscore.Metal>
0.0000

> <Gold.Chemscore.Hbonds>
donor molecule, donor type, donor heavy atom, donor atom, acceptor molecule, acceptor atom, score
      L1  H     1    29       P1  7948  0.80
      P1  H  6896  6907       L1    26  0.99
      P1  H  7997  8010       L1    20  0.95

> <Gold.PLP.Chemscore.Internal.Correction>
1.7827

> <Gold.Rescore>
     Score         DG    S(hbond)    S(metal)    S(lipo)     H(rot)  DE(clash)    DE(int)     intcor
     13.99     -17.09       2.13        0.00      87.39       2.23       0.11       2.99       ----

> <Gold.Chemscore.Fitness>
13.9933

> <Gold.Chemscore.DG>
-17.0912

> <Gold.Chemscore.ZeroCoef>
-5.4800

> <Gold.Chemscore.Hbond>
2.1276

> <Gold.Chemscore.Metal>
0.0000

> <Gold.Chemscore.Lipo>
87.3929

> <Gold.Chemscore.Internal_Hbond>
0.0000

> <Gold.Chemscore.DEClash>
0.1096

> <Gold.Chemscore.DEInternal>
2.9883

> <Gold.Chemscore.Rot>
2.2344

> <Gold.Chemscore.Internal.Correction>
   9.000000E+99

> <Gold.Chemscore.Hbonds>
donor molecule, donor type, donor heavy atom, donor atom, acceptor molecule, acceptor atom, score
      L1  H     1    29       P1  7948  0.12
      P1  H  6896  6907       L1    26  0.86
      P1  H  7997  8010       L1    20  0.08

> <Gold.Chemscore.Hbond.Weighted>
-7.1062

> <Gold.Chemscore.Metal.Weighted>
-0.0000

> <Gold.Chemscore.Lipo.Weighted>
-10.2250

> <Gold.Chemscore.Internal_Hbond.Weighted>
0.0000

> <Gold.Chemscore.DEClash.Weighted>
0.1096

> <Gold.Chemscore.DEInternal.Weighted>
2.9883

> <Gold.Chemscore.Rot.Weighted>
5.7200

> <Gold.Chemscore.Internal.Correction.Weighted>
   9.000000E+99

> <Gold.Protein.RotatedTorsions>
[ 6907 6896 6895 6894 ] final -117.96 input  -60.11 | X-H torsion
[ 7974 7965 7964 7962 ] final   43.61 input  175.53 | X-H torsion
[ 8008 7997 7996 7995 ] final   55.87 input   59.86 | X-H torsion
[ 10167 10162 10161 10158 ] final  126.05 input  -65.29 | X-H torsion
[ 10718 10713 10712 10709 ] final  166.29 input   66.30 | X-H torsion
[ 10763 10752 10751 10750 ] final  160.96 input  -60.55 | X-H torsion
[ 11005 11000 10999 10996 ] final   -0.74 input  -57.11 | X-H torsion

> <Gold.Protein.ActiveResidues>
 VAL166  LYS551  ARG553  GLY616  TRP617  ASP618  TYR619  PRO620  LYS621  CYS622 
 ASP623  PHE694  ASN695  SER759  ASP760  ASP761  ALA762  ILE779  LEU786  VAL792 
 PHE793  MET794  SER795  GLU796  ALA797  LYS798  CYS799  TRP800  GLU811  SER814 

> <Gold.Protein.RotatedAtoms>
  150.8180  133.8303  159.3151 H   0  0  0  0  0  0  0  0  0  0  0  0  # atno 6907 bound_to 6896
  151.6069  135.1041  160.0082 H   0  0  0  0  0  0  0  0  0  0  0  0  # atno 6908 bound_to 6896
  152.4271  133.7172  159.6569 H   0  0  0  0  0  0  0  0  0  0  0  0  # atno 6909 bound_to 6896
  146.0640  139.5167  142.9640 H   0  0  0  0  0  0  0  0  0  0  0  0  # atno 7974 bound_to 7965
  155.5081  140.3476  155.4383 H   0  0  0  0  0  0  0  0  0  0  0  0  # atno 8008 bound_to 7997
  156.0868  140.1400  156.9671 H   0  0  0  0  0  0  0  0  0  0  0  0  # atno 8009 bound_to 7997
  154.4611  140.0934  156.6872 H   0  0  0  0  0  0  0  0  0  0  0  0  # atno 8010 bound_to 7997
  139.5652  144.6907  151.3930 H   0  0  0  0  0  0  0  0  0  0  0  0  # atno 10167 bound_to 10162
  157.0680  131.0358  151.2622 H   0  0  0  0  0  0  0  0  0  0  0  0  # atno 10718 bound_to 10713
  154.2556  135.2770  155.2799 H   0  0  0  0  0  0  0  0  0  0  0  0  # atno 10763 bound_to 10752
  154.5428  135.5698  153.6857 H   0  0  0  0  0  0  0  0  0  0  0  0  # atno 10764 bound_to 10752
  152.9972  135.6255  154.2704 H   0  0  0  0  0  0  0  0  0  0  0  0  # atno 10765 bound_to 10752
  140.6396  133.9501  155.8319 H   0  0  0  0  0  0  0  0  0  0  0  0  # atno 11005 bound_to 11000
  145.6510  141.0263  143.1760 LP  0  0  0  0  0  0  0  0  0  0  0  0  # atno 17320 bound_to 7965
  144.7191  139.8091  143.7388 LP  0  0  0  0  0  0  0  0  0  0  0  0  # atno 17321 bound_to 7965
  140.6935  143.7804  150.7291 LP  0  0  0  0  0  0  0  0  0  0  0  0  # atno 17342 bound_to 10162
  140.1294  143.4540  152.2264 LP  0  0  0  0  0  0  0  0  0  0  0  0  # atno 17343 bound_to 10162
  157.4901  130.7817  149.7499 LP  0  0  0  0  0  0  0  0  0  0  0  0  # atno 17370 bound_to 10713
  155.9959  130.3909  150.2802 LP  0  0  0  0  0  0  0  0  0  0  0  0  # atno 17371 bound_to 10713
  141.0616  134.0337  157.3650 LP  0  0  0  0  0  0  0  0  0  0  0  0  # atno 17394 bound_to 11000
  139.9085  135.0185  156.7591 LP  0  0  0  0  0  0  0  0  0  0  0  0  # atno 17395 bound_to 11000

$$$$
