AV-unprocessed.smi:2263|AV-procd|sdf|9140|dock1
  -GOLD-   2272012343D 1   1.00000     0.00000
 Structure written by MMmdl.
 40 41  0  0  0  0  0  0  0  0  1 V2000
  149.8423  133.6285  153.8761 C   0  0  0  0  0  0  0  0  0  0  0  0
  150.5586  134.6707  154.7284 C   0  0  0  0  0  0  0  0  0  0  0  0
  151.1184  134.3359  155.7719 O   0  0  0  0  0  0  0  0  0  0  0  0
  150.5309  135.9323  154.2733 N   0  0  0  0  0  0  0  0  0  0  0  0
  151.1424  137.0755  154.9411 C   0  0  0  0  0  0  0  0  0  0  0  0
  151.1038  138.3321  154.0569 C   0  0  0  0  0  0  0  0  0  0  0  0
  150.6440  139.5393  154.8026 C   0  0  0  0  0  0  0  0  0  0  0  0
  151.1323  139.9025  155.9915 N   0  0  0  0  0  0  0  0  0  0  0  0
  150.5155  141.0503  156.4992 C   0  0  0  0  0  0  0  0  0  0  0  0
  150.9469  141.6102  157.8207 C   0  0  0  0  0  0  0  0  0  0  0  0
  151.6156  142.9871  157.6799 C   0  0  0  0  0  0  0  0  0  0  0  0
  152.3064  143.4630  158.9705 C   0  0  0  0  0  0  0  0  0  0  0  0
  152.9721  142.3312  159.7593 C   0  0  0  0  0  0  0  0  0  0  0  0
  153.0949  142.8454  161.1998 C   0  0  0  0  0  0  0  0  0  0  0  0
  152.1428  144.0449  161.3158 C   0  0  0  0  0  0  0  0  0  0  0  0
  151.3645  144.0953  159.9988 C   0  0  0  0  0  0  0  0  0  0  0  0
  149.5383  141.5490  155.6741 C   0  0  0  0  0  0  0  0  0  0  0  0
  149.3533  140.5899  154.2318 S   0  0  0  0  0  0  0  0  0  0  0  0
  148.8014  133.9133  153.7195 H   0  0  0  0  0  0  0  0  0  0  0  0
  149.8587  132.6524  154.3623 H   0  0  0  0  0  0  0  0  0  0  0  0
  150.3260  133.5338  152.9036 H   0  0  0  0  0  0  0  0  0  0  0  0
  150.0481  136.1145  153.4054 H   0  0  0  0  0  0  0  0  0  0  0  0
  150.6452  137.2623  155.8945 H   0  0  0  0  0  0  0  0  0  0  0  0
  152.1758  136.8181  155.1757 H   0  0  0  0  0  0  0  0  0  0  0  0
  152.0927  138.5314  153.6420 H   0  0  0  0  0  0  0  0  0  0  0  0
  150.4355  138.1787  153.2089 H   0  0  0  0  0  0  0  0  0  0  0  0
  150.0863  141.6929  158.4855 H   0  0  0  0  0  0  0  0  0  0  0  0
  151.6330  140.9161  158.3069 H   0  0  0  0  0  0  0  0  0  0  0  0
  152.3361  142.9658  156.8609 H   0  0  0  0  0  0  0  0  0  0  0  0
  150.8565  143.7181  157.3980 H   0  0  0  0  0  0  0  0  0  0  0  0
  153.0771  144.1924  158.7150 H   0  0  0  0  0  0  0  0  0  0  0  0
  152.3347  141.4458  159.7476 H   0  0  0  0  0  0  0  0  0  0  0  0
  153.9363  142.0448  159.3380 H   0  0  0  0  0  0  0  0  0  0  0  0
  152.8384  142.0608  161.9129 H   0  0  0  0  0  0  0  0  0  0  0  0
  154.1180  143.1572  161.4135 H   0  0  0  0  0  0  0  0  0  0  0  0
  151.4790  143.9652  162.1771 H   0  0  0  0  0  0  0  0  0  0  0  0
  152.7232  144.9606  161.4346 H   0  0  0  0  0  0  0  0  0  0  0  0
  151.0693  145.1105  159.7326 H   0  0  0  0  0  0  0  0  0  0  0  0
  150.4557  143.4985  160.0891 H   0  0  0  0  0  0  0  0  0  0  0  0
  148.9163  142.4180  155.8284 H   0  0  0  0  0  0  0  0  0  0  0  0
  1  2  1  0  0  0  0
  1 19  1  0  0  0  0
  1 20  1  0  0  0  0
  1 21  1  0  0  0  0
  2  3  2  0  0  0  0
  2  4  1  0  0  0  0
  4  5  1  0  0  0  0
  4 22  1  0  0  0  0
  5  6  1  0  0  0  0
  5 23  1  0  0  0  0
  5 24  1  0  0  0  0
  6  7  1  0  0  0  0
  6 25  1  0  0  0  0
  6 26  1  0  0  0  0
  7 18  1  0  0  0  0
  7  8  2  0  0  0  0
  8  9  1  0  0  0  0
  9 10  1  0  0  0  0
  9 17  2  0  0  0  0
 10 11  1  0  0  0  0
 10 27  1  0  0  0  0
 10 28  1  0  0  0  0
 11 12  1  0  0  0  0
 11 29  1  0  0  0  0
 11 30  1  0  0  0  0
 12 16  1  0  0  0  0
 12 13  1  0  0  0  0
 12 31  1  0  0  0  0
 13 14  1  0  0  0  0
 13 32  1  0  0  0  0
 13 33  1  0  0  0  0
 14 15  1  0  0  0  0
 14 34  1  0  0  0  0
 14 35  1  0  0  0  0
 15 16  1  0  0  0  0
 15 36  1  0  0  0  0
 15 37  1  0  0  0  0
 16 38  1  0  0  0  0
 16 39  1  0  0  0  0
 17 18  1  0  0  0  0
 17 40  1  0  0  0  0
M  END
> <s_m_source_file>
AV-unprocessed.smi

> <i_m_source_file_index>
2263

> <i_lp_mmshare_version>
43012

> <i_f3d_flags>
0

> <s_epik_input>
W0NIM11DKD1PKVtOSF1bQ0gyXVtDSDJdYzFuYyhbY0hdczEpW0NIMl1bQ0gyXVtDSF0yW0NIMl1bQ0gyXVtDSDJdW0NIMl0y

> <s_epik_cmdline>
J2VwaWtfcHl0aG9uJywgJy1waCcsICc3LjAnLCAnLXRuJywgJzgnLCAnLW1hJywgJzIwMCcsICctbWV0YWxfYmluZGluZycsICctaW1hZScsICc8aW5maWxlLm1hZT4nLCAnLW9tYWUnLCAnPG91dGZpbGUubWFlPic=

> <r_epik_Ionization_Penalty>
0.00116713

> <r_epik_Ionization_Penalty_Charging>
0

> <r_epik_Ionization_Penalty_Neutral>
0.00116713

> <r_epik_State_Penalty>
0.000768465

> <r_epik_Charging_Adjusted_Penalty>
0.000768465

> <i_epik_Tot_Q>
0

> <i_epik_Tot_abs_Q>
0

> <r_epik_Metal_State_Penalty>
-0

> <b_epik_Metal_Only>
0

> <s_lp_Force_Field>
OPLS_2005

> <r_lp_Energy>
10.4461

> <b_lp_Chiralities_Consistent>
1

> <s_lp_Variant>
AV-unprocessed.smi:2263-1

> <Gold.Version>
5.8.1

> <Gold.Id.Protein>
6NUR|6NUR_protein|mol2

> <Gold.PLP.Fitness>
48.3403

> <Gold.PLP.PLP>
-43.7774

> <Gold.PLP.part.hbond>
-1.8871

> <Gold.PLP.part.metal>
0.0000

> <Gold.PLP.part.buried>
-3.5391

> <Gold.PLP.part.nonpolar>
-37.4681

> <Gold.PLP.part.repulsive>
0.0875

> <Gold.PLP.ligand.clash>
0.0000

> <Gold.PLP.ligand.torsion>
0.7599

> <Gold.PLP.Chemscore.Hbond>
1.0000

> <Gold.PLP.Chemscore.CHOScore>
1.0000

> <Gold.PLP.Chemscore.Metal>
0.0000

> <Gold.Chemscore.Hbonds>
donor molecule, donor type, donor heavy atom, donor atom, acceptor molecule, acceptor atom, score
      L1  H     4    22       P1  7948  0.45
      L1  C    17    40       P1  8028  1.00

> <Gold.PLP.Chemscore.Internal.Correction>
0.0827

> <Gold.Rescore>
     Score         DG    S(hbond)    S(metal)    S(lipo)     H(rot)  DE(clash)    DE(int)     intcor
     17.49     -18.20       0.90        0.00     122.19       1.80       0.10       0.61       ----

> <Gold.Chemscore.Fitness>
17.4853

> <Gold.Chemscore.DG>
-18.1962

> <Gold.Chemscore.ZeroCoef>
-5.4800

> <Gold.Chemscore.Hbond>
0.9043

> <Gold.Chemscore.Metal>
0.0000

> <Gold.Chemscore.Lipo>
122.1936

> <Gold.Chemscore.Internal_Hbond>
0.0000

> <Gold.Chemscore.DEClash>
0.0994

> <Gold.Chemscore.DEInternal>
0.6115

> <Gold.Chemscore.Rot>
1.7972

> <Gold.Chemscore.Internal.Correction>
   9.000000E+99

> <Gold.Chemscore.Hbonds>
donor molecule, donor type, donor heavy atom, donor atom, acceptor molecule, acceptor atom, score
      L1  H     4    22       P1  7948  0.02

> <Gold.Chemscore.Hbond.Weighted>
-3.0204

> <Gold.Chemscore.Metal.Weighted>
-0.0000

> <Gold.Chemscore.Lipo.Weighted>
-14.2966

> <Gold.Chemscore.Internal_Hbond.Weighted>
0.0000

> <Gold.Chemscore.DEClash.Weighted>
0.0994

> <Gold.Chemscore.DEInternal.Weighted>
0.6115

> <Gold.Chemscore.Rot.Weighted>
4.6008

> <Gold.Chemscore.Internal.Correction.Weighted>
   9.000000E+99

> <Gold.Protein.RotatedTorsions>
[ 6907 6896 6895 6894 ] final  -91.65 input  -60.11 | X-H torsion
[ 7974 7965 7964 7962 ] final -157.35 input  175.53 | X-H torsion
[ 8008 7997 7996 7995 ] final   56.83 input   59.86 | X-H torsion
[ 10167 10162 10161 10158 ] final  -22.48 input  -65.29 | X-H torsion
[ 10718 10713 10712 10709 ] final   60.41 input   66.30 | X-H torsion
[ 10763 10752 10751 10750 ] final   -7.58 input  -60.55 | X-H torsion
[ 11005 11000 10999 10996 ] final  135.85 input  -57.11 | X-H torsion

> <Gold.Protein.ActiveResidues>
 VAL166  LYS551  ARG553  GLY616  TRP617  ASP618  TYR619  PRO620  LYS621  CYS622 
 ASP623  PHE694  ASN695  SER759  ASP760  ASP761  ALA762  ILE779  LEU786  VAL792 
 PHE793  MET794  SER795  GLU796  ALA797  LYS798  CYS799  TRP800  GLU811  SER814 

> <Gold.Protein.RotatedAtoms>
  150.6895  134.2244  159.4409 H   0  0  0  0  0  0  0  0  0  0  0  0  # atno 6907 bound_to 6896
  152.0198  134.9827  160.0579 H   0  0  0  0  0  0  0  0  0  0  0  0  # atno 6908 bound_to 6896
  152.1408  133.4428  159.4803 H   0  0  0  0  0  0  0  0  0  0  0  0  # atno 6909 bound_to 6896
  144.7552  140.3981  143.6018 H   0  0  0  0  0  0  0  0  0  0  0  0  # atno 7974 bound_to 7965
  155.5238  140.3480  155.4412 H   0  0  0  0  0  0  0  0  0  0  0  0  # atno 8008 bound_to 7997
  156.0766  140.1376  156.9791 H   0  0  0  0  0  0  0  0  0  0  0  0  # atno 8009 bound_to 7997
  154.4556  140.0955  156.6724 H   0  0  0  0  0  0  0  0  0  0  0  0  # atno 8010 bound_to 7997
  140.7286  143.4531  151.0488 H   0  0  0  0  0  0  0  0  0  0  0  0  # atno 10167 bound_to 10162
  157.5750  130.8937  149.9332 H   0  0  0  0  0  0  0  0  0  0  0  0  # atno 10718 bound_to 10713
  153.4284  135.7011  153.6247 H   0  0  0  0  0  0  0  0  0  0  0  0  # atno 10763 bound_to 10752
  153.4672  135.3723  155.2371 H   0  0  0  0  0  0  0  0  0  0  0  0  # atno 10764 bound_to 10752
  154.8724  135.4034  154.3664 H   0  0  0  0  0  0  0  0  0  0  0  0  # atno 10765 bound_to 10752
  140.0007  134.9479  157.0065 H   0  0  0  0  0  0  0  0  0  0  0  0  # atno 11005 bound_to 11000
  145.6804  139.1617  143.2704 LP  0  0  0  0  0  0  0  0  0  0  0  0  # atno 17320 bound_to 7965
  146.1553  140.6867  142.9303 LP  0  0  0  0  0  0  0  0  0  0  0  0  # atno 17321 bound_to 7965
  139.8209  143.7822  152.3177 LP  0  0  0  0  0  0  0  0  0  0  0  0  # atno 17342 bound_to 10162
  139.7904  144.7412  150.9963 LP  0  0  0  0  0  0  0  0  0  0  0  0  # atno 17343 bound_to 10162
  156.0795  130.3675  150.0609 LP  0  0  0  0  0  0  0  0  0  0  0  0  # atno 17370 bound_to 10713
  156.8757  130.9539  151.3605 LP  0  0  0  0  0  0  0  0  0  0  0  0  # atno 17371 bound_to 10713
  140.4734  134.1364  155.7206 LP  0  0  0  0  0  0  0  0  0  0  0  0  # atno 17394 bound_to 11000
  141.1639  133.8740  157.1769 LP  0  0  0  0  0  0  0  0  0  0  0  0  # atno 17395 bound_to 11000

$$$$
