AV-unprocessed.smi:1622|AV-procd|sdf|6500|dock3
  -GOLD-   22720 7163D 1   1.00000     0.00000
 Structure written by MMmdl.
 40 41  0  0  0  0  0  0  0  0  3 V2000
  143.5630  135.7626  154.0177 C   0  0  0  0  0  0  0  0  0  0  0  0
  143.8950  136.7889  152.9231 C   0  0  0  0  0  0  0  0  0  0  0  0
  145.4111  137.0675  152.7321 C   0  0  1  0  0  0  0  0  0  0  0  0
  146.0864  137.5740  154.0307 C   0  0  0  0  0  0  0  0  0  0  0  0
  147.5324  137.6877  153.8826 N   0  0  0  0  0  0  0  0  0  0  0  0
  148.3614  138.2504  154.7710 C   0  0  0  0  0  0  0  0  0  0  0  0
  147.9128  138.7156  155.8212 O   0  0  0  0  0  0  0  0  0  0  0  0
  149.6567  138.2404  154.3843 N   0  5  0  0  0  0  0  0  0  0  0  0
  150.6022  138.7526  155.1894 C   0  0  0  0  0  0  0  0  0  0  0  0
  151.7797  139.1945  154.7250 N   0  0  0  0  0  0  0  0  0  0  0  0
  152.6076  139.6876  155.7232 N   0  0  0  0  0  0  0  0  0  0  0  0
  152.0383  139.6190  156.9289 C   0  0  0  0  0  0  0  0  0  0  0  0
  152.7205  140.0864  158.1685 C   0  0  0  0  0  0  0  0  0  0  0  0
  150.4203  138.9375  156.9338 S   0  0  0  0  0  0  0  0  0  0  0  0
  146.1257  135.8811  152.1734 N   0  3  0  0  0  0  0  0  0  0  0  0
  146.2565  134.7281  153.0926 C   0  0  0  0  0  0  0  0  0  0  0  0
  146.5027  133.4948  152.2168 C   0  0  0  0  0  0  0  0  0  0  0  0
  146.1479  133.9232  150.7911 C   0  0  0  0  0  0  0  0  0  0  0  0
  145.5535  135.3246  150.9290 C   0  0  0  0  0  0  0  0  0  0  0  0
  142.4875  135.5928  154.0694 H   0  0  0  0  0  0  0  0  0  0  0  0
  143.8841  136.1072  155.0007 H   0  0  0  0  0  0  0  0  0  0  0  0
  144.0384  134.8010  153.8248 H   0  0  0  0  0  0  0  0  0  0  0  0
  143.4501  136.4619  151.9835 H   0  0  0  0  0  0  0  0  0  0  0  0
  143.3780  137.7203  153.1553 H   0  0  0  0  0  0  0  0  0  0  0  0
  145.4964  137.8657  151.9927 H   0  0  0  0  0  0  0  0  0  0  0  0
  145.6621  138.5361  154.3226 H   0  0  0  0  0  0  0  0  0  0  0  0
  145.9056  136.8876  154.8578 H   0  0  0  0  0  0  0  0  0  0  0  0
  147.9413  137.3159  153.0380 H   0  0  0  0  0  0  0  0  0  0  0  0
  152.8775  141.1642  158.1247 H   0  0  0  0  0  0  0  0  0  0  0  0
  153.6871  139.5933  158.2732 H   0  0  0  0  0  0  0  0  0  0  0  0
  152.1148  139.8564  159.0451 H   0  0  0  0  0  0  0  0  0  0  0  0
  147.0609  134.8771  153.8137 H   0  0  0  0  0  0  0  0  0  0  0  0
  145.3264  134.5962  153.6479 H   0  0  0  0  0  0  0  0  0  0  0  0
  147.5470  133.1841  152.2675 H   0  0  0  0  0  0  0  0  0  0  0  0
  145.8943  132.6527  152.5486 H   0  0  0  0  0  0  0  0  0  0  0  0
  147.0534  133.9621  150.1842 H   0  0  0  0  0  0  0  0  0  0  0  0
  145.4564  133.2324  150.3075 H   0  0  0  0  0  0  0  0  0  0  0  0
  144.4686  135.2556  151.0254 H   0  0  0  0  0  0  0  0  0  0  0  0
  145.7789  135.9425  150.0593 H   0  0  0  0  0  0  0  0  0  0  0  0
  147.0652  136.1752  151.9472 H   0  0  0  0  0  0  0  0  0  0  0  0
  1  2  1  0  0  0  0
  1 20  1  0  0  0  0
  1 21  1  0  0  0  0
  1 22  1  0  0  0  0
  2  3  1  0  0  0  0
  2 23  1  0  0  0  0
  2 24  1  0  0  0  0
  3  4  1  0  0  0  0
  3 15  1  0  0  0  0
  3 25  1  0  0  0  0
  4  5  1  0  0  0  0
  4 26  1  0  0  0  0
  4 27  1  0  0  0  0
  5  6  1  0  0  0  0
  5 28  1  0  0  0  0
  6  7  2  0  0  0  0
  6  8  1  0  0  0  0
  8  9  1  0  0  0  0
  9 14  1  0  0  0  0
  9 10  2  0  0  0  0
 10 11  1  0  0  0  0
 11 12  2  0  0  0  0
 12 13  1  0  0  0  0
 12 14  1  0  0  0  0
 13 29  1  0  0  0  0
 13 30  1  0  0  0  0
 13 31  1  0  0  0  0
 15 19  1  0  0  0  0
 15 16  1  0  0  0  0
 15 40  1  0  0  0  0
 16 17  1  0  0  0  0
 16 32  1  0  0  0  0
 16 33  1  0  0  0  0
 17 18  1  0  0  0  0
 17 34  1  0  0  0  0
 17 35  1  0  0  0  0
 18 19  1  0  0  0  0
 18 36  1  0  0  0  0
 18 37  1  0  0  0  0
 19 38  1  0  0  0  0
 19 39  1  0  0  0  0
M  CHG  1   8  -1
M  CHG  1  15   1
M  END
> <s_m_source_file>
AV-unprocessed.smi

> <i_m_source_file_index>
1622

> <i_lp_mmshare_version>
43012

> <i_f3d_flags>
0

> <s_epik_input>
W0NIMl0xW0NIMl1bQ0gyXVtDSDJdTjFbQ0BIXShbQ0gyXVtDSDNdKVtDSDJdW05IXUMoPU8pW05IXWMybm5jKHMyKVtDSDNd

> <s_epik_cmdline>
J2VwaWtfcHl0aG9uJywgJy1waCcsICc3LjAnLCAnLXRuJywgJzgnLCAnLW1hJywgJzIwMCcsICctbWV0YWxfYmluZGluZycsICctaW1hZScsICc8aW5maWxlLm1hZT4nLCAnLW9tYWUnLCAnPG91dGZpbGUubWFlPic=

> <r_lp_tautomer_probability>
1

> <r_epik_Ionization_Penalty>
4.34497

> <r_epik_Ionization_Penalty_Charging>
4.23453

> <r_epik_Ionization_Penalty_Neutral>
0.110433

> <r_epik_State_Penalty>
4.23293

> <r_epik_Charging_Adjusted_Penalty>
8.46746

> <i_epik_Tot_Q>
0

> <i_epik_Tot_abs_Q>
2

> <r_epik_Metal_State_Penalty>
0.701092

> <b_epik_Metal_Only>
1

> <s_lp_Force_Field>
OPLS_2005

> <r_lp_Energy>
26.9801

> <b_lp_Chiralities_Consistent>
1

> <s_lp_Variant>
AV-unprocessed.smi:1622-4

> <Gold.Version>
5.8.1

> <Gold.Id.Protein>
6NUR|6NUR_protein|mol2

> <Gold.PLP.Fitness>
39.7812

> <Gold.PLP.PLP>
-25.1449

> <Gold.PLP.part.hbond>
-4.0863

> <Gold.PLP.part.metal>
0.0000

> <Gold.PLP.part.buried>
-3.0967

> <Gold.PLP.part.nonpolar>
-16.6346

> <Gold.PLP.part.repulsive>
0.3268

> <Gold.PLP.ligand.clash>
0.0000

> <Gold.PLP.ligand.torsion>
0.2598

> <Gold.PLP.Chemscore.Hbond>
5.0000

> <Gold.PLP.Chemscore.CHOScore>
0.0000

> <Gold.PLP.Chemscore.Metal>
0.0000

> <Gold.Chemscore.Hbonds>
donor molecule, donor type, donor heavy atom, donor atom, acceptor molecule, acceptor atom, score
      L1  H     5    28       P1  7948  1.00
      L1  H    15    40       P1  7948  2.00
      P1  H  7989  7998       L1    10  0.91
      P1  H  7997  8010       L1    11  0.90

> <Gold.PLP.Chemscore.Internal.Correction>
0.1559

> <Gold.Rescore>
     Score         DG    S(hbond)    S(metal)    S(lipo)     H(rot)  DE(clash)    DE(int)     intcor
     17.11     -18.95       3.68        0.00      48.17       1.73       0.12       1.72       ----

> <Gold.Chemscore.Fitness>
17.1126

> <Gold.Chemscore.DG>
-18.9532

> <Gold.Chemscore.ZeroCoef>
-5.4800

> <Gold.Chemscore.Hbond>
3.6763

> <Gold.Chemscore.Metal>
0.0000

> <Gold.Chemscore.Lipo>
48.1676

> <Gold.Chemscore.Internal_Hbond>
0.0000

> <Gold.Chemscore.DEClash>
0.1205

> <Gold.Chemscore.DEInternal>
1.7201

> <Gold.Chemscore.Rot>
1.7348

> <Gold.Chemscore.Internal.Correction>
   9.000000E+99

> <Gold.Chemscore.Hbonds>
donor molecule, donor type, donor heavy atom, donor atom, acceptor molecule, acceptor atom, score
      L1  H     5    28       P1  7948  1.00
      L1  H    15    40       P1  7948  1.00
      P1  H  7989  7998       L1    10  0.19
      P1  H  7997  8010       L1    11  0.18

> <Gold.Chemscore.Hbond.Weighted>
-12.2787

> <Gold.Chemscore.Metal.Weighted>
-0.0000

> <Gold.Chemscore.Lipo.Weighted>
-5.6356

> <Gold.Chemscore.Internal_Hbond.Weighted>
0.0000

> <Gold.Chemscore.DEClash.Weighted>
0.1205

> <Gold.Chemscore.DEInternal.Weighted>
1.7201

> <Gold.Chemscore.Rot.Weighted>
4.4411

> <Gold.Chemscore.Internal.Correction.Weighted>
   9.000000E+99

> <Gold.Protein.RotatedTorsions>
[ 6907 6896 6895 6894 ] final  155.92 input  -60.11 | X-H torsion
[ 7974 7965 7964 7962 ] final  111.70 input  175.53 | X-H torsion
[ 8008 7997 7996 7995 ] final   80.18 input   59.86 | X-H torsion
[ 10167 10162 10161 10158 ] final  -53.71 input  -65.29 | X-H torsion
[ 10718 10713 10712 10709 ] final   95.23 input   66.30 | X-H torsion
[ 10763 10752 10751 10750 ] final  -56.42 input  -60.55 | X-H torsion
[ 11005 11000 10999 10996 ] final  -66.87 input  -57.11 | X-H torsion

> <Gold.Protein.ActiveResidues>
 VAL166  LYS551  ARG553  GLY616  TRP617  ASP618  TYR619  PRO620  LYS621  CYS622 
 ASP623  PHE694  ASN695  SER759  ASP760  ASP761  ALA762  ILE779  LEU786  VAL792 
 PHE793  MET794  SER795  GLU796  ALA797  LYS798  CYS799  TRP800  GLU811  SER814 

> <Gold.Protein.RotatedAtoms>
  152.0372  133.3962  159.4321 H   0  0  0  0  0  0  0  0  0  0  0  0  # atno 6907 bound_to 6896
  150.6878  134.3455  159.4896 H   0  0  0  0  0  0  0  0  0  0  0  0  # atno 6908 bound_to 6896
  152.1249  134.9178  160.0612 H   0  0  0  0  0  0  0  0  0  0  0  0  # atno 6909 bound_to 6896
  145.2389  139.2787  143.4128 H   0  0  0  0  0  0  0  0  0  0  0  0  # atno 7974 bound_to 7965
  155.8800  140.3444  155.5881 H   0  0  0  0  0  0  0  0  0  0  0  0  # atno 8008 bound_to 7997
  155.7731  140.0848  157.2117 H   0  0  0  0  0  0  0  0  0  0  0  0  # atno 8009 bound_to 7997
  154.4024  140.1514  156.2952 H   0  0  0  0  0  0  0  0  0  0  0  0  # atno 8010 bound_to 7997
  140.6470  143.2541  151.4832 H   0  0  0  0  0  0  0  0  0  0  0  0  # atno 10167 bound_to 10162
  157.6941  131.0539  150.4307 H   0  0  0  0  0  0  0  0  0  0  0  0  # atno 10718 bound_to 10713
  154.2064  135.6402  153.5102 H   0  0  0  0  0  0  0  0  0  0  0  0  # atno 10763 bound_to 10752
  153.0000  135.5463  154.6261 H   0  0  0  0  0  0  0  0  0  0  0  0  # atno 10764 bound_to 10752
  154.5687  135.2915  155.0822 H   0  0  0  0  0  0  0  0  0  0  0  0  # atno 10765 bound_to 10752
  141.1493  133.6708  156.6206 H   0  0  0  0  0  0  0  0  0  0  0  0  # atno 11005 bound_to 11000
  146.3334  140.2746  142.8607 LP  0  0  0  0  0  0  0  0  0  0  0  0  # atno 17320 bound_to 7965
  144.9608  140.8273  143.5515 LP  0  0  0  0  0  0  0  0  0  0  0  0  # atno 17321 bound_to 7965
  139.5681  144.1993  152.1796 LP  0  0  0  0  0  0  0  0  0  0  0  0  # atno 17342 bound_to 10162
  140.1281  144.5313  150.6820 LP  0  0  0  0  0  0  0  0  0  0  0  0  # atno 17343 bound_to 10162
  156.4674  130.4045  149.6539 LP  0  0  0  0  0  0  0  0  0  0  0  0  # atno 17370 bound_to 10713
  156.3632  130.7492  151.2466 LP  0  0  0  0  0  0  0  0  0  0  0  0  # atno 17371 bound_to 10713
  140.3543  134.7742  157.4489 LP  0  0  0  0  0  0  0  0  0  0  0  0  # atno 17394 bound_to 11000
  140.0835  134.5698  155.8516 LP  0  0  0  0  0  0  0  0  0  0  0  0  # atno 17395 bound_to 11000

$$$$
