AV-unprocessed.smi:227|AV-procd|sdf|1741|dock1
  -GOLD-   2262020243D 1   1.00000     0.00000
 Structure written by MMmdl.
 54 58  0  0  0  0  0  0  0  0  1 V2000
  151.6369  133.0872  156.1933 O   0  0  0  0  0  0  0  0  0  0  0  0
  151.2817  131.7436  155.9415 C   0  0  0  0  0  0  0  0  0  0  0  0
  151.6767  131.3234  154.5057 C   0  0  2  0  0  0  0  0  0  0  0  0
  150.6748  130.3066  153.8923 C   0  0  0  0  0  0  0  0  0  0  0  0
  149.4860  130.9130  153.3100 N   0  0  0  0  0  0  0  0  0  0  0  0
  149.3799  132.1735  152.7687 C   0  0  0  0  0  0  0  0  0  0  0  0
  148.2004  132.4824  152.3070 N   0  0  0  0  0  0  0  0  0  0  0  0
  147.4224  131.3573  152.5554 C   0  0  0  0  0  0  0  0  0  0  0  0
  146.0608  131.0041  152.3129 C   0  0  0  0  0  0  0  0  0  0  0  0
  145.1441  131.8067  151.7027 N   0  0  0  0  0  0  0  0  0  0  0  0
  145.5017  133.1258  151.2005 C   0  0  1  0  0  0  0  0  0  0  0  0
  146.3385  132.8293  149.9405 C   0  0  0  0  0  0  0  0  0  0  0  0
  145.6446  131.5635  149.4147 C   0  0  0  0  0  0  0  0  0  0  0  0
  144.5187  131.3765  150.4582 C   0  0  2  0  0  0  0  0  0  0  0  0
  143.4055  132.4364  150.2958 C   0  0  2  0  0  0  0  0  0  0  0  0
  142.7352  132.5584  148.9140 C   0  0  0  0  0  0  0  0  0  0  0  0
  143.3431  133.5862  148.1612 O   0  0  0  0  0  0  0  0  0  0  0  0
  144.1414  133.7025  150.7678 C   0  0  0  0  0  0  0  0  0  0  0  0
  145.6519  129.7825  152.7477 N   0  0  0  0  0  0  0  0  0  0  0  0
  146.5053  128.9533  153.3529 C   0  0  0  0  0  0  0  0  0  0  0  0
  147.7962  129.1417  153.6260 N   0  0  0  0  0  0  0  0  0  0  0  0
  148.2171  130.3682  153.2054 C   0  0  0  0  0  0  0  0  0  0  0  0
  153.1420  130.8154  154.4558 C   0  0  1  0  0  0  0  0  0  0  0  0
  154.1078  131.5758  155.3494 C   0  0  0  0  0  0  0  0  0  0  0  0
  155.2839  130.6115  155.4474 C   0  0  0  0  0  0  0  0  0  0  0  0
  154.7137  129.3094  155.3929 O   0  0  0  0  0  0  0  0  0  0  0  0
  153.3512  129.3917  154.9860 C   0  0  0  0  0  0  0  0  0  0  0  0
  151.0860  133.6466  155.6661 H   0  0  0  0  0  0  0  0  0  0  0  0
  151.8017  131.1366  156.6818 H   0  0  0  0  0  0  0  0  0  0  0  0
  150.2146  131.6079  156.1190 H   0  0  0  0  0  0  0  0  0  0  0  0
  151.6308  132.2208  153.8867 H   0  0  0  0  0  0  0  0  0  0  0  0
  151.1690  129.7182  153.1187 H   0  0  0  0  0  0  0  0  0  0  0  0
  150.3558  129.5818  154.6411 H   0  0  0  0  0  0  0  0  0  0  0  0
  150.2094  132.8630  152.7201 H   0  0  0  0  0  0  0  0  0  0  0  0
  146.0018  133.7841  151.9082 H   0  0  0  0  0  0  0  0  0  0  0  0
  146.3257  133.6505  149.2230 H   0  0  0  0  0  0  0  0  0  0  0  0
  147.3778  132.6205  150.1978 H   0  0  0  0  0  0  0  0  0  0  0  0
  145.2888  131.6593  148.3903 H   0  0  0  0  0  0  0  0  0  0  0  0
  146.3344  130.7190  149.4381 H   0  0  0  0  0  0  0  0  0  0  0  0
  144.1170  130.3628  150.4772 H   0  0  0  0  0  0  0  0  0  0  0  0
  142.6251  132.2104  151.0251 H   0  0  0  0  0  0  0  0  0  0  0  0
  142.8456  131.6217  148.3669 H   0  0  0  0  0  0  0  0  0  0  0  0
  141.6648  132.7447  148.9922 H   0  0  0  0  0  0  0  0  0  0  0  0
  144.2004  133.2943  147.8910 H   0  0  0  0  0  0  0  0  0  0  0  0
  143.6197  134.1549  151.6121 H   0  0  0  0  0  0  0  0  0  0  0  0
  144.2417  134.4611  149.9906 H   0  0  0  0  0  0  0  0  0  0  0  0
  146.0945  128.0033  153.6615 H   0  0  0  0  0  0  0  0  0  0  0  0
  153.5112  130.8489  153.4300 H   0  0  0  0  0  0  0  0  0  0  0  0
  154.4016  132.5470  154.9529 H   0  0  0  0  0  0  0  0  0  0  0  0
  153.6707  131.7313  156.3368 H   0  0  0  0  0  0  0  0  0  0  0  0
  155.9495  130.7357  154.5923 H   0  0  0  0  0  0  0  0  0  0  0  0
  155.8682  130.7554  156.3564 H   0  0  0  0  0  0  0  0  0  0  0  0
  152.7230  129.2064  155.8586 H   0  0  0  0  0  0  0  0  0  0  0  0
  153.1247  128.6302  154.2395 H   0  0  0  0  0  0  0  0  0  0  0  0
  1  2  1  0  0  0  0
  1 28  1  0  0  0  0
  2  3  1  0  0  0  0
  2 29  1  0  0  0  0
  2 30  1  0  0  0  0
  3  4  1  0  0  0  0
  3 23  1  0  0  0  0
  3 31  1  0  0  0  0
  4  5  1  0  0  0  0
  4 32  1  0  0  0  0
  4 33  1  0  0  0  0
  5 22  1  0  0  0  0
  5  6  1  0  0  0  0
  6  7  2  0  0  0  0
  6 34  1  0  0  0  0
  7  8  1  0  0  0  0
  8 22  2  0  0  0  0
  8  9  1  0  0  0  0
  9 10  1  0  0  0  0
  9 19  2  0  0  0  0
 10 14  1  0  0  0  0
 10 11  1  0  0  0  0
 11 18  1  0  0  0  0
 11 12  1  0  0  0  0
 11 35  1  0  0  0  0
 12 13  1  0  0  0  0
 12 36  1  0  0  0  0
 12 37  1  0  0  0  0
 13 14  1  0  0  0  0
 13 38  1  0  0  0  0
 13 39  1  0  0  0  0
 14 15  1  0  0  0  0
 14 40  1  0  0  0  0
 15 16  1  0  0  0  0
 15 18  1  0  0  0  0
 15 41  1  0  0  0  0
 16 17  1  0  0  0  0
 16 42  1  0  0  0  0
 16 43  1  0  0  0  0
 17 44  1  0  0  0  0
 18 45  1  0  0  0  0
 18 46  1  0  0  0  0
 19 20  1  0  0  0  0
 20 21  2  0  0  0  0
 20 47  1  0  0  0  0
 21 22  1  0  0  0  0
 23 27  1  0  0  0  0
 23 24  1  0  0  0  0
 23 48  1  0  0  0  0
 24 25  1  0  0  0  0
 24 49  1  0  0  0  0
 24 50  1  0  0  0  0
 25 26  1  0  0  0  0
 25 51  1  0  0  0  0
 25 52  1  0  0  0  0
 26 27  1  0  0  0  0
 27 53  1  0  0  0  0
 27 54  1  0  0  0  0
M  END
> <s_m_source_file>
AV-unprocessed.smi

> <i_m_source_file_index>
227

> <i_lp_mmshare_version>
43012

> <i_f3d_flags>
0

> <s_epik_input>
W0NIMl0xT1tDSDJdW0NIMl1bQ0BIXTFbQ0BIXShbQ0gyXVtPSF0pW0NIMl1uKFtjSF1uMiljKGMyMyluW2NIXW5jM04oW0NASF00NSlbQ0BASF0oW0NIMl1bQ0gyXTQpW0NASF0oW0NIMl01KVtDSDJdW09IXQ==

> <s_epik_cmdline>
J2VwaWtfcHl0aG9uJywgJy1waCcsICc3LjAnLCAnLXRuJywgJzgnLCAnLW1hJywgJzIwMCcsICctbWV0YWxfYmluZGluZycsICctaW1hZScsICc8aW5maWxlLm1hZT4nLCAnLW9tYWUnLCAnPG91dGZpbGUubWFlPic=

> <r_lp_tautomer_probability>
1

> <r_epik_Ionization_Penalty>
0.0055791

> <r_epik_Ionization_Penalty_Charging>
0

> <r_epik_Ionization_Penalty_Neutral>
0.0055791

> <r_epik_State_Penalty>
0.00401299

> <r_epik_Charging_Adjusted_Penalty>
0.00401299

> <i_epik_Tot_Q>
0

> <i_epik_Tot_abs_Q>
0

> <r_epik_Metal_State_Penalty>
-0

> <b_epik_Metal_Only>
0

> <s_lp_Force_Field>
OPLS_2005

> <r_lp_Energy>
87.7083

> <b_lp_Chiralities_Consistent>
1

> <s_lp_Variant>
AV-unprocessed.smi:227-15

> <Gold.Version>
5.8.1

> <Gold.Id.Protein>
6NUR|6NUR_protein|mol2

> <Gold.PLP.Fitness>
47.6444

> <Gold.PLP.PLP>
-45.5467

> <Gold.PLP.part.hbond>
-3.0000

> <Gold.PLP.part.metal>
0.0000

> <Gold.PLP.part.buried>
-3.8670

> <Gold.PLP.part.nonpolar>
-39.5696

> <Gold.PLP.part.repulsive>
0.5217

> <Gold.PLP.ligand.clash>
0.7768

> <Gold.PLP.ligand.torsion>
1.8253

> <Gold.PLP.Chemscore.Hbond>
2.0270

> <Gold.PLP.Chemscore.CHOScore>
0.0000

> <Gold.PLP.Chemscore.Metal>
0.0000

> <Gold.Chemscore.Hbonds>
donor molecule, donor type, donor heavy atom, donor atom, acceptor molecule, acceptor atom, score
      P1  H 10192 10197       L1    17  0.34

> <Gold.PLP.Chemscore.Internal.Correction>
0.4441

> <Gold.Rescore>
     Score         DG    S(hbond)    S(metal)    S(lipo)     H(rot)  DE(clash)    DE(int)     intcor
     12.77     -17.79       2.79        0.00     104.62       3.61       1.52       3.51       ----

> <Gold.Chemscore.Fitness>
12.7673

> <Gold.Chemscore.DG>
-17.7943

> <Gold.Chemscore.ZeroCoef>
-5.4800

> <Gold.Chemscore.Hbond>
2.7866

> <Gold.Chemscore.Metal>
0.0000

> <Gold.Chemscore.Lipo>
104.6249

> <Gold.Chemscore.Internal_Hbond>
0.0000

> <Gold.Chemscore.DEClash>
1.5163

> <Gold.Chemscore.DEInternal>
3.5107

> <Gold.Chemscore.Rot>
3.6071

> <Gold.Chemscore.Internal.Correction>
   9.000000E+99

> <Gold.Chemscore.Hbonds>
donor molecule, donor type, donor heavy atom, donor atom, acceptor molecule, acceptor atom, score
      L1  H    17    44       P1  7921  0.02
      P1  H 10192 10197       L1    17  0.34

> <Gold.Chemscore.Hbond.Weighted>
-9.3074

> <Gold.Chemscore.Metal.Weighted>
-0.0000

> <Gold.Chemscore.Lipo.Weighted>
-12.2411

> <Gold.Chemscore.Internal_Hbond.Weighted>
0.0000

> <Gold.Chemscore.DEClash.Weighted>
1.5163

> <Gold.Chemscore.DEInternal.Weighted>
3.5107

> <Gold.Chemscore.Rot.Weighted>
9.2342

> <Gold.Chemscore.Internal.Correction.Weighted>
   9.000000E+99

> <Gold.Protein.RotatedTorsions>
[ 6907 6896 6895 6894 ] final  -23.14 input  -60.11 | X-H torsion
[ 7974 7965 7964 7962 ] final  -27.00 input  175.53 | X-H torsion
[ 8008 7997 7996 7995 ] final    2.66 input   59.86 | X-H torsion
[ 10167 10162 10161 10158 ] final   -7.17 input  -65.29 | X-H torsion
[ 10718 10713 10712 10709 ] final -127.27 input   66.30 | X-H torsion
[ 10763 10752 10751 10750 ] final  -99.30 input  -60.55 | X-H torsion
[ 11005 11000 10999 10996 ] final -175.18 input  -57.11 | X-H torsion

> <Gold.Protein.ActiveResidues>
 VAL166  LYS551  ARG553  GLY616  TRP617  ASP618  TYR619  PRO620  LYS621  CYS622 
 ASP623  PHE694  ASN695  SER759  ASP760  ASP761  ALA762  ILE779  LEU786  VAL792 
 PHE793  MET794  SER795  GLU796  ALA797  LYS798  CYS799  TRP800  GLU811  SER814 

> <Gold.Protein.RotatedAtoms>
  151.2084  135.0471  159.8900 H   0  0  0  0  0  0  0  0  0  0  0  0  # atno 6907 bound_to 6896
  152.5427  134.0773  159.8230 H   0  0  0  0  0  0  0  0  0  0  0  0  # atno 6908 bound_to 6896
  151.0922  133.5259  159.2646 H   0  0  0  0  0  0  0  0  0  0  0  0  # atno 6909 bound_to 6896
  146.1388  140.5094  142.8661 H   0  0  0  0  0  0  0  0  0  0  0  0  # atno 7974 bound_to 7965
  154.6942  140.2659  155.6782 H   0  0  0  0  0  0  0  0  0  0  0  0  # atno 8008 bound_to 7997
  156.2743  140.2785  156.1454 H   0  0  0  0  0  0  0  0  0  0  0  0  # atno 8009 bound_to 7997
  155.0854  140.0373  157.2642 H   0  0  0  0  0  0  0  0  0  0  0  0  # atno 8010 bound_to 7997
  140.7020  143.6111  150.8703 H   0  0  0  0  0  0  0  0  0  0  0  0  # atno 10167 bound_to 10162
  156.1842  130.6752  151.0343 H   0  0  0  0  0  0  0  0  0  0  0  0  # atno 10718 bound_to 10713
  154.7486  135.4977  153.9248 H   0  0  0  0  0  0  0  0  0  0  0  0  # atno 10763 bound_to 10752
  153.1119  135.6711  153.9494 H   0  0  0  0  0  0  0  0  0  0  0  0  # atno 10764 bound_to 10752
  153.9251  135.3084  155.3426 H   0  0  0  0  0  0  0  0  0  0  0  0  # atno 10765 bound_to 10752
  140.4662  134.6208  157.4863 H   0  0  0  0  0  0  0  0  0  0  0  0  # atno 11005 bound_to 11000
  144.7769  140.5758  143.6632 LP  0  0  0  0  0  0  0  0  0  0  0  0  # atno 17320 bound_to 7965
  145.5095  139.1480  143.3612 LP  0  0  0  0  0  0  0  0  0  0  0  0  # atno 17321 bound_to 7965
  139.9834  143.5926  152.2935 LP  0  0  0  0  0  0  0  0  0  0  0  0  # atno 17342 bound_to 10162
  139.6555  144.7662  151.2064 LP  0  0  0  0  0  0  0  0  0  0  0  0  # atno 17343 bound_to 10162
  157.6888  131.0816  150.7167 LP  0  0  0  0  0  0  0  0  0  0  0  0  # atno 17370 bound_to 10713
  156.7224  130.4684  149.5519 LP  0  0  0  0  0  0  0  0  0  0  0  0  # atno 17371 bound_to 10713
  139.9914  134.6979  155.9683 LP  0  0  0  0  0  0  0  0  0  0  0  0  # atno 17394 bound_to 11000
  141.1598  133.6539  156.4282 LP  0  0  0  0  0  0  0  0  0  0  0  0  # atno 17395 bound_to 11000

$$$$
