AV-unprocessed.smi:1171|AV-procd|sdf|4942|dock8
  -GOLD-   22720 3523D 1   1.00000     0.00000
 Structure written by MMmdl.
 32 33  0  0  0  0  0  0  0  0  1 V2000
  153.5589  141.2049  159.8273 C   0  0  0  0  0  0  0  0  0  0  0  0
  152.5989  141.3075  158.6793 C   0  0  0  0  0  0  0  0  0  0  0  0
  151.4452  142.1376  158.5708 C   0  0  0  0  0  0  0  0  0  0  0  0
  150.9628  141.8209  157.3306 C   0  0  0  0  0  0  0  0  0  0  0  0
  149.8801  142.3236  156.6807 N   0  0  0  0  0  0  0  0  0  0  0  0
  148.8976  141.6642  156.0356 C   0  0  0  0  0  0  0  0  0  0  0  0
  148.8662  140.4470  155.8654 O   0  0  0  0  0  0  0  0  0  0  0  0
  147.9374  142.4597  155.5298 N   0  0  0  0  0  0  0  0  0  0  0  0
  146.7674  142.0765  154.7964 C   0  0  0  0  0  0  0  0  0  0  0  0
  146.6960  142.4943  153.3435 C   0  0  0  0  0  0  0  0  0  0  0  0
  145.8153  143.1688  154.3589 C   0  0  0  0  0  0  0  0  0  0  0  0
  151.7836  140.8722  156.7620 N   0  0  0  0  0  0  0  0  0  0  0  0
  151.7002  140.2367  155.4605 C   0  0  0  0  0  0  0  0  0  0  0  0
  152.7563  139.1370  155.3113 C   0  0  0  0  0  0  0  0  0  0  0  0
  152.2730  137.9953  154.5216 C   0  0  0  0  0  0  0  0  0  0  0  0
  151.8934  137.0963  153.9004 N   0  0  0  0  0  0  0  0  0  0  0  0
  152.7963  140.5602  157.5990 N   0  0  0  0  0  0  0  0  0  0  0  0
  153.3068  141.9132  160.6167 H   0  0  0  0  0  0  0  0  0  0  0  0
  154.5793  141.4158  159.5063 H   0  0  0  0  0  0  0  0  0  0  0  0
  153.5445  140.2050  160.2619 H   0  0  0  0  0  0  0  0  0  0  0  0
  151.0585  142.8434  159.2906 H   0  0  0  0  0  0  0  0  0  0  0  0
  149.7999  143.3296  156.6922 H   0  0  0  0  0  0  0  0  0  0  0  0
  148.0899  143.4542  155.6175 H   0  0  0  0  0  0  0  0  0  0  0  0
  146.3253  141.1050  155.0133 H   0  0  0  0  0  0  0  0  0  0  0  0
  147.5245  143.0711  152.9360 H   0  0  0  0  0  0  0  0  0  0  0  0
  146.2213  141.8065  152.6465 H   0  0  0  0  0  0  0  0  0  0  0  0
  144.7536  142.9304  154.3407 H   0  0  0  0  0  0  0  0  0  0  0  0
  146.0570  144.1947  154.6311 H   0  0  0  0  0  0  0  0  0  0  0  0
  150.6995  139.8221  155.3294 H   0  0  0  0  0  0  0  0  0  0  0  0
  151.8290  140.9974  154.6897 H   0  0  0  0  0  0  0  0  0  0  0  0
  153.6485  139.5272  154.8207 H   0  0  0  0  0  0  0  0  0  0  0  0
  153.0602  138.7647  156.2899 H   0  0  0  0  0  0  0  0  0  0  0  0
  1  2  1  0  0  0  0
  1 18  1  0  0  0  0
  1 19  1  0  0  0  0
  1 20  1  0  0  0  0
  2 17  2  0  0  0  0
  2  3  1  0  0  0  0
  3  4  2  0  0  0  0
  3 21  1  0  0  0  0
  4  5  1  0  0  0  0
  4 12  1  0  0  0  0
  5  6  1  0  0  0  0
  5 22  1  0  0  0  0
  6  7  2  0  0  0  0
  6  8  1  0  0  0  0
  8  9  1  0  0  0  0
  8 23  1  0  0  0  0
  9 11  1  0  0  0  0
  9 10  1  0  0  0  0
  9 24  1  0  0  0  0
 10 11  1  0  0  0  0
 10 25  1  0  0  0  0
 10 26  1  0  0  0  0
 11 27  1  0  0  0  0
 11 28  1  0  0  0  0
 12 13  1  0  0  0  0
 12 17  1  0  0  0  0
 13 14  1  0  0  0  0
 13 29  1  0  0  0  0
 13 30  1  0  0  0  0
 14 15  1  0  0  0  0
 14 31  1  0  0  0  0
 14 32  1  0  0  0  0
 15 16  3  0  0  0  0
M  END
> <s_m_source_file>
AV-unprocessed.smi

> <i_m_source_file_index>
1171

> <i_lp_mmshare_version>
43012

> <i_f3d_flags>
0

> <s_epik_input>
TiNDW0NIMl1bQ0gyXW4objEpYyhbY0hdYzFbQ0gzXSlbTkhdQyg9TylbTkhdW0NIXTJbQ0gyXVtDSDJdMg==

> <s_epik_cmdline>
J2VwaWtfcHl0aG9uJywgJy1waCcsICc3LjAnLCAnLXRuJywgJzgnLCAnLW1hJywgJzIwMCcsICctbWV0YWxfYmluZGluZycsICctaW1hZScsICc8aW5maWxlLm1hZT4nLCAnLW9tYWUnLCAnPG91dGZpbGUubWFlPic=

> <r_lp_tautomer_probability>
1

> <r_epik_Ionization_Penalty>
3.70036e-05

> <r_epik_Ionization_Penalty_Charging>
0

> <r_epik_Ionization_Penalty_Neutral>
3.70036e-05

> <r_epik_State_Penalty>
-0

> <r_epik_Charging_Adjusted_Penalty>
0

> <i_epik_Tot_Q>
0

> <i_epik_Tot_abs_Q>
0

> <r_epik_Metal_State_Penalty>
-0

> <b_epik_Metal_Only>
0

> <s_lp_Force_Field>
OPLS_2005

> <r_lp_Energy>
27.1595

> <b_lp_Chiralities_Consistent>
1

> <s_lp_Variant>
AV-unprocessed.smi:1171-1

> <Gold.Version>
5.8.1

> <Gold.Id.Protein>
6NUR|6NUR_protein|mol2

> <Gold.PLP.Fitness>
40.8076

> <Gold.PLP.PLP>
-31.2687

> <Gold.PLP.part.hbond>
-4.0000

> <Gold.PLP.part.metal>
0.0000

> <Gold.PLP.part.buried>
-1.3456

> <Gold.PLP.part.nonpolar>
-25.3396

> <Gold.PLP.part.repulsive>
0.9178

> <Gold.PLP.ligand.clash>
0.0000

> <Gold.PLP.ligand.torsion>
0.7145

> <Gold.PLP.Chemscore.Hbond>
3.6406

> <Gold.PLP.Chemscore.CHOScore>
0.0000

> <Gold.PLP.Chemscore.Metal>
0.0000

> <Gold.Chemscore.Hbonds>
donor molecule, donor type, donor heavy atom, donor atom, acceptor molecule, acceptor atom, score
      L1  H     5    22       P1  8028  0.77
      L1  H     8    23       P1  8028  0.84
      P1  H  7997  8010       L1    17  0.78
      P1  H 10752 10765       L1    16  1.00

> <Gold.PLP.Chemscore.Internal.Correction>
0.0461

> <Gold.Rescore>
     Score         DG    S(hbond)    S(metal)    S(lipo)     H(rot)  DE(clash)    DE(int)     intcor
     17.66     -18.53       3.07        0.00      59.13       1.61       0.22       0.65       ----

> <Gold.Chemscore.Fitness>
17.6639

> <Gold.Chemscore.DG>
-18.5326

> <Gold.Chemscore.ZeroCoef>
-5.4800

> <Gold.Chemscore.Hbond>
3.0673

> <Gold.Chemscore.Metal>
0.0000

> <Gold.Chemscore.Lipo>
59.1282

> <Gold.Chemscore.Internal_Hbond>
0.0000

> <Gold.Chemscore.DEClash>
0.2218

> <Gold.Chemscore.DEInternal>
0.6469

> <Gold.Chemscore.Rot>
1.6056

> <Gold.Chemscore.Internal.Correction>
   9.000000E+99

> <Gold.Chemscore.Hbonds>
donor molecule, donor type, donor heavy atom, donor atom, acceptor molecule, acceptor atom, score
      L1  H     5    22       P1  8028  0.75
      L1  H     8    23       P1  8028  0.49
      P1  H  7997  8010       L1    17  0.74
      P1  H 10752 10765       L1    16  0.78

> <Gold.Chemscore.Hbond.Weighted>
-10.2449

> <Gold.Chemscore.Metal.Weighted>
-0.0000

> <Gold.Chemscore.Lipo.Weighted>
-6.9180

> <Gold.Chemscore.Internal_Hbond.Weighted>
0.0000

> <Gold.Chemscore.DEClash.Weighted>
0.2218

> <Gold.Chemscore.DEInternal.Weighted>
0.6469

> <Gold.Chemscore.Rot.Weighted>
4.1102

> <Gold.Chemscore.Internal.Correction.Weighted>
   9.000000E+99

> <Gold.Protein.RotatedTorsions>
[ 6907 6896 6895 6894 ] final  -30.92 input  -60.11 | X-H torsion
[ 7974 7965 7964 7962 ] final  159.80 input  175.53 | X-H torsion
[ 8008 7997 7996 7995 ] final   47.15 input   59.86 | X-H torsion
[ 10167 10162 10161 10158 ] final  139.23 input  -65.29 | X-H torsion
[ 10718 10713 10712 10709 ] final   22.33 input   66.30 | X-H torsion
[ 10763 10752 10751 10750 ] final  145.22 input  -60.55 | X-H torsion
[ 11005 11000 10999 10996 ] final  121.07 input  -57.11 | X-H torsion

> <Gold.Protein.ActiveResidues>
 VAL166  LYS551  ARG553  GLY616  TRP617  ASP618  TYR619  PRO620  LYS621  CYS622 
 ASP623  PHE694  ASN695  SER759  ASP760  ASP761  ALA762  ILE779  LEU786  VAL792 
 PHE793  MET794  SER795  GLU796  ALA797  LYS798  CYS799  TRP800  GLU811  SER814 

> <Gold.Protein.RotatedAtoms>
  151.0991  134.9962  159.8439 H   0  0  0  0  0  0  0  0  0  0  0  0  # atno 6907 bound_to 6896
  152.5435  134.1972  159.8707 H   0  0  0  0  0  0  0  0  0  0  0  0  # atno 6908 bound_to 6896
  151.2014  133.4565  159.2629 H   0  0  0  0  0  0  0  0  0  0  0  0  # atno 6909 bound_to 6896
  144.7771  139.7667  143.6274 H   0  0  0  0  0  0  0  0  0  0  0  0  # atno 7974 bound_to 7965
  155.3643  140.3420  155.4241 H   0  0  0  0  0  0  0  0  0  0  0  0  # atno 8008 bound_to 7997
  156.1697  140.1627  156.8504 H   0  0  0  0  0  0  0  0  0  0  0  0  # atno 8009 bound_to 7997
  154.5220  140.0764  156.8172 H   0  0  0  0  0  0  0  0  0  0  0  0  # atno 8010 bound_to 7997
  139.5085  144.6307  151.5825 H   0  0  0  0  0  0  0  0  0  0  0  0  # atno 10167 bound_to 10162
  157.1508  130.6674  149.6011 H   0  0  0  0  0  0  0  0  0  0  0  0  # atno 10718 bound_to 10713
  154.0017  135.2922  155.3402 H   0  0  0  0  0  0  0  0  0  0  0  0  # atno 10763 bound_to 10752
  154.7155  135.5131  153.8734 H   0  0  0  0  0  0  0  0  0  0  0  0  # atno 10764 bound_to 10752
  153.0763  135.6664  154.0258 H   0  0  0  0  0  0  0  0  0  0  0  0  # atno 10765 bound_to 10752
  139.9211  134.9637  156.7903 H   0  0  0  0  0  0  0  0  0  0  0  0  # atno 11005 bound_to 11000
  146.1957  139.5222  142.9776 LP  0  0  0  0  0  0  0  0  0  0  0  0  # atno 17320 bound_to 7965
  145.6155  141.0332  143.1943 LP  0  0  0  0  0  0  0  0  0  0  0  0  # atno 17321 bound_to 7965
  140.6039  143.9560  150.6405 LP  0  0  0  0  0  0  0  0  0  0  0  0  # atno 17342 bound_to 10162
  140.2781  143.3409  152.1177 LP  0  0  0  0  0  0  0  0  0  0  0  0  # atno 17343 bound_to 10162
  155.9771  130.4745  150.6570 LP  0  0  0  0  0  0  0  0  0  0  0  0  # atno 17370 bound_to 10713
  157.4222  131.0838  151.1120 LP  0  0  0  0  0  0  0  0  0  0  0  0  # atno 17371 bound_to 10713
  140.6473  133.9764  155.7737 LP  0  0  0  0  0  0  0  0  0  0  0  0  # atno 17394 bound_to 11000
  141.0732  134.0175  157.3496 LP  0  0  0  0  0  0  0  0  0  0  0  0  # atno 17395 bound_to 11000

$$$$
