AV-unprocessed.smi:2061|AV-procd|sdf|8379|dock8
  -GOLD-   2272011 53D 1   1.00000     0.00000
 Structure written by MMmdl.
 44 45  0  0  0  0  0  0  0  0  2 V2000
  145.2267  133.2504  162.2411 C   0  0  0  0  0  0  0  0  0  0  0  0
  145.8354  134.5511  161.8420 C   0  0  0  0  0  0  0  0  0  0  0  0
  147.0466  134.8815  161.3037 C   0  0  0  0  0  0  0  0  0  0  0  0
  146.9673  136.2947  161.1687 C   0  0  0  0  0  0  0  0  0  0  0  0
  147.9315  137.0956  160.6896 N   0  5  0  0  0  0  0  0  0  0  0  0
  148.7270  136.6748  159.6790 C   0  0  0  0  0  0  0  0  0  0  0  0
  148.9519  135.5033  159.3670 O   0  0  0  0  0  0  0  0  0  0  0  0
  149.3023  137.6758  158.9964 N   0  0  0  0  0  0  0  0  0  0  0  0
  150.2088  137.5457  157.8566 C   0  0  0  0  0  0  0  0  0  0  0  0
  151.5748  138.2566  158.0783 C   0  0  1  0  0  0  0  0  0  0  0  0
  152.4394  138.1028  156.8008 C   0  0  0  0  0  0  0  0  0  0  0  0
  151.4380  139.6698  158.5070 N   0  0  0  0  0  0  0  0  0  0  0  0
  151.3492  140.5953  157.3713 C   0  0  0  0  0  0  0  0  0  0  0  0
  151.2310  142.0758  157.7851 C   0  0  1  0  0  0  0  0  0  0  0  0
  149.8454  142.4440  158.3431 C   0  0  0  0  0  0  0  0  0  0  0  0
  152.2784  142.4250  158.6868 O   0  0  0  0  0  0  0  0  0  0  0  0
  152.3905  141.5766  159.8239 C   0  0  2  0  0  0  0  0  0  0  0  0
  153.5936  142.0463  160.6487 C   0  0  0  0  0  0  0  0  0  0  0  0
  152.5397  140.1146  159.3655 C   0  0  0  0  0  0  0  0  0  0  0  0
  145.8171  136.7806  161.6042 N   0  0  0  0  0  0  0  0  0  0  0  0
  145.0828  135.6680  162.0321 O   0  0  0  0  0  0  0  0  0  0  0  0
  145.7063  132.8605  163.1388 H   0  0  0  0  0  0  0  0  0  0  0  0
  145.3416  132.5119  161.4478 H   0  0  0  0  0  0  0  0  0  0  0  0
  144.1618  133.3609  162.4470 H   0  0  0  0  0  0  0  0  0  0  0  0
  147.8587  134.2195  161.0429 H   0  0  0  0  0  0  0  0  0  0  0  0
  149.0868  138.6154  159.2956 H   0  0  0  0  0  0  0  0  0  0  0  0
  150.3689  136.5017  157.5830 H   0  0  0  0  0  0  0  0  0  0  0  0
  149.6604  137.9955  157.0315 H   0  0  0  0  0  0  0  0  0  0  0  0
  152.0866  137.7133  158.8742 H   0  0  0  0  0  0  0  0  0  0  0  0
  152.5163  137.0671  156.4733 H   0  0  0  0  0  0  0  0  0  0  0  0
  153.4689  138.4223  156.9517 H   0  0  0  0  0  0  0  0  0  0  0  0
  152.0237  138.6777  155.9727 H   0  0  0  0  0  0  0  0  0  0  0  0
  152.2307  140.4750  156.7396 H   0  0  0  0  0  0  0  0  0  0  0  0
  150.4868  140.3664  156.7483 H   0  0  0  0  0  0  0  0  0  0  0  0
  151.3838  142.6841  156.8933 H   0  0  0  0  0  0  0  0  0  0  0  0
  149.0726  142.2940  157.5890 H   0  0  0  0  0  0  0  0  0  0  0  0
  149.8132  143.4908  158.6455 H   0  0  0  0  0  0  0  0  0  0  0  0
  149.5766  141.8369  159.2074 H   0  0  0  0  0  0  0  0  0  0  0  0
  151.4965  141.6743  160.4404 H   0  0  0  0  0  0  0  0  0  0  0  0
  153.7184  141.4362  161.5437 H   0  0  0  0  0  0  0  0  0  0  0  0
  153.4670  143.0813  160.9676 H   0  0  0  0  0  0  0  0  0  0  0  0
  154.5164  141.9861  160.0708 H   0  0  0  0  0  0  0  0  0  0  0  0
  152.5897  139.5116  160.2695 H   0  0  0  0  0  0  0  0  0  0  0  0
  153.4890  139.9863  158.8435 H   0  0  0  0  0  0  0  0  0  0  0  0
  1  2  1  0  0  0  0
  1 22  1  0  0  0  0
  1 23  1  0  0  0  0
  1 24  1  0  0  0  0
  2 21  1  0  0  0  0
  2  3  2  0  0  0  0
  3  4  1  0  0  0  0
  3 25  1  0  0  0  0
  4  5  1  0  0  0  0
  4 20  2  0  0  0  0
  5  6  1  0  0  0  0
  6  7  2  0  0  0  0
  6  8  1  0  0  0  0
  8  9  1  0  0  0  0
  8 26  1  0  0  0  0
  9 10  1  0  0  0  0
  9 27  1  0  0  0  0
  9 28  1  0  0  0  0
 10 11  1  0  0  0  0
 10 12  1  0  0  0  0
 10 29  1  0  0  0  0
 11 30  1  0  0  0  0
 11 31  1  0  0  0  0
 11 32  1  0  0  0  0
 12 19  1  0  0  0  0
 12 13  1  0  0  0  0
 13 14  1  0  0  0  0
 13 33  1  0  0  0  0
 13 34  1  0  0  0  0
 14 15  1  0  0  0  0
 14 16  1  0  0  0  0
 14 35  1  0  0  0  0
 15 36  1  0  0  0  0
 15 37  1  0  0  0  0
 15 38  1  0  0  0  0
 16 17  1  0  0  0  0
 17 18  1  0  0  0  0
 17 19  1  0  0  0  0
 17 39  1  0  0  0  0
 18 40  1  0  0  0  0
 18 41  1  0  0  0  0
 18 42  1  0  0  0  0
 19 43  1  0  0  0  0
 19 44  1  0  0  0  0
 20 21  1  0  0  0  0
M  CHG  1   5  -1
M  END
> <s_m_source_file>
AV-unprocessed.smi

> <i_m_source_file_index>
2061

> <i_lp_mmshare_version>
43012

> <i_f3d_flags>
0

> <s_epik_input>
W0NIM11jMVtjSF1jKG5vMSlbTkhdQyg9TylbTkhdW0NIMl1bQ0BIXShbQ0gzXSlOMltDSDJdW0NAQEhdKFtDSDNdKU9bQ0BASF0oW0NIM10pW0NIMl0y

> <s_epik_cmdline>
J2VwaWtfcHl0aG9uJywgJy1waCcsICc3LjAnLCAnLXRuJywgJzgnLCAnLW1hJywgJzIwMCcsICctbWV0YWxfYmluZGluZycsICctaW1hZScsICc8aW5maWxlLm1hZT4nLCAnLW9tYWUnLCAnPG91dGZpbGUubWFlPic=

> <r_epik_Ionization_Penalty>
6.88367

> <r_epik_Ionization_Penalty_Charging>
6.57198

> <r_epik_Ionization_Penalty_Neutral>
0.311681

> <r_epik_State_Penalty>
6.77619

> <r_epik_Charging_Adjusted_Penalty>
13.3482

> <i_epik_Tot_Q>
-1

> <i_epik_Tot_abs_Q>
1

> <r_epik_Metal_State_Penalty>
2.70524

> <b_epik_Metal_Only>
1

> <s_lp_Force_Field>
OPLS_2005

> <r_lp_Energy>
24.642

> <b_lp_Chiralities_Consistent>
1

> <s_lp_Variant>
AV-unprocessed.smi:2061-20

> <Gold.Version>
5.8.1

> <Gold.Id.Protein>
6NUR|6NUR_protein|mol2

> <Gold.PLP.Fitness>
44.2340

> <Gold.PLP.PLP>
-33.1969

> <Gold.PLP.part.hbond>
-3.0000

> <Gold.PLP.part.metal>
0.0000

> <Gold.PLP.part.buried>
-5.9463

> <Gold.PLP.part.nonpolar>
-24.5081

> <Gold.PLP.part.repulsive>
0.2283

> <Gold.PLP.ligand.clash>
0.0000

> <Gold.PLP.ligand.torsion>
1.0239

> <Gold.PLP.Chemscore.Hbond>
4.3280

> <Gold.PLP.Chemscore.CHOScore>
0.0000

> <Gold.PLP.Chemscore.Metal>
0.0000

> <Gold.Chemscore.Hbonds>
donor molecule, donor type, donor heavy atom, donor atom, acceptor molecule, acceptor atom, score
      P1  H  6896  6908       L1     7  1.00
      P1  H  6931  6943       L1     5  1.73
      P1  H  6934  6947       L1     5  1.46

> <Gold.PLP.Chemscore.Internal.Correction>
0.1009

> <Gold.Rescore>
     Score         DG    S(hbond)    S(metal)    S(lipo)     H(rot)  DE(clash)    DE(int)     intcor
     14.96     -17.48       1.95        0.00      80.23       1.52       0.01       2.51       ----

> <Gold.Chemscore.Fitness>
14.9582

> <Gold.Chemscore.DG>
-17.4754

> <Gold.Chemscore.ZeroCoef>
-5.4800

> <Gold.Chemscore.Hbond>
1.9451

> <Gold.Chemscore.Metal>
0.0000

> <Gold.Chemscore.Lipo>
80.2325

> <Gold.Chemscore.Internal_Hbond>
0.0000

> <Gold.Chemscore.DEClash>
0.0073

> <Gold.Chemscore.DEInternal>
2.5098

> <Gold.Chemscore.Rot>
1.5190

> <Gold.Chemscore.Internal.Correction>
   9.000000E+99

> <Gold.Chemscore.Hbonds>
donor molecule, donor type, donor heavy atom, donor atom, acceptor molecule, acceptor atom, score
      P1  H  6896  6908       L1     7  0.98
      P1  H  6931  6943       L1     5  0.53
      P1  H  6934  6947       L1     5  0.35

> <Gold.Chemscore.Hbond.Weighted>
-6.4968

> <Gold.Chemscore.Metal.Weighted>
-0.0000

> <Gold.Chemscore.Lipo.Weighted>
-9.3872

> <Gold.Chemscore.Internal_Hbond.Weighted>
0.0000

> <Gold.Chemscore.DEClash.Weighted>
0.0073

> <Gold.Chemscore.DEInternal.Weighted>
2.5098

> <Gold.Chemscore.Rot.Weighted>
3.8886

> <Gold.Chemscore.Internal.Correction.Weighted>
   9.000000E+99

> <Gold.Protein.RotatedTorsions>
[ 6907 6896 6895 6894 ] final  166.29 input  -60.11 | X-H torsion
[ 7974 7965 7964 7962 ] final  143.71 input  175.53 | X-H torsion
[ 8008 7997 7996 7995 ] final   90.96 input   59.86 | X-H torsion
[ 10167 10162 10161 10158 ] final   85.60 input  -65.29 | X-H torsion
[ 10718 10713 10712 10709 ] final   65.60 input   66.30 | X-H torsion
[ 10763 10752 10751 10750 ] final   75.90 input  -60.55 | X-H torsion
[ 11005 11000 10999 10996 ] final   37.02 input  -57.11 | X-H torsion

> <Gold.Protein.ActiveResidues>
 VAL166  LYS551  ARG553  GLY616  TRP617  ASP618  TYR619  PRO620  LYS621  CYS622 
 ASP623  PHE694  ASN695  SER759  ASP760  ASP761  ALA762  ILE779  LEU786  VAL792 
 PHE793  MET794  SER795  GLU796  ALA797  LYS798  CYS799  TRP800  GLU811  SER814 

> <Gold.Protein.RotatedAtoms>
  151.8812  133.3496  159.3766 H   0  0  0  0  0  0  0  0  0  0  0  0  # atno 6907 bound_to 6896
  150.7127  134.5016  159.5573 H   0  0  0  0  0  0  0  0  0  0  0  0  # atno 6908 bound_to 6896
  152.2568  134.8076  160.0488 H   0  0  0  0  0  0  0  0  0  0  0  0  # atno 6909 bound_to 6896
  144.8898  139.5575  143.5804 H   0  0  0  0  0  0  0  0  0  0  0  0  # atno 7974 bound_to 7965
  156.0182  140.3343  155.7011 H   0  0  0  0  0  0  0  0  0  0  0  0  # atno 8008 bound_to 7997
  155.6061  140.0660  157.2737 H   0  0  0  0  0  0  0  0  0  0  0  0  # atno 8009 bound_to 7997
  154.4306  140.1802  156.1211 H   0  0  0  0  0  0  0  0  0  0  0  0  # atno 8010 bound_to 7997
  139.8960  144.6357  150.8687 H   0  0  0  0  0  0  0  0  0  0  0  0  # atno 10167 bound_to 10162
  157.6116  130.9222  149.9997 H   0  0  0  0  0  0  0  0  0  0  0  0  # atno 10718 bound_to 10713
  153.0687  135.4971  154.8257 H   0  0  0  0  0  0  0  0  0  0  0  0  # atno 10763 bound_to 10752
  154.6991  135.2998  154.9370 H   0  0  0  0  0  0  0  0  0  0  0  0  # atno 10764 bound_to 10752
  154.0100  135.6755  153.4817 H   0  0  0  0  0  0  0  0  0  0  0  0  # atno 10765 bound_to 10752
  140.2268  134.3575  155.7981 H   0  0  0  0  0  0  0  0  0  0  0  0  # atno 11005 bound_to 11000
  146.3046  139.7539  142.9065 LP  0  0  0  0  0  0  0  0  0  0  0  0  # atno 17320 bound_to 7965
  145.3804  141.0357  143.3181 LP  0  0  0  0  0  0  0  0  0  0  0  0  # atno 17321 bound_to 7965
  140.7717  143.3473  151.2086 LP  0  0  0  0  0  0  0  0  0  0  0  0  # atno 17342 bound_to 10162
  139.7067  143.9444  152.2930 LP  0  0  0  0  0  0  0  0  0  0  0  0  # atno 17343 bound_to 10162
  156.1220  130.3645  149.9871 LP  0  0  0  0  0  0  0  0  0  0  0  0  # atno 17370 bound_to 10713
  156.7949  130.9269  151.3646 LP  0  0  0  0  0  0  0  0  0  0  0  0  # atno 17371 bound_to 10713
  141.2220  133.7223  156.8666 LP  0  0  0  0  0  0  0  0  0  0  0  0  # atno 17394 bound_to 11000
  140.1792  134.9045  157.2928 LP  0  0  0  0  0  0  0  0  0  0  0  0  # atno 17395 bound_to 11000

$$$$
