AV-unprocessed.smi:270|AV-procd|sdf|2047|dock1
  -GOLD-   2262021273D 1   1.00000     0.00000
 Structure written by MMmdl.
 54 57  0  0  0  0  0  0  0  0  1 V2000
  152.1740  140.0619  159.2574 C   0  0  0  0  0  0  0  0  0  0  0  0
  152.6328  141.4156  158.6910 C   0  0  2  0  0  0  0  0  0  0  0  0
  153.3645  142.1513  159.6712 O   0  0  0  0  0  0  0  0  0  0  0  0
  152.7540  143.4152  159.8900 C   0  0  0  0  0  0  0  0  0  0  0  0
  152.0438  143.7225  158.5781 C   0  0  0  0  0  0  0  0  0  0  0  0
  151.5251  142.3544  158.1576 C   0  0  2  0  0  0  0  0  0  0  0  0
  150.2961  142.1190  158.8269 O   0  0  0  0  0  0  0  0  0  0  0  0
  151.2924  142.2101  156.6350 C   0  0  0  0  0  0  0  0  0  0  0  0
  150.7825  140.9032  156.2507 N   0  0  0  0  0  0  0  0  0  0  0  0
  149.4977  140.4384  156.4141 C   0  0  0  0  0  0  0  0  0  0  0  0
  149.2892  139.2220  155.9904 N   0  0  0  0  0  0  0  0  0  0  0  0
  150.5214  138.8158  155.4900 C   0  0  0  0  0  0  0  0  0  0  0  0
  150.9933  137.6130  154.8869 C   0  0  0  0  0  0  0  0  0  0  0  0
  150.1824  136.4656  154.6475 N   0  0  0  0  0  0  0  0  0  0  0  0
  148.9682  136.3618  155.4436 C   0  0  0  0  0  0  0  0  0  0  0  0
  149.3173  134.8845  155.6496 C   0  0  0  0  0  0  0  0  0  0  0  0
  148.5730  133.9964  154.8305 O   0  0  0  0  0  0  0  0  0  0  0  0
  149.3298  132.8736  154.4065 C   0  0  0  0  0  0  0  0  0  0  0  0
  148.3957  131.8815  153.7033 C   0  0  0  0  0  0  0  0  0  0  0  0
  147.7017  132.2939  152.7728 O   0  0  0  0  0  0  0  0  0  0  0  0
  148.3636  130.5930  154.1171 N   0  0  0  0  0  0  0  0  0  0  0  0
  147.5003  129.5765  153.5077 C   0  0  0  0  0  0  0  0  0  0  0  0
  149.2119  130.1521  155.2278 C   0  0  0  0  0  0  0  0  0  0  0  0
  150.7040  135.1716  155.0728 C   0  0  0  0  0  0  0  0  0  0  0  0
  152.2937  137.6123  154.4872 N   0  0  0  0  0  0  0  0  0  0  0  0
  153.0798  138.6743  154.6851 C   0  0  0  0  0  0  0  0  0  0  0  0
  152.7743  139.8423  155.2498 N   0  0  0  0  0  0  0  0  0  0  0  0
  151.4684  139.8697  155.6369 C   0  0  0  0  0  0  0  0  0  0  0  0
  151.5997  139.5023  158.5188 H   0  0  0  0  0  0  0  0  0  0  0  0
  151.5531  140.1868  160.1450 H   0  0  0  0  0  0  0  0  0  0  0  0
  153.0313  139.4519  159.5425 H   0  0  0  0  0  0  0  0  0  0  0  0
  153.3443  141.2204  157.8875 H   0  0  0  0  0  0  0  0  0  0  0  0
  152.0355  143.3286  160.7065 H   0  0  0  0  0  0  0  0  0  0  0  0
  153.4889  144.1733  160.1610 H   0  0  0  0  0  0  0  0  0  0  0  0
  151.2639  144.4787  158.6795 H   0  0  0  0  0  0  0  0  0  0  0  0
  152.7730  144.0885  157.8538 H   0  0  0  0  0  0  0  0  0  0  0  0
  150.2028  142.7570  159.5179 H   0  0  0  0  0  0  0  0  0  0  0  0
  150.5810  142.9613  156.2893 H   0  0  0  0  0  0  0  0  0  0  0  0
  152.2195  142.3958  156.0910 H   0  0  0  0  0  0  0  0  0  0  0  0
  148.7160  141.0318  156.8657 H   0  0  0  0  0  0  0  0  0  0  0  0
  149.0017  136.9379  156.3696 H   0  0  0  0  0  0  0  0  0  0  0  0
  148.0602  136.5433  154.8683 H   0  0  0  0  0  0  0  0  0  0  0  0
  149.3558  134.5829  156.6978 H   0  0  0  0  0  0  0  0  0  0  0  0
  150.1069  133.1963  153.7116 H   0  0  0  0  0  0  0  0  0  0  0  0
  149.8341  132.3896  155.2434 H   0  0  0  0  0  0  0  0  0  0  0  0
  146.4506  129.8605  153.5871 H   0  0  0  0  0  0  0  0  0  0  0  0
  147.5997  128.6000  153.9817 H   0  0  0  0  0  0  0  0  0  0  0  0
  147.7423  129.4429  152.4528 H   0  0  0  0  0  0  0  0  0  0  0  0
  150.2637  130.3313  155.0001 H   0  0  0  0  0  0  0  0  0  0  0  0
  149.1069  129.0905  155.4513 H   0  0  0  0  0  0  0  0  0  0  0  0
  148.9643  130.7010  156.1377 H   0  0  0  0  0  0  0  0  0  0  0  0
  150.9906  134.5254  154.2428 H   0  0  0  0  0  0  0  0  0  0  0  0
  151.4728  135.2264  155.8451 H   0  0  0  0  0  0  0  0  0  0  0  0
  154.0990  138.5727  154.3422 H   0  0  0  0  0  0  0  0  0  0  0  0
  1  2  1  0  0  0  0
  1 29  1  0  0  0  0
  1 30  1  0  0  0  0
  1 31  1  0  0  0  0
  2  6  1  0  0  0  0
  2  3  1  0  0  0  0
  2 32  1  0  0  0  0
  3  4  1  0  0  0  0
  4  5  1  0  0  0  0
  4 33  1  0  0  0  0
  4 34  1  0  0  0  0
  5  6  1  0  0  0  0
  5 35  1  0  0  0  0
  5 36  1  0  0  0  0
  6  7  1  0  0  0  0
  6  8  1  0  0  0  0
  7 37  1  0  0  0  0
  8  9  1  0  0  0  0
  8 38  1  0  0  0  0
  8 39  1  0  0  0  0
  9 28  1  0  0  0  0
  9 10  1  0  0  0  0
 10 11  2  0  0  0  0
 10 40  1  0  0  0  0
 11 12  1  0  0  0  0
 12 28  2  0  0  0  0
 12 13  1  0  0  0  0
 13 14  1  0  0  0  0
 13 25  2  0  0  0  0
 14 24  1  0  0  0  0
 14 15  1  0  0  0  0
 15 16  1  0  0  0  0
 15 41  1  0  0  0  0
 15 42  1  0  0  0  0
 16 17  1  0  0  0  0
 16 24  1  0  0  0  0
 16 43  1  0  0  0  0
 17 18  1  0  0  0  0
 18 19  1  0  0  0  0
 18 44  1  0  0  0  0
 18 45  1  0  0  0  0
 19 20  2  0  0  0  0
 19 21  1  0  0  0  0
 21 22  1  0  0  0  0
 21 23  1  0  0  0  0
 22 46  1  0  0  0  0
 22 47  1  0  0  0  0
 22 48  1  0  0  0  0
 23 49  1  0  0  0  0
 23 50  1  0  0  0  0
 23 51  1  0  0  0  0
 24 52  1  0  0  0  0
 24 53  1  0  0  0  0
 25 26  1  0  0  0  0
 26 27  2  0  0  0  0
 26 54  1  0  0  0  0
 27 28  1  0  0  0  0
M  END
> <s_m_source_file>
AV-unprocessed.smi

> <i_m_source_file_index>
270

> <i_lp_mmshare_version>
43012

> <i_f3d_flags>
0

> <s_epik_input>
W0NIMl0xW0NIMl1PW0NAQEhdKFtDSDNdKVtDQEBdMShbT0hdKVtDSDJdbihbY0hdbjIpYyhjMjMpbltjSF1uYzNONFtDSDJdW0NIXShbQ0gyXTQpT1tDSDJdQyg9TylOKFtDSDNdKVtDSDNd

> <s_epik_cmdline>
J2VwaWtfcHl0aG9uJywgJy1waCcsICc3LjAnLCAnLXRuJywgJzgnLCAnLW1hJywgJzIwMCcsICctbWV0YWxfYmluZGluZycsICctaW1hZScsICc8aW5maWxlLm1hZT4nLCAnLW9tYWUnLCAnPG91dGZpbGUubWFlPic=

> <r_lp_tautomer_probability>
1

> <r_epik_Ionization_Penalty>
0.00375854

> <r_epik_Ionization_Penalty_Charging>
0

> <r_epik_Ionization_Penalty_Neutral>
0.00375854

> <r_epik_State_Penalty>
-0

> <r_epik_Charging_Adjusted_Penalty>
0

> <i_epik_Tot_Q>
0

> <i_epik_Tot_abs_Q>
0

> <r_epik_Metal_State_Penalty>
-0

> <b_epik_Metal_Only>
0

> <s_lp_Force_Field>
OPLS_2005

> <r_lp_Energy>
53.9225

> <b_lp_Chiralities_Consistent>
1

> <s_lp_Variant>
AV-unprocessed.smi:270-3

> <Gold.Version>
5.8.1

> <Gold.Id.Protein>
6NUR|6NUR_protein|mol2

> <Gold.PLP.Fitness>
49.7461

> <Gold.PLP.PLP>
-46.1003

> <Gold.PLP.part.hbond>
-3.4642

> <Gold.PLP.part.metal>
0.0000

> <Gold.PLP.part.buried>
-6.8539

> <Gold.PLP.part.nonpolar>
-37.4189

> <Gold.PLP.part.repulsive>
2.3261

> <Gold.PLP.ligand.clash>
0.0000

> <Gold.PLP.ligand.torsion>
0.9184

> <Gold.PLP.Chemscore.Hbond>
1.6178

> <Gold.PLP.Chemscore.CHOScore>
0.0000

> <Gold.PLP.Chemscore.Metal>
0.0000

> <Gold.Chemscore.Hbonds>
donor molecule, donor type, donor heavy atom, donor atom, acceptor molecule, acceptor atom, score
      P1  H  7997  8009       L1    27  1.00
      P1  H 10752 10764       L1    25  0.66

> <Gold.PLP.Chemscore.Internal.Correction>
0.6292

> <Gold.Rescore>
     Score         DG    S(hbond)    S(metal)    S(lipo)     H(rot)  DE(clash)    DE(int)     intcor
      8.96     -12.58       1.56        0.00      84.59       3.12       1.55       2.07       ----

> <Gold.Chemscore.Fitness>
8.9619

> <Gold.Chemscore.DG>
-12.5821

> <Gold.Chemscore.ZeroCoef>
-5.4800

> <Gold.Chemscore.Hbond>
1.5573

> <Gold.Chemscore.Metal>
0.0000

> <Gold.Chemscore.Lipo>
84.5870

> <Gold.Chemscore.Internal_Hbond>
0.0000

> <Gold.Chemscore.DEClash>
1.5522

> <Gold.Chemscore.DEInternal>
2.0680

> <Gold.Chemscore.Rot>
3.1234

> <Gold.Chemscore.Internal.Correction>
   9.000000E+99

> <Gold.Chemscore.Hbonds>
donor molecule, donor type, donor heavy atom, donor atom, acceptor molecule, acceptor atom, score
      P1  H  7997  8009       L1    27  0.25
      P1  H 10752 10764       L1    25  0.47

> <Gold.Chemscore.Hbond.Weighted>
-5.2013

> <Gold.Chemscore.Metal.Weighted>
-0.0000

> <Gold.Chemscore.Lipo.Weighted>
-9.8967

> <Gold.Chemscore.Internal_Hbond.Weighted>
0.0000

> <Gold.Chemscore.DEClash.Weighted>
1.5522

> <Gold.Chemscore.DEInternal.Weighted>
2.0680

> <Gold.Chemscore.Rot.Weighted>
7.9959

> <Gold.Chemscore.Internal.Correction.Weighted>
   9.000000E+99

> <Gold.Protein.RotatedTorsions>
[ 6907 6896 6895 6894 ] final  177.99 input  -60.11 | X-H torsion
[ 7974 7965 7964 7962 ] final    7.56 input  175.53 | X-H torsion
[ 8008 7997 7996 7995 ] final -159.87 input   59.86 | X-H torsion
[ 10167 10162 10161 10158 ] final  132.77 input  -65.29 | X-H torsion
[ 10718 10713 10712 10709 ] final  163.20 input   66.30 | X-H torsion
[ 10763 10752 10751 10750 ] final  -79.31 input  -60.55 | X-H torsion
[ 11005 11000 10999 10996 ] final   -9.18 input  -57.11 | X-H torsion

> <Gold.Protein.ActiveResidues>
 VAL166  LYS551  ARG553  GLY616  TRP617  ASP618  TYR619  PRO620  LYS621  CYS622 
 ASP623  PHE694  ASN695  SER759  ASP760  ASP761  ALA762  ILE779  LEU786  VAL792 
 PHE793  MET794  SER795  GLU796  ALA797  LYS798  CYS799  TRP800  GLU811  SER814 

> <Gold.Protein.RotatedAtoms>
  151.6951  133.3311  159.3252 H   0  0  0  0  0  0  0  0  0  0  0  0  # atno 6907 bound_to 6896
  150.7761  134.6665  159.6377 H   0  0  0  0  0  0  0  0  0  0  0  0  # atno 6908 bound_to 6896
  152.3804  134.6603  160.0197 H   0  0  0  0  0  0  0  0  0  0  0  0  # atno 6909 bound_to 6896
  146.2425  140.0065  142.8411 H   0  0  0  0  0  0  0  0  0  0  0  0  # atno 7974 bound_to 7965
  155.7690  140.0849  157.2117 H   0  0  0  0  0  0  0  0  0  0  0  0  # atno 8008 bound_to 7997
  154.3997  140.1529  156.2977 H   0  0  0  0  0  0  0  0  0  0  0  0  # atno 8009 bound_to 7997
  155.8765  140.3423  155.5860 H   0  0  0  0  0  0  0  0  0  0  0  0  # atno 8010 bound_to 7997
  139.5325  144.6647  151.4900 H   0  0  0  0  0  0  0  0  0  0  0  0  # atno 10167 bound_to 10162
  157.1119  131.0470  151.2453 H   0  0  0  0  0  0  0  0  0  0  0  0  # atno 10718 bound_to 10713
  154.5371  135.5700  153.6807 H   0  0  0  0  0  0  0  0  0  0  0  0  # atno 10763 bound_to 10752
  152.9954  135.6218  154.2552 H   0  0  0  0  0  0  0  0  0  0  0  0  # atno 10764 bound_to 10752
  154.2481  135.2860  155.2807 H   0  0  0  0  0  0  0  0  0  0  0  0  # atno 10765 bound_to 10752
  140.7314  133.8745  155.8896 H   0  0  0  0  0  0  0  0  0  0  0  0  # atno 11005 bound_to 11000
  145.1367  140.9548  143.4513 LP  0  0  0  0  0  0  0  0  0  0  0  0  # atno 17320 bound_to 7965
  145.0335  139.3320  143.6012 LP  0  0  0  0  0  0  0  0  0  0  0  0  # atno 17321 bound_to 7965
  140.6512  143.8692  150.6788 LP  0  0  0  0  0  0  0  0  0  0  0  0  # atno 17342 bound_to 10162
  140.2057  143.3923  152.1757 LP  0  0  0  0  0  0  0  0  0  0  0  0  # atno 17343 bound_to 10162
  157.4552  130.7621  149.7186 LP  0  0  0  0  0  0  0  0  0  0  0  0  # atno 17370 bound_to 10713
  155.9848  130.3988  150.3291 LP  0  0  0  0  0  0  0  0  0  0  0  0  # atno 17371 bound_to 10713
  140.9917  134.1269  157.4402 LP  0  0  0  0  0  0  0  0  0  0  0  0  # atno 17394 bound_to 11000
  139.8825  135.0042  156.6236 LP  0  0  0  0  0  0  0  0  0  0  0  0  # atno 17395 bound_to 11000

$$$$
