AV-unprocessed.smi:554|AV-procd|sdf|2908|dock4
  -GOLD-   2262023403D 1   1.00000     0.00000
 Structure written by MMmdl.
 27 28  0  0  0  0  0  0  0  0  1 V2000
  152.5072  143.4371  160.6486 C   0  0  0  0  0  0  0  0  0  0  0  0
  152.4152  144.5049  159.5768 C   0  0  2  0  0  0  0  0  0  0  0  0
  151.0714  145.0020  159.0982 C   0  0  0  0  0  0  0  0  0  0  0  0
  151.9511  144.2007  158.1659 C   0  0  2  0  0  0  0  0  0  0  0  0
  151.5600  142.7984  157.7320 C   0  0  0  0  0  0  0  0  0  0  0  0
  150.4388  142.7348  156.8038 N   0  0  0  0  0  0  0  0  0  0  0  0
  150.0819  141.6463  156.1074 C   0  0  0  0  0  0  0  0  0  0  0  0
  150.6802  140.5719  156.1730 O   0  0  0  0  0  0  0  0  0  0  0  0
  149.0023  141.8897  155.3436 N   0  0  0  0  0  0  0  0  0  0  0  0
  148.3180  140.9946  154.4800 C   0  0  0  0  0  0  0  0  0  0  0  0
  148.5851  139.6870  154.3826 N   0  0  0  0  0  0  0  0  0  0  0  0
  147.7555  139.0499  153.4566 C   0  0  0  0  0  0  0  0  0  0  0  0
  146.8559  139.8934  152.8538 C   0  0  0  0  0  0  0  0  0  0  0  0
  147.0158  141.5315  153.4288 S   0  0  0  0  0  0  0  0  0  0  0  0
  151.6337  142.7852  160.6347 H   0  0  0  0  0  0  0  0  0  0  0  0
  152.5689  143.9026  161.6324 H   0  0  0  0  0  0  0  0  0  0  0  0
  153.3994  142.8298  160.4959 H   0  0  0  0  0  0  0  0  0  0  0  0
  153.2021  145.2529  159.6518 H   0  0  0  0  0  0  0  0  0  0  0  0
  150.1800  144.5173  159.4922 H   0  0  0  0  0  0  0  0  0  0  0  0
  150.9694  146.0663  158.8973 H   0  0  0  0  0  0  0  0  0  0  0  0
  152.4660  144.7624  157.3885 H   0  0  0  0  0  0  0  0  0  0  0  0
  152.4194  142.3440  157.2393 H   0  0  0  0  0  0  0  0  0  0  0  0
  151.3447  142.1818  158.6057 H   0  0  0  0  0  0  0  0  0  0  0  0
  149.8934  143.5767  156.6891 H   0  0  0  0  0  0  0  0  0  0  0  0
  148.6218  142.8233  155.3890 H   0  0  0  0  0  0  0  0  0  0  0  0
  147.8738  137.9897  153.2883 H   0  0  0  0  0  0  0  0  0  0  0  0
  146.1120  139.6508  152.1097 H   0  0  0  0  0  0  0  0  0  0  0  0
  1  2  1  0  0  0  0
  1 15  1  0  0  0  0
  1 16  1  0  0  0  0
  1 17  1  0  0  0  0
  2  4  1  0  0  0  0
  2  3  1  0  0  0  0
  2 18  1  0  0  0  0
  3  4  1  0  0  0  0
  3 19  1  0  0  0  0
  3 20  1  0  0  0  0
  4  5  1  0  0  0  0
  4 21  1  0  0  0  0
  5  6  1  0  0  0  0
  5 22  1  0  0  0  0
  5 23  1  0  0  0  0
  6  7  1  0  0  0  0
  6 24  1  0  0  0  0
  7  8  2  0  0  0  0
  7  9  1  0  0  0  0
  9 10  1  0  0  0  0
  9 25  1  0  0  0  0
 10 14  1  0  0  0  0
 10 11  2  0  0  0  0
 11 12  1  0  0  0  0
 12 13  2  0  0  0  0
 12 26  1  0  0  0  0
 13 14  1  0  0  0  0
 13 27  1  0  0  0  0
M  END
> <s_m_source_file>
AV-unprocessed.smi

> <i_m_source_file_index>
554

> <i_lp_mmshare_version>
43012

> <i_f3d_flags>
0

> <s_epik_input>
W0NIM11bQ0BASF0xW0NIMl1bQ0BIXTFbQ0gyXVtOSF1DKD1PKVtOSF1jMm5bY0hdW2NIXXMy

> <s_epik_cmdline>
J2VwaWtfcHl0aG9uJywgJy1waCcsICc3LjAnLCAnLXRuJywgJzgnLCAnLW1hJywgJzIwMCcsICctbWV0YWxfYmluZGluZycsICctaW1hZScsICc8aW5maWxlLm1hZT4nLCAnLW9tYWUnLCAnPG91dGZpbGUubWFlPic=

> <r_lp_tautomer_probability>
0.999

> <r_epik_Ionization_Penalty>
0.00042678

> <r_epik_Ionization_Penalty_Charging>
0

> <r_epik_Ionization_Penalty_Neutral>
0.00042678

> <r_epik_State_Penalty>
0.000177984

> <r_epik_Charging_Adjusted_Penalty>
0.000177984

> <i_epik_Tot_Q>
0

> <i_epik_Tot_abs_Q>
0

> <r_epik_Metal_State_Penalty>
-0

> <b_epik_Metal_Only>
0

> <s_lp_Force_Field>
OPLS_2005

> <r_lp_Energy>
14.5233

> <b_lp_Chiralities_Consistent>
1

> <s_lp_Variant>
AV-unprocessed.smi:554-3

> <Gold.Version>
5.8.1

> <Gold.Id.Protein>
6NUR|6NUR_protein|mol2

> <Gold.PLP.Fitness>
43.9044

> <Gold.PLP.PLP>
-32.6406

> <Gold.PLP.part.hbond>
-2.0000

> <Gold.PLP.part.metal>
0.0000

> <Gold.PLP.part.buried>
-4.6809

> <Gold.PLP.part.nonpolar>
-26.4046

> <Gold.PLP.part.repulsive>
0.3337

> <Gold.PLP.ligand.clash>
0.0000

> <Gold.PLP.ligand.torsion>
0.3677

> <Gold.PLP.Chemscore.Hbond>
2.0000

> <Gold.PLP.Chemscore.CHOScore>
1.8247

> <Gold.PLP.Chemscore.Metal>
0.0000

> <Gold.Chemscore.Hbonds>
donor molecule, donor type, donor heavy atom, donor atom, acceptor molecule, acceptor atom, score
      L1  H     6    24       P1  8028  1.00
      L1  H     9    25       P1  8028  1.00
      L1  C    12    26       P1  7948  1.00
      L1  C    13    27       P1 10175  0.69

> <Gold.PLP.Chemscore.Internal.Correction>
0.5251

> <Gold.Rescore>
     Score         DG    S(hbond)    S(metal)    S(lipo)     H(rot)  DE(clash)    DE(int)     intcor
     16.75     -18.49       1.95        0.00      83.59       1.28       0.12       1.62       ----

> <Gold.Chemscore.Fitness>
16.7523

> <Gold.Chemscore.DG>
-18.4918

> <Gold.Chemscore.ZeroCoef>
-5.4800

> <Gold.Chemscore.Hbond>
1.9477

> <Gold.Chemscore.Metal>
0.0000

> <Gold.Chemscore.Lipo>
83.5934

> <Gold.Chemscore.Internal_Hbond>
0.0000

> <Gold.Chemscore.DEClash>
0.1201

> <Gold.Chemscore.DEInternal>
1.6194

> <Gold.Chemscore.Rot>
1.2788

> <Gold.Chemscore.Internal.Correction>
   9.000000E+99

> <Gold.Chemscore.Hbonds>
donor molecule, donor type, donor heavy atom, donor atom, acceptor molecule, acceptor atom, score
      L1  H     6    24       P1  8028  0.96
      L1  H     9    25       P1  8028  0.95

> <Gold.Chemscore.Hbond.Weighted>
-6.5052

> <Gold.Chemscore.Metal.Weighted>
-0.0000

> <Gold.Chemscore.Lipo.Weighted>
-9.7804

> <Gold.Chemscore.Internal_Hbond.Weighted>
0.0000

> <Gold.Chemscore.DEClash.Weighted>
0.1201

> <Gold.Chemscore.DEInternal.Weighted>
1.6194

> <Gold.Chemscore.Rot.Weighted>
3.2738

> <Gold.Chemscore.Internal.Correction.Weighted>
   9.000000E+99

> <Gold.Protein.RotatedTorsions>
[ 6907 6896 6895 6894 ] final   75.11 input  -60.11 | X-H torsion
[ 7974 7965 7964 7962 ] final  -52.94 input  175.53 | X-H torsion
[ 8008 7997 7996 7995 ] final  150.58 input   59.86 | X-H torsion
[ 10167 10162 10161 10158 ] final   16.50 input  -65.29 | X-H torsion
[ 10718 10713 10712 10709 ] final   46.92 input   66.30 | X-H torsion
[ 10763 10752 10751 10750 ] final  170.74 input  -60.55 | X-H torsion
[ 11005 11000 10999 10996 ] final    1.41 input  -57.11 | X-H torsion

> <Gold.Protein.ActiveResidues>
 VAL166  LYS551  ARG553  GLY616  TRP617  ASP618  TYR619  PRO620  LYS621  CYS622 
 ASP623  PHE694  ASN695  SER759  ASP760  ASP761  ALA762  ILE779  LEU786  VAL792 
 PHE793  MET794  SER795  GLU796  ALA797  LYS798  CYS799  TRP800  GLU811  SER814 

> <Gold.Protein.RotatedAtoms>
  152.5010  134.4170  159.9467 H   0  0  0  0  0  0  0  0  0  0  0  0  # atno 6907 bound_to 6896
  151.4140  133.3712  159.2755 H   0  0  0  0  0  0  0  0  0  0  0  0  # atno 6908 bound_to 6896
  150.9270  134.8709  159.7586 H   0  0  0  0  0  0  0  0  0  0  0  0  # atno 6909 bound_to 6896
  145.9023  140.7984  142.9737 H   0  0  0  0  0  0  0  0  0  0  0  0  # atno 7974 bound_to 7965
  156.2710  140.2071  156.6039 H   0  0  0  0  0  0  0  0  0  0  0  0  # atno 8008 bound_to 7997
  154.6885  140.0532  157.0362 H   0  0  0  0  0  0  0  0  0  0  0  0  # atno 8009 bound_to 7997
  155.0900  140.3195  155.4579 H   0  0  0  0  0  0  0  0  0  0  0  0  # atno 8010 bound_to 7997
  140.5793  143.9012  150.6776 H   0  0  0  0  0  0  0  0  0  0  0  0  # atno 10167 bound_to 10162
  157.4531  130.8151  149.7809 H   0  0  0  0  0  0  0  0  0  0  0  0  # atno 10718 bound_to 10713
  154.4019  135.2755  155.2091 H   0  0  0  0  0  0  0  0  0  0  0  0  # atno 10763 bound_to 10752
  154.4113  135.6021  153.5958 H   0  0  0  0  0  0  0  0  0  0  0  0  # atno 10764 bound_to 10752
  152.9831  135.5950  154.4288 H   0  0  0  0  0  0  0  0  0  0  0  0  # atno 10765 bound_to 10752
  140.6157  133.9707  155.8199 H   0  0  0  0  0  0  0  0  0  0  0  0  # atno 11005 bound_to 11000
  144.6737  140.1697  143.7415 LP  0  0  0  0  0  0  0  0  0  0  0  0  # atno 17320 bound_to 7965
  145.8775  139.2305  143.1625 LP  0  0  0  0  0  0  0  0  0  0  0  0  # atno 17321 bound_to 7965
  140.2507  143.3595  152.1408 LP  0  0  0  0  0  0  0  0  0  0  0  0  # atno 17342 bound_to 10162
  139.5160  144.6972  151.5598 LP  0  0  0  0  0  0  0  0  0  0  0  0  # atno 17343 bound_to 10162
  155.9996  130.3888  150.2659 LP  0  0  0  0  0  0  0  0  0  0  0  0  # atno 17370 bound_to 10713
  157.0832  131.0149  151.3149 LP  0  0  0  0  0  0  0  0  0  0  0  0  # atno 17371 bound_to 10713
  141.0777  134.0110  157.3433 LP  0  0  0  0  0  0  0  0  0  0  0  0  # atno 17394 bound_to 11000
  139.9174  135.0198  156.7933 LP  0  0  0  0  0  0  0  0  0  0  0  0  # atno 17395 bound_to 11000

$$$$
