AV-unprocessed.smi:1978|AV-procd|sdf|8006|dock3
  -GOLD-   2272010193D 1   1.00000     0.00000
 Structure written by MMmdl.
 44 45  0  0  0  0  0  0  0  0  3 V2000
  150.2414  143.8497  159.2134 C   0  0  0  0  0  0  0  0  0  0  0  0
  150.6624  142.7152  158.3430 C   0  0  0  0  0  0  0  0  0  0  0  0
  151.8413  142.0386  158.2075 C   0  0  0  0  0  0  0  0  0  0  0  0
  151.5483  141.0728  157.2063 C   0  0  0  0  0  0  0  0  0  0  0  0
  152.4044  140.1662  156.7104 N   0  5  0  0  0  0  0  0  0  0  0  0
  152.0515  139.4051  155.6502 C   0  0  0  0  0  0  0  0  0  0  0  0
  152.0436  139.7542  154.4673 O   0  0  0  0  0  0  0  0  0  0  0  0
  151.6757  138.1615  155.9815 N   0  0  0  0  0  0  0  0  0  0  0  0
  151.2169  137.1338  155.0511 C   0  0  0  0  0  0  0  0  0  0  0  0
  149.7773  136.6283  155.3583 C   0  0  2  0  0  0  0  0  0  0  0  0
  149.6399  136.3765  156.8829 C   0  0  0  0  0  0  0  0  0  0  0  0
  149.4273  135.4182  154.5354 N   0  3  2  0  0  0  0  0  0  0  0  0
  148.0673  134.8644  154.8178 C   0  0  0  0  0  0  0  0  0  0  0  0
  147.6635  133.7939  153.7905 C   0  0  0  0  0  0  0  0  0  0  0  0
  148.6893  132.6604  153.7294 C   0  0  0  0  0  0  0  0  0  0  0  0
  150.0826  133.2440  153.4701 C   0  0  0  0  0  0  0  0  0  0  0  0
  150.4618  134.3297  154.4997 C   0  0  2  0  0  0  0  0  0  0  0  0
  150.7687  133.7251  155.8891 C   0  0  0  0  0  0  0  0  0  0  0  0
  150.3066  141.1664  156.7613 N   0  0  0  0  0  0  0  0  0  0  0  0
  149.7297  142.2139  157.4893 O   0  0  0  0  0  0  0  0  0  0  0  0
  150.7161  144.7771  158.8932 H   0  0  0  0  0  0  0  0  0  0  0  0
  150.5233  143.6655  160.2501 H   0  0  0  0  0  0  0  0  0  0  0  0
  149.1610  143.9927  159.1786 H   0  0  0  0  0  0  0  0  0  0  0  0
  152.7649  142.2056  158.7408 H   0  0  0  0  0  0  0  0  0  0  0  0
  151.7039  137.9152  156.9604 H   0  0  0  0  0  0  0  0  0  0  0  0
  151.3132  137.5579  154.0539 H   0  0  0  0  0  0  0  0  0  0  0  0
  151.9196  136.3013  155.0983 H   0  0  0  0  0  0  0  0  0  0  0  0
  149.0726  137.4162  155.0899 H   0  0  0  0  0  0  0  0  0  0  0  0
  149.9388  137.2448  157.4695 H   0  0  0  0  0  0  0  0  0  0  0  0
  150.2607  135.5391  157.2028 H   0  0  0  0  0  0  0  0  0  0  0  0
  148.6143  136.1729  157.1861 H   0  0  0  0  0  0  0  0  0  0  0  0
  148.0293  134.4588  155.8291 H   0  0  0  0  0  0  0  0  0  0  0  0
  147.3007  135.6324  154.7734 H   0  0  0  0  0  0  0  0  0  0  0  0
  146.6810  133.3915  154.0393 H   0  0  0  0  0  0  0  0  0  0  0  0
  147.5676  134.2532  152.8058 H   0  0  0  0  0  0  0  0  0  0  0  0
  148.6807  132.0973  154.6630 H   0  0  0  0  0  0  0  0  0  0  0  0
  148.4241  131.9557  152.9409 H   0  0  0  0  0  0  0  0  0  0  0  0
  150.8265  132.4462  153.4698 H   0  0  0  0  0  0  0  0  0  0  0  0
  150.1057  133.6770  152.4691 H   0  0  0  0  0  0  0  0  0  0  0  0
  151.3902  134.7493  154.1152 H   0  0  0  0  0  0  0  0  0  0  0  0
  151.5510  132.9697  155.8136 H   0  0  0  0  0  0  0  0  0  0  0  0
  149.9001  133.2427  156.3355 H   0  0  0  0  0  0  0  0  0  0  0  0
  151.1223  134.4751  156.5956 H   0  0  0  0  0  0  0  0  0  0  0  0
  149.3831  135.7604  153.5864 H   0  0  0  0  0  0  0  0  0  0  0  0
  1  2  1  0  0  0  0
  1 21  1  0  0  0  0
  1 22  1  0  0  0  0
  1 23  1  0  0  0  0
  2 20  1  0  0  0  0
  2  3  2  0  0  0  0
  3  4  1  0  0  0  0
  3 24  1  0  0  0  0
  4  5  1  0  0  0  0
  4 19  2  0  0  0  0
  5  6  1  0  0  0  0
  6  7  2  0  0  0  0
  6  8  1  0  0  0  0
  8  9  1  0  0  0  0
  8 25  1  0  0  0  0
  9 10  1  0  0  0  0
  9 26  1  0  0  0  0
  9 27  1  0  0  0  0
 10 11  1  0  0  0  0
 10 12  1  0  0  0  0
 10 28  1  0  0  0  0
 11 29  1  0  0  0  0
 11 30  1  0  0  0  0
 11 31  1  0  0  0  0
 12 17  1  0  0  0  0
 12 13  1  0  0  0  0
 12 44  1  0  0  0  0
 13 14  1  0  0  0  0
 13 32  1  0  0  0  0
 13 33  1  0  0  0  0
 14 15  1  0  0  0  0
 14 34  1  0  0  0  0
 14 35  1  0  0  0  0
 15 16  1  0  0  0  0
 15 36  1  0  0  0  0
 15 37  1  0  0  0  0
 16 17  1  0  0  0  0
 16 38  1  0  0  0  0
 16 39  1  0  0  0  0
 17 18  1  0  0  0  0
 17 40  1  0  0  0  0
 18 41  1  0  0  0  0
 18 42  1  0  0  0  0
 18 43  1  0  0  0  0
 19 20  1  0  0  0  0
M  CHG  1   5  -1
M  CHG  1  12   1
M  END
> <s_m_source_file>
AV-unprocessed.smi

> <i_m_source_file_index>
1978

> <i_lp_mmshare_version>
43012

> <i_f3d_flags>
0

> <s_epik_input>
W0NIM11jMVtjSF1jKG5vMSlbTkhdQyg9TylbTkhdW0NIMl1bQ0BIXShbQ0gzXSlOMltDSDJdW0NIMl1bQ0gyXVtDSDJdW0NASF0yW0NIM10=

> <s_epik_cmdline>
J2VwaWtfcHl0aG9uJywgJy1waCcsICc3LjAnLCAnLXRuJywgJzgnLCAnLW1hJywgJzIwMCcsICctbWV0YWxfYmluZGluZycsICctaW1hZScsICc8aW5maWxlLm1hZT4nLCAnLW9tYWUnLCAnPG91dGZpbGUubWFlPic=

> <r_epik_Ionization_Penalty>
6.22372

> <r_epik_Ionization_Penalty_Charging>
6.22362

> <r_epik_Ionization_Penalty_Neutral>
9.65074e-05

> <r_epik_State_Penalty>
6.22363

> <r_epik_Charging_Adjusted_Penalty>
12.4472

> <i_epik_Tot_Q>
0

> <i_epik_Tot_abs_Q>
2

> <r_epik_Metal_State_Penalty>
2.16675

> <b_epik_Metal_Only>
1

> <s_lp_Force_Field>
OPLS_2005

> <r_lp_Energy>
13.4454

> <b_lp_Chiralities_Consistent>
1

> <s_lp_Variant>
AV-unprocessed.smi:1978-15

> <Gold.Version>
5.8.1

> <Gold.Id.Protein>
6NUR|6NUR_protein|mol2

> <Gold.PLP.Fitness>
40.3173

> <Gold.PLP.PLP>
-27.7235

> <Gold.PLP.part.hbond>
-3.0000

> <Gold.PLP.part.metal>
0.0000

> <Gold.PLP.part.buried>
-5.1041

> <Gold.PLP.part.nonpolar>
-19.5862

> <Gold.PLP.part.repulsive>
0.3265

> <Gold.PLP.ligand.clash>
0.0000

> <Gold.PLP.ligand.torsion>
0.9197

> <Gold.PLP.Chemscore.Hbond>
4.7520

> <Gold.PLP.Chemscore.CHOScore>
0.0000

> <Gold.PLP.Chemscore.Metal>
0.0000

> <Gold.Chemscore.Hbonds>
donor molecule, donor type, donor heavy atom, donor atom, acceptor molecule, acceptor atom, score
      L1  H    12    44       P1  7948  2.00
      P1  H  7989  7998       L1     7  0.80
      P1  H  7997  8008       L1     5  1.82

> <Gold.PLP.Chemscore.Internal.Correction>
0.1772

> <Gold.Rescore>
     Score         DG    S(hbond)    S(metal)    S(lipo)     H(rot)  DE(clash)    DE(int)     intcor
     16.70     -17.77       2.72        0.00      60.69       1.52       0.05       1.02       ----

> <Gold.Chemscore.Fitness>
16.6999

> <Gold.Chemscore.DG>
-17.7679

> <Gold.Chemscore.ZeroCoef>
-5.4800

> <Gold.Chemscore.Hbond>
2.7172

> <Gold.Chemscore.Metal>
0.0000

> <Gold.Chemscore.Lipo>
60.6926

> <Gold.Chemscore.Internal_Hbond>
0.0000

> <Gold.Chemscore.DEClash>
0.0515

> <Gold.Chemscore.DEInternal>
1.0165

> <Gold.Chemscore.Rot>
1.5190

> <Gold.Chemscore.Internal.Correction>
   9.000000E+99

> <Gold.Chemscore.Hbonds>
donor molecule, donor type, donor heavy atom, donor atom, acceptor molecule, acceptor atom, score
      L1  H    12    44       P1  7948  0.45
      P1  H  7989  7998       L1     7  0.76
      P1  H  7997  8008       L1     5  0.38

> <Gold.Chemscore.Hbond.Weighted>
-9.0755

> <Gold.Chemscore.Metal.Weighted>
-0.0000

> <Gold.Chemscore.Lipo.Weighted>
-7.1010

> <Gold.Chemscore.Internal_Hbond.Weighted>
0.0000

> <Gold.Chemscore.DEClash.Weighted>
0.0515

> <Gold.Chemscore.DEInternal.Weighted>
1.0165

> <Gold.Chemscore.Rot.Weighted>
3.8886

> <Gold.Chemscore.Internal.Correction.Weighted>
   9.000000E+99

> <Gold.Protein.RotatedTorsions>
[ 6907 6896 6895 6894 ] final  106.04 input  -60.11 | X-H torsion
[ 7974 7965 7964 7962 ] final -124.17 input  175.53 | X-H torsion
[ 8008 7997 7996 7995 ] final  -67.59 input   59.86 | X-H torsion
[ 10167 10162 10161 10158 ] final -149.99 input  -65.29 | X-H torsion
[ 10718 10713 10712 10709 ] final  -15.50 input   66.30 | X-H torsion
[ 10763 10752 10751 10750 ] final -160.69 input  -60.55 | X-H torsion
[ 11005 11000 10999 10996 ] final  -98.34 input  -57.11 | X-H torsion

> <Gold.Protein.ActiveResidues>
 VAL166  LYS551  ARG553  GLY616  TRP617  ASP618  TYR619  PRO620  LYS621  CYS622 
 ASP623  PHE694  ASN695  SER759  ASP760  ASP761  ALA762  ILE779  LEU786  VAL792 
 PHE793  MET794  SER795  GLU796  ALA797  LYS798  CYS799  TRP800  GLU811  SER814 

> <Gold.Protein.RotatedAtoms>
  152.5208  133.9439  159.7639 H   0  0  0  0  0  0  0  0  0  0  0  0  # atno 6907 bound_to 6896
  150.9763  133.6283  159.2736 H   0  0  0  0  0  0  0  0  0  0  0  0  # atno 6908 bound_to 6896
  151.3476  135.0883  159.9445 H   0  0  0  0  0  0  0  0  0  0  0  0  # atno 6909 bound_to 6896
  145.0109  140.7905  143.4439 H   0  0  0  0  0  0  0  0  0  0  0  0  # atno 7974 bound_to 7965
  154.4810  140.0890  156.7376 H   0  0  0  0  0  0  0  0  0  0  0  0  # atno 8008 bound_to 7997
  155.4471  140.3456  155.4278 H   0  0  0  0  0  0  0  0  0  0  0  0  # atno 8009 bound_to 7997
  156.1191  140.1469  156.9219 H   0  0  0  0  0  0  0  0  0  0  0  0  # atno 8010 bound_to 7997
  139.7394  143.8686  152.2558 H   0  0  0  0  0  0  0  0  0  0  0  0  # atno 10167 bound_to 10162
  156.6009  130.4824  149.6240 H   0  0  0  0  0  0  0  0  0  0  0  0  # atno 10718 bound_to 10713
  154.7369  135.3059  154.8796 H   0  0  0  0  0  0  0  0  0  0  0  0  # atno 10763 bound_to 10752
  153.9622  135.6751  153.4749 H   0  0  0  0  0  0  0  0  0  0  0  0  # atno 10764 bound_to 10752
  153.0971  135.4930  154.8721 H   0  0  0  0  0  0  0  0  0  0  0  0  # atno 10765 bound_to 10752
  141.1348  133.8238  157.0827 H   0  0  0  0  0  0  0  0  0  0  0  0  # atno 11005 bound_to 11000
  145.2024  139.2245  143.5186 LP  0  0  0  0  0  0  0  0  0  0  0  0  # atno 17320 bound_to 7965
  146.3469  140.1845  142.8589 LP  0  0  0  0  0  0  0  0  0  0  0  0  # atno 17321 bound_to 7965
  139.8632  144.7106  150.9075 LP  0  0  0  0  0  0  0  0  0  0  0  0  # atno 17342 bound_to 10162
  140.7783  143.3800  151.1494 LP  0  0  0  0  0  0  0  0  0  0  0  0  # atno 17343 bound_to 10162
  156.2470  130.6885  151.1609 LP  0  0  0  0  0  0  0  0  0  0  0  0  # atno 17370 bound_to 10713
  157.7280  131.0635  150.5841 LP  0  0  0  0  0  0  0  0  0  0  0  0  # atno 17371 bound_to 10713
  140.0442  134.9839  157.1017 LP  0  0  0  0  0  0  0  0  0  0  0  0  # atno 17394 bound_to 11000
  140.4089  134.2002  155.7163 LP  0  0  0  0  0  0  0  0  0  0  0  0  # atno 17395 bound_to 11000

$$$$
