AV-unprocessed.smi:2152|AV-procd|sdf|8765|dock7
  -GOLD-   2272011543D 1   1.00000     0.00000
 Structure written by MMmdl.
 41 42  0  0  0  0  0  0  0  0  1 V2000
  150.5126  139.4844  155.1964 C   0  0  0  0  0  0  0  0  0  0  0  0
  149.3414  140.3079  154.6301 C   0  0  1  0  0  0  0  0  0  0  0  0
  148.2854  139.3791  153.9969 C   0  0  0  0  0  0  0  0  0  0  0  0
  147.1070  140.1685  153.4066 C   0  0  0  0  0  0  0  0  0  0  0  0
  146.4599  141.0690  154.4675 C   0  0  0  0  0  0  0  0  0  0  0  0
  147.4974  142.0105  155.0955 C   0  0  0  0  0  0  0  0  0  0  0  0
  148.6872  141.2316  155.6902 C   0  0  2  0  0  0  0  0  0  0  0  0
  149.6593  142.1874  156.2184 N   0  0  0  0  0  0  0  0  0  0  0  0
  150.2714  142.1121  157.4103 C   0  0  0  0  0  0  0  0  0  0  0  0
  150.0566  141.2186  158.2304 O   0  0  0  0  0  0  0  0  0  0  0  0
  151.2742  143.2305  157.7221 C   0  0  0  0  0  0  0  0  0  0  0  0
  151.7765  143.1746  159.1008 N   0  0  0  0  0  0  0  0  0  0  0  0
  151.5131  144.2176  159.9698 C   0  0  0  0  0  0  0  0  0  0  0  0
  151.9214  144.2356  161.2574 C   0  0  0  0  0  0  0  0  0  0  0  0
  152.6866  143.1273  161.8152 C   0  0  0  0  0  0  0  0  0  0  0  0
  153.0594  143.0906  162.9884 O   0  0  0  0  0  0  0  0  0  0  0  0
  152.9580  142.0818  160.9009 N   0  0  0  0  0  0  0  0  0  0  0  0
  153.6964  140.9328  161.3829 C   0  0  0  0  0  0  0  0  0  0  0  0
  152.5110  142.0598  159.5603 C   0  0  0  0  0  0  0  0  0  0  0  0
  152.7384  141.1075  158.8098 O   0  0  0  0  0  0  0  0  0  0  0  0
  150.1913  138.8653  156.0345 H   0  0  0  0  0  0  0  0  0  0  0  0
  151.3236  140.1231  155.5462 H   0  0  0  0  0  0  0  0  0  0  0  0
  150.9308  138.8239  154.4366 H   0  0  0  0  0  0  0  0  0  0  0  0
  149.7424  140.9381  153.8345 H   0  0  0  0  0  0  0  0  0  0  0  0
  148.7429  138.7733  153.2140 H   0  0  0  0  0  0  0  0  0  0  0  0
  147.9131  138.6806  154.7477 H   0  0  0  0  0  0  0  0  0  0  0  0
  147.4550  140.7768  152.5708 H   0  0  0  0  0  0  0  0  0  0  0  0
  146.3649  139.4803  153.0008 H   0  0  0  0  0  0  0  0  0  0  0  0
  145.6524  141.6495  154.0209 H   0  0  0  0  0  0  0  0  0  0  0  0
  146.0061  140.4529  155.2449 H   0  0  0  0  0  0  0  0  0  0  0  0
  147.8542  142.7094  154.3373 H   0  0  0  0  0  0  0  0  0  0  0  0
  147.0213  142.6130  155.8702 H   0  0  0  0  0  0  0  0  0  0  0  0
  148.3006  140.6052  156.4966 H   0  0  0  0  0  0  0  0  0  0  0  0
  149.9006  142.9615  155.6167 H   0  0  0  0  0  0  0  0  0  0  0  0
  152.1100  143.1902  157.0209 H   0  0  0  0  0  0  0  0  0  0  0  0
  150.7827  144.1873  157.5409 H   0  0  0  0  0  0  0  0  0  0  0  0
  150.9447  145.0610  159.6052 H   0  0  0  0  0  0  0  0  0  0  0  0
  151.6751  145.0800  161.8844 H   0  0  0  0  0  0  0  0  0  0  0  0
  154.3003  140.5241  160.5713 H   0  0  0  0  0  0  0  0  0  0  0  0
  152.9602  140.2098  161.7367 H   0  0  0  0  0  0  0  0  0  0  0  0
  154.3729  141.2375  162.1824 H   0  0  0  0  0  0  0  0  0  0  0  0
  1  2  1  0  0  0  0
  1 21  1  0  0  0  0
  1 22  1  0  0  0  0
  1 23  1  0  0  0  0
  2  7  1  0  0  0  0
  2  3  1  0  0  0  0
  2 24  1  0  0  0  0
  3  4  1  0  0  0  0
  3 25  1  0  0  0  0
  3 26  1  0  0  0  0
  4  5  1  0  0  0  0
  4 27  1  0  0  0  0
  4 28  1  0  0  0  0
  5  6  1  0  0  0  0
  5 29  1  0  0  0  0
  5 30  1  0  0  0  0
  6  7  1  0  0  0  0
  6 31  1  0  0  0  0
  6 32  1  0  0  0  0
  7  8  1  0  0  0  0
  7 33  1  0  0  0  0
  8  9  1  0  0  0  0
  8 34  1  0  0  0  0
  9 10  2  0  0  0  0
  9 11  1  0  0  0  0
 11 12  1  0  0  0  0
 11 35  1  0  0  0  0
 11 36  1  0  0  0  0
 12 19  1  0  0  0  0
 12 13  1  0  0  0  0
 13 14  2  0  0  0  0
 13 37  1  0  0  0  0
 14 15  1  0  0  0  0
 14 38  1  0  0  0  0
 15 16  2  0  0  0  0
 15 17  1  0  0  0  0
 17 18  1  0  0  0  0
 17 19  1  0  0  0  0
 18 39  1  0  0  0  0
 18 40  1  0  0  0  0
 18 41  1  0  0  0  0
 19 20  2  0  0  0  0
M  END
> <s_m_source_file>
AV-unprocessed.smi

> <i_m_source_file_index>
2152

> <i_lp_mmshare_version>
43012

> <i_f3d_flags>
0

> <s_epik_input>
W0NIM11bQ0BASF0xW0NIMl1bQ0gyXVtDSDJdW0NIMl1bQ0BIXTFbTkhdQyg9TylbQ0gyXW4yW2NIXVtjSF1jKD1PKW4oW0NIM10pYzI9Tw==

> <s_epik_cmdline>
J2VwaWtfcHl0aG9uJywgJy1waCcsICc3LjAnLCAnLXRuJywgJzgnLCAnLW1hJywgJzIwMCcsICctbWV0YWxfYmluZGluZycsICctaW1hZScsICc8aW5maWxlLm1hZT4nLCAnLW9tYWUnLCAnPG91dGZpbGUubWFlPic=

> <r_lp_tautomer_probability>
1

> <r_epik_Ionization_Penalty>
3.20555e-08

> <r_epik_Ionization_Penalty_Charging>
1.30086e-08

> <r_epik_Ionization_Penalty_Neutral>
1.90469e-08

> <r_epik_State_Penalty>
-0

> <r_epik_Charging_Adjusted_Penalty>
1.30086e-08

> <i_epik_Tot_Q>
0

> <i_epik_Tot_abs_Q>
0

> <r_epik_Metal_State_Penalty>
-0

> <b_epik_Metal_Only>
0

> <s_lp_Force_Field>
OPLS_2005

> <r_lp_Energy>
17.8687

> <b_lp_Chiralities_Consistent>
1

> <s_lp_Variant>
AV-unprocessed.smi:2152-4

> <Gold.Version>
5.8.1

> <Gold.Id.Protein>
6NUR|6NUR_protein|mol2

> <Gold.PLP.Fitness>
46.2726

> <Gold.PLP.PLP>
-45.2341

> <Gold.PLP.part.hbond>
-1.0834

> <Gold.PLP.part.metal>
0.0000

> <Gold.PLP.part.buried>
-1.4948

> <Gold.PLP.part.nonpolar>
-42.2438

> <Gold.PLP.part.repulsive>
0.2275

> <Gold.PLP.ligand.clash>
0.0000

> <Gold.PLP.ligand.torsion>
0.2520

> <Gold.PLP.Chemscore.Hbond>
0.5120

> <Gold.PLP.Chemscore.CHOScore>
0.0000

> <Gold.PLP.Chemscore.Metal>
0.0000

> <Gold.Chemscore.Hbonds>
donor molecule, donor type, donor heavy atom, donor atom, acceptor molecule, acceptor atom, score
      L1  H     8    34       P1  8028  0.45

> <Gold.PLP.Chemscore.Internal.Correction>
0.0064

> <Gold.Rescore>
     Score         DG    S(hbond)    S(metal)    S(lipo)     H(rot)  DE(clash)    DE(int)     intcor
     10.62     -13.05       0.53        0.00      82.93       1.52       0.21       2.21       ----

> <Gold.Chemscore.Fitness>
10.6227

> <Gold.Chemscore.DG>
-13.0458

> <Gold.Chemscore.ZeroCoef>
-5.4800

> <Gold.Chemscore.Hbond>
0.5284

> <Gold.Chemscore.Metal>
0.0000

> <Gold.Chemscore.Lipo>
82.9312

> <Gold.Chemscore.Internal_Hbond>
0.0000

> <Gold.Chemscore.DEClash>
0.2112

> <Gold.Chemscore.DEInternal>
2.2119

> <Gold.Chemscore.Rot>
1.5242

> <Gold.Chemscore.Internal.Correction>
   9.000000E+99

> <Gold.Chemscore.Hbonds>
donor molecule, donor type, donor heavy atom, donor atom, acceptor molecule, acceptor atom, score
      L1  H     8    34       P1  8028  0.43

> <Gold.Chemscore.Hbond.Weighted>
-1.7647

> <Gold.Chemscore.Metal.Weighted>
-0.0000

> <Gold.Chemscore.Lipo.Weighted>
-9.7030

> <Gold.Chemscore.Internal_Hbond.Weighted>
0.0000

> <Gold.Chemscore.DEClash.Weighted>
0.2112

> <Gold.Chemscore.DEInternal.Weighted>
2.2119

> <Gold.Chemscore.Rot.Weighted>
3.9019

> <Gold.Chemscore.Internal.Correction.Weighted>
   9.000000E+99

> <Gold.Protein.RotatedTorsions>
[ 6907 6896 6895 6894 ] final -152.72 input  -60.11 | X-H torsion
[ 7974 7965 7964 7962 ] final   82.57 input  175.53 | X-H torsion
[ 8008 7997 7996 7995 ] final  152.27 input   59.86 | X-H torsion
[ 10167 10162 10161 10158 ] final  166.88 input  -65.29 | X-H torsion
[ 10718 10713 10712 10709 ] final  -21.85 input   66.30 | X-H torsion
[ 10763 10752 10751 10750 ] final -113.18 input  -60.55 | X-H torsion
[ 11005 11000 10999 10996 ] final    7.38 input  -57.11 | X-H torsion

> <Gold.Protein.ActiveResidues>
 VAL166  LYS551  ARG553  GLY616  TRP617  ASP618  TYR619  PRO620  LYS621  CYS622 
 ASP623  PHE694  ASN695  SER759  ASP760  ASP761  ALA762  ILE779  LEU786  VAL792 
 PHE793  MET794  SER795  GLU796  ALA797  LYS798  CYS799  TRP800  GLU811  SER814 

> <Gold.Protein.RotatedAtoms>
  151.2319  133.4445  159.2603 H   0  0  0  0  0  0  0  0  0  0  0  0  # atno 6907 bound_to 6896
  151.0786  134.9844  159.8355 H   0  0  0  0  0  0  0  0  0  0  0  0  # atno 6908 bound_to 6896
  152.5421  134.2260  159.8859 H   0  0  0  0  0  0  0  0  0  0  0  0  # atno 6909 bound_to 6896
  145.6234  139.2390  143.2126 H   0  0  0  0  0  0  0  0  0  0  0  0  # atno 7974 bound_to 7965
  156.2636  140.2025  156.6307 H   0  0  0  0  0  0  0  0  0  0  0  0  # atno 8008 bound_to 7997
  154.6685  140.0553  157.0164 H   0  0  0  0  0  0  0  0  0  0  0  0  # atno 8009 bound_to 7997
  155.1172  140.3221  155.4509 H   0  0  0  0  0  0  0  0  0  0  0  0  # atno 8010 bound_to 7997
  139.4933  144.3981  151.9441 H   0  0  0  0  0  0  0  0  0  0  0  0  # atno 10167 bound_to 10162
  156.5125  130.4613  149.6640 H   0  0  0  0  0  0  0  0  0  0  0  0  # atno 10718 bound_to 10713
  154.8384  135.4464  154.1308 H   0  0  0  0  0  0  0  0  0  0  0  0  # atno 10763 bound_to 10752
  153.2519  135.6927  153.7676 H   0  0  0  0  0  0  0  0  0  0  0  0  # atno 10764 bound_to 10752
  153.6985  135.3375  155.3195 H   0  0  0  0  0  0  0  0  0  0  0  0  # atno 10765 bound_to 10752
  140.5489  134.0302  155.7930 H   0  0  0  0  0  0  0  0  0  0  0  0  # atno 11005 bound_to 11000
  146.1413  140.7053  142.9365 LP  0  0  0  0  0  0  0  0  0  0  0  0  # atno 17320 bound_to 7965
  144.7222  140.4410  143.6999 LP  0  0  0  0  0  0  0  0  0  0  0  0  # atno 17321 bound_to 7965
  140.3419  144.3193  150.5965 LP  0  0  0  0  0  0  0  0  0  0  0  0  # atno 17342 bound_to 10162
  140.5558  143.2199  151.7849 LP  0  0  0  0  0  0  0  0  0  0  0  0  # atno 17343 bound_to 10162
  156.3227  130.7289  151.2204 LP  0  0  0  0  0  0  0  0  0  0  0  0  # atno 17370 bound_to 10713
  157.7448  131.0451  150.4828 LP  0  0  0  0  0  0  0  0  0  0  0  0  # atno 17371 bound_to 10713
  141.1183  133.9503  157.2779 LP  0  0  0  0  0  0  0  0  0  0  0  0  # atno 17394 bound_to 11000
  139.9465  135.0183  156.8868 LP  0  0  0  0  0  0  0  0  0  0  0  0  # atno 17395 bound_to 11000

$$$$
