AV-unprocessed.smi:3346|AV-procd|sdf|12907|dock2
  -GOLD-   2272019323D 1   1.00000     0.00000
 Structure written by MMmdl.
 48 49  0  0  0  0  0  0  0  0  2 V2000
  153.6549  141.6523  160.9127 C   0  0  0  0  0  0  0  0  0  0  0  0
  152.8513  142.8604  160.4029 C   0  0  0  0  0  0  0  0  0  0  0  0
  152.1120  143.5394  161.5662 C   0  0  0  0  0  0  0  0  0  0  0  0
  151.8528  142.4790  159.2891 C   0  0  0  0  0  0  0  0  0  0  0  0
  151.2814  143.6454  158.4487 C   0  0  2  0  0  0  0  0  0  0  0  0
  150.4787  144.6406  159.3010 C   0  0  0  0  0  0  0  0  0  0  0  0
  150.4081  143.1086  157.3835 N   0  3  0  0  0  0  0  0  0  0  0  0
  151.0718  142.1985  156.4267 C   0  0  0  0  0  0  0  0  0  0  0  0
  150.0424  141.5658  155.5056 C   0  0  0  0  0  0  0  0  0  0  0  0
  149.0373  142.3667  154.9233 C   0  0  0  0  0  0  0  0  0  0  0  0
  148.0775  141.7634  154.0909 C   0  0  0  0  0  0  0  0  0  0  0  0
  148.1598  140.3756  153.8734 C   0  0  0  0  0  0  0  0  0  0  0  0
  149.1146  139.5974  154.4245 N   0  0  0  0  0  0  0  0  0  0  0  0
  150.0423  140.1738  155.2263 C   0  0  0  0  0  0  0  0  0  0  0  0
  151.0358  139.3423  155.7732 N   0  0  0  0  0  0  0  0  0  0  0  0
  150.5577  138.2607  156.6277 C   0  0  0  0  0  0  0  0  0  0  0  0
  151.7521  137.5342  157.2701 C   0  0  0  0  0  0  0  0  0  0  0  0
  152.6265  137.0637  156.2488 O   0  0  0  0  0  0  0  0  0  0  0  0
  153.1490  138.1256  155.4557 C   0  0  0  0  0  0  0  0  0  0  0  0
  151.9952  138.8843  154.7755 C   0  0  0  0  0  0  0  0  0  0  0  0
  152.9967  140.8619  161.2751 H   0  0  0  0  0  0  0  0  0  0  0  0
  154.3114  141.9385  161.7348 H   0  0  0  0  0  0  0  0  0  0  0  0
  154.2885  141.2315  160.1325 H   0  0  0  0  0  0  0  0  0  0  0  0
  153.5570  143.5917  160.0089 H   0  0  0  0  0  0  0  0  0  0  0  0
  151.3815  142.8677  162.0187 H   0  0  0  0  0  0  0  0  0  0  0  0
  151.5795  144.4297  161.2296 H   0  0  0  0  0  0  0  0  0  0  0  0
  152.8065  143.8503  162.3474 H   0  0  0  0  0  0  0  0  0  0  0  0
  152.3446  141.7639  158.6310 H   0  0  0  0  0  0  0  0  0  0  0  0
  151.0183  141.9356  159.7346 H   0  0  0  0  0  0  0  0  0  0  0  0
  152.0904  144.1943  157.9658 H   0  0  0  0  0  0  0  0  0  0  0  0
  151.1108  145.1423  160.0334 H   0  0  0  0  0  0  0  0  0  0  0  0
  149.6710  144.1438  159.8397 H   0  0  0  0  0  0  0  0  0  0  0  0
  150.0339  145.4184  158.6794 H   0  0  0  0  0  0  0  0  0  0  0  0
  149.6437  142.6180  157.8250 H   0  0  0  0  0  0  0  0  0  0  0  0
  151.8039  142.7623  155.8478 H   0  0  0  0  0  0  0  0  0  0  0  0
  151.6294  141.4181  156.9436 H   0  0  0  0  0  0  0  0  0  0  0  0
  148.9979  143.4293  155.1138 H   0  0  0  0  0  0  0  0  0  0  0  0
  147.2953  142.3493  153.6310 H   0  0  0  0  0  0  0  0  0  0  0  0
  147.4401  139.8771  153.2412 H   0  0  0  0  0  0  0  0  0  0  0  0
  149.9018  138.6626  157.4007 H   0  0  0  0  0  0  0  0  0  0  0  0
  149.9722  137.5521  156.0400 H   0  0  0  0  0  0  0  0  0  0  0  0
  152.2925  138.1937  157.9509 H   0  0  0  0  0  0  0  0  0  0  0  0
  151.4037  136.6853  157.8584 H   0  0  0  0  0  0  0  0  0  0  0  0
  153.7465  138.7948  156.0760 H   0  0  0  0  0  0  0  0  0  0  0  0
  153.8191  137.7098  154.7031 H   0  0  0  0  0  0  0  0  0  0  0  0
  151.4906  138.2310  154.0621 H   0  0  0  0  0  0  0  0  0  0  0  0
  152.3869  139.7320  154.2121 H   0  0  0  0  0  0  0  0  0  0  0  0
  150.0288  143.8814  156.8554 H   0  0  0  0  0  0  0  0  0  0  0  0
  1  2  1  0  0  0  0
  1 21  1  0  0  0  0
  1 22  1  0  0  0  0
  1 23  1  0  0  0  0
  2  3  1  0  0  0  0
  2  4  1  0  0  0  0
  2 24  1  0  0  0  0
  3 25  1  0  0  0  0
  3 26  1  0  0  0  0
  3 27  1  0  0  0  0
  4  5  1  0  0  0  0
  4 28  1  0  0  0  0
  4 29  1  0  0  0  0
  5  6  1  0  0  0  0
  5  7  1  0  0  0  0
  5 30  1  0  0  0  0
  6 31  1  0  0  0  0
  6 32  1  0  0  0  0
  6 33  1  0  0  0  0
  7  8  1  0  0  0  0
  7 34  1  0  0  0  0
  7 48  1  0  0  0  0
  8  9  1  0  0  0  0
  8 35  1  0  0  0  0
  8 36  1  0  0  0  0
  9 14  1  0  0  0  0
  9 10  2  0  0  0  0
 10 11  1  0  0  0  0
 10 37  1  0  0  0  0
 11 12  2  0  0  0  0
 11 38  1  0  0  0  0
 12 13  1  0  0  0  0
 12 39  1  0  0  0  0
 13 14  2  0  0  0  0
 14 15  1  0  0  0  0
 15 20  1  0  0  0  0
 15 16  1  0  0  0  0
 16 17  1  0  0  0  0
 16 40  1  0  0  0  0
 16 41  1  0  0  0  0
 17 18  1  0  0  0  0
 17 42  1  0  0  0  0
 17 43  1  0  0  0  0
 18 19  1  0  0  0  0
 19 20  1  0  0  0  0
 19 44  1  0  0  0  0
 19 45  1  0  0  0  0
 20 46  1  0  0  0  0
 20 47  1  0  0  0  0
M  CHG  1   7   1
M  END
> <s_m_source_file>
AV-unprocessed.smi

> <i_m_source_file_index>
3346

> <i_lp_mmshare_version>
43012

> <i_f3d_flags>
0

> <s_epik_input>
W0NIM11bQ0hdKFtDSDNdKVtDSDJdW0NASF0oW0NIM10pW05IXVtDSDJdYzFbY0hdW2NIXVtjSF1uYzFOMltDSDJdW0NIMl1PW0NIMl1bQ0gyXTI=

> <s_epik_cmdline>
J2VwaWtfcHl0aG9uJywgJy1waCcsICc3LjAnLCAnLXRuJywgJzgnLCAnLW1hJywgJzIwMCcsICctbWV0YWxfYmluZGluZycsICctaW1hZScsICc8aW5maWxlLm1hZT4nLCAnLW9tYWUnLCAnPG91dGZpbGUubWFlPic=

> <r_lp_tautomer_probability>
1

> <r_epik_Ionization_Penalty>
0.0185938

> <r_epik_Ionization_Penalty_Charging>
0.0176519

> <r_epik_Ionization_Penalty_Neutral>
0.000941891

> <r_epik_State_Penalty>
0.0140027

> <r_epik_Charging_Adjusted_Penalty>
0.0316546

> <i_epik_Tot_Q>
1

> <i_epik_Tot_abs_Q>
1

> <r_epik_Metal_State_Penalty>
0.0141454

> <b_epik_Metal_Only>
0

> <s_lp_Force_Field>
OPLS_2005

> <r_lp_Energy>
22.6913

> <b_lp_Chiralities_Consistent>
1

> <s_lp_Variant>
AV-unprocessed.smi:3346-1

> <Gold.Version>
5.8.1

> <Gold.Id.Protein>
6NUR|6NUR_protein|mol2

> <Gold.PLP.Fitness>
47.7185

> <Gold.PLP.PLP>
-39.8277

> <Gold.PLP.part.hbond>
-2.0000

> <Gold.PLP.part.metal>
0.0000

> <Gold.PLP.part.buried>
0.0448

> <Gold.PLP.part.nonpolar>
-38.7858

> <Gold.PLP.part.repulsive>
0.1376

> <Gold.PLP.ligand.clash>
0.0000

> <Gold.PLP.ligand.torsion>
0.4125

> <Gold.PLP.Chemscore.Hbond>
2.8160

> <Gold.PLP.Chemscore.CHOScore>
0.0000

> <Gold.PLP.Chemscore.Metal>
0.0000

> <Gold.Chemscore.Hbonds>
donor molecule, donor type, donor heavy atom, donor atom, acceptor molecule, acceptor atom, score
      L1  H     7    48       P1  8028  2.00
      P1  H 10752 10764       L1    18  0.80

> <Gold.PLP.Chemscore.Internal.Correction>
0.2679

> <Gold.Rescore>
     Score         DG    S(hbond)    S(metal)    S(lipo)     H(rot)  DE(clash)    DE(int)     intcor
     18.39     -20.87       1.60        0.00     121.45       1.62       1.60       0.88       ----

> <Gold.Chemscore.Fitness>
18.3910

> <Gold.Chemscore.DG>
-20.8719

> <Gold.Chemscore.ZeroCoef>
-5.4800

> <Gold.Chemscore.Hbond>
1.5993

> <Gold.Chemscore.Metal>
0.0000

> <Gold.Chemscore.Lipo>
121.4517

> <Gold.Chemscore.Internal_Hbond>
0.0000

> <Gold.Chemscore.DEClash>
1.5989

> <Gold.Chemscore.DEInternal>
0.8820

> <Gold.Chemscore.Rot>
1.6248

> <Gold.Chemscore.Internal.Correction>
   9.000000E+99

> <Gold.Chemscore.Hbonds>
donor molecule, donor type, donor heavy atom, donor atom, acceptor molecule, acceptor atom, score
      L1  H     7    48       P1  8028  0.98
      P1  H 10752 10764       L1    18  0.17

> <Gold.Chemscore.Hbond.Weighted>
-5.3416

> <Gold.Chemscore.Metal.Weighted>
-0.0000

> <Gold.Chemscore.Lipo.Weighted>
-14.2098

> <Gold.Chemscore.Internal_Hbond.Weighted>
0.0000

> <Gold.Chemscore.DEClash.Weighted>
1.5989

> <Gold.Chemscore.DEInternal.Weighted>
0.8820

> <Gold.Chemscore.Rot.Weighted>
4.1596

> <Gold.Chemscore.Internal.Correction.Weighted>
   9.000000E+99

> <Gold.Protein.RotatedTorsions>
[ 6907 6896 6895 6894 ] final  -85.00 input  -60.11 | X-H torsion
[ 7974 7965 7964 7962 ] final  -27.30 input  175.53 | X-H torsion
[ 8008 7997 7996 7995 ] final   45.92 input   59.86 | X-H torsion
[ 10167 10162 10161 10158 ] final  113.12 input  -65.29 | X-H torsion
[ 10718 10713 10712 10709 ] final  -82.75 input   66.30 | X-H torsion
[ 10763 10752 10751 10750 ] final  -23.99 input  -60.55 | X-H torsion
[ 11005 11000 10999 10996 ] final  141.77 input  -57.11 | X-H torsion

> <Gold.Protein.ActiveResidues>
 VAL166  LYS551  ARG553  GLY616  TRP617  ASP618  TYR619  PRO620  LYS621  CYS622 
 ASP623  PHE694  ASN695  SER759  ASP760  ASP761  ALA762  ILE779  LEU786  VAL792 
 PHE793  MET794  SER795  GLU796  ALA797  LYS798  CYS799  TRP800  GLU811  SER814 

> <Gold.Protein.RotatedAtoms>
  150.6873  134.3271  159.4811 H   0  0  0  0  0  0  0  0  0  0  0  0  # atno 6907 bound_to 6896
  152.1140  134.9251  160.0575 H   0  0  0  0  0  0  0  0  0  0  0  0  # atno 6908 bound_to 6896
  152.0483  133.3973  159.4403 H   0  0  0  0  0  0  0  0  0  0  0  0  # atno 6909 bound_to 6896
  146.1367  140.5134  142.8670 H   0  0  0  0  0  0  0  0  0  0  0  0  # atno 7974 bound_to 7965
  155.3439  140.3409  155.4239 H   0  0  0  0  0  0  0  0  0  0  0  0  # atno 8008 bound_to 7997
  156.1799  140.1660  156.8329 H   0  0  0  0  0  0  0  0  0  0  0  0  # atno 8009 bound_to 7997
  154.5322  140.0743  156.8348 H   0  0  0  0  0  0  0  0  0  0  0  0  # atno 8010 bound_to 7997
  139.6484  144.7127  151.2096 H   0  0  0  0  0  0  0  0  0  0  0  0  # atno 10167 bound_to 10162
  156.0028  130.4644  150.4152 H   0  0  0  0  0  0  0  0  0  0  0  0  # atno 10718 bound_to 10713
  153.6766  135.6969  153.5130 H   0  0  0  0  0  0  0  0  0  0  0  0  # atno 10763 bound_to 10752
  153.2517  135.4273  155.0803 H   0  0  0  0  0  0  0  0  0  0  0  0  # atno 10764 bound_to 10752
  154.8412  135.3533  154.6310 H   0  0  0  0  0  0  0  0  0  0  0  0  # atno 10765 bound_to 10752
  140.0427  134.9297  157.0872 H   0  0  0  0  0  0  0  0  0  0  0  0  # atno 11005 bound_to 11000
  144.7747  140.5714  143.6646 LP  0  0  0  0  0  0  0  0  0  0  0  0  # atno 17320 bound_to 7965
  145.5140  139.1478  143.3589 LP  0  0  0  0  0  0  0  0  0  0  0  0  # atno 17321 bound_to 7965
  140.7526  143.6191  150.8531 LP  0  0  0  0  0  0  0  0  0  0  0  0  # atno 17342 bound_to 10162
  139.9836  143.5924  152.2934 LP  0  0  0  0  0  0  0  0  0  0  0  0  # atno 17343 bound_to 10162
  157.2212  131.0483  151.2545 LP  0  0  0  0  0  0  0  0  0  0  0  0  # atno 17370 bound_to 10713
  157.3798  130.7225  149.6622 LP  0  0  0  0  0  0  0  0  0  0  0  0  # atno 17371 bound_to 10713
  140.4044  134.2048  155.7163 LP  0  0  0  0  0  0  0  0  0  0  0  0  # atno 17394 bound_to 11000
  141.1891  133.8246  157.0970 LP  0  0  0  0  0  0  0  0  0  0  0  0  # atno 17395 bound_to 11000

$$$$
