AV-unprocessed.smi:311|AV-procd|sdf|2299|dock10
  -GOLD-   2262022203D 1   1.00000     0.00000
 Structure written by MMmdl.
 44 46  0  0  0  0  0  0  0  0  2 V2000
  150.6154  133.8343  155.6813 C   0  0  0  0  0  0  0  0  0  0  0  0
  150.5824  132.5323  156.4285 C   0  0  0  0  0  0  0  0  0  0  0  0
  150.7067  132.5304  157.7451 N   0  0  0  0  0  0  0  0  0  0  0  0
  150.6451  131.1890  158.1343 O   0  0  0  0  0  0  0  0  0  0  0  0
  150.4814  130.4271  157.0235 C   0  0  0  0  0  0  0  0  0  0  0  0
  150.4075  128.9524  157.2322 C   0  0  0  0  0  0  0  0  0  0  0  0
  150.4324  131.2157  155.9062 C   0  0  0  0  0  0  0  0  0  0  0  0
  150.2751  130.8056  154.4644 C   0  0  0  0  0  0  0  0  0  0  0  0
  148.8098  130.4622  154.2031 C   0  0  0  0  0  0  0  0  0  0  0  0
  148.2383  129.6274  154.9039 O   0  0  0  0  0  0  0  0  0  0  0  0
  148.2044  131.1437  153.2187 N   0  0  0  0  0  0  0  0  0  0  0  0
  146.7814  131.0773  152.9054 C   0  0  2  0  0  0  0  0  0  0  0  0
  146.3414  129.7037  152.3702 C   0  0  0  0  0  0  0  0  0  0  0  0
  145.2888  130.0077  151.2848 C   0  0  0  0  0  0  0  0  0  0  0  0
  145.1257  131.4746  151.2942 N   0  3  2  0  0  0  0  0  0  0  0  0
  144.6513  132.1093  150.0451 C   0  0  0  0  0  0  0  0  0  0  0  0
  144.4719  133.6230  150.2793 C   0  0  0  0  0  0  0  0  0  0  0  0
  145.7495  134.2696  150.8529 C   0  0  0  0  0  0  0  0  0  0  0  0
  146.2467  133.5106  152.0982 C   0  0  0  0  0  0  0  0  0  0  0  0
  146.4095  132.0196  151.7590 C   0  0  1  0  0  0  0  0  0  0  0  0
  151.2420  133.7581  154.7926 H   0  0  0  0  0  0  0  0  0  0  0  0
  151.0128  134.6429  156.2955 H   0  0  0  0  0  0  0  0  0  0  0  0
  149.6151  134.1225  155.3587 H   0  0  0  0  0  0  0  0  0  0  0  0
  149.8230  128.4759  156.4453 H   0  0  0  0  0  0  0  0  0  0  0  0
  149.9402  128.7164  158.1884 H   0  0  0  0  0  0  0  0  0  0  0  0
  151.4052  128.5139  157.2251 H   0  0  0  0  0  0  0  0  0  0  0  0
  150.5977  131.5974  153.7869 H   0  0  0  0  0  0  0  0  0  0  0  0
  150.8874  129.9356  154.2254 H   0  0  0  0  0  0  0  0  0  0  0  0
  148.7590  131.8034  152.6920 H   0  0  0  0  0  0  0  0  0  0  0  0
  146.1773  131.3139  153.7842 H   0  0  0  0  0  0  0  0  0  0  0  0
  147.1792  129.1633  151.9272 H   0  0  0  0  0  0  0  0  0  0  0  0
  145.9357  129.0809  153.1684 H   0  0  0  0  0  0  0  0  0  0  0  0
  145.6505  129.6743  150.3108 H   0  0  0  0  0  0  0  0  0  0  0  0
  144.3363  129.5139  151.4792 H   0  0  0  0  0  0  0  0  0  0  0  0
  145.3669  131.9293  149.2413 H   0  0  0  0  0  0  0  0  0  0  0  0
  143.7049  131.6601  149.7423 H   0  0  0  0  0  0  0  0  0  0  0  0
  144.1903  134.1147  149.3476 H   0  0  0  0  0  0  0  0  0  0  0  0
  143.6461  133.7849  150.9734 H   0  0  0  0  0  0  0  0  0  0  0  0
  146.5301  134.2663  150.0910 H   0  0  0  0  0  0  0  0  0  0  0  0
  145.5637  135.3153  151.0998 H   0  0  0  0  0  0  0  0  0  0  0  0
  147.1952  133.9308  152.4344 H   0  0  0  0  0  0  0  0  0  0  0  0
  145.5389  133.6352  152.9189 H   0  0  0  0  0  0  0  0  0  0  0  0
  147.1424  131.9106  150.9560 H   0  0  0  0  0  0  0  0  0  0  0  0
  144.4498  131.6848  152.0149 H   0  0  0  0  0  0  0  0  0  0  0  0
  1  2  1  0  0  0  0
  1 21  1  0  0  0  0
  1 22  1  0  0  0  0
  1 23  1  0  0  0  0
  2  7  1  0  0  0  0
  2  3  2  0  0  0  0
  3  4  1  0  0  0  0
  4  5  1  0  0  0  0
  5  6  1  0  0  0  0
  5  7  2  0  0  0  0
  6 24  1  0  0  0  0
  6 25  1  0  0  0  0
  6 26  1  0  0  0  0
  7  8  1  0  0  0  0
  8  9  1  0  0  0  0
  8 27  1  0  0  0  0
  8 28  1  0  0  0  0
  9 10  2  0  0  0  0
  9 11  1  0  0  0  0
 11 12  1  0  0  0  0
 11 29  1  0  0  0  0
 12 20  1  0  0  0  0
 12 13  1  0  0  0  0
 12 30  1  0  0  0  0
 13 14  1  0  0  0  0
 13 31  1  0  0  0  0
 13 32  1  0  0  0  0
 14 15  1  0  0  0  0
 14 33  1  0  0  0  0
 14 34  1  0  0  0  0
 15 20  1  0  0  0  0
 15 16  1  0  0  0  0
 15 44  1  0  0  0  0
 16 17  1  0  0  0  0
 16 35  1  0  0  0  0
 16 36  1  0  0  0  0
 17 18  1  0  0  0  0
 17 37  1  0  0  0  0
 17 38  1  0  0  0  0
 18 19  1  0  0  0  0
 18 39  1  0  0  0  0
 18 40  1  0  0  0  0
 19 20  1  0  0  0  0
 19 41  1  0  0  0  0
 19 42  1  0  0  0  0
 20 43  1  0  0  0  0
M  CHG  1  15   1
M  END
> <s_m_source_file>
AV-unprocessed.smi

> <i_m_source_file_index>
311

> <i_lp_mmshare_version>
43012

> <i_f3d_flags>
0

> <s_epik_input>
W0NIM11jMW5vYyhbQ0gzXSljMVtDSDJdQyg9TylbTkhdW0NASF0oW0NIMl1bQ0gyXTIpW0NAQEhdKE4yMylbQ0gyXVtDSDJdW0NIMl1bQ0gyXTM=

> <s_epik_cmdline>
J2VwaWtfcHl0aG9uJywgJy1waCcsICc3LjAnLCAnLXRuJywgJzgnLCAnLW1hJywgJzIwMCcsICctbWV0YWxfYmluZGluZycsICctaW1hZScsICc8aW5maWxlLm1hZT4nLCAnLW9tYWUnLCAnPG91dGZpbGUubWFlPic=

> <r_epik_Ionization_Penalty>
0.00173669

> <r_epik_Ionization_Penalty_Charging>
0.0017366

> <r_epik_Ionization_Penalty_Neutral>
9.2145e-08

> <r_epik_State_Penalty>
0.00117499

> <r_epik_Charging_Adjusted_Penalty>
0.00291159

> <i_epik_Tot_Q>
1

> <i_epik_Tot_abs_Q>
1

> <r_epik_Metal_State_Penalty>
-0

> <b_epik_Metal_Only>
0

> <s_lp_Force_Field>
OPLS_2005

> <r_lp_Energy>
27.517

> <b_lp_Chiralities_Consistent>
1

> <s_lp_Variant>
AV-unprocessed.smi:311-3

> <Gold.Version>
5.8.1

> <Gold.Id.Protein>
6NUR|6NUR_protein|mol2

> <Gold.PLP.Fitness>
32.5662

> <Gold.PLP.PLP>
-30.1016

> <Gold.PLP.part.hbond>
-2.0000

> <Gold.PLP.part.metal>
0.0000

> <Gold.PLP.part.buried>
-4.6353

> <Gold.PLP.part.nonpolar>
-22.4221

> <Gold.PLP.part.repulsive>
0.0580

> <Gold.PLP.ligand.clash>
0.0000

> <Gold.PLP.ligand.torsion>
0.2745

> <Gold.PLP.Chemscore.Hbond>
1.0000

> <Gold.PLP.Chemscore.CHOScore>
0.0000

> <Gold.PLP.Chemscore.Metal>
0.0000

> <Gold.Chemscore.Hbonds>
donor molecule, donor type, donor heavy atom, donor atom, acceptor molecule, acceptor atom, score
      P1  H  6896  6909       L1     3  1.00

> <Gold.PLP.Chemscore.Internal.Correction>
0.0134

> <Gold.Rescore>
     Score         DG    S(hbond)    S(metal)    S(lipo)     H(rot)  DE(clash)    DE(int)     intcor
     14.75     -15.07       0.99        0.00      83.36       1.36       0.12       0.20       ----

> <Gold.Chemscore.Fitness>
14.7526

> <Gold.Chemscore.DG>
-15.0725

> <Gold.Chemscore.ZeroCoef>
-5.4800

> <Gold.Chemscore.Hbond>
0.9916

> <Gold.Chemscore.Metal>
0.0000

> <Gold.Chemscore.Lipo>
83.3634

> <Gold.Chemscore.Internal_Hbond>
0.0000

> <Gold.Chemscore.DEClash>
0.1191

> <Gold.Chemscore.DEInternal>
0.2007

> <Gold.Chemscore.Rot>
1.3567

> <Gold.Chemscore.Internal.Correction>
   9.000000E+99

> <Gold.Chemscore.Hbonds>
donor molecule, donor type, donor heavy atom, donor atom, acceptor molecule, acceptor atom, score
      P1  H  6896  6909       L1     3  0.50

> <Gold.Chemscore.Hbond.Weighted>
-3.3120

> <Gold.Chemscore.Metal.Weighted>
-0.0000

> <Gold.Chemscore.Lipo.Weighted>
-9.7535

> <Gold.Chemscore.Internal_Hbond.Weighted>
0.0000

> <Gold.Chemscore.DEClash.Weighted>
0.1191

> <Gold.Chemscore.DEInternal.Weighted>
0.2007

> <Gold.Chemscore.Rot.Weighted>
3.4731

> <Gold.Chemscore.Internal.Correction.Weighted>
   9.000000E+99

> <Gold.Protein.RotatedTorsions>
[ 6907 6896 6895 6894 ] final  -32.76 input  -60.11 | X-H torsion
[ 7974 7965 7964 7962 ] final   54.41 input  175.53 | X-H torsion
[ 8008 7997 7996 7995 ] final -175.65 input   59.86 | X-H torsion
[ 10167 10162 10161 10158 ] final   54.80 input  -65.29 | X-H torsion
[ 10718 10713 10712 10709 ] final  -29.52 input   66.30 | X-H torsion
[ 10763 10752 10751 10750 ] final   18.94 input  -60.55 | X-H torsion
[ 11005 11000 10999 10996 ] final   -7.12 input  -57.11 | X-H torsion

> <Gold.Protein.ActiveResidues>
 VAL166  LYS551  ARG553  GLY616  TRP617  ASP618  TYR619  PRO620  LYS621  CYS622 
 ASP623  PHE694  ASN695  SER759  ASP760  ASP761  ALA762  ILE779  LEU786  VAL792 
 PHE793  MET794  SER795  GLU796  ALA797  LYS798  CYS799  TRP800  GLU811  SER814 

> <Gold.Protein.RotatedAtoms>
  151.0745  134.9819  159.8324 H   0  0  0  0  0  0  0  0  0  0  0  0  # atno 6907 bound_to 6896
  152.5412  134.2258  159.8815 H   0  0  0  0  0  0  0  0  0  0  0  0  # atno 6908 bound_to 6896
  151.2285  133.4420  159.2636 H   0  0  0  0  0  0  0  0  0  0  0  0  # atno 6909 bound_to 6896
  145.9611  139.4060  143.0247 H   0  0  0  0  0  0  0  0  0  0  0  0  # atno 7974 bound_to 7965
  155.9852  140.1190  157.0690 H   0  0  0  0  0  0  0  0  0  0  0  0  # atno 8008 bound_to 7997
  154.4194  140.1136  156.5558 H   0  0  0  0  0  0  0  0  0  0  0  0  # atno 8009 bound_to 7997
  155.6417  140.3473  155.4719 H   0  0  0  0  0  0  0  0  0  0  0  0  # atno 8010 bound_to 7997
  140.2263  144.3735  150.6431 H   0  0  0  0  0  0  0  0  0  0  0  0  # atno 10167 bound_to 10162
  156.4114  130.4409  149.7249 H   0  0  0  0  0  0  0  0  0  0  0  0  # atno 10718 bound_to 10713
  153.1205  135.6718  153.9344 H   0  0  0  0  0  0  0  0  0  0  0  0  # atno 10763 bound_to 10752
  153.8861  135.3052  155.3448 H   0  0  0  0  0  0  0  0  0  0  0  0  # atno 10764 bound_to 10752
  154.7617  135.4985  153.9556 H   0  0  0  0  0  0  0  0  0  0  0  0  # atno 10765 bound_to 10752
  140.7094  133.8922  155.8740 H   0  0  0  0  0  0  0  0  0  0  0  0  # atno 11005 bound_to 11000
  145.8038  140.9758  143.0985 LP  0  0  0  0  0  0  0  0  0  0  0  0  # atno 17320 bound_to 7965
  144.6815  139.9835  143.7483 LP  0  0  0  0  0  0  0  0  0  0  0  0  # atno 17321 bound_to 7965
  140.6218  143.2177  151.6678 LP  0  0  0  0  0  0  0  0  0  0  0  0  # atno 17342 bound_to 10162
  139.5126  144.3471  152.0687 LP  0  0  0  0  0  0  0  0  0  0  0  0  # atno 17343 bound_to 10162
  156.4226  130.7776  151.2794 LP  0  0  0  0  0  0  0  0  0  0  0  0  # atno 17370 bound_to 10713
  157.7507  131.0178  150.3600 LP  0  0  0  0  0  0  0  0  0  0  0  0  # atno 17371 bound_to 10713
  141.0097  134.1037  157.4234 LP  0  0  0  0  0  0  0  0  0  0  0  0  # atno 17394 bound_to 11000
  139.8876  135.0091  156.6568 LP  0  0  0  0  0  0  0  0  0  0  0  0  # atno 17395 bound_to 11000

$$$$
