AV-unprocessed.smi:113|AV-procd|sdf|1106|dock2
  -GOLD-   2262018223D 1   1.00000     0.00000
 Structure written by MMmdl.
 53 56  0  0  0  0  0  0  0  0  2 V2000
  149.2444  141.3326  154.4630 C   0  0  0  0  0  0  0  0  0  0  0  0
  150.0992  141.2001  155.7056 C   0  0  0  0  0  0  0  0  0  0  0  0
  150.5114  139.9486  156.2028 C   0  0  0  0  0  0  0  0  0  0  0  0
  151.3125  139.8801  157.3697 C   0  0  0  0  0  0  0  0  0  0  0  0
  151.7719  138.5327  157.9370 C   0  0  0  0  0  0  0  0  0  0  0  0
  150.8637  137.4059  157.7767 N   0  0  0  0  0  0  0  0  0  0  0  0
  149.7683  137.3053  158.6683 C   0  0  0  0  0  0  0  0  0  0  0  0
  149.5868  138.1353  159.5616 O   0  0  0  0  0  0  0  0  0  0  0  0
  148.9012  136.1434  158.4593 C   0  0  0  0  0  0  0  0  0  0  0  0
  147.6973  135.9747  159.3728 C   0  0  0  0  0  0  0  0  0  0  0  0
  149.1883  135.2566  157.4762 C   0  0  0  0  0  0  0  0  0  0  0  0
  150.2793  135.3698  156.6281 N   0  0  0  0  0  0  0  0  0  0  0  0
  150.5783  134.3401  155.5549 C   0  0  1  0  0  0  0  0  0  0  0  0
  150.7891  132.9607  156.1801 C   0  0  0  0  0  0  0  0  0  0  0  0
  149.3802  132.4061  156.1698 C   0  0  2  0  0  0  0  0  0  0  0  0
  149.3790  130.9939  156.2343 O   0  0  0  0  0  0  0  0  0  0  0  0
  148.7896  133.0009  154.8780 C   0  0  2  0  0  0  0  0  0  0  0  0
  148.9899  132.1617  153.5998 C   0  0  0  0  0  0  0  0  0  0  0  0
  148.4200  132.8090  152.4815 O   0  0  0  0  0  0  0  0  0  0  0  0
  149.4916  134.2318  154.6815 O   0  0  0  0  0  0  0  0  0  0  0  0
  151.1609  136.4609  156.7700 C   0  0  0  0  0  0  0  0  0  0  0  0
  152.1598  136.5663  156.0540 O   0  0  0  0  0  0  0  0  0  0  0  0
  151.6830  141.0970  158.0052 C   0  0  0  0  0  0  0  0  0  0  0  0
  152.4846  141.1248  159.1717 C   0  0  0  0  0  0  0  0  0  0  0  0
  152.8333  142.3511  159.7710 C   0  0  0  0  0  0  0  0  0  0  0  0
  152.3866  143.5648  159.2164 C   0  0  0  0  0  0  0  0  0  0  0  0
  151.5875  143.5556  158.0582 C   0  0  0  0  0  0  0  0  0  0  0  0
  151.2386  142.3303  157.4562 C   0  0  0  0  0  0  0  0  0  0  0  0
  150.4740  142.3276  156.3435 N   0  3  0  0  0  0  0  0  0  0  0  0
  148.7902  140.3774  154.1974 H   0  0  0  0  0  0  0  0  0  0  0  0
  149.8510  141.6682  153.6216 H   0  0  0  0  0  0  0  0  0  0  0  0
  148.4433  142.0552  154.6219 H   0  0  0  0  0  0  0  0  0  0  0  0
  150.2067  139.0542  155.6802 H   0  0  0  0  0  0  0  0  0  0  0  0
  152.7290  138.2464  157.4979 H   0  0  0  0  0  0  0  0  0  0  0  0
  151.9834  138.6262  159.0034 H   0  0  0  0  0  0  0  0  0  0  0  0
  147.1161  135.0874  159.1202 H   0  0  0  0  0  0  0  0  0  0  0  0
  147.0356  136.8382  159.2956 H   0  0  0  0  0  0  0  0  0  0  0  0
  148.0170  135.8789  160.4109 H   0  0  0  0  0  0  0  0  0  0  0  0
  148.5239  134.4137  157.3642 H   0  0  0  0  0  0  0  0  0  0  0  0
  151.4450  134.7188  155.0107 H   0  0  0  0  0  0  0  0  0  0  0  0
  151.4430  132.3836  155.5246 H   0  0  0  0  0  0  0  0  0  0  0  0
  151.2407  133.0137  157.1714 H   0  0  0  0  0  0  0  0  0  0  0  0
  148.8333  132.7952  157.0295 H   0  0  0  0  0  0  0  0  0  0  0  0
  148.8037  130.7257  156.9348 H   0  0  0  0  0  0  0  0  0  0  0  0
  147.7289  133.2215  155.0051 H   0  0  0  0  0  0  0  0  0  0  0  0
  150.0547  132.0438  153.3972 H   0  0  0  0  0  0  0  0  0  0  0  0
  148.5738  131.1597  153.7081 H   0  0  0  0  0  0  0  0  0  0  0  0
  148.5541  132.2658  151.7199 H   0  0  0  0  0  0  0  0  0  0  0  0
  152.8467  140.2148  159.6254 H   0  0  0  0  0  0  0  0  0  0  0  0
  153.4472  142.3596  160.6601 H   0  0  0  0  0  0  0  0  0  0  0  0
  152.6578  144.5024  159.6794 H   0  0  0  0  0  0  0  0  0  0  0  0
  151.2474  144.4907  157.6370 H   0  0  0  0  0  0  0  0  0  0  0  0
  150.1652  143.2231  155.9659 H   0  0  0  0  0  0  0  0  0  0  0  0
  1  2  1  0  0  0  0
  1 30  1  0  0  0  0
  1 31  1  0  0  0  0
  1 32  1  0  0  0  0
  2 29  1  0  0  0  0
  2  3  2  0  0  0  0
  3  4  1  0  0  0  0
  3 33  1  0  0  0  0
  4  5  1  0  0  0  0
  4 23  2  0  0  0  0
  5  6  1  0  0  0  0
  5 34  1  0  0  0  0
  5 35  1  0  0  0  0
  6 21  1  0  0  0  0
  6  7  1  0  0  0  0
  7  8  2  0  0  0  0
  7  9  1  0  0  0  0
  9 10  1  0  0  0  0
  9 11  2  0  0  0  0
 10 36  1  0  0  0  0
 10 37  1  0  0  0  0
 10 38  1  0  0  0  0
 11 12  1  0  0  0  0
 11 39  1  0  0  0  0
 12 13  1  0  0  0  0
 12 21  1  0  0  0  0
 13 20  1  0  0  0  0
 13 14  1  0  0  0  0
 13 40  1  0  0  0  0
 14 15  1  0  0  0  0
 14 41  1  0  0  0  0
 14 42  1  0  0  0  0
 15 16  1  0  0  0  0
 15 17  1  0  0  0  0
 15 43  1  0  0  0  0
 16 44  1  0  0  0  0
 17 18  1  0  0  0  0
 17 20  1  0  0  0  0
 17 45  1  0  0  0  0
 18 19  1  0  0  0  0
 18 46  1  0  0  0  0
 18 47  1  0  0  0  0
 19 48  1  0  0  0  0
 21 22  2  0  0  0  0
 23 28  1  0  0  0  0
 23 24  1  0  0  0  0
 24 25  2  0  0  0  0
 24 49  1  0  0  0  0
 25 26  1  0  0  0  0
 25 50  1  0  0  0  0
 26 27  2  0  0  0  0
 26 51  1  0  0  0  0
 27 28  1  0  0  0  0
 27 52  1  0  0  0  0
 28 29  2  0  0  0  0
 29 53  1  0  0  0  0
M  CHG  1  29   1
M  END
> <s_m_source_file>
AV-unprocessed.smi

> <i_m_source_file_index>
113

> <i_lp_mmshare_version>
43012

> <i_f3d_flags>
0

> <s_epik_input>
W2NIXTFbY0hdW2NIXVtjSF1jKGMxMiluYyhbQ0gzXSlbY0hdYzJbQ0gyXW4zYyg9TyljKFtDSDNdKVtjSF1uKGMzPU8pW0NAQEhdNFtDSDJdW0NAQEhdKFtPSF0pW0NASF0oTzQpW0NIMl1bT0hd

> <s_epik_cmdline>
J2VwaWtfcHl0aG9uJywgJy1waCcsICc3LjAnLCAnLXRuJywgJzgnLCAnLW1hJywgJzIwMCcsICctbWV0YWxfYmluZGluZycsICctaW1hZScsICc8aW5maWxlLm1hZT4nLCAnLW9tYWUnLCAnPG91dGZpbGUubWFlPic=

> <r_lp_tautomer_probability>
1

> <r_epik_Ionization_Penalty>
0.705471

> <r_epik_Ionization_Penalty_Charging>
0.70547

> <r_epik_Ionization_Penalty_Neutral>
1.19947e-07

> <r_epik_State_Penalty>
0.728574

> <r_epik_Charging_Adjusted_Penalty>
1.43404

> <i_epik_Tot_Q>
1

> <i_epik_Tot_abs_Q>
1

> <r_epik_Metal_State_Penalty>
4.61665

> <b_epik_Metal_Only>
0

> <s_epik_Chemistry_Notes>
This compound contains an acetal/aminal-like group ( X-CH(R)-Y where X, Y are N, S, or O) that may be acid/base labile, releasing an aldehyde.

> <s_lp_Force_Field>
OPLS_2005

> <r_lp_Energy>
45.4749

> <b_lp_Chiralities_Consistent>
1

> <s_lp_Variant>
AV-unprocessed.smi:113-16

> <Gold.Version>
5.8.1

> <Gold.Id.Protein>
6NUR|6NUR_protein|mol2

> <Gold.PLP.Fitness>
58.8956

> <Gold.PLP.PLP>
-48.1092

> <Gold.PLP.part.hbond>
-4.3229

> <Gold.PLP.part.metal>
0.0000

> <Gold.PLP.part.buried>
-5.5405

> <Gold.PLP.part.nonpolar>
-38.3582

> <Gold.PLP.part.repulsive>
0.2723

> <Gold.PLP.ligand.clash>
0.0000

> <Gold.PLP.ligand.torsion>
0.6196

> <Gold.PLP.Chemscore.Hbond>
4.0000

> <Gold.PLP.Chemscore.CHOScore>
0.0000

> <Gold.PLP.Chemscore.Metal>
0.0000

> <Gold.Chemscore.Hbonds>
donor molecule, donor type, donor heavy atom, donor atom, acceptor molecule, acceptor atom, score
      L1  H    19    48       P1 10747  0.96
      L1  H    29    53       P1  8028  2.00
      P1  H 10752 10764       L1    22  1.00

> <Gold.PLP.Chemscore.Internal.Correction>
0.0257

> <Gold.Rescore>
     Score         DG    S(hbond)    S(metal)    S(lipo)     H(rot)  DE(clash)    DE(int)     intcor
     20.90     -21.54       2.96        0.00     118.57       3.01       0.03       0.61       ----

> <Gold.Chemscore.Fitness>
20.9029

> <Gold.Chemscore.DG>
-21.5447

> <Gold.Chemscore.ZeroCoef>
-5.4800

> <Gold.Chemscore.Hbond>
2.9649

> <Gold.Chemscore.Metal>
0.0000

> <Gold.Chemscore.Lipo>
118.5690

> <Gold.Chemscore.Internal_Hbond>
0.0000

> <Gold.Chemscore.DEClash>
0.0308

> <Gold.Chemscore.DEInternal>
0.6110

> <Gold.Chemscore.Rot>
3.0120

> <Gold.Chemscore.Internal.Correction>
   9.000000E+99

> <Gold.Chemscore.Hbonds>
donor molecule, donor type, donor heavy atom, donor atom, acceptor molecule, acceptor atom, score
      L1  H    19    48       P1 10747  0.91
      L1  H    29    53       P1  8028  0.96
      P1  H 10752 10764       L1    22  0.99

> <Gold.Chemscore.Hbond.Weighted>
-9.9029

> <Gold.Chemscore.Metal.Weighted>
-0.0000

> <Gold.Chemscore.Lipo.Weighted>
-13.8726

> <Gold.Chemscore.Internal_Hbond.Weighted>
0.0000

> <Gold.Chemscore.DEClash.Weighted>
0.0308

> <Gold.Chemscore.DEInternal.Weighted>
0.6110

> <Gold.Chemscore.Rot.Weighted>
7.7108

> <Gold.Chemscore.Internal.Correction.Weighted>
   9.000000E+99

> <Gold.Protein.RotatedTorsions>
[ 6907 6896 6895 6894 ] final  -33.73 input  -60.11 | X-H torsion
[ 7974 7965 7964 7962 ] final  -25.36 input  175.53 | X-H torsion
[ 8008 7997 7996 7995 ] final  -66.43 input   59.86 | X-H torsion
[ 10167 10162 10161 10158 ] final  -80.48 input  -65.29 | X-H torsion
[ 10718 10713 10712 10709 ] final -148.69 input   66.30 | X-H torsion
[ 10763 10752 10751 10750 ] final  -40.14 input  -60.55 | X-H torsion
[ 11005 11000 10999 10996 ] final -127.28 input  -57.11 | X-H torsion

> <Gold.Protein.ActiveResidues>
 VAL166  LYS551  ARG553  GLY616  TRP617  ASP618  TYR619  PRO620  LYS621  CYS622 
 ASP623  PHE694  ASN695  SER759  ASP760  ASP761  ALA762  ILE779  LEU786  VAL792 
 PHE793  MET794  SER795  GLU796  ALA797  LYS798  CYS799  TRP800  GLU811  SER814 

> <Gold.Protein.RotatedAtoms>
  151.0618  134.9742  159.8264 H   0  0  0  0  0  0  0  0  0  0  0  0  # atno 6907 bound_to 6896
  152.5396  134.2408  159.8871 H   0  0  0  0  0  0  0  0  0  0  0  0  # atno 6908 bound_to 6896
  151.2428  133.4347  159.2642 H   0  0  0  0  0  0  0  0  0  0  0  0  # atno 6909 bound_to 6896
  146.1496  140.4876  142.8617 H   0  0  0  0  0  0  0  0  0  0  0  0  # atno 7974 bound_to 7965
  154.4734  140.0913  156.7202 H   0  0  0  0  0  0  0  0  0  0  0  0  # atno 8008 bound_to 7997
  155.4662  140.3463  155.4301 H   0  0  0  0  0  0  0  0  0  0  0  0  # atno 8009 bound_to 7997
  156.1077  140.1439  156.9370 H   0  0  0  0  0  0  0  0  0  0  0  0  # atno 8010 bound_to 7997
  140.4499  143.2486  151.8504 H   0  0  0  0  0  0  0  0  0  0  0  0  # atno 10167 bound_to 10162
  156.4235  130.8040  151.2264 H   0  0  0  0  0  0  0  0  0  0  0  0  # atno 10718 bound_to 10713
  153.9411  135.6761  153.4744 H   0  0  0  0  0  0  0  0  0  0  0  0  # atno 10763 bound_to 10752
  153.0931  135.4865  154.8724 H   0  0  0  0  0  0  0  0  0  0  0  0  # atno 10764 bound_to 10752
  154.7376  135.3153  154.8742 H   0  0  0  0  0  0  0  0  0  0  0  0  # atno 10765 bound_to 10752
  140.9612  134.0933  157.3966 H   0  0  0  0  0  0  0  0  0  0  0  0  # atno 11005 bound_to 11000
  144.7887  140.5989  143.6556 LP  0  0  0  0  0  0  0  0  0  0  0  0  # atno 17320 bound_to 7965
  145.4856  139.1492  143.3738 LP  0  0  0  0  0  0  0  0  0  0  0  0  # atno 17321 bound_to 7965
  139.4796  144.5132  151.8904 LP  0  0  0  0  0  0  0  0  0  0  0  0  # atno 17342 bound_to 10162
  140.4219  144.2231  150.5887 LP  0  0  0  0  0  0  0  0  0  0  0  0  # atno 17343 bound_to 10162
  157.7508  131.0220  150.3776 LP  0  0  0  0  0  0  0  0  0  0  0  0  # atno 17370 bound_to 10713
  156.4098  130.3932  149.6899 LP  0  0  0  0  0  0  0  0  0  0  0  0  # atno 17371 bound_to 10713
  139.8879  135.0093  156.6587 LP  0  0  0  0  0  0  0  0  0  0  0  0  # atno 17394 bound_to 11000
  140.7464  133.8934  155.8315 LP  0  0  0  0  0  0  0  0  0  0  0  0  # atno 17395 bound_to 11000

$$$$
