AV-unprocessed.smi:3312|AV-procd|sdf|12728|dock8
  -GOLD-   2272019 73D 1   1.00000     0.00000
 Structure written by MMmdl.
 38 39  0  0  0  0  0  0  0  0  1 V2000
  144.1048  132.1879  150.3673 C   0  0  0  0  0  0  0  0  0  0  0  0
  145.3023  132.6671  151.1363 C   0  0  0  0  0  0  0  0  0  0  0  0
  146.0431  133.8679  150.9437 C   0  0  0  0  0  0  0  0  0  0  0  0
  147.0502  133.9928  151.7925 N   0  0  0  0  0  0  0  0  0  0  0  0
  146.9910  132.8789  152.5523 N   0  0  0  0  0  0  0  0  0  0  0  0
  147.9642  132.6723  153.6106 C   0  0  0  0  0  0  0  0  0  0  0  0
  148.0404  133.8591  154.5865 C   0  0  0  0  0  0  0  0  0  0  0  0
  149.1141  134.7675  154.1938 N   0  0  0  0  0  0  0  0  0  0  0  0
  149.2346  135.9306  155.0898 C   0  0  0  0  0  0  0  0  0  0  0  0
  150.6635  136.4814  155.2771 C   0  0  0  0  0  0  0  0  0  0  0  0
  151.5191  135.7641  155.7989 O   0  0  0  0  0  0  0  0  0  0  0  0
  150.9451  137.7354  154.8474 N   0  0  0  0  0  0  0  0  0  0  0  0
  152.2446  138.3822  155.0525 C   0  0  0  0  0  0  0  0  0  0  0  0
  152.0354  139.6124  155.9545 C   0  0  0  0  0  0  0  0  0  0  0  0
  151.0891  140.4951  155.3555 O   0  0  0  0  0  0  0  0  0  0  0  0
  149.8246  139.8820  155.1141 C   0  0  0  0  0  0  0  0  0  0  0  0
  150.0121  138.6607  154.1968 C   0  0  0  0  0  0  0  0  0  0  0  0
  145.9433  132.0633  152.1807 C   0  0  0  0  0  0  0  0  0  0  0  0
  143.5822  133.0104  149.8785 H   0  0  0  0  0  0  0  0  0  0  0  0
  143.3828  131.6887  151.0140 H   0  0  0  0  0  0  0  0  0  0  0  0
  144.3858  131.4775  149.5896 H   0  0  0  0  0  0  0  0  0  0  0  0
  145.8792  134.6489  150.2158 H   0  0  0  0  0  0  0  0  0  0  0  0
  147.6905  131.7657  154.1517 H   0  0  0  0  0  0  0  0  0  0  0  0
  148.9401  132.4829  153.1613 H   0  0  0  0  0  0  0  0  0  0  0  0
  147.0886  134.3922  154.6028 H   0  0  0  0  0  0  0  0  0  0  0  0
  148.2075  133.4785  155.5937 H   0  0  0  0  0  0  0  0  0  0  0  0
  148.9510  135.0598  153.2409 H   0  0  0  0  0  0  0  0  0  0  0  0
  148.6230  136.7352  154.6806 H   0  0  0  0  0  0  0  0  0  0  0  0
  148.8039  135.6654  156.0561 H   0  0  0  0  0  0  0  0  0  0  0  0
  152.9854  137.7202  155.5026 H   0  0  0  0  0  0  0  0  0  0  0  0
  152.6554  138.6860  154.0886 H   0  0  0  0  0  0  0  0  0  0  0  0
  151.6897  139.3128  156.9452 H   0  0  0  0  0  0  0  0  0  0  0  0
  152.9767  140.1447  156.0919 H   0  0  0  0  0  0  0  0  0  0  0  0
  149.3621  139.5923  156.0591 H   0  0  0  0  0  0  0  0  0  0  0  0
  149.1638  140.6101  154.6438 H   0  0  0  0  0  0  0  0  0  0  0  0
  150.4325  138.9761  153.2408 H   0  0  0  0  0  0  0  0  0  0  0  0
  149.0452  138.2222  153.9575 H   0  0  0  0  0  0  0  0  0  0  0  0
  145.7449  131.1281  152.6833 H   0  0  0  0  0  0  0  0  0  0  0  0
  1  2  1  0  0  0  0
  1 19  1  0  0  0  0
  1 20  1  0  0  0  0
  1 21  1  0  0  0  0
  2 18  2  0  0  0  0
  2  3  1  0  0  0  0
  3  4  2  0  0  0  0
  3 22  1  0  0  0  0
  4  5  1  0  0  0  0
  5  6  1  0  0  0  0
  5 18  1  0  0  0  0
  6  7  1  0  0  0  0
  6 23  1  0  0  0  0
  6 24  1  0  0  0  0
  7  8  1  0  0  0  0
  7 25  1  0  0  0  0
  7 26  1  0  0  0  0
  8  9  1  0  0  0  0
  8 27  1  0  0  0  0
  9 10  1  0  0  0  0
  9 28  1  0  0  0  0
  9 29  1  0  0  0  0
 10 11  2  0  0  0  0
 10 12  1  0  0  0  0
 12 17  1  0  0  0  0
 12 13  1  0  0  0  0
 13 14  1  0  0  0  0
 13 30  1  0  0  0  0
 13 31  1  0  0  0  0
 14 15  1  0  0  0  0
 14 32  1  0  0  0  0
 14 33  1  0  0  0  0
 15 16  1  0  0  0  0
 16 17  1  0  0  0  0
 16 34  1  0  0  0  0
 16 35  1  0  0  0  0
 17 36  1  0  0  0  0
 17 37  1  0  0  0  0
 18 38  1  0  0  0  0
M  END
> <s_m_source_file>
AV-unprocessed.smi

> <i_m_source_file_index>
3312

> <i_lp_mmshare_version>
43012

> <i_f3d_flags>
0

> <s_epik_input>
W0NIM11jMVtjSF1ubihbY0hdMSlbQ0gyXVtDSDJdW05IXVtDSDJdQyg9TylOMltDSDJdW0NIMl1PW0NIMl1bQ0gyXTI=

> <s_epik_cmdline>
J2VwaWtfcHl0aG9uJywgJy1waCcsICc3LjAnLCAnLXRuJywgJzgnLCAnLW1hJywgJzIwMCcsICctbWV0YWxfYmluZGluZycsICctaW1hZScsICc8aW5maWxlLm1hZT4nLCAnLW9tYWUnLCAnPG91dGZpbGUubWFlPic=

> <r_lp_tautomer_probability>
1

> <r_epik_Ionization_Penalty>
0.513825

> <r_epik_Ionization_Penalty_Charging>
0

> <r_epik_Ionization_Penalty_Neutral>
0.513825

> <r_epik_State_Penalty>
0.518565

> <r_epik_Charging_Adjusted_Penalty>
0.518565

> <i_epik_Tot_Q>
0

> <i_epik_Tot_abs_Q>
0

> <r_epik_Metal_State_Penalty>
0.515505

> <b_epik_Metal_Only>
0

> <s_lp_Force_Field>
OPLS_2005

> <r_lp_Energy>
26.2636

> <b_lp_Chiralities_Consistent>
1

> <s_lp_Variant>
AV-unprocessed.smi:3312-2

> <Gold.Version>
5.8.1

> <Gold.Id.Protein>
6NUR|6NUR_protein|mol2

> <Gold.PLP.Fitness>
45.5174

> <Gold.PLP.PLP>
-34.6670

> <Gold.PLP.part.hbond>
-3.0000

> <Gold.PLP.part.metal>
0.0000

> <Gold.PLP.part.buried>
-2.9980

> <Gold.PLP.part.nonpolar>
-29.0574

> <Gold.PLP.part.repulsive>
1.5697

> <Gold.PLP.ligand.clash>
0.0000

> <Gold.PLP.ligand.torsion>
0.4993

> <Gold.PLP.Chemscore.Hbond>
2.9420

> <Gold.PLP.Chemscore.CHOScore>
1.0000

> <Gold.PLP.Chemscore.Metal>
0.0000

> <Gold.Chemscore.Hbonds>
donor molecule, donor type, donor heavy atom, donor atom, acceptor molecule, acceptor atom, score
      L1  H     8    27       P1  7948  1.00
      P1  H  7989  7998       L1    15  0.94
      P1  H 10752 10765       L1    11  1.00
      L1  C     3    22       P1  7921  0.84

> <Gold.PLP.Chemscore.Internal.Correction>
0.0230

> <Gold.Rescore>
     Score         DG    S(hbond)    S(metal)    S(lipo)     H(rot)  DE(clash)    DE(int)     intcor
     15.29     -15.78       1.89        0.00      73.96       1.82       0.04       0.45       ----

> <Gold.Chemscore.Fitness>
15.2881

> <Gold.Chemscore.DG>
-15.7795

> <Gold.Chemscore.ZeroCoef>
-5.4800

> <Gold.Chemscore.Hbond>
1.8888

> <Gold.Chemscore.Metal>
0.0000

> <Gold.Chemscore.Lipo>
73.9597

> <Gold.Chemscore.Internal_Hbond>
0.0000

> <Gold.Chemscore.DEClash>
0.0428

> <Gold.Chemscore.DEInternal>
0.4485

> <Gold.Chemscore.Rot>
1.8213

> <Gold.Chemscore.Internal.Correction>
   9.000000E+99

> <Gold.Chemscore.Hbonds>
donor molecule, donor type, donor heavy atom, donor atom, acceptor molecule, acceptor atom, score
      L1  H     8    27       P1  7948  0.30
      P1  H  7989  7998       L1    15  0.16
      P1  H 10752 10765       L1    11  0.97

> <Gold.Chemscore.Hbond.Weighted>
-6.3086

> <Gold.Chemscore.Metal.Weighted>
-0.0000

> <Gold.Chemscore.Lipo.Weighted>
-8.6533

> <Gold.Chemscore.Internal_Hbond.Weighted>
0.0000

> <Gold.Chemscore.DEClash.Weighted>
0.0428

> <Gold.Chemscore.DEInternal.Weighted>
0.4485

> <Gold.Chemscore.Rot.Weighted>
4.6624

> <Gold.Chemscore.Internal.Correction.Weighted>
   9.000000E+99

> <Gold.Protein.RotatedTorsions>
[ 6907 6896 6895 6894 ] final  -59.29 input  -60.11 | X-H torsion
[ 7974 7965 7964 7962 ] final   46.11 input  175.53 | X-H torsion
[ 8008 7997 7996 7995 ] final   21.35 input   59.86 | X-H torsion
[ 10167 10162 10161 10158 ] final   81.09 input  -65.29 | X-H torsion
[ 10718 10713 10712 10709 ] final  161.04 input   66.30 | X-H torsion
[ 10763 10752 10751 10750 ] final -157.08 input  -60.55 | X-H torsion
[ 11005 11000 10999 10996 ] final  -86.78 input  -57.11 | X-H torsion

> <Gold.Protein.ActiveResidues>
 VAL166  LYS551  ARG553  GLY616  TRP617  ASP618  TYR619  PRO620  LYS621  CYS622 
 ASP623  PHE694  ASN695  SER759  ASP760  ASP761  ALA762  ILE779  LEU786  VAL792 
 PHE793  MET794  SER795  GLU796  ALA797  LYS798  CYS799  TRP800  GLU811  SER814 

> <Gold.Protein.RotatedAtoms>
  150.7942  134.6988  159.6538 H   0  0  0  0  0  0  0  0  0  0  0  0  # atno 6907 bound_to 6896
  152.4052  134.6216  160.0062 H   0  0  0  0  0  0  0  0  0  0  0  0  # atno 6908 bound_to 6896
  151.6476  133.3286  159.3180 H   0  0  0  0  0  0  0  0  0  0  0  0  # atno 6909 bound_to 6896
  146.0420  139.4891  142.9772 H   0  0  0  0  0  0  0  0  0  0  0  0  # atno 7974 bound_to 7965
  154.9493  140.3063  155.5082 H   0  0  0  0  0  0  0  0  0  0  0  0  # atno 8008 bound_to 7997
  156.2988  140.2322  156.4507 H   0  0  0  0  0  0  0  0  0  0  0  0  # atno 8009 bound_to 7997
  154.8070  140.0431  157.1303 H   0  0  0  0  0  0  0  0  0  0  0  0  # atno 8010 bound_to 7997
  139.9429  144.6078  150.8234 H   0  0  0  0  0  0  0  0  0  0  0  0  # atno 10167 bound_to 10162
  157.1420  131.0543  151.2322 H   0  0  0  0  0  0  0  0  0  0  0  0  # atno 10718 bound_to 10713
  154.7664  135.3132  154.8278 H   0  0  0  0  0  0  0  0  0  0  0  0  # atno 10763 bound_to 10752
  153.9025  135.6814  153.4759 H   0  0  0  0  0  0  0  0  0  0  0  0  # atno 10764 bound_to 10752
  153.1271  135.4797  154.9222 H   0  0  0  0  0  0  0  0  0  0  0  0  # atno 10765 bound_to 10752
  141.1625  133.7474  156.9211 H   0  0  0  0  0  0  0  0  0  0  0  0  # atno 11005 bound_to 11000
  145.6869  141.0175  143.1576 LP  0  0  0  0  0  0  0  0  0  0  0  0  # atno 17320 bound_to 7965
  144.7079  139.8487  143.7424 LP  0  0  0  0  0  0  0  0  0  0  0  0  # atno 17321 bound_to 7965
  140.7606  143.3154  151.2746 LP  0  0  0  0  0  0  0  0  0  0  0  0  # atno 17342 bound_to 10162
  139.6690  144.0054  152.2741 LP  0  0  0  0  0  0  0  0  0  0  0  0  # atno 17343 bound_to 10162
  157.4298  130.7484  149.6981 LP  0  0  0  0  0  0  0  0  0  0  0  0  # atno 17370 bound_to 10713
  155.9787  130.4049  150.3634 LP  0  0  0  0  0  0  0  0  0  0  0  0  # atno 17371 bound_to 10713
  140.1450  134.9268  157.2518 LP  0  0  0  0  0  0  0  0  0  0  0  0  # atno 17394 bound_to 11000
  140.2790  134.3371  155.7349 LP  0  0  0  0  0  0  0  0  0  0  0  0  # atno 17395 bound_to 11000

$$$$
