AV-unprocessed.smi:521|AV-procd|sdf|2799|dock8
  -GOLD-   2262023273D 1   1.00000     0.00000
 Structure written by MMmdl.
 40 42  0  0  0  0  0  0  0  0  1 V2000
  153.8488  141.3866  161.4146 C   0  0  0  0  0  0  0  0  0  0  0  0
  153.1254  141.4761  160.1967 O   0  0  0  0  0  0  0  0  0  0  0  0
  152.4710  142.6559  159.9065 C   0  0  0  0  0  0  0  0  0  0  0  0
  152.3676  143.7424  160.8114 C   0  0  0  0  0  0  0  0  0  0  0  0
  151.6839  144.9154  160.4426 C   0  0  0  0  0  0  0  0  0  0  0  0
  151.0986  145.0168  159.1690 C   0  0  0  0  0  0  0  0  0  0  0  0
  151.1951  143.9450  158.2633 C   0  0  0  0  0  0  0  0  0  0  0  0
  151.8803  142.7585  158.6262 C   0  0  0  0  0  0  0  0  0  0  0  0
  152.0138  141.6674  157.7956 O   0  0  0  0  0  0  0  0  0  0  0  0
  151.1998  141.5821  156.6347 C   0  0  0  0  0  0  0  0  0  0  0  0
  151.6767  140.3970  155.7833 C   0  0  0  0  0  0  0  0  0  0  0  0
  150.5757  139.7467  155.0858 N   0  0  0  0  0  0  0  0  0  0  0  0
  150.4554  138.4395  154.7433 C   0  0  0  0  0  0  0  0  0  0  0  0
  151.5175  137.4311  155.0571 C   0  0  0  0  0  0  0  0  0  0  0  0
  151.8316  136.6098  153.9531 O   0  0  0  0  0  0  0  0  0  0  0  0
  149.3308  138.1063  154.1087 N   0  0  0  0  0  0  0  0  0  0  0  0
  148.6548  139.3087  154.0374 C   0  0  0  0  0  0  0  0  0  0  0  0
  147.3923  139.6209  153.4841 C   0  0  0  0  0  0  0  0  0  0  0  0
  146.8965  140.9402  153.5359 C   0  0  0  0  0  0  0  0  0  0  0  0
  147.6550  141.9647  154.1383 C   0  0  0  0  0  0  0  0  0  0  0  0
  148.9176  141.6761  154.6903 C   0  0  0  0  0  0  0  0  0  0  0  0
  149.4071  140.3570  154.6391 C   0  0  0  0  0  0  0  0  0  0  0  0
  154.3140  140.4033  161.4823 H   0  0  0  0  0  0  0  0  0  0  0  0
  153.1923  141.5019  162.2779 H   0  0  0  0  0  0  0  0  0  0  0  0
  154.6442  142.1315  161.4618 H   0  0  0  0  0  0  0  0  0  0  0  0
  152.8047  143.7003  161.7973 H   0  0  0  0  0  0  0  0  0  0  0  0
  151.6086  145.7381  161.1383 H   0  0  0  0  0  0  0  0  0  0  0  0
  150.5738  145.9173  158.8857 H   0  0  0  0  0  0  0  0  0  0  0  0
  150.7328  144.0566  157.2945 H   0  0  0  0  0  0  0  0  0  0  0  0
  150.1565  141.4328  156.9161 H   0  0  0  0  0  0  0  0  0  0  0  0
  151.2667  142.5041  156.0552 H   0  0  0  0  0  0  0  0  0  0  0  0
  152.4006  140.7385  155.0427 H   0  0  0  0  0  0  0  0  0  0  0  0
  152.1980  139.6684  156.4038 H   0  0  0  0  0  0  0  0  0  0  0  0
  152.4190  137.9378  155.4016 H   0  0  0  0  0  0  0  0  0  0  0  0
  151.1812  136.7970  155.8782 H   0  0  0  0  0  0  0  0  0  0  0  0
  151.4835  137.0112  153.1720 H   0  0  0  0  0  0  0  0  0  0  0  0
  146.8030  138.8430  153.0214 H   0  0  0  0  0  0  0  0  0  0  0  0
  145.9290  141.1671  153.1125 H   0  0  0  0  0  0  0  0  0  0  0  0
  147.2670  142.9720  154.1772 H   0  0  0  0  0  0  0  0  0  0  0  0
  149.4992  142.4580  155.1560 H   0  0  0  0  0  0  0  0  0  0  0  0
  1  2  1  0  0  0  0
  1 23  1  0  0  0  0
  1 24  1  0  0  0  0
  1 25  1  0  0  0  0
  2  3  1  0  0  0  0
  3  8  1  0  0  0  0
  3  4  2  0  0  0  0
  4  5  1  0  0  0  0
  4 26  1  0  0  0  0
  5  6  2  0  0  0  0
  5 27  1  0  0  0  0
  6  7  1  0  0  0  0
  6 28  1  0  0  0  0
  7  8  2  0  0  0  0
  7 29  1  0  0  0  0
  8  9  1  0  0  0  0
  9 10  1  0  0  0  0
 10 11  1  0  0  0  0
 10 30  1  0  0  0  0
 10 31  1  0  0  0  0
 11 12  1  0  0  0  0
 11 32  1  0  0  0  0
 11 33  1  0  0  0  0
 12 22  1  0  0  0  0
 12 13  1  0  0  0  0
 13 14  1  0  0  0  0
 13 16  2  0  0  0  0
 14 15  1  0  0  0  0
 14 34  1  0  0  0  0
 14 35  1  0  0  0  0
 15 36  1  0  0  0  0
 16 17  1  0  0  0  0
 17 22  2  0  0  0  0
 17 18  1  0  0  0  0
 18 19  2  0  0  0  0
 18 37  1  0  0  0  0
 19 20  1  0  0  0  0
 19 38  1  0  0  0  0
 20 21  2  0  0  0  0
 20 39  1  0  0  0  0
 21 22  1  0  0  0  0
 21 40  1  0  0  0  0
M  END
> <s_m_source_file>
AV-unprocessed.smi

> <i_m_source_file_index>
521

> <i_lp_mmshare_version>
43012

> <i_f3d_flags>
0

> <s_epik_input>
W0NIM11PYzFbY0hdW2NIXVtjSF1bY0hdYzFPW0NIMl1bQ0gyXW4oYyhuMilbQ0gyXVtPSF0pYyhjMjMpW2NIXVtjSF1bY0hdW2NIXTM=

> <s_epik_cmdline>
J2VwaWtfcHl0aG9uJywgJy1waCcsICc3LjAnLCAnLXRuJywgJzgnLCAnLW1hJywgJzIwMCcsICctbWV0YWxfYmluZGluZycsICctaW1hZScsICc8aW5maWxlLm1hZT4nLCAnLW9tYWUnLCAnPG91dGZpbGUubWFlPic=

> <r_lp_tautomer_probability>
1

> <r_epik_Ionization_Penalty>
0.048627

> <r_epik_Ionization_Penalty_Charging>
0

> <r_epik_Ionization_Penalty_Neutral>
0.048627

> <r_epik_State_Penalty>
0.0414172

> <r_epik_Charging_Adjusted_Penalty>
0.0414172

> <i_epik_Tot_Q>
0

> <i_epik_Tot_abs_Q>
0

> <r_epik_Metal_State_Penalty>
4.28976e-05

> <b_epik_Metal_Only>
0

> <s_lp_Force_Field>
OPLS_2005

> <r_lp_Energy>
18.4761

> <b_lp_Chiralities_Consistent>
1

> <s_lp_Variant>
AV-unprocessed.smi:521-1

> <Gold.Version>
5.8.1

> <Gold.Id.Protein>
6NUR|6NUR_protein|mol2

> <Gold.PLP.Fitness>
55.2194

> <Gold.PLP.PLP>
-52.3982

> <Gold.PLP.part.hbond>
-2.0000

> <Gold.PLP.part.metal>
0.0000

> <Gold.PLP.part.buried>
-4.3522

> <Gold.PLP.part.nonpolar>
-47.6326

> <Gold.PLP.part.repulsive>
1.1213

> <Gold.PLP.ligand.clash>
0.0109

> <Gold.PLP.ligand.torsion>
0.9741

> <Gold.PLP.Chemscore.Hbond>
1.5632

> <Gold.PLP.Chemscore.CHOScore>
0.0000

> <Gold.PLP.Chemscore.Metal>
0.0000

> <Gold.Chemscore.Hbonds>
donor molecule, donor type, donor heavy atom, donor atom, acceptor molecule, acceptor atom, score
      L1  H    15    36       P1  7949  0.45
      P1  H 10752 10763       L1    15  0.89

> <Gold.PLP.Chemscore.Internal.Correction>
0.0907

> <Gold.Rescore>
     Score         DG    S(hbond)    S(metal)    S(lipo)     H(rot)  DE(clash)    DE(int)     intcor
     16.22     -19.05       1.05        0.00     139.79       2.46       0.81       2.02       ----

> <Gold.Chemscore.Fitness>
16.2198

> <Gold.Chemscore.DG>
-19.0541

> <Gold.Chemscore.ZeroCoef>
-5.4800

> <Gold.Chemscore.Hbond>
1.0500

> <Gold.Chemscore.Metal>
0.0000

> <Gold.Chemscore.Lipo>
139.7873

> <Gold.Chemscore.Internal_Hbond>
0.0000

> <Gold.Chemscore.DEClash>
0.8111

> <Gold.Chemscore.DEInternal>
2.0232

> <Gold.Chemscore.Rot>
2.4562

> <Gold.Chemscore.Internal.Correction>
   9.000000E+99

> <Gold.Chemscore.Hbonds>
donor molecule, donor type, donor heavy atom, donor atom, acceptor molecule, acceptor atom, score
      L1  H    15    36       P1  7949  0.38
      P1  H 10752 10763       L1    15  0.84

> <Gold.Chemscore.Hbond.Weighted>
-3.5070

> <Gold.Chemscore.Metal.Weighted>
-0.0000

> <Gold.Chemscore.Lipo.Weighted>
-16.3551

> <Gold.Chemscore.Internal_Hbond.Weighted>
0.0000

> <Gold.Chemscore.DEClash.Weighted>
0.8111

> <Gold.Chemscore.DEInternal.Weighted>
2.0232

> <Gold.Chemscore.Rot.Weighted>
6.2880

> <Gold.Chemscore.Internal.Correction.Weighted>
   9.000000E+99

> <Gold.Protein.RotatedTorsions>
[ 6907 6896 6895 6894 ] final  -38.57 input  -60.11 | X-H torsion
[ 7974 7965 7964 7962 ] final -136.10 input  175.53 | X-H torsion
[ 8008 7997 7996 7995 ] final  -94.11 input   59.86 | X-H torsion
[ 10167 10162 10161 10158 ] final   -4.47 input  -65.29 | X-H torsion
[ 10718 10713 10712 10709 ] final  -59.53 input   66.30 | X-H torsion
[ 10763 10752 10751 10750 ] final   26.10 input  -60.55 | X-H torsion
[ 11005 11000 10999 10996 ] final    2.70 input  -57.11 | X-H torsion

> <Gold.Protein.ActiveResidues>
 VAL166  LYS551  ARG553  GLY616  TRP617  ASP618  TYR619  PRO620  LYS621  CYS622 
 ASP623  PHE694  ASN695  SER759  ASP760  ASP761  ALA762  ILE779  LEU786  VAL792 
 PHE793  MET794  SER795  GLU796  ALA797  LYS798  CYS799  TRP800  GLU811  SER814 

> <Gold.Protein.RotatedAtoms>
  151.0009  134.9321  159.7952 H   0  0  0  0  0  0  0  0  0  0  0  0  # atno 6907 bound_to 6896
  152.5277  134.3156  159.9139 H   0  0  0  0  0  0  0  0  0  0  0  0  # atno 6908 bound_to 6896
  151.3162  133.4018  159.2685 H   0  0  0  0  0  0  0  0  0  0  0  0  # atno 6909 bound_to 6896
  144.8956  140.6702  143.5117 H   0  0  0  0  0  0  0  0  0  0  0  0  # atno 7974 bound_to 7965
  154.7443  140.0492  157.0838 H   0  0  0  0  0  0  0  0  0  0  0  0  # atno 8008 bound_to 7997
  155.0139  140.3139  155.4800 H   0  0  0  0  0  0  0  0  0  0  0  0  # atno 8009 bound_to 7997
  156.2871  140.2179  156.5254 H   0  0  0  0  0  0  0  0  0  0  0  0  # atno 8010 bound_to 7997
  140.6928  143.6420  150.8427 H   0  0  0  0  0  0  0  0  0  0  0  0  # atno 10167 bound_to 10162
  156.1055  130.4181  150.0727 H   0  0  0  0  0  0  0  0  0  0  0  0  # atno 10718 bound_to 10713
  153.0646  135.6568  154.0385 H   0  0  0  0  0  0  0  0  0  0  0  0  # atno 10763 bound_to 10752
  154.0044  135.2934  155.3400 H   0  0  0  0  0  0  0  0  0  0  0  0  # atno 10764 bound_to 10752
  154.6998  135.5249  153.8579 H   0  0  0  0  0  0  0  0  0  0  0  0  # atno 10765 bound_to 10752
  140.6013  133.9833  155.8133 H   0  0  0  0  0  0  0  0  0  0  0  0  # atno 11005 bound_to 11000
  145.3706  139.1659  143.4334 LP  0  0  0  0  0  0  0  0  0  0  0  0  # atno 17320 bound_to 7965
  146.3079  140.3778  142.8681 LP  0  0  0  0  0  0  0  0  0  0  0  0  # atno 17321 bound_to 7965
  140.0135  143.5617  152.2829 LP  0  0  0  0  0  0  0  0  0  0  0  0  # atno 17342 bound_to 10162
  139.6350  144.7649  151.2457 LP  0  0  0  0  0  0  0  0  0  0  0  0  # atno 17343 bound_to 10162
  156.8704  130.9522  151.3610 LP  0  0  0  0  0  0  0  0  0  0  0  0  # atno 17370 bound_to 10713
  157.6231  130.8671  149.9143 LP  0  0  0  0  0  0  0  0  0  0  0  0  # atno 17371 bound_to 10713
  141.0870  133.9975  157.3298 LP  0  0  0  0  0  0  0  0  0  0  0  0  # atno 17394 bound_to 11000
  139.9231  135.0201  156.8137 LP  0  0  0  0  0  0  0  0  0  0  0  0  # atno 17395 bound_to 11000

$$$$
