AV-unprocessed.smi:1766|AV-procd|sdf|7136|dock8
  -GOLD-   22720 8373D 1   1.00000     0.00000
 Structure written by MMmdl.
 39 41  0  0  0  0  0  0  0  0  1 V2000
  148.9979  134.2559  156.8279 N   0  0  0  0  0  0  0  0  0  0  0  0
  150.3211  134.3010  156.6515 C   0  0  0  0  0  0  0  0  0  0  0  0
  151.0931  134.5851  157.5648 O   0  0  0  0  0  0  0  0  0  0  0  0
  150.8527  133.9763  155.2507 C   0  0  0  0  0  0  0  0  0  0  0  0
  150.5623  132.5310  154.9398 C   0  0  0  0  0  0  0  0  0  0  0  0
  151.1279  131.5394  155.6333 N   0  0  0  0  0  0  0  0  0  0  0  0
  150.5991  130.4087  155.0447 C   0  0  0  0  0  0  0  0  0  0  0  0
  150.7968  129.0415  155.3424 C   0  0  0  0  0  0  0  0  0  0  0  0
  150.1358  128.0453  154.5946 C   0  0  0  0  0  0  0  0  0  0  0  0
  149.2710  128.4016  153.5397 C   0  0  0  0  0  0  0  0  0  0  0  0
  149.0635  129.7582  153.2250 C   0  0  0  0  0  0  0  0  0  0  0  0
  149.7238  130.7496  153.9763 C   0  0  0  0  0  0  0  0  0  0  0  0
  149.7337  132.1418  153.9340 N   0  0  0  0  0  0  0  0  0  0  0  0
  148.9890  132.9673  152.9902 C   0  0  0  0  0  0  0  0  0  0  0  0
  147.6763  133.5150  153.5850 C   0  0  1  0  0  0  0  0  0  0  0  0
  147.9016  134.8457  154.0028 O   0  0  0  0  0  0  0  0  0  0  0  0
  146.5112  133.4046  152.6106 C   0  0  0  0  0  0  0  0  0  0  0  0
  146.2027  132.1593  152.0217 C   0  0  0  0  0  0  0  0  0  0  0  0
  145.1483  132.0538  151.0943 C   0  0  0  0  0  0  0  0  0  0  0  0
  144.3950  133.1926  150.7510 C   0  0  0  0  0  0  0  0  0  0  0  0
  143.3825  133.0914  149.8579 F   0  0  0  0  0  0  0  0  0  0  0  0
  144.6967  134.4373  151.3356 C   0  0  0  0  0  0  0  0  0  0  0  0
  145.7522  134.5438  152.2619 C   0  0  0  0  0  0  0  0  0  0  0  0
  148.6056  134.4713  157.7331 H   0  0  0  0  0  0  0  0  0  0  0  0
  148.3931  134.0155  156.0559 H   0  0  0  0  0  0  0  0  0  0  0  0
  150.3925  134.6489  154.5294 H   0  0  0  0  0  0  0  0  0  0  0  0
  151.9294  134.1435  155.1991 H   0  0  0  0  0  0  0  0  0  0  0  0
  151.4562  128.7589  156.1496 H   0  0  0  0  0  0  0  0  0  0  0  0
  150.2925  127.0034  154.8317 H   0  0  0  0  0  0  0  0  0  0  0  0
  148.7663  127.6331  152.9730 H   0  0  0  0  0  0  0  0  0  0  0  0
  148.3988  130.0317  152.4194 H   0  0  0  0  0  0  0  0  0  0  0  0
  149.6316  133.7800  152.6519 H   0  0  0  0  0  0  0  0  0  0  0  0
  148.7776  132.3746  152.0995 H   0  0  0  0  0  0  0  0  0  0  0  0
  147.4291  132.9555  154.4859 H   0  0  0  0  0  0  0  0  0  0  0  0
  148.2048  135.3440  153.2593 H   0  0  0  0  0  0  0  0  0  0  0  0
  146.7815  131.2819  152.2703 H   0  0  0  0  0  0  0  0  0  0  0  0
  144.9200  131.0991  150.6439 H   0  0  0  0  0  0  0  0  0  0  0  0
  144.1210  135.3118  151.0705 H   0  0  0  0  0  0  0  0  0  0  0  0
  145.9834  135.5054  152.6965 H   0  0  0  0  0  0  0  0  0  0  0  0
  1  2  1  0  0  0  0
  1 24  1  0  0  0  0
  1 25  1  0  0  0  0
  2  3  2  0  0  0  0
  2  4  1  0  0  0  0
  4  5  1  0  0  0  0
  4 26  1  0  0  0  0
  4 27  1  0  0  0  0
  5 13  1  0  0  0  0
  5  6  2  0  0  0  0
  6  7  1  0  0  0  0
  7 12  2  0  0  0  0
  7  8  1  0  0  0  0
  8  9  2  0  0  0  0
  8 28  1  0  0  0  0
  9 10  1  0  0  0  0
  9 29  1  0  0  0  0
 10 11  2  0  0  0  0
 10 30  1  0  0  0  0
 11 12  1  0  0  0  0
 11 31  1  0  0  0  0
 12 13  1  0  0  0  0
 13 14  1  0  0  0  0
 14 15  1  0  0  0  0
 14 32  1  0  0  0  0
 14 33  1  0  0  0  0
 15 16  1  0  0  0  0
 15 17  1  0  0  0  0
 15 34  1  0  0  0  0
 16 35  1  0  0  0  0
 17 23  1  0  0  0  0
 17 18  2  0  0  0  0
 18 19  1  0  0  0  0
 18 36  1  0  0  0  0
 19 20  2  0  0  0  0
 19 37  1  0  0  0  0
 20 21  1  0  0  0  0
 20 22  1  0  0  0  0
 22 23  2  0  0  0  0
 22 38  1  0  0  0  0
 23 39  1  0  0  0  0
M  END
> <s_m_source_file>
AV-unprocessed.smi

> <i_m_source_file_index>
1766

> <i_lp_mmshare_version>
43012

> <i_f3d_flags>
0

> <s_epik_input>
W2NIXTFbY0hdW2NIXVtjSF1jKGMxMiluKGMobjIpW0NIMl1DKD1PKVtOSDJdKVtDSDJdW0NASF0oW09IXSljM1tjSF1bY0hdYyhGKVtjSF1bY0hdMw==

> <s_epik_cmdline>
J2VwaWtfcHl0aG9uJywgJy1waCcsICc3LjAnLCAnLXRuJywgJzgnLCAnLW1hJywgJzIwMCcsICctbWV0YWxfYmluZGluZycsICctaW1hZScsICc8aW5maWxlLm1hZT4nLCAnLW9tYWUnLCAnPG91dGZpbGUubWFlPic=

> <r_epik_Ionization_Penalty>
0.0366901

> <r_epik_Ionization_Penalty_Charging>
0

> <r_epik_Ionization_Penalty_Neutral>
0.0366901

> <r_epik_State_Penalty>
0.0306642

> <r_epik_Charging_Adjusted_Penalty>
0.0306642

> <i_epik_Tot_Q>
0

> <i_epik_Tot_abs_Q>
0

> <r_epik_Metal_State_Penalty>
0.028853

> <b_epik_Metal_Only>
0

> <s_lp_Force_Field>
OPLS_2005

> <r_lp_Energy>
12.7053

> <b_lp_Chiralities_Consistent>
1

> <s_lp_Variant>
AV-unprocessed.smi:1766-2

> <Gold.Version>
5.8.1

> <Gold.Id.Protein>
6NUR|6NUR_protein|mol2

> <Gold.PLP.Fitness>
45.3913

> <Gold.PLP.PLP>
-41.3588

> <Gold.PLP.part.hbond>
-2.0000

> <Gold.PLP.part.metal>
0.0000

> <Gold.PLP.part.buried>
-3.2893

> <Gold.PLP.part.nonpolar>
-35.1172

> <Gold.PLP.part.repulsive>
0.0000

> <Gold.PLP.ligand.clash>
0.0000

> <Gold.PLP.ligand.torsion>
0.9872

> <Gold.PLP.Chemscore.Hbond>
1.9920

> <Gold.PLP.Chemscore.CHOScore>
0.0000

> <Gold.PLP.Chemscore.Metal>
0.0000

> <Gold.Chemscore.Hbonds>
donor molecule, donor type, donor heavy atom, donor atom, acceptor molecule, acceptor atom, score
      L1  H    16    35       P1  7948  1.00
      P1  H  6896  6909       L1     3  0.22

> <Gold.PLP.Chemscore.Internal.Correction>
0.0309

> <Gold.Rescore>
     Score         DG    S(hbond)    S(metal)    S(lipo)     H(rot)  DE(clash)    DE(int)     intcor
     13.30     -14.41       1.92        0.00      86.82       2.99       0.02       1.08       ----

> <Gold.Chemscore.Fitness>
13.3034

> <Gold.Chemscore.DG>
-14.4110

> <Gold.Chemscore.ZeroCoef>
-5.4800

> <Gold.Chemscore.Hbond>
1.9215

> <Gold.Chemscore.Metal>
0.0000

> <Gold.Chemscore.Lipo>
86.8218

> <Gold.Chemscore.Internal_Hbond>
0.0000

> <Gold.Chemscore.DEClash>
0.0243

> <Gold.Chemscore.DEInternal>
1.0832

> <Gold.Chemscore.Rot>
2.9864

> <Gold.Chemscore.Internal.Correction>
   9.000000E+99

> <Gold.Chemscore.Hbonds>
donor molecule, donor type, donor heavy atom, donor atom, acceptor molecule, acceptor atom, score
      L1  H    16    35       P1  7948  1.00
      P1  H  6896  6909       L1     3  0.22

> <Gold.Chemscore.Hbond.Weighted>
-6.4179

> <Gold.Chemscore.Metal.Weighted>
-0.0000

> <Gold.Chemscore.Lipo.Weighted>
-10.1582

> <Gold.Chemscore.Internal_Hbond.Weighted>
0.0000

> <Gold.Chemscore.DEClash.Weighted>
0.0243

> <Gold.Chemscore.DEInternal.Weighted>
1.0832

> <Gold.Chemscore.Rot.Weighted>
7.6451

> <Gold.Chemscore.Internal.Correction.Weighted>
   9.000000E+99

> <Gold.Protein.RotatedTorsions>
[ 6907 6896 6895 6894 ] final   23.04 input  -60.11 | X-H torsion
[ 7974 7965 7964 7962 ] final  176.46 input  175.53 | X-H torsion
[ 8008 7997 7996 7995 ] final   80.47 input   59.86 | X-H torsion
[ 10167 10162 10161 10158 ] final  -67.51 input  -65.29 | X-H torsion
[ 10718 10713 10712 10709 ] final   91.40 input   66.30 | X-H torsion
[ 10763 10752 10751 10750 ] final  -70.23 input  -60.55 | X-H torsion
[ 11005 11000 10999 10996 ] final   45.84 input  -57.11 | X-H torsion

> <Gold.Protein.ActiveResidues>
 VAL166  LYS551  ARG553  GLY616  TRP617  ASP618  TYR619  PRO620  LYS621  CYS622 
 ASP623  PHE694  ASN695  SER759  ASP760  ASP761  ALA762  ILE779  LEU786  VAL792 
 PHE793  MET794  SER795  GLU796  ALA797  LYS798  CYS799  TRP800  GLU811  SER814 

> <Gold.Protein.RotatedAtoms>
  151.9363  135.0233  160.0532 H   0  0  0  0  0  0  0  0  0  0  0  0  # atno 6907 bound_to 6896
  152.2075  133.4881  159.5100 H   0  0  0  0  0  0  0  0  0  0  0  0  # atno 6908 bound_to 6896
  150.6968  134.1428  159.4154 H   0  0  0  0  0  0  0  0  0  0  0  0  # atno 6909 bound_to 6896
  144.7184  140.0100  143.6440 H   0  0  0  0  0  0  0  0  0  0  0  0  # atno 7974 bound_to 7965
  155.8839  140.3442  155.5908 H   0  0  0  0  0  0  0  0  0  0  0  0  # atno 8008 bound_to 7997
  155.7688  140.0842  157.2137 H   0  0  0  0  0  0  0  0  0  0  0  0  # atno 8009 bound_to 7997
  154.4027  140.1522  156.2905 H   0  0  0  0  0  0  0  0  0  0  0  0  # atno 8010 bound_to 7997
  140.5577  143.2312  151.6788 H   0  0  0  0  0  0  0  0  0  0  0  0  # atno 10167 bound_to 10162
  157.6960  131.0406  150.3723 H   0  0  0  0  0  0  0  0  0  0  0  0  # atno 10718 bound_to 10713
  154.4148  135.6000  153.5974 H   0  0  0  0  0  0  0  0  0  0  0  0  # atno 10763 bound_to 10752
  152.9791  135.5938  154.4027 H   0  0  0  0  0  0  0  0  0  0  0  0  # atno 10764 bound_to 10752
  154.3844  135.2841  155.2170 H   0  0  0  0  0  0  0  0  0  0  0  0  # atno 10765 bound_to 10752
  140.1423  134.4567  155.8441 H   0  0  0  0  0  0  0  0  0  0  0  0  # atno 11005 bound_to 11000
  146.0266  139.3297  143.0781 LP  0  0  0  0  0  0  0  0  0  0  0  0  # atno 17320 bound_to 7965
  145.8504  140.9532  143.0752 LP  0  0  0  0  0  0  0  0  0  0  0  0  # atno 17321 bound_to 7965
  139.5056  144.3713  152.0467 LP  0  0  0  0  0  0  0  0  0  0  0  0  # atno 17342 bound_to 10162
  140.2836  144.3832  150.6111 LP  0  0  0  0  0  0  0  0  0  0  0  0  # atno 17343 bound_to 10162
  156.4147  130.3941  149.6867 LP  0  0  0  0  0  0  0  0  0  0  0  0  # atno 17370 bound_to 10713
  156.4139  130.7735  151.2750 LP  0  0  0  0  0  0  0  0  0  0  0  0  # atno 17371 bound_to 10713
  141.2187  133.6838  156.7269 LP  0  0  0  0  0  0  0  0  0  0  0  0  # atno 17394 bound_to 11000
  140.2707  134.8394  157.3844 LP  0  0  0  0  0  0  0  0  0  0  0  0  # atno 17395 bound_to 11000

$$$$
