AV-unprocessed.smi:2365|AV-procd|sdf|9419|dock9
  -GOLD-   2272013 53D 1   1.00000     0.00000
 Structure written by MMmdl.
 29 30  0  0  0  0  0  0  0  0  1 V2000
  151.2816  145.6002  160.0957 C   0  0  0  0  0  0  0  0  0  0  0  0
  151.8957  144.4569  159.2815 C   0  0  2  0  0  0  0  0  0  0  0  0
  151.9085  144.6926  157.7758 C   0  0  0  0  0  0  0  0  0  0  0  0
  152.0091  143.2845  157.2135 C   0  0  0  0  0  0  0  0  0  0  0  0
  151.4530  142.3852  158.3364 C   0  0  1  0  0  0  0  0  0  0  0  0
  152.4634  141.3335  158.8307 C   0  0  0  0  0  0  0  0  0  0  0  0
  152.8059  140.4242  158.0752 O   0  0  0  0  0  0  0  0  0  0  0  0
  152.9179  141.4804  160.0891 N   0  0  0  0  0  0  0  0  0  0  0  0
  153.8753  140.6891  160.7792 C   0  0  0  0  0  0  0  0  0  0  0  0
  154.4131  139.4895  160.2523 C   0  0  0  0  0  0  0  0  0  0  0  0
  155.3051  138.7208  160.9119 N   0  0  0  0  0  0  0  0  0  0  0  0
  155.6975  139.1183  162.1398 C   0  0  0  0  0  0  0  0  0  0  0  0
  155.2170  140.2844  162.7669 C   0  0  0  0  0  0  0  0  0  0  0  0
  155.7728  140.7069  164.3473 Cl  0  0  0  0  0  0  0  0  0  0  0  0
  154.2820  141.0840  162.0745 C   0  0  0  0  0  0  0  0  0  0  0  0
  153.6538  142.5277  162.7959 Cl  0  0  0  0  0  0  0  0  0  0  0  0
  151.1068  143.2823  159.3945 O   0  0  0  0  0  0  0  0  0  0  0  0
  151.8637  146.5150  159.9847 H   0  0  0  0  0  0  0  0  0  0  0  0
  151.2536  145.3493  161.1562 H   0  0  0  0  0  0  0  0  0  0  0  0
  150.2607  145.8104  159.7761 H   0  0  0  0  0  0  0  0  0  0  0  0
  152.9060  144.2445  159.6359 H   0  0  0  0  0  0  0  0  0  0  0  0
  150.9699  145.1482  157.4572 H   0  0  0  0  0  0  0  0  0  0  0  0
  152.7251  145.3396  157.4545 H   0  0  0  0  0  0  0  0  0  0  0  0
  151.4394  143.1831  156.2893 H   0  0  0  0  0  0  0  0  0  0  0  0
  153.0504  143.0554  156.9806 H   0  0  0  0  0  0  0  0  0  0  0  0
  150.5497  141.8693  158.0096 H   0  0  0  0  0  0  0  0  0  0  0  0
  152.6177  142.3186  160.5667 H   0  0  0  0  0  0  0  0  0  0  0  0
  154.1143  139.1109  159.2869 H   0  0  0  0  0  0  0  0  0  0  0  0
  156.4136  138.4827  162.6397 H   0  0  0  0  0  0  0  0  0  0  0  0
  1  2  1  0  0  0  0
  1 18  1  0  0  0  0
  1 19  1  0  0  0  0
  1 20  1  0  0  0  0
  2 17  1  0  0  0  0
  2  3  1  0  0  0  0
  2 21  1  0  0  0  0
  3  4  1  0  0  0  0
  3 22  1  0  0  0  0
  3 23  1  0  0  0  0
  4  5  1  0  0  0  0
  4 24  1  0  0  0  0
  4 25  1  0  0  0  0
  5  6  1  0  0  0  0
  5 17  1  0  0  0  0
  5 26  1  0  0  0  0
  6  7  2  0  0  0  0
  6  8  1  0  0  0  0
  8  9  1  0  0  0  0
  8 27  1  0  0  0  0
  9 15  1  0  0  0  0
  9 10  2  0  0  0  0
 10 11  1  0  0  0  0
 10 28  1  0  0  0  0
 11 12  2  0  0  0  0
 12 13  1  0  0  0  0
 12 29  1  0  0  0  0
 13 14  1  0  0  0  0
 13 15  2  0  0  0  0
 15 16  1  0  0  0  0
M  END
> <s_m_source_file>
AV-unprocessed.smi

> <i_m_source_file_index>
2365

> <i_lp_mmshare_version>
43012

> <i_f3d_flags>
0

> <s_epik_input>
W0NIM11bQ0BASF0xW0NIMl1bQ0gyXVtDQEhdKE8xKUMoPU8pW05IXWMyW2NIXW5bY0hdYyhDbCljMkNs

> <s_epik_cmdline>
J2VwaWtfcHl0aG9uJywgJy1waCcsICc3LjAnLCAnLXRuJywgJzgnLCAnLW1hJywgJzIwMCcsICctbWV0YWxfYmluZGluZycsICctaW1hZScsICc8aW5maWxlLm1hZT4nLCAnLW9tYWUnLCAnPG91dGZpbGUubWFlPic=

> <r_lp_tautomer_probability>
1

> <r_epik_Ionization_Penalty>
7.32461e-06

> <r_epik_Ionization_Penalty_Charging>
0

> <r_epik_Ionization_Penalty_Neutral>
7.32461e-06

> <r_epik_State_Penalty>
-0

> <r_epik_Charging_Adjusted_Penalty>
0

> <i_epik_Tot_Q>
0

> <i_epik_Tot_abs_Q>
0

> <r_epik_Metal_State_Penalty>
-0

> <b_epik_Metal_Only>
0

> <s_lp_Force_Field>
OPLS_2005

> <r_lp_Energy>
23.4255

> <b_lp_Chiralities_Consistent>
1

> <s_lp_Variant>
AV-unprocessed.smi:2365-1

> <Gold.Version>
5.8.1

> <Gold.Id.Protein>
6NUR|6NUR_protein|mol2

> <Gold.PLP.Fitness>
36.7105

> <Gold.PLP.PLP>
-34.5537

> <Gold.PLP.part.hbond>
-1.0000

> <Gold.PLP.part.metal>
0.0000

> <Gold.PLP.part.buried>
-2.0582

> <Gold.PLP.part.nonpolar>
-28.4139

> <Gold.PLP.part.repulsive>
0.1334

> <Gold.PLP.ligand.clash>
0.0000

> <Gold.PLP.ligand.torsion>
0.0832

> <Gold.PLP.Chemscore.Hbond>
0.7722

> <Gold.PLP.Chemscore.CHOScore>
0.0000

> <Gold.PLP.Chemscore.Metal>
0.0000

> <Gold.Chemscore.Hbonds>
donor molecule, donor type, donor heavy atom, donor atom, acceptor molecule, acceptor atom, score
      P1  H  7997  8009       L1     7  0.77

> <Gold.PLP.Chemscore.Internal.Correction>
0.0066

> <Gold.Rescore>
     Score         DG    S(hbond)    S(metal)    S(lipo)     H(rot)  DE(clash)    DE(int)     intcor
     16.17     -17.99       0.77        0.00     106.92       1.00       0.48       1.34       ----

> <Gold.Chemscore.Fitness>
16.1670

> <Gold.Chemscore.DG>
-17.9883

> <Gold.Chemscore.ZeroCoef>
-5.4800

> <Gold.Chemscore.Hbond>
0.7662

> <Gold.Chemscore.Metal>
0.0000

> <Gold.Chemscore.Lipo>
106.9160

> <Gold.Chemscore.Internal_Hbond>
0.0000

> <Gold.Chemscore.DEClash>
0.4802

> <Gold.Chemscore.DEInternal>
1.3411

> <Gold.Chemscore.Rot>
1.0000

> <Gold.Chemscore.Internal.Correction>
   9.000000E+99

> <Gold.Chemscore.Hbonds>
donor molecule, donor type, donor heavy atom, donor atom, acceptor molecule, acceptor atom, score
      P1  H  7997  8009       L1     7  0.74

> <Gold.Chemscore.Hbond.Weighted>
-2.5592

> <Gold.Chemscore.Metal.Weighted>
-0.0000

> <Gold.Chemscore.Lipo.Weighted>
-12.5092

> <Gold.Chemscore.Internal_Hbond.Weighted>
0.0000

> <Gold.Chemscore.DEClash.Weighted>
0.4802

> <Gold.Chemscore.DEInternal.Weighted>
1.3411

> <Gold.Chemscore.Rot.Weighted>
2.5600

> <Gold.Chemscore.Internal.Correction.Weighted>
   9.000000E+99

> <Gold.Protein.RotatedTorsions>
[ 6907 6896 6895 6894 ] final  117.52 input  -60.11 | X-H torsion
[ 7974 7965 7964 7962 ] final  141.76 input  175.53 | X-H torsion
[ 8008 7997 7996 7995 ] final  163.48 input   59.86 | X-H torsion
[ 10167 10162 10161 10158 ] final   62.47 input  -65.29 | X-H torsion
[ 10718 10713 10712 10709 ] final -165.47 input   66.30 | X-H torsion
[ 10763 10752 10751 10750 ] final -125.75 input  -60.55 | X-H torsion
[ 11005 11000 10999 10996 ] final   95.57 input  -57.11 | X-H torsion

> <Gold.Protein.ActiveResidues>
 VAL166  LYS551  ARG553  GLY616  TRP617  ASP618  TYR619  PRO620  LYS621  CYS622 
 ASP623  PHE694  ASN695  SER759  ASP760  ASP761  ALA762  ILE779  LEU786  VAL792 
 PHE793  MET794  SER795  GLU796  ALA797  LYS798  CYS799  TRP800  GLU811  SER814 

> <Gold.Protein.RotatedAtoms>
  152.4606  133.7814  159.6852 H   0  0  0  0  0  0  0  0  0  0  0  0  # atno 6907 bound_to 6896
  150.8549  133.7721  159.3019 H   0  0  0  0  0  0  0  0  0  0  0  0  # atno 6908 bound_to 6896
  151.5305  135.1071  159.9953 H   0  0  0  0  0  0  0  0  0  0  0  0  # atno 6909 bound_to 6896
  144.9067  139.5348  143.5728 H   0  0  0  0  0  0  0  0  0  0  0  0  # atno 7974 bound_to 7965
  156.1953  140.1722  156.8010 H   0  0  0  0  0  0  0  0  0  0  0  0  # atno 8008 bound_to 7997
  154.5522  140.0715  156.8718 H   0  0  0  0  0  0  0  0  0  0  0  0  # atno 8009 bound_to 7997
  155.3006  140.3361  155.4250 H   0  0  0  0  0  0  0  0  0  0  0  0  # atno 8010 bound_to 7997
  140.1436  144.4530  150.6797 H   0  0  0  0  0  0  0  0  0  0  0  0  # atno 10167 bound_to 10162
  156.6538  130.9018  151.3018 H   0  0  0  0  0  0  0  0  0  0  0  0  # atno 10718 bound_to 10713
  154.8739  135.4019  154.3319 H   0  0  0  0  0  0  0  0  0  0  0  0  # atno 10763 bound_to 10752
  153.4131  135.7021  153.6351 H   0  0  0  0  0  0  0  0  0  0  0  0  # atno 10764 bound_to 10752
  153.5045  135.3720  155.2526 H   0  0  0  0  0  0  0  0  0  0  0  0  # atno 10765 bound_to 10752
  139.8788  134.8906  156.4031 H   0  0  0  0  0  0  0  0  0  0  0  0  # atno 11005 bound_to 11000
  146.3137  139.7841  142.9000 LP  0  0  0  0  0  0  0  0  0  0  0  0  # atno 17320 bound_to 7965
  145.3523  141.0310  143.3332 LP  0  0  0  0  0  0  0  0  0  0  0  0  # atno 17321 bound_to 7965
  140.6745  143.2299  151.5541 LP  0  0  0  0  0  0  0  0  0  0  0  0  # atno 17342 bound_to 10162
  139.5460  144.2521  152.1442 LP  0  0  0  0  0  0  0  0  0  0  0  0  # atno 17343 bound_to 10162
  157.7132  130.9465  150.1162 LP  0  0  0  0  0  0  0  0  0  0  0  0  # atno 17370 bound_to 10713
  156.2063  130.3663  149.8725 LP  0  0  0  0  0  0  0  0  0  0  0  0  # atno 17371 bound_to 10713
  140.9253  133.7617  155.9957 LP  0  0  0  0  0  0  0  0  0  0  0  0  # atno 17394 bound_to 11000
  140.8393  134.3085  157.5319 LP  0  0  0  0  0  0  0  0  0  0  0  0  # atno 17395 bound_to 11000

$$$$
