AV-unprocessed.smi:3158|AV-procd|sdf|12045|dock9
  -GOLD-   2272017473D 1   1.00000     0.00000
 Structure written by MMmdl.
 39 39  0  0  0  0  0  0  0  0  1 V2000
  152.7652  142.7878  162.1544 C   0  0  0  0  0  0  0  0  0  0  0  0
  153.6735  141.8102  161.3943 C   0  0  0  0  0  0  0  0  0  0  0  0
  153.5297  141.8926  159.8632 C   0  0  2  0  0  0  0  0  0  0  0  0
  153.3690  143.3459  159.3891 C   0  0  0  0  0  0  0  0  0  0  0  0
  152.3882  141.0964  159.4196 N   0  0  0  0  0  0  0  0  0  0  0  0
  152.4571  139.9712  158.6908 C   0  0  0  0  0  0  0  0  0  0  0  0
  153.5178  139.4746  158.3106 O   0  0  0  0  0  0  0  0  0  0  0  0
  151.1166  139.3282  158.2969 C   0  0  2  0  0  0  0  0  0  0  0  0
  151.3435  137.9917  157.5722 C   0  0  0  0  0  0  0  0  0  0  0  0
  150.2719  140.2064  157.4670 N   0  0  0  0  0  0  0  0  0  0  0  0
  150.8415  140.5355  156.1649 C   0  0  0  0  0  0  0  0  0  0  0  0
  150.0600  141.7026  155.5461 C   0  0  0  0  0  0  0  0  0  0  0  0
  148.9398  141.2303  154.7562 N   0  0  0  0  0  0  0  0  0  0  0  0
  147.9480  141.9699  154.1478 C   0  0  0  0  0  0  0  0  0  0  0  0
  147.1094  141.0899  153.5257 C   0  0  0  0  0  0  0  0  0  0  0  0
  147.6777  139.8184  153.8163 C   0  0  0  0  0  0  0  0  0  0  0  0
  148.7728  139.9056  154.5540 N   0  0  0  0  0  0  0  0  0  0  0  0
  152.8723  142.6563  163.2312 H   0  0  0  0  0  0  0  0  0  0  0  0
  151.7167  142.6260  161.9035 H   0  0  0  0  0  0  0  0  0  0  0  0
  153.0092  143.8250  161.9240 H   0  0  0  0  0  0  0  0  0  0  0  0
  154.7116  141.9886  161.6783 H   0  0  0  0  0  0  0  0  0  0  0  0
  153.4410  140.7961  161.7210 H   0  0  0  0  0  0  0  0  0  0  0  0
  154.4419  141.4878  159.4204 H   0  0  0  0  0  0  0  0  0  0  0  0
  154.2220  143.9534  159.6923 H   0  0  0  0  0  0  0  0  0  0  0  0
  152.4704  143.8023  159.8055 H   0  0  0  0  0  0  0  0  0  0  0  0
  153.2976  143.4028  158.3025 H   0  0  0  0  0  0  0  0  0  0  0  0
  151.4722  141.4348  159.6766 H   0  0  0  0  0  0  0  0  0  0  0  0
  150.5662  139.1080  159.2137 H   0  0  0  0  0  0  0  0  0  0  0  0
  151.9506  137.3128  158.1726 H   0  0  0  0  0  0  0  0  0  0  0  0
  151.8476  138.1320  156.6150 H   0  0  0  0  0  0  0  0  0  0  0  0
  150.3955  137.4903  157.3744 H   0  0  0  0  0  0  0  0  0  0  0  0
  149.3439  139.8250  157.3494 H   0  0  0  0  0  0  0  0  0  0  0  0
  151.8916  140.8079  156.2807 H   0  0  0  0  0  0  0  0  0  0  0  0
  150.7958  139.6760  155.4951 H   0  0  0  0  0  0  0  0  0  0  0  0
  149.6776  142.3630  156.3256 H   0  0  0  0  0  0  0  0  0  0  0  0
  150.7084  142.3061  154.9083 H   0  0  0  0  0  0  0  0  0  0  0  0
  147.9215  143.0480  154.2083 H   0  0  0  0  0  0  0  0  0  0  0  0
  146.2242  141.3193  152.9515 H   0  0  0  0  0  0  0  0  0  0  0  0
  147.3294  138.8411  153.5158 H   0  0  0  0  0  0  0  0  0  0  0  0
  1  2  1  0  0  0  0
  1 18  1  0  0  0  0
  1 19  1  0  0  0  0
  1 20  1  0  0  0  0
  2  3  1  0  0  0  0
  2 21  1  0  0  0  0
  2 22  1  0  0  0  0
  3  4  1  0  0  0  0
  3  5  1  0  0  0  0
  3 23  1  0  0  0  0
  4 24  1  0  0  0  0
  4 25  1  0  0  0  0
  4 26  1  0  0  0  0
  5  6  1  0  0  0  0
  5 27  1  0  0  0  0
  6  7  2  0  0  0  0
  6  8  1  0  0  0  0
  8  9  1  0  0  0  0
  8 10  1  0  0  0  0
  8 28  1  0  0  0  0
  9 29  1  0  0  0  0
  9 30  1  0  0  0  0
  9 31  1  0  0  0  0
 10 11  1  0  0  0  0
 10 32  1  0  0  0  0
 11 12  1  0  0  0  0
 11 33  1  0  0  0  0
 11 34  1  0  0  0  0
 12 13  1  0  0  0  0
 12 35  1  0  0  0  0
 12 36  1  0  0  0  0
 13 17  1  0  0  0  0
 13 14  1  0  0  0  0
 14 15  2  0  0  0  0
 14 37  1  0  0  0  0
 15 16  1  0  0  0  0
 15 38  1  0  0  0  0
 16 17  2  0  0  0  0
 16 39  1  0  0  0  0
M  END
> <s_m_source_file>
AV-unprocessed.smi

> <i_m_source_file_index>
3158

> <i_lp_mmshare_version>
43012

> <i_f3d_flags>
0

> <s_epik_input>
W0NIM11bQ0gyXVtDQEhdKFtDSDNdKVtOSF1DKD1PKVtDQEhdKFtDSDNdKVtOSF1bQ0gyXVtDSDJdbjFbY0hdW2NIXVtjSF1uMQ==

> <s_epik_cmdline>
J2VwaWtfcHl0aG9uJywgJy1waCcsICc3LjAnLCAnLXRuJywgJzgnLCAnLW1hJywgJzIwMCcsICctbWV0YWxfYmluZGluZycsICctaW1hZScsICc8aW5maWxlLm1hZT4nLCAnLW9tYWUnLCAnPG91dGZpbGUubWFlPic=

> <r_lp_tautomer_probability>
1

> <r_epik_Ionization_Penalty>
0.724013

> <r_epik_Ionization_Penalty_Charging>
0

> <r_epik_Ionization_Penalty_Neutral>
0.724013

> <r_epik_State_Penalty>
0.74758

> <r_epik_Charging_Adjusted_Penalty>
0.74758

> <i_epik_Tot_Q>
0

> <i_epik_Tot_abs_Q>
0

> <r_epik_Metal_State_Penalty>
0.746846

> <b_epik_Metal_Only>
0

> <s_lp_Force_Field>
OPLS_2005

> <r_lp_Energy>
5.18205

> <b_lp_Chiralities_Consistent>
1

> <s_lp_Variant>
AV-unprocessed.smi:3158-5

> <Gold.Version>
5.8.1

> <Gold.Id.Protein>
6NUR|6NUR_protein|mol2

> <Gold.PLP.Fitness>
42.2449

> <Gold.PLP.PLP>
-37.1475

> <Gold.PLP.part.hbond>
-1.0000

> <Gold.PLP.part.metal>
0.0000

> <Gold.PLP.part.buried>
-3.5781

> <Gold.PLP.part.nonpolar>
-31.0753

> <Gold.PLP.part.repulsive>
0.2324

> <Gold.PLP.ligand.clash>
0.0000

> <Gold.PLP.ligand.torsion>
0.5646

> <Gold.PLP.Chemscore.Hbond>
1.0000

> <Gold.PLP.Chemscore.CHOScore>
1.0000

> <Gold.PLP.Chemscore.Metal>
0.0000

> <Gold.Chemscore.Hbonds>
donor molecule, donor type, donor heavy atom, donor atom, acceptor molecule, acceptor atom, score
      P1  H  7997  8010       L1     7  1.00
      L1  C    14    37       P1  8028  1.00

> <Gold.PLP.Chemscore.Internal.Correction>
0.2265

> <Gold.Rescore>
     Score         DG    S(hbond)    S(metal)    S(lipo)     H(rot)  DE(clash)    DE(int)     intcor
     13.97     -14.30       0.99        0.00      93.48       2.12       0.05       0.28       ----

> <Gold.Chemscore.Fitness>
13.9740

> <Gold.Chemscore.DG>
-14.2999

> <Gold.Chemscore.ZeroCoef>
-5.4800

> <Gold.Chemscore.Hbond>
0.9937

> <Gold.Chemscore.Metal>
0.0000

> <Gold.Chemscore.Lipo>
93.4761

> <Gold.Chemscore.Internal_Hbond>
0.0000

> <Gold.Chemscore.DEClash>
0.0458

> <Gold.Chemscore.DEInternal>
0.2801

> <Gold.Chemscore.Rot>
2.1234

> <Gold.Chemscore.Internal.Correction>
   9.000000E+99

> <Gold.Chemscore.Hbonds>
donor molecule, donor type, donor heavy atom, donor atom, acceptor molecule, acceptor atom, score
      P1  H  7997  8010       L1     7  0.97

> <Gold.Chemscore.Hbond.Weighted>
-3.3190

> <Gold.Chemscore.Metal.Weighted>
-0.0000

> <Gold.Chemscore.Lipo.Weighted>
-10.9367

> <Gold.Chemscore.Internal_Hbond.Weighted>
0.0000

> <Gold.Chemscore.DEClash.Weighted>
0.0458

> <Gold.Chemscore.DEInternal.Weighted>
0.2801

> <Gold.Chemscore.Rot.Weighted>
5.4359

> <Gold.Chemscore.Internal.Correction.Weighted>
   9.000000E+99

> <Gold.Protein.RotatedTorsions>
[ 6907 6896 6895 6894 ] final  166.52 input  -60.11 | X-H torsion
[ 7974 7965 7964 7962 ] final  -71.85 input  175.53 | X-H torsion
[ 8008 7997 7996 7995 ] final   11.74 input   59.86 | X-H torsion
[ 10167 10162 10161 10158 ] final  -31.89 input  -65.29 | X-H torsion
[ 10718 10713 10712 10709 ] final -121.22 input   66.30 | X-H torsion
[ 10763 10752 10751 10750 ] final  138.44 input  -60.55 | X-H torsion
[ 11005 11000 10999 10996 ] final  112.02 input  -57.11 | X-H torsion

> <Gold.Protein.ActiveResidues>
 VAL166  LYS551  ARG553  GLY616  TRP617  ASP618  TYR619  PRO620  LYS621  CYS622 
 ASP623  PHE694  ASN695  SER759  ASP760  ASP761  ALA762  ILE779  LEU786  VAL792 
 PHE793  MET794  SER795  GLU796  ALA797  LYS798  CYS799  TRP800  GLU811  SER814 

> <Gold.Protein.RotatedAtoms>
  151.8776  133.3488  159.3755 H   0  0  0  0  0  0  0  0  0  0  0  0  # atno 6907 bound_to 6896
  150.7136  134.5051  159.5589 H   0  0  0  0  0  0  0  0  0  0  0  0  # atno 6908 bound_to 6896
  152.2596  134.8048  160.0484 H   0  0  0  0  0  0  0  0  0  0  0  0  # atno 6909 bound_to 6896
  145.6728  140.9215  143.0874 H   0  0  0  0  0  0  0  0  0  0  0  0  # atno 7974 bound_to 7965
  154.8110  140.2868  155.5853 H   0  0  0  0  0  0  0  0  0  0  0  0  # atno 8008 bound_to 7997
  156.2988  140.2568  156.2928 H   0  0  0  0  0  0  0  0  0  0  0  0  # atno 8009 bound_to 7997
  154.9448  140.0380  157.2104 H   0  0  0  0  0  0  0  0  0  0  0  0  # atno 8010 bound_to 7997
  140.7229  143.3736  151.1731 H   0  0  0  0  0  0  0  0  0  0  0  0  # atno 10167 bound_to 10162
  156.1320  130.6402  150.9636 H   0  0  0  0  0  0  0  0  0  0  0  0  # atno 10718 bound_to 10713
  153.8896  135.3034  155.3447 H   0  0  0  0  0  0  0  0  0  0  0  0  # atno 10763 bound_to 10752
  154.7723  135.4879  153.9676 H   0  0  0  0  0  0  0  0  0  0  0  0  # atno 10764 bound_to 10752
  153.1305  135.6803  153.9284 H   0  0  0  0  0  0  0  0  0  0  0  0  # atno 10765 bound_to 10752
  139.8917  134.9521  156.6522 H   0  0  0  0  0  0  0  0  0  0  0  0  # atno 11005 bound_to 11000
  144.7051  139.8594  143.7432 LP  0  0  0  0  0  0  0  0  0  0  0  0  # atno 17320 bound_to 7965
  146.1031  139.4028  143.0334 LP  0  0  0  0  0  0  0  0  0  0  0  0  # atno 17321 bound_to 7965
  139.7312  143.9069  152.3020 LP  0  0  0  0  0  0  0  0  0  0  0  0  # atno 17342 bound_to 10162
  139.8859  144.6992  150.8825 LP  0  0  0  0  0  0  0  0  0  0  0  0  # atno 17343 bound_to 10162
  157.6497  131.0899  150.8077 LP  0  0  0  0  0  0  0  0  0  0  0  0  # atno 17370 bound_to 10713
  156.8161  130.4968  149.5349 LP  0  0  0  0  0  0  0  0  0  0  0  0  # atno 17371 bound_to 10713
  140.7511  133.8896  155.8348 LP  0  0  0  0  0  0  0  0  0  0  0  0  # atno 17394 bound_to 11000
  140.9999  134.1164  157.4327 LP  0  0  0  0  0  0  0  0  0  0  0  0  # atno 17395 bound_to 11000

$$$$
