AV-unprocessed.smi:228|AV-procd|sdf|1746|dock9
  -GOLD-   2262020263D 1   1.00000     0.00000
 Structure written by MMmdl.
 59 62  0  0  0  0  0  0  0  0  1 V2000
  144.0586  138.5721  157.4113 C   0  0  0  0  0  0  0  0  0  0  0  0
  145.1649  138.6262  156.4640 N   0  0  0  0  0  0  0  0  0  0  0  0
  145.8176  139.9192  156.2403 C   0  0  0  0  0  0  0  0  0  0  0  0
  146.5396  139.9987  154.8799 C   0  0  1  0  0  0  0  0  0  0  0  0
  145.6009  140.4758  153.9383 O   0  0  0  0  0  0  0  0  0  0  0  0
  147.7443  140.9665  154.8891 C   0  0  0  0  0  0  0  0  0  0  0  0
  149.0112  140.4019  155.3553 N   0  0  0  0  0  0  0  0  0  0  0  0
  150.0167  141.4276  155.6309 C   0  0  0  0  0  0  0  0  0  0  0  0
  151.3569  140.8155  156.0754 C   0  0  0  0  0  0  0  0  0  0  0  0
  151.8203  139.9030  155.0859 O   0  0  0  0  0  0  0  0  0  0  0  0
  150.8882  138.8589  154.8259 C   0  0  0  0  0  0  0  0  0  0  0  0
  149.5504  139.4673  154.3725 C   0  0  0  0  0  0  0  0  0  0  0  0
  145.3571  137.6028  155.5846 C   0  0  0  0  0  0  0  0  0  0  0  0
  146.4516  136.8132  155.7509 N   0  0  0  0  0  0  0  0  0  0  0  0
  146.6981  135.7980  154.9197 C   0  0  0  0  0  0  0  0  0  0  0  0
  145.9942  135.4003  153.8606 N   0  0  0  0  0  0  0  0  0  0  0  0
  144.8970  136.1873  153.6741 C   0  0  0  0  0  0  0  0  0  0  0  0
  144.5003  137.2929  154.4828 C   0  0  0  0  0  0  0  0  0  0  0  0
  143.3245  137.8352  153.9722 N   0  0  0  0  0  0  0  0  0  0  0  0
  143.0383  137.0891  152.9415 C   0  0  0  0  0  0  0  0  0  0  0  0
  143.9471  136.0929  152.6721 N   0  0  0  0  0  0  0  0  0  0  0  0
  143.8681  135.1103  151.6308 C   0  0  0  0  0  0  0  0  0  0  0  0
  143.7791  133.6183  151.9635 C   0  0  0  0  0  0  0  0  0  0  0  0
  144.6426  133.2789  150.7285 C   0  0  0  0  0  0  0  0  0  0  0  0
  145.7764  132.2725  150.9796 C   0  0  0  0  0  0  0  0  0  0  0  0
  146.6479  132.1875  149.8700 O   0  0  0  0  0  0  0  0  0  0  0  0
  143.8982  132.8150  149.4561 C   0  0  0  0  0  0  0  0  0  0  0  0
  143.2374  131.5756  149.6119 O   0  0  0  0  0  0  0  0  0  0  0  0
  145.0839  134.7597  150.7662 C   0  0  0  0  0  0  0  0  0  0  0  0
  144.0158  137.6016  157.9066 H   0  0  0  0  0  0  0  0  0  0  0  0
  143.1097  138.7546  156.9062 H   0  0  0  0  0  0  0  0  0  0  0  0
  144.1764  139.3307  158.1855 H   0  0  0  0  0  0  0  0  0  0  0  0
  145.0374  140.6808  156.2721 H   0  0  0  0  0  0  0  0  0  0  0  0
  146.5014  140.1824  157.0474 H   0  0  0  0  0  0  0  0  0  0  0  0
  146.8344  138.9940  154.5805 H   0  0  0  0  0  0  0  0  0  0  0  0
  145.9839  140.4158  153.0765 H   0  0  0  0  0  0  0  0  0  0  0  0
  147.8711  141.3567  153.8782 H   0  0  0  0  0  0  0  0  0  0  0  0
  147.5129  141.8329  155.5081 H   0  0  0  0  0  0  0  0  0  0  0  0
  150.1777  142.0376  154.7406 H   0  0  0  0  0  0  0  0  0  0  0  0
  149.6715  142.1017  156.4131 H   0  0  0  0  0  0  0  0  0  0  0  0
  152.1030  141.5978  156.2165 H   0  0  0  0  0  0  0  0  0  0  0  0
  151.2476  140.3005  157.0311 H   0  0  0  0  0  0  0  0  0  0  0  0
  151.2904  138.2066  154.0505 H   0  0  0  0  0  0  0  0  0  0  0  0
  150.7530  138.2493  155.7206 H   0  0  0  0  0  0  0  0  0  0  0  0
  148.8344  138.6643  154.1939 H   0  0  0  0  0  0  0  0  0  0  0  0
  149.6924  139.9757  153.4175 H   0  0  0  0  0  0  0  0  0  0  0  0
  147.5876  135.2236  155.1328 H   0  0  0  0  0  0  0  0  0  0  0  0
  142.1537  137.2536  152.3434 H   0  0  0  0  0  0  0  0  0  0  0  0
  143.0273  135.4139  151.0062 H   0  0  0  0  0  0  0  0  0  0  0  0
  144.2733  133.3747  152.9056 H   0  0  0  0  0  0  0  0  0  0  0  0
  142.7672  133.2126  151.9399 H   0  0  0  0  0  0  0  0  0  0  0  0
  146.3556  132.5423  151.8635 H   0  0  0  0  0  0  0  0  0  0  0  0
  145.3781  131.2745  151.1655 H   0  0  0  0  0  0  0  0  0  0  0  0
  147.2836  131.5087  150.0379 H   0  0  0  0  0  0  0  0  0  0  0  0
  143.1520  133.5510  149.1552 H   0  0  0  0  0  0  0  0  0  0  0  0
  144.5877  132.7104  148.6180 H   0  0  0  0  0  0  0  0  0  0  0  0
  142.3081  131.7363  149.6714 H   0  0  0  0  0  0  0  0  0  0  0  0
  145.1034  135.2584  149.7967 H   0  0  0  0  0  0  0  0  0  0  0  0
  146.0264  134.9065  151.2962 H   0  0  0  0  0  0  0  0  0  0  0  0
  1  2  1  0  0  0  0
  1 30  1  0  0  0  0
  1 31  1  0  0  0  0
  1 32  1  0  0  0  0
  2  3  1  0  0  0  0
  2 13  1  0  0  0  0
  3  4  1  0  0  0  0
  3 33  1  0  0  0  0
  3 34  1  0  0  0  0
  4  5  1  0  0  0  0
  4  6  1  0  0  0  0
  4 35  1  0  0  0  0
  5 36  1  0  0  0  0
  6  7  1  0  0  0  0
  6 37  1  0  0  0  0
  6 38  1  0  0  0  0
  7 12  1  0  0  0  0
  7  8  1  0  0  0  0
  8  9  1  0  0  0  0
  8 39  1  0  0  0  0
  8 40  1  0  0  0  0
  9 10  1  0  0  0  0
  9 41  1  0  0  0  0
  9 42  1  0  0  0  0
 10 11  1  0  0  0  0
 11 12  1  0  0  0  0
 11 43  1  0  0  0  0
 11 44  1  0  0  0  0
 12 45  1  0  0  0  0
 12 46  1  0  0  0  0
 13 18  1  0  0  0  0
 13 14  2  0  0  0  0
 14 15  1  0  0  0  0
 15 16  2  0  0  0  0
 15 47  1  0  0  0  0
 16 17  1  0  0  0  0
 17 21  1  0  0  0  0
 17 18  2  0  0  0  0
 18 19  1  0  0  0  0
 19 20  2  0  0  0  0
 20 21  1  0  0  0  0
 20 48  1  0  0  0  0
 21 22  1  0  0  0  0
 22 29  1  0  0  0  0
 22 23  1  0  0  0  0
 22 49  1  0  0  0  0
 23 24  1  0  0  0  0
 23 50  1  0  0  0  0
 23 51  1  0  0  0  0
 24 25  1  0  0  0  0
 24 27  1  0  0  0  0
 24 29  1  0  0  0  0
 25 26  1  0  0  0  0
 25 52  1  0  0  0  0
 25 53  1  0  0  0  0
 26 54  1  0  0  0  0
 27 28  1  0  0  0  0
 27 55  1  0  0  0  0
 27 56  1  0  0  0  0
 28 57  1  0  0  0  0
 29 58  1  0  0  0  0
 29 59  1  0  0  0  0
M  END
> <s_m_source_file>
AV-unprocessed.smi

> <i_m_source_file_index>
228

> <i_lp_mmshare_version>
43012

> <i_f3d_flags>
0

> <s_epik_input>
W0NIMl0xW0NIMl1PW0NIMl1bQ0gyXU4xW0NIMl1bQ0BASF0oW09IXSlbQ0gyXU4oW0NIM10pYyhuW2NIXW4yKWMoYzIzKW5bY0hdbjNbQ0hdKFtDSDJdNClbQ0gyXUM0KFtDSDJdW09IXSlbQ0gyXVtPSF0=

> <s_epik_cmdline>
J2VwaWtfcHl0aG9uJywgJy1waCcsICc3LjAnLCAnLXRuJywgJzgnLCAnLW1hJywgJzIwMCcsICctbWV0YWxfYmluZGluZycsICctaW1hZScsICc8aW5maWxlLm1hZT4nLCAnLW9tYWUnLCAnPG91dGZpbGUubWFlPic=

> <r_lp_tautomer_probability>
1

> <r_epik_Ionization_Penalty>
0.423559

> <r_epik_Ionization_Penalty_Charging>
0

> <r_epik_Ionization_Penalty_Neutral>
0.423559

> <r_epik_State_Penalty>
0.438466

> <r_epik_Charging_Adjusted_Penalty>
0.438466

> <i_epik_Tot_Q>
0

> <i_epik_Tot_abs_Q>
0

> <r_epik_Metal_State_Penalty>
0.436601

> <b_epik_Metal_Only>
0

> <s_lp_Force_Field>
OPLS_2005

> <r_lp_Energy>
57.656

> <b_lp_Chiralities_Consistent>
1

> <s_lp_Variant>
AV-unprocessed.smi:228-4

> <Gold.Version>
5.8.1

> <Gold.Id.Protein>
6NUR|6NUR_protein|mol2

> <Gold.PLP.Fitness>
46.6249

> <Gold.PLP.PLP>
-40.3638

> <Gold.PLP.part.hbond>
-4.6542

> <Gold.PLP.part.metal>
0.0000

> <Gold.PLP.part.buried>
-9.0294

> <Gold.PLP.part.nonpolar>
-28.6770

> <Gold.PLP.part.repulsive>
0.7800

> <Gold.PLP.ligand.clash>
0.0000

> <Gold.PLP.ligand.torsion>
2.5747

> <Gold.PLP.Chemscore.Hbond>
3.5200

> <Gold.PLP.Chemscore.CHOScore>
0.0000

> <Gold.PLP.Chemscore.Metal>
0.0000

> <Gold.Chemscore.Hbonds>
donor molecule, donor type, donor heavy atom, donor atom, acceptor molecule, acceptor atom, score
      L1  H    26    54       P1 10747  1.00
      L1  H    28    57       P1 10952  0.54
      P1  H  7989  7998       L1    10  0.96
      P1  H 10785 10796       L1    28  0.95

> <Gold.PLP.Chemscore.Internal.Correction>
0.8505

> <Gold.Rescore>
     Score         DG    S(hbond)    S(metal)    S(lipo)     H(rot)  DE(clash)    DE(int)     intcor
      7.89     -10.54       2.25        0.00      81.00       4.66       0.03       2.62       ----

> <Gold.Chemscore.Fitness>
7.8936

> <Gold.Chemscore.DG>
-10.5396

> <Gold.Chemscore.ZeroCoef>
-5.4800

> <Gold.Chemscore.Hbond>
2.2492

> <Gold.Chemscore.Metal>
0.0000

> <Gold.Chemscore.Lipo>
80.9994

> <Gold.Chemscore.Internal_Hbond>
0.0000

> <Gold.Chemscore.DEClash>
0.0279

> <Gold.Chemscore.DEInternal>
2.6181

> <Gold.Chemscore.Rot>
4.6600

> <Gold.Chemscore.Internal.Correction>
   9.000000E+99

> <Gold.Chemscore.Hbonds>
donor molecule, donor type, donor heavy atom, donor atom, acceptor molecule, acceptor atom, score
      L1  H    26    54       P1 10747  0.98
      L1  H    28    57       P1 10952  0.52
      P1  H  7989  7998       L1    10  0.09
      P1  H 10785 10796       L1    28  0.21

> <Gold.Chemscore.Hbond.Weighted>
-7.5124

> <Gold.Chemscore.Metal.Weighted>
-0.0000

> <Gold.Chemscore.Lipo.Weighted>
-9.4769

> <Gold.Chemscore.Internal_Hbond.Weighted>
0.0000

> <Gold.Chemscore.DEClash.Weighted>
0.0279

> <Gold.Chemscore.DEInternal.Weighted>
2.6181

> <Gold.Chemscore.Rot.Weighted>
11.9297

> <Gold.Chemscore.Internal.Correction.Weighted>
   9.000000E+99

> <Gold.Protein.RotatedTorsions>
[ 6907 6896 6895 6894 ] final   71.04 input  -60.11 | X-H torsion
[ 7974 7965 7964 7962 ] final  -98.68 input  175.53 | X-H torsion
[ 8008 7997 7996 7995 ] final   51.22 input   59.86 | X-H torsion
[ 10167 10162 10161 10158 ] final  109.36 input  -65.29 | X-H torsion
[ 10718 10713 10712 10709 ] final -123.12 input   66.30 | X-H torsion
[ 10763 10752 10751 10750 ] final    9.58 input  -60.55 | X-H torsion
[ 11005 11000 10999 10996 ] final   83.42 input  -57.11 | X-H torsion

> <Gold.Protein.ActiveResidues>
 VAL166  LYS551  ARG553  GLY616  TRP617  ASP618  TYR619  PRO620  LYS621  CYS622 
 ASP623  PHE694  ASN695  SER759  ASP760  ASP761  ALA762  ILE779  LEU786  VAL792 
 PHE793  MET794  SER795  GLU796  ALA797  LYS798  CYS799  TRP800  GLU811  SER814 

> <Gold.Protein.RotatedAtoms>
  152.4786  134.4780  159.9656 H   0  0  0  0  0  0  0  0  0  0  0  0  # atno 6907 bound_to 6896
  151.4791  133.3545  159.2843 H   0  0  0  0  0  0  0  0  0  0  0  0  # atno 6908 bound_to 6896
  150.8841  134.8263  159.7308 H   0  0  0  0  0  0  0  0  0  0  0  0  # atno 6909 bound_to 6896
  145.3174  140.9414  143.2735 H   0  0  0  0  0  0  0  0  0  0  0  0  # atno 7974 bound_to 7965
  155.4316  140.3451  155.4281 H   0  0  0  0  0  0  0  0  0  0  0  0  # atno 8008 bound_to 7997
  156.1333  140.1520  156.9064 H   0  0  0  0  0  0  0  0  0  0  0  0  # atno 8009 bound_to 7997
  154.4911  140.0841  156.7577 H   0  0  0  0  0  0  0  0  0  0  0  0  # atno 8010 bound_to 7997
  139.6772  144.7121  151.1580 H   0  0  0  0  0  0  0  0  0  0  0  0  # atno 10167 bound_to 10162
  156.1475  130.6511  150.9864 H   0  0  0  0  0  0  0  0  0  0  0  0  # atno 10718 bound_to 10713
  153.2124  135.6871  153.8097 H   0  0  0  0  0  0  0  0  0  0  0  0  # atno 10763 bound_to 10752
  153.7325  135.3250  155.3289 H   0  0  0  0  0  0  0  0  0  0  0  0  # atno 10764 bound_to 10752
  154.8229  135.4639  154.0938 H   0  0  0  0  0  0  0  0  0  0  0  0  # atno 10765 bound_to 10752
  139.9031  134.8143  156.2307 H   0  0  0  0  0  0  0  0  0  0  0  0  # atno 11005 bound_to 11000
  144.8966  139.4703  143.6652 LP  0  0  0  0  0  0  0  0  0  0  0  0  # atno 17320 bound_to 7965
  146.3095  139.7696  142.9030 LP  0  0  0  0  0  0  0  0  0  0  0  0  # atno 17321 bound_to 7965
  140.7640  143.5753  150.8952 LP  0  0  0  0  0  0  0  0  0  0  0  0  # atno 17342 bound_to 10162
  139.9423  143.6368  152.3050 LP  0  0  0  0  0  0  0  0  0  0  0  0  # atno 17343 bound_to 10162
  157.6629  131.0877  150.7796 LP  0  0  0  0  0  0  0  0  0  0  0  0  # atno 17370 bound_to 10713
  156.7867  130.4876  149.5392 LP  0  0  0  0  0  0  0  0  0  0  0  0  # atno 17371 bound_to 10713
  141.0347  133.6969  156.1492 LP  0  0  0  0  0  0  0  0  0  0  0  0  # atno 17394 bound_to 11000
  140.7044  134.4529  157.5585 LP  0  0  0  0  0  0  0  0  0  0  0  0  # atno 17395 bound_to 11000

$$$$
