AV-unprocessed.smi:112|AV-procd|sdf|1087|dock6
  -GOLD-   2262018183D 1   1.00000     0.00000
 Structure written by MMmdl.
 54 57  0  0  0  0  0  0  0  0  3 V2000
  146.3586  140.1748  158.8178 C   0  0  0  0  0  0  0  0  0  0  0  0
  147.3692  140.2286  157.6832 C   0  0  0  0  0  0  0  0  0  0  0  0
  147.2027  139.5286  156.5379 C   0  0  0  0  0  0  0  0  0  0  0  0
  148.0992  139.5591  155.4868 N   0  0  0  0  0  0  0  0  0  0  0  0
  147.8418  138.7460  154.2422 C   0  0  2  0  0  0  0  0  0  0  0  0
  147.0041  139.5214  153.2354 C   0  0  0  0  0  0  0  0  0  0  0  0
  146.3225  138.3916  152.4874 C   0  0  1  0  0  0  0  0  0  0  0  0
  147.1036  137.9996  151.3747 O   0  0  0  0  0  0  0  0  0  0  0  0
  146.2439  137.2432  153.5159 C   0  0  2  0  0  0  0  0  0  0  0  0
  144.8301  137.0628  154.0933 C   0  0  0  0  0  0  0  0  0  0  0  0
  144.4612  138.2071  154.8327 O   0  0  0  0  0  0  0  0  0  0  0  0
  147.1040  137.6210  154.5926 O   0  0  0  0  0  0  0  0  0  0  0  0
  149.2539  140.3621  155.5739 C   0  0  0  0  0  0  0  0  0  0  0  0
  150.0505  140.4336  154.6355 O   0  0  0  0  0  0  0  0  0  0  0  0
  149.4644  141.0970  156.7629 N   0  0  0  0  0  0  0  0  0  0  0  0
  150.6666  141.9562  156.8619 C   0  0  0  0  0  0  0  0  0  0  0  0
  151.6937  141.4691  157.9080 C   0  0  0  0  0  0  0  0  0  0  0  0
  152.3343  140.4424  157.6787 O   0  0  0  0  0  0  0  0  0  0  0  0
  151.8412  142.2007  159.0406 N   0  0  0  0  0  0  0  0  0  0  0  0
  151.0680  143.4219  159.3259 C   0  0  0  0  0  0  0  0  0  0  0  0
  151.5406  143.9217  160.7087 C   0  0  0  0  0  0  0  0  0  0  0  0
  152.5803  142.9126  161.0971 C   0  0  0  0  0  0  0  0  0  0  0  0
  153.3384  142.9018  162.2802 C   0  0  0  0  0  0  0  0  0  0  0  0
  154.2829  141.8642  162.4785 C   0  0  0  0  0  0  0  0  0  0  0  0
  155.0978  141.8205  163.7089 N   0  3  0  0  0  0  0  0  0  0  0  0
  155.8953  140.8984  163.8461 O   0  0  0  0  0  0  0  0  0  0  0  0
  154.9418  142.7086  164.5406 O   0  5  0  0  0  0  0  0  0  0  0  0
  154.4347  140.8684  161.4773 C   0  0  0  0  0  0  0  0  0  0  0  0
  153.6643  140.8947  160.2941 C   0  0  0  0  0  0  0  0  0  0  0  0
  152.7289  141.9374  160.1177 C   0  0  0  0  0  0  0  0  0  0  0  0
  148.5538  141.0746  157.8486 C   0  0  0  0  0  0  0  0  0  0  0  0
  148.7657  141.7470  158.8597 O   0  0  0  0  0  0  0  0  0  0  0  0
  145.5268  139.5080  158.5886 H   0  0  0  0  0  0  0  0  0  0  0  0
  145.9477  141.1666  159.0099 H   0  0  0  0  0  0  0  0  0  0  0  0
  146.8309  139.8157  159.7328 H   0  0  0  0  0  0  0  0  0  0  0  0
  146.3175  138.9170  156.4359 H   0  0  0  0  0  0  0  0  0  0  0  0
  148.7990  138.4132  153.8391 H   0  0  0  0  0  0  0  0  0  0  0  0
  146.2611  140.1224  153.7610 H   0  0  0  0  0  0  0  0  0  0  0  0
  147.6208  140.1760  152.6182 H   0  0  0  0  0  0  0  0  0  0  0  0
  145.3422  138.6956  152.1185 H   0  0  0  0  0  0  0  0  0  0  0  0
  147.8403  137.4950  151.6842 H   0  0  0  0  0  0  0  0  0  0  0  0
  146.5890  136.3073  153.0718 H   0  0  0  0  0  0  0  0  0  0  0  0
  144.0997  136.8656  153.3081 H   0  0  0  0  0  0  0  0  0  0  0  0
  144.8058  136.2153  154.7788 H   0  0  0  0  0  0  0  0  0  0  0  0
  144.0793  138.8353  154.2387 H   0  0  0  0  0  0  0  0  0  0  0  0
  151.1578  142.0327  155.8910 H   0  0  0  0  0  0  0  0  0  0  0  0
  150.3808  142.9824  157.0973 H   0  0  0  0  0  0  0  0  0  0  0  0
  151.2520  144.1820  158.5655 H   0  0  0  0  0  0  0  0  0  0  0  0
  149.9985  143.2083  159.3463 H   0  0  0  0  0  0  0  0  0  0  0  0
  151.9776  144.9191  160.6532 H   0  0  0  0  0  0  0  0  0  0  0  0
  150.7285  143.9313  161.4361 H   0  0  0  0  0  0  0  0  0  0  0  0
  153.1927  143.6784  163.0167 H   0  0  0  0  0  0  0  0  0  0  0  0
  155.1490  140.0687  161.6071 H   0  0  0  0  0  0  0  0  0  0  0  0
  153.8123  140.1199  159.5588 H   0  0  0  0  0  0  0  0  0  0  0  0
  1  2  1  0  0  0  0
  1 33  1  0  0  0  0
  1 34  1  0  0  0  0
  1 35  1  0  0  0  0
  2 31  1  0  0  0  0
  2  3  2  0  0  0  0
  3  4  1  0  0  0  0
  3 36  1  0  0  0  0
  4  5  1  0  0  0  0
  4 13  1  0  0  0  0
  5 12  1  0  0  0  0
  5  6  1  0  0  0  0
  5 37  1  0  0  0  0
  6  7  1  0  0  0  0
  6 38  1  0  0  0  0
  6 39  1  0  0  0  0
  7  8  1  0  0  0  0
  7  9  1  0  0  0  0
  7 40  1  0  0  0  0
  8 41  1  0  0  0  0
  9 10  1  0  0  0  0
  9 12  1  0  0  0  0
  9 42  1  0  0  0  0
 10 11  1  0  0  0  0
 10 43  1  0  0  0  0
 10 44  1  0  0  0  0
 11 45  1  0  0  0  0
 13 14  2  0  0  0  0
 13 15  1  0  0  0  0
 15 16  1  0  0  0  0
 15 31  1  0  0  0  0
 16 17  1  0  0  0  0
 16 46  1  0  0  0  0
 16 47  1  0  0  0  0
 17 18  2  0  0  0  0
 17 19  1  0  0  0  0
 19 30  1  0  0  0  0
 19 20  1  0  0  0  0
 20 21  1  0  0  0  0
 20 48  1  0  0  0  0
 20 49  1  0  0  0  0
 21 22  1  0  0  0  0
 21 50  1  0  0  0  0
 21 51  1  0  0  0  0
 22 30  2  0  0  0  0
 22 23  1  0  0  0  0
 23 24  2  0  0  0  0
 23 52  1  0  0  0  0
 24 25  1  0  0  0  0
 24 28  1  0  0  0  0
 25 26  2  0  0  0  0
 25 27  1  0  0  0  0
 28 29  2  0  0  0  0
 28 53  1  0  0  0  0
 29 30  1  0  0  0  0
 29 54  1  0  0  0  0
 31 32  2  0  0  0  0
M  CHG  1  25   1
M  CHG  1  27  -1
M  END
> <s_m_source_file>
AV-unprocessed.smi

> <i_m_source_file_index>
112

> <i_lp_mmshare_version>
43012

> <i_f3d_flags>
0

> <s_epik_input>
W09IXVtDSDJdW0NAQEhdKE8xKVtDQEhdKFtPSF0pW0NIMl1bQ0BIXTFuKFtjSF1jMltDSDNdKWMoPU8pbihjMj1PKVtDSDJdQyg9TylOKFtDSDJdW0NIMl0zKWMoYzM0KVtjSF1bY0hdYyhbY0hdNClbTitdKD1PKVtPLV0=

> <s_epik_cmdline>
J2VwaWtfcHl0aG9uJywgJy1waCcsICc3LjAnLCAnLXRuJywgJzgnLCAnLW1hJywgJzIwMCcsICctbWV0YWxfYmluZGluZycsICctaW1hZScsICc8aW5maWxlLm1hZT4nLCAnLW9tYWUnLCAnPG91dGZpbGUubWFlPic=

> <r_lp_tautomer_probability>
1

> <r_epik_Ionization_Penalty>
2.5696e-07

> <r_epik_Ionization_Penalty_Charging>
1.04886e-08

> <r_epik_Ionization_Penalty_Neutral>
2.46472e-07

> <r_epik_State_Penalty>
-0

> <r_epik_Charging_Adjusted_Penalty>
1.04886e-08

> <i_epik_Tot_Q>
0

> <i_epik_Tot_abs_Q>
2

> <r_epik_Metal_State_Penalty>
-0

> <b_epik_Metal_Only>
0

> <s_epik_Chemistry_Notes>
This compound contains an acetal/aminal-like group ( X-CH(R)-Y where X, Y are N, S, or O) that may be acid/base labile, releasing an aldehyde.

> <s_lp_Force_Field>
OPLS_2005

> <r_lp_Energy>
58.3709

> <b_lp_Chiralities_Consistent>
1

> <s_lp_Variant>
AV-unprocessed.smi:112-5

> <Gold.Version>
5.8.1

> <Gold.Id.Protein>
6NUR|6NUR_protein|mol2

> <Gold.PLP.Fitness>
65.2303

> <Gold.PLP.PLP>
-57.3472

> <Gold.PLP.part.hbond>
-5.5995

> <Gold.PLP.part.metal>
0.0000

> <Gold.PLP.part.buried>
-4.6903

> <Gold.PLP.part.nonpolar>
-47.0637

> <Gold.PLP.part.repulsive>
0.4358

> <Gold.PLP.ligand.clash>
0.0000

> <Gold.PLP.ligand.torsion>
0.9344

> <Gold.PLP.Chemscore.Hbond>
3.2380

> <Gold.PLP.Chemscore.CHOScore>
0.0000

> <Gold.PLP.Chemscore.Metal>
0.0000

> <Gold.Chemscore.Hbonds>
donor molecule, donor type, donor heavy atom, donor atom, acceptor molecule, acceptor atom, score
      L1  H     8    41       P1  7948  1.00
      L1  H    11    45       P1 10175  0.02
      P1  H  7989  7998       L1    14  0.93
      P1  H  7997  8009       L1    18  0.23

> <Gold.PLP.Chemscore.Internal.Correction>
0.0379

> <Gold.Rescore>
     Score         DG    S(hbond)    S(metal)    S(lipo)     H(rot)  DE(clash)    DE(int)     intcor
     16.31     -21.03       3.36        0.00     109.08       3.29       0.84       3.88       ----

> <Gold.Chemscore.Fitness>
16.3129

> <Gold.Chemscore.DG>
-21.0300

> <Gold.Chemscore.ZeroCoef>
-5.4800

> <Gold.Chemscore.Hbond>
3.3577

> <Gold.Chemscore.Metal>
0.0000

> <Gold.Chemscore.Lipo>
109.0753

> <Gold.Chemscore.Internal_Hbond>
0.0000

> <Gold.Chemscore.DEClash>
0.8394

> <Gold.Chemscore.DEInternal>
3.8777

> <Gold.Chemscore.Rot>
3.2916

> <Gold.Chemscore.Internal.Correction>
   9.000000E+99

> <Gold.Chemscore.Hbonds>
donor molecule, donor type, donor heavy atom, donor atom, acceptor molecule, acceptor atom, score
      L1  H     8    41       P1  7948  0.99
      L1  H    11    45       P1 10175  0.07
      P1  H  7989  7998       L1    14  0.88
      P1  H  7997  8009       L1    18  0.23

> <Gold.Chemscore.Hbond.Weighted>
-11.2147

> <Gold.Chemscore.Metal.Weighted>
-0.0000

> <Gold.Chemscore.Lipo.Weighted>
-12.7618

> <Gold.Chemscore.Internal_Hbond.Weighted>
0.0000

> <Gold.Chemscore.DEClash.Weighted>
0.8394

> <Gold.Chemscore.DEInternal.Weighted>
3.8777

> <Gold.Chemscore.Rot.Weighted>
8.4265

> <Gold.Chemscore.Internal.Correction.Weighted>
   9.000000E+99

> <Gold.Protein.RotatedTorsions>
[ 6907 6896 6895 6894 ] final -163.39 input  -60.11 | X-H torsion
[ 7974 7965 7964 7962 ] final  147.59 input  175.53 | X-H torsion
[ 8008 7997 7996 7995 ] final -175.35 input   59.86 | X-H torsion
[ 10167 10162 10161 10158 ] final  163.09 input  -65.29 | X-H torsion
[ 10718 10713 10712 10709 ] final -163.35 input   66.30 | X-H torsion
[ 10763 10752 10751 10750 ] final  155.53 input  -60.55 | X-H torsion
[ 11005 11000 10999 10996 ] final   45.84 input  -57.11 | X-H torsion

> <Gold.Protein.ActiveResidues>
 VAL166  LYS551  ARG553  GLY616  TRP617  ASP618  TYR619  PRO620  LYS621  CYS622 
 ASP623  PHE694  ASN695  SER759  ASP760  ASP761  ALA762  ILE779  LEU786  VAL792 
 PHE793  MET794  SER795  GLU796  ALA797  LYS798  CYS799  TRP800  GLU811  SER814 

> <Gold.Protein.RotatedAtoms>
  151.3953  133.3775  159.2725 H   0  0  0  0  0  0  0  0  0  0  0  0  # atno 6907 bound_to 6896
  150.9474  134.8878  159.7661 H   0  0  0  0  0  0  0  0  0  0  0  0  # atno 6908 bound_to 6896
  152.5097  134.3907  159.9435 H   0  0  0  0  0  0  0  0  0  0  0  0  # atno 6909 bound_to 6896
  144.8579  139.6048  143.5944 H   0  0  0  0  0  0  0  0  0  0  0  0  # atno 7974 bound_to 7965
  155.9815  140.1182  157.0722 H   0  0  0  0  0  0  0  0  0  0  0  0  # atno 8008 bound_to 7997
  154.4184  140.1143  156.5510 H   0  0  0  0  0  0  0  0  0  0  0  0  # atno 8009 bound_to 7997
  155.6464  140.3473  155.4735 H   0  0  0  0  0  0  0  0  0  0  0  0  # atno 8010 bound_to 7997
  139.4869  144.4372  151.8997 H   0  0  0  0  0  0  0  0  0  0  0  0  # atno 10167 bound_to 10162
  156.6235  130.8900  151.2962 H   0  0  0  0  0  0  0  0  0  0  0  0  # atno 10718 bound_to 10713
  154.1698  135.2805  155.3084 H   0  0  0  0  0  0  0  0  0  0  0  0  # atno 10763 bound_to 10752
  154.6083  135.5507  153.7450 H   0  0  0  0  0  0  0  0  0  0  0  0  # atno 10764 bound_to 10752
  153.0168  135.6409  154.1839 H   0  0  0  0  0  0  0  0  0  0  0  0  # atno 10765 bound_to 10752
  140.1423  134.4567  155.8441 H   0  0  0  0  0  0  0  0  0  0  0  0  # atno 11005 bound_to 11000
  146.2838  139.6948  142.9210 LP  0  0  0  0  0  0  0  0  0  0  0  0  # atno 17320 bound_to 7965
  145.4369  141.0419  143.2879 LP  0  0  0  0  0  0  0  0  0  0  0  0  # atno 17321 bound_to 7965
  140.3822  144.2721  150.5907 LP  0  0  0  0  0  0  0  0  0  0  0  0  # atno 17342 bound_to 10162
  140.5222  143.2263  151.8370 LP  0  0  0  0  0  0  0  0  0  0  0  0  # atno 17343 bound_to 10162
  157.7221  130.9572  150.1480 LP  0  0  0  0  0  0  0  0  0  0  0  0  # atno 17370 bound_to 10713
  156.2292  130.3680  149.8464 LP  0  0  0  0  0  0  0  0  0  0  0  0  # atno 17371 bound_to 10713
  141.2187  133.6838  156.7269 LP  0  0  0  0  0  0  0  0  0  0  0  0  # atno 17394 bound_to 11000
  140.2707  134.8394  157.3844 LP  0  0  0  0  0  0  0  0  0  0  0  0  # atno 17395 bound_to 11000

$$$$
