AV-unprocessed.smi:2997|AV-procd|sdf|11412|dock10
  -GOLD-   2272016333D 1   1.00000     0.00000
 Structure written by MMmdl.
 38 40  0  0  0  0  0  0  0  0  1 V2000
  153.0965  142.8831  161.2853 C   0  0  0  0  0  0  0  0  0  0  0  0
  152.4233  142.5189  159.9738 C   0  0  0  0  0  0  0  0  0  0  0  0
  152.3525  141.1602  159.5919 C   0  0  0  0  0  0  0  0  0  0  0  0
  151.7311  140.7792  158.3823 C   0  0  0  0  0  0  0  0  0  0  0  0
  151.5499  139.5271  157.8200 N   0  0  0  0  0  0  0  0  0  0  0  0
  150.9037  139.8289  156.6971 C   0  0  0  0  0  0  0  0  0  0  0  0
  150.6467  141.1306  156.4647 N   0  0  0  0  0  0  0  0  0  0  0  0
  149.9598  141.6992  155.3192 C   0  0  0  0  0  0  0  0  0  0  0  0
  149.1546  140.6466  154.5348 C   0  0  2  0  0  0  0  0  0  0  0  0
  150.0404  139.8220  153.8004 O   0  0  0  0  0  0  0  0  0  0  0  0
  148.1334  141.2959  153.5818 C   0  0  0  0  0  0  0  0  0  0  0  0
  147.1106  142.0444  154.2913 N   0  0  0  0  0  0  0  0  0  0  0  0
  146.1545  142.8898  153.7691 C   0  0  0  0  0  0  0  0  0  0  0  0
  145.4193  143.3679  154.8157 C   0  0  0  0  0  0  0  0  0  0  0  0
  146.0090  142.7493  155.9534 C   0  0  0  0  0  0  0  0  0  0  0  0
  147.0210  141.9578  155.6363 N   0  0  0  0  0  0  0  0  0  0  0  0
  151.1784  141.8032  157.5589 C   0  0  0  0  0  0  0  0  0  0  0  0
  151.2440  143.1586  157.9271 C   0  0  0  0  0  0  0  0  0  0  0  0
  151.8690  143.5219  159.1385 C   0  0  0  0  0  0  0  0  0  0  0  0
  151.9378  144.9885  159.5260 C   0  0  0  0  0  0  0  0  0  0  0  0
  153.4755  141.9982  161.7975 H   0  0  0  0  0  0  0  0  0  0  0  0
  152.3903  143.3786  161.9520 H   0  0  0  0  0  0  0  0  0  0  0  0
  153.9375  143.5542  161.1107 H   0  0  0  0  0  0  0  0  0  0  0  0
  152.7755  140.3962  160.2274 H   0  0  0  0  0  0  0  0  0  0  0  0
  150.5959  139.0595  156.0039 H   0  0  0  0  0  0  0  0  0  0  0  0
  149.2985  142.4883  155.6786 H   0  0  0  0  0  0  0  0  0  0  0  0
  150.6955  142.1797  154.6724 H   0  0  0  0  0  0  0  0  0  0  0  0
  148.6199  140.0107  155.2419 H   0  0  0  0  0  0  0  0  0  0  0  0
  149.6785  139.6875  152.9374 H   0  0  0  0  0  0  0  0  0  0  0  0
  148.6409  141.9823  152.9030 H   0  0  0  0  0  0  0  0  0  0  0  0
  147.6551  140.5388  152.9579 H   0  0  0  0  0  0  0  0  0  0  0  0
  146.0792  143.0796  152.7085 H   0  0  0  0  0  0  0  0  0  0  0  0
  144.5873  144.0552  154.7750 H   0  0  0  0  0  0  0  0  0  0  0  0
  145.7337  142.8518  156.9927 H   0  0  0  0  0  0  0  0  0  0  0  0
  150.8162  143.9112  157.2814 H   0  0  0  0  0  0  0  0  0  0  0  0
  151.4436  145.6190  158.7863 H   0  0  0  0  0  0  0  0  0  0  0  0
  152.9755  145.3142  159.6031 H   0  0  0  0  0  0  0  0  0  0  0  0
  151.4501  145.1550  160.4866 H   0  0  0  0  0  0  0  0  0  0  0  0
  1  2  1  0  0  0  0
  1 21  1  0  0  0  0
  1 22  1  0  0  0  0
  1 23  1  0  0  0  0
  2 19  1  0  0  0  0
  2  3  2  0  0  0  0
  3  4  1  0  0  0  0
  3 24  1  0  0  0  0
  4 17  2  0  0  0  0
  4  5  1  0  0  0  0
  5  6  2  0  0  0  0
  6  7  1  0  0  0  0
  6 25  1  0  0  0  0
  7  8  1  0  0  0  0
  7 17  1  0  0  0  0
  8  9  1  0  0  0  0
  8 26  1  0  0  0  0
  8 27  1  0  0  0  0
  9 10  1  0  0  0  0
  9 11  1  0  0  0  0
  9 28  1  0  0  0  0
 10 29  1  0  0  0  0
 11 12  1  0  0  0  0
 11 30  1  0  0  0  0
 11 31  1  0  0  0  0
 12 16  1  0  0  0  0
 12 13  1  0  0  0  0
 13 14  2  0  0  0  0
 13 32  1  0  0  0  0
 14 15  1  0  0  0  0
 14 33  1  0  0  0  0
 15 16  2  0  0  0  0
 15 34  1  0  0  0  0
 17 18  1  0  0  0  0
 18 19  2  0  0  0  0
 18 35  1  0  0  0  0
 19 20  1  0  0  0  0
 20 36  1  0  0  0  0
 20 37  1  0  0  0  0
 20 38  1  0  0  0  0
M  END
> <s_m_source_file>
AV-unprocessed.smi

> <i_m_source_file_index>
2997

> <i_lp_mmshare_version>
43012

> <i_f3d_flags>
0

> <s_epik_input>
W0NIM11jKFtjSF0xKWMoW0NIM10pW2NIXWMoYzEyKW4oW2NIXW4yKVtDSDJdW0NASF0oW09IXSlbQ0gyXW4zW2NIXVtjSF1bY0hdbjM=

> <s_epik_cmdline>
J2VwaWtfcHl0aG9uJywgJy1waCcsICc3LjAnLCAnLXRuJywgJzgnLCAnLW1hJywgJzIwMCcsICctbWV0YWxfYmluZGluZycsICctaW1hZScsICc8aW5maWxlLm1hZT4nLCAnLW9tYWUnLCAnPG91dGZpbGUubWFlPic=

> <r_lp_tautomer_probability>
1

> <r_epik_Ionization_Penalty>
0.102113

> <r_epik_Ionization_Penalty_Charging>
0

> <r_epik_Ionization_Penalty_Neutral>
0.102113

> <r_epik_State_Penalty>
0.0920694

> <r_epik_Charging_Adjusted_Penalty>
0.0920694

> <i_epik_Tot_Q>
0

> <i_epik_Tot_abs_Q>
0

> <r_epik_Metal_State_Penalty>
0.0784306

> <b_epik_Metal_Only>
0

> <s_lp_Force_Field>
OPLS_2005

> <r_lp_Energy>
8.0564

> <b_lp_Chiralities_Consistent>
1

> <s_lp_Variant>
AV-unprocessed.smi:2997-1

> <Gold.Version>
5.8.1

> <Gold.Id.Protein>
6NUR|6NUR_protein|mol2

> <Gold.PLP.Fitness>
53.9420

> <Gold.PLP.PLP>
-49.1610

> <Gold.PLP.part.hbond>
-2.0000

> <Gold.PLP.part.metal>
0.0000

> <Gold.PLP.part.buried>
-4.3845

> <Gold.PLP.part.nonpolar>
-41.6396

> <Gold.PLP.part.repulsive>
0.1290

> <Gold.PLP.ligand.clash>
0.0000

> <Gold.PLP.ligand.torsion>
0.4338

> <Gold.PLP.Chemscore.Hbond>
1.8800

> <Gold.PLP.Chemscore.CHOScore>
0.0000

> <Gold.PLP.Chemscore.Metal>
0.0000

> <Gold.Chemscore.Hbonds>
donor molecule, donor type, donor heavy atom, donor atom, acceptor molecule, acceptor atom, score
      L1  H    10    29       P1  7957  1.00
      P1  H  7989  7998       L1    10  0.88

> <Gold.PLP.Chemscore.Internal.Correction>
0.0086

> <Gold.Rescore>
     Score         DG    S(hbond)    S(metal)    S(lipo)     H(rot)  DE(clash)    DE(int)     intcor
     16.68     -18.37       1.47        0.00     115.23       2.15       0.17       1.52       ----

> <Gold.Chemscore.Fitness>
16.6756

> <Gold.Chemscore.DG>
-18.3662

> <Gold.Chemscore.ZeroCoef>
-5.4800

> <Gold.Chemscore.Hbond>
1.4722

> <Gold.Chemscore.Metal>
0.0000

> <Gold.Chemscore.Lipo>
115.2290

> <Gold.Chemscore.Internal_Hbond>
0.0000

> <Gold.Chemscore.DEClash>
0.1690

> <Gold.Chemscore.DEInternal>
1.5216

> <Gold.Chemscore.Rot>
2.1534

> <Gold.Chemscore.Internal.Correction>
   9.000000E+99

> <Gold.Chemscore.Hbonds>
donor molecule, donor type, donor heavy atom, donor atom, acceptor molecule, acceptor atom, score
      L1  H    10    29       P1  7957  0.96
      P1  H  7989  7998       L1    10  0.21

> <Gold.Chemscore.Hbond.Weighted>
-4.9171

> <Gold.Chemscore.Metal.Weighted>
-0.0000

> <Gold.Chemscore.Lipo.Weighted>
-13.4818

> <Gold.Chemscore.Internal_Hbond.Weighted>
0.0000

> <Gold.Chemscore.DEClash.Weighted>
0.1690

> <Gold.Chemscore.DEInternal.Weighted>
1.5216

> <Gold.Chemscore.Rot.Weighted>
5.5127

> <Gold.Chemscore.Internal.Correction.Weighted>
   9.000000E+99

> <Gold.Protein.RotatedTorsions>
[ 6907 6896 6895 6894 ] final  -94.55 input  -60.11 | X-H torsion
[ 7974 7965 7964 7962 ] final  -74.58 input  175.53 | X-H torsion
[ 8008 7997 7996 7995 ] final -154.12 input   59.86 | X-H torsion
[ 10167 10162 10161 10158 ] final   42.52 input  -65.29 | X-H torsion
[ 10718 10713 10712 10709 ] final   35.18 input   66.30 | X-H torsion
[ 10763 10752 10751 10750 ] final -167.30 input  -60.55 | X-H torsion
[ 11005 11000 10999 10996 ] final   35.32 input  -57.11 | X-H torsion

> <Gold.Protein.ActiveResidues>
 VAL166  LYS551  ARG553  GLY616  TRP617  ASP618  TYR619  PRO620  LYS621  CYS622 
 ASP623  PHE694  ASN695  SER759  ASP760  ASP761  ALA762  ILE779  LEU786  VAL792 
 PHE793  MET794  SER795  GLU796  ALA797  LYS798  CYS799  TRP800  GLU811  SER814 

> <Gold.Protein.RotatedAtoms>
  150.6944  134.1794  159.4242 H   0  0  0  0  0  0  0  0  0  0  0  0  # atno 6907 bound_to 6896
  151.9769  135.0046  160.0565 H   0  0  0  0  0  0  0  0  0  0  0  0  # atno 6908 bound_to 6896
  152.1790  133.4659  159.4985 H   0  0  0  0  0  0  0  0  0  0  0  0  # atno 6909 bound_to 6896
  145.6372  140.9321  143.1055 H   0  0  0  0  0  0  0  0  0  0  0  0  # atno 7974 bound_to 7965
  155.6814  140.0744  157.2483 H   0  0  0  0  0  0  0  0  0  0  0  0  # atno 8008 bound_to 7997
  154.4105  140.1681  156.2038 H   0  0  0  0  0  0  0  0  0  0  0  0  # atno 8009 bound_to 7997
  155.9531  140.3376  155.6428 H   0  0  0  0  0  0  0  0  0  0  0  0  # atno 8010 bound_to 7997
  140.3536  144.2319  150.6143 H   0  0  0  0  0  0  0  0  0  0  0  0  # atno 10167 bound_to 10162
  157.3195  130.7441  149.6776 H   0  0  0  0  0  0  0  0  0  0  0  0  # atno 10718 bound_to 10713
  154.6745  135.2944  154.9697 H   0  0  0  0  0  0  0  0  0  0  0  0  # atno 10763 bound_to 10752
  154.0712  135.6618  153.4828 H   0  0  0  0  0  0  0  0  0  0  0  0  # atno 10764 bound_to 10752
  153.0508  135.5175  154.7758 H   0  0  0  0  0  0  0  0  0  0  0  0  # atno 10765 bound_to 10752
  140.2438  134.3383  155.7915 H   0  0  0  0  0  0  0  0  0  0  0  0  # atno 11005 bound_to 11000
  144.7171  139.8159  143.7395 LP  0  0  0  0  0  0  0  0  0  0  0  0  # atno 17320 bound_to 7965
  146.1310  139.4345  143.0169 LP  0  0  0  0  0  0  0  0  0  0  0  0  # atno 17321 bound_to 7965
  140.5195  143.2269  151.8411 LP  0  0  0  0  0  0  0  0  0  0  0  0  # atno 17342 bound_to 10162
  139.4823  144.4854  151.9254 LP  0  0  0  0  0  0  0  0  0  0  0  0  # atno 17343 bound_to 10162
  155.9684  130.4227  150.4529 LP  0  0  0  0  0  0  0  0  0  0  0  0  # atno 17370 bound_to 10713
  157.2542  131.0553  151.2360 LP  0  0  0  0  0  0  0  0  0  0  0  0  # atno 17371 bound_to 10713
  141.2208  133.7314  156.8929 LP  0  0  0  0  0  0  0  0  0  0  0  0  # atno 17394 bound_to 11000
  140.1626  134.9155  157.2734 LP  0  0  0  0  0  0  0  0  0  0  0  0  # atno 17395 bound_to 11000

$$$$
