AV-unprocessed.smi:431|AV-procd|sdf|2548|dock8
  -GOLD-   2262022513D 1   1.00000     0.00000
 Structure written by MMmdl.
 43 44  0  0  0  0  0  0  0  0  1 V2000
  153.0543  142.7236  159.5109 C   0  0  0  0  0  0  0  0  0  0  0  0
  152.7045  143.9528  158.6576 C   0  0  0  0  0  0  0  0  0  0  0  0
  151.1887  144.1888  158.4766 C   0  0  1  0  0  0  0  0  0  0  0  0
  150.5278  142.9987  157.7600 C   0  0  0  0  0  0  0  0  0  0  0  0
  150.4825  144.4498  159.8157 C   0  0  0  0  0  0  0  0  0  0  0  0
  151.0279  144.1376  160.8747 O   0  0  0  0  0  0  0  0  0  0  0  0
  149.2673  145.0160  159.7508 N   0  0  0  0  0  0  0  0  0  0  0  0
  148.4053  145.3148  160.8900 C   0  0  0  0  0  0  0  0  0  0  0  0
  146.9713  144.8582  160.6796 C   0  0  0  0  0  0  0  0  0  0  0  0
  146.3444  144.0003  161.6040 C   0  0  0  0  0  0  0  0  0  0  0  0
  145.0119  143.6063  161.3767 C   0  0  0  0  0  0  0  0  0  0  0  0
  144.3387  144.0759  160.2231 C   0  0  0  0  0  0  0  0  0  0  0  0
  143.0009  143.6978  159.9746 N   0  0  0  0  0  0  0  0  0  0  0  0
  142.0334  144.7523  159.6744 C   0  0  0  0  0  0  0  0  0  0  0  0
  140.6001  144.1981  159.7331 C   0  0  0  0  0  0  0  0  0  0  0  0
  140.4822  143.0797  158.8602 O   0  0  0  0  0  0  0  0  0  0  0  0
  141.3543  142.0198  159.2380 C   0  0  0  0  0  0  0  0  0  0  0  0
  142.8156  142.4952  159.1655 C   0  0  0  0  0  0  0  0  0  0  0  0
  144.9478  144.9015  159.3360 N   0  0  0  0  0  0  0  0  0  0  0  0
  146.2249  145.2763  159.5586 C   0  0  0  0  0  0  0  0  0  0  0  0
  154.1325  142.6462  159.6511 H   0  0  0  0  0  0  0  0  0  0  0  0
  152.7183  141.7979  159.0434 H   0  0  0  0  0  0  0  0  0  0  0  0
  152.5960  142.7877  160.4980 H   0  0  0  0  0  0  0  0  0  0  0  0
  153.1447  144.8315  159.1302 H   0  0  0  0  0  0  0  0  0  0  0  0
  153.1897  143.8663  157.6842 H   0  0  0  0  0  0  0  0  0  0  0  0
  151.0577  145.0662  157.8408 H   0  0  0  0  0  0  0  0  0  0  0  0
  149.4559  143.1567  157.6325 H   0  0  0  0  0  0  0  0  0  0  0  0
  150.6638  142.0697  158.3154 H   0  0  0  0  0  0  0  0  0  0  0  0
  150.9551  142.8546  156.7674 H   0  0  0  0  0  0  0  0  0  0  0  0
  148.9023  145.2408  158.8366 H   0  0  0  0  0  0  0  0  0  0  0  0
  148.7906  144.8638  161.8061 H   0  0  0  0  0  0  0  0  0  0  0  0
  148.4268  146.3928  161.0523 H   0  0  0  0  0  0  0  0  0  0  0  0
  146.8700  143.6530  162.4813 H   0  0  0  0  0  0  0  0  0  0  0  0
  144.5213  142.9667  162.0947 H   0  0  0  0  0  0  0  0  0  0  0  0
  142.1313  145.5716  160.3878 H   0  0  0  0  0  0  0  0  0  0  0  0
  142.2376  145.1566  158.6820 H   0  0  0  0  0  0  0  0  0  0  0  0
  140.3368  143.9080  160.7517 H   0  0  0  0  0  0  0  0  0  0  0  0
  139.8881  144.9645  159.4265 H   0  0  0  0  0  0  0  0  0  0  0  0
  141.1084  141.6724  160.2429 H   0  0  0  0  0  0  0  0  0  0  0  0
  141.2003  141.1771  158.5641 H   0  0  0  0  0  0  0  0  0  0  0  0
  143.0822  142.7229  158.1327 H   0  0  0  0  0  0  0  0  0  0  0  0
  143.4658  141.6838  159.4884 H   0  0  0  0  0  0  0  0  0  0  0  0
  146.6598  145.9302  158.8175 H   0  0  0  0  0  0  0  0  0  0  0  0
  1  2  1  0  0  0  0
  1 21  1  0  0  0  0
  1 22  1  0  0  0  0
  1 23  1  0  0  0  0
  2  3  1  0  0  0  0
  2 24  1  0  0  0  0
  2 25  1  0  0  0  0
  3  4  1  0  0  0  0
  3  5  1  0  0  0  0
  3 26  1  0  0  0  0
  4 27  1  0  0  0  0
  4 28  1  0  0  0  0
  4 29  1  0  0  0  0
  5  6  2  0  0  0  0
  5  7  1  0  0  0  0
  7  8  1  0  0  0  0
  7 30  1  0  0  0  0
  8  9  1  0  0  0  0
  8 31  1  0  0  0  0
  8 32  1  0  0  0  0
  9 20  1  0  0  0  0
  9 10  2  0  0  0  0
 10 11  1  0  0  0  0
 10 33  1  0  0  0  0
 11 12  2  0  0  0  0
 11 34  1  0  0  0  0
 12 13  1  0  0  0  0
 12 19  1  0  0  0  0
 13 18  1  0  0  0  0
 13 14  1  0  0  0  0
 14 15  1  0  0  0  0
 14 35  1  0  0  0  0
 14 36  1  0  0  0  0
 15 16  1  0  0  0  0
 15 37  1  0  0  0  0
 15 38  1  0  0  0  0
 16 17  1  0  0  0  0
 17 18  1  0  0  0  0
 17 39  1  0  0  0  0
 17 40  1  0  0  0  0
 18 41  1  0  0  0  0
 18 42  1  0  0  0  0
 19 20  2  0  0  0  0
 20 43  1  0  0  0  0
M  END
> <s_m_source_file>
AV-unprocessed.smi

> <i_m_source_file_index>
431

> <i_lp_mmshare_version>
43012

> <i_f3d_flags>
0

> <s_epik_input>
W0NIM11bQ0gyXVtDQEhdKFtDSDNdKUMoPU8pW05IXVtDSDJdYzFbY0hdW2NIXWMobltjSF0xKU4yW0NIMl1bQ0gyXU9bQ0gyXVtDSDJdMg==

> <s_epik_cmdline>
J2VwaWtfcHl0aG9uJywgJy1waCcsICc3LjAnLCAnLXRuJywgJzgnLCAnLW1hJywgJzIwMCcsICctbWV0YWxfYmluZGluZycsICctaW1hZScsICc8aW5maWxlLm1hZT4nLCAnLW9tYWUnLCAnPG91dGZpbGUubWFlPic=

> <r_lp_tautomer_probability>
1

> <r_epik_Ionization_Penalty>
0.00513882

> <r_epik_Ionization_Penalty_Charging>
0

> <r_epik_Ionization_Penalty_Neutral>
0.00513882

> <r_epik_State_Penalty>
0.00374265

> <r_epik_Charging_Adjusted_Penalty>
0.00374265

> <i_epik_Tot_Q>
0

> <i_epik_Tot_abs_Q>
0

> <r_epik_Metal_State_Penalty>
-0

> <b_epik_Metal_Only>
0

> <s_lp_Force_Field>
OPLS_2005

> <r_lp_Energy>
17.352

> <b_lp_Chiralities_Consistent>
1

> <s_lp_Variant>
AV-unprocessed.smi:431-2

> <Gold.Version>
5.8.1

> <Gold.Id.Protein>
6NUR|6NUR_protein|mol2

> <Gold.PLP.Fitness>
39.0068

> <Gold.PLP.PLP>
-34.5321

> <Gold.PLP.part.hbond>
-1.0000

> <Gold.PLP.part.metal>
0.0000

> <Gold.PLP.part.buried>
-6.9344

> <Gold.PLP.part.nonpolar>
-27.6177

> <Gold.PLP.part.repulsive>
0.4875

> <Gold.PLP.ligand.clash>
0.0000

> <Gold.PLP.ligand.torsion>
0.9587

> <Gold.PLP.Chemscore.Hbond>
1.0000

> <Gold.PLP.Chemscore.CHOScore>
1.0000

> <Gold.PLP.Chemscore.Metal>
0.0000

> <Gold.Chemscore.Hbonds>
donor molecule, donor type, donor heavy atom, donor atom, acceptor molecule, acceptor atom, score
      L1  H     7    30       P1  8029  1.00
      L1  C    20    43       P1  8029  0.76

> <Gold.PLP.Chemscore.Internal.Correction>
0.3922

> <Gold.Rescore>
     Score         DG    S(hbond)    S(metal)    S(lipo)     H(rot)  DE(clash)    DE(int)     intcor
     11.43     -13.33       0.99        0.00      74.76       1.64       0.16       1.74       ----

> <Gold.Chemscore.Fitness>
11.4290

> <Gold.Chemscore.DG>
-13.3321

> <Gold.Chemscore.ZeroCoef>
-5.4800

> <Gold.Chemscore.Hbond>
0.9896

> <Gold.Chemscore.Metal>
0.0000

> <Gold.Chemscore.Lipo>
74.7598

> <Gold.Chemscore.Internal_Hbond>
0.0000

> <Gold.Chemscore.DEClash>
0.1596

> <Gold.Chemscore.DEInternal>
1.7435

> <Gold.Chemscore.Rot>
1.6407

> <Gold.Chemscore.Internal.Correction>
   9.000000E+99

> <Gold.Chemscore.Hbonds>
donor molecule, donor type, donor heavy atom, donor atom, acceptor molecule, acceptor atom, score
      L1  H     7    30       P1  8029  0.97

> <Gold.Chemscore.Hbond.Weighted>
-3.3053

> <Gold.Chemscore.Metal.Weighted>
-0.0000

> <Gold.Chemscore.Lipo.Weighted>
-8.7469

> <Gold.Chemscore.Internal_Hbond.Weighted>
0.0000

> <Gold.Chemscore.DEClash.Weighted>
0.1596

> <Gold.Chemscore.DEInternal.Weighted>
1.7435

> <Gold.Chemscore.Rot.Weighted>
4.2001

> <Gold.Chemscore.Internal.Correction.Weighted>
   9.000000E+99

> <Gold.Protein.RotatedTorsions>
[ 6907 6896 6895 6894 ] final   58.61 input  -60.11 | X-H torsion
[ 7974 7965 7964 7962 ] final  105.90 input  175.53 | X-H torsion
[ 8008 7997 7996 7995 ] final  118.77 input   59.86 | X-H torsion
[ 10167 10162 10161 10158 ] final  -89.10 input  -65.29 | X-H torsion
[ 10718 10713 10712 10709 ] final  -81.97 input   66.30 | X-H torsion
[ 10763 10752 10751 10750 ] final  165.70 input  -60.55 | X-H torsion
[ 11005 11000 10999 10996 ] final  171.05 input  -57.11 | X-H torsion

> <Gold.Protein.ActiveResidues>
 VAL166  LYS551  ARG553  GLY616  TRP617  ASP618  TYR619  PRO620  LYS621  CYS622 
 ASP623  PHE694  ASN695  SER759  ASP760  ASP761  ALA762  ILE779  LEU786  VAL792 
 PHE793  MET794  SER795  GLU796  ALA797  LYS798  CYS799  TRP800  GLU811  SER814 

> <Gold.Protein.RotatedAtoms>
  152.3840  134.6547  160.0132 H   0  0  0  0  0  0  0  0  0  0  0  0  # atno 6907 bound_to 6896
  151.6801  133.3306  159.3225 H   0  0  0  0  0  0  0  0  0  0  0  0  # atno 6908 bound_to 6896
  150.7770  134.6724  159.6443 H   0  0  0  0  0  0  0  0  0  0  0  0  # atno 6909 bound_to 6896
  145.3137  139.2533  143.3749 H   0  0  0  0  0  0  0  0  0  0  0  0  # atno 7974 bound_to 7965
  156.2563  140.2867  156.0887 H   0  0  0  0  0  0  0  0  0  0  0  0  # atno 8008 bound_to 7997
  155.1487  140.0397  157.2833 H   0  0  0  0  0  0  0  0  0  0  0  0  # atno 8009 bound_to 7997
  154.6477  140.2537  155.7256 H   0  0  0  0  0  0  0  0  0  0  0  0  # atno 8010 bound_to 7997
  140.3681  143.2808  151.9533 H   0  0  0  0  0  0  0  0  0  0  0  0  # atno 10167 bound_to 10162
  156.0041  130.4620  150.4033 H   0  0  0  0  0  0  0  0  0  0  0  0  # atno 10718 bound_to 10713
  154.3280  135.2755  155.2486 H   0  0  0  0  0  0  0  0  0  0  0  0  # atno 10763 bound_to 10752
  154.4811  135.5858  153.6393 H   0  0  0  0  0  0  0  0  0  0  0  0  # atno 10764 bound_to 10752
  152.9869  135.6111  154.3470 H   0  0  0  0  0  0  0  0  0  0  0  0  # atno 10765 bound_to 10752
  140.3149  134.7486  157.4020 H   0  0  0  0  0  0  0  0  0  0  0  0  # atno 11005 bound_to 11000
  146.3108  140.3678  142.8671 LP  0  0  0  0  0  0  0  0  0  0  0  0  # atno 17320 bound_to 7965
  144.8995  140.7625  143.5876 LP  0  0  0  0  0  0  0  0  0  0  0  0  # atno 17321 bound_to 7965
  139.4806  144.5931  151.7736 LP  0  0  0  0  0  0  0  0  0  0  0  0  # atno 17342 bound_to 10162
  140.5060  144.1097  150.5983 LP  0  0  0  0  0  0  0  0  0  0  0  0  # atno 17343 bound_to 10162
  157.2101  131.0458  151.2604 LP  0  0  0  0  0  0  0  0  0  0  0  0  # atno 17370 bound_to 10713
  157.3896  130.7275  149.6688 LP  0  0  0  0  0  0  0  0  0  0  0  0  # atno 17371 bound_to 10713
  140.0992  134.5495  155.8369 LP  0  0  0  0  0  0  0  0  0  0  0  0  # atno 17394 bound_to 11000
  141.2100  133.6690  156.6477 LP  0  0  0  0  0  0  0  0  0  0  0  0  # atno 17395 bound_to 11000

$$$$
