AV-unprocessed.smi:2083|AV-procd|sdf|8506|dock4
  -GOLD-   2272011213D 1   1.00000     0.00000
 Structure written by MMmdl.
 44 45  0  0  0  0  0  0  0  0  3 V2000
  147.0514  135.5470  162.1321 C   0  0  0  0  0  0  0  0  0  0  0  0
  147.7042  135.9178  160.8447 C   0  0  0  0  0  0  0  0  0  0  0  0
  147.8868  135.2478  159.6682 C   0  0  0  0  0  0  0  0  0  0  0  0
  148.5902  136.1877  158.8687 C   0  0  0  0  0  0  0  0  0  0  0  0
  148.9810  135.8600  157.5437 N   0  0  0  0  0  0  0  0  0  0  0  0
  149.6469  134.7766  157.1039 C   0  0  0  0  0  0  0  0  0  0  0  0
  150.0170  133.9047  157.8994 O   0  0  0  0  0  0  0  0  0  0  0  0
  149.8279  134.7988  155.7552 N   0  5  0  0  0  0  0  0  0  0  0  0
  148.7978  135.1715  154.7871 C   0  0  0  0  0  0  0  0  0  0  0  0
  148.1308  133.8938  154.1834 C   0  0  2  0  0  0  0  0  0  0  0  0
  149.1319  132.7425  153.9254 C   0  0  0  0  0  0  0  0  0  0  0  0
  147.2832  134.1181  152.9622 N   0  3  1  0  0  0  0  0  0  0  0  0
  146.9643  132.8903  152.1801 C   0  0  0  0  0  0  0  0  0  0  0  0
  146.4371  133.2595  150.7850 C   0  0  0  0  0  0  0  0  0  0  0  0
  145.2166  134.1847  150.8849 C   0  0  0  0  0  0  0  0  0  0  0  0
  145.5546  135.4319  151.7206 C   0  0  1  0  0  0  0  0  0  0  0  0
  144.3427  136.3653  151.8503 C   0  0  0  0  0  0  0  0  0  0  0  0
  146.0981  135.0173  153.1024 C   0  0  0  0  0  0  0  0  0  0  0  0
  148.8123  137.3311  159.5003 N   0  0  0  0  0  0  0  0  0  0  0  0
  148.2454  137.1640  160.7694 O   0  0  0  0  0  0  0  0  0  0  0  0
  146.8487  134.4766  162.1718 H   0  0  0  0  0  0  0  0  0  0  0  0
  146.1059  136.0756  162.2511 H   0  0  0  0  0  0  0  0  0  0  0  0
  147.6911  135.8002  162.9777 H   0  0  0  0  0  0  0  0  0  0  0  0
  147.5703  134.2454  159.4215 H   0  0  0  0  0  0  0  0  0  0  0  0
  148.7134  136.5256  156.8341 H   0  0  0  0  0  0  0  0  0  0  0  0
  148.0277  135.7807  155.2608 H   0  0  0  0  0  0  0  0  0  0  0  0
  149.1946  135.7804  153.9739 H   0  0  0  0  0  0  0  0  0  0  0  0
  147.4429  133.5109  154.9392 H   0  0  0  0  0  0  0  0  0  0  0  0
  149.6156  132.4058  154.8442 H   0  0  0  0  0  0  0  0  0  0  0  0
  149.9224  133.0165  153.2254 H   0  0  0  0  0  0  0  0  0  0  0  0
  148.6191  131.8740  153.5108 H   0  0  0  0  0  0  0  0  0  0  0  0
  147.8562  132.2723  152.0711 H   0  0  0  0  0  0  0  0  0  0  0  0
  146.2224  132.2887  152.7069 H   0  0  0  0  0  0  0  0  0  0  0  0
  147.2255  133.7524  150.2145 H   0  0  0  0  0  0  0  0  0  0  0  0
  146.1757  132.3555  150.2342 H   0  0  0  0  0  0  0  0  0  0  0  0
  144.8900  134.4751  149.8858 H   0  0  0  0  0  0  0  0  0  0  0  0
  144.3850  133.6455  151.3410 H   0  0  0  0  0  0  0  0  0  0  0  0
  146.3398  135.9839  151.2016 H   0  0  0  0  0  0  0  0  0  0  0  0
  143.5179  135.8749  152.3683 H   0  0  0  0  0  0  0  0  0  0  0  0
  143.9815  136.6781  150.8704 H   0  0  0  0  0  0  0  0  0  0  0  0
  144.5986  137.2659  152.4092 H   0  0  0  0  0  0  0  0  0  0  0  0
  145.3101  134.5181  153.6688 H   0  0  0  0  0  0  0  0  0  0  0  0
  146.3686  135.9130  153.6603 H   0  0  0  0  0  0  0  0  0  0  0  0
  147.9057  134.6291  152.3534 H   0  0  0  0  0  0  0  0  0  0  0  0
  1  2  1  0  0  0  0
  1 21  1  0  0  0  0
  1 22  1  0  0  0  0
  1 23  1  0  0  0  0
  2 20  1  0  0  0  0
  2  3  2  0  0  0  0
  3  4  1  0  0  0  0
  3 24  1  0  0  0  0
  4  5  1  0  0  0  0
  4 19  2  0  0  0  0
  5  6  1  0  0  0  0
  5 25  1  0  0  0  0
  6  7  2  0  0  0  0
  6  8  1  0  0  0  0
  8  9  1  0  0  0  0
  9 10  1  0  0  0  0
  9 26  1  0  0  0  0
  9 27  1  0  0  0  0
 10 11  1  0  0  0  0
 10 12  1  0  0  0  0
 10 28  1  0  0  0  0
 11 29  1  0  0  0  0
 11 30  1  0  0  0  0
 11 31  1  0  0  0  0
 12 18  1  0  0  0  0
 12 13  1  0  0  0  0
 12 44  1  0  0  0  0
 13 14  1  0  0  0  0
 13 32  1  0  0  0  0
 13 33  1  0  0  0  0
 14 15  1  0  0  0  0
 14 34  1  0  0  0  0
 14 35  1  0  0  0  0
 15 16  1  0  0  0  0
 15 36  1  0  0  0  0
 15 37  1  0  0  0  0
 16 17  1  0  0  0  0
 16 18  1  0  0  0  0
 16 38  1  0  0  0  0
 17 39  1  0  0  0  0
 17 40  1  0  0  0  0
 17 41  1  0  0  0  0
 18 42  1  0  0  0  0
 18 43  1  0  0  0  0
 19 20  1  0  0  0  0
M  CHG  1   8  -1
M  CHG  1  12   1
M  END
> <s_m_source_file>
AV-unprocessed.smi

> <i_m_source_file_index>
2083

> <i_lp_mmshare_version>
43012

> <i_f3d_flags>
0

> <s_epik_input>
W0NIM11jMVtjSF1jKG5vMSlbTkhdQyg9TylbTkhdW0NIMl1bQ0BIXShbQ0gzXSlOMltDSDJdW0NIMl1bQ0gyXVtDQEBIXShbQ0gzXSlbQ0gyXTI=

> <s_epik_cmdline>
J2VwaWtfcHl0aG9uJywgJy1waCcsICc3LjAnLCAnLXRuJywgJzgnLCAnLW1hJywgJzIwMCcsICctbWV0YWxfYmluZGluZycsICctaW1hZScsICc8aW5maWxlLm1hZT4nLCAnLW9tYWUnLCAnPG91dGZpbGUubWFlPic=

> <r_epik_Ionization_Penalty>
6.76934

> <r_epik_Ionization_Penalty_Charging>
6.76934

> <r_epik_Ionization_Penalty_Neutral>
5.77849e-06

> <r_epik_State_Penalty>
6.79457

> <r_epik_Charging_Adjusted_Penalty>
13.5639

> <i_epik_Tot_Q>
0

> <i_epik_Tot_abs_Q>
2

> <r_epik_Metal_State_Penalty>
2.72837

> <b_epik_Metal_Only>
1

> <s_lp_Force_Field>
OPLS_2005

> <r_lp_Energy>
20.364

> <b_lp_Chiralities_Consistent>
1

> <s_lp_Variant>
AV-unprocessed.smi:2083-17

> <Gold.Version>
5.8.1

> <Gold.Id.Protein>
6NUR|6NUR_protein|mol2

> <Gold.PLP.Fitness>
42.2207

> <Gold.PLP.PLP>
-31.5205

> <Gold.PLP.part.hbond>
-5.0634

> <Gold.PLP.part.metal>
0.0000

> <Gold.PLP.part.buried>
-2.0568

> <Gold.PLP.part.nonpolar>
-24.2436

> <Gold.PLP.part.repulsive>
0.1169

> <Gold.PLP.ligand.clash>
0.0000

> <Gold.PLP.ligand.torsion>
1.3552

> <Gold.PLP.Chemscore.Hbond>
4.3794

> <Gold.PLP.Chemscore.CHOScore>
0.0000

> <Gold.PLP.Chemscore.Metal>
0.0000

> <Gold.Chemscore.Hbonds>
donor molecule, donor type, donor heavy atom, donor atom, acceptor molecule, acceptor atom, score
      L1  H    12    44       P1  7948  2.00
      P1  H  6896  6908       L1     7  1.00
      P1  H  6931  6943       L1    20  0.88
      P1  H  6934  6947       L1    20  0.44

> <Gold.PLP.Chemscore.Internal.Correction>
0.2724

> <Gold.Rescore>
     Score         DG    S(hbond)    S(metal)    S(lipo)     H(rot)  DE(clash)    DE(int)     intcor
     15.60     -17.17       2.46        0.00      63.01       1.52       0.15       1.41       ----

> <Gold.Chemscore.Fitness>
15.6043

> <Gold.Chemscore.DG>
-17.1681

> <Gold.Chemscore.ZeroCoef>
-5.4800

> <Gold.Chemscore.Hbond>
2.4564

> <Gold.Chemscore.Metal>
0.0000

> <Gold.Chemscore.Lipo>
63.0115

> <Gold.Chemscore.Internal_Hbond>
0.0000

> <Gold.Chemscore.DEClash>
0.1505

> <Gold.Chemscore.DEInternal>
1.4133

> <Gold.Chemscore.Rot>
1.5190

> <Gold.Chemscore.Internal.Correction>
   9.000000E+99

> <Gold.Chemscore.Hbonds>
donor molecule, donor type, donor heavy atom, donor atom, acceptor molecule, acceptor atom, score
      L1  H    12    44       P1  7948  0.54
      P1  H  6896  6908       L1     7  0.94
      P1  H  6931  6943       L1    20  0.61
      P1  H  6934  6947       L1    20  0.10

> <Gold.Chemscore.Hbond.Weighted>
-8.2044

> <Gold.Chemscore.Metal.Weighted>
-0.0000

> <Gold.Chemscore.Lipo.Weighted>
-7.3723

> <Gold.Chemscore.Internal_Hbond.Weighted>
0.0000

> <Gold.Chemscore.DEClash.Weighted>
0.1505

> <Gold.Chemscore.DEInternal.Weighted>
1.4133

> <Gold.Chemscore.Rot.Weighted>
3.8886

> <Gold.Chemscore.Internal.Correction.Weighted>
   9.000000E+99

> <Gold.Protein.RotatedTorsions>
[ 6907 6896 6895 6894 ] final  123.18 input  -60.11 | X-H torsion
[ 7974 7965 7964 7962 ] final  148.66 input  175.53 | X-H torsion
[ 8008 7997 7996 7995 ] final  121.06 input   59.86 | X-H torsion
[ 10167 10162 10161 10158 ] final -117.80 input  -65.29 | X-H torsion
[ 10718 10713 10712 10709 ] final  126.74 input   66.30 | X-H torsion
[ 10763 10752 10751 10750 ] final -164.53 input  -60.55 | X-H torsion
[ 11005 11000 10999 10996 ] final -115.94 input  -57.11 | X-H torsion

> <Gold.Protein.ActiveResidues>
 VAL166  LYS551  ARG553  GLY616  TRP617  ASP618  TYR619  PRO620  LYS621  CYS622 
 ASP623  PHE694  ASN695  SER759  ASP760  ASP761  ALA762  ILE779  LEU786  VAL792 
 PHE793  MET794  SER795  GLU796  ALA797  LYS798  CYS799  TRP800  GLU811  SER814 

> <Gold.Protein.RotatedAtoms>
  152.4183  133.7074  159.6458 H   0  0  0  0  0  0  0  0  0  0  0  0  # atno 6907 bound_to 6896
  150.8059  133.8499  159.3211 H   0  0  0  0  0  0  0  0  0  0  0  0  # atno 6908 bound_to 6896
  151.6223  135.1033  160.0156 H   0  0  0  0  0  0  0  0  0  0  0  0  # atno 6909 bound_to 6896
  144.8497  139.6181  143.5979 H   0  0  0  0  0  0  0  0  0  0  0  0  # atno 7974 bound_to 7965
  156.2670  140.2817  156.1248 H   0  0  0  0  0  0  0  0  0  0  0  0  # atno 8008 bound_to 7997
  155.1117  140.0391  157.2743 H   0  0  0  0  0  0  0  0  0  0  0  0  # atno 8009 bound_to 7997
  154.6737  140.2593  155.6986 H   0  0  0  0  0  0  0  0  0  0  0  0  # atno 8010 bound_to 7997
  140.0644  143.4937  152.2014 H   0  0  0  0  0  0  0  0  0  0  0  0  # atno 10167 bound_to 10162
  157.5393  131.1097  150.8885 H   0  0  0  0  0  0  0  0  0  0  0  0  # atno 10718 bound_to 10713
  154.7019  135.2989  154.9327 H   0  0  0  0  0  0  0  0  0  0  0  0  # atno 10763 bound_to 10752
  154.0257  135.6677  153.4780 H   0  0  0  0  0  0  0  0  0  0  0  0  # atno 10764 bound_to 10752
  153.0688  135.5073  154.8168 H   0  0  0  0  0  0  0  0  0  0  0  0  # atno 10765 bound_to 10752
  141.0455  133.9769  157.2925 H   0  0  0  0  0  0  0  0  0  0  0  0  # atno 11005 bound_to 11000
  146.2774  139.6789  142.9253 LP  0  0  0  0  0  0  0  0  0  0  0  0  # atno 17320 bound_to 7965
  145.4525  141.0429  143.2797 LP  0  0  0  0  0  0  0  0  0  0  0  0  # atno 17321 bound_to 7965
  139.5874  144.7536  151.3486 LP  0  0  0  0  0  0  0  0  0  0  0  0  # atno 17342 bound_to 10162
  140.7156  143.7274  150.7649 LP  0  0  0  0  0  0  0  0  0  0  0  0  # atno 17343 bound_to 10162
  156.9443  130.5396  149.5281 LP  0  0  0  0  0  0  0  0  0  0  0  0  # atno 17370 bound_to 10713
  156.0483  130.5557  150.8932 LP  0  0  0  0  0  0  0  0  0  0  0  0  # atno 17371 bound_to 10713
  139.9308  135.0200  156.8394 LP  0  0  0  0  0  0  0  0  0  0  0  0  # atno 17394 bound_to 11000
  140.6155  134.0043  155.7595 LP  0  0  0  0  0  0  0  0  0  0  0  0  # atno 17395 bound_to 11000

$$$$
