AV-unprocessed.smi:2083|AV-procd|sdf|8492|dock3
  -GOLD-   2272011203D 1   1.00000     0.00000
 Structure written by MMmdl.
 45 46  0  0  0  0  0  0  0  0  2 V2000
  153.8365  122.2484  148.7560 C   0  0  0  0  0  0  0  0  0  0  0  0
  152.6515  123.0829  149.1039 C   0  0  0  0  0  0  0  0  0  0  0  0
  152.5031  124.2368  149.8214 C   0  0  0  0  0  0  0  0  0  0  0  0
  151.1042  124.4743  149.7583 C   0  0  0  0  0  0  0  0  0  0  0  0
  150.5270  125.6017  150.3967 N   0  0  0  0  0  0  0  0  0  0  0  0
  149.2212  125.8998  150.5059 C   0  0  0  0  0  0  0  0  0  0  0  0
  148.2968  125.2220  150.0557 O   0  0  0  0  0  0  0  0  0  0  0  0
  149.0346  127.0455  151.1774 N   0  0  0  0  0  0  0  0  0  0  0  0
  147.7317  127.6282  151.4869 C   0  0  0  0  0  0  0  0  0  0  0  0
  147.7902  128.6991  152.6134 C   0  0  2  0  0  0  0  0  0  0  0  0
  147.0675  128.1823  153.8782 C   0  0  0  0  0  0  0  0  0  0  0  0
  147.2354  130.0371  152.2209 N   0  3  2  0  0  0  0  0  0  0  0  0
  147.2836  131.0991  153.2683 C   0  0  0  0  0  0  0  0  0  0  0  0
  146.8269  132.4609  152.7186 C   0  0  0  0  0  0  0  0  0  0  0  0
  145.4310  132.3751  152.0912 C   0  0  0  0  0  0  0  0  0  0  0  0
  145.3695  131.2545  151.0409 C   0  0  1  0  0  0  0  0  0  0  0  0
  146.1073  131.6085  149.7375 C   0  0  0  0  0  0  0  0  0  0  0  0
  145.8612  129.9261  151.6489 C   0  0  0  0  0  0  0  0  0  0  0  0
  150.4576  123.5514  149.0629 N   0  0  0  0  0  0  0  0  0  0  0  0
  151.4460  122.6548  148.6404 O   0  0  0  0  0  0  0  0  0  0  0  0
  154.7639  122.7629  149.0081 H   0  0  0  0  0  0  0  0  0  0  0  0
  153.8537  122.0257  147.6891 H   0  0  0  0  0  0  0  0  0  0  0  0
  153.8152  121.3035  149.2990 H   0  0  0  0  0  0  0  0  0  0  0  0
  153.2730  124.8129  150.3130 H   0  0  0  0  0  0  0  0  0  0  0  0
  151.1784  126.2448  150.8216 H   0  0  0  0  0  0  0  0  0  0  0  0
  149.8484  127.5422  151.5108 H   0  0  0  0  0  0  0  0  0  0  0  0
  147.3386  128.0473  150.5596 H   0  0  0  0  0  0  0  0  0  0  0  0
  147.0640  126.8155  151.7753 H   0  0  0  0  0  0  0  0  0  0  0  0
  148.8435  128.8468  152.8578 H   0  0  0  0  0  0  0  0  0  0  0  0
  147.4920  127.2425  154.2310 H   0  0  0  0  0  0  0  0  0  0  0  0
  146.0086  128.0115  153.6819 H   0  0  0  0  0  0  0  0  0  0  0  0
  147.1362  128.8746  154.7155 H   0  0  0  0  0  0  0  0  0  0  0  0
  146.6657  130.8048  154.1182 H   0  0  0  0  0  0  0  0  0  0  0  0
  148.2989  131.2397  153.6361 H   0  0  0  0  0  0  0  0  0  0  0  0
  146.8252  133.2006  153.5197 H   0  0  0  0  0  0  0  0  0  0  0  0
  147.5452  132.8173  151.9797 H   0  0  0  0  0  0  0  0  0  0  0  0
  144.6999  132.1744  152.8755 H   0  0  0  0  0  0  0  0  0  0  0  0
  145.1518  133.3329  151.6505 H   0  0  0  0  0  0  0  0  0  0  0  0
  144.3205  131.1217  150.7724 H   0  0  0  0  0  0  0  0  0  0  0  0
  147.1782  131.7359  149.8953 H   0  0  0  0  0  0  0  0  0  0  0  0
  145.7227  132.5343  149.3087 H   0  0  0  0  0  0  0  0  0  0  0  0
  145.9774  130.8247  148.9906 H   0  0  0  0  0  0  0  0  0  0  0  0
  145.8119  129.1541  150.8832 H   0  0  0  0  0  0  0  0  0  0  0  0
  145.1769  129.6115  152.4386 H   0  0  0  0  0  0  0  0  0  0  0  0
  147.8316  130.3707  151.4770 H   0  0  0  0  0  0  0  0  0  0  0  0
  1  2  1  0  0  0  0
  1 21  1  0  0  0  0
  1 22  1  0  0  0  0
  1 23  1  0  0  0  0
  2 20  1  0  0  0  0
  2  3  2  0  0  0  0
  3  4  1  0  0  0  0
  3 24  1  0  0  0  0
  4  5  1  0  0  0  0
  4 19  2  0  0  0  0
  5  6  1  0  0  0  0
  5 25  1  0  0  0  0
  6  7  2  0  0  0  0
  6  8  1  0  0  0  0
  8  9  1  0  0  0  0
  8 26  1  0  0  0  0
  9 10  1  0  0  0  0
  9 27  1  0  0  0  0
  9 28  1  0  0  0  0
 10 11  1  0  0  0  0
 10 12  1  0  0  0  0
 10 29  1  0  0  0  0
 11 30  1  0  0  0  0
 11 31  1  0  0  0  0
 11 32  1  0  0  0  0
 12 18  1  0  0  0  0
 12 13  1  0  0  0  0
 12 45  1  0  0  0  0
 13 14  1  0  0  0  0
 13 33  1  0  0  0  0
 13 34  1  0  0  0  0
 14 15  1  0  0  0  0
 14 35  1  0  0  0  0
 14 36  1  0  0  0  0
 15 16  1  0  0  0  0
 15 37  1  0  0  0  0
 15 38  1  0  0  0  0
 16 17  1  0  0  0  0
 16 18  1  0  0  0  0
 16 39  1  0  0  0  0
 17 40  1  0  0  0  0
 17 41  1  0  0  0  0
 17 42  1  0  0  0  0
 18 43  1  0  0  0  0
 18 44  1  0  0  0  0
 19 20  1  0  0  0  0
M  CHG  1  12   1
M  END
> <s_m_source_file>
AV-unprocessed.smi

> <i_m_source_file_index>
2083

> <i_lp_mmshare_version>
43012

> <i_f3d_flags>
0

> <s_epik_input>
W0NIM11jMVtjSF1jKG5vMSlbTkhdQyg9TylbTkhdW0NIMl1bQ0BIXShbQ0gzXSlOMltDSDJdW0NIMl1bQ0gyXVtDQEBIXShbQ0gzXSlbQ0gyXTI=

> <s_epik_cmdline>
J2VwaWtfcHl0aG9uJywgJy1waCcsICc3LjAnLCAnLXRuJywgJzgnLCAnLW1hJywgJzIwMCcsICctbWV0YWxfYmluZGluZycsICctaW1hZScsICc8aW5maWxlLm1hZT4nLCAnLW9tYWUnLCAnPG91dGZpbGUubWFlPic=

> <r_epik_Ionization_Penalty>
0.00216453

> <r_epik_Ionization_Penalty_Charging>
0.00212879

> <r_epik_Ionization_Penalty_Neutral>
3.57418e-05

> <r_epik_State_Penalty>
0.00146033

> <r_epik_Charging_Adjusted_Penalty>
0.00358912

> <i_epik_Tot_Q>
1

> <i_epik_Tot_abs_Q>
1

> <r_epik_Metal_State_Penalty>
0.0215827

> <b_epik_Metal_Only>
0

> <s_lp_Force_Field>
OPLS_2005

> <r_lp_Energy>
21.6248

> <b_lp_Chiralities_Consistent>
1

> <s_lp_Variant>
AV-unprocessed.smi:2083-3

> <Gold.Version>
5.8.1

> <Gold.Id.Protein>
6NUR|6NUR_protein|mol2

> <Gold.PLP.Fitness>
40.0823

> <Gold.PLP.PLP>
-33.0841

> <Gold.PLP.part.hbond>
-3.3096

> <Gold.PLP.part.metal>
0.0000

> <Gold.PLP.part.buried>
-5.1379

> <Gold.PLP.part.nonpolar>
-25.7601

> <Gold.PLP.part.repulsive>
0.4897

> <Gold.PLP.ligand.clash>
0.0000

> <Gold.PLP.ligand.torsion>
0.9060

> <Gold.PLP.Chemscore.Hbond>
2.9120

> <Gold.PLP.Chemscore.CHOScore>
0.0000

> <Gold.PLP.Chemscore.Metal>
0.0000

> <Gold.Chemscore.Hbonds>
donor molecule, donor type, donor heavy atom, donor atom, acceptor molecule, acceptor atom, score
      L1  H     5    25       P1 10737  1.00
      L1  H     8    26       P1 10737  0.60
      L1  H    12    45       P1 10747  1.00

> <Gold.PLP.Chemscore.Internal.Correction>
0.0742

> <Gold.Rescore>
     Score         DG    S(hbond)    S(metal)    S(lipo)     H(rot)  DE(clash)    DE(int)     intcor
     17.77     -19.89       2.85        0.00      75.61       1.55       0.05       2.07       ----

> <Gold.Chemscore.Fitness>
17.7708

> <Gold.Chemscore.DG>
-19.8893

> <Gold.Chemscore.ZeroCoef>
-5.4800

> <Gold.Chemscore.Hbond>
2.8517

> <Gold.Chemscore.Metal>
0.0000

> <Gold.Chemscore.Lipo>
75.6066

> <Gold.Chemscore.Internal_Hbond>
0.0000

> <Gold.Chemscore.DEClash>
0.0519

> <Gold.Chemscore.DEInternal>
2.0666

> <Gold.Chemscore.Rot>
1.5474

> <Gold.Chemscore.Internal.Correction>
   9.000000E+99

> <Gold.Chemscore.Hbonds>
donor molecule, donor type, donor heavy atom, donor atom, acceptor molecule, acceptor atom, score
      L1  H     5    25       P1 10737  0.93
      L1  H     8    26       P1 10737  0.57
      L1  H    12    45       P1 10747  1.00

> <Gold.Chemscore.Hbond.Weighted>
-9.5245

> <Gold.Chemscore.Metal.Weighted>
-0.0000

> <Gold.Chemscore.Lipo.Weighted>
-8.8460

> <Gold.Chemscore.Internal_Hbond.Weighted>
0.0000

> <Gold.Chemscore.DEClash.Weighted>
0.0519

> <Gold.Chemscore.DEInternal.Weighted>
2.0666

> <Gold.Chemscore.Rot.Weighted>
3.9612

> <Gold.Chemscore.Internal.Correction.Weighted>
   9.000000E+99

> <Gold.Protein.RotatedTorsions>
[ 6907 6896 6895 6894 ] final -160.91 input  -60.11 | X-H torsion
[ 7974 7965 7964 7962 ] final -133.26 input  175.53 | X-H torsion
[ 8008 7997 7996 7995 ] final  -87.44 input   59.86 | X-H torsion
[ 10167 10162 10161 10158 ] final  -91.89 input  -65.29 | X-H torsion
[ 10718 10713 10712 10709 ] final   38.06 input   66.30 | X-H torsion
[ 10763 10752 10751 10750 ] final   84.06 input  -60.55 | X-H torsion
[ 11005 11000 10999 10996 ] final  107.99 input  -57.11 | X-H torsion

> <Gold.Protein.ActiveResidues>
 VAL166  LYS551  ARG553  GLY616  TRP617  ASP618  TYR619  PRO620  LYS621  CYS622 
 ASP623  PHE694  ASN695  SER759  ASP760  ASP761  ALA762  ILE779  LEU786  VAL792 
 PHE793  MET794  SER795  GLU796  ALA797  LYS798  CYS799  TRP800  GLU811  SER814 

> <Gold.Protein.RotatedAtoms>
  151.3564  133.3906  159.2685 H   0  0  0  0  0  0  0  0  0  0  0  0  # atno 6907 bound_to 6896
  150.9760  134.9125  159.7827 H   0  0  0  0  0  0  0  0  0  0  0  0  # atno 6908 bound_to 6896
  152.5201  134.3527  159.9309 H   0  0  0  0  0  0  0  0  0  0  0  0  # atno 6909 bound_to 6896
  144.9210  140.7013  143.4965 H   0  0  0  0  0  0  0  0  0  0  0  0  # atno 7974 bound_to 7965
  154.6632  140.0566  157.0085 H   0  0  0  0  0  0  0  0  0  0  0  0  # atno 8008 bound_to 7997
  155.1197  140.3246  155.4482 H   0  0  0  0  0  0  0  0  0  0  0  0  # atno 8009 bound_to 7997
  156.2627  140.1999  156.6320 H   0  0  0  0  0  0  0  0  0  0  0  0  # atno 8010 bound_to 7997
  140.3404  143.2945  151.9842 H   0  0  0  0  0  0  0  0  0  0  0  0  # atno 10167 bound_to 10162
  157.3543  130.7615  149.7001 H   0  0  0  0  0  0  0  0  0  0  0  0  # atno 10718 bound_to 10713
  153.1347  135.4668  154.9404 H   0  0  0  0  0  0  0  0  0  0  0  0  # atno 10763 bound_to 10752
  154.7695  135.3155  154.8220 H   0  0  0  0  0  0  0  0  0  0  0  0  # atno 10764 bound_to 10752
  153.8755  135.6899  153.4825 H   0  0  0  0  0  0  0  0  0  0  0  0  # atno 10765 bound_to 10752
  139.8837  134.9417  156.5903 H   0  0  0  0  0  0  0  0  0  0  0  0  # atno 11005 bound_to 11000
  145.3297  139.1763  143.4544 LP  0  0  0  0  0  0  0  0  0  0  0  0  # atno 17320 bound_to 7965
  146.3204  140.3324  142.8641 LP  0  0  0  0  0  0  0  0  0  0  0  0  # atno 17321 bound_to 7965
  139.4841  144.6162  151.7342 LP  0  0  0  0  0  0  0  0  0  0  0  0  # atno 17342 bound_to 10162
  140.5315  144.0723  150.6055 LP  0  0  0  0  0  0  0  0  0  0  0  0  # atno 17343 bound_to 10162
  155.9726  130.4132  150.4069 LP  0  0  0  0  0  0  0  0  0  0  0  0  # atno 17370 bound_to 10713
  157.2136  131.0466  151.2585 LP  0  0  0  0  0  0  0  0  0  0  0  0  # atno 17371 bound_to 10713
  140.7960  133.8543  155.8686 LP  0  0  0  0  0  0  0  0  0  0  0  0  # atno 17394 bound_to 11000
  140.9635  134.1625  157.4635 LP  0  0  0  0  0  0  0  0  0  0  0  0  # atno 17395 bound_to 11000

$$$$
