AV-unprocessed.smi:2221|AV-procd|sdf|8982|dock1
  -GOLD-   2272012193D 1   1.00000     0.00000
 Structure written by MMmdl.
 53 54  0  0  0  0  0  0  0  0  2 V2000
  151.9096  145.8599  160.3369 C   0  0  0  0  0  0  0  0  0  0  0  0
  151.9373  144.5074  159.6565 C   0  0  0  0  0  0  0  0  0  0  0  0
  152.7651  143.4782  160.1436 C   0  0  0  0  0  0  0  0  0  0  0  0
  152.7539  142.2410  159.4707 C   0  0  0  0  0  0  0  0  0  0  0  0
  153.6161  141.0905  159.9457 C   0  0  0  0  0  0  0  0  0  0  0  0
  151.9875  141.9997  158.3858 N   0  0  0  0  0  0  0  0  0  0  0  0
  151.1874  142.9839  157.9059 C   0  0  0  0  0  0  0  0  0  0  0  0
  150.3469  142.8326  156.7712 N   0  0  0  0  0  0  0  0  0  0  0  0
  150.0702  141.7087  156.0863 C   0  0  0  0  0  0  0  0  0  0  0  0
  150.5155  140.5894  156.3423 O   0  0  0  0  0  0  0  0  0  0  0  0
  149.2355  141.9547  155.0661 N   0  0  0  0  0  0  0  0  0  0  0  0
  148.7450  140.9523  154.1285 C   0  0  0  0  0  0  0  0  0  0  0  0
  147.9173  139.8716  154.8517 C   0  0  0  0  0  0  0  0  0  0  0  0
  146.9005  139.2799  153.9825 N   0  0  0  0  0  0  0  0  0  0  0  0
  146.1449  138.2870  154.7514 C   0  0  0  0  0  0  0  0  0  0  0  0
  144.9956  137.7117  153.9057 C   0  0  0  0  0  0  0  0  0  0  0  0
  145.5463  137.0550  152.6243 C   0  0  0  0  0  0  0  0  0  0  0  0
  144.5014  136.4620  151.7396 N   0  3  0  0  0  0  0  0  0  0  0  0
  143.3883  135.7746  152.4385 C   0  0  0  0  0  0  0  0  0  0  0  0
  145.0679  135.6266  150.6561 C   0  0  0  0  0  0  0  0  0  0  0  0
  146.4298  138.0715  151.8811 C   0  0  0  0  0  0  0  0  0  0  0  0
  147.5145  138.6366  152.8153 C   0  0  0  0  0  0  0  0  0  0  0  0
  151.1395  144.2550  158.5217 C   0  0  0  0  0  0  0  0  0  0  0  0
  152.0139  145.7500  161.4168 H   0  0  0  0  0  0  0  0  0  0  0  0
  150.9709  146.3777  160.1387 H   0  0  0  0  0  0  0  0  0  0  0  0
  152.7285  146.4808  159.9738 H   0  0  0  0  0  0  0  0  0  0  0  0
  153.3909  143.6333  161.0103 H   0  0  0  0  0  0  0  0  0  0  0  0
  154.4427  141.4485  160.5602 H   0  0  0  0  0  0  0  0  0  0  0  0
  154.0360  140.5466  159.0987 H   0  0  0  0  0  0  0  0  0  0  0  0
  153.0221  140.3959  160.5399 H   0  0  0  0  0  0  0  0  0  0  0  0
  149.9072  143.6788  156.4415 H   0  0  0  0  0  0  0  0  0  0  0  0
  148.9169  142.9025  154.9274 H   0  0  0  0  0  0  0  0  0  0  0  0
  148.1523  141.4313  153.3469 H   0  0  0  0  0  0  0  0  0  0  0  0
  149.6162  140.5198  153.6389 H   0  0  0  0  0  0  0  0  0  0  0  0
  148.5648  139.0955  155.2633 H   0  0  0  0  0  0  0  0  0  0  0  0
  147.4188  140.3420  155.7008 H   0  0  0  0  0  0  0  0  0  0  0  0
  146.8074  137.4885  155.0900 H   0  0  0  0  0  0  0  0  0  0  0  0
  145.7268  138.7545  155.6438 H   0  0  0  0  0  0  0  0  0  0  0  0
  144.4371  136.9870  154.4982 H   0  0  0  0  0  0  0  0  0  0  0  0
  144.3038  138.5193  153.6645 H   0  0  0  0  0  0  0  0  0  0  0  0
  146.2065  136.2400  152.9263 H   0  0  0  0  0  0  0  0  0  0  0  0
  143.7218  134.8488  152.9086 H   0  0  0  0  0  0  0  0  0  0  0  0
  142.6022  135.5172  151.7279 H   0  0  0  0  0  0  0  0  0  0  0  0
  142.9364  136.4062  153.2024 H   0  0  0  0  0  0  0  0  0  0  0  0
  145.5471  134.7317  151.0547 H   0  0  0  0  0  0  0  0  0  0  0  0
  145.8064  136.1834  150.0780 H   0  0  0  0  0  0  0  0  0  0  0  0
  144.2839  135.3115  149.9667 H   0  0  0  0  0  0  0  0  0  0  0  0
  146.9005  137.5980  151.0192 H   0  0  0  0  0  0  0  0  0  0  0  0
  145.8345  138.8985  151.4946 H   0  0  0  0  0  0  0  0  0  0  0  0
  148.1108  139.3545  152.2543 H   0  0  0  0  0  0  0  0  0  0  0  0
  148.1910  137.8427  153.1363 H   0  0  0  0  0  0  0  0  0  0  0  0
  150.4974  145.0302  158.1286 H   0  0  0  0  0  0  0  0  0  0  0  0
  144.0809  137.2503  151.2681 H   0  0  0  0  0  0  0  0  0  0  0  0
  1  2  1  0  0  0  0
  1 24  1  0  0  0  0
  1 25  1  0  0  0  0
  1 26  1  0  0  0  0
  2 23  1  0  0  0  0
  2  3  2  0  0  0  0
  3  4  1  0  0  0  0
  3 27  1  0  0  0  0
  4  5  1  0  0  0  0
  4  6  2  0  0  0  0
  5 28  1  0  0  0  0
  5 29  1  0  0  0  0
  5 30  1  0  0  0  0
  6  7  1  0  0  0  0
  7  8  1  0  0  0  0
  7 23  2  0  0  0  0
  8  9  1  0  0  0  0
  8 31  1  0  0  0  0
  9 10  2  0  0  0  0
  9 11  1  0  0  0  0
 11 12  1  0  0  0  0
 11 32  1  0  0  0  0
 12 13  1  0  0  0  0
 12 33  1  0  0  0  0
 12 34  1  0  0  0  0
 13 14  1  0  0  0  0
 13 35  1  0  0  0  0
 13 36  1  0  0  0  0
 14 22  1  0  0  0  0
 14 15  1  0  0  0  0
 15 16  1  0  0  0  0
 15 37  1  0  0  0  0
 15 38  1  0  0  0  0
 16 17  1  0  0  0  0
 16 39  1  0  0  0  0
 16 40  1  0  0  0  0
 17 18  1  0  0  0  0
 17 21  1  0  0  0  0
 17 41  1  0  0  0  0
 18 19  1  0  0  0  0
 18 20  1  0  0  0  0
 18 53  1  0  0  0  0
 19 42  1  0  0  0  0
 19 43  1  0  0  0  0
 19 44  1  0  0  0  0
 20 45  1  0  0  0  0
 20 46  1  0  0  0  0
 20 47  1  0  0  0  0
 21 22  1  0  0  0  0
 21 48  1  0  0  0  0
 21 49  1  0  0  0  0
 22 50  1  0  0  0  0
 22 51  1  0  0  0  0
 23 52  1  0  0  0  0
M  CHG  1  18   1
M  END
> <s_m_source_file>
AV-unprocessed.smi

> <i_m_source_file_index>
2221

> <i_lp_mmshare_version>
43012

> <i_f3d_flags>
0

> <s_epik_input>
W0NIM11jMVtjSF1jKFtDSDNdKW5jKFtjSF0xKVtOSF1DKD1PKVtOSF1bQ0gyXVtDSDJdTjJbQ0gyXVtDSDJdW0NIXShOKFtDSDNdKVtDSDNdKVtDSDJdW0NIMl0y

> <s_epik_cmdline>
J2VwaWtfcHl0aG9uJywgJy1waCcsICc3LjAnLCAnLXRuJywgJzgnLCAnLW1hJywgJzIwMCcsICctbWV0YWxfYmluZGluZycsICctaW1hZScsICc8aW5maWxlLm1hZT4nLCAnLW9tYWUnLCAnPG91dGZpbGUubWFlPic=

> <r_epik_Ionization_Penalty>
0.929621

> <r_epik_Ionization_Penalty_Charging>
0.000679816

> <r_epik_Ionization_Penalty_Neutral>
0.928941

> <r_epik_State_Penalty>
1.01912

> <r_epik_Charging_Adjusted_Penalty>
1.0198

> <i_epik_Tot_Q>
1

> <i_epik_Tot_abs_Q>
1

> <r_epik_Metal_State_Penalty>
1.01908

> <b_epik_Metal_Only>
0

> <s_lp_Force_Field>
OPLS_2005

> <r_lp_Energy>
22.8604

> <b_lp_Chiralities_Consistent>
1

> <s_lp_Variant>
AV-unprocessed.smi:2221-3

> <Gold.Version>
5.8.1

> <Gold.Id.Protein>
6NUR|6NUR_protein|mol2

> <Gold.PLP.Fitness>
53.1791

> <Gold.PLP.PLP>
-45.0837

> <Gold.PLP.part.hbond>
-3.0000

> <Gold.PLP.part.metal>
0.0000

> <Gold.PLP.part.buried>
-2.2243

> <Gold.PLP.part.nonpolar>
-41.6210

> <Gold.PLP.part.repulsive>
0.4580

> <Gold.PLP.ligand.clash>
0.0000

> <Gold.PLP.ligand.torsion>
0.3956

> <Gold.PLP.Chemscore.Hbond>
2.9280

> <Gold.PLP.Chemscore.CHOScore>
0.0000

> <Gold.PLP.Chemscore.Metal>
0.0000

> <Gold.Chemscore.Hbonds>
donor molecule, donor type, donor heavy atom, donor atom, acceptor molecule, acceptor atom, score
      L1  H     8    31       P1  8028  1.00
      L1  H    11    32       P1  8028  0.94
      L1  H    18    53       P1 10171  1.00

> <Gold.PLP.Chemscore.Internal.Correction>
0.1026

> <Gold.Rescore>
     Score         DG    S(hbond)    S(metal)    S(lipo)     H(rot)  DE(clash)    DE(int)     intcor
     22.36     -24.40       2.91        0.00     114.64       1.64       0.37       1.67       ----

> <Gold.Chemscore.Fitness>
22.3648

> <Gold.Chemscore.DG>
-24.4047

> <Gold.Chemscore.ZeroCoef>
-5.4800

> <Gold.Chemscore.Hbond>
2.9062

> <Gold.Chemscore.Metal>
0.0000

> <Gold.Chemscore.Lipo>
114.6363

> <Gold.Chemscore.Internal_Hbond>
0.0000

> <Gold.Chemscore.DEClash>
0.3741

> <Gold.Chemscore.DEInternal>
1.6658

> <Gold.Chemscore.Rot>
1.6385

> <Gold.Chemscore.Internal.Correction>
   9.000000E+99

> <Gold.Chemscore.Hbonds>
donor molecule, donor type, donor heavy atom, donor atom, acceptor molecule, acceptor atom, score
      L1  H     8    31       P1  8028  1.00
      L1  H    11    32       P1  8028  0.90
      L1  H    18    53       P1 10171  0.96

> <Gold.Chemscore.Hbond.Weighted>
-9.7067

> <Gold.Chemscore.Metal.Weighted>
-0.0000

> <Gold.Chemscore.Lipo.Weighted>
-13.4124

> <Gold.Chemscore.Internal_Hbond.Weighted>
0.0000

> <Gold.Chemscore.DEClash.Weighted>
0.3741

> <Gold.Chemscore.DEInternal.Weighted>
1.6658

> <Gold.Chemscore.Rot.Weighted>
4.1945

> <Gold.Chemscore.Internal.Correction.Weighted>
   9.000000E+99

> <Gold.Protein.RotatedTorsions>
[ 6907 6896 6895 6894 ] final  -16.76 input  -60.11 | X-H torsion
[ 7974 7965 7964 7962 ] final  155.13 input  175.53 | X-H torsion
[ 8008 7997 7996 7995 ] final  -39.25 input   59.86 | X-H torsion
[ 10167 10162 10161 10158 ] final   74.51 input  -65.29 | X-H torsion
[ 10718 10713 10712 10709 ] final  -55.31 input   66.30 | X-H torsion
[ 10763 10752 10751 10750 ] final   94.97 input  -60.55 | X-H torsion
[ 11005 11000 10999 10996 ] final  -25.19 input  -57.11 | X-H torsion

> <Gold.Protein.ActiveResidues>
 VAL166  LYS551  ARG553  GLY616  TRP617  ASP618  TYR619  PRO620  LYS621  CYS622 
 ASP623  PHE694  ASN695  SER759  ASP760  ASP761  ALA762  ILE779  LEU786  VAL792 
 PHE793  MET794  SER795  GLU796  ALA797  LYS798  CYS799  TRP800  GLU811  SER814 

> <Gold.Protein.RotatedAtoms>
  151.3037  135.0775  159.9247 H   0  0  0  0  0  0  0  0  0  0  0  0  # atno 6907 bound_to 6896
  152.5292  133.9807  159.7815 H   0  0  0  0  0  0  0  0  0  0  0  0  # atno 6908 bound_to 6896
  151.0098  133.5925  159.2714 H   0  0  0  0  0  0  0  0  0  0  0  0  # atno 6909 bound_to 6896
  144.8044  139.7026  143.6168 H   0  0  0  0  0  0  0  0  0  0  0  0  # atno 7974 bound_to 7965
  154.4025  140.1556  156.2833 H   0  0  0  0  0  0  0  0  0  0  0  0  # atno 8008 bound_to 7997
  155.8850  140.3442  155.5893 H   0  0  0  0  0  0  0  0  0  0  0  0  # atno 8009 bound_to 7997
  155.7624  140.0819  157.2139 H   0  0  0  0  0  0  0  0  0  0  0  0  # atno 8010 bound_to 7997
  140.0130  144.5599  150.7643 H   0  0  0  0  0  0  0  0  0  0  0  0  # atno 10167 bound_to 10162
  156.1379  130.4156  150.0153 H   0  0  0  0  0  0  0  0  0  0  0  0  # atno 10718 bound_to 10713
  153.2477  135.4271  155.0765 H   0  0  0  0  0  0  0  0  0  0  0  0  # atno 10763 bound_to 10752
  154.8368  135.3418  154.6557 H   0  0  0  0  0  0  0  0  0  0  0  0  # atno 10764 bound_to 10752
  153.6979  135.7030  153.5128 H   0  0  0  0  0  0  0  0  0  0  0  0  # atno 10765 bound_to 10752
  140.8915  133.7585  156.0427 H   0  0  0  0  0  0  0  0  0  0  0  0  # atno 11005 bound_to 11000
  146.2333  139.5856  142.9541 LP  0  0  0  0  0  0  0  0  0  0  0  0  # atno 17320 bound_to 7965
  145.5473  141.0416  143.2298 LP  0  0  0  0  0  0  0  0  0  0  0  0  # atno 17321 bound_to 7965
  140.7374  143.2765  151.3728 LP  0  0  0  0  0  0  0  0  0  0  0  0  # atno 17342 bound_to 10162
  139.6192  144.0941  152.2375 LP  0  0  0  0  0  0  0  0  0  0  0  0  # atno 17343 bound_to 10162
  156.8047  130.9303  151.3645 LP  0  0  0  0  0  0  0  0  0  0  0  0  # atno 17370 bound_to 10713
  157.6549  130.8916  149.9709 LP  0  0  0  0  0  0  0  0  0  0  0  0  # atno 17371 bound_to 10713
  140.8341  134.3143  157.5338 LP  0  0  0  0  0  0  0  0  0  0  0  0  # atno 17394 bound_to 11000
  139.8730  134.9380  156.3702 LP  0  0  0  0  0  0  0  0  0  0  0  0  # atno 17395 bound_to 11000

$$$$
