AV-unprocessed.smi:765|AV-procd|sdf|3649|dock2
  -GOLD-   22720 1 53D 1   1.00000     0.00000
 Structure written by MMmdl.
 39 40  0  0  0  0  0  0  0  0  1 V2000
  152.8938  138.6676  154.8301 C   0  0  0  0  0  0  0  0  0  0  0  0
  151.8131  138.5542  155.9146 C   0  0  2  0  0  0  0  0  0  0  0  0
  150.4062  138.7699  155.3291 C   0  0  0  0  0  0  0  0  0  0  0  0
  149.3239  138.6757  156.4133 C   0  0  0  0  0  0  0  0  0  0  0  0
  149.6035  139.6650  157.5560 C   0  0  0  0  0  0  0  0  0  0  0  0
  150.9986  139.4559  158.1856 C   0  0  2  0  0  0  0  0  0  0  0  0
  151.0434  138.1377  158.8502 C   0  0  0  0  0  0  0  0  0  0  0  0
  151.0779  137.1051  159.3717 N   0  0  0  0  0  0  0  0  0  0  0  0
  151.2028  140.5394  159.1488 N   0  0  0  0  0  0  0  0  0  0  0  0
  152.2930  140.7569  159.9040 C   0  0  0  0  0  0  0  0  0  0  0  0
  153.2770  140.0168  159.9020 O   0  0  0  0  0  0  0  0  0  0  0  0
  152.2624  142.0203  160.7773 C   0  0  1  0  0  0  0  0  0  0  0  0
  153.3514  142.0253  161.8659 C   0  0  0  0  0  0  0  0  0  0  0  0
  152.3548  143.2097  159.9404 N   0  0  0  0  0  0  0  0  0  0  0  0
  152.2390  144.5376  160.3046 C   0  0  0  0  0  0  0  0  0  0  0  0
  152.4035  145.2873  159.1756 C   0  0  0  0  0  0  0  0  0  0  0  0
  152.6139  144.3187  158.1552 C   0  0  0  0  0  0  0  0  0  0  0  0
  152.5843  143.0784  158.6151 N   0  0  0  0  0  0  0  0  0  0  0  0
  152.0705  139.5434  157.0695 C   0  0  0  0  0  0  0  0  0  0  0  0
  152.9030  139.6615  154.3814 H   0  0  0  0  0  0  0  0  0  0  0  0
  152.7265  137.9435  154.0322 H   0  0  0  0  0  0  0  0  0  0  0  0
  153.8855  138.4793  155.2427 H   0  0  0  0  0  0  0  0  0  0  0  0
  151.8598  137.5411  156.3158 H   0  0  0  0  0  0  0  0  0  0  0  0
  150.3531  139.7479  154.8485 H   0  0  0  0  0  0  0  0  0  0  0  0
  150.2083  138.0331  154.5498 H   0  0  0  0  0  0  0  0  0  0  0  0
  148.3457  138.8806  155.9775 H   0  0  0  0  0  0  0  0  0  0  0  0
  149.2793  137.6582  156.8027 H   0  0  0  0  0  0  0  0  0  0  0  0
  149.5205  140.6820  157.1689 H   0  0  0  0  0  0  0  0  0  0  0  0
  148.8301  139.5666  158.3191 H   0  0  0  0  0  0  0  0  0  0  0  0
  150.4500  141.2077  159.2284 H   0  0  0  0  0  0  0  0  0  0  0  0
  151.2957  142.0360  161.2848 H   0  0  0  0  0  0  0  0  0  0  0  0
  153.2756  141.1445  162.5043 H   0  0  0  0  0  0  0  0  0  0  0  0
  153.2536  142.9020  162.5067 H   0  0  0  0  0  0  0  0  0  0  0  0
  154.3545  142.0418  161.4373 H   0  0  0  0  0  0  0  0  0  0  0  0
  152.0538  144.8342  161.3268 H   0  0  0  0  0  0  0  0  0  0  0  0
  152.3769  146.3634  159.0915 H   0  0  0  0  0  0  0  0  0  0  0  0
  152.7864  144.4786  157.1011 H   0  0  0  0  0  0  0  0  0  0  0  0
  153.0607  139.3542  157.4861 H   0  0  0  0  0  0  0  0  0  0  0  0
  152.1002  140.5590  156.6709 H   0  0  0  0  0  0  0  0  0  0  0  0
  1  2  1  0  0  0  0
  1 20  1  0  0  0  0
  1 21  1  0  0  0  0
  1 22  1  0  0  0  0
  2 19  1  0  0  0  0
  2  3  1  0  0  0  0
  2 23  1  0  0  0  0
  3  4  1  0  0  0  0
  3 24  1  0  0  0  0
  3 25  1  0  0  0  0
  4  5  1  0  0  0  0
  4 26  1  0  0  0  0
  4 27  1  0  0  0  0
  5  6  1  0  0  0  0
  5 28  1  0  0  0  0
  5 29  1  0  0  0  0
  6  7  1  0  0  0  0
  6  9  1  0  0  0  0
  6 19  1  0  0  0  0
  7  8  3  0  0  0  0
  9 10  1  0  0  0  0
  9 30  1  0  0  0  0
 10 11  2  0  0  0  0
 10 12  1  0  0  0  0
 12 13  1  0  0  0  0
 12 14  1  0  0  0  0
 12 31  1  0  0  0  0
 13 32  1  0  0  0  0
 13 33  1  0  0  0  0
 13 34  1  0  0  0  0
 14 18  1  0  0  0  0
 14 15  1  0  0  0  0
 15 16  2  0  0  0  0
 15 35  1  0  0  0  0
 16 17  1  0  0  0  0
 16 36  1  0  0  0  0
 17 18  2  0  0  0  0
 17 37  1  0  0  0  0
 19 38  1  0  0  0  0
 19 39  1  0  0  0  0
M  END
> <s_m_source_file>
AV-unprocessed.smi

> <i_m_source_file_index>
765

> <i_lp_mmshare_version>
43012

> <i_f3d_flags>
0

> <s_epik_input>
W0NIM11bQ0BASF0oW0NIMl0xKVtDSDJdW0NIMl1bQ0gyXVtDQEBdMShDI04pW05IXUMoPU8pW0NASF0oW0NIM10pbjJbY0hdW2NIXVtjSF1uMg==

> <s_epik_cmdline>
J2VwaWtfcHl0aG9uJywgJy1waCcsICc3LjAnLCAnLXRuJywgJzgnLCAnLW1hJywgJzIwMCcsICctbWV0YWxfYmluZGluZycsICctaW1hZScsICc8aW5maWxlLm1hZT4nLCAnLW9tYWUnLCAnPG91dGZpbGUubWFlPic=

> <r_lp_tautomer_probability>
1

> <r_epik_Ionization_Penalty>
2.71142e-05

> <r_epik_Ionization_Penalty_Charging>
0

> <r_epik_Ionization_Penalty_Neutral>
2.71142e-05

> <r_epik_State_Penalty>
-0

> <r_epik_Charging_Adjusted_Penalty>
0

> <i_epik_Tot_Q>
0

> <i_epik_Tot_abs_Q>
0

> <r_epik_Metal_State_Penalty>
-0

> <b_epik_Metal_Only>
0

> <s_lp_Force_Field>
OPLS_2005

> <r_lp_Energy>
10.7608

> <b_lp_Chiralities_Consistent>
1

> <s_lp_Variant>
AV-unprocessed.smi:765-7

> <Gold.Version>
5.8.1

> <Gold.Id.Protein>
6NUR|6NUR_protein|mol2

> <Gold.PLP.Fitness>
42.8149

> <Gold.PLP.PLP>
-40.4371

> <Gold.PLP.part.hbond>
-1.0000

> <Gold.PLP.part.metal>
0.0000

> <Gold.PLP.part.buried>
-5.6978

> <Gold.PLP.part.nonpolar>
-34.3777

> <Gold.PLP.part.repulsive>
0.2036

> <Gold.PLP.ligand.clash>
0.0000

> <Gold.PLP.ligand.torsion>
0.3439

> <Gold.PLP.Chemscore.Hbond>
1.0000

> <Gold.PLP.Chemscore.CHOScore>
0.0000

> <Gold.PLP.Chemscore.Metal>
0.0000

> <Gold.Chemscore.Hbonds>
donor molecule, donor type, donor heavy atom, donor atom, acceptor molecule, acceptor atom, score
      P1  H  6896  6908       L1     8  0.91

> <Gold.PLP.Chemscore.Internal.Correction>
0.0656

> <Gold.Rescore>
     Score         DG    S(hbond)    S(metal)    S(lipo)     H(rot)  DE(clash)    DE(int)     intcor
     15.79     -16.54       1.00        0.00      97.14       1.42       0.03       0.73       ----

> <Gold.Chemscore.Fitness>
15.7891

> <Gold.Chemscore.DG>
-16.5446

> <Gold.Chemscore.ZeroCoef>
-5.4800

> <Gold.Chemscore.Hbond>
0.9970

> <Gold.Chemscore.Metal>
0.0000

> <Gold.Chemscore.Lipo>
97.1416

> <Gold.Chemscore.Internal_Hbond>
0.0000

> <Gold.Chemscore.DEClash>
0.0287

> <Gold.Chemscore.DEInternal>
0.7268

> <Gold.Chemscore.Rot>
1.4183

> <Gold.Chemscore.Internal.Correction>
   9.000000E+99

> <Gold.Chemscore.Hbonds>
donor molecule, donor type, donor heavy atom, donor atom, acceptor molecule, acceptor atom, score
      P1  H  6896  6908       L1     8  0.87

> <Gold.Chemscore.Hbond.Weighted>
-3.3299

> <Gold.Chemscore.Metal.Weighted>
-0.0000

> <Gold.Chemscore.Lipo.Weighted>
-11.3656

> <Gold.Chemscore.Internal_Hbond.Weighted>
0.0000

> <Gold.Chemscore.DEClash.Weighted>
0.0287

> <Gold.Chemscore.DEInternal.Weighted>
0.7268

> <Gold.Chemscore.Rot.Weighted>
3.6309

> <Gold.Chemscore.Internal.Correction.Weighted>
   9.000000E+99

> <Gold.Protein.RotatedTorsions>
[ 6907 6896 6895 6894 ] final -123.58 input  -60.11 | X-H torsion
[ 7974 7965 7964 7962 ] final   32.19 input  175.53 | X-H torsion
[ 8008 7997 7996 7995 ] final  106.71 input   59.86 | X-H torsion
[ 10167 10162 10161 10158 ] final  -71.68 input  -65.29 | X-H torsion
[ 10718 10713 10712 10709 ] final -177.10 input   66.30 | X-H torsion
[ 10763 10752 10751 10750 ] final  -39.36 input  -60.55 | X-H torsion
[ 11005 11000 10999 10996 ] final  -30.29 input  -57.11 | X-H torsion

> <Gold.Protein.ActiveResidues>
 VAL166  LYS551  ARG553  GLY616  TRP617  ASP618  TYR619  PRO620  LYS621  CYS622 
 ASP623  PHE694  ASN695  SER759  ASP760  ASP761  ALA762  ILE779  LEU786  VAL792 
 PHE793  MET794  SER795  GLU796  ALA797  LYS798  CYS799  TRP800  GLU811  SER814 

> <Gold.Protein.RotatedAtoms>
  150.8684  133.7540  159.2968 H   0  0  0  0  0  0  0  0  0  0  0  0  # atno 6907 bound_to 6896
  151.5160  135.1064  159.9876 H   0  0  0  0  0  0  0  0  0  0  0  0  # atno 6908 bound_to 6896
  152.4678  133.7916  159.6961 H   0  0  0  0  0  0  0  0  0  0  0  0  # atno 6909 bound_to 6896
  146.1502  139.6558  142.9104 H   0  0  0  0  0  0  0  0  0  0  0  0  # atno 7974 bound_to 7965
  156.1765  140.3108  155.9069 H   0  0  0  0  0  0  0  0  0  0  0  0  # atno 8008 bound_to 7997
  155.3476  140.0469  157.3063 H   0  0  0  0  0  0  0  0  0  0  0  0  # atno 8009 bound_to 7997
  154.5296  140.2226  155.8838 H   0  0  0  0  0  0  0  0  0  0  0  0  # atno 8010 bound_to 7997
  140.5254  143.2327  151.7357 H   0  0  0  0  0  0  0  0  0  0  0  0  # atno 10167 bound_to 10162
  156.8245  130.9631  151.3110 H   0  0  0  0  0  0  0  0  0  0  0  0  # atno 10718 bound_to 10713
  153.9280  135.6775  153.4746 H   0  0  0  0  0  0  0  0  0  0  0  0  # atno 10763 bound_to 10752
  153.0994  135.4835  154.8836 H   0  0  0  0  0  0  0  0  0  0  0  0  # atno 10764 bound_to 10752
  154.7443  135.3168  154.8630 H   0  0  0  0  0  0  0  0  0  0  0  0  # atno 10765 bound_to 10752
  140.9370  133.7302  156.1019 H   0  0  0  0  0  0  0  0  0  0  0  0  # atno 11005 bound_to 11000
  145.4841  141.0438  143.2629 LP  0  0  0  0  0  0  0  0  0  0  0  0  # atno 17320 bound_to 7965
  144.7895  139.6358  143.7119 LP  0  0  0  0  0  0  0  0  0  0  0  0  # atno 17321 bound_to 7965
  139.4936  144.4194  151.9994 LP  0  0  0  0  0  0  0  0  0  0  0  0  # atno 17342 bound_to 10162
  140.3293  144.3336  150.5991 LP  0  0  0  0  0  0  0  0  0  0  0  0  # atno 17343 bound_to 10162
  157.6439  130.8828  149.9501 LP  0  0  0  0  0  0  0  0  0  0  0  0  # atno 17370 bound_to 10713
  156.0969  130.3658  150.0289 LP  0  0  0  0  0  0  0  0  0  0  0  0  # atno 17371 bound_to 10713
  140.7786  134.3751  157.5492 LP  0  0  0  0  0  0  0  0  0  0  0  0  # atno 17394 bound_to 11000
  139.8810  134.9067  156.2929 LP  0  0  0  0  0  0  0  0  0  0  0  0  # atno 17395 bound_to 11000

$$$$
