AV-unprocessed.smi:1795|AV-procd|sdf|7245|dock3
  -GOLD-   22720 8493D 1   1.00000     0.00000
 Structure written by MMmdl.
 48 49  0  0  0  0  0  0  0  0  2 V2000
  145.6671  132.0559  149.6323 C   0  0  0  0  0  0  0  0  0  0  0  0
  146.1583  133.1945  150.5333 C   0  0  2  0  0  0  0  0  0  0  0  0
  146.9356  132.6706  151.7529 C   0  0  0  0  0  0  0  0  0  0  0  0
  147.3439  133.7882  152.6443 N   0  3  2  0  0  0  0  0  0  0  0  0
  148.2506  133.3380  153.7512 C   0  0  1  0  0  0  0  0  0  0  0  0
  149.5466  132.7444  153.1530 C   0  0  0  0  0  0  0  0  0  0  0  0
  148.5780  134.4492  154.7875 C   0  0  0  0  0  0  0  0  0  0  0  0
  149.5979  135.3799  154.3106 N   0  0  0  0  0  0  0  0  0  0  0  0
  150.6330  135.8390  155.0313 C   0  0  0  0  0  0  0  0  0  0  0  0
  150.8609  135.4859  156.1888 O   0  0  0  0  0  0  0  0  0  0  0  0
  151.5473  136.8513  154.3278 C   0  0  0  0  0  0  0  0  0  0  0  0
  151.1707  138.2503  154.5917 N   0  0  0  0  0  0  0  0  0  0  0  0
  149.9448  138.6985  154.0604 C   0  0  0  0  0  0  0  0  0  0  0  0
  149.5063  139.9534  154.2482 C   0  0  0  0  0  0  0  0  0  0  0  0
  150.3283  140.8562  155.0187 C   0  0  0  0  0  0  0  0  0  0  0  0
  151.5038  140.4389  155.5292 C   0  0  0  0  0  0  0  0  0  0  0  0
  151.9871  139.0682  155.3269 C   0  0  0  0  0  0  0  0  0  0  0  0
  153.0601  138.6780  155.7894 O   0  0  0  0  0  0  0  0  0  0  0  0
  146.1353  134.5535  153.0566 C   0  0  0  0  0  0  0  0  0  0  0  0
  145.3145  135.0201  151.8371 C   0  0  1  0  0  0  0  0  0  0  0  0
  145.9599  136.1924  151.0761 C   0  0  0  0  0  0  0  0  0  0  0  0
  145.0180  133.9190  150.9814 O   0  0  0  0  0  0  0  0  0  0  0  0
  146.5028  131.4716  149.2463 H   0  0  0  0  0  0  0  0  0  0  0  0
  145.1134  132.4464  148.7781 H   0  0  0  0  0  0  0  0  0  0  0  0
  145.0070  131.3781  150.1743 H   0  0  0  0  0  0  0  0  0  0  0  0
  146.8012  133.8420  149.9368 H   0  0  0  0  0  0  0  0  0  0  0  0
  146.3197  131.9659  152.3144 H   0  0  0  0  0  0  0  0  0  0  0  0
  147.8021  132.1140  151.4000 H   0  0  0  0  0  0  0  0  0  0  0  0
  147.7341  132.5457  154.2961 H   0  0  0  0  0  0  0  0  0  0  0  0
  150.1845  132.3090  153.9214 H   0  0  0  0  0  0  0  0  0  0  0  0
  150.1272  133.5110  152.6386 H   0  0  0  0  0  0  0  0  0  0  0  0
  149.3557  131.9448  152.4400 H   0  0  0  0  0  0  0  0  0  0  0  0
  147.6694  134.9805  155.0758 H   0  0  0  0  0  0  0  0  0  0  0  0
  148.9869  134.0135  155.6992 H   0  0  0  0  0  0  0  0  0  0  0  0
  149.4962  135.7198  153.3651 H   0  0  0  0  0  0  0  0  0  0  0  0
  152.5727  136.6566  154.6449 H   0  0  0  0  0  0  0  0  0  0  0  0
  151.5398  136.6687  153.2512 H   0  0  0  0  0  0  0  0  0  0  0  0
  149.3915  137.9651  153.4921 H   0  0  0  0  0  0  0  0  0  0  0  0
  148.5646  140.2800  153.8320 H   0  0  0  0  0  0  0  0  0  0  0  0
  149.9995  141.8714  155.1857 H   0  0  0  0  0  0  0  0  0  0  0  0
  152.1059  141.1285  156.1026 H   0  0  0  0  0  0  0  0  0  0  0  0
  145.5169  133.9235  153.6982 H   0  0  0  0  0  0  0  0  0  0  0  0
  146.4015  135.4386  153.6334 H   0  0  0  0  0  0  0  0  0  0  0  0
  144.3531  135.3795  152.2051 H   0  0  0  0  0  0  0  0  0  0  0  0
  146.0512  137.0675  151.7202 H   0  0  0  0  0  0  0  0  0  0  0  0
  145.3526  136.4797  150.2174 H   0  0  0  0  0  0  0  0  0  0  0  0
  146.9596  135.9532  150.7147 H   0  0  0  0  0  0  0  0  0  0  0  0
  147.8901  134.4266  152.0836 H   0  0  0  0  0  0  0  0  0  0  0  0
  1  2  1  0  0  0  0
  1 23  1  0  0  0  0
  1 24  1  0  0  0  0
  1 25  1  0  0  0  0
  2 22  1  0  0  0  0
  2  3  1  0  0  0  0
  2 26  1  0  0  0  0
  3  4  1  0  0  0  0
  3 27  1  0  0  0  0
  3 28  1  0  0  0  0
  4  5  1  0  0  0  0
  4 19  1  0  0  0  0
  4 48  1  0  0  0  0
  5  6  1  0  0  0  0
  5  7  1  0  0  0  0
  5 29  1  0  0  0  0
  6 30  1  0  0  0  0
  6 31  1  0  0  0  0
  6 32  1  0  0  0  0
  7  8  1  0  0  0  0
  7 33  1  0  0  0  0
  7 34  1  0  0  0  0
  8  9  1  0  0  0  0
  8 35  1  0  0  0  0
  9 10  2  0  0  0  0
  9 11  1  0  0  0  0
 11 12  1  0  0  0  0
 11 36  1  0  0  0  0
 11 37  1  0  0  0  0
 12 17  1  0  0  0  0
 12 13  1  0  0  0  0
 13 14  2  0  0  0  0
 13 38  1  0  0  0  0
 14 15  1  0  0  0  0
 14 39  1  0  0  0  0
 15 16  2  0  0  0  0
 15 40  1  0  0  0  0
 16 17  1  0  0  0  0
 16 41  1  0  0  0  0
 17 18  2  0  0  0  0
 19 20  1  0  0  0  0
 19 42  1  0  0  0  0
 19 43  1  0  0  0  0
 20 21  1  0  0  0  0
 20 22  1  0  0  0  0
 20 44  1  0  0  0  0
 21 45  1  0  0  0  0
 21 46  1  0  0  0  0
 21 47  1  0  0  0  0
M  CHG  1   4   1
M  END
> <s_m_source_file>
AV-unprocessed.smi

> <i_m_source_file_index>
1795

> <i_lp_mmshare_version>
43012

> <i_f3d_flags>
0

> <s_epik_input>
W0NIM11bQ0BASF0xW0NIMl1OKFtDSDJdW0NASF0oTzEpW0NIM10pW0NASF0oW0NIM10pW0NIMl1bTkhdQyg9TylbQ0gyXW4yW2NIXVtjSF1bY0hdW2NIXWMyPU8=

> <s_epik_cmdline>
J2VwaWtfcHl0aG9uJywgJy1waCcsICc3LjAnLCAnLXRuJywgJzgnLCAnLW1hJywgJzIwMCcsICctbWV0YWxfYmluZGluZycsICctaW1hZScsICc8aW5maWxlLm1hZT4nLCAnLW9tYWUnLCAnPG91dGZpbGUubWFlPic=

> <r_lp_tautomer_probability>
1

> <r_epik_Ionization_Penalty>
0.656654

> <r_epik_Ionization_Penalty_Charging>
0.656654

> <r_epik_Ionization_Penalty_Neutral>
8.90321e-08

> <r_epik_State_Penalty>
0.675641

> <r_epik_Charging_Adjusted_Penalty>
1.33229

> <i_epik_Tot_Q>
1

> <i_epik_Tot_abs_Q>
1

> <r_epik_Metal_State_Penalty>
0.675691

> <b_epik_Metal_Only>
0

> <s_lp_Force_Field>
OPLS_2005

> <r_lp_Energy>
30.7176

> <b_lp_Chiralities_Consistent>
1

> <s_lp_Variant>
AV-unprocessed.smi:1795-9

> <Gold.Version>
5.8.1

> <Gold.Id.Protein>
6NUR|6NUR_protein|mol2

> <Gold.PLP.Fitness>
53.6749

> <Gold.PLP.PLP>
-40.5955

> <Gold.PLP.part.hbond>
-3.0000

> <Gold.PLP.part.metal>
0.0000

> <Gold.PLP.part.buried>
-0.7103

> <Gold.PLP.part.nonpolar>
-35.4765

> <Gold.PLP.part.repulsive>
0.1717

> <Gold.PLP.ligand.clash>
0.0000

> <Gold.PLP.ligand.torsion>
0.7268

> <Gold.PLP.Chemscore.Hbond>
4.0000

> <Gold.PLP.Chemscore.CHOScore>
0.8138

> <Gold.PLP.Chemscore.Metal>
0.0000

> <Gold.Chemscore.Hbonds>
donor molecule, donor type, donor heavy atom, donor atom, acceptor molecule, acceptor atom, score
      L1  H     4    48       P1  7948  1.79
      L1  H     8    35       P1  7948  0.90
      P1  H  7997  8008       L1    18  1.00
      L1  C    13    38       P1  7948  1.00

> <Gold.PLP.Chemscore.Internal.Correction>
0.0917

> <Gold.Rescore>
     Score         DG    S(hbond)    S(metal)    S(lipo)     H(rot)  DE(clash)    DE(int)     intcor
     19.32     -20.08       2.88        0.00      83.92       1.89       0.06       0.70       ----

> <Gold.Chemscore.Fitness>
19.3212

> <Gold.Chemscore.DG>
-20.0828

> <Gold.Chemscore.ZeroCoef>
-5.4800

> <Gold.Chemscore.Hbond>
2.8788

> <Gold.Chemscore.Metal>
0.0000

> <Gold.Chemscore.Lipo>
83.9165

> <Gold.Chemscore.Internal_Hbond>
0.0000

> <Gold.Chemscore.DEClash>
0.0566

> <Gold.Chemscore.DEInternal>
0.7050

> <Gold.Chemscore.Rot>
1.8870

> <Gold.Chemscore.Internal.Correction>
   9.000000E+99

> <Gold.Chemscore.Hbonds>
donor molecule, donor type, donor heavy atom, donor atom, acceptor molecule, acceptor atom, score
      L1  H     4    48       P1  7948  0.19
      L1  H     8    35       P1  7948  0.18
      P1  H  7997  8008       L1    18  0.86

> <Gold.Chemscore.Hbond.Weighted>
-9.6153

> <Gold.Chemscore.Metal.Weighted>
-0.0000

> <Gold.Chemscore.Lipo.Weighted>
-9.8182

> <Gold.Chemscore.Internal_Hbond.Weighted>
0.0000

> <Gold.Chemscore.DEClash.Weighted>
0.0566

> <Gold.Chemscore.DEInternal.Weighted>
0.7050

> <Gold.Chemscore.Rot.Weighted>
4.8308

> <Gold.Chemscore.Internal.Correction.Weighted>
   9.000000E+99

> <Gold.Protein.RotatedTorsions>
[ 6907 6896 6895 6894 ] final  -89.79 input  -60.11 | X-H torsion
[ 7974 7965 7964 7962 ] final -131.12 input  175.53 | X-H torsion
[ 8008 7997 7996 7995 ] final  -35.81 input   59.86 | X-H torsion
[ 10167 10162 10161 10158 ] final  -23.80 input  -65.29 | X-H torsion
[ 10718 10713 10712 10709 ] final  146.34 input   66.30 | X-H torsion
[ 10763 10752 10751 10750 ] final -140.82 input  -60.55 | X-H torsion
[ 11005 11000 10999 10996 ] final   96.80 input  -57.11 | X-H torsion

> <Gold.Protein.ActiveResidues>
 VAL166  LYS551  ARG553  GLY616  TRP617  ASP618  TYR619  PRO620  LYS621  CYS622 
 ASP623  PHE694  ASN695  SER759  ASP760  ASP761  ALA762  ILE779  LEU786  VAL792 
 PHE793  MET794  SER795  GLU796  ALA797  LYS798  CYS799  TRP800  GLU811  SER814 

> <Gold.Protein.RotatedAtoms>
  150.6876  134.2532  159.4518 H   0  0  0  0  0  0  0  0  0  0  0  0  # atno 6907 bound_to 6896
  152.0468  134.9676  160.0583 H   0  0  0  0  0  0  0  0  0  0  0  0  # atno 6908 bound_to 6896
  152.1156  133.4290  159.4688 H   0  0  0  0  0  0  0  0  0  0  0  0  # atno 6909 bound_to 6896
  144.9409  140.7237  143.4847 H   0  0  0  0  0  0  0  0  0  0  0  0  # atno 7974 bound_to 7965
  154.4087  140.1647  156.2272 H   0  0  0  0  0  0  0  0  0  0  0  0  # atno 8008 bound_to 7997
  155.9314  140.3414  155.6229 H   0  0  0  0  0  0  0  0  0  0  0  0  # atno 8009 bound_to 7997
  155.7102  140.0755  157.2365 H   0  0  0  0  0  0  0  0  0  0  0  0  # atno 8010 bound_to 7997
  140.7288  143.4410  151.0657 H   0  0  0  0  0  0  0  0  0  0  0  0  # atno 10167 bound_to 10162
  157.3344  131.0925  151.1135 H   0  0  0  0  0  0  0  0  0  0  0  0  # atno 10718 bound_to 10713
  154.8566  135.3542  154.5769 H   0  0  0  0  0  0  0  0  0  0  0  0  # atno 10763 bound_to 10752
  153.6381  135.6999  153.5256 H   0  0  0  0  0  0  0  0  0  0  0  0  # atno 10764 bound_to 10752
  153.2994  135.4211  155.1198 H   0  0  0  0  0  0  0  0  0  0  0  0  # atno 10765 bound_to 10752
  139.8779  134.8969  156.4212 H   0  0  0  0  0  0  0  0  0  0  0  0  # atno 11005 bound_to 11000
  145.2993  139.1856  143.4698 LP  0  0  0  0  0  0  0  0  0  0  0  0  # atno 17320 bound_to 7965
  146.3285  140.2981  142.8619 LP  0  0  0  0  0  0  0  0  0  0  0  0  # atno 17321 bound_to 7965
  139.8077  143.7995  152.3169 LP  0  0  0  0  0  0  0  0  0  0  0  0  # atno 17342 bound_to 10162
  139.8033  144.7365  150.9795 LP  0  0  0  0  0  0  0  0  0  0  0  0  # atno 17343 bound_to 10162
  157.2371  130.6552  149.5874 LP  0  0  0  0  0  0  0  0  0  0  0  0  # atno 17370 bound_to 10713
  155.9699  130.4580  150.5984 LP  0  0  0  0  0  0  0  0  0  0  0  0  # atno 17371 bound_to 10713
  140.9132  133.7697  155.9817 LP  0  0  0  0  0  0  0  0  0  0  0  0  # atno 17394 bound_to 11000
  140.8522  134.2940  157.5270 LP  0  0  0  0  0  0  0  0  0  0  0  0  # atno 17395 bound_to 11000

$$$$
