AV-unprocessed.smi:1976|AV-procd|sdf|7989|dock6
  -GOLD-   2272010173D 1   1.00000     0.00000
 Structure written by MMmdl.
 45 47  0  0  0  0  0  0  0  0  2 V2000
  149.4693  138.9236  157.6752 O   0  0  0  0  0  0  0  0  0  0  0  0
  149.7451  139.3044  156.5366 C   0  0  0  0  0  0  0  0  0  0  0  0
  150.9911  140.1584  156.2619 C   0  0  0  0  0  0  0  0  0  0  0  0
  151.6690  140.6217  157.4844 N   0  0  0  0  0  0  0  0  0  0  0  0
  151.5569  141.9914  157.7938 C   0  0  0  0  0  0  0  0  0  0  0  0
  152.1324  142.5478  158.8768 C   0  0  0  0  0  0  0  0  0  0  0  0
  151.9420  144.0178  159.2167 C   0  0  0  0  0  0  0  0  0  0  0  0
  152.6000  144.7982  158.3590 F   0  0  0  0  0  0  0  0  0  0  0  0
  150.6487  144.3326  159.1563 F   0  0  0  0  0  0  0  0  0  0  0  0
  152.3775  144.2881  160.4480 F   0  0  0  0  0  0  0  0  0  0  0  0
  152.8637  141.6514  159.7506 C   0  0  0  0  0  0  0  0  0  0  0  0
  152.9691  140.3362  159.4764 C   0  0  0  0  0  0  0  0  0  0  0  0
  152.3518  139.7494  158.2848 C   0  0  0  0  0  0  0  0  0  0  0  0
  152.4398  138.5493  158.0242 O   0  0  0  0  0  0  0  0  0  0  0  0
  148.9858  139.0205  155.4673 N   0  0  0  0  0  0  0  0  0  0  0  0
  147.7606  138.2234  155.4899 C   0  0  2  0  0  0  0  0  0  0  0  0
  148.0101  136.7479  155.8560 C   0  0  0  0  0  0  0  0  0  0  0  0
  147.0780  135.9566  154.9328 C   0  0  0  0  0  0  0  0  0  0  0  0
  147.0559  136.7725  153.7132 N   0  3  1  0  0  0  0  0  0  0  0  0
  146.0631  136.4548  152.6671 C   0  0  0  0  0  0  0  0  0  0  0  0
  146.3699  137.3206  151.4260 C   0  0  0  0  0  0  0  0  0  0  0  0
  146.4742  138.8234  151.7719 C   0  0  0  0  0  0  0  0  0  0  0  0
  147.4291  139.0745  152.9592 C   0  0  0  0  0  0  0  0  0  0  0  0
  147.0046  138.1818  154.1396 C   0  0  2  0  0  0  0  0  0  0  0  0
  151.6759  139.5867  155.6330 H   0  0  0  0  0  0  0  0  0  0  0  0
  150.6968  141.0154  155.6538 H   0  0  0  0  0  0  0  0  0  0  0  0
  150.9616  142.5614  157.0951 H   0  0  0  0  0  0  0  0  0  0  0  0
  153.3383  142.0407  160.6393 H   0  0  0  0  0  0  0  0  0  0  0  0
  153.5232  139.6982  160.1494 H   0  0  0  0  0  0  0  0  0  0  0  0
  149.2859  139.3729  154.5697 H   0  0  0  0  0  0  0  0  0  0  0  0
  147.0885  138.6408  156.2427 H   0  0  0  0  0  0  0  0  0  0  0  0
  149.0442  136.4738  155.6406 H   0  0  0  0  0  0  0  0  0  0  0  0
  147.8279  136.5394  156.9108 H   0  0  0  0  0  0  0  0  0  0  0  0
  147.4346  134.9441  154.7411 H   0  0  0  0  0  0  0  0  0  0  0  0
  146.0743  135.8982  155.3572 H   0  0  0  0  0  0  0  0  0  0  0  0
  146.1221  135.3962  152.4116 H   0  0  0  0  0  0  0  0  0  0  0  0
  145.0539  136.6441  153.0357 H   0  0  0  0  0  0  0  0  0  0  0  0
  147.3128  136.9921  150.9867 H   0  0  0  0  0  0  0  0  0  0  0  0
  145.6072  137.1643  150.6628 H   0  0  0  0  0  0  0  0  0  0  0  0
  146.8044  139.3875  150.8992 H   0  0  0  0  0  0  0  0  0  0  0  0
  145.4826  139.2023  152.0231 H   0  0  0  0  0  0  0  0  0  0  0  0
  148.4572  138.8569  152.6666 H   0  0  0  0  0  0  0  0  0  0  0  0
  147.3928  140.1275  153.2398 H   0  0  0  0  0  0  0  0  0  0  0  0
  145.9626  138.4140  154.3711 H   0  0  0  0  0  0  0  0  0  0  0  0
  147.9643  136.6431  153.2909 H   0  0  0  0  0  0  0  0  0  0  0  0
  1  2  2  0  0  0  0
  2  3  1  0  0  0  0
  2 15  1  0  0  0  0
  3  4  1  0  0  0  0
  3 25  1  0  0  0  0
  3 26  1  0  0  0  0
  4 13  1  0  0  0  0
  4  5  1  0  0  0  0
  5  6  2  0  0  0  0
  5 27  1  0  0  0  0
  6  7  1  0  0  0  0
  6 11  1  0  0  0  0
  7  8  1  0  0  0  0
  7  9  1  0  0  0  0
  7 10  1  0  0  0  0
 11 12  2  0  0  0  0
 11 28  1  0  0  0  0
 12 13  1  0  0  0  0
 12 29  1  0  0  0  0
 13 14  2  0  0  0  0
 15 16  1  0  0  0  0
 15 30  1  0  0  0  0
 16 24  1  0  0  0  0
 16 17  1  0  0  0  0
 16 31  1  0  0  0  0
 17 18  1  0  0  0  0
 17 32  1  0  0  0  0
 17 33  1  0  0  0  0
 18 19  1  0  0  0  0
 18 34  1  0  0  0  0
 18 35  1  0  0  0  0
 19 24  1  0  0  0  0
 19 20  1  0  0  0  0
 19 45  1  0  0  0  0
 20 21  1  0  0  0  0
 20 36  1  0  0  0  0
 20 37  1  0  0  0  0
 21 22  1  0  0  0  0
 21 38  1  0  0  0  0
 21 39  1  0  0  0  0
 22 23  1  0  0  0  0
 22 40  1  0  0  0  0
 22 41  1  0  0  0  0
 23 24  1  0  0  0  0
 23 42  1  0  0  0  0
 23 43  1  0  0  0  0
 24 44  1  0  0  0  0
M  CHG  1  19   1
M  END
> <s_m_source_file>
AV-unprocessed.smi

> <i_m_source_file_index>
1976

> <i_lp_mmshare_version>
43012

> <i_f3d_flags>
0

> <s_epik_input>
W0NIMl0xW0NIMl1bQ0gyXVtDSDJdW0NASF0oTjEyKVtDQEBIXShbQ0gyXVtDSDJdMilbTkhdQyg9TylbQ0gyXW4zW2NIXWMoQyhGKShGKUYpW2NIXVtjSF1jMz1P

> <s_epik_cmdline>
J2VwaWtfcHl0aG9uJywgJy1waCcsICc3LjAnLCAnLXRuJywgJzgnLCAnLW1hJywgJzIwMCcsICctbWV0YWxfYmluZGluZycsICctaW1hZScsICc8aW5maWxlLm1hZT4nLCAnLW9tYWUnLCAnPG91dGZpbGUubWFlPic=

> <r_lp_tautomer_probability>
1

> <r_epik_Ionization_Penalty>
0.00171506

> <r_epik_Ionization_Penalty_Charging>
0.00171498

> <r_epik_Ionization_Penalty_Neutral>
7.81737e-08

> <r_epik_State_Penalty>
0.00115937

> <r_epik_Charging_Adjusted_Penalty>
0.00287436

> <i_epik_Tot_Q>
1

> <i_epik_Tot_abs_Q>
1

> <r_epik_Metal_State_Penalty>
-0

> <b_epik_Metal_Only>
0

> <s_lp_Force_Field>
OPLS_2005

> <r_lp_Energy>
53.4145

> <b_lp_Chiralities_Consistent>
1

> <s_lp_Variant>
AV-unprocessed.smi:1976-7

> <Gold.Version>
5.8.1

> <Gold.Id.Protein>
6NUR|6NUR_protein|mol2

> <Gold.PLP.Fitness>
44.0604

> <Gold.PLP.PLP>
-39.0595

> <Gold.PLP.part.hbond>
-1.0000

> <Gold.PLP.part.metal>
0.0000

> <Gold.PLP.part.buried>
1.8159

> <Gold.PLP.part.nonpolar>
-39.9427

> <Gold.PLP.part.repulsive>
0.0113

> <Gold.PLP.ligand.clash>
0.0000

> <Gold.PLP.ligand.torsion>
0.4931

> <Gold.PLP.Chemscore.Hbond>
1.9840

> <Gold.PLP.Chemscore.CHOScore>
0.0000

> <Gold.PLP.Chemscore.Metal>
0.0000

> <Gold.Chemscore.Hbonds>
donor molecule, donor type, donor heavy atom, donor atom, acceptor molecule, acceptor atom, score
      L1  H    19    45       P1  7948  1.98

> <Gold.PLP.Chemscore.Internal.Correction>
0.0351

> <Gold.Rescore>
     Score         DG    S(hbond)    S(metal)    S(lipo)     H(rot)  DE(clash)    DE(int)     intcor
     13.20     -15.16       0.99        0.00      89.11       1.58       1.75       0.20       ----

> <Gold.Chemscore.Fitness>
13.2048

> <Gold.Chemscore.DG>
-15.1555

> <Gold.Chemscore.ZeroCoef>
-5.4800

> <Gold.Chemscore.Hbond>
0.9885

> <Gold.Chemscore.Metal>
0.0000

> <Gold.Chemscore.Lipo>
89.1128

> <Gold.Chemscore.Internal_Hbond>
0.0000

> <Gold.Chemscore.DEClash>
1.7501

> <Gold.Chemscore.DEInternal>
0.2006

> <Gold.Chemscore.Rot>
1.5830

> <Gold.Chemscore.Internal.Correction>
   9.000000E+99

> <Gold.Chemscore.Hbonds>
donor molecule, donor type, donor heavy atom, donor atom, acceptor molecule, acceptor atom, score
      L1  H    19    45       P1  7948  0.94

> <Gold.Chemscore.Hbond.Weighted>
-3.3017

> <Gold.Chemscore.Metal.Weighted>
-0.0000

> <Gold.Chemscore.Lipo.Weighted>
-10.4262

> <Gold.Chemscore.Internal_Hbond.Weighted>
0.0000

> <Gold.Chemscore.DEClash.Weighted>
1.7501

> <Gold.Chemscore.DEInternal.Weighted>
0.2006

> <Gold.Chemscore.Rot.Weighted>
4.0524

> <Gold.Chemscore.Internal.Correction.Weighted>
   9.000000E+99

> <Gold.Protein.RotatedTorsions>
[ 6907 6896 6895 6894 ] final  -78.52 input  -60.11 | X-H torsion
[ 7974 7965 7964 7962 ] final   55.08 input  175.53 | X-H torsion
[ 8008 7997 7996 7995 ] final -141.52 input   59.86 | X-H torsion
[ 10167 10162 10161 10158 ] final  -51.83 input  -65.29 | X-H torsion
[ 10718 10713 10712 10709 ] final -179.40 input   66.30 | X-H torsion
[ 10763 10752 10751 10750 ] final  -21.22 input  -60.55 | X-H torsion
[ 11005 11000 10999 10996 ] final  138.91 input  -57.11 | X-H torsion

> <Gold.Protein.ActiveResidues>
 VAL166  LYS551  ARG553  GLY616  TRP617  ASP618  TYR619  PRO620  LYS621  CYS622 
 ASP623  PHE694  ASN695  SER759  ASP760  ASP761  ALA762  ILE779  LEU786  VAL792 
 PHE793  MET794  SER795  GLU796  ALA797  LYS798  CYS799  TRP800  GLU811  SER814 

> <Gold.Protein.RotatedAtoms>
  150.6971  134.4260  159.5226 H   0  0  0  0  0  0  0  0  0  0  0  0  # atno 6907 bound_to 6896
  152.1995  134.8598  160.0518 H   0  0  0  0  0  0  0  0  0  0  0  0  # atno 6908 bound_to 6896
  151.9523  133.3635  159.4041 H   0  0  0  0  0  0  0  0  0  0  0  0  # atno 6909 bound_to 6896
  145.9542  139.3999  143.0288 H   0  0  0  0  0  0  0  0  0  0  0  0  # atno 7974 bound_to 7965
  155.4792  140.0559  157.2969 H   0  0  0  0  0  0  0  0  0  0  0  0  # atno 8008 bound_to 7997
  154.4667  140.2022  156.0052 H   0  0  0  0  0  0  0  0  0  0  0  0  # atno 8009 bound_to 7997
  156.0986  140.3222  155.7916 H   0  0  0  0  0  0  0  0  0  0  0  0  # atno 8010 bound_to 7997
  140.6569  143.2605  151.4560 H   0  0  0  0  0  0  0  0  0  0  0  0  # atno 10167 bound_to 10162
  156.8585  130.9743  151.3085 H   0  0  0  0  0  0  0  0  0  0  0  0  # atno 10718 bound_to 10713
  153.6326  135.6988  153.5270 H   0  0  0  0  0  0  0  0  0  0  0  0  # atno 10763 bound_to 10752
  153.2847  135.4175  155.1111 H   0  0  0  0  0  0  0  0  0  0  0  0  # atno 10764 bound_to 10752
  154.8518  135.3610  154.5869 H   0  0  0  0  0  0  0  0  0  0  0  0  # atno 10765 bound_to 10752
  140.0217  134.9393  157.0487 H   0  0  0  0  0  0  0  0  0  0  0  0  # atno 11005 bound_to 11000
  145.8130  140.9716  143.0939 LP  0  0  0  0  0  0  0  0  0  0  0  0  # atno 17320 bound_to 7965
  144.6801  139.9945  143.7484 LP  0  0  0  0  0  0  0  0  0  0  0  0  # atno 17321 bound_to 7965
  139.5793  144.1746  152.1946 LP  0  0  0  0  0  0  0  0  0  0  0  0  # atno 17342 bound_to 10162
  140.1066  144.5493  150.6953 LP  0  0  0  0  0  0  0  0  0  0  0  0  # atno 17343 bound_to 10162
  157.6263  130.8694  149.9196 LP  0  0  0  0  0  0  0  0  0  0  0  0  # atno 17370 bound_to 10713
  156.0789  130.3675  150.0620 LP  0  0  0  0  0  0  0  0  0  0  0  0  # atno 17371 bound_to 10713
  140.4376  134.1715  155.7171 LP  0  0  0  0  0  0  0  0  0  0  0  0  # atno 17394 bound_to 11000
  141.1778  133.8478  157.1363 LP  0  0  0  0  0  0  0  0  0  0  0  0  # atno 17395 bound_to 11000

$$$$
