AV-unprocessed.smi:223|AV-procd|sdf|1703|dock8
  -GOLD-   2262020163D 1   1.00000     0.00000
 Structure written by MMmdl.
 47 50  0  0  0  0  0  0  0  0  1 V2000
  151.1000  128.7709  156.7936 C   0  0  0  0  0  0  0  0  0  0  0  0
  151.7692  130.0005  156.1678 C   0  0  2  0  0  0  0  0  0  0  0  0
  151.3012  131.2249  156.8394 C   0  0  0  0  0  0  0  0  0  0  0  0
  150.9332  132.1870  157.3666 N   0  0  0  0  0  0  0  0  0  0  0  0
  151.5373  130.0379  154.6433 C   0  0  0  0  0  0  0  0  0  0  0  0
  150.1311  129.9172  154.2573 N   0  0  0  0  0  0  0  0  0  0  0  0
  149.4221  131.0715  154.1360 C   0  0  0  0  0  0  0  0  0  0  0  0
  149.9334  132.2234  154.6488 N   0  0  0  0  0  0  0  0  0  0  0  0
  149.2468  133.3661  154.5679 C   0  0  0  0  0  0  0  0  0  0  0  0
  148.0503  133.5822  154.0201 N   0  0  0  0  0  0  0  0  0  0  0  0
  147.5341  132.4363  153.4918 C   0  0  0  0  0  0  0  0  0  0  0  0
  148.1459  131.1497  153.5062 C   0  0  0  0  0  0  0  0  0  0  0  0
  147.3208  130.2326  152.8653 N   0  0  0  0  0  0  0  0  0  0  0  0
  146.2791  130.9316  152.5072 C   0  0  0  0  0  0  0  0  0  0  0  0
  146.3279  132.2676  152.8341 N   0  0  0  0  0  0  0  0  0  0  0  0
  145.3115  133.2712  152.5548 C   0  0  0  0  0  0  0  0  0  0  0  0
  144.7887  133.2362  151.0991 C   0  0  1  0  0  0  0  0  0  0  0  0
  144.4592  134.5549  150.6966 O   0  0  0  0  0  0  0  0  0  0  0  0
  145.8085  132.6774  150.1149 C   0  0  0  0  0  0  0  0  0  0  0  0
  144.9295  132.0820  149.0234 C   0  0  0  0  0  0  0  0  0  0  0  0
  143.8636  131.5010  149.7552 O   0  0  0  0  0  0  0  0  0  0  0  0
  143.5584  132.3328  150.8713 C   0  0  0  0  0  0  0  0  0  0  0  0
  149.7848  128.8106  153.3687 C   0  0  0  0  0  0  0  0  0  0  0  0
  148.8285  127.7453  153.8568 C   0  0  0  0  0  0  0  0  0  0  0  0
  150.2974  127.4287  153.6994 C   0  0  0  0  0  0  0  0  0  0  0  0
  151.2843  128.7306  157.8675 H   0  0  0  0  0  0  0  0  0  0  0  0
  151.4845  127.8483  156.3579 H   0  0  0  0  0  0  0  0  0  0  0  0
  150.0204  128.7894  156.6414 H   0  0  0  0  0  0  0  0  0  0  0  0
  152.8391  129.9327  156.3648 H   0  0  0  0  0  0  0  0  0  0  0  0
  151.8940  130.9925  154.2551 H   0  0  0  0  0  0  0  0  0  0  0  0
  152.1512  129.2837  154.1552 H   0  0  0  0  0  0  0  0  0  0  0  0
  149.7233  134.2302  155.0066 H   0  0  0  0  0  0  0  0  0  0  0  0
  145.4429  130.4901  151.9845 H   0  0  0  0  0  0  0  0  0  0  0  0
  144.4883  133.1277  153.2559 H   0  0  0  0  0  0  0  0  0  0  0  0
  145.7319  134.2527  152.7773 H   0  0  0  0  0  0  0  0  0  0  0  0
  144.8977  134.7362  149.8792 H   0  0  0  0  0  0  0  0  0  0  0  0
  146.5135  133.4211  149.7410 H   0  0  0  0  0  0  0  0  0  0  0  0
  146.3855  131.8771  150.5804 H   0  0  0  0  0  0  0  0  0  0  0  0
  144.5409  132.8598  148.3645 H   0  0  0  0  0  0  0  0  0  0  0  0
  145.4513  131.3422  148.4160 H   0  0  0  0  0  0  0  0  0  0  0  0
  143.3570  131.6853  151.7239 H   0  0  0  0  0  0  0  0  0  0  0  0
  142.6520  132.9080  150.6776 H   0  0  0  0  0  0  0  0  0  0  0  0
  149.7202  129.0554  152.3100 H   0  0  0  0  0  0  0  0  0  0  0  0
  148.4402  127.8350  154.8696 H   0  0  0  0  0  0  0  0  0  0  0  0
  148.1402  127.3204  153.1295 H   0  0  0  0  0  0  0  0  0  0  0  0
  150.5883  126.7900  152.8681 H   0  0  0  0  0  0  0  0  0  0  0  0
  150.8826  127.3067  154.6088 H   0  0  0  0  0  0  0  0  0  0  0  0
  1  2  1  0  0  0  0
  1 26  1  0  0  0  0
  1 27  1  0  0  0  0
  1 28  1  0  0  0  0
  2  3  1  0  0  0  0
  2  5  1  0  0  0  0
  2 29  1  0  0  0  0
  3  4  3  0  0  0  0
  5  6  1  0  0  0  0
  5 30  1  0  0  0  0
  5 31  1  0  0  0  0
  6  7  1  0  0  0  0
  6 23  1  0  0  0  0
  7 12  1  0  0  0  0
  7  8  2  0  0  0  0
  8  9  1  0  0  0  0
  9 10  2  0  0  0  0
  9 32  1  0  0  0  0
 10 11  1  0  0  0  0
 11 15  1  0  0  0  0
 11 12  2  0  0  0  0
 12 13  1  0  0  0  0
 13 14  2  0  0  0  0
 14 15  1  0  0  0  0
 14 33  1  0  0  0  0
 15 16  1  0  0  0  0
 16 17  1  0  0  0  0
 16 34  1  0  0  0  0
 16 35  1  0  0  0  0
 17 22  1  0  0  0  0
 17 18  1  0  0  0  0
 17 19  1  0  0  0  0
 18 36  1  0  0  0  0
 19 20  1  0  0  0  0
 19 37  1  0  0  0  0
 19 38  1  0  0  0  0
 20 21  1  0  0  0  0
 20 39  1  0  0  0  0
 20 40  1  0  0  0  0
 21 22  1  0  0  0  0
 22 41  1  0  0  0  0
 22 42  1  0  0  0  0
 23 25  1  0  0  0  0
 23 24  1  0  0  0  0
 23 43  1  0  0  0  0
 24 25  1  0  0  0  0
 24 44  1  0  0  0  0
 24 45  1  0  0  0  0
 25 46  1  0  0  0  0
 25 47  1  0  0  0  0
M  END
> <s_m_source_file>
AV-unprocessed.smi

> <i_m_source_file_index>
223

> <i_lp_mmshare_version>
43012

> <i_f3d_flags>
0

> <s_epik_input>
TiNDW0NAQEhdKFtDSDNdKVtDSDJdTihbQ0hdMVtDSDJdW0NIMl0xKWMobltjSF1uMiljKGMyMyluW2NIXW4zW0NIMl1bQ0BAXTQoW09IXSlbQ0gyXVtDSDJdT1tDSDJdNA==

> <s_epik_cmdline>
J2VwaWtfcHl0aG9uJywgJy1waCcsICc3LjAnLCAnLXRuJywgJzgnLCAnLW1hJywgJzIwMCcsICctbWV0YWxfYmluZGluZycsICctaW1hZScsICc8aW5maWxlLm1hZT4nLCAnLW9tYWUnLCAnPG91dGZpbGUubWFlPic=

> <r_lp_tautomer_probability>
1

> <r_epik_Ionization_Penalty>
0.000756152

> <r_epik_Ionization_Penalty_Charging>
0

> <r_epik_Ionization_Penalty_Neutral>
0.000756152

> <r_epik_State_Penalty>
0.00038036

> <r_epik_Charging_Adjusted_Penalty>
0.00038036

> <i_epik_Tot_Q>
0

> <i_epik_Tot_abs_Q>
0

> <r_epik_Metal_State_Penalty>
-0

> <b_epik_Metal_Only>
0

> <s_lp_Force_Field>
OPLS_2005

> <r_lp_Energy>
37.204

> <b_lp_Chiralities_Consistent>
1

> <s_lp_Variant>
AV-unprocessed.smi:223-1

> <Gold.Version>
5.8.1

> <Gold.Id.Protein>
6NUR|6NUR_protein|mol2

> <Gold.PLP.Fitness>
45.1197

> <Gold.PLP.PLP>
-38.8267

> <Gold.PLP.part.hbond>
-3.0000

> <Gold.PLP.part.metal>
0.0000

> <Gold.PLP.part.buried>
-5.3362

> <Gold.PLP.part.nonpolar>
-31.4948

> <Gold.PLP.part.repulsive>
1.0197

> <Gold.PLP.ligand.clash>
0.0432

> <Gold.PLP.ligand.torsion>
1.4766

> <Gold.PLP.Chemscore.Hbond>
2.6578

> <Gold.PLP.Chemscore.CHOScore>
0.0000

> <Gold.PLP.Chemscore.Metal>
0.0000

> <Gold.Chemscore.Hbonds>
donor molecule, donor type, donor heavy atom, donor atom, acceptor molecule, acceptor atom, score
      P1  H  6896  6908       L1     4  0.52
      P1  H 10785 10796       L1    21  0.77

> <Gold.PLP.Chemscore.Internal.Correction>
1.3159

> <Gold.Rescore>
     Score         DG    S(hbond)    S(metal)    S(lipo)     H(rot)  DE(clash)    DE(int)     intcor
      9.91     -12.23       2.01        0.00      59.88       2.72       0.00       2.32       ----

> <Gold.Chemscore.Fitness>
9.9060

> <Gold.Chemscore.DG>
-12.2330

> <Gold.Chemscore.ZeroCoef>
-5.4800

> <Gold.Chemscore.Hbond>
2.0067

> <Gold.Chemscore.Metal>
0.0000

> <Gold.Chemscore.Lipo>
59.8848

> <Gold.Chemscore.Internal_Hbond>
0.0000

> <Gold.Chemscore.DEClash>
0.0030

> <Gold.Chemscore.DEInternal>
2.3240

> <Gold.Chemscore.Rot>
2.7171

> <Gold.Chemscore.Internal.Correction>
   9.000000E+99

> <Gold.Chemscore.Hbonds>
donor molecule, donor type, donor heavy atom, donor atom, acceptor molecule, acceptor atom, score
      P1  H  6896  6908       L1     4  0.52
      P1  H 10785 10796       L1    21  0.46

> <Gold.Chemscore.Hbond.Weighted>
-6.7023

> <Gold.Chemscore.Metal.Weighted>
-0.0000

> <Gold.Chemscore.Lipo.Weighted>
-7.0065

> <Gold.Chemscore.Internal_Hbond.Weighted>
0.0000

> <Gold.Chemscore.DEClash.Weighted>
0.0030

> <Gold.Chemscore.DEInternal.Weighted>
2.3240

> <Gold.Chemscore.Rot.Weighted>
6.9558

> <Gold.Chemscore.Internal.Correction.Weighted>
   9.000000E+99

> <Gold.Protein.RotatedTorsions>
[ 6907 6896 6895 6894 ] final   87.35 input  -60.11 | X-H torsion
[ 7974 7965 7964 7962 ] final  -39.58 input  175.53 | X-H torsion
[ 8008 7997 7996 7995 ] final -128.72 input   59.86 | X-H torsion
[ 10167 10162 10161 10158 ] final    4.39 input  -65.29 | X-H torsion
[ 10718 10713 10712 10709 ] final  125.79 input   66.30 | X-H torsion
[ 10763 10752 10751 10750 ] final  -69.85 input  -60.55 | X-H torsion
[ 11005 11000 10999 10996 ] final   60.15 input  -57.11 | X-H torsion

> <Gold.Protein.ActiveResidues>
 VAL166  LYS551  ARG553  GLY616  TRP617  ASP618  TYR619  PRO620  LYS621  CYS622 
 ASP623  PHE694  ASN695  SER759  ASP760  ASP761  ALA762  ILE779  LEU786  VAL792 
 PHE793  MET794  SER795  GLU796  ALA797  LYS798  CYS799  TRP800  GLU811  SER814 

> <Gold.Protein.RotatedAtoms>
  152.5410  134.2289  159.8816 H   0  0  0  0  0  0  0  0  0  0  0  0  # atno 6907 bound_to 6896
  151.2262  133.4468  159.2610 H   0  0  0  0  0  0  0  0  0  0  0  0  # atno 6908 bound_to 6896
  151.0758  134.9841  159.8387 H   0  0  0  0  0  0  0  0  0  0  0  0  # atno 6909 bound_to 6896
  146.0384  140.6641  142.9099 H   0  0  0  0  0  0  0  0  0  0  0  0  # atno 7974 bound_to 7965
  155.2673  140.0438  157.3003 H   0  0  0  0  0  0  0  0  0  0  0  0  # atno 8008 bound_to 7997
  154.5674  140.2364  155.8211 H   0  0  0  0  0  0  0  0  0  0  0  0  # atno 8009 bound_to 7997
  156.2096  140.3002  155.9711 H   0  0  0  0  0  0  0  0  0  0  0  0  # atno 8010 bound_to 7997
  140.6537  143.7481  150.7617 H   0  0  0  0  0  0  0  0  0  0  0  0  # atno 10167 bound_to 10162
  157.5474  131.1095  150.8760 H   0  0  0  0  0  0  0  0  0  0  0  0  # atno 10718 bound_to 10713
  154.4093  135.6012  153.5943 H   0  0  0  0  0  0  0  0  0  0  0  0  # atno 10763 bound_to 10752
  152.9790  135.5925  154.4089 H   0  0  0  0  0  0  0  0  0  0  0  0  # atno 10764 bound_to 10752
  154.3899  135.2842  155.2139 H   0  0  0  0  0  0  0  0  0  0  0  0  # atno 10765 bound_to 10752
  140.0252  134.6093  155.9583 H   0  0  0  0  0  0  0  0  0  0  0  0  # atno 11005 bound_to 11000
  144.7062  140.3862  143.7116 LP  0  0  0  0  0  0  0  0  0  0  0  0  # atno 17320 bound_to 7965
  145.6926  139.1642  143.2638 LP  0  0  0  0  0  0  0  0  0  0  0  0  # atno 17321 bound_to 7965
  140.1137  143.4676  152.2355 LP  0  0  0  0  0  0  0  0  0  0  0  0  # atno 17342 bound_to 10162
  139.5756  144.7485  151.3775 LP  0  0  0  0  0  0  0  0  0  0  0  0  # atno 17343 bound_to 10162
  156.9295  130.5344  149.5279 LP  0  0  0  0  0  0  0  0  0  0  0  0  # atno 17370 bound_to 10713
  156.0547  130.5610  150.9065 LP  0  0  0  0  0  0  0  0  0  0  0  0  # atno 17371 bound_to 10713
  141.1798  133.6545  156.4975 LP  0  0  0  0  0  0  0  0  0  0  0  0  # atno 17394 bound_to 11000
  140.4318  134.7094  157.4946 LP  0  0  0  0  0  0  0  0  0  0  0  0  # atno 17395 bound_to 11000

$$$$
