AV-unprocessed.smi:33|AV-procd|sdf|211|dock10
  -GOLD-   2262015513D 1   1.00000     0.00000
 Structure written by MMmdl.
 67 72  0  0  0  0  0  0  0  0  1 V2000
  151.5232  140.5623  156.9104 O   0  0  0  0  0  0  0  0  0  0  0  0
  150.9526  141.6395  157.0935 C   0  0  0  0  0  0  0  0  0  0  0  0
  149.8553  142.0267  156.4141 O   0  0  0  0  0  0  0  0  0  0  0  0
  149.5238  141.3980  155.1867 C   0  0  0  0  0  0  0  0  0  0  0  0
  148.5005  140.2793  155.4416 C   0  0  2  0  0  0  0  0  0  0  0  0
  148.9553  139.4738  156.5194 O   0  0  0  0  0  0  0  0  0  0  0  0
  149.7600  138.4413  156.0358 C   0  0  1  0  0  0  0  0  0  0  0  0
  149.3906  137.2105  156.7932 N   0  0  0  0  0  0  0  0  0  0  0  0
  150.2151  136.3546  157.4914 C   0  0  0  0  0  0  0  0  0  0  0  0
  149.6170  135.3393  158.0545 N   0  0  0  0  0  0  0  0  0  0  0  0
  148.2809  135.5066  157.7136 C   0  0  0  0  0  0  0  0  0  0  0  0
  147.0927  134.7752  157.9799 C   0  0  0  0  0  0  0  0  0  0  0  0
  147.0782  133.6410  158.7182 N   0  0  0  0  0  0  0  0  0  0  0  0
  147.0658  133.7978  160.1800 C   0  0  0  0  0  0  0  0  0  0  0  0
  147.4995  132.8902  160.8924 O   0  0  0  0  0  0  0  0  0  0  0  0
  146.5723  135.0708  160.8075 C   0  0  0  0  0  0  0  0  0  0  0  0
  147.2093  135.5837  161.9587 C   0  0  0  0  0  0  0  0  0  0  0  0
  146.7424  136.7686  162.5600 C   0  0  0  0  0  0  0  0  0  0  0  0
  145.6248  137.4375  162.0256 C   0  0  0  0  0  0  0  0  0  0  0  0
  144.9676  136.9159  160.8952 C   0  0  0  0  0  0  0  0  0  0  0  0
  145.4339  135.7316  160.2929 C   0  0  0  0  0  0  0  0  0  0  0  0
  147.0754  132.3637  157.9897 C   0  0  0  0  0  0  0  0  0  0  0  0
  146.6229  131.3550  158.5348 O   0  0  0  0  0  0  0  0  0  0  0  0
  147.5661  132.2899  156.5713 C   0  0  0  0  0  0  0  0  0  0  0  0
  146.8755  131.5000  155.6261 C   0  0  0  0  0  0  0  0  0  0  0  0
  147.3368  131.4155  154.2982 C   0  0  0  0  0  0  0  0  0  0  0  0
  148.5019  132.1046  153.9117 C   0  0  0  0  0  0  0  0  0  0  0  0
  149.2112  132.8713  154.8557 C   0  0  0  0  0  0  0  0  0  0  0  0
  148.7502  132.9570  156.1837 C   0  0  0  0  0  0  0  0  0  0  0  0
  145.9261  135.2429  157.4647 N   0  0  0  0  0  0  0  0  0  0  0  0
  145.9247  136.3626  156.7349 C   0  0  0  0  0  0  0  0  0  0  0  0
  146.9538  137.1484  156.4077 N   0  0  0  0  0  0  0  0  0  0  0  0
  148.1270  136.6770  156.9214 C   0  0  0  0  0  0  0  0  0  0  0  0
  149.4537  138.2599  154.5384 C   0  0  2  0  0  0  0  0  0  0  0  0
  150.5807  138.5309  153.7297 O   0  0  0  0  0  0  0  0  0  0  0  0
  148.3602  139.2890  154.2846 C   0  0  1  0  0  0  0  0  0  0  0  0
  147.1679  138.6951  154.3566 F   0  0  0  0  0  0  0  0  0  0  0  0
  151.4064  142.6515  158.0907 C   0  0  0  0  0  0  0  0  0  0  0  0
  151.3227  144.0263  157.7691 C   0  0  0  0  0  0  0  0  0  0  0  0
  151.7458  145.0058  158.6885 C   0  0  0  0  0  0  0  0  0  0  0  0
  152.2595  144.6219  159.9408 C   0  0  0  0  0  0  0  0  0  0  0  0
  152.3484  143.2575  160.2731 C   0  0  0  0  0  0  0  0  0  0  0  0
  151.9241  142.2767  159.3553 C   0  0  0  0  0  0  0  0  0  0  0  0
  149.1344  142.1273  154.4754 H   0  0  0  0  0  0  0  0  0  0  0  0
  150.4310  140.9747  154.7535 H   0  0  0  0  0  0  0  0  0  0  0  0
  147.5399  140.7238  155.7056 H   0  0  0  0  0  0  0  0  0  0  0  0
  150.8120  138.6274  156.2562 H   0  0  0  0  0  0  0  0  0  0  0  0
  151.2817  136.5074  157.5682 H   0  0  0  0  0  0  0  0  0  0  0  0
  148.0678  135.0789  162.3773 H   0  0  0  0  0  0  0  0  0  0  0  0
  147.2415  137.1630  163.4328 H   0  0  0  0  0  0  0  0  0  0  0  0
  145.2674  138.3463  162.4871 H   0  0  0  0  0  0  0  0  0  0  0  0
  144.1046  137.4233  160.4902 H   0  0  0  0  0  0  0  0  0  0  0  0
  144.9182  135.3380  159.4288 H   0  0  0  0  0  0  0  0  0  0  0  0
  145.9797  130.9675  155.9116 H   0  0  0  0  0  0  0  0  0  0  0  0
  146.7966  130.8210  153.5765 H   0  0  0  0  0  0  0  0  0  0  0  0
  148.8553  132.0394  152.8932 H   0  0  0  0  0  0  0  0  0  0  0  0
  150.1099  133.3930  154.5619 H   0  0  0  0  0  0  0  0  0  0  0  0
  149.3054  133.5445  156.9007 H   0  0  0  0  0  0  0  0  0  0  0  0
  144.9612  136.6728  156.3584 H   0  0  0  0  0  0  0  0  0  0  0  0
  149.1126  137.2458  154.3224 H   0  0  0  0  0  0  0  0  0  0  0  0
  150.2861  138.9515  152.9361 H   0  0  0  0  0  0  0  0  0  0  0  0
  148.4138  139.7584  153.3011 H   0  0  0  0  0  0  0  0  0  0  0  0
  150.9320  144.3455  156.8136 H   0  0  0  0  0  0  0  0  0  0  0  0
  151.6762  146.0524  158.4314 H   0  0  0  0  0  0  0  0  0  0  0  0
  152.5851  145.3729  160.6454 H   0  0  0  0  0  0  0  0  0  0  0  0
  152.7435  142.9619  161.2338 H   0  0  0  0  0  0  0  0  0  0  0  0
  152.0079  141.2384  159.6418 H   0  0  0  0  0  0  0  0  0  0  0  0
  1  2  2  0  0  0  0
  2  3  1  0  0  0  0
  2 38  1  0  0  0  0
  3  4  1  0  0  0  0
  4  5  1  0  0  0  0
  4 44  1  0  0  0  0
  4 45  1  0  0  0  0
  5 36  1  0  0  0  0
  5  6  1  0  0  0  0
  5 46  1  0  0  0  0
  6  7  1  0  0  0  0
  7  8  1  0  0  0  0
  7 34  1  0  0  0  0
  7 47  1  0  0  0  0
  8 33  1  0  0  0  0
  8  9  1  0  0  0  0
  9 10  2  0  0  0  0
  9 48  1  0  0  0  0
 10 11  1  0  0  0  0
 11 33  2  0  0  0  0
 11 12  1  0  0  0  0
 12 13  1  0  0  0  0
 12 30  2  0  0  0  0
 13 14  1  0  0  0  0
 13 22  1  0  0  0  0
 14 15  2  0  0  0  0
 14 16  1  0  0  0  0
 16 21  1  0  0  0  0
 16 17  2  0  0  0  0
 17 18  1  0  0  0  0
 17 49  1  0  0  0  0
 18 19  2  0  0  0  0
 18 50  1  0  0  0  0
 19 20  1  0  0  0  0
 19 51  1  0  0  0  0
 20 21  2  0  0  0  0
 20 52  1  0  0  0  0
 21 53  1  0  0  0  0
 22 23  2  0  0  0  0
 22 24  1  0  0  0  0
 24 29  1  0  0  0  0
 24 25  2  0  0  0  0
 25 26  1  0  0  0  0
 25 54  1  0  0  0  0
 26 27  2  0  0  0  0
 26 55  1  0  0  0  0
 27 28  1  0  0  0  0
 27 56  1  0  0  0  0
 28 29  2  0  0  0  0
 28 57  1  0  0  0  0
 29 58  1  0  0  0  0
 30 31  1  0  0  0  0
 31 32  2  0  0  0  0
 31 59  1  0  0  0  0
 32 33  1  0  0  0  0
 34 35  1  0  0  0  0
 34 36  1  0  0  0  0
 34 60  1  0  0  0  0
 35 61  1  0  0  0  0
 36 37  1  0  0  0  0
 36 62  1  0  0  0  0
 38 43  1  0  0  0  0
 38 39  2  0  0  0  0
 39 40  1  0  0  0  0
 39 63  1  0  0  0  0
 40 41  2  0  0  0  0
 40 64  1  0  0  0  0
 41 42  1  0  0  0  0
 41 65  1  0  0  0  0
 42 43  2  0  0  0  0
 42 66  1  0  0  0  0
 43 67  1  0  0  0  0
M  END
> <s_m_source_file>
AV-unprocessed.smi

> <i_m_source_file_index>
33

> <i_lp_mmshare_version>
43012

> <i_f3d_flags>
0

> <s_epik_input>
W2NIXTFbY0hdW2NIXVtjSF1bY0hdYzFDKD1PKU9bQ0gyXVtDQEBIXTJPW0NASF0oW0NAQEhdKFtPSF0pW0NAQEhdMkYpbihbY0hdbjMpYyhjMzQpbltjSF1uYzROKEMoPU8pYzVbY0hdW2NIXVtjSF1bY0hdW2NIXTUpQyg9TyljNltjSF1bY0hdW2NIXVtjSF1bY0hdNg==

> <s_epik_cmdline>
J2VwaWtfcHl0aG9uJywgJy1waCcsICc3LjAnLCAnLXRuJywgJzgnLCAnLW1hJywgJzIwMCcsICctbWV0YWxfYmluZGluZycsICctaW1hZScsICc8aW5maWxlLm1hZT4nLCAnLW9tYWUnLCAnPG91dGZpbGUubWFlPic=

> <r_lp_tautomer_probability>
1

> <r_epik_Ionization_Penalty>
0.00067664

> <r_epik_Ionization_Penalty_Charging>
0

> <r_epik_Ionization_Penalty_Neutral>
0.00067664

> <r_epik_State_Penalty>
0.000428095

> <r_epik_Charging_Adjusted_Penalty>
0.000428095

> <i_epik_Tot_Q>
0

> <i_epik_Tot_abs_Q>
0

> <r_epik_Metal_State_Penalty>
-0

> <b_epik_Metal_Only>
0

> <s_epik_Chemistry_Notes>
This compound has an ester and may undergo hydrolysis at high or low pH. This compound contains an acetal/aminal-like group ( X-CH(R)-Y where X, Y are N, S, or O) that may be acid/base labile, releasing an aldehyde.

> <s_lp_Force_Field>
OPLS_2005

> <r_lp_Energy>
69.3236

> <b_lp_Chiralities_Consistent>
1

> <s_lp_Variant>
AV-unprocessed.smi:33-13

> <Gold.Version>
5.8.1

> <Gold.Id.Protein>
6NUR|6NUR_protein|mol2

> <Gold.PLP.Fitness>
55.0029

> <Gold.PLP.PLP>
-54.0300

> <Gold.PLP.part.hbond>
-2.2485

> <Gold.PLP.part.metal>
0.0000

> <Gold.PLP.part.buried>
-7.0965

> <Gold.PLP.part.nonpolar>
-45.3791

> <Gold.PLP.part.repulsive>
0.8104

> <Gold.PLP.ligand.clash>
0.0000

> <Gold.PLP.ligand.torsion>
4.3642

> <Gold.PLP.Chemscore.Hbond>
1.8800

> <Gold.PLP.Chemscore.CHOScore>
0.0000

> <Gold.PLP.Chemscore.Metal>
0.0000

> <Gold.Chemscore.Hbonds>
donor molecule, donor type, donor heavy atom, donor atom, acceptor molecule, acceptor atom, score
      L1  H    35    61       P1  7957  0.65
      P1  H  6896  6908       L1    10  0.99

> <Gold.PLP.Chemscore.Internal.Correction>
4.0613

> <Gold.Rescore>
     Score         DG    S(hbond)    S(metal)    S(lipo)     H(rot)  DE(clash)    DE(int)     intcor
      7.72     -22.77       1.78        0.00     152.25       2.52       0.23      14.82       ----

> <Gold.Chemscore.Fitness>
7.7179

> <Gold.Chemscore.DG>
-22.7685

> <Gold.Chemscore.ZeroCoef>
-5.4800

> <Gold.Chemscore.Hbond>
1.7781

> <Gold.Chemscore.Metal>
0.0000

> <Gold.Chemscore.Lipo>
152.2461

> <Gold.Chemscore.Internal_Hbond>
0.0000

> <Gold.Chemscore.DEClash>
0.2274

> <Gold.Chemscore.DEInternal>
14.8231

> <Gold.Chemscore.Rot>
2.5247

> <Gold.Chemscore.Internal.Correction>
   9.000000E+99

> <Gold.Chemscore.Hbonds>
donor molecule, donor type, donor heavy atom, donor atom, acceptor molecule, acceptor atom, score
      L1  H    35    61       P1  7957  0.39
      P1  H  6896  6908       L1    10  0.86

> <Gold.Chemscore.Hbond.Weighted>
-5.9390

> <Gold.Chemscore.Metal.Weighted>
-0.0000

> <Gold.Chemscore.Lipo.Weighted>
-17.8128

> <Gold.Chemscore.Internal_Hbond.Weighted>
0.0000

> <Gold.Chemscore.DEClash.Weighted>
0.2274

> <Gold.Chemscore.DEInternal.Weighted>
14.8231

> <Gold.Chemscore.Rot.Weighted>
6.4633

> <Gold.Chemscore.Internal.Correction.Weighted>
   9.000000E+99

> <Gold.Protein.RotatedTorsions>
[ 6907 6896 6895 6894 ] final  150.35 input  -60.11 | X-H torsion
[ 7974 7965 7964 7962 ] final -137.10 input  175.53 | X-H torsion
[ 8008 7997 7996 7995 ] final -143.53 input   59.86 | X-H torsion
[ 10167 10162 10161 10158 ] final -114.43 input  -65.29 | X-H torsion
[ 10718 10713 10712 10709 ] final  -91.74 input   66.30 | X-H torsion
[ 10763 10752 10751 10750 ] final -119.83 input  -60.55 | X-H torsion
[ 11005 11000 10999 10996 ] final   51.60 input  -57.11 | X-H torsion

> <Gold.Protein.ActiveResidues>
 VAL166  LYS551  ARG553  GLY616  TRP617  ASP618  TYR619  PRO620  LYS621  CYS622 
 ASP623  PHE694  ASN695  SER759  ASP760  ASP761  ALA762  ILE779  LEU786  VAL792 
 PHE793  MET794  SER795  GLU796  ALA797  LYS798  CYS799  TRP800  GLU811  SER814 

> <Gold.Protein.RotatedAtoms>
  152.1156  133.4325  159.4651 H   0  0  0  0  0  0  0  0  0  0  0  0  # atno 6907 bound_to 6896
  150.6869  134.2596  159.4553 H   0  0  0  0  0  0  0  0  0  0  0  0  # atno 6908 bound_to 6896
  152.0468  134.9677  160.0625 H   0  0  0  0  0  0  0  0  0  0  0  0  # atno 6909 bound_to 6896
  144.8870  140.6589  143.5169 H   0  0  0  0  0  0  0  0  0  0  0  0  # atno 7974 bound_to 7965
  155.5122  140.0584  157.2921 H   0  0  0  0  0  0  0  0  0  0  0  0  # atno 8008 bound_to 7997
  154.4548  140.1967  156.0360 H   0  0  0  0  0  0  0  0  0  0  0  0  # atno 8009 bound_to 7997
  156.0777  140.3251  155.7658 H   0  0  0  0  0  0  0  0  0  0  0  0  # atno 8010 bound_to 7997
  140.1011  143.4612  152.1811 H   0  0  0  0  0  0  0  0  0  0  0  0  # atno 10167 bound_to 10162
  155.9996  130.4960  150.5521 H   0  0  0  0  0  0  0  0  0  0  0  0  # atno 10718 bound_to 10713
  154.8628  135.4224  154.2362 H   0  0  0  0  0  0  0  0  0  0  0  0  # atno 10763 bound_to 10752
  153.3336  135.6989  153.6932 H   0  0  0  0  0  0  0  0  0  0  0  0  # atno 10764 bound_to 10752
  153.5938  135.3549  155.2894 H   0  0  0  0  0  0  0  0  0  0  0  0  # atno 10765 bound_to 10752
  140.0919  134.5198  155.8844 H   0  0  0  0  0  0  0  0  0  0  0  0  # atno 11005 bound_to 11000
  145.3851  139.1628  143.4259 LP  0  0  0  0  0  0  0  0  0  0  0  0  # atno 17320 bound_to 7965
  146.3030  140.3935  142.8697 LP  0  0  0  0  0  0  0  0  0  0  0  0  # atno 17321 bound_to 7965
  139.5671  144.7441  151.3993 LP  0  0  0  0  0  0  0  0  0  0  0  0  # atno 17342 bound_to 10162
  140.6977  143.7708  150.7353 LP  0  0  0  0  0  0  0  0  0  0  0  0  # atno 17343 bound_to 10162
  157.3442  131.0722  151.1764 LP  0  0  0  0  0  0  0  0  0  0  0  0  # atno 17370 bound_to 10713
  157.2602  130.6655  149.5971 LP  0  0  0  0  0  0  0  0  0  0  0  0  # atno 17371 bound_to 10713
  141.2080  133.6670  156.6345 LP  0  0  0  0  0  0  0  0  0  0  0  0  # atno 17394 bound_to 11000
  140.3340  134.7904  157.4348 LP  0  0  0  0  0  0  0  0  0  0  0  0  # atno 17395 bound_to 11000

$$$$
