AV-unprocessed.smi:320|AV-procd|sdf|2333|dock2
  -GOLD-   2262022233D 1   1.00000     0.00000
 Structure written by MMmdl.
 49 52  0  0  0  0  0  0  0  0  1 V2000
  151.4110  139.0518  154.7165 C   0  0  0  0  0  0  0  0  0  0  0  0
  150.4881  139.8129  155.6880 C   0  0  1  0  0  0  0  0  0  0  0  0
  151.1855  141.0285  156.1122 N   0  0  0  0  0  0  0  0  0  0  0  0
  150.8681  141.8006  157.1632 C   0  0  0  0  0  0  0  0  0  0  0  0
  149.9403  141.5530  157.9342 O   0  0  0  0  0  0  0  0  0  0  0  0
  151.7495  143.0386  157.3763 C   0  0  0  0  0  0  0  0  0  0  0  0
  151.8832  143.4084  158.7950 N   0  0  0  0  0  0  0  0  0  0  0  0
  151.4962  144.7135  159.1599 C   0  0  0  0  0  0  0  0  0  0  0  0
  151.5837  145.1523  160.4256 C   0  0  0  0  0  0  0  0  0  0  0  0
  152.0905  144.2462  161.4287 C   0  0  0  0  0  0  0  0  0  0  0  0
  152.4653  142.9964  161.0903 C   0  0  0  0  0  0  0  0  0  0  0  0
  152.3725  142.5126  159.7078 C   0  0  0  0  0  0  0  0  0  0  0  0
  152.7138  141.3727  159.3896 O   0  0  0  0  0  0  0  0  0  0  0  0
  149.0608  140.1402  155.1402 C   0  0  0  0  0  0  0  0  0  0  0  0
  149.0368  141.4501  154.3001 C   0  0  0  0  0  0  0  0  0  0  0  0
  147.6084  141.7442  153.7914 C   0  0  2  0  0  0  0  0  0  0  0  0
  146.6543  141.9153  154.9912 C   0  0  0  0  0  0  0  0  0  0  0  0
  146.6402  140.6123  155.8161 C   0  0  1  0  0  0  0  0  0  0  0  0
  146.1503  139.4437  154.9389 C   0  0  0  0  0  0  0  0  0  0  0  0
  147.1057  139.2804  153.7406 C   0  0  1  0  0  0  0  0  0  0  0  0
  147.1213  140.5780  152.9064 C   0  0  0  0  0  0  0  0  0  0  0  0
  148.5314  138.9792  154.2497 C   0  0  0  0  0  0  0  0  0  0  0  0
  148.0647  140.3130  156.3264 C   0  0  0  0  0  0  0  0  0  0  0  0
  151.0050  138.0798  154.4405 H   0  0  0  0  0  0  0  0  0  0  0  0
  152.3800  138.8621  155.1796 H   0  0  0  0  0  0  0  0  0  0  0  0
  151.5965  139.6144  153.8017 H   0  0  0  0  0  0  0  0  0  0  0  0
  150.3543  139.1575  156.5504 H   0  0  0  0  0  0  0  0  0  0  0  0
  151.9667  141.3171  155.5415 H   0  0  0  0  0  0  0  0  0  0  0  0
  152.7264  142.8375  156.9348 H   0  0  0  0  0  0  0  0  0  0  0  0
  151.3475  143.8814  156.8101 H   0  0  0  0  0  0  0  0  0  0  0  0
  151.1351  145.3309  158.3500 H   0  0  0  0  0  0  0  0  0  0  0  0
  151.2874  146.1578  160.6860 H   0  0  0  0  0  0  0  0  0  0  0  0
  152.1716  144.5726  162.4552 H   0  0  0  0  0  0  0  0  0  0  0  0
  152.8437  142.3334  161.8542 H   0  0  0  0  0  0  0  0  0  0  0  0
  149.3912  142.2948  154.8918 H   0  0  0  0  0  0  0  0  0  0  0  0
  149.7097  141.3722  153.4463 H   0  0  0  0  0  0  0  0  0  0  0  0
  147.6173  142.6628  153.2041 H   0  0  0  0  0  0  0  0  0  0  0  0
  146.9741  142.7531  155.6122 H   0  0  0  0  0  0  0  0  0  0  0  0
  145.6483  142.1541  154.6440 H   0  0  0  0  0  0  0  0  0  0  0  0
  145.9690  140.7310  156.6673 H   0  0  0  0  0  0  0  0  0  0  0  0
  146.1126  138.5223  155.5216 H   0  0  0  0  0  0  0  0  0  0  0  0
  145.1337  139.6314  154.5908 H   0  0  0  0  0  0  0  0  0  0  0  0
  146.7632  138.4544  153.1165 H   0  0  0  0  0  0  0  0  0  0  0  0
  146.1245  140.7892  152.5175 H   0  0  0  0  0  0  0  0  0  0  0  0
  147.7728  140.4630  152.0391 H   0  0  0  0  0  0  0  0  0  0  0  0
  149.1781  138.8246  153.3865 H   0  0  0  0  0  0  0  0  0  0  0  0
  148.5359  138.0419  154.8079 H   0  0  0  0  0  0  0  0  0  0  0  0
  148.0546  139.4139  156.9441 H   0  0  0  0  0  0  0  0  0  0  0  0
  148.3761  141.1258  156.9831 H   0  0  0  0  0  0  0  0  0  0  0  0
  1  2  1  0  0  0  0
  1 24  1  0  0  0  0
  1 25  1  0  0  0  0
  1 26  1  0  0  0  0
  2  3  1  0  0  0  0
  2 14  1  0  0  0  0
  2 27  1  0  0  0  0
  3  4  1  0  0  0  0
  3 28  1  0  0  0  0
  4  5  2  0  0  0  0
  4  6  1  0  0  0  0
  6  7  1  0  0  0  0
  6 29  1  0  0  0  0
  6 30  1  0  0  0  0
  7 12  1  0  0  0  0
  7  8  1  0  0  0  0
  8  9  2  0  0  0  0
  8 31  1  0  0  0  0
  9 10  1  0  0  0  0
  9 32  1  0  0  0  0
 10 11  2  0  0  0  0
 10 33  1  0  0  0  0
 11 12  1  0  0  0  0
 11 34  1  0  0  0  0
 12 13  2  0  0  0  0
 14 22  1  0  0  0  0
 14 23  1  0  0  0  0
 14 15  1  0  0  0  0
 15 16  1  0  0  0  0
 15 35  1  0  0  0  0
 15 36  1  0  0  0  0
 16 21  1  0  0  0  0
 16 17  1  0  0  0  0
 16 37  1  0  0  0  0
 17 18  1  0  0  0  0
 17 38  1  0  0  0  0
 17 39  1  0  0  0  0
 18 19  1  0  0  0  0
 18 23  1  0  0  0  0
 18 40  1  0  0  0  0
 19 20  1  0  0  0  0
 19 41  1  0  0  0  0
 19 42  1  0  0  0  0
 20 21  1  0  0  0  0
 20 22  1  0  0  0  0
 20 43  1  0  0  0  0
 21 44  1  0  0  0  0
 21 45  1  0  0  0  0
 22 46  1  0  0  0  0
 22 47  1  0  0  0  0
 23 48  1  0  0  0  0
 23 49  1  0  0  0  0
M  END
> <s_m_source_file>
AV-unprocessed.smi

> <i_m_source_file_index>
320

> <i_lp_mmshare_version>
43012

> <i_f3d_flags>
0

> <s_epik_input>
W0NIMl0xW0NAQEhdKFtDSDJdMilbQ0gyXVtDQEBIXShbQ0gyXTMpW0NIMl1bQ0BIXTFbQ0gyXUMyM1tDQEhdKFtDSDNdKVtOSF1DKD1PKVtDSDJdbjRbY0hdW2NIXVtjSF1bY0hdYzQ9Tw==

> <s_epik_cmdline>
J2VwaWtfcHl0aG9uJywgJy1waCcsICc3LjAnLCAnLXRuJywgJzgnLCAnLW1hJywgJzIwMCcsICctbWV0YWxfYmluZGluZycsICctaW1hZScsICc8aW5maWxlLm1hZT4nLCAnLW9tYWUnLCAnPG91dGZpbGUubWFlPic=

> <r_lp_tautomer_probability>
1

> <r_epik_Ionization_Penalty>
4.15949e-07

> <r_epik_Ionization_Penalty_Charging>
3.97363e-07

> <r_epik_Ionization_Penalty_Neutral>
1.85865e-08

> <r_epik_State_Penalty>
-0

> <r_epik_Charging_Adjusted_Penalty>
3.97363e-07

> <i_epik_Tot_Q>
0

> <i_epik_Tot_abs_Q>
0

> <r_epik_Metal_State_Penalty>
-0

> <b_epik_Metal_Only>
0

> <s_lp_Force_Field>
OPLS_2005

> <r_lp_Energy>
45.3355

> <b_lp_Chiralities_Consistent>
1

> <s_lp_Variant>
AV-unprocessed.smi:320-2

> <Gold.Version>
5.8.1

> <Gold.Id.Protein>
6NUR|6NUR_protein|mol2

> <Gold.PLP.Fitness>
45.4540

> <Gold.PLP.PLP>
-47.8603

> <Gold.PLP.part.hbond>
0.0000

> <Gold.PLP.part.metal>
0.0000

> <Gold.PLP.part.buried>
-5.4278

> <Gold.PLP.part.nonpolar>
-42.5166

> <Gold.PLP.part.repulsive>
0.1853

> <Gold.PLP.ligand.clash>
0.0000

> <Gold.PLP.ligand.torsion>
1.2233

> <Gold.PLP.Chemscore.Hbond>
0.0000

> <Gold.PLP.Chemscore.CHOScore>
0.0000

> <Gold.PLP.Chemscore.Metal>
0.0000

> <Gold.PLP.Chemscore.Internal.Correction>
0.0402

> <Gold.Rescore>
     Score         DG    S(hbond)    S(metal)    S(lipo)     H(rot)  DE(clash)    DE(int)     intcor
     11.82     -15.84       0.00        0.00     121.78       1.52       1.48       2.54       ----

> <Gold.Chemscore.Fitness>
11.8192

> <Gold.Chemscore.DG>
-15.8369

> <Gold.Chemscore.ZeroCoef>
-5.4800

> <Gold.Chemscore.Hbond>
0.0000

> <Gold.Chemscore.Metal>
0.0000

> <Gold.Chemscore.Lipo>
121.7819

> <Gold.Chemscore.Internal_Hbond>
0.0000

> <Gold.Chemscore.DEClash>
1.4810

> <Gold.Chemscore.DEInternal>
2.5366

> <Gold.Chemscore.Rot>
1.5202

> <Gold.Chemscore.Internal.Correction>
   9.000000E+99

> <Gold.Chemscore.Hbond.Weighted>
-0.0000

> <Gold.Chemscore.Metal.Weighted>
-0.0000

> <Gold.Chemscore.Lipo.Weighted>
-14.2485

> <Gold.Chemscore.Internal_Hbond.Weighted>
0.0000

> <Gold.Chemscore.DEClash.Weighted>
1.4810

> <Gold.Chemscore.DEInternal.Weighted>
2.5366

> <Gold.Chemscore.Rot.Weighted>
3.8916

> <Gold.Chemscore.Internal.Correction.Weighted>
   9.000000E+99

> <Gold.Protein.RotatedTorsions>
[ 6907 6896 6895 6894 ] final   41.88 input  -60.11 | X-H torsion
[ 7974 7965 7964 7962 ] final   69.46 input  175.53 | X-H torsion
[ 8008 7997 7996 7995 ] final   54.09 input   59.86 | X-H torsion
[ 10167 10162 10161 10158 ] final  -20.62 input  -65.29 | X-H torsion
[ 10718 10713 10712 10709 ] final -143.93 input   66.30 | X-H torsion
[ 10763 10752 10751 10750 ] final   81.39 input  -60.55 | X-H torsion
[ 11005 11000 10999 10996 ] final  110.83 input  -57.11 | X-H torsion

> <Gold.Protein.ActiveResidues>
 VAL166  LYS551  ARG553  GLY616  TRP617  ASP618  TYR619  PRO620  LYS621  CYS622 
 ASP623  PHE694  ASN695  SER759  ASP760  ASP761  ALA762  ILE779  LEU786  VAL792 
 PHE793  MET794  SER795  GLU796  ALA797  LYS798  CYS799  TRP800  GLU811  SER814 

> <Gold.Protein.RotatedAtoms>
  152.2008  134.8589  160.0507 H   0  0  0  0  0  0  0  0  0  0  0  0  # atno 6907 bound_to 6896
  151.9443  133.3642  159.3985 H   0  0  0  0  0  0  0  0  0  0  0  0  # atno 6908 bound_to 6896
  150.6954  134.4331  159.5301 H   0  0  0  0  0  0  0  0  0  0  0  0  # atno 6909 bound_to 6896
  145.7902  139.2930  143.1215 H   0  0  0  0  0  0  0  0  0  0  0  0  # atno 7974 bound_to 7965
  155.4790  140.3468  155.4337 H   0  0  0  0  0  0  0  0  0  0  0  0  # atno 8008 bound_to 7997
  156.1051  140.1446  156.9443 H   0  0  0  0  0  0  0  0  0  0  0  0  # atno 8009 bound_to 7997
  154.4719  140.0898  156.7145 H   0  0  0  0  0  0  0  0  0  0  0  0  # atno 8010 bound_to 7997
  140.7277  143.4705  151.0253 H   0  0  0  0  0  0  0  0  0  0  0  0  # atno 10167 bound_to 10162
  156.3639  130.7753  151.1924 H   0  0  0  0  0  0  0  0  0  0  0  0  # atno 10718 bound_to 10713
  153.1113  135.4767  154.9040 H   0  0  0  0  0  0  0  0  0  0  0  0  # atno 10763 bound_to 10752
  154.7483  135.3099  154.8606 H   0  0  0  0  0  0  0  0  0  0  0  0  # atno 10764 bound_to 10752
  153.9194  135.6856  153.4802 H   0  0  0  0  0  0  0  0  0  0  0  0  # atno 10765 bound_to 10752
  139.8890  134.9493  156.6339 H   0  0  0  0  0  0  0  0  0  0  0  0  # atno 11005 bound_to 11000
  145.9985  140.8541  143.0031 LP  0  0  0  0  0  0  0  0  0  0  0  0  # atno 17320 bound_to 7965
  144.6783  140.2317  143.7354 LP  0  0  0  0  0  0  0  0  0  0  0  0  # atno 17321 bound_to 7965
  139.8397  143.7580  152.3180 LP  0  0  0  0  0  0  0  0  0  0  0  0  # atno 17342 bound_to 10162
  139.7725  144.7472  151.0204 LP  0  0  0  0  0  0  0  0  0  0  0  0  # atno 17343 bound_to 10162
  157.7476  131.0392  150.4539 LP  0  0  0  0  0  0  0  0  0  0  0  0  # atno 17370 bound_to 10713
  156.4754  130.4062  149.6493 LP  0  0  0  0  0  0  0  0  0  0  0  0  # atno 17371 bound_to 10713
  140.7645  133.8789  155.8444 LP  0  0  0  0  0  0  0  0  0  0  0  0  # atno 17394 bound_to 11000
  140.9894  134.1299  157.4422 LP  0  0  0  0  0  0  0  0  0  0  0  0  # atno 17395 bound_to 11000

$$$$
