AV-unprocessed.smi:2633|AV-procd|sdf|10252|dock7
  -GOLD-   2272014263D 1   1.00000     0.00000
 Structure written by MMmdl.
 35 37  0  0  0  0  0  0  0  0  1 V2000
  150.1112  145.8650  159.3830 O   0  0  0  0  0  0  0  0  0  0  0  0
  151.0694  144.8306  159.3036 C   0  0  0  0  0  0  0  0  0  0  0  0
  150.4215  143.4945  158.9020 C   0  0  0  0  0  0  0  0  0  0  0  0
  151.3928  142.4136  158.7942 N   0  0  0  0  0  0  0  0  0  0  0  0
  151.6312  141.5824  157.7458 C   0  0  0  0  0  0  0  0  0  0  0  0
  150.8650  141.6750  156.4539 C   0  0  0  0  0  0  0  0  0  0  0  0
  151.0234  140.4538  155.5637 C   0  0  0  0  0  0  0  0  0  0  0  0
  149.8839  139.8310  155.0122 C   0  0  0  0  0  0  0  0  0  0  0  0
  150.0267  138.7019  154.1825 C   0  0  0  0  0  0  0  0  0  0  0  0
  151.3088  138.1917  153.9013 C   0  0  0  0  0  0  0  0  0  0  0  0
  152.4485  138.8107  154.4504 C   0  0  0  0  0  0  0  0  0  0  0  0
  152.3065  139.9399  155.2805 C   0  0  0  0  0  0  0  0  0  0  0  0
  152.5802  140.6643  157.9463 N   0  0  0  0  0  0  0  0  0  0  0  0
  153.0069  140.9354  159.2303 C   0  0  0  0  0  0  0  0  0  0  0  0
  154.0031  140.3146  160.0174 C   0  0  0  0  0  0  0  0  0  0  0  0
  154.2670  140.7724  161.3249 C   0  0  0  0  0  0  0  0  0  0  0  0
  153.5398  141.8540  161.8629 C   0  0  0  0  0  0  0  0  0  0  0  0
  152.5420  142.4852  161.0952 C   0  0  0  0  0  0  0  0  0  0  0  0
  152.2835  142.0250  159.7901 C   0  0  0  0  0  0  0  0  0  0  0  0
  149.4532  145.7169  158.7211 H   0  0  0  0  0  0  0  0  0  0  0  0
  151.8357  145.1148  158.5820 H   0  0  0  0  0  0  0  0  0  0  0  0
  151.5614  144.7330  160.2716 H   0  0  0  0  0  0  0  0  0  0  0  0
  149.6821  143.2105  159.6515 H   0  0  0  0  0  0  0  0  0  0  0  0
  149.8696  143.5934  157.9677 H   0  0  0  0  0  0  0  0  0  0  0  0
  149.8110  141.8310  156.6857 H   0  0  0  0  0  0  0  0  0  0  0  0
  151.1884  142.5415  155.8792 H   0  0  0  0  0  0  0  0  0  0  0  0
  148.8982  140.2207  155.2219 H   0  0  0  0  0  0  0  0  0  0  0  0
  149.1526  138.2283  153.7603 H   0  0  0  0  0  0  0  0  0  0  0  0
  151.4183  137.3268  153.2636 H   0  0  0  0  0  0  0  0  0  0  0  0
  153.4322  138.4211  154.2335 H   0  0  0  0  0  0  0  0  0  0  0  0
  153.1850  140.4127  155.6945 H   0  0  0  0  0  0  0  0  0  0  0  0
  154.5650  139.4854  159.6138 H   0  0  0  0  0  0  0  0  0  0  0  0
  155.0313  140.2911  161.9175 H   0  0  0  0  0  0  0  0  0  0  0  0
  153.7484  142.1985  162.8651 H   0  0  0  0  0  0  0  0  0  0  0  0
  151.9832  143.3138  161.5038 H   0  0  0  0  0  0  0  0  0  0  0  0
  1  2  1  0  0  0  0
  1 20  1  0  0  0  0
  2  3  1  0  0  0  0
  2 21  1  0  0  0  0
  2 22  1  0  0  0  0
  3  4  1  0  0  0  0
  3 23  1  0  0  0  0
  3 24  1  0  0  0  0
  4 19  1  0  0  0  0
  4  5  1  0  0  0  0
  5  6  1  0  0  0  0
  5 13  2  0  0  0  0
  6  7  1  0  0  0  0
  6 25  1  0  0  0  0
  6 26  1  0  0  0  0
  7 12  1  0  0  0  0
  7  8  2  0  0  0  0
  8  9  1  0  0  0  0
  8 27  1  0  0  0  0
  9 10  2  0  0  0  0
  9 28  1  0  0  0  0
 10 11  1  0  0  0  0
 10 29  1  0  0  0  0
 11 12  2  0  0  0  0
 11 30  1  0  0  0  0
 12 31  1  0  0  0  0
 13 14  1  0  0  0  0
 14 19  2  0  0  0  0
 14 15  1  0  0  0  0
 15 16  2  0  0  0  0
 15 32  1  0  0  0  0
 16 17  1  0  0  0  0
 16 33  1  0  0  0  0
 17 18  2  0  0  0  0
 17 34  1  0  0  0  0
 18 19  1  0  0  0  0
 18 35  1  0  0  0  0
M  END
> <s_m_source_file>
AV-unprocessed.smi

> <i_m_source_file_index>
2633

> <i_lp_mmshare_version>
43012

> <i_f3d_flags>
0

> <s_epik_input>
W2NIXTFbY0hdW2NIXVtjSF1jKGMxMiluKFtDSDJdW0NIMl1bT0hdKWMobjIpW0NIMl1jM1tjSF1bY0hdW2NIXVtjSF1bY0hdMw==

> <s_epik_cmdline>
J2VwaWtfcHl0aG9uJywgJy1waCcsICc3LjAnLCAnLXRuJywgJzgnLCAnLW1hJywgJzIwMCcsICctbWV0YWxfYmluZGluZycsICctaW1hZScsICc8aW5maWxlLm1hZT4nLCAnLW9tYWUnLCAnPG91dGZpbGUubWFlPic=

> <r_epik_Ionization_Penalty>
0.0631471

> <r_epik_Ionization_Penalty_Charging>
0

> <r_epik_Ionization_Penalty_Neutral>
0.0631471

> <r_epik_State_Penalty>
0.0549237

> <r_epik_Charging_Adjusted_Penalty>
0.0549237

> <i_epik_Tot_Q>
0

> <i_epik_Tot_abs_Q>
0

> <r_epik_Metal_State_Penalty>
5.75471e-05

> <b_epik_Metal_Only>
0

> <s_lp_Force_Field>
OPLS_2005

> <r_lp_Energy>
13.1063

> <b_lp_Chiralities_Consistent>
1

> <s_lp_Variant>
AV-unprocessed.smi:2633-1

> <Gold.Version>
5.8.1

> <Gold.Id.Protein>
6NUR|6NUR_protein|mol2

> <Gold.PLP.Fitness>
51.0697

> <Gold.PLP.PLP>
-47.1741

> <Gold.PLP.part.hbond>
-4.0517

> <Gold.PLP.part.metal>
0.0000

> <Gold.PLP.part.buried>
2.1874

> <Gold.PLP.part.nonpolar>
-43.7149

> <Gold.PLP.part.repulsive>
0.0000

> <Gold.PLP.ligand.clash>
0.0000

> <Gold.PLP.ligand.torsion>
0.3130

> <Gold.PLP.Chemscore.Hbond>
1.5039

> <Gold.PLP.Chemscore.CHOScore>
0.0000

> <Gold.PLP.Chemscore.Metal>
0.0000

> <Gold.Chemscore.Hbonds>
donor molecule, donor type, donor heavy atom, donor atom, acceptor molecule, acceptor atom, score
      L1  H     1    20       P1  8029  0.76
      P1  H  7997  8010       L1    13  0.34

> <Gold.PLP.Chemscore.Internal.Correction>
0.0101

> <Gold.Rescore>
     Score         DG    S(hbond)    S(metal)    S(lipo)     H(rot)  DE(clash)    DE(int)     intcor
     16.39     -20.75       1.46        0.00     131.65       1.96       1.39       2.96       ----

> <Gold.Chemscore.Fitness>
16.3927

> <Gold.Chemscore.DG>
-20.7476

> <Gold.Chemscore.ZeroCoef>
-5.4800

> <Gold.Chemscore.Hbond>
1.4614

> <Gold.Chemscore.Metal>
0.0000

> <Gold.Chemscore.Lipo>
131.6456

> <Gold.Chemscore.Internal_Hbond>
0.0000

> <Gold.Chemscore.DEClash>
1.3950

> <Gold.Chemscore.DEInternal>
2.9599

> <Gold.Chemscore.Rot>
1.9594

> <Gold.Chemscore.Internal.Correction>
   9.000000E+99

> <Gold.Chemscore.Hbonds>
donor molecule, donor type, donor heavy atom, donor atom, acceptor molecule, acceptor atom, score
      L1  H     1    20       P1  8029  0.75
      P1  H  7997  8010       L1    13  0.15

> <Gold.Chemscore.Hbond.Weighted>
-4.8811

> <Gold.Chemscore.Metal.Weighted>
-0.0000

> <Gold.Chemscore.Lipo.Weighted>
-15.4025

> <Gold.Chemscore.Internal_Hbond.Weighted>
0.0000

> <Gold.Chemscore.DEClash.Weighted>
1.3950

> <Gold.Chemscore.DEInternal.Weighted>
2.9599

> <Gold.Chemscore.Rot.Weighted>
5.0160

> <Gold.Chemscore.Internal.Correction.Weighted>
   9.000000E+99

> <Gold.Protein.RotatedTorsions>
[ 6907 6896 6895 6894 ] final  178.34 input  -60.11 | X-H torsion
[ 7974 7965 7964 7962 ] final  -86.04 input  175.53 | X-H torsion
[ 8008 7997 7996 7995 ] final   46.83 input   59.86 | X-H torsion
[ 10167 10162 10161 10158 ] final   25.14 input  -65.29 | X-H torsion
[ 10718 10713 10712 10709 ] final   40.43 input   66.30 | X-H torsion
[ 10763 10752 10751 10750 ] final -159.06 input  -60.55 | X-H torsion
[ 11005 11000 10999 10996 ] final -144.91 input  -57.11 | X-H torsion

> <Gold.Protein.ActiveResidues>
 VAL166  LYS551  ARG553  GLY616  TRP617  ASP618  TYR619  PRO620  LYS621  CYS622 
 ASP623  PHE694  ASN695  SER759  ASP760  ASP761  ALA762  ILE779  LEU786  VAL792 
 PHE793  MET794  SER795  GLU796  ALA797  LYS798  CYS799  TRP800  GLU811  SER814 

> <Gold.Protein.RotatedAtoms>
  151.6894  133.3311  159.3238 H   0  0  0  0  0  0  0  0  0  0  0  0  # atno 6907 bound_to 6896
  150.7786  134.6712  159.6402 H   0  0  0  0  0  0  0  0  0  0  0  0  # atno 6908 bound_to 6896
  152.3836  134.6555  160.0186 H   0  0  0  0  0  0  0  0  0  0  0  0  # atno 6909 bound_to 6896
  145.4852  140.9555  143.1842 H   0  0  0  0  0  0  0  0  0  0  0  0  # atno 7974 bound_to 7965
  155.3589  140.3417  155.4240 H   0  0  0  0  0  0  0  0  0  0  0  0  # atno 8008 bound_to 7997
  156.1724  140.1636  156.8458 H   0  0  0  0  0  0  0  0  0  0  0  0  # atno 8009 bound_to 7997
  154.5247  140.0759  156.8219 H   0  0  0  0  0  0  0  0  0  0  0  0  # atno 8010 bound_to 7997
  140.5130  144.0128  150.6381 H   0  0  0  0  0  0  0  0  0  0  0  0  # atno 10167 bound_to 10162
  157.3821  130.7759  149.7201 H   0  0  0  0  0  0  0  0  0  0  0  0  # atno 10718 bound_to 10713
  154.7505  135.3091  154.8565 H   0  0  0  0  0  0  0  0  0  0  0  0  # atno 10763 bound_to 10752
  153.9354  135.6780  153.4749 H   0  0  0  0  0  0  0  0  0  0  0  0  # atno 10764 bound_to 10752
  153.1101  135.4870  154.8949 H   0  0  0  0  0  0  0  0  0  0  0  0  # atno 10765 bound_to 10752
  140.7977  134.2894  157.4990 H   0  0  0  0  0  0  0  0  0  0  0  0  # atno 11005 bound_to 11000
  144.7865  139.6415  143.7132 LP  0  0  0  0  0  0  0  0  0  0  0  0  # atno 17320 bound_to 7965
  146.2317  139.5826  142.9551 LP  0  0  0  0  0  0  0  0  0  0  0  0  # atno 17321 bound_to 7965
  140.3456  143.2993  152.0541 LP  0  0  0  0  0  0  0  0  0  0  0  0  # atno 17342 bound_to 10162
  139.4901  144.6411  151.6875 LP  0  0  0  0  0  0  0  0  0  0  0  0  # atno 17343 bound_to 10162
  155.9778  130.4059  150.3689 LP  0  0  0  0  0  0  0  0  0  0  0  0  # atno 17370 bound_to 10713
  157.1794  131.0388  151.2756 LP  0  0  0  0  0  0  0  0  0  0  0  0  # atno 17371 bound_to 10713
  139.8724  134.9411  156.3788 LP  0  0  0  0  0  0  0  0  0  0  0  0  # atno 17394 bound_to 11000
  140.9326  133.7568  156.0044 LP  0  0  0  0  0  0  0  0  0  0  0  0  # atno 17395 bound_to 11000

$$$$
