AV-unprocessed.smi:2855|AV-procd|sdf|10983|dock9
  -GOLD-   2272015433D 1   1.00000     0.00000
 Structure written by MMmdl.
 47 48  0  0  0  0  0  0  0  0  1 V2000
  153.2159  142.3179  162.1665 C   0  0  0  0  0  0  0  0  0  0  0  0
  152.8459  143.2223  160.9823 C   0  0  2  0  0  0  0  0  0  0  0  0
  151.6782  144.1675  161.3348 C   0  0  0  0  0  0  0  0  0  0  0  0
  151.2402  145.0196  160.1272 C   0  0  0  0  0  0  0  0  0  0  0  0
  150.8461  144.1465  158.9088 C   0  0  2  0  0  0  0  0  0  0  0  0
  149.5155  143.3449  159.1374 C   0  0  0  0  0  0  0  0  0  0  0  0
  148.8349  142.8586  157.8430 C   0  0  0  0  0  0  0  0  0  0  0  0
  148.4811  144.1521  159.9482 C   0  0  0  0  0  0  0  0  0  0  0  0
  152.1161  143.3163  158.5547 C   0  0  2  0  0  0  0  0  0  0  0  0
  152.0194  142.5715  157.3043 N   0  0  0  0  0  0  0  0  0  0  0  0
  151.3639  141.4117  157.1246 C   0  0  0  0  0  0  0  0  0  0  0  0
  150.7505  140.8460  158.0289 O   0  0  0  0  0  0  0  0  0  0  0  0
  151.4007  140.7646  155.7291 C   0  0  0  0  0  0  0  0  0  0  0  0
  150.1289  140.8162  154.9879 N   0  0  0  0  0  0  0  0  0  0  0  0
  149.3561  141.9686  155.0112 C   0  0  0  0  0  0  0  0  0  0  0  0
  148.1723  142.0866  154.3646 C   0  0  0  0  0  0  0  0  0  0  0  0
  147.6402  140.9713  153.5890 C   0  0  0  0  0  0  0  0  0  0  0  0
  146.5784  140.9802  152.9704 O   0  0  0  0  0  0  0  0  0  0  0  0
  148.4469  139.8302  153.5884 N   0  0  0  0  0  0  0  0  0  0  0  0
  149.6674  139.7019  154.2530 C   0  0  0  0  0  0  0  0  0  0  0  0
  150.2953  138.6457  154.1941 O   0  0  0  0  0  0  0  0  0  0  0  0
  152.5330  142.3971  159.7170 C   0  0  0  0  0  0  0  0  0  0  0  0
  148.1183  139.0318  153.0648 H   0  0  0  0  0  0  0  0  0  0  0  0
  152.3855  141.6672  162.4427 H   0  0  0  0  0  0  0  0  0  0  0  0
  153.4824  142.9086  163.0434 H   0  0  0  0  0  0  0  0  0  0  0  0
  154.0695  141.6841  161.9248 H   0  0  0  0  0  0  0  0  0  0  0  0
  153.7156  143.8436  160.7627 H   0  0  0  0  0  0  0  0  0  0  0  0
  150.8316  143.5906  161.7075 H   0  0  0  0  0  0  0  0  0  0  0  0
  151.9743  144.8256  162.1523 H   0  0  0  0  0  0  0  0  0  0  0  0
  150.4407  145.7007  160.4136 H   0  0  0  0  0  0  0  0  0  0  0  0
  152.0672  145.6727  159.8443 H   0  0  0  0  0  0  0  0  0  0  0  0
  150.6616  144.8305  158.0789 H   0  0  0  0  0  0  0  0  0  0  0  0
  149.7358  142.4519  159.7212 H   0  0  0  0  0  0  0  0  0  0  0  0
  148.7344  143.6641  157.1148 H   0  0  0  0  0  0  0  0  0  0  0  0
  147.8363  142.4677  158.0405 H   0  0  0  0  0  0  0  0  0  0  0  0
  149.3852  142.0403  157.3819 H   0  0  0  0  0  0  0  0  0  0  0  0
  148.2828  145.1200  159.4868 H   0  0  0  0  0  0  0  0  0  0  0  0
  148.8075  144.3242  160.9731 H   0  0  0  0  0  0  0  0  0  0  0  0
  147.5315  143.6212  160.0206 H   0  0  0  0  0  0  0  0  0  0  0  0
  152.9408  144.0188  158.4157 H   0  0  0  0  0  0  0  0  0  0  0  0
  152.4969  142.9661  156.5070 H   0  0  0  0  0  0  0  0  0  0  0  0
  152.1845  141.2566  155.1510 H   0  0  0  0  0  0  0  0  0  0  0  0
  151.7364  139.7316  155.8356 H   0  0  0  0  0  0  0  0  0  0  0  0
  149.7087  142.8188  155.5779 H   0  0  0  0  0  0  0  0  0  0  0  0
  147.6154  143.0106  154.4226 H   0  0  0  0  0  0  0  0  0  0  0  0
  153.4181  141.8258  159.4330 H   0  0  0  0  0  0  0  0  0  0  0  0
  151.7522  141.6645  159.9220 H   0  0  0  0  0  0  0  0  0  0  0  0
  1  2  1  0  0  0  0
  1 24  1  0  0  0  0
  1 25  1  0  0  0  0
  1 26  1  0  0  0  0
  2 22  1  0  0  0  0
  2  3  1  0  0  0  0
  2 27  1  0  0  0  0
  3  4  1  0  0  0  0
  3 28  1  0  0  0  0
  3 29  1  0  0  0  0
  4  5  1  0  0  0  0
  4 30  1  0  0  0  0
  4 31  1  0  0  0  0
  5  6  1  0  0  0  0
  5  9  1  0  0  0  0
  5 32  1  0  0  0  0
  6  7  1  0  0  0  0
  6  8  1  0  0  0  0
  6 33  1  0  0  0  0
  7 34  1  0  0  0  0
  7 35  1  0  0  0  0
  7 36  1  0  0  0  0
  8 37  1  0  0  0  0
  8 38  1  0  0  0  0
  8 39  1  0  0  0  0
  9 10  1  0  0  0  0
  9 22  1  0  0  0  0
  9 40  1  0  0  0  0
 10 11  1  0  0  0  0
 10 41  1  0  0  0  0
 11 12  2  0  0  0  0
 11 13  1  0  0  0  0
 13 14  1  0  0  0  0
 13 42  1  0  0  0  0
 13 43  1  0  0  0  0
 14 20  1  0  0  0  0
 14 15  1  0  0  0  0
 15 16  2  0  0  0  0
 15 44  1  0  0  0  0
 16 17  1  0  0  0  0
 16 45  1  0  0  0  0
 17 18  2  0  0  0  0
 17 19  1  0  0  0  0
 19 23  1  0  0  0  0
 19 20  1  0  0  0  0
 20 21  2  0  0  0  0
 22 46  1  0  0  0  0
 22 47  1  0  0  0  0
M  END
> <s_m_source_file>
AV-unprocessed.smi

> <i_m_source_file_index>
2855

> <i_lp_mmshare_version>
43012

> <i_f3d_flags>
0

> <s_epik_input>
W0NIM11bQ0BASF0xW0NIMl1bQ0gyXVtDQEBIXShbQ0hdKFtDSDNdKVtDSDNdKVtDQEhdKFtDSDJdMSlbTkhdQyg9TylbQ0gyXW4yW2NIXVtjSF1jKD1PKVtuSF1jMj1P

> <s_epik_cmdline>
J2VwaWtfcHl0aG9uJywgJy1waCcsICc3LjAnLCAnLXRuJywgJzgnLCAnLW1hJywgJzIwMCcsICctbWV0YWxfYmluZGluZycsICctaW1hZScsICc8aW5maWxlLm1hZT4nLCAnLW9tYWUnLCAnPG91dGZpbGUubWFlPic=

> <r_lp_tautomer_probability>
0.999537

> <r_epik_Ionization_Penalty>
0.00306256

> <r_epik_Ionization_Penalty_Charging>
0.00306254

> <r_epik_Ionization_Penalty_Neutral>
2.0223e-08

> <r_epik_State_Penalty>
0.0021533

> <r_epik_Charging_Adjusted_Penalty>
0.00521583

> <i_epik_Tot_Q>
0

> <i_epik_Tot_abs_Q>
0

> <r_epik_Metal_State_Penalty>
0.362116

> <b_epik_Metal_Only>
0

> <s_lp_Force_Field>
OPLS_2005

> <r_lp_Energy>
18.1406

> <b_lp_Chiralities_Consistent>
1

> <s_lp_Variant>
AV-unprocessed.smi:2855-7

> <Gold.Version>
5.8.1

> <Gold.Id.Protein>
6NUR|6NUR_protein|mol2

> <Gold.PLP.Fitness>
40.9553

> <Gold.PLP.PLP>
-39.8057

> <Gold.PLP.part.hbond>
-1.0000

> <Gold.PLP.part.metal>
0.0000

> <Gold.PLP.part.buried>
4.6167

> <Gold.PLP.part.nonpolar>
-43.6479

> <Gold.PLP.part.repulsive>
0.5531

> <Gold.PLP.ligand.clash>
0.0000

> <Gold.PLP.ligand.torsion>
0.9329

> <Gold.PLP.Chemscore.Hbond>
0.0000

> <Gold.PLP.Chemscore.CHOScore>
0.9916

> <Gold.PLP.Chemscore.Metal>
0.0000

> <Gold.Chemscore.Hbonds>
donor molecule, donor type, donor heavy atom, donor atom, acceptor molecule, acceptor atom, score
      L1  C    15    44       P1  8028  0.95

> <Gold.PLP.Chemscore.Internal.Correction>
0.0407

> <Gold.Rescore>
     Score         DG    S(hbond)    S(metal)    S(lipo)     H(rot)  DE(clash)    DE(int)     intcor
      8.94     -14.08       0.00        0.00     114.10       1.85       2.81       2.33       ----

> <Gold.Chemscore.Fitness>
8.9392

> <Gold.Chemscore.DG>
-14.0834

> <Gold.Chemscore.ZeroCoef>
-5.4800

> <Gold.Chemscore.Hbond>
0.0000

> <Gold.Chemscore.Metal>
0.0000

> <Gold.Chemscore.Lipo>
114.0974

> <Gold.Chemscore.Internal_Hbond>
0.0000

> <Gold.Chemscore.DEClash>
2.8145

> <Gold.Chemscore.DEInternal>
2.3296

> <Gold.Chemscore.Rot>
1.8539

> <Gold.Chemscore.Internal.Correction>
   9.000000E+99

> <Gold.Chemscore.Hbond.Weighted>
-0.0000

> <Gold.Chemscore.Metal.Weighted>
-0.0000

> <Gold.Chemscore.Lipo.Weighted>
-13.3494

> <Gold.Chemscore.Internal_Hbond.Weighted>
0.0000

> <Gold.Chemscore.DEClash.Weighted>
2.8145

> <Gold.Chemscore.DEInternal.Weighted>
2.3296

> <Gold.Chemscore.Rot.Weighted>
4.7460

> <Gold.Chemscore.Internal.Correction.Weighted>
   9.000000E+99

> <Gold.Protein.RotatedTorsions>
[ 6907 6896 6895 6894 ] final  128.36 input  -60.11 | X-H torsion
[ 7974 7965 7964 7962 ] final  -55.61 input  175.53 | X-H torsion
[ 8008 7997 7996 7995 ] final -133.53 input   59.86 | X-H torsion
[ 10167 10162 10161 10158 ] final  -95.58 input  -65.29 | X-H torsion
[ 10718 10713 10712 10709 ] final  -88.98 input   66.30 | X-H torsion
[ 10763 10752 10751 10750 ] final   40.62 input  -60.55 | X-H torsion
[ 11005 11000 10999 10996 ] final   -4.72 input  -57.11 | X-H torsion

> <Gold.Protein.ActiveResidues>
 VAL166  LYS551  ARG553  GLY616  TRP617  ASP618  TYR619  PRO620  LYS621  CYS622 
 ASP623  PHE694  ASN695  SER759  ASP760  ASP761  ALA762  ILE779  LEU786  VAL792 
 PHE793  MET794  SER795  GLU796  ALA797  LYS798  CYS799  TRP800  GLU811  SER814 

> <Gold.Protein.RotatedAtoms>
  152.3726  133.6439  159.6098 H   0  0  0  0  0  0  0  0  0  0  0  0  # atno 6907 bound_to 6896
  150.7680  133.9245  159.3417 H   0  0  0  0  0  0  0  0  0  0  0  0  # atno 6908 bound_to 6896
  151.7065  135.0922  160.0311 H   0  0  0  0  0  0  0  0  0  0  0  0  # atno 6909 bound_to 6896
  145.8721  140.8208  142.9883 H   0  0  0  0  0  0  0  0  0  0  0  0  # atno 7974 bound_to 7965
  155.3470  140.0475  157.3045 H   0  0  0  0  0  0  0  0  0  0  0  0  # atno 8008 bound_to 7997
  154.5247  140.2237  155.8876 H   0  0  0  0  0  0  0  0  0  0  0  0  # atno 8009 bound_to 7997
  156.1727  140.3092  155.9008 H   0  0  0  0  0  0  0  0  0  0  0  0  # atno 8010 bound_to 7997
  140.3026  143.3153  152.0232 H   0  0  0  0  0  0  0  0  0  0  0  0  # atno 10167 bound_to 10162
  155.9984  130.4855  150.5102 H   0  0  0  0  0  0  0  0  0  0  0  0  # atno 10718 bound_to 10713
  152.9931  135.6186  154.2656 H   0  0  0  0  0  0  0  0  0  0  0  0  # atno 10763 bound_to 10752
  154.2391  135.2789  155.2862 H   0  0  0  0  0  0  0  0  0  0  0  0  # atno 10764 bound_to 10752
  154.5385  135.5768  153.6876 H   0  0  0  0  0  0  0  0  0  0  0  0  # atno 10765 bound_to 10752
  140.6833  133.9134  155.8570 H   0  0  0  0  0  0  0  0  0  0  0  0  # atno 11005 bound_to 11000
  144.6726  140.1255  143.7447 LP  0  0  0  0  0  0  0  0  0  0  0  0  # atno 17320 bound_to 7965
  145.9124  139.2495  143.1430 LP  0  0  0  0  0  0  0  0  0  0  0  0  # atno 17321 bound_to 7965
  139.4911  144.6444  151.6809 LP  0  0  0  0  0  0  0  0  0  0  0  0  # atno 17342 bound_to 10162
  140.5637  144.0225  150.6182 LP  0  0  0  0  0  0  0  0  0  0  0  0  # atno 17343 bound_to 10162
  157.3076  131.0657  151.2024 LP  0  0  0  0  0  0  0  0  0  0  0  0  # atno 17370 bound_to 10713
  157.2981  130.6829  149.6149 LP  0  0  0  0  0  0  0  0  0  0  0  0  # atno 17371 bound_to 10713
  141.0300  134.0770  157.4025 LP  0  0  0  0  0  0  0  0  0  0  0  0  # atno 17394 bound_to 11000
  139.8945  135.0136  156.6954 LP  0  0  0  0  0  0  0  0  0  0  0  0  # atno 17395 bound_to 11000

$$$$
