AV-unprocessed.smi:2592|AV-procd|sdf|10162|dock7
  -GOLD-   2272014173D 1   1.00000     0.00000
 Structure written by MMmdl.
 41 42  0  0  0  0  0  0  0  0  2 V2000
  153.1486  142.6397  161.0122 C   0  0  0  0  0  0  0  0  0  0  0  0
  152.4829  142.5059  159.6773 C   0  0  0  0  0  0  0  0  0  0  0  0
  152.1907  141.2354  159.1749 N   0  0  0  0  0  0  0  0  0  0  0  0
  151.5906  141.2559  157.9807 C   0  0  0  0  0  0  0  0  0  0  0  0
  151.2324  140.1417  157.3217 N   0  5  0  0  0  0  0  0  0  0  0  0
  150.8602  140.2129  156.0233 C   0  0  0  0  0  0  0  0  0  0  0  0
  151.5948  140.0677  155.0432 O   0  0  0  0  0  0  0  0  0  0  0  0
  149.5544  140.4633  155.8499 N   0  0  0  0  0  0  0  0  0  0  0  0
  148.8686  140.5790  154.5674 C   0  0  0  0  0  0  0  0  0  0  0  0
  147.4358  141.1087  154.7384 C   0  0  0  0  0  0  0  0  0  0  0  0
  147.1486  142.3113  153.8238 C   0  0  0  0  0  0  0  0  0  0  0  0
  145.8717  142.9822  154.0646 N   0  0  0  0  0  0  0  0  0  0  0  0
  145.7150  143.3125  155.4771 C   0  0  0  0  0  0  0  0  0  0  0  0
  144.3796  144.0227  155.7583 C   0  0  0  0  0  0  0  0  0  0  0  0
  144.2859  145.1943  154.9551 O   0  0  0  0  0  0  0  0  0  0  0  0
  144.3878  144.9142  153.5628 C   0  0  0  0  0  0  0  0  0  0  0  0
  145.7204  144.2017  153.2729 C   0  0  0  0  0  0  0  0  0  0  0  0
  151.3651  142.9014  157.3866 S   0  0  0  0  0  0  0  0  0  0  0  0
  152.1063  143.5239  158.8365 C   0  0  0  0  0  0  0  0  0  0  0  0
  152.2641  144.9928  159.0471 C   0  0  0  0  0  0  0  0  0  0  0  0
  154.1803  142.9741  160.9027 H   0  0  0  0  0  0  0  0  0  0  0  0
  153.1642  141.6923  161.5522 H   0  0  0  0  0  0  0  0  0  0  0  0
  152.6300  143.3654  161.6391 H   0  0  0  0  0  0  0  0  0  0  0  0
  148.9916  140.5777  156.6803 H   0  0  0  0  0  0  0  0  0  0  0  0
  149.4437  141.2594  153.9393 H   0  0  0  0  0  0  0  0  0  0  0  0
  148.8630  139.6151  154.0561 H   0  0  0  0  0  0  0  0  0  0  0  0
  146.7328  140.3026  154.5295 H   0  0  0  0  0  0  0  0  0  0  0  0
  147.2776  141.3975  155.7783 H   0  0  0  0  0  0  0  0  0  0  0  0
  147.9541  143.0331  153.9676 H   0  0  0  0  0  0  0  0  0  0  0  0
  147.2102  141.9986  152.7803 H   0  0  0  0  0  0  0  0  0  0  0  0
  145.7723  142.4043  156.0783 H   0  0  0  0  0  0  0  0  0  0  0  0
  146.5375  143.9524  155.8008 H   0  0  0  0  0  0  0  0  0  0  0  0
  143.5375  143.3610  155.5497 H   0  0  0  0  0  0  0  0  0  0  0  0
  144.3137  144.3044  156.8091 H   0  0  0  0  0  0  0  0  0  0  0  0
  143.5445  144.2985  153.2459 H   0  0  0  0  0  0  0  0  0  0  0  0
  144.3286  145.8493  153.0059 H   0  0  0  0  0  0  0  0  0  0  0  0
  146.5466  144.8833  153.4814 H   0  0  0  0  0  0  0  0  0  0  0  0
  145.7650  143.9722  152.2088 H   0  0  0  0  0  0  0  0  0  0  0  0
  151.5139  145.3640  159.7454 H   0  0  0  0  0  0  0  0  0  0  0  0
  152.1527  145.5389  158.1101 H   0  0  0  0  0  0  0  0  0  0  0  0
  153.2488  145.2240  159.4535 H   0  0  0  0  0  0  0  0  0  0  0  0
  1  2  1  0  0  0  0
  1 21  1  0  0  0  0
  1 22  1  0  0  0  0
  1 23  1  0  0  0  0
  2 19  2  0  0  0  0
  2  3  1  0  0  0  0
  3  4  2  0  0  0  0
  4  5  1  0  0  0  0
  4 18  1  0  0  0  0
  5  6  1  0  0  0  0
  6  7  2  0  0  0  0
  6  8  1  0  0  0  0
  8  9  1  0  0  0  0
  8 24  1  0  0  0  0
  9 10  1  0  0  0  0
  9 25  1  0  0  0  0
  9 26  1  0  0  0  0
 10 11  1  0  0  0  0
 10 27  1  0  0  0  0
 10 28  1  0  0  0  0
 11 12  1  0  0  0  0
 11 29  1  0  0  0  0
 11 30  1  0  0  0  0
 12 17  1  0  0  0  0
 12 13  1  0  0  0  0
 13 14  1  0  0  0  0
 13 31  1  0  0  0  0
 13 32  1  0  0  0  0
 14 15  1  0  0  0  0
 14 33  1  0  0  0  0
 14 34  1  0  0  0  0
 15 16  1  0  0  0  0
 16 17  1  0  0  0  0
 16 35  1  0  0  0  0
 16 36  1  0  0  0  0
 17 37  1  0  0  0  0
 17 38  1  0  0  0  0
 18 19  1  0  0  0  0
 19 20  1  0  0  0  0
 20 39  1  0  0  0  0
 20 40  1  0  0  0  0
 20 41  1  0  0  0  0
M  CHG  1   5  -1
M  END
> <s_m_source_file>
AV-unprocessed.smi

> <i_m_source_file_index>
2592

> <i_lp_mmshare_version>
43012

> <i_f3d_flags>
0

> <s_epik_input>
W0NIM11jMW5jKHNjMVtDSDNdKVtOSF1DKD1PKVtOSF1bQ0gyXVtDSDJdW0NIMl1OMltDSDJdW0NIMl1PW0NIMl1bQ0gyXTI=

> <s_epik_cmdline>
J2VwaWtfcHl0aG9uJywgJy1waCcsICc3LjAnLCAnLXRuJywgJzgnLCAnLW1hJywgJzIwMCcsICctbWV0YWxfYmluZGluZycsICctaW1hZScsICc8aW5maWxlLm1hZT4nLCAnLW9tYWUnLCAnPG91dGZpbGUubWFlPic=

> <r_lp_tautomer_probability>
0.999

> <r_epik_Ionization_Penalty>
8.38414

> <r_epik_Ionization_Penalty_Charging>
6.24826

> <r_epik_Ionization_Penalty_Neutral>
2.13587

> <r_epik_State_Penalty>
6.83636

> <r_epik_Charging_Adjusted_Penalty>
13.0846

> <i_epik_Tot_Q>
-1

> <i_epik_Tot_abs_Q>
1

> <r_epik_Metal_State_Penalty>
2.77797

> <b_epik_Metal_Only>
1

> <s_lp_Force_Field>
OPLS_2005

> <r_lp_Energy>
16.0962

> <b_lp_Chiralities_Consistent>
1

> <s_lp_Variant>
AV-unprocessed.smi:2592-4

> <Gold.Version>
5.8.1

> <Gold.Id.Protein>
6NUR|6NUR_protein|mol2

> <Gold.PLP.Fitness>
42.8606

> <Gold.PLP.PLP>
-42.1774

> <Gold.PLP.part.hbond>
-1.0000

> <Gold.PLP.part.metal>
0.0000

> <Gold.PLP.part.buried>
-6.4054

> <Gold.PLP.part.nonpolar>
-35.1552

> <Gold.PLP.part.repulsive>
0.4139

> <Gold.PLP.ligand.clash>
0.0000

> <Gold.PLP.ligand.torsion>
1.2303

> <Gold.PLP.Chemscore.Hbond>
1.0000

> <Gold.PLP.Chemscore.CHOScore>
0.0000

> <Gold.PLP.Chemscore.Metal>
0.0000

> <Gold.Chemscore.Hbonds>
donor molecule, donor type, donor heavy atom, donor atom, acceptor molecule, acceptor atom, score
      P1  H  7989  7998       L1     7  1.00

> <Gold.PLP.Chemscore.Internal.Correction>
0.1438

> <Gold.Rescore>
     Score         DG    S(hbond)    S(metal)    S(lipo)     H(rot)  DE(clash)    DE(int)     intcor
     15.11     -16.55       0.99        0.00     102.26       1.65       0.21       1.24       ----

> <Gold.Chemscore.Fitness>
15.1069

> <Gold.Chemscore.DG>
-16.5522

> <Gold.Chemscore.ZeroCoef>
-5.4800

> <Gold.Chemscore.Hbond>
0.9937

> <Gold.Chemscore.Metal>
0.0000

> <Gold.Chemscore.Lipo>
102.2646

> <Gold.Chemscore.Internal_Hbond>
0.0000

> <Gold.Chemscore.DEClash>
0.2065

> <Gold.Chemscore.DEInternal>
1.2388

> <Gold.Chemscore.Rot>
1.6452

> <Gold.Chemscore.Internal.Correction>
   9.000000E+99

> <Gold.Chemscore.Hbonds>
donor molecule, donor type, donor heavy atom, donor atom, acceptor molecule, acceptor atom, score
      P1  H  7989  7998       L1     7  0.96

> <Gold.Chemscore.Hbond.Weighted>
-3.3190

> <Gold.Chemscore.Metal.Weighted>
-0.0000

> <Gold.Chemscore.Lipo.Weighted>
-11.9650

> <Gold.Chemscore.Internal_Hbond.Weighted>
0.0000

> <Gold.Chemscore.DEClash.Weighted>
0.2065

> <Gold.Chemscore.DEInternal.Weighted>
1.2388

> <Gold.Chemscore.Rot.Weighted>
4.2118

> <Gold.Chemscore.Internal.Correction.Weighted>
   9.000000E+99

> <Gold.Protein.RotatedTorsions>
[ 6907 6896 6895 6894 ] final -108.35 input  -60.11 | X-H torsion
[ 7974 7965 7964 7962 ] final    1.78 input  175.53 | X-H torsion
[ 8008 7997 7996 7995 ] final  -92.87 input   59.86 | X-H torsion
[ 10167 10162 10161 10158 ] final  -52.20 input  -65.29 | X-H torsion
[ 10718 10713 10712 10709 ] final   26.64 input   66.30 | X-H torsion
[ 10763 10752 10751 10750 ] final  -80.03 input  -60.55 | X-H torsion
[ 11005 11000 10999 10996 ] final  116.86 input  -57.11 | X-H torsion

> <Gold.Protein.ActiveResidues>
 VAL166  LYS551  ARG553  GLY616  TRP617  ASP618  TYR619  PRO620  LYS621  CYS622 
 ASP623  PHE694  ASN695  SER759  ASP760  ASP761  ALA762  ILE779  LEU786  VAL792 
 PHE793  MET794  SER795  GLU796  ALA797  LYS798  CYS799  TRP800  GLU811  SER814 

> <Gold.Protein.RotatedAtoms>
  150.7496  133.9691  159.3539 H   0  0  0  0  0  0  0  0  0  0  0  0  # atno 6907 bound_to 6896
  151.7623  135.0805  160.0357 H   0  0  0  0  0  0  0  0  0  0  0  0  # atno 6908 bound_to 6896
  152.3395  133.6013  159.5902 H   0  0  0  0  0  0  0  0  0  0  0  0  # atno 6909 bound_to 6896
  146.2441  140.0935  142.8351 H   0  0  0  0  0  0  0  0  0  0  0  0  # atno 7974 bound_to 7965
  154.7286  140.0504  157.0705 H   0  0  0  0  0  0  0  0  0  0  0  0  # atno 8008 bound_to 7997
  155.0332  140.3160  155.4731 H   0  0  0  0  0  0  0  0  0  0  0  0  # atno 8009 bound_to 7997
  156.2835  140.2146  156.5454 H   0  0  0  0  0  0  0  0  0  0  0  0  # atno 8010 bound_to 7997
  140.6549  143.2592  151.4614 H   0  0  0  0  0  0  0  0  0  0  0  0  # atno 10167 bound_to 10162
  157.2095  130.6927  149.6222 H   0  0  0  0  0  0  0  0  0  0  0  0  # atno 10718 bound_to 10713
  154.5461  135.5675  153.6881 H   0  0  0  0  0  0  0  0  0  0  0  0  # atno 10763 bound_to 10752
  152.9976  135.6239  154.2437 H   0  0  0  0  0  0  0  0  0  0  0  0  # atno 10764 bound_to 10752
  154.2370  135.2864  155.2848 H   0  0  0  0  0  0  0  0  0  0  0  0  # atno 10765 bound_to 10752
  139.9055  134.9603  156.7262 H   0  0  0  0  0  0  0  0  0  0  0  0  # atno 11005 bound_to 11000
  145.0630  140.9101  143.4927 LP  0  0  0  0  0  0  0  0  0  0  0  0  # atno 17320 bound_to 7965
  145.1054  139.2794  143.5665 LP  0  0  0  0  0  0  0  0  0  0  0  0  # atno 17321 bound_to 7965
  139.5770  144.1795  152.1917 LP  0  0  0  0  0  0  0  0  0  0  0  0  # atno 17342 bound_to 10162
  140.1109  144.5458  150.6925 LP  0  0  0  0  0  0  0  0  0  0  0  0  # atno 17343 bound_to 10162
  155.9692  130.4556  150.5892 LP  0  0  0  0  0  0  0  0  0  0  0  0  # atno 17370 bound_to 10713
  157.3686  131.0762  151.1577 LP  0  0  0  0  0  0  0  0  0  0  0  0  # atno 17371 bound_to 10713
  140.6961  133.9347  155.7996 LP  0  0  0  0  0  0  0  0  0  0  0  0  # atno 17394 bound_to 11000
  141.0406  134.0627  157.3907 LP  0  0  0  0  0  0  0  0  0  0  0  0  # atno 17395 bound_to 11000

$$$$
