AV-unprocessed.smi:2521|AV-procd|sdf|9917|dock6
  -GOLD-   2272013553D 1   1.00000     0.00000
 Structure written by MMmdl.
 35 36  0  0  0  0  0  0  0  0  2 V2000
  149.3070  133.6790  154.0256 C   0  0  0  0  0  0  0  0  0  0  0  0
  150.1172  133.8977  155.3117 C   0  0  0  0  0  0  0  0  0  0  0  0
  149.4846  133.2336  156.5434 C   0  0  0  0  0  0  0  0  0  0  0  0
  150.4261  135.3436  155.5463 C   0  0  0  0  0  0  0  0  0  0  0  0
  151.1342  136.0875  154.6936 N   0  0  0  0  0  0  0  0  0  0  0  0
  151.2775  137.3936  155.1342 N   0  0  0  0  0  0  0  0  0  0  0  0
  150.6806  137.6332  156.3166 C   0  0  0  0  0  0  0  0  0  0  0  0
  150.6558  138.8120  156.9786 N   0  5  0  0  0  0  0  0  0  0  0  0
  150.9926  140.0177  156.4530 C   0  0  0  0  0  0  0  0  0  0  0  0
  151.3256  140.2648  155.2923 O   0  0  0  0  0  0  0  0  0  0  0  0
  150.9389  141.0156  157.3455 N   0  0  0  0  0  0  0  0  0  0  0  0
  151.2462  142.4127  157.0649 C   0  0  0  0  0  0  0  0  0  0  0  0
  151.2212  143.2514  158.3529 C   0  0  2  0  0  0  0  0  0  0  0  0
  151.7203  144.6740  158.1927 C   0  0  0  0  0  0  0  0  0  0  0  0
  152.0353  145.0619  159.6344 C   0  0  0  0  0  0  0  0  0  0  0  0
  152.4124  143.8551  160.2921 O   0  0  0  0  0  0  0  0  0  0  0  0
  152.1540  142.7367  159.4483 C   0  0  0  0  0  0  0  0  0  0  0  0
  149.8812  136.2060  156.9746 S   0  0  0  0  0  0  0  0  0  0  0  0
  149.8288  134.0883  153.1601 H   0  0  0  0  0  0  0  0  0  0  0  0
  148.3304  134.1608  154.0849 H   0  0  0  0  0  0  0  0  0  0  0  0
  149.1426  132.6172  153.8411 H   0  0  0  0  0  0  0  0  0  0  0  0
  151.0760  133.4017  155.1564 H   0  0  0  0  0  0  0  0  0  0  0  0
  150.1287  133.3363  157.4173 H   0  0  0  0  0  0  0  0  0  0  0  0
  149.3224  132.1685  156.3755 H   0  0  0  0  0  0  0  0  0  0  0  0
  148.5206  133.6822  156.7851 H   0  0  0  0  0  0  0  0  0  0  0  0
  150.6634  140.7852  158.2889 H   0  0  0  0  0  0  0  0  0  0  0  0
  152.2314  142.4763  156.6007 H   0  0  0  0  0  0  0  0  0  0  0  0
  150.5259  142.8039  156.3444 H   0  0  0  0  0  0  0  0  0  0  0  0
  150.2045  143.2795  158.7491 H   0  0  0  0  0  0  0  0  0  0  0  0
  152.6313  144.6925  157.5927 H   0  0  0  0  0  0  0  0  0  0  0  0
  150.9908  145.3363  157.7258 H   0  0  0  0  0  0  0  0  0  0  0  0
  152.8221  145.8139  159.6991 H   0  0  0  0  0  0  0  0  0  0  0  0
  151.1459  145.4595  160.1245 H   0  0  0  0  0  0  0  0  0  0  0  0
  151.7222  141.9069  160.0083 H   0  0  0  0  0  0  0  0  0  0  0  0
  153.1015  142.4008  159.0246 H   0  0  0  0  0  0  0  0  0  0  0  0
  1  2  1  0  0  0  0
  1 19  1  0  0  0  0
  1 20  1  0  0  0  0
  1 21  1  0  0  0  0
  2  3  1  0  0  0  0
  2  4  1  0  0  0  0
  2 22  1  0  0  0  0
  3 23  1  0  0  0  0
  3 24  1  0  0  0  0
  3 25  1  0  0  0  0
  4 18  1  0  0  0  0
  4  5  2  0  0  0  0
  5  6  1  0  0  0  0
  6  7  2  0  0  0  0
  7  8  1  0  0  0  0
  7 18  1  0  0  0  0
  8  9  1  0  0  0  0
  9 10  2  0  0  0  0
  9 11  1  0  0  0  0
 11 12  1  0  0  0  0
 11 26  1  0  0  0  0
 12 13  1  0  0  0  0
 12 27  1  0  0  0  0
 12 28  1  0  0  0  0
 13 17  1  0  0  0  0
 13 14  1  0  0  0  0
 13 29  1  0  0  0  0
 14 15  1  0  0  0  0
 14 30  1  0  0  0  0
 14 31  1  0  0  0  0
 15 16  1  0  0  0  0
 15 32  1  0  0  0  0
 15 33  1  0  0  0  0
 16 17  1  0  0  0  0
 17 34  1  0  0  0  0
 17 35  1  0  0  0  0
M  CHG  1   8  -1
M  END
> <s_m_source_file>
AV-unprocessed.smi

> <i_m_source_file_index>
2521

> <i_lp_mmshare_version>
43012

> <i_f3d_flags>
0

> <s_epik_input>
W0NIM11bQ0hdKFtDSDNdKWMxbm5jKHMxKVtOSF1DKD1PKVtOSF1bQ0gyXVtDQEBIXTJbQ0gyXVtDSDJdT1tDSDJdMg==

> <s_epik_cmdline>
J2VwaWtfcHl0aG9uJywgJy1waCcsICc3LjAnLCAnLXRuJywgJzgnLCAnLW1hJywgJzIwMCcsICctbWV0YWxfYmluZGluZycsICctaW1hZScsICc8aW5maWxlLm1hZT4nLCAnLW9tYWUnLCAnPG91dGZpbGUubWFlPic=

> <r_lp_tautomer_probability>
1

> <r_epik_Ionization_Penalty>
4.4451

> <r_epik_Ionization_Penalty_Charging>
4.28522

> <r_epik_Ionization_Penalty_Neutral>
0.159875

> <r_epik_State_Penalty>
4.28479

> <r_epik_Charging_Adjusted_Penalty>
8.57002

> <i_epik_Tot_Q>
-1

> <i_epik_Tot_abs_Q>
1

> <r_epik_Metal_State_Penalty>
0.721771

> <b_epik_Metal_Only>
1

> <s_lp_Force_Field>
OPLS_2005

> <r_lp_Energy>
14.6033

> <b_lp_Chiralities_Consistent>
1

> <s_lp_Variant>
AV-unprocessed.smi:2521-3

> <Gold.Version>
5.8.1

> <Gold.Id.Protein>
6NUR|6NUR_protein|mol2

> <Gold.PLP.Fitness>
37.2846

> <Gold.PLP.PLP>
-31.5222

> <Gold.PLP.part.hbond>
-2.0000

> <Gold.PLP.part.metal>
0.0000

> <Gold.PLP.part.buried>
-6.7421

> <Gold.PLP.part.nonpolar>
-23.2119

> <Gold.PLP.part.repulsive>
0.3813

> <Gold.PLP.ligand.clash>
0.0000

> <Gold.PLP.ligand.torsion>
0.1626

> <Gold.PLP.Chemscore.Hbond>
2.0000

> <Gold.PLP.Chemscore.CHOScore>
0.0000

> <Gold.PLP.Chemscore.Metal>
0.0000

> <Gold.Chemscore.Hbonds>
donor molecule, donor type, donor heavy atom, donor atom, acceptor molecule, acceptor atom, score
      P1  H  7989  7998       L1    10  1.00
      P1  H 10752 10765       L1     5  0.95

> <Gold.PLP.Chemscore.Internal.Correction>
0.0875

> <Gold.Rescore>
     Score         DG    S(hbond)    S(metal)    S(lipo)     H(rot)  DE(clash)    DE(int)     intcor
     15.18     -16.72       1.67        0.00      79.38       1.42       0.02       1.51       ----

> <Gold.Chemscore.Fitness>
15.1820

> <Gold.Chemscore.DG>
-16.7163

> <Gold.Chemscore.ZeroCoef>
-5.4800

> <Gold.Chemscore.Hbond>
1.6712

> <Gold.Chemscore.Metal>
0.0000

> <Gold.Chemscore.Lipo>
79.3829

> <Gold.Chemscore.Internal_Hbond>
0.0000

> <Gold.Chemscore.DEClash>
0.0222

> <Gold.Chemscore.DEInternal>
1.5121

> <Gold.Chemscore.Rot>
1.4193

> <Gold.Chemscore.Internal.Correction>
   9.000000E+99

> <Gold.Chemscore.Hbonds>
donor molecule, donor type, donor heavy atom, donor atom, acceptor molecule, acceptor atom, score
      P1  H  7989  7998       L1    10  0.95
      P1  H 10752 10765       L1     5  0.15

> <Gold.Chemscore.Hbond.Weighted>
-5.5819

> <Gold.Chemscore.Metal.Weighted>
-0.0000

> <Gold.Chemscore.Lipo.Weighted>
-9.2878

> <Gold.Chemscore.Internal_Hbond.Weighted>
0.0000

> <Gold.Chemscore.DEClash.Weighted>
0.0222

> <Gold.Chemscore.DEInternal.Weighted>
1.5121

> <Gold.Chemscore.Rot.Weighted>
3.6333

> <Gold.Chemscore.Internal.Correction.Weighted>
   9.000000E+99

> <Gold.Protein.RotatedTorsions>
[ 6907 6896 6895 6894 ] final -124.32 input  -60.11 | X-H torsion
[ 7974 7965 7964 7962 ] final  120.73 input  175.53 | X-H torsion
[ 8008 7997 7996 7995 ] final  -69.51 input   59.86 | X-H torsion
[ 10167 10162 10161 10158 ] final   -6.66 input  -65.29 | X-H torsion
[ 10718 10713 10712 10709 ] final  170.83 input   66.30 | X-H torsion
[ 10763 10752 10751 10750 ] final -168.83 input  -60.55 | X-H torsion
[ 11005 11000 10999 10996 ] final   43.64 input  -57.11 | X-H torsion

> <Gold.Protein.ActiveResidues>
 VAL166  LYS551  ARG553  GLY616  TRP617  ASP618  TYR619  PRO620  LYS621  CYS622 
 ASP623  PHE694  ASN695  SER759  ASP760  ASP761  ALA762  ILE779  LEU786  VAL792 
 PHE793  MET794  SER795  GLU796  ALA797  LYS798  CYS799  TRP800  GLU811  SER814 

> <Gold.Protein.RotatedAtoms>
  150.8756  133.7443  159.2947 H   0  0  0  0  0  0  0  0  0  0  0  0  # atno 6907 bound_to 6896
  151.5041  135.1061  159.9846 H   0  0  0  0  0  0  0  0  0  0  0  0  # atno 6908 bound_to 6896
  152.4725  133.8017  159.7012 H   0  0  0  0  0  0  0  0  0  0  0  0  # atno 6909 bound_to 6896
  145.1277  139.3347  143.4681 H   0  0  0  0  0  0  0  0  0  0  0  0  # atno 7974 bound_to 7965
  154.4944  140.0852  156.7665 H   0  0  0  0  0  0  0  0  0  0  0  0  # atno 8008 bound_to 7997
  155.4152  140.3443  155.4248 H   0  0  0  0  0  0  0  0  0  0  0  0  # atno 8009 bound_to 7997
  156.1374  140.1519  156.8961 H   0  0  0  0  0  0  0  0  0  0  0  0  # atno 8010 bound_to 7997
  140.7004  143.6168  150.8650 H   0  0  0  0  0  0  0  0  0  0  0  0  # atno 10167 bound_to 10162
  157.0025  131.0180  151.2826 H   0  0  0  0  0  0  0  0  0  0  0  0  # atno 10718 bound_to 10713
  154.6587  135.2922  154.9894 H   0  0  0  0  0  0  0  0  0  0  0  0  # atno 10763 bound_to 10752
  154.0961  135.6583  153.4864 H   0  0  0  0  0  0  0  0  0  0  0  0  # atno 10764 bound_to 10752
  153.0417  135.5231  154.7528 H   0  0  0  0  0  0  0  0  0  0  0  0  # atno 10765 bound_to 10752
  140.1626  134.4322  155.8308 H   0  0  0  0  0  0  0  0  0  0  0  0  # atno 11005 bound_to 11000
  146.3516  140.1263  142.8598 LP  0  0  0  0  0  0  0  0  0  0  0  0  # atno 17320 bound_to 7965
  145.0670  140.9128  143.4905 LP  0  0  0  0  0  0  0  0  0  0  0  0  # atno 17321 bound_to 7965
  139.9890  143.5868  152.2917 LP  0  0  0  0  0  0  0  0  0  0  0  0  # atno 17342 bound_to 10162
  139.6516  144.7661  151.2137 LP  0  0  0  0  0  0  0  0  0  0  0  0  # atno 17343 bound_to 10162
  157.5380  130.8101  149.7995 LP  0  0  0  0  0  0  0  0  0  0  0  0  # atno 17370 bound_to 10713
  156.0166  130.3811  150.2092 LP  0  0  0  0  0  0  0  0  0  0  0  0  # atno 17371 bound_to 10713
  141.2211  133.6920  156.7621 LP  0  0  0  0  0  0  0  0  0  0  0  0  # atno 17394 bound_to 11000
  140.2471  134.8569  157.3631 LP  0  0  0  0  0  0  0  0  0  0  0  0  # atno 17395 bound_to 11000

$$$$
