AV-unprocessed.smi:601|AV-procd|sdf|3034|dock9
  -GOLD-   2262023553D 1   1.00000     0.00000
 Structure written by MMmdl.
 49 50  0  0  0  0  0  0  0  0  2 V2000
  150.8434  133.9413  156.0746 C   0  0  0  0  0  0  0  0  0  0  0  0
  149.5250  134.6178  155.6757 C   0  0  0  0  0  0  0  0  0  0  0  0
  149.0918  135.7400  156.6324 C   0  0  0  0  0  0  0  0  0  0  0  0
  148.9834  135.2899  158.1020 C   0  0  0  0  0  0  0  0  0  0  0  0
  148.8663  136.4312  159.0228 N   0  0  0  0  0  0  0  0  0  0  0  0
  148.3112  136.2820  160.2558 C   0  0  0  0  0  0  0  0  0  0  0  0
  148.2511  137.2175  161.0563 O   0  0  0  0  0  0  0  0  0  0  0  0
  147.7587  134.9018  160.6766 C   0  0  1  0  0  0  0  0  0  0  0  0
  147.3993  134.7392  162.1628 C   0  0  0  0  0  0  0  0  0  0  0  0
  146.2190  133.7746  162.1529 C   0  0  0  0  0  0  0  0  0  0  0  0
  145.9267  133.5490  160.6692 C   0  0  0  0  0  0  0  0  0  0  0  0
  146.5154  134.6693  160.0326 O   0  0  0  0  0  0  0  0  0  0  0  0
  149.4045  137.6554  158.5823 C   0  0  0  0  0  0  0  0  0  0  0  0
  148.6872  138.5464  157.8470 C   0  0  0  0  0  0  0  0  0  0  0  0
  147.3749  138.2782  157.4835 N   0  0  0  0  0  0  0  0  0  0  0  0
  149.2803  139.7715  157.4387 N   0  0  0  0  0  0  0  0  0  0  0  0
  148.4695  140.7299  156.6526 C   0  0  0  0  0  0  0  0  0  0  0  0
  149.0980  141.0736  155.2854 C   0  0  0  0  0  0  0  0  0  0  0  0
  148.1173  141.6774  154.2714 C   0  0  0  0  0  0  0  0  0  0  0  0
  150.5763  140.0644  157.7709 C   0  0  0  0  0  0  0  0  0  0  0  0
  151.0710  141.1290  157.3978 O   0  0  0  0  0  0  0  0  0  0  0  0
  151.2922  139.1656  158.5050 N   0  5  0  0  0  0  0  0  0  0  0  0
  150.7919  137.9771  158.9333 C   0  0  0  0  0  0  0  0  0  0  0  0
  151.4625  137.1830  159.5936 O   0  0  0  0  0  0  0  0  0  0  0  0
  151.1378  133.2011  155.3305 H   0  0  0  0  0  0  0  0  0  0  0  0
  150.7579  133.4265  157.0314 H   0  0  0  0  0  0  0  0  0  0  0  0
  151.6510  134.6697  156.1551 H   0  0  0  0  0  0  0  0  0  0  0  0
  149.6424  135.0378  154.6762 H   0  0  0  0  0  0  0  0  0  0  0  0
  148.7345  133.8706  155.5983 H   0  0  0  0  0  0  0  0  0  0  0  0
  149.7889  136.5739  156.5487 H   0  0  0  0  0  0  0  0  0  0  0  0
  148.1248  136.1198  156.3010 H   0  0  0  0  0  0  0  0  0  0  0  0
  148.1355  134.6148  158.2295 H   0  0  0  0  0  0  0  0  0  0  0  0
  149.8612  134.6998  158.3677 H   0  0  0  0  0  0  0  0  0  0  0  0
  148.4593  134.1131  160.3990 H   0  0  0  0  0  0  0  0  0  0  0  0
  148.2398  134.3497  162.7378 H   0  0  0  0  0  0  0  0  0  0  0  0
  147.0875  135.6765  162.6248 H   0  0  0  0  0  0  0  0  0  0  0  0
  146.4451  132.8367  162.6609 H   0  0  0  0  0  0  0  0  0  0  0  0
  145.3603  134.2272  162.6502 H   0  0  0  0  0  0  0  0  0  0  0  0
  146.4080  132.6372  160.3113 H   0  0  0  0  0  0  0  0  0  0  0  0
  144.8601  133.4809  160.4547 H   0  0  0  0  0  0  0  0  0  0  0  0
  146.9154  137.4199  157.7515 H   0  0  0  0  0  0  0  0  0  0  0  0
  146.8841  138.8596  156.8194 H   0  0  0  0  0  0  0  0  0  0  0  0
  147.4680  140.3267  156.5014 H   0  0  0  0  0  0  0  0  0  0  0  0
  148.2841  141.6543  157.2013 H   0  0  0  0  0  0  0  0  0  0  0  0
  149.9374  141.7558  155.4186 H   0  0  0  0  0  0  0  0  0  0  0  0
  149.5197  140.1625  154.8603 H   0  0  0  0  0  0  0  0  0  0  0  0
  148.6036  141.8338  153.3086 H   0  0  0  0  0  0  0  0  0  0  0  0
  147.7393  142.6430  154.6079 H   0  0  0  0  0  0  0  0  0  0  0  0
  147.2633  141.0192  154.1103 H   0  0  0  0  0  0  0  0  0  0  0  0
  1  2  1  0  0  0  0
  1 25  1  0  0  0  0
  1 26  1  0  0  0  0
  1 27  1  0  0  0  0
  2  3  1  0  0  0  0
  2 28  1  0  0  0  0
  2 29  1  0  0  0  0
  3  4  1  0  0  0  0
  3 30  1  0  0  0  0
  3 31  1  0  0  0  0
  4  5  1  0  0  0  0
  4 32  1  0  0  0  0
  4 33  1  0  0  0  0
  5  6  1  0  0  0  0
  5 13  1  0  0  0  0
  6  7  2  0  0  0  0
  6  8  1  0  0  0  0
  8 12  1  0  0  0  0
  8  9  1  0  0  0  0
  8 34  1  0  0  0  0
  9 10  1  0  0  0  0
  9 35  1  0  0  0  0
  9 36  1  0  0  0  0
 10 11  1  0  0  0  0
 10 37  1  0  0  0  0
 10 38  1  0  0  0  0
 11 12  1  0  0  0  0
 11 39  1  0  0  0  0
 11 40  1  0  0  0  0
 13 23  1  0  0  0  0
 13 14  2  0  0  0  0
 14 15  1  0  0  0  0
 14 16  1  0  0  0  0
 15 41  1  0  0  0  0
 15 42  1  0  0  0  0
 16 17  1  0  0  0  0
 16 20  1  0  0  0  0
 17 18  1  0  0  0  0
 17 43  1  0  0  0  0
 17 44  1  0  0  0  0
 18 19  1  0  0  0  0
 18 45  1  0  0  0  0
 18 46  1  0  0  0  0
 19 47  1  0  0  0  0
 19 48  1  0  0  0  0
 19 49  1  0  0  0  0
 20 21  2  0  0  0  0
 20 22  1  0  0  0  0
 22 23  1  0  0  0  0
 23 24  2  0  0  0  0
M  CHG  1  22  -1
M  END
> <s_m_source_file>
AV-unprocessed.smi

> <i_m_source_file_index>
601

> <i_lp_mmshare_version>
43012

> <i_f3d_flags>
0

> <s_epik_input>
TzFbQ0gyXVtDSDJdW0NIMl1bQ0BIXTFDKD1PKU4oW0NIMl1bQ0gyXVtDSDJdW0NIM10pYzJjKFtOSDJdKW4oW0NIMl1bQ0gyXVtDSDNdKWMoPU8pW25IXWMyPU8=

> <s_epik_cmdline>
J2VwaWtfcHl0aG9uJywgJy1waCcsICc3LjAnLCAnLXRuJywgJzgnLCAnLW1hJywgJzIwMCcsICctbWV0YWxfYmluZGluZycsICctaW1hZScsICc8aW5maWxlLm1hZT4nLCAnLW9tYWUnLCAnPG91dGZpbGUubWFlPic=

> <r_lp_tautomer_probability>
1

> <r_epik_Ionization_Penalty>
5.90608

> <r_epik_Ionization_Penalty_Charging>
4.55687e-07

> <r_epik_Ionization_Penalty_Neutral>
5.90608

> <r_epik_State_Penalty>
5.90604

> <r_epik_Charging_Adjusted_Penalty>
5.90604

> <i_epik_Tot_Q>
-1

> <i_epik_Tot_abs_Q>
1

> <r_epik_Metal_State_Penalty>
1.84043

> <b_epik_Metal_Only>
1

> <s_lp_Force_Field>
OPLS_2005

> <r_lp_Energy>
54.0415

> <b_lp_Chiralities_Consistent>
1

> <s_lp_Variant>
AV-unprocessed.smi:601-4

> <Gold.Version>
5.8.1

> <Gold.Id.Protein>
6NUR|6NUR_protein|mol2

> <Gold.PLP.Fitness>
37.6122

> <Gold.PLP.PLP>
-32.4460

> <Gold.PLP.part.hbond>
-2.8865

> <Gold.PLP.part.metal>
0.0000

> <Gold.PLP.part.buried>
-5.3535

> <Gold.PLP.part.nonpolar>
-24.2327

> <Gold.PLP.part.repulsive>
0.0760

> <Gold.PLP.ligand.clash>
0.0000

> <Gold.PLP.ligand.torsion>
2.2742

> <Gold.PLP.Chemscore.Hbond>
2.5193

> <Gold.PLP.Chemscore.CHOScore>
0.0000

> <Gold.PLP.Chemscore.Metal>
0.0000

> <Gold.Chemscore.Hbonds>
donor molecule, donor type, donor heavy atom, donor atom, acceptor molecule, acceptor atom, score
      P1  H  6896  6907       L1    24  0.88
      P1  H  6931  6943       L1     7  0.99
      P1  H  6934  6947       L1     7  0.51

> <Gold.PLP.Chemscore.Internal.Correction>
2.1568

> <Gold.Rescore>
     Score         DG    S(hbond)    S(metal)    S(lipo)     H(rot)  DE(clash)    DE(int)     intcor
     14.45     -16.50       2.70        0.00      59.27       1.92       0.01       2.05       ----

> <Gold.Chemscore.Fitness>
14.4479

> <Gold.Chemscore.DG>
-16.5026

> <Gold.Chemscore.ZeroCoef>
-5.4800

> <Gold.Chemscore.Hbond>
2.6956

> <Gold.Chemscore.Metal>
0.0000

> <Gold.Chemscore.Lipo>
59.2708

> <Gold.Chemscore.Internal_Hbond>
0.0000

> <Gold.Chemscore.DEClash>
0.0088

> <Gold.Chemscore.DEInternal>
2.0458

> <Gold.Chemscore.Rot>
1.9201

> <Gold.Chemscore.Internal.Correction>
   9.000000E+99

> <Gold.Chemscore.Hbonds>
donor molecule, donor type, donor heavy atom, donor atom, acceptor molecule, acceptor atom, score
      P1  H  6896  6907       L1    24  0.85
      P1  H  6931  6943       L1     7  0.88
      P1  H  6934  6947       L1     7  0.49

> <Gold.Chemscore.Hbond.Weighted>
-9.0033

> <Gold.Chemscore.Metal.Weighted>
-0.0000

> <Gold.Chemscore.Lipo.Weighted>
-6.9347

> <Gold.Chemscore.Internal_Hbond.Weighted>
0.0000

> <Gold.Chemscore.DEClash.Weighted>
0.0088

> <Gold.Chemscore.DEInternal.Weighted>
2.0458

> <Gold.Chemscore.Rot.Weighted>
4.9154

> <Gold.Chemscore.Internal.Correction.Weighted>
   9.000000E+99

> <Gold.Protein.RotatedTorsions>
[ 6907 6896 6895 6894 ] final  -19.39 input  -60.11 | X-H torsion
[ 7974 7965 7964 7962 ] final -112.25 input  175.53 | X-H torsion
[ 8008 7997 7996 7995 ] final   -4.70 input   59.86 | X-H torsion
[ 10167 10162 10161 10158 ] final -178.68 input  -65.29 | X-H torsion
[ 10718 10713 10712 10709 ] final   -3.29 input   66.30 | X-H torsion
[ 10763 10752 10751 10750 ] final -164.59 input  -60.55 | X-H torsion
[ 11005 11000 10999 10996 ] final   90.28 input  -57.11 | X-H torsion

> <Gold.Protein.ActiveResidues>
 VAL166  LYS551  ARG553  GLY616  TRP617  ASP618  TYR619  PRO620  LYS621  CYS622 
 ASP623  PHE694  ASN695  SER759  ASP760  ASP761  ALA762  ILE779  LEU786  VAL792 
 PHE793  MET794  SER795  GLU796  ALA797  LYS798  CYS799  TRP800  GLU811  SER814 

> <Gold.Protein.RotatedAtoms>
  151.2638  135.0663  159.9108 H   0  0  0  0  0  0  0  0  0  0  0  0  # atno 6907 bound_to 6896
  152.5361  134.0202  159.7988 H   0  0  0  0  0  0  0  0  0  0  0  0  # atno 6908 bound_to 6896
  151.0430  133.5640  159.2680 H   0  0  0  0  0  0  0  0  0  0  0  0  # atno 6909 bound_to 6896
  145.1463  140.8805  143.3672 H   0  0  0  0  0  0  0  0  0  0  0  0  # atno 7974 bound_to 7965
  154.6115  140.2477  155.7662 H   0  0  0  0  0  0  0  0  0  0  0  0  # atno 8008 bound_to 7997
  156.2373  140.2945  156.0299 H   0  0  0  0  0  0  0  0  0  0  0  0  # atno 8009 bound_to 7997
  155.2044  140.0395  157.2913 H   0  0  0  0  0  0  0  0  0  0  0  0  # atno 8010 bound_to 7997
  139.5421  144.2335  152.0916 H   0  0  0  0  0  0  0  0  0  0  0  0  # atno 10167 bound_to 10162
  156.7783  130.5322  149.5755 H   0  0  0  0  0  0  0  0  0  0  0  0  # atno 10718 bound_to 10713
  154.7013  135.2988  154.9336 H   0  0  0  0  0  0  0  0  0  0  0  0  # atno 10763 bound_to 10752
  154.0267  135.6675  153.4781 H   0  0  0  0  0  0  0  0  0  0  0  0  # atno 10764 bound_to 10752
  153.0684  135.5075  154.8159 H   0  0  0  0  0  0  0  0  0  0  0  0  # atno 10765 bound_to 10752
  139.8859  134.8604  156.3262 H   0  0  0  0  0  0  0  0  0  0  0  0  # atno 11005 bound_to 11000
  145.0478  139.3206  143.5944 LP  0  0  0  0  0  0  0  0  0  0  0  0  # atno 17320 bound_to 7965
  146.3499  139.9875  142.8689 LP  0  0  0  0  0  0  0  0  0  0  0  0  # atno 17321 bound_to 7965
  140.1815  144.4840  150.6526 LP  0  0  0  0  0  0  0  0  0  0  0  0  # atno 17342 bound_to 10162
  140.6655  143.2266  151.5753 LP  0  0  0  0  0  0  0  0  0  0  0  0  # atno 17343 bound_to 10162
  156.1234  130.6126  151.0228 LP  0  0  0  0  0  0  0  0  0  0  0  0  # atno 17370 bound_to 10713
  157.6658  131.0872  150.7730 LP  0  0  0  0  0  0  0  0  0  0  0  0  # atno 17371 bound_to 10713
  140.9754  133.7301  156.0594 LP  0  0  0  0  0  0  0  0  0  0  0  0  # atno 17394 bound_to 11000
  140.7818  134.3717  157.5485 LP  0  0  0  0  0  0  0  0  0  0  0  0  # atno 17395 bound_to 11000

$$$$
