AV-unprocessed.smi:1978|AV-procd|sdf|8009|dock5
  -GOLD-   2272010193D 1   1.00000     0.00000
 Structure written by MMmdl.
 44 45  0  0  0  0  0  0  0  0  3 V2000
  151.8659  145.1196  159.9104 C   0  0  0  0  0  0  0  0  0  0  0  0
  151.6868  143.8665  159.1238 C   0  0  0  0  0  0  0  0  0  0  0  0
  151.2210  143.6189  157.8635 C   0  0  0  0  0  0  0  0  0  0  0  0
  151.3174  142.2056  157.7569 C   0  0  0  0  0  0  0  0  0  0  0  0
  150.9153  141.5409  156.5681 N   0  0  0  0  0  0  0  0  0  0  0  0
  151.2952  140.3355  156.1062 C   0  0  0  0  0  0  0  0  0  0  0  0
  152.1218  139.6595  156.7301 O   0  0  0  0  0  0  0  0  0  0  0  0
  150.6728  140.0129  154.9396 N   0  5  0  0  0  0  0  0  0  0  0  0
  150.3467  138.6495  154.5222 C   0  0  0  0  0  0  0  0  0  0  0  0
  148.8392  138.3433  154.7898 C   0  0  1  0  0  0  0  0  0  0  0  0
  147.9626  139.2147  153.8379 C   0  0  0  0  0  0  0  0  0  0  0  0
  148.5691  136.8610  154.6961 N   0  3  1  0  0  0  0  0  0  0  0  0
  149.5419  135.9937  155.4380 C   0  0  0  0  0  0  0  0  0  0  0  0
  149.4372  134.5327  154.9688 C   0  0  0  0  0  0  0  0  0  0  0  0
  148.0127  133.9913  155.1331 C   0  0  0  0  0  0  0  0  0  0  0  0
  147.0039  134.9361  154.4620 C   0  0  0  0  0  0  0  0  0  0  0  0
  147.1620  136.3974  154.9356 C   0  0  1  0  0  0  0  0  0  0  0  0
  146.6880  136.5756  156.3989 C   0  0  0  0  0  0  0  0  0  0  0  0
  151.7993  141.6424  158.8549 N   0  0  0  0  0  0  0  0  0  0  0  0
  152.0383  142.7035  159.7361 O   0  0  0  0  0  0  0  0  0  0  0  0
  151.8616  145.9926  159.2577 H   0  0  0  0  0  0  0  0  0  0  0  0
  152.8126  145.1071  160.4509 H   0  0  0  0  0  0  0  0  0  0  0  0
  151.0622  145.2364  160.6372 H   0  0  0  0  0  0  0  0  0  0  0  0
  150.8668  144.3345  157.1369 H   0  0  0  0  0  0  0  0  0  0  0  0
  150.2467  142.0365  155.9977 H   0  0  0  0  0  0  0  0  0  0  0  0
  150.5627  138.4812  153.4664 H   0  0  0  0  0  0  0  0  0  0  0  0
  150.9661  137.9285  155.0545 H   0  0  0  0  0  0  0  0  0  0  0  0
  148.5935  138.6362  155.8122 H   0  0  0  0  0  0  0  0  0  0  0  0
  148.1763  140.2817  153.9311 H   0  0  0  0  0  0  0  0  0  0  0  0
  146.8996  139.1319  154.0509 H   0  0  0  0  0  0  0  0  0  0  0  0
  148.1020  138.9500  152.7877 H   0  0  0  0  0  0  0  0  0  0  0  0
  150.5730  136.3100  155.2899 H   0  0  0  0  0  0  0  0  0  0  0  0
  149.3736  136.0675  156.5121 H   0  0  0  0  0  0  0  0  0  0  0  0
  149.7333  134.4678  153.9209 H   0  0  0  0  0  0  0  0  0  0  0  0
  150.1379  133.9102  155.5260 H   0  0  0  0  0  0  0  0  0  0  0  0
  147.9388  132.9945  154.6972 H   0  0  0  0  0  0  0  0  0  0  0  0
  147.7796  133.8780  156.1919 H   0  0  0  0  0  0  0  0  0  0  0  0
  147.1453  134.8947  153.3809 H   0  0  0  0  0  0  0  0  0  0  0  0
  145.9875  134.5866  154.6466 H   0  0  0  0  0  0  0  0  0  0  0  0
  146.4915  136.9704  154.2969 H   0  0  0  0  0  0  0  0  0  0  0  0
  145.6213  136.3662  156.4815 H   0  0  0  0  0  0  0  0  0  0  0  0
  146.8477  137.5848  156.7736 H   0  0  0  0  0  0  0  0  0  0  0  0
  147.1954  135.9035  157.0891 H   0  0  0  0  0  0  0  0  0  0  0  0
  148.7302  136.6604  153.7194 H   0  0  0  0  0  0  0  0  0  0  0  0
  1  2  1  0  0  0  0
  1 21  1  0  0  0  0
  1 22  1  0  0  0  0
  1 23  1  0  0  0  0
  2 20  1  0  0  0  0
  2  3  2  0  0  0  0
  3  4  1  0  0  0  0
  3 24  1  0  0  0  0
  4  5  1  0  0  0  0
  4 19  2  0  0  0  0
  5  6  1  0  0  0  0
  5 25  1  0  0  0  0
  6  7  2  0  0  0  0
  6  8  1  0  0  0  0
  8  9  1  0  0  0  0
  9 10  1  0  0  0  0
  9 26  1  0  0  0  0
  9 27  1  0  0  0  0
 10 11  1  0  0  0  0
 10 12  1  0  0  0  0
 10 28  1  0  0  0  0
 11 29  1  0  0  0  0
 11 30  1  0  0  0  0
 11 31  1  0  0  0  0
 12 17  1  0  0  0  0
 12 13  1  0  0  0  0
 12 44  1  0  0  0  0
 13 14  1  0  0  0  0
 13 32  1  0  0  0  0
 13 33  1  0  0  0  0
 14 15  1  0  0  0  0
 14 34  1  0  0  0  0
 14 35  1  0  0  0  0
 15 16  1  0  0  0  0
 15 36  1  0  0  0  0
 15 37  1  0  0  0  0
 16 17  1  0  0  0  0
 16 38  1  0  0  0  0
 16 39  1  0  0  0  0
 17 18  1  0  0  0  0
 17 40  1  0  0  0  0
 18 41  1  0  0  0  0
 18 42  1  0  0  0  0
 18 43  1  0  0  0  0
 19 20  1  0  0  0  0
M  CHG  1   8  -1
M  CHG  1  12   1
M  END
> <s_m_source_file>
AV-unprocessed.smi

> <i_m_source_file_index>
1978

> <i_lp_mmshare_version>
43012

> <i_f3d_flags>
0

> <s_epik_input>
W0NIM11jMVtjSF1jKG5vMSlbTkhdQyg9TylbTkhdW0NIMl1bQ0BIXShbQ0gzXSlOMltDSDJdW0NIMl1bQ0gyXVtDSDJdW0NASF0yW0NIM10=

> <s_epik_cmdline>
J2VwaWtfcHl0aG9uJywgJy1waCcsICc3LjAnLCAnLXRuJywgJzgnLCAnLW1hJywgJzIwMCcsICctbWV0YWxfYmluZGluZycsICctaW1hZScsICc8aW5maWxlLm1hZT4nLCAnLW9tYWUnLCAnPG91dGZpbGUubWFlPic=

> <r_epik_Ionization_Penalty>
6.7666

> <r_epik_Ionization_Penalty_Charging>
6.7666

> <r_epik_Ionization_Penalty_Neutral>
5.77131e-06

> <r_epik_State_Penalty>
6.79217

> <r_epik_Charging_Adjusted_Penalty>
13.5588

> <i_epik_Tot_Q>
0

> <i_epik_Tot_abs_Q>
2

> <r_epik_Metal_State_Penalty>
2.72569

> <b_epik_Metal_Only>
1

> <s_lp_Force_Field>
OPLS_2005

> <r_lp_Energy>
25.8375

> <b_lp_Chiralities_Consistent>
1

> <s_lp_Variant>
AV-unprocessed.smi:1978-18

> <Gold.Version>
5.8.1

> <Gold.Id.Protein>
6NUR|6NUR_protein|mol2

> <Gold.PLP.Fitness>
45.1239

> <Gold.PLP.PLP>
-34.1480

> <Gold.PLP.part.hbond>
-3.0000

> <Gold.PLP.part.metal>
0.0000

> <Gold.PLP.part.buried>
-4.2281

> <Gold.PLP.part.nonpolar>
-26.2431

> <Gold.PLP.part.repulsive>
0.1821

> <Gold.PLP.ligand.clash>
0.0000

> <Gold.PLP.ligand.torsion>
0.5778

> <Gold.PLP.Chemscore.Hbond>
4.0000

> <Gold.PLP.Chemscore.CHOScore>
0.0000

> <Gold.PLP.Chemscore.Metal>
0.0000

> <Gold.Chemscore.Hbonds>
donor molecule, donor type, donor heavy atom, donor atom, acceptor molecule, acceptor atom, score
      L1  H    12    44       P1  7948  2.00
      P1  H  7989  7998       L1     8  1.00
      P1  H  7997  8008       L1     7  0.37

> <Gold.PLP.Chemscore.Internal.Correction>
0.1315

> <Gold.Rescore>
     Score         DG    S(hbond)    S(metal)    S(lipo)     H(rot)  DE(clash)    DE(int)     intcor
     17.04     -19.07       2.56        0.00      76.35       1.52       0.10       1.93       ----

> <Gold.Chemscore.Fitness>
17.0373

> <Gold.Chemscore.DG>
-19.0673

> <Gold.Chemscore.ZeroCoef>
-5.4800

> <Gold.Chemscore.Hbond>
2.5579

> <Gold.Chemscore.Metal>
0.0000

> <Gold.Chemscore.Lipo>
76.3473

> <Gold.Chemscore.Internal_Hbond>
0.0000

> <Gold.Chemscore.DEClash>
0.0965

> <Gold.Chemscore.DEInternal>
1.9335

> <Gold.Chemscore.Rot>
1.5190

> <Gold.Chemscore.Internal.Correction>
   9.000000E+99

> <Gold.Chemscore.Hbonds>
donor molecule, donor type, donor heavy atom, donor atom, acceptor molecule, acceptor atom, score
      L1  H    12    44       P1  7948  1.00
      P1  H  7989  7998       L1     8  0.42
      P1  H  7997  8008       L1     7  0.36

> <Gold.Chemscore.Hbond.Weighted>
-8.5433

> <Gold.Chemscore.Metal.Weighted>
-0.0000

> <Gold.Chemscore.Lipo.Weighted>
-8.9326

> <Gold.Chemscore.Internal_Hbond.Weighted>
0.0000

> <Gold.Chemscore.DEClash.Weighted>
0.0965

> <Gold.Chemscore.DEInternal.Weighted>
1.9335

> <Gold.Chemscore.Rot.Weighted>
3.8886

> <Gold.Chemscore.Internal.Correction.Weighted>
   9.000000E+99

> <Gold.Protein.RotatedTorsions>
[ 6907 6896 6895 6894 ] final  138.84 input  -60.11 | X-H torsion
[ 7974 7965 7964 7962 ] final  -95.44 input  175.53 | X-H torsion
[ 8008 7997 7996 7995 ] final  -45.72 input   59.86 | X-H torsion
[ 10167 10162 10161 10158 ] final   31.76 input  -65.29 | X-H torsion
[ 10718 10713 10712 10709 ] final  164.96 input   66.30 | X-H torsion
[ 10763 10752 10751 10750 ] final   56.52 input  -60.55 | X-H torsion
[ 11005 11000 10999 10996 ] final   76.01 input  -57.11 | X-H torsion

> <Gold.Protein.ActiveResidues>
 VAL166  LYS551  ARG553  GLY616  TRP617  ASP618  TYR619  PRO620  LYS621  CYS622 
 ASP623  PHE694  ASN695  SER759  ASP760  ASP761  ALA762  ILE779  LEU786  VAL792 
 PHE793  MET794  SER795  GLU796  ALA797  LYS798  CYS799  TRP800  GLU811  SER814 

> <Gold.Protein.RotatedAtoms>
  152.2619  133.5305  159.5386 H   0  0  0  0  0  0  0  0  0  0  0  0  # atno 6907 bound_to 6896
  150.7128  134.0817  159.3909 H   0  0  0  0  0  0  0  0  0  0  0  0  # atno 6908 bound_to 6896
  151.8735  135.0480  160.0532 H   0  0  0  0  0  0  0  0  0  0  0  0  # atno 6909 bound_to 6896
  145.3600  140.9490  143.2506 H   0  0  0  0  0  0  0  0  0  0  0  0  # atno 7974 bound_to 7965
  154.4002  140.1389  156.3894 H   0  0  0  0  0  0  0  0  0  0  0  0  # atno 8008 bound_to 7997
  155.7928  140.3478  155.5338 H   0  0  0  0  0  0  0  0  0  0  0  0  # atno 8009 bound_to 7997
  155.8562  140.0949  157.1633 H   0  0  0  0  0  0  0  0  0  0  0  0  # atno 8010 bound_to 7997
  140.4559  144.0979  150.6202 H   0  0  0  0  0  0  0  0  0  0  0  0  # atno 10167 bound_to 10162
  157.0870  131.0407  151.2552 H   0  0  0  0  0  0  0  0  0  0  0  0  # atno 10718 bound_to 10713
  152.9833  135.5673  154.5242 H   0  0  0  0  0  0  0  0  0  0  0  0  # atno 10763 bound_to 10752
  154.4724  135.2785  155.1634 H   0  0  0  0  0  0  0  0  0  0  0  0  # atno 10764 bound_to 10752
  154.3177  135.6275  153.5547 H   0  0  0  0  0  0  0  0  0  0  0  0  # atno 10765 bound_to 10752
  139.9317  134.7565  156.1342 H   0  0  0  0  0  0  0  0  0  0  0  0  # atno 11005 bound_to 11000
  144.8654  139.5116  143.6793 LP  0  0  0  0  0  0  0  0  0  0  0  0  # atno 17320 bound_to 7965
  146.2931  139.7198  142.9146 LP  0  0  0  0  0  0  0  0  0  0  0  0  # atno 17321 bound_to 7965
  140.4151  143.2638  151.9784 LP  0  0  0  0  0  0  0  0  0  0  0  0  # atno 17342 bound_to 10162
  139.4801  144.5881  151.7819 LP  0  0  0  0  0  0  0  0  0  0  0  0  # atno 17343 bound_to 10162
  157.4753  130.7733  149.7362 LP  0  0  0  0  0  0  0  0  0  0  0  0  # atno 17370 bound_to 10713
  155.9908  130.3942  150.3012 LP  0  0  0  0  0  0  0  0  0  0  0  0  # atno 17371 bound_to 10713
  141.0910  133.6714  156.2540 LP  0  0  0  0  0  0  0  0  0  0  0  0  # atno 17394 bound_to 11000
  140.6183  134.5387  157.5544 LP  0  0  0  0  0  0  0  0  0  0  0  0  # atno 17395 bound_to 11000

$$$$
