AV-unprocessed.smi:240|AV-procd|sdf|1834|dock8
  -GOLD-   2262020443D 1   1.00000     0.00000
 Structure written by MMmdl.
 55 59  0  0  0  0  0  0  0  0  1 V2000
  150.3329  142.4541  155.9235 O   0  0  0  0  0  0  0  0  0  0  0  0
  150.0758  142.1982  157.2889 C   0  0  2  0  0  0  0  0  0  0  0  0
  150.6828  143.3260  158.1451 C   0  0  0  0  0  0  0  0  0  0  0  0
  151.4015  142.6334  159.3046 C   0  0  0  0  0  0  0  0  0  0  0  0
  151.8638  141.3058  158.7104 C   0  0  0  0  0  0  0  0  0  0  0  0
  150.6836  140.8771  157.8288 C   0  0  2  0  0  0  0  0  0  0  0  0
  150.9517  139.6947  156.8433 C   0  0  2  0  0  0  0  0  0  0  0  0
  152.1134  139.9445  155.8453 C   0  0  0  0  0  0  0  0  0  0  0  0
  152.2982  138.8112  155.0047 O   0  0  0  0  0  0  0  0  0  0  0  0
  151.1436  138.5336  154.2250 C   0  0  0  0  0  0  0  0  0  0  0  0
  149.9840  138.1850  155.1663 C   0  0  0  0  0  0  0  0  0  0  0  0
  149.7505  139.2739  156.1072 N   0  0  0  0  0  0  0  0  0  0  0  0
  148.6243  139.0531  156.8225 C   0  0  0  0  0  0  0  0  0  0  0  0
  147.6318  139.9680  156.6984 N   0  0  0  0  0  0  0  0  0  0  0  0
  146.4923  139.8138  157.3788 C   0  0  0  0  0  0  0  0  0  0  0  0
  146.1453  138.8328  158.2148 N   0  0  0  0  0  0  0  0  0  0  0  0
  147.1360  137.9020  158.3286 C   0  0  0  0  0  0  0  0  0  0  0  0
  148.3993  137.9337  157.6737 C   0  0  0  0  0  0  0  0  0  0  0  0
  149.1468  136.8193  158.0340 N   0  0  0  0  0  0  0  0  0  0  0  0
  148.3731  136.1702  158.8603 C   0  0  0  0  0  0  0  0  0  0  0  0
  147.1414  136.7429  159.0857 N   0  0  0  0  0  0  0  0  0  0  0  0
  146.0857  136.2358  159.9503 C   0  0  0  0  0  0  0  0  0  0  0  0
  146.4302  136.2982  161.4589 C   0  0  2  0  0  0  0  0  0  0  0  0
  146.4058  137.6493  161.8818 O   0  0  0  0  0  0  0  0  0  0  0  0
  147.8068  135.7052  161.7693 C   0  0  0  0  0  0  0  0  0  0  0  0
  147.4841  134.4064  162.4986 C   0  0  0  0  0  0  0  0  0  0  0  0
  146.3152  134.7404  163.2249 O   0  0  0  0  0  0  0  0  0  0  0  0
  145.4752  135.4743  162.3460 C   0  0  0  0  0  0  0  0  0  0  0  0
  149.7934  143.1809  155.6504 H   0  0  0  0  0  0  0  0  0  0  0  0
  148.9931  142.1745  157.4188 H   0  0  0  0  0  0  0  0  0  0  0  0
  151.4156  143.8932  157.5684 H   0  0  0  0  0  0  0  0  0  0  0  0
  149.9294  144.0336  158.4924 H   0  0  0  0  0  0  0  0  0  0  0  0
  152.2264  143.2265  159.7010 H   0  0  0  0  0  0  0  0  0  0  0  0
  150.7000  142.4492  160.1195 H   0  0  0  0  0  0  0  0  0  0  0  0
  152.7603  141.4841  158.1180 H   0  0  0  0  0  0  0  0  0  0  0  0
  152.1060  140.5671  159.4750 H   0  0  0  0  0  0  0  0  0  0  0  0
  149.9500  140.5084  158.5473 H   0  0  0  0  0  0  0  0  0  0  0  0
  151.2670  138.8457  157.4499 H   0  0  0  0  0  0  0  0  0  0  0  0
  151.9501  140.8261  155.2270 H   0  0  0  0  0  0  0  0  0  0  0  0
  153.0513  140.1016  156.3759 H   0  0  0  0  0  0  0  0  0  0  0  0
  150.8950  139.3888  153.5943 H   0  0  0  0  0  0  0  0  0  0  0  0
  151.3545  137.6951  153.5613 H   0  0  0  0  0  0  0  0  0  0  0  0
  149.0824  137.9930  154.5828 H   0  0  0  0  0  0  0  0  0  0  0  0
  150.2136  137.2705  155.7153 H   0  0  0  0  0  0  0  0  0  0  0  0
  145.7523  140.5866  157.2321 H   0  0  0  0  0  0  0  0  0  0  0  0
  148.6831  135.2472  159.3281 H   0  0  0  0  0  0  0  0  0  0  0  0
  145.1788  136.8079  159.7495 H   0  0  0  0  0  0  0  0  0  0  0  0
  145.8680  135.2082  159.6563 H   0  0  0  0  0  0  0  0  0  0  0  0
  145.9882  137.6903  162.7285 H   0  0  0  0  0  0  0  0  0  0  0  0
  148.4201  135.5401  160.8828 H   0  0  0  0  0  0  0  0  0  0  0  0
  148.3720  136.3557  162.4390 H   0  0  0  0  0  0  0  0  0  0  0  0
  147.2640  133.6036  161.7928 H   0  0  0  0  0  0  0  0  0  0  0  0
  148.2897  134.0799  163.1563 H   0  0  0  0  0  0  0  0  0  0  0  0
  144.7539  136.0809  162.8951 H   0  0  0  0  0  0  0  0  0  0  0  0
  144.9142  134.7511  161.7537 H   0  0  0  0  0  0  0  0  0  0  0  0
  1  2  1  0  0  0  0
  1 29  1  0  0  0  0
  2  6  1  0  0  0  0
  2  3  1  0  0  0  0
  2 30  1  0  0  0  0
  3  4  1  0  0  0  0
  3 31  1  0  0  0  0
  3 32  1  0  0  0  0
  4  5  1  0  0  0  0
  4 33  1  0  0  0  0
  4 34  1  0  0  0  0
  5  6  1  0  0  0  0
  5 35  1  0  0  0  0
  5 36  1  0  0  0  0
  6  7  1  0  0  0  0
  6 37  1  0  0  0  0
  7 12  1  0  0  0  0
  7  8  1  0  0  0  0
  7 38  1  0  0  0  0
  8  9  1  0  0  0  0
  8 39  1  0  0  0  0
  8 40  1  0  0  0  0
  9 10  1  0  0  0  0
 10 11  1  0  0  0  0
 10 41  1  0  0  0  0
 10 42  1  0  0  0  0
 11 12  1  0  0  0  0
 11 43  1  0  0  0  0
 11 44  1  0  0  0  0
 12 13  1  0  0  0  0
 13 18  1  0  0  0  0
 13 14  2  0  0  0  0
 14 15  1  0  0  0  0
 15 16  2  0  0  0  0
 15 45  1  0  0  0  0
 16 17  1  0  0  0  0
 17 21  1  0  0  0  0
 17 18  2  0  0  0  0
 18 19  1  0  0  0  0
 19 20  2  0  0  0  0
 20 21  1  0  0  0  0
 20 46  1  0  0  0  0
 21 22  1  0  0  0  0
 22 23  1  0  0  0  0
 22 47  1  0  0  0  0
 22 48  1  0  0  0  0
 23 28  1  0  0  0  0
 23 24  1  0  0  0  0
 23 25  1  0  0  0  0
 24 49  1  0  0  0  0
 25 26  1  0  0  0  0
 25 50  1  0  0  0  0
 25 51  1  0  0  0  0
 26 27  1  0  0  0  0
 26 52  1  0  0  0  0
 26 53  1  0  0  0  0
 27 28  1  0  0  0  0
 28 54  1  0  0  0  0
 28 55  1  0  0  0  0
M  END
> <s_m_source_file>
AV-unprocessed.smi

> <i_m_source_file_index>
240

> <i_lp_mmshare_version>
43012

> <i_f3d_flags>
0

> <s_epik_input>
W09IXVtDQEBIXTFbQ0gyXVtDSDJdW0NIMl1bQ0BIXTFbQ0BASF0yW0NIMl1PW0NIMl1bQ0gyXU4yYyhuW2NIXW4zKWMoYzM0KW5bY0hdbjRbQ0gyXVtDQEBdNShbT0hdKVtDSDJdW0NIMl1PW0NIMl01

> <s_epik_cmdline>
J2VwaWtfcHl0aG9uJywgJy1waCcsICc3LjAnLCAnLXRuJywgJzgnLCAnLW1hJywgJzIwMCcsICctbWV0YWxfYmluZGluZycsICctaW1hZScsICc8aW5maWxlLm1hZT4nLCAnLW9tYWUnLCAnPG91dGZpbGUubWFlPic=

> <r_lp_tautomer_probability>
1

> <r_epik_Ionization_Penalty>
0.000130618

> <r_epik_Ionization_Penalty_Charging>
0

> <r_epik_Ionization_Penalty_Neutral>
0.000130618

> <r_epik_State_Penalty>
-0

> <r_epik_Charging_Adjusted_Penalty>
0

> <i_epik_Tot_Q>
0

> <i_epik_Tot_abs_Q>
0

> <r_epik_Metal_State_Penalty>
-0

> <b_epik_Metal_Only>
0

> <s_lp_Force_Field>
OPLS_2005

> <r_lp_Energy>
66.7643

> <b_lp_Chiralities_Consistent>
1

> <s_lp_Variant>
AV-unprocessed.smi:240-11

> <Gold.Version>
5.8.1

> <Gold.Id.Protein>
6NUR|6NUR_protein|mol2

> <Gold.PLP.Fitness>
42.4593

> <Gold.PLP.PLP>
-37.4927

> <Gold.PLP.part.hbond>
-4.1245

> <Gold.PLP.part.metal>
0.0000

> <Gold.PLP.part.buried>
-7.7959

> <Gold.PLP.part.nonpolar>
-26.1253

> <Gold.PLP.part.repulsive>
0.0545

> <Gold.PLP.ligand.clash>
0.0022

> <Gold.PLP.ligand.torsion>
0.3614

> <Gold.PLP.Chemscore.Hbond>
1.8160

> <Gold.PLP.Chemscore.CHOScore>
0.0000

> <Gold.PLP.Chemscore.Metal>
0.0000

> <Gold.Chemscore.Hbonds>
donor molecule, donor type, donor heavy atom, donor atom, acceptor molecule, acceptor atom, score
      L1  H     1    29       P1  8028  1.00
      P1  H  6934  6947       L1    24  0.82

> <Gold.PLP.Chemscore.Internal.Correction>
0.2435

> <Gold.Rescore>
     Score         DG    S(hbond)    S(metal)    S(lipo)     H(rot)  DE(clash)    DE(int)     intcor
     14.14     -14.70       1.84        0.00      91.98       3.00       0.01       0.55       ----

> <Gold.Chemscore.Fitness>
14.1411

> <Gold.Chemscore.DG>
-14.6967

> <Gold.Chemscore.ZeroCoef>
-5.4800

> <Gold.Chemscore.Hbond>
1.8397

> <Gold.Chemscore.Metal>
0.0000

> <Gold.Chemscore.Lipo>
91.9822

> <Gold.Chemscore.Internal_Hbond>
0.0000

> <Gold.Chemscore.DEClash>
0.0053

> <Gold.Chemscore.DEInternal>
0.5504

> <Gold.Chemscore.Rot>
3.0039

> <Gold.Chemscore.Internal.Correction>
   9.000000E+99

> <Gold.Chemscore.Hbonds>
donor molecule, donor type, donor heavy atom, donor atom, acceptor molecule, acceptor atom, score
      L1  H     1    29       P1  8028  1.00
      P1  H  6934  6947       L1    24  0.81

> <Gold.Chemscore.Hbond.Weighted>
-6.1447

> <Gold.Chemscore.Metal.Weighted>
-0.0000

> <Gold.Chemscore.Lipo.Weighted>
-10.7619

> <Gold.Chemscore.Internal_Hbond.Weighted>
0.0000

> <Gold.Chemscore.DEClash.Weighted>
0.0053

> <Gold.Chemscore.DEInternal.Weighted>
0.5504

> <Gold.Chemscore.Rot.Weighted>
7.6899

> <Gold.Chemscore.Internal.Correction.Weighted>
   9.000000E+99

> <Gold.Protein.RotatedTorsions>
[ 6907 6896 6895 6894 ] final   83.63 input  -60.11 | X-H torsion
[ 7974 7965 7964 7962 ] final   62.99 input  175.53 | X-H torsion
[ 8008 7997 7996 7995 ] final  130.92 input   59.86 | X-H torsion
[ 10167 10162 10161 10158 ] final   22.46 input  -65.29 | X-H torsion
[ 10718 10713 10712 10709 ] final   22.94 input   66.30 | X-H torsion
[ 10763 10752 10751 10750 ] final   67.20 input  -60.55 | X-H torsion
[ 11005 11000 10999 10996 ] final  143.21 input  -57.11 | X-H torsion

> <Gold.Protein.ActiveResidues>
 VAL166  LYS551  ARG553  GLY616  TRP617  ASP618  TYR619  PRO620  LYS621  CYS622 
 ASP623  PHE694  ASN695  SER759  ASP760  ASP761  ALA762  ILE779  LEU786  VAL792 
 PHE793  MET794  SER795  GLU796  ALA797  LYS798  CYS799  TRP800  GLU811  SER814 

> <Gold.Protein.RotatedAtoms>
  152.5332  134.2865  159.9026 H   0  0  0  0  0  0  0  0  0  0  0  0  # atno 6907 bound_to 6896
  151.2818  133.4199  159.2635 H   0  0  0  0  0  0  0  0  0  0  0  0  # atno 6908 bound_to 6896
  151.0277  134.9531  159.8151 H   0  0  0  0  0  0  0  0  0  0  0  0  # atno 6909 bound_to 6896
  145.8670  139.3352  143.0785 H   0  0  0  0  0  0  0  0  0  0  0  0  # atno 7974 bound_to 7965
  156.2962  140.2584  156.2840 H   0  0  0  0  0  0  0  0  0  0  0  0  # atno 8008 bound_to 7997
  154.9574  140.0393  157.2192 H   0  0  0  0  0  0  0  0  0  0  0  0  # atno 8009 bound_to 7997
  154.7979  140.2823  155.5948 H   0  0  0  0  0  0  0  0  0  0  0  0  # atno 8010 bound_to 7997
  140.5347  143.9782  150.6485 H   0  0  0  0  0  0  0  0  0  0  0  0  # atno 10167 bound_to 10162
  157.1593  130.6710  149.6038 H   0  0  0  0  0  0  0  0  0  0  0  0  # atno 10718 bound_to 10713
  153.0175  135.5292  154.6943 H   0  0  0  0  0  0  0  0  0  0  0  0  # atno 10763 bound_to 10752
  154.6069  135.2874  155.0477 H   0  0  0  0  0  0  0  0  0  0  0  0  # atno 10764 bound_to 10752
  154.1513  135.6562  153.5016 H   0  0  0  0  0  0  0  0  0  0  0  0  # atno 10765 bound_to 10752
  140.0536  134.9242  157.1061 H   0  0  0  0  0  0  0  0  0  0  0  0  # atno 11005 bound_to 11000
  145.9181  140.9134  143.0419 LP  0  0  0  0  0  0  0  0  0  0  0  0  # atno 17320 bound_to 7965
  144.6726  140.1251  143.7447 LP  0  0  0  0  0  0  0  0  0  0  0  0  # atno 17321 bound_to 7965
  140.3166  143.3164  152.0826 LP  0  0  0  0  0  0  0  0  0  0  0  0  # atno 17342 bound_to 10162
  139.4966  144.6601  151.6483 LP  0  0  0  0  0  0  0  0  0  0  0  0  # atno 17343 bound_to 10162
  155.9756  130.4717  150.6474 LP  0  0  0  0  0  0  0  0  0  0  0  0  # atno 17370 bound_to 10713
  157.4147  131.0828  151.1187 LP  0  0  0  0  0  0  0  0  0  0  0  0  # atno 17371 bound_to 10713
  140.3878  134.2217  155.7167 LP  0  0  0  0  0  0  0  0  0  0  0  0  # atno 17394 bound_to 11000
  141.1942  133.8134  157.0768 LP  0  0  0  0  0  0  0  0  0  0  0  0  # atno 17395 bound_to 11000

$$$$
