AV-unprocessed.smi:2107|AV-procd|sdf|8600|dock3
  -GOLD-   2272011333D 1   1.00000     0.00000
 Structure written by MMmdl.
 46 47  0  0  0  0  0  0  0  0  1 V2000
  147.0736  133.1023  161.7913 C   0  0  0  0  0  0  0  0  0  0  0  0
  146.8917  134.5438  162.2855 C   0  0  0  0  0  0  0  0  0  0  0  0
  146.3528  135.4200  161.2251 N   0  0  0  0  0  0  0  0  0  0  0  0
  144.9181  135.7382  161.3453 C   0  0  0  0  0  0  0  0  0  0  0  0
  144.4614  135.7691  162.8110 C   0  0  0  0  0  0  0  0  0  0  0  0
  147.4007  136.6111  160.5137 S   0  0  0  0  0  0  0  0  0  0  0  0
  146.5901  137.7696  160.1062 O   0  0  0  0  0  0  0  0  0  0  0  0
  148.5762  136.7685  161.3833 O   0  0  0  0  0  0  0  0  0  0  0  0
  147.8762  135.7471  159.0971 N   0  0  0  0  0  0  0  0  0  0  0  0
  148.7041  136.4036  158.0826 C   0  0  0  0  0  0  0  0  0  0  0  0
  148.9133  135.5888  156.8052 C   0  0  0  0  0  0  0  0  0  0  0  0
  148.5173  134.2327  156.7487 C   0  0  0  0  0  0  0  0  0  0  0  0
  148.7376  133.4942  155.5728 C   0  0  0  0  0  0  0  0  0  0  0  0
  149.3589  134.1386  154.4892 C   0  0  0  0  0  0  0  0  0  0  0  0
  149.7535  135.4272  154.5266 N   0  0  0  0  0  0  0  0  0  0  0  0
  149.5417  136.1442  155.6577 C   0  0  0  0  0  0  0  0  0  0  0  0
  149.9530  137.4885  155.6504 N   0  0  0  0  0  0  0  0  0  0  0  0
  149.1521  138.3193  154.7606 C   0  0  0  0  0  0  0  0  0  0  0  0
  149.5135  139.8011  154.9596 C   0  0  0  0  0  0  0  0  0  0  0  0
  150.9133  139.9840  154.7645 O   0  0  0  0  0  0  0  0  0  0  0  0
  151.6877  139.2218  155.6867 C   0  0  0  0  0  0  0  0  0  0  0  0
  151.3846  137.7253  155.4998 C   0  0  0  0  0  0  0  0  0  0  0  0
  147.3796  132.4523  162.6110 H   0  0  0  0  0  0  0  0  0  0  0  0
  147.8416  133.0332  161.0225 H   0  0  0  0  0  0  0  0  0  0  0  0
  146.1476  132.7004  161.3799 H   0  0  0  0  0  0  0  0  0  0  0  0
  146.2320  134.5533  163.1538 H   0  0  0  0  0  0  0  0  0  0  0  0
  147.8472  134.9351  162.6348 H   0  0  0  0  0  0  0  0  0  0  0  0
  144.7131  136.6899  160.8538 H   0  0  0  0  0  0  0  0  0  0  0  0
  144.3288  134.9884  160.8188 H   0  0  0  0  0  0  0  0  0  0  0  0
  143.3853  135.9313  162.8737 H   0  0  0  0  0  0  0  0  0  0  0  0
  144.9435  136.5694  163.3721 H   0  0  0  0  0  0  0  0  0  0  0  0
  144.6834  134.8256  163.3107 H   0  0  0  0  0  0  0  0  0  0  0  0
  148.1510  134.7834  159.2864 H   0  0  0  0  0  0  0  0  0  0  0  0
  148.2691  137.3800  157.8727 H   0  0  0  0  0  0  0  0  0  0  0  0
  149.6861  136.5932  158.5156 H   0  0  0  0  0  0  0  0  0  0  0  0
  148.0503  133.7520  157.5935 H   0  0  0  0  0  0  0  0  0  0  0  0
  148.4401  132.4583  155.5055 H   0  0  0  0  0  0  0  0  0  0  0  0
  149.5470  133.6052  153.5694 H   0  0  0  0  0  0  0  0  0  0  0  0
  149.3382  138.0244  153.7270 H   0  0  0  0  0  0  0  0  0  0  0  0
  148.0898  138.1662  154.9498 H   0  0  0  0  0  0  0  0  0  0  0  0
  148.9702  140.4199  154.2455 H   0  0  0  0  0  0  0  0  0  0  0  0
  149.2280  140.1392  155.9571 H   0  0  0  0  0  0  0  0  0  0  0  0
  152.7455  139.4162  155.5095 H   0  0  0  0  0  0  0  0  0  0  0  0
  151.4711  139.5382  156.7083 H   0  0  0  0  0  0  0  0  0  0  0  0
  151.9362  137.1348  156.2325 H   0  0  0  0  0  0  0  0  0  0  0  0
  151.7135  137.4062  154.5099 H   0  0  0  0  0  0  0  0  0  0  0  0
  1  2  1  0  0  0  0
  1 23  1  0  0  0  0
  1 24  1  0  0  0  0
  1 25  1  0  0  0  0
  2  3  1  0  0  0  0
  2 26  1  0  0  0  0
  2 27  1  0  0  0  0
  3  4  1  0  0  0  0
  3  6  1  0  0  0  0
  4  5  1  0  0  0  0
  4 28  1  0  0  0  0
  4 29  1  0  0  0  0
  5 30  1  0  0  0  0
  5 31  1  0  0  0  0
  5 32  1  0  0  0  0
  6  7  2  0  0  0  0
  6  8  2  0  0  0  0
  6  9  1  0  0  0  0
  9 10  1  0  0  0  0
  9 33  1  0  0  0  0
 10 11  1  0  0  0  0
 10 34  1  0  0  0  0
 10 35  1  0  0  0  0
 11 16  1  0  0  0  0
 11 12  2  0  0  0  0
 12 13  1  0  0  0  0
 12 36  1  0  0  0  0
 13 14  2  0  0  0  0
 13 37  1  0  0  0  0
 14 15  1  0  0  0  0
 14 38  1  0  0  0  0
 15 16  2  0  0  0  0
 16 17  1  0  0  0  0
 17 22  1  0  0  0  0
 17 18  1  0  0  0  0
 18 19  1  0  0  0  0
 18 39  1  0  0  0  0
 18 40  1  0  0  0  0
 19 20  1  0  0  0  0
 19 41  1  0  0  0  0
 19 42  1  0  0  0  0
 20 21  1  0  0  0  0
 21 22  1  0  0  0  0
 21 43  1  0  0  0  0
 21 44  1  0  0  0  0
 22 45  1  0  0  0  0
 22 46  1  0  0  0  0
M  END
> <s_m_source_file>
AV-unprocessed.smi

> <i_m_source_file_index>
2107

> <i_lp_mmshare_version>
43012

> <i_f3d_flags>
0

> <s_epik_input>
W0NIM11bQ0gyXU4oW0NIMl1bQ0gzXSlTKD1PKSg9TylbTkhdW0NIMl1jMVtjSF1bY0hdW2NIXW5jMU4yW0NIMl1bQ0gyXU9bQ0gyXVtDSDJdMg==

> <s_epik_cmdline>
J2VwaWtfcHl0aG9uJywgJy1waCcsICc3LjAnLCAnLXRuJywgJzgnLCAnLW1hJywgJzIwMCcsICctbWV0YWxfYmluZGluZycsICctaW1hZScsICc8aW5maWxlLm1hZT4nLCAnLW9tYWUnLCAnPG91dGZpbGUubWFlPic=

> <r_lp_tautomer_probability>
1

> <r_epik_Ionization_Penalty>
0.0173886

> <r_epik_Ionization_Penalty_Charging>
0

> <r_epik_Ionization_Penalty_Neutral>
0.0173886

> <r_epik_State_Penalty>
0.0135122

> <r_epik_Charging_Adjusted_Penalty>
0.0135122

> <i_epik_Tot_Q>
0

> <i_epik_Tot_abs_Q>
0

> <r_epik_Metal_State_Penalty>
0.283451

> <b_epik_Metal_Only>
0

> <s_lp_Force_Field>
OPLS_2005

> <r_lp_Energy>
23.0208

> <b_lp_Chiralities_Consistent>
1

> <s_lp_Variant>
AV-unprocessed.smi:2107-1

> <Gold.Version>
5.8.1

> <Gold.Id.Protein>
6NUR|6NUR_protein|mol2

> <Gold.PLP.Fitness>
39.8259

> <Gold.PLP.PLP>
-31.1598

> <Gold.PLP.part.hbond>
-3.0808

> <Gold.PLP.part.metal>
0.0000

> <Gold.PLP.part.buried>
-6.6593

> <Gold.PLP.part.nonpolar>
-22.8722

> <Gold.PLP.part.repulsive>
0.3251

> <Gold.PLP.ligand.clash>
0.0000

> <Gold.PLP.ligand.torsion>
1.6376

> <Gold.PLP.Chemscore.Hbond>
2.9750

> <Gold.PLP.Chemscore.CHOScore>
0.0000

> <Gold.PLP.Chemscore.Metal>
0.0000

> <Gold.Chemscore.Hbonds>
donor molecule, donor type, donor heavy atom, donor atom, acceptor molecule, acceptor atom, score
      P1  H  6931  6943       L1     8  1.00
      P1  H  6934  6947       L1     7  1.00
      P1  H  7989  7998       L1    20  1.00

> <Gold.PLP.Chemscore.Internal.Correction>
3.0163

> <Gold.Rescore>
     Score         DG    S(hbond)    S(metal)    S(lipo)     H(rot)  DE(clash)    DE(int)     intcor
     15.82     -17.57       2.74        0.00      67.27       1.93       0.07       1.68       ----

> <Gold.Chemscore.Fitness>
15.8179

> <Gold.Chemscore.DG>
-17.5689

> <Gold.Chemscore.ZeroCoef>
-5.4800

> <Gold.Chemscore.Hbond>
2.7417

> <Gold.Chemscore.Metal>
0.0000

> <Gold.Chemscore.Lipo>
67.2746

> <Gold.Chemscore.Internal_Hbond>
0.0000

> <Gold.Chemscore.DEClash>
0.0663

> <Gold.Chemscore.DEInternal>
1.6847

> <Gold.Chemscore.Rot>
1.9295

> <Gold.Chemscore.Internal.Correction>
   9.000000E+99

> <Gold.Chemscore.Hbonds>
donor molecule, donor type, donor heavy atom, donor atom, acceptor molecule, acceptor atom, score
      P1  H  6931  6943       L1     8  0.98
      P1  H  6934  6947       L1     7  0.59
      P1  H  7989  7998       L1    20  0.99

> <Gold.Chemscore.Hbond.Weighted>
-9.1573

> <Gold.Chemscore.Metal.Weighted>
-0.0000

> <Gold.Chemscore.Lipo.Weighted>
-7.8711

> <Gold.Chemscore.Internal_Hbond.Weighted>
0.0000

> <Gold.Chemscore.DEClash.Weighted>
0.0663

> <Gold.Chemscore.DEInternal.Weighted>
1.6847

> <Gold.Chemscore.Rot.Weighted>
4.9395

> <Gold.Chemscore.Internal.Correction.Weighted>
   9.000000E+99

> <Gold.Protein.RotatedTorsions>
[ 6907 6896 6895 6894 ] final  162.68 input  -60.11 | X-H torsion
[ 7974 7965 7964 7962 ] final -129.45 input  175.53 | X-H torsion
[ 8008 7997 7996 7995 ] final   38.99 input   59.86 | X-H torsion
[ 10167 10162 10161 10158 ] final -152.70 input  -65.29 | X-H torsion
[ 10718 10713 10712 10709 ] final   63.65 input   66.30 | X-H torsion
[ 10763 10752 10751 10750 ] final   73.72 input  -60.55 | X-H torsion
[ 11005 11000 10999 10996 ] final   24.09 input  -57.11 | X-H torsion

> <Gold.Protein.ActiveResidues>
 VAL166  LYS551  ARG553  GLY616  TRP617  ASP618  TYR619  PRO620  LYS621  CYS622 
 ASP623  PHE694  ASN695  SER759  ASP760  ASP761  ALA762  ILE779  LEU786  VAL792 
 PHE793  MET794  SER795  GLU796  ALA797  LYS798  CYS799  TRP800  GLU811  SER814 

> <Gold.Protein.RotatedAtoms>
  151.9367  133.3626  159.3950 H   0  0  0  0  0  0  0  0  0  0  0  0  # atno 6907 bound_to 6896
  150.7006  134.4481  159.5333 H   0  0  0  0  0  0  0  0  0  0  0  0  # atno 6908 bound_to 6896
  152.2131  134.8483  160.0546 H   0  0  0  0  0  0  0  0  0  0  0  0  # atno 6909 bound_to 6896
  144.9571  140.7407  143.4752 H   0  0  0  0  0  0  0  0  0  0  0  0  # atno 7974 bound_to 7965
  155.2292  140.3337  155.4305 H   0  0  0  0  0  0  0  0  0  0  0  0  # atno 8008 bound_to 7997
  156.2302  140.1847  156.7308 H   0  0  0  0  0  0  0  0  0  0  0  0  # atno 8009 bound_to 7997
  154.5965  140.0630  156.9295 H   0  0  0  0  0  0  0  0  0  0  0  0  # atno 8010 bound_to 7997
  139.7159  143.9034  152.2486 H   0  0  0  0  0  0  0  0  0  0  0  0  # atno 10167 bound_to 10162
  157.5986  130.9117  149.9743 H   0  0  0  0  0  0  0  0  0  0  0  0  # atno 10718 bound_to 10713
  153.0540  135.5052  154.7936 H   0  0  0  0  0  0  0  0  0  0  0  0  # atno 10763 bound_to 10752
  154.6776  135.2963  154.9659 H   0  0  0  0  0  0  0  0  0  0  0  0  # atno 10764 bound_to 10752
  154.0456  135.6711  153.4847 H   0  0  0  0  0  0  0  0  0  0  0  0  # atno 10765 bound_to 10752
  140.3625  134.2110  155.7671 H   0  0  0  0  0  0  0  0  0  0  0  0  # atno 11005 bound_to 11000
  145.2756  139.1938  143.4818 LP  0  0  0  0  0  0  0  0  0  0  0  0  # atno 17320 bound_to 7965
  146.3341  140.2709  142.8606 LP  0  0  0  0  0  0  0  0  0  0  0  0  # atno 17321 bound_to 7965
  139.8916  144.6962  150.8764 LP  0  0  0  0  0  0  0  0  0  0  0  0  # atno 17342 bound_to 10162
  140.7743  143.3582  151.1880 LP  0  0  0  0  0  0  0  0  0  0  0  0  # atno 17343 bound_to 10162
  156.1053  130.3653  150.0144 LP  0  0  0  0  0  0  0  0  0  0  0  0  # atno 17370 bound_to 10713
  156.8252  130.9373  151.3639 LP  0  0  0  0  0  0  0  0  0  0  0  0  # atno 17371 bound_to 10713
  141.1980  133.8046  157.0603 LP  0  0  0  0  0  0  0  0  0  0  0  0  # atno 17394 bound_to 11000
  140.0616  134.9752  157.1314 LP  0  0  0  0  0  0  0  0  0  0  0  0  # atno 17395 bound_to 11000

$$$$
