AV-unprocessed.smi:1202|AV-procd|sdf|5030|dock7
  -GOLD-   22720 4 53D 1   1.00000     0.00000
 Structure written by MMmdl.
 45 46  0  0  0  0  0  0  0  0  2 V2000
  148.6170  132.8914  153.2717 C   0  0  0  0  0  0  0  0  0  0  0  0
  148.1937  134.2647  153.5002 N   0  0  0  0  0  0  0  0  0  0  0  0
  147.7212  134.7235  154.6677 C   0  0  0  0  0  0  0  0  0  0  0  0
  147.5901  134.0167  155.6677 O   0  0  0  0  0  0  0  0  0  0  0  0
  147.3212  136.2024  154.7022 C   0  0  0  0  0  0  0  0  0  0  0  0
  148.4240  137.1144  154.3027 N   0  3  2  0  0  0  0  0  0  0  0  0
  149.6305  136.9488  155.1531 C   0  0  0  0  0  0  0  0  0  0  0  0
  150.8036  137.7995  154.6320 C   0  0  0  0  0  0  0  0  0  0  0  0
  150.4279  139.2854  154.4987 C   0  0  2  0  0  0  0  0  0  0  0  0
  150.2937  139.8996  155.8191 N   0  0  0  0  0  0  0  0  0  0  0  0
  151.3070  140.1646  156.6580 C   0  0  0  0  0  0  0  0  0  0  0  0
  152.4850  139.9311  156.3855 O   0  0  0  0  0  0  0  0  0  0  0  0
  150.9217  140.8136  157.9948 C   0  0  0  0  0  0  0  0  0  0  0  0
  151.5873  142.1067  158.2253 N   0  0  0  0  0  0  0  0  0  0  0  0
  151.1564  143.1989  157.4463 C   0  0  0  0  0  0  0  0  0  0  0  0
  151.6996  144.4198  157.5735 C   0  0  0  0  0  0  0  0  0  0  0  0
  152.7548  144.6001  158.5425 C   0  0  0  0  0  0  0  0  0  0  0  0
  153.1760  143.5613  159.2912 C   0  0  0  0  0  0  0  0  0  0  0  0
  152.5865  142.2244  159.1537 C   0  0  0  0  0  0  0  0  0  0  0  0
  152.9667  141.2683  159.8306 O   0  0  0  0  0  0  0  0  0  0  0  0
  149.1356  139.4212  153.6693 C   0  0  0  0  0  0  0  0  0  0  0  0
  148.0028  138.5388  154.2219 C   0  0  0  0  0  0  0  0  0  0  0  0
  148.9043  132.7599  152.2285 H   0  0  0  0  0  0  0  0  0  0  0  0
  147.8099  132.1915  153.4925 H   0  0  0  0  0  0  0  0  0  0  0  0
  149.4759  132.6414  153.8956 H   0  0  0  0  0  0  0  0  0  0  0  0
  148.2648  134.9036  152.7210 H   0  0  0  0  0  0  0  0  0  0  0  0
  146.4452  136.3778  154.0752 H   0  0  0  0  0  0  0  0  0  0  0  0
  147.0202  136.4177  155.7284 H   0  0  0  0  0  0  0  0  0  0  0  0
  149.3910  137.2188  156.1828 H   0  0  0  0  0  0  0  0  0  0  0  0
  149.9308  135.9004  155.1640 H   0  0  0  0  0  0  0  0  0  0  0  0
  151.6697  137.6849  155.2852 H   0  0  0  0  0  0  0  0  0  0  0  0
  151.1095  137.4206  153.6557 H   0  0  0  0  0  0  0  0  0  0  0  0
  151.2392  139.7927  153.9732 H   0  0  0  0  0  0  0  0  0  0  0  0
  149.3584  140.1221  156.1278 H   0  0  0  0  0  0  0  0  0  0  0  0
  149.8376  140.9320  158.0135 H   0  0  0  0  0  0  0  0  0  0  0  0
  151.1469  140.1259  158.8125 H   0  0  0  0  0  0  0  0  0  0  0  0
  150.3685  142.9796  156.7403 H   0  0  0  0  0  0  0  0  0  0  0  0
  151.3592  145.2442  156.9645 H   0  0  0  0  0  0  0  0  0  0  0  0
  153.2092  145.5721  158.6671 H   0  0  0  0  0  0  0  0  0  0  0  0
  153.9671  143.7150  160.0103 H   0  0  0  0  0  0  0  0  0  0  0  0
  148.8122  140.4618  153.6260 H   0  0  0  0  0  0  0  0  0  0  0  0
  149.3415  139.1292  152.6386 H   0  0  0  0  0  0  0  0  0  0  0  0
  147.1306  138.6370  153.5753 H   0  0  0  0  0  0  0  0  0  0  0  0
  147.6994  138.8878  155.2101 H   0  0  0  0  0  0  0  0  0  0  0  0
  148.6930  136.8339  153.3699 H   0  0  0  0  0  0  0  0  0  0  0  0
  1  2  1  0  0  0  0
  1 23  1  0  0  0  0
  1 24  1  0  0  0  0
  1 25  1  0  0  0  0
  2  3  1  0  0  0  0
  2 26  1  0  0  0  0
  3  4  2  0  0  0  0
  3  5  1  0  0  0  0
  5  6  1  0  0  0  0
  5 27  1  0  0  0  0
  5 28  1  0  0  0  0
  6 22  1  0  0  0  0
  6  7  1  0  0  0  0
  6 45  1  0  0  0  0
  7  8  1  0  0  0  0
  7 29  1  0  0  0  0
  7 30  1  0  0  0  0
  8  9  1  0  0  0  0
  8 31  1  0  0  0  0
  8 32  1  0  0  0  0
  9 10  1  0  0  0  0
  9 21  1  0  0  0  0
  9 33  1  0  0  0  0
 10 11  1  0  0  0  0
 10 34  1  0  0  0  0
 11 12  2  0  0  0  0
 11 13  1  0  0  0  0
 13 14  1  0  0  0  0
 13 35  1  0  0  0  0
 13 36  1  0  0  0  0
 14 19  1  0  0  0  0
 14 15  1  0  0  0  0
 15 16  2  0  0  0  0
 15 37  1  0  0  0  0
 16 17  1  0  0  0  0
 16 38  1  0  0  0  0
 17 18  2  0  0  0  0
 17 39  1  0  0  0  0
 18 19  1  0  0  0  0
 18 40  1  0  0  0  0
 19 20  2  0  0  0  0
 21 22  1  0  0  0  0
 21 41  1  0  0  0  0
 21 42  1  0  0  0  0
 22 43  1  0  0  0  0
 22 44  1  0  0  0  0
M  CHG  1   6   1
M  END
> <s_m_source_file>
AV-unprocessed.smi

> <i_m_source_file_index>
1202

> <i_lp_mmshare_version>
43012

> <i_f3d_flags>
0

> <s_epik_input>
W0NIM11bTkhdQyg9TylbQ0gyXU4xW0NIMl1bQ0gyXVtDSF0oW0NIMl1bQ0gyXTEpW05IXUMoPU8pW0NIMl1uMltjSF1bY0hdW2NIXVtjSF1jMj1P

> <s_epik_cmdline>
J2VwaWtfcHl0aG9uJywgJy1waCcsICc3LjAnLCAnLXRuJywgJzgnLCAnLW1hJywgJzIwMCcsICctbWV0YWxfYmluZGluZycsICctaW1hZScsICc8aW5maWxlLm1hZT4nLCAnLW9tYWUnLCAnPG91dGZpbGUubWFlPic=

> <r_lp_tautomer_probability>
1

> <r_epik_Ionization_Penalty>
0.983979

> <r_epik_Ionization_Penalty_Charging>
0.983957

> <r_epik_Ionization_Penalty_Neutral>
2.18432e-05

> <r_epik_State_Penalty>
1.03106

> <r_epik_Charging_Adjusted_Penalty>
2.01502

> <i_epik_Tot_Q>
1

> <i_epik_Tot_abs_Q>
1

> <r_epik_Metal_State_Penalty>
1.03477

> <b_epik_Metal_Only>
0

> <s_lp_Force_Field>
OPLS_2005

> <r_lp_Energy>
22.4374

> <b_lp_Chiralities_Consistent>
1

> <s_lp_Variant>
AV-unprocessed.smi:1202-3

> <Gold.Version>
5.8.1

> <Gold.Id.Protein>
6NUR|6NUR_protein|mol2

> <Gold.PLP.Fitness>
53.9608

> <Gold.PLP.PLP>
-40.0316

> <Gold.PLP.part.hbond>
-3.0000

> <Gold.PLP.part.metal>
0.0000

> <Gold.PLP.part.buried>
-0.2716

> <Gold.PLP.part.nonpolar>
-36.0118

> <Gold.PLP.part.repulsive>
0.0805

> <Gold.PLP.ligand.clash>
0.0000

> <Gold.PLP.ligand.torsion>
0.2932

> <Gold.PLP.Chemscore.Hbond>
4.0000

> <Gold.PLP.Chemscore.CHOScore>
0.8181

> <Gold.PLP.Chemscore.Metal>
0.0000

> <Gold.Chemscore.Hbonds>
donor molecule, donor type, donor heavy atom, donor atom, acceptor molecule, acceptor atom, score
      L1  H     2    26       P1  7948  1.00
      L1  H     6    45       P1  7948  2.00
      P1  H  7997  8009       L1    12  1.00
      L1  C    15    37       P1  8028  0.88

> <Gold.PLP.Chemscore.Internal.Correction>
0.0615

> <Gold.Rescore>
     Score         DG    S(hbond)    S(metal)    S(lipo)     H(rot)  DE(clash)    DE(int)     intcor
     18.85     -20.57       2.96        0.00      93.47       2.23       1.38       0.33       ----

> <Gold.Chemscore.Fitness>
18.8538

> <Gold.Chemscore.DG>
-20.5706

> <Gold.Chemscore.ZeroCoef>
-5.4800

> <Gold.Chemscore.Hbond>
2.9568

> <Gold.Chemscore.Metal>
0.0000

> <Gold.Chemscore.Lipo>
93.4652

> <Gold.Chemscore.Internal_Hbond>
0.0000

> <Gold.Chemscore.DEClash>
1.3823

> <Gold.Chemscore.DEInternal>
0.3345

> <Gold.Chemscore.Rot>
2.2346

> <Gold.Chemscore.Internal.Correction>
   9.000000E+99

> <Gold.Chemscore.Hbonds>
donor molecule, donor type, donor heavy atom, donor atom, acceptor molecule, acceptor atom, score
      L1  H     2    26       P1  7948  0.68
      L1  H     6    45       P1  7948  1.00
      P1  H  7997  8009       L1    12  0.99

> <Gold.Chemscore.Hbond.Weighted>
-9.8756

> <Gold.Chemscore.Metal.Weighted>
-0.0000

> <Gold.Chemscore.Lipo.Weighted>
-10.9354

> <Gold.Chemscore.Internal_Hbond.Weighted>
0.0000

> <Gold.Chemscore.DEClash.Weighted>
1.3823

> <Gold.Chemscore.DEInternal.Weighted>
0.3345

> <Gold.Chemscore.Rot.Weighted>
5.7205

> <Gold.Chemscore.Internal.Correction.Weighted>
   9.000000E+99

> <Gold.Protein.RotatedTorsions>
[ 6907 6896 6895 6894 ] final   53.49 input  -60.11 | X-H torsion
[ 7974 7965 7964 7962 ] final  -26.07 input  175.53 | X-H torsion
[ 8008 7997 7996 7995 ] final -174.33 input   59.86 | X-H torsion
[ 10167 10162 10161 10158 ] final  -85.81 input  -65.29 | X-H torsion
[ 10718 10713 10712 10709 ] final   21.57 input   66.30 | X-H torsion
[ 10763 10752 10751 10750 ] final  163.61 input  -60.55 | X-H torsion
[ 11005 11000 10999 10996 ] final  -32.09 input  -57.11 | X-H torsion

> <Gold.Protein.ActiveResidues>
 VAL166  LYS551  ARG553  GLY616  TRP617  ASP618  TYR619  PRO620  LYS621  CYS622 
 ASP623  PHE694  ASN695  SER759  ASP760  ASP761  ALA762  ILE779  LEU786  VAL792 
 PHE793  MET794  SER795  GLU796  ALA797  LYS798  CYS799  TRP800  GLU811  SER814 

> <Gold.Protein.RotatedAtoms>
  152.3342  134.7220  160.0281 H   0  0  0  0  0  0  0  0  0  0  0  0  # atno 6907 bound_to 6896
  151.7626  133.3329  159.3430 H   0  0  0  0  0  0  0  0  0  0  0  0  # atno 6908 bound_to 6896
  150.7441  134.6023  159.6088 H   0  0  0  0  0  0  0  0  0  0  0  0  # atno 6909 bound_to 6896
  146.1449  140.4971  142.8636 H   0  0  0  0  0  0  0  0  0  0  0  0  # atno 7974 bound_to 7965
  155.9687  140.1159  157.0831 H   0  0  0  0  0  0  0  0  0  0  0  0  # atno 8008 bound_to 7997
  154.4151  140.1167  156.5345 H   0  0  0  0  0  0  0  0  0  0  0  0  # atno 8009 bound_to 7997
  155.6625  140.3473  155.4790 H   0  0  0  0  0  0  0  0  0  0  0  0  # atno 8010 bound_to 7997
  140.4002  143.2666  151.9152 H   0  0  0  0  0  0  0  0  0  0  0  0  # atno 10167 bound_to 10162
  157.1403  130.6629  149.5979 H   0  0  0  0  0  0  0  0  0  0  0  0  # atno 10718 bound_to 10713
  154.2964  135.2760  155.2631 H   0  0  0  0  0  0  0  0  0  0  0  0  # atno 10763 bound_to 10752
  154.5088  135.5788  153.6591 H   0  0  0  0  0  0  0  0  0  0  0  0  # atno 10764 bound_to 10752
  152.9907  135.6176  154.3132 H   0  0  0  0  0  0  0  0  0  0  0  0  # atno 10765 bound_to 10752
  140.9523  133.7213  156.1239 H   0  0  0  0  0  0  0  0  0  0  0  0  # atno 11005 bound_to 11000
  144.7835  140.5889  143.6589 LP  0  0  0  0  0  0  0  0  0  0  0  0  # atno 17320 bound_to 7965
  145.4960  139.1486  143.3683 LP  0  0  0  0  0  0  0  0  0  0  0  0  # atno 17321 bound_to 7965
  139.4785  144.5641  151.8193 LP  0  0  0  0  0  0  0  0  0  0  0  0  # atno 17342 bound_to 10162
  140.4748  144.1535  150.5923 LP  0  0  0  0  0  0  0  0  0  0  0  0  # atno 17343 bound_to 10162
  155.9790  130.4780  150.6689 LP  0  0  0  0  0  0  0  0  0  0  0  0  # atno 17370 bound_to 10713
  157.4313  131.0849  151.1035 LP  0  0  0  0  0  0  0  0  0  0  0  0  # atno 17371 bound_to 10713
  140.7585  134.3965  157.5529 LP  0  0  0  0  0  0  0  0  0  0  0  0  # atno 17394 bound_to 11000
  139.8851  134.8946  156.2662 LP  0  0  0  0  0  0  0  0  0  0  0  0  # atno 17395 bound_to 11000

$$$$
