AV-unprocessed.smi:33|AV-procd|sdf|209|dock4
  -GOLD-   2262015503D 1   1.00000     0.00000
 Structure written by MMmdl.
 67 72  0  0  0  0  0  0  0  0  1 V2000
  152.1284  131.8588  158.0132 O   0  0  0  0  0  0  0  0  0  0  0  0
  151.3305  130.9897  158.3706 C   0  0  0  0  0  0  0  0  0  0  0  0
  150.0106  131.0329  158.1032 O   0  0  0  0  0  0  0  0  0  0  0  0
  149.4465  132.1815  157.4916 C   0  0  0  0  0  0  0  0  0  0  0  0
  150.0363  132.3527  156.0847 C   0  0  2  0  0  0  0  0  0  0  0  0
  150.7774  133.5765  156.0138 O   0  0  0  0  0  0  0  0  0  0  0  0
  150.1453  134.4894  155.1654 C   0  0  2  0  0  0  0  0  0  0  0  0
  150.1634  135.8439  155.7994 N   0  0  0  0  0  0  0  0  0  0  0  0
  149.5618  136.2060  156.9843 C   0  0  0  0  0  0  0  0  0  0  0  0
  149.7313  137.4487  157.3450 N   0  0  0  0  0  0  0  0  0  0  0  0
  150.5045  137.9893  156.3266 C   0  0  0  0  0  0  0  0  0  0  0  0
  151.0509  139.2782  156.0815 C   0  0  0  0  0  0  0  0  0  0  0  0
  150.8758  140.3221  156.9262 N   0  0  0  0  0  0  0  0  0  0  0  0
  149.5709  141.0003  156.9014 C   0  0  0  0  0  0  0  0  0  0  0  0
  149.1930  141.6264  157.8939 O   0  0  0  0  0  0  0  0  0  0  0  0
  148.6716  140.8852  155.7029 C   0  0  0  0  0  0  0  0  0  0  0  0
  147.2753  140.7657  155.8776 C   0  0  0  0  0  0  0  0  0  0  0  0
  146.4251  140.6682  154.7591 C   0  0  0  0  0  0  0  0  0  0  0  0
  146.9632  140.7082  153.4588 C   0  0  0  0  0  0  0  0  0  0  0  0
  148.3512  140.8566  153.2769 C   0  0  0  0  0  0  0  0  0  0  0  0
  149.2024  140.9537  154.3948 C   0  0  0  0  0  0  0  0  0  0  0  0
  152.0145  140.6869  157.7816 C   0  0  0  0  0  0  0  0  0  0  0  0
  152.8493  139.8309  158.0799 O   0  0  0  0  0  0  0  0  0  0  0  0
  152.1414  142.0808  158.3282 C   0  0  0  0  0  0  0  0  0  0  0  0
  151.5788  143.1701  157.6271 C   0  0  0  0  0  0  0  0  0  0  0  0
  151.6808  144.4762  158.1440 C   0  0  0  0  0  0  0  0  0  0  0  0
  152.3298  144.6993  159.3734 C   0  0  0  0  0  0  0  0  0  0  0  0
  152.8676  143.6144  160.0916 C   0  0  0  0  0  0  0  0  0  0  0  0
  152.7659  142.3081  159.5754 C   0  0  0  0  0  0  0  0  0  0  0  0
  151.7834  139.4564  154.9516 N   0  0  0  0  0  0  0  0  0  0  0  0
  151.9693  138.4321  154.1143 C   0  0  0  0  0  0  0  0  0  0  0  0
  151.5226  137.1788  154.2185 N   0  0  0  0  0  0  0  0  0  0  0  0
  150.7844  136.9934  155.3503 C   0  0  0  0  0  0  0  0  0  0  0  0
  148.7151  133.9927  154.9785 C   0  0  1  0  0  0  0  0  0  0  0  0
  148.1323  134.3742  153.7484 O   0  0  0  0  0  0  0  0  0  0  0  0
  148.9464  132.4917  155.0190 C   0  0  1  0  0  0  0  0  0  0  0  0
  149.4510  132.0550  153.8613 F   0  0  0  0  0  0  0  0  0  0  0  0
  151.7270  129.7776  159.1434 C   0  0  0  0  0  0  0  0  0  0  0  0
  153.0778  129.6145  159.5299 C   0  0  0  0  0  0  0  0  0  0  0  0
  153.4828  128.4810  160.2612 C   0  0  0  0  0  0  0  0  0  0  0  0
  152.5420  127.4964  160.6145 C   0  0  0  0  0  0  0  0  0  0  0  0
  151.1953  127.6465  160.2351 C   0  0  0  0  0  0  0  0  0  0  0  0
  150.7882  128.7795  159.5036 C   0  0  0  0  0  0  0  0  0  0  0  0
  148.3665  132.0447  157.4284 H   0  0  0  0  0  0  0  0  0  0  0  0
  149.6201  133.0758  158.0898 H   0  0  0  0  0  0  0  0  0  0  0  0
  150.6884  131.5071  155.8616 H   0  0  0  0  0  0  0  0  0  0  0  0
  150.7059  134.5873  154.2344 H   0  0  0  0  0  0  0  0  0  0  0  0
  148.9929  135.5091  157.5824 H   0  0  0  0  0  0  0  0  0  0  0  0
  146.8509  140.7325  156.8708 H   0  0  0  0  0  0  0  0  0  0  0  0
  145.3594  140.5626  154.8993 H   0  0  0  0  0  0  0  0  0  0  0  0
  146.3108  140.6319  152.6013 H   0  0  0  0  0  0  0  0  0  0  0  0
  148.7637  140.8965  152.2797 H   0  0  0  0  0  0  0  0  0  0  0  0
  150.2656  141.0719  154.2425 H   0  0  0  0  0  0  0  0  0  0  0  0
  151.0774  143.0106  156.6833 H   0  0  0  0  0  0  0  0  0  0  0  0
  151.2593  145.3070  157.5979 H   0  0  0  0  0  0  0  0  0  0  0  0
  152.4078  145.7012  159.7692 H   0  0  0  0  0  0  0  0  0  0  0  0
  153.3566  143.7832  161.0398 H   0  0  0  0  0  0  0  0  0  0  0  0
  153.1774  141.4825  160.1381 H   0  0  0  0  0  0  0  0  0  0  0  0
  152.5614  138.6452  153.2361 H   0  0  0  0  0  0  0  0  0  0  0  0
  148.0966  134.3102  155.8197 H   0  0  0  0  0  0  0  0  0  0  0  0
  148.7086  134.9905  153.3225 H   0  0  0  0  0  0  0  0  0  0  0  0
  148.0456  131.9130  155.2262 H   0  0  0  0  0  0  0  0  0  0  0  0
  153.8184  130.3574  159.2706 H   0  0  0  0  0  0  0  0  0  0  0  0
  154.5170  128.3679  160.5516 H   0  0  0  0  0  0  0  0  0  0  0  0
  152.8527  126.6274  161.1755 H   0  0  0  0  0  0  0  0  0  0  0  0
  150.4720  126.8912  160.5055 H   0  0  0  0  0  0  0  0  0  0  0  0
  149.7470  128.8633  159.2282 H   0  0  0  0  0  0  0  0  0  0  0  0
  1  2  2  0  0  0  0
  2  3  1  0  0  0  0
  2 38  1  0  0  0  0
  3  4  1  0  0  0  0
  4  5  1  0  0  0  0
  4 44  1  0  0  0  0
  4 45  1  0  0  0  0
  5 36  1  0  0  0  0
  5  6  1  0  0  0  0
  5 46  1  0  0  0  0
  6  7  1  0  0  0  0
  7  8  1  0  0  0  0
  7 34  1  0  0  0  0
  7 47  1  0  0  0  0
  8 33  1  0  0  0  0
  8  9  1  0  0  0  0
  9 10  2  0  0  0  0
  9 48  1  0  0  0  0
 10 11  1  0  0  0  0
 11 33  2  0  0  0  0
 11 12  1  0  0  0  0
 12 13  1  0  0  0  0
 12 30  2  0  0  0  0
 13 14  1  0  0  0  0
 13 22  1  0  0  0  0
 14 15  2  0  0  0  0
 14 16  1  0  0  0  0
 16 21  1  0  0  0  0
 16 17  2  0  0  0  0
 17 18  1  0  0  0  0
 17 49  1  0  0  0  0
 18 19  2  0  0  0  0
 18 50  1  0  0  0  0
 19 20  1  0  0  0  0
 19 51  1  0  0  0  0
 20 21  2  0  0  0  0
 20 52  1  0  0  0  0
 21 53  1  0  0  0  0
 22 23  2  0  0  0  0
 22 24  1  0  0  0  0
 24 29  1  0  0  0  0
 24 25  2  0  0  0  0
 25 26  1  0  0  0  0
 25 54  1  0  0  0  0
 26 27  2  0  0  0  0
 26 55  1  0  0  0  0
 27 28  1  0  0  0  0
 27 56  1  0  0  0  0
 28 29  2  0  0  0  0
 28 57  1  0  0  0  0
 29 58  1  0  0  0  0
 30 31  1  0  0  0  0
 31 32  2  0  0  0  0
 31 59  1  0  0  0  0
 32 33  1  0  0  0  0
 34 35  1  0  0  0  0
 34 36  1  0  0  0  0
 34 60  1  0  0  0  0
 35 61  1  0  0  0  0
 36 37  1  0  0  0  0
 36 62  1  0  0  0  0
 38 43  1  0  0  0  0
 38 39  2  0  0  0  0
 39 40  1  0  0  0  0
 39 63  1  0  0  0  0
 40 41  2  0  0  0  0
 40 64  1  0  0  0  0
 41 42  1  0  0  0  0
 41 65  1  0  0  0  0
 42 43  2  0  0  0  0
 42 66  1  0  0  0  0
 43 67  1  0  0  0  0
M  END
> <s_m_source_file>
AV-unprocessed.smi

> <i_m_source_file_index>
33

> <i_lp_mmshare_version>
43012

> <i_f3d_flags>
0

> <s_epik_input>
W2NIXTFbY0hdW2NIXVtjSF1bY0hdYzFDKD1PKU9bQ0gyXVtDQEBIXTJPW0NASF0oW0NAQEhdKFtPSF0pW0NAQEhdMkYpbihbY0hdbjMpYyhjMzQpbltjSF1uYzROKEMoPU8pYzVbY0hdW2NIXVtjSF1bY0hdW2NIXTUpQyg9TyljNltjSF1bY0hdW2NIXVtjSF1bY0hdNg==

> <s_epik_cmdline>
J2VwaWtfcHl0aG9uJywgJy1waCcsICc3LjAnLCAnLXRuJywgJzgnLCAnLW1hJywgJzIwMCcsICctbWV0YWxfYmluZGluZycsICctaW1hZScsICc8aW5maWxlLm1hZT4nLCAnLW9tYWUnLCAnPG91dGZpbGUubWFlPic=

> <r_lp_tautomer_probability>
1

> <r_epik_Ionization_Penalty>
0.00067664

> <r_epik_Ionization_Penalty_Charging>
0

> <r_epik_Ionization_Penalty_Neutral>
0.00067664

> <r_epik_State_Penalty>
0.000428095

> <r_epik_Charging_Adjusted_Penalty>
0.000428095

> <i_epik_Tot_Q>
0

> <i_epik_Tot_abs_Q>
0

> <r_epik_Metal_State_Penalty>
-0

> <b_epik_Metal_Only>
0

> <s_epik_Chemistry_Notes>
This compound has an ester and may undergo hydrolysis at high or low pH. This compound contains an acetal/aminal-like group ( X-CH(R)-Y where X, Y are N, S, or O) that may be acid/base labile, releasing an aldehyde.

> <s_lp_Force_Field>
OPLS_2005

> <r_lp_Energy>
71.9351

> <b_lp_Chiralities_Consistent>
1

> <s_lp_Variant>
AV-unprocessed.smi:33-11

> <Gold.Version>
5.8.1

> <Gold.Id.Protein>
6NUR|6NUR_protein|mol2

> <Gold.PLP.Fitness>
67.6265

> <Gold.PLP.PLP>
-56.0396

> <Gold.PLP.part.hbond>
-5.0000

> <Gold.PLP.part.metal>
0.0000

> <Gold.PLP.part.buried>
-6.2501

> <Gold.PLP.part.nonpolar>
-46.3441

> <Gold.PLP.part.repulsive>
1.1322

> <Gold.PLP.ligand.clash>
0.0000

> <Gold.PLP.ligand.torsion>
3.6514

> <Gold.PLP.Chemscore.Hbond>
4.7153

> <Gold.PLP.Chemscore.CHOScore>
0.0000

> <Gold.PLP.Chemscore.Metal>
0.0000

> <Gold.Chemscore.Hbonds>
donor molecule, donor type, donor heavy atom, donor atom, acceptor molecule, acceptor atom, score
      L1  H    35    61       P1  7948  0.94
      P1  H  6896  6907       L1     1  1.00
      P1  H  7989  7998       L1    30  0.75
      P1  H  7997  8008       L1    23  0.96
      P1  H 10752 10765       L1    32  0.89

> <Gold.PLP.Chemscore.Internal.Correction>
4.7439

> <Gold.Rescore>
     Score         DG    S(hbond)    S(metal)    S(lipo)     H(rot)  DE(clash)    DE(int)     intcor
     15.08     -23.68       3.02        0.00     124.66       2.52       1.82       6.79       ----

> <Gold.Chemscore.Fitness>
15.0765

> <Gold.Chemscore.DG>
-23.6847

> <Gold.Chemscore.ZeroCoef>
-5.4800

> <Gold.Chemscore.Hbond>
3.0187

> <Gold.Chemscore.Metal>
0.0000

> <Gold.Chemscore.Lipo>
124.6621

> <Gold.Chemscore.Internal_Hbond>
0.0000

> <Gold.Chemscore.DEClash>
1.8209

> <Gold.Chemscore.DEInternal>
6.7873

> <Gold.Chemscore.Rot>
2.5247

> <Gold.Chemscore.Internal.Correction>
   9.000000E+99

> <Gold.Chemscore.Hbonds>
donor molecule, donor type, donor heavy atom, donor atom, acceptor molecule, acceptor atom, score
      L1  H    35    61       P1  7948  0.55
      P1  H  6896  6907       L1     1  0.56
      P1  H  7989  7998       L1    30  0.09
      P1  H  7997  8008       L1    23  0.73
      P1  H 10752 10765       L1    32  0.45

> <Gold.Chemscore.Hbond.Weighted>
-10.0825

> <Gold.Chemscore.Metal.Weighted>
-0.0000

> <Gold.Chemscore.Lipo.Weighted>
-14.5855

> <Gold.Chemscore.Internal_Hbond.Weighted>
0.0000

> <Gold.Chemscore.DEClash.Weighted>
1.8209

> <Gold.Chemscore.DEInternal.Weighted>
6.7873

> <Gold.Chemscore.Rot.Weighted>
6.4633

> <Gold.Chemscore.Internal.Correction.Weighted>
   9.000000E+99

> <Gold.Protein.RotatedTorsions>
[ 6907 6896 6895 6894 ] final  157.32 input  -60.11 | X-H torsion
[ 7974 7965 7964 7962 ] final  -20.75 input  175.53 | X-H torsion
[ 8008 7997 7996 7995 ] final  -87.24 input   59.86 | X-H torsion
[ 10167 10162 10161 10158 ] final  -30.41 input  -65.29 | X-H torsion
[ 10718 10713 10712 10709 ] final    5.41 input   66.30 | X-H torsion
[ 10763 10752 10751 10750 ] final  158.96 input  -60.55 | X-H torsion
[ 11005 11000 10999 10996 ] final  -66.64 input  -57.11 | X-H torsion

> <Gold.Protein.ActiveResidues>
 VAL166  LYS551  ARG553  GLY616  TRP617  ASP618  TYR619  PRO620  LYS621  CYS622 
 ASP623  PHE694  ASN695  SER759  ASP760  ASP761  ALA762  ILE779  LEU786  VAL792 
 PHE793  MET794  SER795  GLU796  ALA797  LYS798  CYS799  TRP800  GLU811  SER814 

> <Gold.Protein.RotatedAtoms>
  152.0168  133.3883  159.4241 H   0  0  0  0  0  0  0  0  0  0  0  0  # atno 6907 bound_to 6896
  150.6894  134.3670  159.4984 H   0  0  0  0  0  0  0  0  0  0  0  0  # atno 6908 bound_to 6896
  152.1438  134.9041  160.0603 H   0  0  0  0  0  0  0  0  0  0  0  0  # atno 6909 bound_to 6896
  146.1771  140.4245  142.8509 H   0  0  0  0  0  0  0  0  0  0  0  0  # atno 7974 bound_to 7965
  154.6609  140.0568  157.0061 H   0  0  0  0  0  0  0  0  0  0  0  0  # atno 8008 bound_to 7997
  155.1230  140.3249  155.4474 H   0  0  0  0  0  0  0  0  0  0  0  0  # atno 8009 bound_to 7997
  156.2618  140.1994  156.6351 H   0  0  0  0  0  0  0  0  0  0  0  0  # atno 8010 bound_to 7997
  140.7249  143.3851  151.1530 H   0  0  0  0  0  0  0  0  0  0  0  0  # atno 10167 bound_to 10162
  156.9069  130.5742  149.5647 H   0  0  0  0  0  0  0  0  0  0  0  0  # atno 10718 bound_to 10713
  154.2243  135.2781  155.2913 H   0  0  0  0  0  0  0  0  0  0  0  0  # atno 10763 bound_to 10752
  154.5676  135.5628  153.7068 H   0  0  0  0  0  0  0  0  0  0  0  0  # atno 10764 bound_to 10752
  153.0034  135.6313  154.2384 H   0  0  0  0  0  0  0  0  0  0  0  0  # atno 10765 bound_to 10752
  141.1487  133.6703  156.6171 H   0  0  0  0  0  0  0  0  0  0  0  0  # atno 11005 bound_to 11000
  144.8254  140.6619  143.6326 LP  0  0  0  0  0  0  0  0  0  0  0  0  # atno 17320 bound_to 7965
  145.4181  139.1568  143.4089 LP  0  0  0  0  0  0  0  0  0  0  0  0  # atno 17321 bound_to 7965
  139.7446  143.8871  152.3060 LP  0  0  0  0  0  0  0  0  0  0  0  0  # atno 17342 bound_to 10162
  139.8704  144.7071  150.8994 LP  0  0  0  0  0  0  0  0  0  0  0  0  # atno 17343 bound_to 10162
  156.0554  130.5617  150.9081 LP  0  0  0  0  0  0  0  0  0  0  0  0  # atno 17370 bound_to 10713
  157.5991  131.0942  150.8990 LP  0  0  0  0  0  0  0  0  0  0  0  0  # atno 17371 bound_to 10713
  140.3569  134.7720  157.4507 LP  0  0  0  0  0  0  0  0  0  0  0  0  # atno 17394 bound_to 11000
  140.0816  134.5724  155.8535 LP  0  0  0  0  0  0  0  0  0  0  0  0  # atno 17395 bound_to 11000

$$$$
