AV-unprocessed.smi:1890|AV-procd|sdf|7663|dock2
  -GOLD-   22720 9393D 1   1.00000     0.00000
 Structure written by MMmdl.
 52 53  0  0  0  0  0  0  0  0  2 V2000
  152.2510  144.5685  158.0736 C   0  0  0  0  0  0  0  0  0  0  0  0
  151.1937  143.5024  157.7543 C   0  0  0  0  0  0  0  0  0  0  0  0
  151.7657  142.1870  157.4472 N   0  0  0  0  0  0  0  0  0  0  0  0
  152.5110  141.4714  158.4862 C   0  0  0  0  0  0  0  0  0  0  0  0
  152.4341  142.1612  159.8563 C   0  0  0  0  0  0  0  0  0  0  0  0
  151.0597  141.3716  156.5329 C   0  0  0  0  0  0  0  0  0  0  0  0
  151.4898  140.0687  156.1847 C   0  0  0  0  0  0  0  0  0  0  0  0
  150.7385  139.3013  155.2709 C   0  0  0  0  0  0  0  0  0  0  0  0
  149.5569  139.8313  154.7120 C   0  0  0  0  0  0  0  0  0  0  0  0
  148.8431  139.0232  153.7844 N   0  0  0  0  0  0  0  0  0  0  0  0
  147.5140  138.8931  153.6284 C   0  0  0  0  0  0  0  0  0  0  0  0
  146.6617  139.4404  154.3268 O   0  0  0  0  0  0  0  0  0  0  0  0
  147.2273  138.0678  152.6085 N   0  0  0  0  0  0  0  0  0  0  0  0
  145.9014  137.6795  152.1223 C   0  0  0  0  0  0  0  0  0  0  0  0
  144.8558  137.5771  153.2596 C   0  0  0  0  0  0  0  0  0  0  0  0
  143.4948  137.1123  152.7115 C   0  0  0  0  0  0  0  0  0  0  0  0
  143.6812  135.8391  152.0027 N   0  0  0  0  0  0  0  0  0  0  0  0
  143.2711  134.6273  152.4482 C   0  0  0  0  0  0  0  0  0  0  0  0
  143.5984  133.3779  151.6271 C   0  0  0  0  0  0  0  0  0  0  0  0
  142.6347  134.4825  153.4918 O   0  0  0  0  0  0  0  0  0  0  0  0
  144.5177  136.0014  150.8071 C   0  0  0  0  0  0  0  0  0  0  0  0
  145.9372  136.4025  151.2484 C   0  0  0  0  0  0  0  0  0  0  0  0
  149.1737  141.1423  155.0830 C   0  0  0  0  0  0  0  0  0  0  0  0
  149.9241  141.8423  155.9606 N   0  3  0  0  0  0  0  0  0  0  0  0
  151.7823  145.5457  158.1910 H   0  0  0  0  0  0  0  0  0  0  0  0
  152.9863  144.6497  157.2727 H   0  0  0  0  0  0  0  0  0  0  0  0
  152.7794  144.3527  159.0021 H   0  0  0  0  0  0  0  0  0  0  0  0
  150.4924  143.4109  158.5844 H   0  0  0  0  0  0  0  0  0  0  0  0
  150.6210  143.8602  156.8980 H   0  0  0  0  0  0  0  0  0  0  0  0
  152.1614  140.4448  158.5802 H   0  0  0  0  0  0  0  0  0  0  0  0
  153.5538  141.3826  158.1850 H   0  0  0  0  0  0  0  0  0  0  0  0
  152.9906  141.5943  160.6028 H   0  0  0  0  0  0  0  0  0  0  0  0
  151.4041  142.2427  160.2048 H   0  0  0  0  0  0  0  0  0  0  0  0
  152.8595  143.1645  159.8237 H   0  0  0  0  0  0  0  0  0  0  0  0
  152.3976  139.6518  156.5936 H   0  0  0  0  0  0  0  0  0  0  0  0
  151.0733  138.3098  155.0029 H   0  0  0  0  0  0  0  0  0  0  0  0
  149.4153  138.4549  153.1772 H   0  0  0  0  0  0  0  0  0  0  0  0
  148.0079  137.6678  152.1088 H   0  0  0  0  0  0  0  0  0  0  0  0
  145.5835  138.4968  151.4735 H   0  0  0  0  0  0  0  0  0  0  0  0
  145.1822  136.8711  154.0237 H   0  0  0  0  0  0  0  0  0  0  0  0
  144.7466  138.5415  153.7566 H   0  0  0  0  0  0  0  0  0  0  0  0
  142.7669  137.0598  153.5197 H   0  0  0  0  0  0  0  0  0  0  0  0
  143.1011  137.8548  152.0158 H   0  0  0  0  0  0  0  0  0  0  0  0
  143.1836  133.4561  150.6217 H   0  0  0  0  0  0  0  0  0  0  0  0
  143.1718  132.4895  152.0937 H   0  0  0  0  0  0  0  0  0  0  0  0
  144.6766  133.2320  151.5569 H   0  0  0  0  0  0  0  0  0  0  0  0
  144.5597  135.0998  150.1946 H   0  0  0  0  0  0  0  0  0  0  0  0
  144.0899  136.7745  150.1670 H   0  0  0  0  0  0  0  0  0  0  0  0
  146.5673  136.5637  150.3732 H   0  0  0  0  0  0  0  0  0  0  0  0
  146.3788  135.5708  151.7981 H   0  0  0  0  0  0  0  0  0  0  0  0
  148.3088  141.6705  154.7122 H   0  0  0  0  0  0  0  0  0  0  0  0
  149.6161  142.7829  156.2072 H   0  0  0  0  0  0  0  0  0  0  0  0
  1  2  1  0  0  0  0
  1 25  1  0  0  0  0
  1 26  1  0  0  0  0
  1 27  1  0  0  0  0
  2  3  1  0  0  0  0
  2 28  1  0  0  0  0
  2 29  1  0  0  0  0
  3  4  1  0  0  0  0
  3  6  1  0  0  0  0
  4  5  1  0  0  0  0
  4 30  1  0  0  0  0
  4 31  1  0  0  0  0
  5 32  1  0  0  0  0
  5 33  1  0  0  0  0
  5 34  1  0  0  0  0
  6 24  1  0  0  0  0
  6  7  2  0  0  0  0
  7  8  1  0  0  0  0
  7 35  1  0  0  0  0
  8  9  2  0  0  0  0
  8 36  1  0  0  0  0
  9 10  1  0  0  0  0
  9 23  1  0  0  0  0
 10 11  1  0  0  0  0
 10 37  1  0  0  0  0
 11 12  2  0  0  0  0
 11 13  1  0  0  0  0
 13 14  1  0  0  0  0
 13 38  1  0  0  0  0
 14 22  1  0  0  0  0
 14 15  1  0  0  0  0
 14 39  1  0  0  0  0
 15 16  1  0  0  0  0
 15 40  1  0  0  0  0
 15 41  1  0  0  0  0
 16 17  1  0  0  0  0
 16 42  1  0  0  0  0
 16 43  1  0  0  0  0
 17 18  1  0  0  0  0
 17 21  1  0  0  0  0
 18 19  1  0  0  0  0
 18 20  2  0  0  0  0
 19 44  1  0  0  0  0
 19 45  1  0  0  0  0
 19 46  1  0  0  0  0
 21 22  1  0  0  0  0
 21 47  1  0  0  0  0
 21 48  1  0  0  0  0
 22 49  1  0  0  0  0
 22 50  1  0  0  0  0
 23 24  2  0  0  0  0
 23 51  1  0  0  0  0
 24 52  1  0  0  0  0
M  CHG  1  24   1
M  END
> <s_m_source_file>
AV-unprocessed.smi

> <i_m_source_file_index>
1890

> <i_lp_mmshare_version>
43012

> <i_f3d_flags>
0

> <s_epik_input>
W0NIM11bQ0gyXU4oW0NIMl1bQ0gzXSljMVtjSF1bY0hdYyhbY0hdbjEpW05IXUMoPU8pW05IXVtDSF0yW0NIMl1bQ0gyXU4oQyg9TylbQ0gzXSlbQ0gyXVtDSDJdMg==

> <s_epik_cmdline>
J2VwaWtfcHl0aG9uJywgJy1waCcsICc3LjAnLCAnLXRuJywgJzgnLCAnLW1hJywgJzIwMCcsICctbWV0YWxfYmluZGluZycsICctaW1hZScsICc8aW5maWxlLm1hZT4nLCAnLW9tYWUnLCAnPG91dGZpbGUubWFlPic=

> <r_lp_tautomer_probability>
0.999994

> <r_epik_Ionization_Penalty>
0.22788

> <r_epik_Ionization_Penalty_Charging>
0.227859

> <r_epik_Ionization_Penalty_Neutral>
2.12958e-05

> <r_epik_State_Penalty>
0.0148833

> <r_epik_Charging_Adjusted_Penalty>
0.242742

> <i_epik_Tot_Q>
1

> <i_epik_Tot_abs_Q>
1

> <r_epik_Metal_State_Penalty>
0.0452648

> <b_epik_Metal_Only>
0

> <s_lp_Force_Field>
OPLS_2005

> <r_lp_Energy>
37.6565

> <b_lp_Chiralities_Consistent>
1

> <s_lp_Variant>
AV-unprocessed.smi:1890-1

> <Gold.Version>
5.8.1

> <Gold.Id.Protein>
6NUR|6NUR_protein|mol2

> <Gold.PLP.Fitness>
51.0950

> <Gold.PLP.PLP>
-43.4100

> <Gold.PLP.part.hbond>
-3.0000

> <Gold.PLP.part.metal>
0.0000

> <Gold.PLP.part.buried>
-0.1581

> <Gold.PLP.part.nonpolar>
-41.1112

> <Gold.PLP.part.repulsive>
0.5453

> <Gold.PLP.ligand.clash>
0.0000

> <Gold.PLP.ligand.torsion>
1.1479

> <Gold.PLP.Chemscore.Hbond>
3.0000

> <Gold.PLP.Chemscore.CHOScore>
0.0000

> <Gold.PLP.Chemscore.Metal>
0.0000

> <Gold.Chemscore.Hbonds>
donor molecule, donor type, donor heavy atom, donor atom, acceptor molecule, acceptor atom, score
      L1  H    13    38       P1  7948  0.93
      L1  H    24    52       P1  8028  1.43

> <Gold.PLP.Chemscore.Internal.Correction>
0.9808

> <Gold.Rescore>
     Score         DG    S(hbond)    S(metal)    S(lipo)     H(rot)  DE(clash)    DE(int)     intcor
     15.67     -20.22       1.79        0.00     104.42       1.35       2.13       2.42       ----

> <Gold.Chemscore.Fitness>
15.6702

> <Gold.Chemscore.DG>
-20.2177

> <Gold.Chemscore.ZeroCoef>
-5.4800

> <Gold.Chemscore.Hbond>
1.7878

> <Gold.Chemscore.Metal>
0.0000

> <Gold.Chemscore.Lipo>
104.4163

> <Gold.Chemscore.Internal_Hbond>
0.0000

> <Gold.Chemscore.DEClash>
2.1323

> <Gold.Chemscore.DEInternal>
2.4152

> <Gold.Chemscore.Rot>
1.3477

> <Gold.Chemscore.Internal.Correction>
   9.000000E+99

> <Gold.Chemscore.Hbonds>
donor molecule, donor type, donor heavy atom, donor atom, acceptor molecule, acceptor atom, score
      L1  H    13    38       P1  7948  0.91
      L1  H    24    52       P1  8028  0.68

> <Gold.Chemscore.Hbond.Weighted>
-5.9713

> <Gold.Chemscore.Metal.Weighted>
-0.0000

> <Gold.Chemscore.Lipo.Weighted>
-12.2167

> <Gold.Chemscore.Internal_Hbond.Weighted>
0.0000

> <Gold.Chemscore.DEClash.Weighted>
2.1323

> <Gold.Chemscore.DEInternal.Weighted>
2.4152

> <Gold.Chemscore.Rot.Weighted>
3.4502

> <Gold.Chemscore.Internal.Correction.Weighted>
   9.000000E+99

> <Gold.Protein.RotatedTorsions>
[ 6907 6896 6895 6894 ] final -156.85 input  -60.11 | X-H torsion
[ 7974 7965 7964 7962 ] final -109.07 input  175.53 | X-H torsion
[ 8008 7997 7996 7995 ] final -166.64 input   59.86 | X-H torsion
[ 10167 10162 10161 10158 ] final  -82.96 input  -65.29 | X-H torsion
[ 10718 10713 10712 10709 ] final  -11.92 input   66.30 | X-H torsion
[ 10763 10752 10751 10750 ] final  -78.42 input  -60.55 | X-H torsion
[ 11005 11000 10999 10996 ] final   68.70 input  -57.11 | X-H torsion

> <Gold.Protein.ActiveResidues>
 VAL166  LYS551  ARG553  GLY616  TRP617  ASP618  TYR619  PRO620  LYS621  CYS622 
 ASP623  PHE694  ASN695  SER759  ASP760  ASP761  ALA762  ILE779  LEU786  VAL792 
 PHE793  MET794  SER795  GLU796  ALA797  LYS798  CYS799  TRP800  GLU811  SER814 

> <Gold.Protein.RotatedAtoms>
  151.2939  133.4153  159.2634 H   0  0  0  0  0  0  0  0  0  0  0  0  # atno 6907 bound_to 6896
  151.0254  134.9500  159.8092 H   0  0  0  0  0  0  0  0  0  0  0  0  # atno 6908 bound_to 6896
  152.5334  134.2901  159.9092 H   0  0  0  0  0  0  0  0  0  0  0  0  # atno 6909 bound_to 6896
  145.1850  140.8989  143.3457 H   0  0  0  0  0  0  0  0  0  0  0  0  # atno 7974 bound_to 7965
  155.8666  140.0986  157.1578 H   0  0  0  0  0  0  0  0  0  0  0  0  # atno 8008 bound_to 7997
  154.3994  140.1355  156.4089 H   0  0  0  0  0  0  0  0  0  0  0  0  # atno 8009 bound_to 7997
  155.7797  140.3459  155.5293 H   0  0  0  0  0  0  0  0  0  0  0  0  # atno 8010 bound_to 7997
  140.4271  143.2562  151.8811 H   0  0  0  0  0  0  0  0  0  0  0  0  # atno 10167 bound_to 10162
  156.6521  130.4957  149.6059 H   0  0  0  0  0  0  0  0  0  0  0  0  # atno 10718 bound_to 10713
  154.5257  135.5730  153.6717 H   0  0  0  0  0  0  0  0  0  0  0  0  # atno 10763 bound_to 10752
  152.9927  135.6192  154.2696 H   0  0  0  0  0  0  0  0  0  0  0  0  # atno 10764 bound_to 10752
  154.2619  135.2856  155.2754 H   0  0  0  0  0  0  0  0  0  0  0  0  # atno 10765 bound_to 10752
  139.9696  134.6923  156.0474 H   0  0  0  0  0  0  0  0  0  0  0  0  # atno 11005 bound_to 11000
  145.0098  139.3521  143.6126 LP  0  0  0  0  0  0  0  0  0  0  0  0  # atno 17320 bound_to 7965
  146.3446  139.9355  142.8748 LP  0  0  0  0  0  0  0  0  0  0  0  0  # atno 17321 bound_to 7965
  139.4784  144.5375  151.8577 LP  0  0  0  0  0  0  0  0  0  0  0  0  # atno 17342 bound_to 10162
  140.4469  144.1909  150.5894 LP  0  0  0  0  0  0  0  0  0  0  0  0  # atno 17343 bound_to 10162
  156.2077  130.6659  151.1235 LP  0  0  0  0  0  0  0  0  0  0  0  0  # atno 17370 bound_to 10713
  157.7137  131.0721  150.6405 LP  0  0  0  0  0  0  0  0  0  0  0  0  # atno 17371 bound_to 10713
  141.1376  133.6572  156.3636 LP  0  0  0  0  0  0  0  0  0  0  0  0  # atno 17394 bound_to 11000
  140.5322  134.6201  157.5353 LP  0  0  0  0  0  0  0  0  0  0  0  0  # atno 17395 bound_to 11000

$$$$
