AV-unprocessed.smi:332|AV-procd|sdf|2353|dock3
  -GOLD-   2262022263D 1   1.00000     0.00000
 Structure written by MMmdl.
 42 44  0  0  0  0  0  0  0  0  1 V2000
  151.3496  141.1609  157.6094 C   0  0  0  0  0  0  0  0  0  0  0  0
  151.2456  142.4730  156.8146 C   0  0  1  0  0  0  0  0  0  0  0  0
  150.0544  142.4077  155.9691 N   0  0  0  0  0  0  0  0  0  0  0  0
  149.8229  141.5035  155.0049 C   0  0  0  0  0  0  0  0  0  0  0  0
  150.5816  140.5667  154.7534 O   0  0  0  0  0  0  0  0  0  0  0  0
  148.5238  141.6843  154.2093 C   0  0  0  0  0  0  0  0  0  0  0  0
  147.6280  140.5210  154.3194 N   0  0  0  0  0  0  0  0  0  0  0  0
  148.0264  139.3362  153.6690 C   0  0  0  0  0  0  0  0  0  0  0  0
  147.2782  138.2221  153.7022 C   0  0  0  0  0  0  0  0  0  0  0  0
  146.0318  138.2578  154.4302 C   0  0  0  0  0  0  0  0  0  0  0  0
  145.6404  139.3863  155.0547 C   0  0  0  0  0  0  0  0  0  0  0  0
  146.4551  140.6066  155.0213 C   0  0  0  0  0  0  0  0  0  0  0  0
  146.1049  141.6420  155.5889 O   0  0  0  0  0  0  0  0  0  0  0  0
  151.1685  143.7256  157.7232 C   0  0  2  0  0  0  0  0  0  0  0  0
  152.5379  144.4118  157.9651 C   0  0  0  0  0  0  0  0  0  0  0  0
  152.6278  144.4975  159.4981 C   0  0  1  0  0  0  0  0  0  0  0  0
  151.5966  145.5133  160.0216 C   0  0  0  0  0  0  0  0  0  0  0  0
  150.2615  144.7716  159.8238 C   0  0  0  0  0  0  0  0  0  0  0  0
  150.7016  143.4455  159.1742 C   0  0  2  0  0  0  0  0  0  0  0  0
  152.0089  143.1695  159.9111 C   0  0  0  0  0  0  0  0  0  0  0  0
  152.2640  141.1156  158.1992 H   0  0  0  0  0  0  0  0  0  0  0  0
  151.3595  140.3001  156.9398 H   0  0  0  0  0  0  0  0  0  0  0  0
  150.5069  141.0411  158.2910 H   0  0  0  0  0  0  0  0  0  0  0  0
  152.1375  142.5571  156.1920 H   0  0  0  0  0  0  0  0  0  0  0  0
  149.3658  143.1335  156.1051 H   0  0  0  0  0  0  0  0  0  0  0  0
  148.0320  142.5895  154.5678 H   0  0  0  0  0  0  0  0  0  0  0  0
  148.7515  141.8783  153.1593 H   0  0  0  0  0  0  0  0  0  0  0  0
  148.9667  139.3939  153.1401 H   0  0  0  0  0  0  0  0  0  0  0  0
  147.5977  137.3241  153.1940 H   0  0  0  0  0  0  0  0  0  0  0  0
  145.4095  137.3760  154.4728 H   0  0  0  0  0  0  0  0  0  0  0  0
  144.7040  139.3955  155.5931 H   0  0  0  0  0  0  0  0  0  0  0  0
  150.4875  144.4374  157.2535 H   0  0  0  0  0  0  0  0  0  0  0  0
  153.3642  143.8086  157.5864 H   0  0  0  0  0  0  0  0  0  0  0  0
  152.6018  145.3905  157.4884 H   0  0  0  0  0  0  0  0  0  0  0  0
  153.6394  144.6695  159.8670 H   0  0  0  0  0  0  0  0  0  0  0  0
  151.7627  145.7297  161.0777 H   0  0  0  0  0  0  0  0  0  0  0  0
  151.6341  146.4566  159.4754 H   0  0  0  0  0  0  0  0  0  0  0  0
  149.7811  144.5887  160.7859 H   0  0  0  0  0  0  0  0  0  0  0  0
  149.5599  145.3304  159.2034 H   0  0  0  0  0  0  0  0  0  0  0  0
  149.9526  142.6606  159.2700 H   0  0  0  0  0  0  0  0  0  0  0  0
  152.5514  142.3023  159.5314 H   0  0  0  0  0  0  0  0  0  0  0  0
  151.8844  143.0677  160.9907 H   0  0  0  0  0  0  0  0  0  0  0  0
  1  2  1  0  0  0  0
  1 21  1  0  0  0  0
  1 22  1  0  0  0  0
  1 23  1  0  0  0  0
  2  3  1  0  0  0  0
  2 14  1  0  0  0  0
  2 24  1  0  0  0  0
  3  4  1  0  0  0  0
  3 25  1  0  0  0  0
  4  5  2  0  0  0  0
  4  6  1  0  0  0  0
  6  7  1  0  0  0  0
  6 26  1  0  0  0  0
  6 27  1  0  0  0  0
  7 12  1  0  0  0  0
  7  8  1  0  0  0  0
  8  9  2  0  0  0  0
  8 28  1  0  0  0  0
  9 10  1  0  0  0  0
  9 29  1  0  0  0  0
 10 11  2  0  0  0  0
 10 30  1  0  0  0  0
 11 12  1  0  0  0  0
 11 31  1  0  0  0  0
 12 13  2  0  0  0  0
 14 19  1  0  0  0  0
 14 15  1  0  0  0  0
 14 32  1  0  0  0  0
 15 16  1  0  0  0  0
 15 33  1  0  0  0  0
 15 34  1  0  0  0  0
 16 20  1  0  0  0  0
 16 17  1  0  0  0  0
 16 35  1  0  0  0  0
 17 18  1  0  0  0  0
 17 36  1  0  0  0  0
 17 37  1  0  0  0  0
 18 19  1  0  0  0  0
 18 38  1  0  0  0  0
 18 39  1  0  0  0  0
 19 20  1  0  0  0  0
 19 40  1  0  0  0  0
 20 41  1  0  0  0  0
 20 42  1  0  0  0  0
M  END
> <s_m_source_file>
AV-unprocessed.smi

> <i_m_source_file_index>
332

> <i_lp_mmshare_version>
43012

> <i_f3d_flags>
0

> <s_epik_input>
W0NIMl0xW0NIMl1bQ0BIXShbQ0gyXTIpW0NAQEhdKFtDSDJdW0NAQEhdMTIpW0NASF0oW0NIM10pW05IXUMoPU8pW0NIMl1uM1tjSF1bY0hdW2NIXVtjSF1jMz1P

> <s_epik_cmdline>
J2VwaWtfcHl0aG9uJywgJy1waCcsICc3LjAnLCAnLXRuJywgJzgnLCAnLW1hJywgJzIwMCcsICctbWV0YWxfYmluZGluZycsICctaW1hZScsICc8aW5maWxlLm1hZT4nLCAnLW9tYWUnLCAnPG91dGZpbGUubWFlPic=

> <r_lp_tautomer_probability>
1

> <r_epik_Ionization_Penalty>
4.05802e-07

> <r_epik_Ionization_Penalty_Charging>
3.84175e-07

> <r_epik_Ionization_Penalty_Neutral>
2.16269e-08

> <r_epik_State_Penalty>
-0

> <r_epik_Charging_Adjusted_Penalty>
3.84175e-07

> <i_epik_Tot_Q>
0

> <i_epik_Tot_abs_Q>
0

> <r_epik_Metal_State_Penalty>
-0

> <b_epik_Metal_Only>
0

> <s_lp_Force_Field>
OPLS_2005

> <r_lp_Energy>
60.1573

> <b_lp_Chiralities_Consistent>
1

> <s_lp_Variant>
AV-unprocessed.smi:332-2

> <Gold.Version>
5.8.1

> <Gold.Id.Protein>
6NUR|6NUR_protein|mol2

> <Gold.PLP.Fitness>
47.4899

> <Gold.PLP.PLP>
-40.7413

> <Gold.PLP.part.hbond>
-2.0000

> <Gold.PLP.part.metal>
0.0000

> <Gold.PLP.part.buried>
-4.4408

> <Gold.PLP.part.nonpolar>
-33.8361

> <Gold.PLP.part.repulsive>
0.3106

> <Gold.PLP.ligand.clash>
0.0000

> <Gold.PLP.ligand.torsion>
1.1468

> <Gold.PLP.Chemscore.Hbond>
2.0000

> <Gold.PLP.Chemscore.CHOScore>
1.0000

> <Gold.PLP.Chemscore.Metal>
0.0000

> <Gold.Chemscore.Hbonds>
donor molecule, donor type, donor heavy atom, donor atom, acceptor molecule, acceptor atom, score
      L1  H     3    25       P1  8028  0.91
      P1  H  7989  7998       L1     5  0.99
      L1  C     8    28       P1  7957  1.00

> <Gold.PLP.Chemscore.Internal.Correction>
0.0421

> <Gold.Rescore>
     Score         DG    S(hbond)    S(metal)    S(lipo)     H(rot)  DE(clash)    DE(int)     intcor
     17.83     -20.49       1.68        0.00     114.09       1.54       0.48       2.18       ----

> <Gold.Chemscore.Fitness>
17.8317

> <Gold.Chemscore.DG>
-20.4896

> <Gold.Chemscore.ZeroCoef>
-5.4800

> <Gold.Chemscore.Hbond>
1.6776

> <Gold.Chemscore.Metal>
0.0000

> <Gold.Chemscore.Lipo>
114.0880

> <Gold.Chemscore.Internal_Hbond>
0.0000

> <Gold.Chemscore.DEClash>
0.4771

> <Gold.Chemscore.DEInternal>
2.1808

> <Gold.Chemscore.Rot>
1.5398

> <Gold.Chemscore.Internal.Correction>
   9.000000E+99

> <Gold.Chemscore.Hbonds>
donor molecule, donor type, donor heavy atom, donor atom, acceptor molecule, acceptor atom, score
      L1  H     3    25       P1  8028  0.88
      P1  H  7989  7998       L1     5  0.80

> <Gold.Chemscore.Hbond.Weighted>
-5.6032

> <Gold.Chemscore.Metal.Weighted>
-0.0000

> <Gold.Chemscore.Lipo.Weighted>
-13.3483

> <Gold.Chemscore.Internal_Hbond.Weighted>
0.0000

> <Gold.Chemscore.DEClash.Weighted>
0.4771

> <Gold.Chemscore.DEInternal.Weighted>
2.1808

> <Gold.Chemscore.Rot.Weighted>
3.9419

> <Gold.Chemscore.Internal.Correction.Weighted>
   9.000000E+99

> <Gold.Protein.RotatedTorsions>
[ 6907 6896 6895 6894 ] final -135.80 input  -60.11 | X-H torsion
[ 7974 7965 7964 7962 ] final   -3.26 input  175.53 | X-H torsion
[ 8008 7997 7996 7995 ] final -156.41 input   59.86 | X-H torsion
[ 10167 10162 10161 10158 ] final -140.61 input  -65.29 | X-H torsion
[ 10718 10713 10712 10709 ] final  142.52 input   66.30 | X-H torsion
[ 10763 10752 10751 10750 ] final -175.99 input  -60.55 | X-H torsion
[ 11005 11000 10999 10996 ] final   25.94 input  -57.11 | X-H torsion

> <Gold.Protein.ActiveResidues>
 VAL166  LYS551  ARG553  GLY616  TRP617  ASP618  TYR619  PRO620  LYS621  CYS622 
 ASP623  PHE694  ASN695  SER759  ASP760  ASP761  ALA762  ILE779  LEU786  VAL792 
 PHE793  MET794  SER795  GLU796  ALA797  LYS798  CYS799  TRP800  GLU811  SER814 

> <Gold.Protein.RotatedAtoms>
  151.0023  133.6044  159.2693 H   0  0  0  0  0  0  0  0  0  0  0  0  # atno 6907 bound_to 6896
  151.3226  135.0821  159.9321 H   0  0  0  0  0  0  0  0  0  0  0  0  # atno 6908 bound_to 6896
  152.5277  133.9667  159.7797 H   0  0  0  0  0  0  0  0  0  0  0  0  # atno 6909 bound_to 6896
  146.2392  140.1694  142.8332 H   0  0  0  0  0  0  0  0  0  0  0  0  # atno 7974 bound_to 7965
  155.7168  140.0785  157.2348 H   0  0  0  0  0  0  0  0  0  0  0  0  # atno 8008 bound_to 7997
  154.4050  140.1620  156.2411 H   0  0  0  0  0  0  0  0  0  0  0  0  # atno 8009 bound_to 7997
  155.9233  140.3396  155.6193 H   0  0  0  0  0  0  0  0  0  0  0  0  # atno 8010 bound_to 7997
  139.8264  143.7505  152.2666 H   0  0  0  0  0  0  0  0  0  0  0  0  # atno 10167 bound_to 10162
  157.3796  131.0990  151.0751 H   0  0  0  0  0  0  0  0  0  0  0  0  # atno 10718 bound_to 10713
  154.5777  135.2833  155.0764 H   0  0  0  0  0  0  0  0  0  0  0  0  # atno 10763 bound_to 10752
  154.2112  135.6407  153.5119 H   0  0  0  0  0  0  0  0  0  0  0  0  # atno 10764 bound_to 10752
  153.0078  135.5492  154.6421 H   0  0  0  0  0  0  0  0  0  0  0  0  # atno 10765 bound_to 10752
  140.3424  134.2318  155.7688 H   0  0  0  0  0  0  0  0  0  0  0  0  # atno 11005 bound_to 11000
  145.0024  140.8643  143.5274 LP  0  0  0  0  0  0  0  0  0  0  0  0  # atno 17320 bound_to 7965
  145.1715  139.2401  143.5339 LP  0  0  0  0  0  0  0  0  0  0  0  0  # atno 17321 bound_to 7965
  139.7699  144.7480  151.0240 LP  0  0  0  0  0  0  0  0  0  0  0  0  # atno 17342 bound_to 10162
  140.7810  143.4657  151.0216 LP  0  0  0  0  0  0  0  0  0  0  0  0  # atno 17343 bound_to 10162
  157.1825  130.6316  149.5676 LP  0  0  0  0  0  0  0  0  0  0  0  0  # atno 17370 bound_to 10713
  155.9773  130.4749  150.6583 LP  0  0  0  0  0  0  0  0  0  0  0  0  # atno 17371 bound_to 10713
  141.2035  133.7911  157.0337 LP  0  0  0  0  0  0  0  0  0  0  0  0  # atno 17394 bound_to 11000
  140.0770  134.9670  157.1562 LP  0  0  0  0  0  0  0  0  0  0  0  0  # atno 17395 bound_to 11000

$$$$
