AV-unprocessed.smi:1532|AV-procd|sdf|6161|dock5
  -GOLD-   22720 6313D 1   1.00000     0.00000
 Structure written by MMmdl.
 38 40  0  0  0  0  0  0  0  0  1 V2000
  152.7316  138.9111  158.5989 O   0  0  0  0  0  0  0  0  0  0  0  0
  152.4522  140.0896  158.8211 C   0  0  0  0  0  0  0  0  0  0  0  0
  153.1802  140.9271  159.7869 C   0  0  0  0  0  0  0  0  0  0  0  0
  154.3202  140.2862  160.5739 C   0  0  0  0  0  0  0  0  0  0  0  0
  154.2004  138.9586  160.6231 F   0  0  0  0  0  0  0  0  0  0  0  0
  155.4973  140.5674  160.0138 F   0  0  0  0  0  0  0  0  0  0  0  0
  154.3350  140.7418  161.8269 F   0  0  0  0  0  0  0  0  0  0  0  0
  152.8244  142.2226  159.9673 C   0  0  0  0  0  0  0  0  0  0  0  0
  151.7303  142.7931  159.2081 C   0  0  0  0  0  0  0  0  0  0  0  0
  151.2972  144.2250  159.3412 C   0  0  0  0  0  0  0  0  0  0  0  0
  152.1935  145.3663  158.9205 C   0  0  0  0  0  0  0  0  0  0  0  0
  151.8831  145.1497  160.3834 C   0  0  0  0  0  0  0  0  0  0  0  0
  151.0853  142.0535  158.3706 N   0  0  0  0  0  0  0  0  0  0  0  0
  151.4309  140.7297  158.1792 N   0  0  0  0  0  0  0  0  0  0  0  0
  150.6070  140.0412  157.1776 C   0  0  0  0  0  0  0  0  0  0  0  0
  150.6468  140.7509  155.8065 C   0  0  1  0  0  0  0  0  0  0  0  0
  151.7072  140.2152  155.0396 O   0  0  0  0  0  0  0  0  0  0  0  0
  149.3167  140.6078  155.0825 C   0  0  0  0  0  0  0  0  0  0  0  0
  148.8973  139.3535  154.5862 C   0  0  0  0  0  0  0  0  0  0  0  0
  147.6593  139.2290  153.9261 C   0  0  0  0  0  0  0  0  0  0  0  0
  146.8317  140.3561  153.7620 C   0  0  0  0  0  0  0  0  0  0  0  0
  147.2421  141.6076  154.2594 C   0  0  0  0  0  0  0  0  0  0  0  0
  146.4450  142.6914  154.1056 F   0  0  0  0  0  0  0  0  0  0  0  0
  148.4809  141.7330  154.9179 C   0  0  0  0  0  0  0  0  0  0  0  0
  153.3431  142.8514  160.6754 H   0  0  0  0  0  0  0  0  0  0  0  0
  150.2334  144.3267  159.1349 H   0  0  0  0  0  0  0  0  0  0  0  0
  153.2001  145.1270  158.5821 H   0  0  0  0  0  0  0  0  0  0  0  0
  151.7256  146.2153  158.4264 H   0  0  0  0  0  0  0  0  0  0  0  0
  151.2082  145.8553  160.8636 H   0  0  0  0  0  0  0  0  0  0  0  0
  152.6893  144.7754  161.0118 H   0  0  0  0  0  0  0  0  0  0  0  0
  150.8560  138.9825  157.0816 H   0  0  0  0  0  0  0  0  0  0  0  0
  149.5801  140.0502  157.5492 H   0  0  0  0  0  0  0  0  0  0  0  0
  150.8468  141.8144  155.9451 H   0  0  0  0  0  0  0  0  0  0  0  0
  151.8043  139.3013  155.2599 H   0  0  0  0  0  0  0  0  0  0  0  0
  149.5234  138.4822  154.7123 H   0  0  0  0  0  0  0  0  0  0  0  0
  147.3438  138.2681  153.5474 H   0  0  0  0  0  0  0  0  0  0  0  0
  145.8820  140.2603  153.2569 H   0  0  0  0  0  0  0  0  0  0  0  0
  148.7852  142.6968  155.2984 H   0  0  0  0  0  0  0  0  0  0  0  0
  1  2  2  0  0  0  0
  2 14  1  0  0  0  0
  2  3  1  0  0  0  0
  3  4  1  0  0  0  0
  3  8  2  0  0  0  0
  4  5  1  0  0  0  0
  4  6  1  0  0  0  0
  4  7  1  0  0  0  0
  8  9  1  0  0  0  0
  8 25  1  0  0  0  0
  9 10  1  0  0  0  0
  9 13  2  0  0  0  0
 10 12  1  0  0  0  0
 10 11  1  0  0  0  0
 10 26  1  0  0  0  0
 11 12  1  0  0  0  0
 11 27  1  0  0  0  0
 11 28  1  0  0  0  0
 12 29  1  0  0  0  0
 12 30  1  0  0  0  0
 13 14  1  0  0  0  0
 14 15  1  0  0  0  0
 15 16  1  0  0  0  0
 15 31  1  0  0  0  0
 15 32  1  0  0  0  0
 16 17  1  0  0  0  0
 16 18  1  0  0  0  0
 16 33  1  0  0  0  0
 17 34  1  0  0  0  0
 18 24  1  0  0  0  0
 18 19  2  0  0  0  0
 19 20  1  0  0  0  0
 19 35  1  0  0  0  0
 20 21  2  0  0  0  0
 20 36  1  0  0  0  0
 21 22  1  0  0  0  0
 21 37  1  0  0  0  0
 22 23  1  0  0  0  0
 22 24  2  0  0  0  0
 24 38  1  0  0  0  0
M  END
> <s_m_source_file>
AV-unprocessed.smi

> <i_m_source_file_index>
1532

> <i_lp_mmshare_version>
43012

> <i_f3d_flags>
0

> <s_epik_input>
Tz1jMWMoQyhGKShGKUYpW2NIXWMoW0NIXTJbQ0gyXVtDSDJdMilubjFbQ0gyXVtDQEhdKFtPSF0pYzNbY0hdW2NIXVtjSF1jKEYpW2NIXTM=

> <s_epik_cmdline>
J2VwaWtfcHl0aG9uJywgJy1waCcsICc3LjAnLCAnLXRuJywgJzgnLCAnLW1hJywgJzIwMCcsICctbWV0YWxfYmluZGluZycsICctaW1hZScsICc8aW5maWxlLm1hZT4nLCAnLW9tYWUnLCAnPG91dGZpbGUubWFlPic=

> <r_lp_tautomer_probability>
1

> <r_epik_Ionization_Penalty>
1.69012e-07

> <r_epik_Ionization_Penalty_Charging>
9.677e-10

> <r_epik_Ionization_Penalty_Neutral>
1.68044e-07

> <r_epik_State_Penalty>
-0

> <r_epik_Charging_Adjusted_Penalty>
9.677e-10

> <i_epik_Tot_Q>
0

> <i_epik_Tot_abs_Q>
0

> <r_epik_Metal_State_Penalty>
-0

> <b_epik_Metal_Only>
0

> <s_lp_Force_Field>
OPLS_2005

> <r_lp_Energy>
33.2113

> <b_lp_Chiralities_Consistent>
1

> <s_lp_Variant>
AV-unprocessed.smi:1532-2

> <Gold.Version>
5.8.1

> <Gold.Id.Protein>
6NUR|6NUR_protein|mol2

> <Gold.PLP.Fitness>
56.8831

> <Gold.PLP.PLP>
-56.9794

> <Gold.PLP.part.hbond>
-0.9869

> <Gold.PLP.part.metal>
0.0000

> <Gold.PLP.part.buried>
-5.8403

> <Gold.PLP.part.nonpolar>
-50.3544

> <Gold.PLP.part.repulsive>
0.0289

> <Gold.PLP.ligand.clash>
0.0000

> <Gold.PLP.ligand.torsion>
1.5960

> <Gold.PLP.Chemscore.Hbond>
0.8000

> <Gold.PLP.Chemscore.CHOScore>
0.0000

> <Gold.PLP.Chemscore.Metal>
0.0000

> <Gold.Chemscore.Hbonds>
donor molecule, donor type, donor heavy atom, donor atom, acceptor molecule, acceptor atom, score
      P1  H  7989  7998       L1    17  0.93

> <Gold.PLP.Chemscore.Internal.Correction>
0.6957

> <Gold.Rescore>
     Score         DG    S(hbond)    S(metal)    S(lipo)     H(rot)  DE(clash)    DE(int)     intcor
     14.37     -16.50       0.83        0.00     118.55       2.20       0.02       2.11       ----

> <Gold.Chemscore.Fitness>
14.3687

> <Gold.Chemscore.DG>
-16.4999

> <Gold.Chemscore.ZeroCoef>
-5.4800

> <Gold.Chemscore.Hbond>
0.8332

> <Gold.Chemscore.Metal>
0.0000

> <Gold.Chemscore.Lipo>
118.5461

> <Gold.Chemscore.Internal_Hbond>
0.0000

> <Gold.Chemscore.DEClash>
0.0232

> <Gold.Chemscore.DEInternal>
2.1080

> <Gold.Chemscore.Rot>
2.2003

> <Gold.Chemscore.Internal.Correction>
   9.000000E+99

> <Gold.Chemscore.Hbonds>
donor molecule, donor type, donor heavy atom, donor atom, acceptor molecule, acceptor atom, score
      P1  H  7989  7998       L1    17  0.63

> <Gold.Chemscore.Hbond.Weighted>
-2.7828

> <Gold.Chemscore.Metal.Weighted>
-0.0000

> <Gold.Chemscore.Lipo.Weighted>
-13.8699

> <Gold.Chemscore.Internal_Hbond.Weighted>
0.0000

> <Gold.Chemscore.DEClash.Weighted>
0.0232

> <Gold.Chemscore.DEInternal.Weighted>
2.1080

> <Gold.Chemscore.Rot.Weighted>
5.6328

> <Gold.Chemscore.Internal.Correction.Weighted>
   9.000000E+99

> <Gold.Protein.RotatedTorsions>
[ 6907 6896 6895 6894 ] final  173.59 input  -60.11 | X-H torsion
[ 7974 7965 7964 7962 ] final -112.84 input  175.53 | X-H torsion
[ 8008 7997 7996 7995 ] final  -68.76 input   59.86 | X-H torsion
[ 10167 10162 10161 10158 ] final -170.61 input  -65.29 | X-H torsion
[ 10718 10713 10712 10709 ] final  -32.82 input   66.30 | X-H torsion
[ 10763 10752 10751 10750 ] final -173.36 input  -60.55 | X-H torsion
[ 11005 11000 10999 10996 ] final   55.72 input  -57.11 | X-H torsion

> <Gold.Protein.ActiveResidues>
 VAL166  LYS551  ARG553  GLY616  TRP617  ASP618  TYR619  PRO620  LYS621  CYS622 
 ASP623  PHE694  ASN695  SER759  ASP760  ASP761  ALA762  ILE779  LEU786  VAL792 
 PHE793  MET794  SER795  GLU796  ALA797  LYS798  CYS799  TRP800  GLU811  SER814 

> <Gold.Protein.RotatedAtoms>
  151.7658  133.3337  159.3430 H   0  0  0  0  0  0  0  0  0  0  0  0  # atno 6907 bound_to 6896
  150.7480  134.6064  159.6072 H   0  0  0  0  0  0  0  0  0  0  0  0  # atno 6908 bound_to 6896
  152.3374  134.7181  160.0324 H   0  0  0  0  0  0  0  0  0  0  0  0  # atno 6909 bound_to 6896
  145.1392  140.8768  143.3712 H   0  0  0  0  0  0  0  0  0  0  0  0  # atno 7974 bound_to 7965
  154.4891  140.0866  156.7553 H   0  0  0  0  0  0  0  0  0  0  0  0  # atno 8008 bound_to 7997
  155.4276  140.3448  155.4259 H   0  0  0  0  0  0  0  0  0  0  0  0  # atno 8009 bound_to 7997
  156.1304  140.1499  156.9062 H   0  0  0  0  0  0  0  0  0  0  0  0  # atno 8010 bound_to 7997
  139.5851  144.1336  152.1565 H   0  0  0  0  0  0  0  0  0  0  0  0  # atno 10167 bound_to 10162
  156.3702  130.4338  149.7552 H   0  0  0  0  0  0  0  0  0  0  0  0  # atno 10718 bound_to 10713
  154.6087  135.2862  155.0456 H   0  0  0  0  0  0  0  0  0  0  0  0  # atno 10763 bound_to 10752
  154.1693  135.6475  153.5009 H   0  0  0  0  0  0  0  0  0  0  0  0  # atno 10764 bound_to 10752
  153.0186  135.5397  154.6833 H   0  0  0  0  0  0  0  0  0  0  0  0  # atno 10765 bound_to 10752
  140.0584  134.5637  155.9180 H   0  0  0  0  0  0  0  0  0  0  0  0  # atno 11005 bound_to 11000
  145.0551  139.3150  143.5909 LP  0  0  0  0  0  0  0  0  0  0  0  0  # atno 17320 bound_to 7965
  146.3507  139.9973  142.8679 LP  0  0  0  0  0  0  0  0  0  0  0  0  # atno 17321 bound_to 7965
  140.0897  144.5631  150.7063 LP  0  0  0  0  0  0  0  0  0  0  0  0  # atno 17342 bound_to 10162
  140.7124  143.2516  151.4539 LP  0  0  0  0  0  0  0  0  0  0  0  0  # atno 17343 bound_to 10162
  156.4682  130.7984  151.3003 LP  0  0  0  0  0  0  0  0  0  0  0  0  # atno 17370 bound_to 10713
  157.7483  131.0044  150.3075 LP  0  0  0  0  0  0  0  0  0  0  0  0  # atno 17371 bound_to 10713
  141.1962  133.6591  156.5682 LP  0  0  0  0  0  0  0  0  0  0  0  0  # atno 17394 bound_to 11000
  140.3807  134.7525  157.4659 LP  0  0  0  0  0  0  0  0  0  0  0  0  # atno 17395 bound_to 11000

$$$$
