AV-unprocessed.smi:1705|AV-procd|sdf|6882|dock5
  -GOLD-   22720 8 83D 1   1.00000     0.00000
 Structure written by MMmdl.
 38 39  0  0  0  0  0  0  0  0  1 V2000
  154.8477  141.2159  159.4481 C   0  0  0  0  0  0  0  0  0  0  0  0
  153.3650  140.9160  159.7178 C   0  0  2  0  0  0  0  0  0  0  0  0
  152.5834  141.1820  158.5193 N   0  0  0  0  0  0  0  0  0  0  0  0
  152.2522  140.2672  157.5246 C   0  0  0  0  0  0  0  0  0  0  0  0
  152.6523  138.9655  157.5818 C   0  0  0  0  0  0  0  0  0  0  0  0
  153.4721  138.4341  158.6247 C   0  0  0  0  0  0  0  0  0  0  0  0
  154.1128  137.9831  159.4776 N   0  0  0  0  0  0  0  0  0  0  0  0
  152.2966  137.9996  156.5444 C   0  0  0  0  0  0  0  0  0  0  0  0
  152.6348  136.8137  156.5649 O   0  0  0  0  0  0  0  0  0  0  0  0
  151.5161  138.5209  155.4931 N   0  0  0  0  0  0  0  0  0  0  0  0
  151.1317  137.5861  154.4536 C   0  0  0  0  0  0  0  0  0  0  0  0
  151.0855  139.8614  155.4108 C   0  0  0  0  0  0  0  0  0  0  0  0
  150.3837  140.2620  154.4772 O   0  0  0  0  0  0  0  0  0  0  0  0
  151.4880  140.7348  156.4511 N   0  0  0  0  0  0  0  0  0  0  0  0
  151.0081  142.0956  156.3142 C   0  0  0  0  0  0  0  0  0  0  0  0
  152.8057  141.7450  160.8886 C   0  0  2  0  0  0  0  0  0  0  0  0
  152.5652  143.2209  160.5749 C   0  0  0  0  0  0  0  0  0  0  0  0
  152.6120  143.8791  161.9433 C   0  0  0  0  0  0  0  0  0  0  0  0
  153.3722  142.8726  162.8121 C   0  0  0  0  0  0  0  0  0  0  0  0
  153.7676  141.8309  161.9296 O   0  0  0  0  0  0  0  0  0  0  0  0
  155.4696  140.9461  160.3016 H   0  0  0  0  0  0  0  0  0  0  0  0
  155.0053  142.2751  159.2419 H   0  0  0  0  0  0  0  0  0  0  0  0
  155.2163  140.6556  158.5892 H   0  0  0  0  0  0  0  0  0  0  0  0
  153.2665  139.8635  159.9820 H   0  0  0  0  0  0  0  0  0  0  0  0
  151.8718  141.8791  158.6848 H   0  0  0  0  0  0  0  0  0  0  0  0
  150.6188  138.0870  153.6335 H   0  0  0  0  0  0  0  0  0  0  0  0
  150.4734  136.8480  154.9149 H   0  0  0  0  0  0  0  0  0  0  0  0
  152.0443  137.1234  154.0736 H   0  0  0  0  0  0  0  0  0  0  0  0
  149.9221  142.0665  156.4171 H   0  0  0  0  0  0  0  0  0  0  0  0
  151.3147  142.4626  155.3327 H   0  0  0  0  0  0  0  0  0  0  0  0
  151.4392  142.7356  157.0805 H   0  0  0  0  0  0  0  0  0  0  0  0
  151.8926  141.2933  161.2819 H   0  0  0  0  0  0  0  0  0  0  0  0
  153.3738  143.6092  159.9539 H   0  0  0  0  0  0  0  0  0  0  0  0
  151.6238  143.3968  160.0539 H   0  0  0  0  0  0  0  0  0  0  0  0
  153.1099  144.8483  161.9032 H   0  0  0  0  0  0  0  0  0  0  0  0
  151.6063  144.0335  162.3361 H   0  0  0  0  0  0  0  0  0  0  0  0
  154.2425  143.3150  163.2971 H   0  0  0  0  0  0  0  0  0  0  0  0
  152.7216  142.4641  163.5865 H   0  0  0  0  0  0  0  0  0  0  0  0
  1  2  1  0  0  0  0
  1 21  1  0  0  0  0
  1 22  1  0  0  0  0
  1 23  1  0  0  0  0
  2  3  1  0  0  0  0
  2 16  1  0  0  0  0
  2 24  1  0  0  0  0
  3  4  1  0  0  0  0
  3 25  1  0  0  0  0
  4 14  1  0  0  0  0
  4  5  2  0  0  0  0
  5  6  1  0  0  0  0
  5  8  1  0  0  0  0
  6  7  3  0  0  0  0
  8  9  2  0  0  0  0
  8 10  1  0  0  0  0
 10 11  1  0  0  0  0
 10 12  1  0  0  0  0
 11 26  1  0  0  0  0
 11 27  1  0  0  0  0
 11 28  1  0  0  0  0
 12 13  2  0  0  0  0
 12 14  1  0  0  0  0
 14 15  1  0  0  0  0
 15 29  1  0  0  0  0
 15 30  1  0  0  0  0
 15 31  1  0  0  0  0
 16 20  1  0  0  0  0
 16 17  1  0  0  0  0
 16 32  1  0  0  0  0
 17 18  1  0  0  0  0
 17 33  1  0  0  0  0
 17 34  1  0  0  0  0
 18 19  1  0  0  0  0
 18 35  1  0  0  0  0
 18 36  1  0  0  0  0
 19 20  1  0  0  0  0
 19 37  1  0  0  0  0
 19 38  1  0  0  0  0
M  END
> <s_m_source_file>
AV-unprocessed.smi

> <i_m_source_file_index>
1705

> <i_lp_mmshare_version>
43012

> <i_f3d_flags>
0

> <s_epik_input>
TzFbQ0gyXVtDSDJdW0NIMl1bQ0BIXTFbQ0BIXShbQ0gzXSlbTkhdYzJjKEMjTiljKD1PKW4oW0NIM10pYyg9TyluMltDSDNd

> <s_epik_cmdline>
J2VwaWtfcHl0aG9uJywgJy1waCcsICc3LjAnLCAnLXRuJywgJzgnLCAnLW1hJywgJzIwMCcsICctbWV0YWxfYmluZGluZycsICctaW1hZScsICc8aW5maWxlLm1hZT4nLCAnLW9tYWUnLCAnPG91dGZpbGUubWFlPic=

> <r_epik_Ionization_Penalty>
0.000446268

> <r_epik_Ionization_Penalty_Charging>
9.41922e-10

> <r_epik_Ionization_Penalty_Neutral>
0.000446267

> <r_epik_State_Penalty>
0.000275531

> <r_epik_Charging_Adjusted_Penalty>
0.000275532

> <i_epik_Tot_Q>
0

> <i_epik_Tot_abs_Q>
0

> <r_epik_Metal_State_Penalty>
-0

> <b_epik_Metal_Only>
0

> <s_lp_Force_Field>
OPLS_2005

> <r_lp_Energy>
37.8394

> <b_lp_Chiralities_Consistent>
1

> <s_lp_Variant>
AV-unprocessed.smi:1705-1

> <Gold.Version>
5.8.1

> <Gold.Id.Protein>
6NUR|6NUR_protein|mol2

> <Gold.PLP.Fitness>
43.1812

> <Gold.PLP.PLP>
-38.3646

> <Gold.PLP.part.hbond>
-2.0129

> <Gold.PLP.part.metal>
0.0000

> <Gold.PLP.part.buried>
-3.8540

> <Gold.PLP.part.nonpolar>
-30.7170

> <Gold.PLP.part.repulsive>
0.2068

> <Gold.PLP.ligand.clash>
9.0766

> <Gold.PLP.ligand.torsion>
0.6064

> <Gold.PLP.Chemscore.Hbond>
2.0000

> <Gold.PLP.Chemscore.CHOScore>
0.0000

> <Gold.PLP.Chemscore.Metal>
0.0000

> <Gold.Chemscore.Hbonds>
donor molecule, donor type, donor heavy atom, donor atom, acceptor molecule, acceptor atom, score
      P1  H  7989  7998       L1    13  0.90
      P1  H 10752 10765       L1     9  0.98

> <Gold.PLP.Chemscore.Internal.Correction>
9.1059

> <Gold.Rescore>
     Score         DG    S(hbond)    S(metal)    S(lipo)     H(rot)  DE(clash)    DE(int)     intcor
     14.53     -17.74       1.76        0.00      82.46       1.28       0.23       2.97       ----

> <Gold.Chemscore.Fitness>
14.5316

> <Gold.Chemscore.DG>
-17.7358

> <Gold.Chemscore.ZeroCoef>
-5.4800

> <Gold.Chemscore.Hbond>
1.7605

> <Gold.Chemscore.Metal>
0.0000

> <Gold.Chemscore.Lipo>
82.4569

> <Gold.Chemscore.Internal_Hbond>
0.0000

> <Gold.Chemscore.DEClash>
0.2337

> <Gold.Chemscore.DEInternal>
2.9705

> <Gold.Chemscore.Rot>
1.2780

> <Gold.Chemscore.Internal.Correction>
   9.000000E+99

> <Gold.Chemscore.Hbonds>
donor molecule, donor type, donor heavy atom, donor atom, acceptor molecule, acceptor atom, score
      P1  H  7989  7998       L1    13  0.18
      P1  H 10752 10765       L1     9  0.88

> <Gold.Chemscore.Hbond.Weighted>
-5.8800

> <Gold.Chemscore.Metal.Weighted>
-0.0000

> <Gold.Chemscore.Lipo.Weighted>
-9.6475

> <Gold.Chemscore.Internal_Hbond.Weighted>
0.0000

> <Gold.Chemscore.DEClash.Weighted>
0.2337

> <Gold.Chemscore.DEInternal.Weighted>
2.9705

> <Gold.Chemscore.Rot.Weighted>
3.2717

> <Gold.Chemscore.Internal.Correction.Weighted>
   9.000000E+99

> <Gold.Protein.RotatedTorsions>
[ 6907 6896 6895 6894 ] final  -70.34 input  -60.11 | X-H torsion
[ 7974 7965 7964 7962 ] final -106.45 input  175.53 | X-H torsion
[ 8008 7997 7996 7995 ] final -112.78 input   59.86 | X-H torsion
[ 10167 10162 10161 10158 ] final   52.86 input  -65.29 | X-H torsion
[ 10718 10713 10712 10709 ] final   33.02 input   66.30 | X-H torsion
[ 10763 10752 10751 10750 ] final -138.37 input  -60.55 | X-H torsion
[ 11005 11000 10999 10996 ] final  -64.90 input  -57.11 | X-H torsion

> <Gold.Protein.ActiveResidues>
 VAL166  LYS551  ARG553  GLY616  TRP617  ASP618  TYR619  PRO620  LYS621  CYS622 
 ASP623  PHE694  ASN695  SER759  ASP760  ASP761  ALA762  ILE779  LEU786  VAL792 
 PHE793  MET794  SER795  GLU796  ALA797  LYS798  CYS799  TRP800  GLU811  SER814 

> <Gold.Protein.RotatedAtoms>
  150.7262  134.5467  159.5773 H   0  0  0  0  0  0  0  0  0  0  0  0  # atno 6907 bound_to 6896
  152.2964  134.7659  160.0376 H   0  0  0  0  0  0  0  0  0  0  0  0  # atno 6908 bound_to 6896
  151.8255  133.3365  159.3634 H   0  0  0  0  0  0  0  0  0  0  0  0  # atno 6909 bound_to 6896
  145.2177  140.9122  143.3277 H   0  0  0  0  0  0  0  0  0  0  0  0  # atno 7974 bound_to 7965
  155.0105  140.0393  157.2397 H   0  0  0  0  0  0  0  0  0  0  0  0  # atno 8008 bound_to 7997
  154.7465  140.2759  155.6306 H   0  0  0  0  0  0  0  0  0  0  0  0  # atno 8009 bound_to 7997
  156.2876  140.2655  156.2206 H   0  0  0  0  0  0  0  0  0  0  0  0  # atno 8010 bound_to 7997
  140.2469  144.3522  150.6361 H   0  0  0  0  0  0  0  0  0  0  0  0  # atno 10167 bound_to 10162
  157.2925  130.7310  149.6619 H   0  0  0  0  0  0  0  0  0  0  0  0  # atno 10718 bound_to 10713
  154.8639  135.3614  154.5373 H   0  0  0  0  0  0  0  0  0  0  0  0  # atno 10763 bound_to 10752
  153.5996  135.7013  153.5394 H   0  0  0  0  0  0  0  0  0  0  0  0  # atno 10764 bound_to 10752
  153.3302  135.4126  155.1450 H   0  0  0  0  0  0  0  0  0  0  0  0  # atno 10765 bound_to 10752
  141.1438  133.6673  156.5903 H   0  0  0  0  0  0  0  0  0  0  0  0  # atno 11005 bound_to 11000
  144.9795  139.3798  143.6269 LP  0  0  0  0  0  0  0  0  0  0  0  0  # atno 17320 bound_to 7965
  146.3383  139.8929  142.8806 LP  0  0  0  0  0  0  0  0  0  0  0  0  # atno 17321 bound_to 7965
  140.6071  143.2168  151.6960 LP  0  0  0  0  0  0  0  0  0  0  0  0  # atno 17342 bound_to 10162
  139.5059  144.3701  152.0478 LP  0  0  0  0  0  0  0  0  0  0  0  0  # atno 17343 bound_to 10162
  155.9668  130.4304  150.4876 LP  0  0  0  0  0  0  0  0  0  0  0  0  # atno 17370 bound_to 10713
  157.2842  131.0613  151.2178 LP  0  0  0  0  0  0  0  0  0  0  0  0  # atno 17371 bound_to 10713
  140.3768  134.7558  157.4635 LP  0  0  0  0  0  0  0  0  0  0  0  0  # atno 17394 bound_to 11000
  140.0668  134.5918  155.8686 LP  0  0  0  0  0  0  0  0  0  0  0  0  # atno 17395 bound_to 11000

$$$$
