AV-unprocessed.smi:2061|AV-procd|sdf|8381|dock10
  -GOLD-   2272011 63D 1   1.00000     0.00000
 Structure written by MMmdl.
 45 46  0  0  0  0  0  0  0  0  3 V2000
  158.3070  138.5384  151.7771 C   0  0  0  0  0  0  0  0  0  0  0  0
  157.0357  138.7233  152.5331 C   0  0  0  0  0  0  0  0  0  0  0  0
  156.0864  139.7056  152.5253 C   0  0  0  0  0  0  0  0  0  0  0  0
  155.1479  139.2584  153.4951 C   0  0  0  0  0  0  0  0  0  0  0  0
  154.0152  139.8868  153.8459 N   0  5  0  0  0  0  0  0  0  0  0  0
  153.0963  139.2575  154.6127 C   0  0  0  0  0  0  0  0  0  0  0  0
  152.9316  138.0390  154.7086 O   0  0  0  0  0  0  0  0  0  0  0  0
  152.3222  140.0928  155.3198 N   0  0  0  0  0  0  0  0  0  0  0  0
  151.2674  139.6956  156.2474 C   0  0  0  0  0  0  0  0  0  0  0  0
  150.5765  140.9040  156.9331 C   0  0  1  0  0  0  0  0  0  0  0  0
  149.3659  140.4223  157.7696 C   0  0  0  0  0  0  0  0  0  0  0  0
  151.5792  141.6886  157.7247 N   0  3  1  0  0  0  0  0  0  0  0  0
  151.0118  142.9506  158.2713 C   0  0  0  0  0  0  0  0  0  0  0  0
  152.0978  143.7869  158.9716 C   0  0  1  0  0  0  0  0  0  0  0  0
  151.5324  145.0699  159.5913 C   0  0  0  0  0  0  0  0  0  0  0  0
  152.6734  143.0098  160.0133 O   0  0  0  0  0  0  0  0  0  0  0  0
  153.3097  141.8376  159.5219 C   0  0  1  0  0  0  0  0  0  0  0  0
  153.9712  141.1254  160.7071 C   0  0  0  0  0  0  0  0  0  0  0  0
  152.2699  140.9460  158.8148 C   0  0  0  0  0  0  0  0  0  0  0  0
  155.4880  138.0978  154.0299 N   0  0  0  0  0  0  0  0  0  0  0  0
  156.7014  137.7512  153.4239 O   0  0  0  0  0  0  0  0  0  0  0  0
  158.1518  138.7132  150.7126 H   0  0  0  0  0  0  0  0  0  0  0  0
  158.6942  137.5267  151.8998 H   0  0  0  0  0  0  0  0  0  0  0  0
  159.0675  139.2363  152.1276 H   0  0  0  0  0  0  0  0  0  0  0  0
  156.0678  140.6031  151.9258 H   0  0  0  0  0  0  0  0  0  0  0  0
  152.4866  141.0825  155.2083 H   0  0  0  0  0  0  0  0  0  0  0  0
  150.5304  139.1217  155.6852 H   0  0  0  0  0  0  0  0  0  0  0  0
  151.6978  139.0034  156.9701 H   0  0  0  0  0  0  0  0  0  0  0  0
  150.1781  141.5672  156.1637 H   0  0  0  0  0  0  0  0  0  0  0  0
  148.6702  139.8343  157.1709 H   0  0  0  0  0  0  0  0  0  0  0  0
  148.7823  141.2552  158.1618 H   0  0  0  0  0  0  0  0  0  0  0  0
  149.6814  139.7989  158.6066 H   0  0  0  0  0  0  0  0  0  0  0  0
  150.5626  143.5519  157.4830 H   0  0  0  0  0  0  0  0  0  0  0  0
  150.2134  142.7124  158.9764 H   0  0  0  0  0  0  0  0  0  0  0  0
  152.8723  144.0622  158.2534 H   0  0  0  0  0  0  0  0  0  0  0  0
  151.0820  145.7080  158.8306 H   0  0  0  0  0  0  0  0  0  0  0  0
  152.3186  145.6441  160.0824 H   0  0  0  0  0  0  0  0  0  0  0  0
  150.7682  144.8464  160.3364 H   0  0  0  0  0  0  0  0  0  0  0  0
  154.0890  142.1234  158.8132 H   0  0  0  0  0  0  0  0  0  0  0  0
  154.4914  140.2234  160.3842 H   0  0  0  0  0  0  0  0  0  0  0  0
  153.2334  140.8361  161.4562 H   0  0  0  0  0  0  0  0  0  0  0  0
  154.7011  141.7736  161.1928 H   0  0  0  0  0  0  0  0  0  0  0  0
  151.5315  140.5809  159.5307 H   0  0  0  0  0  0  0  0  0  0  0  0
  152.7985  140.0800  158.4175 H   0  0  0  0  0  0  0  0  0  0  0  0
  152.3034  141.9509  157.0714 H   0  0  0  0  0  0  0  0  0  0  0  0
  1  2  1  0  0  0  0
  1 22  1  0  0  0  0
  1 23  1  0  0  0  0
  1 24  1  0  0  0  0
  2 21  1  0  0  0  0
  2  3  2  0  0  0  0
  3  4  1  0  0  0  0
  3 25  1  0  0  0  0
  4  5  1  0  0  0  0
  4 20  2  0  0  0  0
  5  6  1  0  0  0  0
  6  7  2  0  0  0  0
  6  8  1  0  0  0  0
  8  9  1  0  0  0  0
  8 26  1  0  0  0  0
  9 10  1  0  0  0  0
  9 27  1  0  0  0  0
  9 28  1  0  0  0  0
 10 11  1  0  0  0  0
 10 12  1  0  0  0  0
 10 29  1  0  0  0  0
 11 30  1  0  0  0  0
 11 31  1  0  0  0  0
 11 32  1  0  0  0  0
 12 19  1  0  0  0  0
 12 13  1  0  0  0  0
 12 45  1  0  0  0  0
 13 14  1  0  0  0  0
 13 33  1  0  0  0  0
 13 34  1  0  0  0  0
 14 15  1  0  0  0  0
 14 16  1  0  0  0  0
 14 35  1  0  0  0  0
 15 36  1  0  0  0  0
 15 37  1  0  0  0  0
 15 38  1  0  0  0  0
 16 17  1  0  0  0  0
 17 18  1  0  0  0  0
 17 19  1  0  0  0  0
 17 39  1  0  0  0  0
 18 40  1  0  0  0  0
 18 41  1  0  0  0  0
 18 42  1  0  0  0  0
 19 43  1  0  0  0  0
 19 44  1  0  0  0  0
 20 21  1  0  0  0  0
M  CHG  1   5  -1
M  CHG  1  12   1
M  END
> <s_m_source_file>
AV-unprocessed.smi

> <i_m_source_file_index>
2061

> <i_lp_mmshare_version>
43012

> <i_f3d_flags>
0

> <s_epik_input>
W0NIM11jMVtjSF1jKG5vMSlbTkhdQyg9TylbTkhdW0NIMl1bQ0BIXShbQ0gzXSlOMltDSDJdW0NAQEhdKFtDSDNdKU9bQ0BASF0oW0NIM10pW0NIMl0y

> <s_epik_cmdline>
J2VwaWtfcHl0aG9uJywgJy1waCcsICc3LjAnLCAnLXRuJywgJzgnLCAnLW1hJywgJzIwMCcsICctbWV0YWxfYmluZGluZycsICctaW1hZScsICc8aW5maWxlLm1hZT4nLCAnLW9tYWUnLCAnPG91dGZpbGUubWFlPic=

> <r_epik_Ionization_Penalty>
6.73511

> <r_epik_Ionization_Penalty_Charging>
6.73502

> <r_epik_Ionization_Penalty_Neutral>
9.50841e-05

> <r_epik_State_Penalty>
6.93549

> <r_epik_Charging_Adjusted_Penalty>
13.6705

> <i_epik_Tot_Q>
0

> <i_epik_Tot_abs_Q>
2

> <r_epik_Metal_State_Penalty>
2.87211

> <b_epik_Metal_Only>
1

> <s_lp_Force_Field>
OPLS_2005

> <r_lp_Energy>
8.02842

> <b_lp_Chiralities_Consistent>
1

> <s_lp_Variant>
AV-unprocessed.smi:2061-22

> <Gold.Version>
5.8.1

> <Gold.Id.Protein>
6NUR|6NUR_protein|mol2

> <Gold.PLP.Fitness>
48.1024

> <Gold.PLP.PLP>
-40.7801

> <Gold.PLP.part.hbond>
-4.0000

> <Gold.PLP.part.metal>
0.0000

> <Gold.PLP.part.buried>
-2.8982

> <Gold.PLP.part.nonpolar>
-36.1897

> <Gold.PLP.part.repulsive>
0.4834

> <Gold.PLP.ligand.clash>
0.0000

> <Gold.PLP.ligand.torsion>
0.1902

> <Gold.PLP.Chemscore.Hbond>
2.5395

> <Gold.PLP.Chemscore.CHOScore>
0.0000

> <Gold.PLP.Chemscore.Metal>
0.0000

> <Gold.Chemscore.Hbonds>
donor molecule, donor type, donor heavy atom, donor atom, acceptor molecule, acceptor atom, score
      P1  H  7997  8008       L1     5  0.14

> <Gold.PLP.Chemscore.Internal.Correction>
0.0842

> <Gold.Rescore>
     Score         DG    S(hbond)    S(metal)    S(lipo)     H(rot)  DE(clash)    DE(int)     intcor
     14.19     -16.23       0.62        0.00     108.35       1.56       0.13       1.91       ----

> <Gold.Chemscore.Fitness>
14.1858

> <Gold.Chemscore.DG>
-16.2317

> <Gold.Chemscore.ZeroCoef>
-5.4800

> <Gold.Chemscore.Hbond>
0.6154

> <Gold.Chemscore.Metal>
0.0000

> <Gold.Chemscore.Lipo>
108.3508

> <Gold.Chemscore.Internal_Hbond>
0.0000

> <Gold.Chemscore.DEClash>
0.1349

> <Gold.Chemscore.DEInternal>
1.9109

> <Gold.Chemscore.Rot>
1.5550

> <Gold.Chemscore.Internal.Correction>
   9.000000E+99

> <Gold.Chemscore.Hbonds>
donor molecule, donor type, donor heavy atom, donor atom, acceptor molecule, acceptor atom, score
      P1  H 10752 10763       L1     7  0.01

> <Gold.Chemscore.Hbond.Weighted>
-2.0555

> <Gold.Chemscore.Metal.Weighted>
-0.0000

> <Gold.Chemscore.Lipo.Weighted>
-12.6770

> <Gold.Chemscore.Internal_Hbond.Weighted>
0.0000

> <Gold.Chemscore.DEClash.Weighted>
0.1349

> <Gold.Chemscore.DEInternal.Weighted>
1.9109

> <Gold.Chemscore.Rot.Weighted>
3.9809

> <Gold.Chemscore.Internal.Correction.Weighted>
   9.000000E+99

> <Gold.Protein.RotatedTorsions>
[ 6907 6896 6895 6894 ] final  -17.14 input  -60.11 | X-H torsion
[ 7974 7965 7964 7962 ] final  113.18 input  175.53 | X-H torsion
[ 8008 7997 7996 7995 ] final   12.25 input   59.86 | X-H torsion
[ 10167 10162 10161 10158 ] final  163.15 input  -65.29 | X-H torsion
[ 10718 10713 10712 10709 ] final   39.92 input   66.30 | X-H torsion
[ 10763 10752 10751 10750 ] final   72.82 input  -60.55 | X-H torsion
[ 11005 11000 10999 10996 ] final   49.52 input  -57.11 | X-H torsion

> <Gold.Protein.ActiveResidues>
 VAL166  LYS551  ARG553  GLY616  TRP617  ASP618  TYR619  PRO620  LYS621  CYS622 
 ASP623  PHE694  ASN695  SER759  ASP760  ASP761  ALA762  ILE779  LEU786  VAL792 
 PHE793  MET794  SER795  GLU796  ALA797  LYS798  CYS799  TRP800  GLU811  SER814 

> <Gold.Protein.RotatedAtoms>
  151.2978  135.0760  159.9227 H   0  0  0  0  0  0  0  0  0  0  0  0  # atno 6907 bound_to 6896
  152.5304  133.9865  159.7841 H   0  0  0  0  0  0  0  0  0  0  0  0  # atno 6908 bound_to 6896
  151.0146  133.5882  159.2709 H   0  0  0  0  0  0  0  0  0  0  0  0  # atno 6909 bound_to 6896
  145.2202  139.2866  143.4222 H   0  0  0  0  0  0  0  0  0  0  0  0  # atno 7974 bound_to 7965
  154.8180  140.2879  155.5806 H   0  0  0  0  0  0  0  0  0  0  0  0  # atno 8008 bound_to 7997
  156.2995  140.2555  156.3012 H   0  0  0  0  0  0  0  0  0  0  0  0  # atno 8009 bound_to 7997
  154.9371  140.0382  157.2067 H   0  0  0  0  0  0  0  0  0  0  0  0  # atno 8010 bound_to 7997
  139.4870  144.4366  151.9005 H   0  0  0  0  0  0  0  0  0  0  0  0  # atno 10167 bound_to 10162
  157.3761  130.7728  149.7157 H   0  0  0  0  0  0  0  0  0  0  0  0  # atno 10718 bound_to 10713
  153.0483  135.5085  154.7802 H   0  0  0  0  0  0  0  0  0  0  0  0  # atno 10763 bound_to 10752
  154.6684  135.2949  154.9776 H   0  0  0  0  0  0  0  0  0  0  0  0  # atno 10764 bound_to 10752
  154.0603  135.6692  153.4863 H   0  0  0  0  0  0  0  0  0  0  0  0  # atno 10765 bound_to 10752
  140.1097  134.4972  155.8689 H   0  0  0  0  0  0  0  0  0  0  0  0  # atno 11005 bound_to 11000
  146.3378  140.2505  142.8598 LP  0  0  0  0  0  0  0  0  0  0  0  0  # atno 17320 bound_to 7965
  144.9773  140.8426  143.5419 LP  0  0  0  0  0  0  0  0  0  0  0  0  # atno 17321 bound_to 7965
  140.3816  144.2729  150.5908 LP  0  0  0  0  0  0  0  0  0  0  0  0  # atno 17342 bound_to 10162
  140.5228  143.2261  151.8361 LP  0  0  0  0  0  0  0  0  0  0  0  0  # atno 17343 bound_to 10162
  155.9766  130.4074  150.3771 LP  0  0  0  0  0  0  0  0  0  0  0  0  # atno 17370 bound_to 10713
  157.1868  131.0405  151.2720 LP  0  0  0  0  0  0  0  0  0  0  0  0  # atno 17371 bound_to 10713
  141.2127  133.6723  156.6680 LP  0  0  0  0  0  0  0  0  0  0  0  0  # atno 17394 bound_to 11000
  140.3108  134.8087  157.4175 LP  0  0  0  0  0  0  0  0  0  0  0  0  # atno 17395 bound_to 11000

$$$$
