AV-unprocessed.smi:781|AV-procd|sdf|3707|dock7
  -GOLD-   22720 1133D 1   1.00000     0.00000
 Structure written by MMmdl.
 38 40  0  0  0  0  0  0  0  0  1 V2000
  149.2968  124.0946  150.5480 C   0  0  0  0  0  0  0  0  0  0  0  0
  148.7087  125.3613  151.0679 C   0  0  0  0  0  0  0  0  0  0  0  0
  148.5494  126.6049  150.5243 C   0  0  0  0  0  0  0  0  0  0  0  0
  147.9166  127.3315  151.5678 C   0  0  0  0  0  0  0  0  0  0  0  0
  147.5714  128.6962  151.3975 N   0  0  0  0  0  0  0  0  0  0  0  0
  146.4925  129.3355  151.8804 C   0  0  0  0  0  0  0  0  0  0  0  0
  145.6095  128.8203  152.5667 O   0  0  0  0  0  0  0  0  0  0  0  0
  146.4921  130.6264  151.5198 N   0  0  0  0  0  0  0  0  0  0  0  0
  145.4660  131.6000  151.8840 C   0  0  2  0  0  0  0  0  0  0  0  0
  144.6224  131.9823  150.6479 C   0  0  1  0  0  0  0  0  0  0  0  0
  143.3321  132.6736  151.1240 C   0  0  0  0  0  0  0  0  0  0  0  0
  143.8460  134.0458  151.5991 C   0  0  0  0  0  0  0  0  0  0  0  0
  145.3669  133.9521  151.3499 C   0  0  2  0  0  0  0  0  0  0  0  0
  145.3992  133.1538  150.0528 C   0  0  0  0  0  0  0  0  0  0  0  0
  146.0589  132.9641  152.3222 C   0  0  1  0  0  0  0  0  0  0  0  0
  145.9017  133.2655  153.8255 C   0  0  0  0  0  0  0  0  0  0  0  0
  146.5734  132.2911  154.5954 O   0  0  0  0  0  0  0  0  0  0  0  0
  147.7093  126.5984  152.6510 N   0  0  0  0  0  0  0  0  0  0  0  0
  148.2164  125.3320  152.3362 O   0  0  0  0  0  0  0  0  0  0  0  0
  149.4284  124.1416  149.4668 H   0  0  0  0  0  0  0  0  0  0  0  0
  148.6500  123.2462  150.7714 H   0  0  0  0  0  0  0  0  0  0  0  0
  150.2707  123.9071  151.0000 H   0  0  0  0  0  0  0  0  0  0  0  0
  148.8392  126.9381  149.5389 H   0  0  0  0  0  0  0  0  0  0  0  0
  148.2150  129.2451  150.8473 H   0  0  0  0  0  0  0  0  0  0  0  0
  147.2587  130.9649  150.9570 H   0  0  0  0  0  0  0  0  0  0  0  0
  144.8246  131.1691  152.6555 H   0  0  0  0  0  0  0  0  0  0  0  0
  144.4363  131.1545  149.9625 H   0  0  0  0  0  0  0  0  0  0  0  0
  142.6278  132.7930  150.2999 H   0  0  0  0  0  0  0  0  0  0  0  0
  142.8275  132.1187  151.9158 H   0  0  0  0  0  0  0  0  0  0  0  0
  143.4114  134.8395  150.9902 H   0  0  0  0  0  0  0  0  0  0  0  0
  143.5872  134.2595  152.6352 H   0  0  0  0  0  0  0  0  0  0  0  0
  145.8596  134.9233  151.2946 H   0  0  0  0  0  0  0  0  0  0  0  0
  146.4076  132.8882  149.7303 H   0  0  0  0  0  0  0  0  0  0  0  0
  144.8798  133.6438  149.2274 H   0  0  0  0  0  0  0  0  0  0  0  0
  147.1273  132.9797  152.0964 H   0  0  0  0  0  0  0  0  0  0  0  0
  146.2705  134.2567  154.0860 H   0  0  0  0  0  0  0  0  0  0  0  0
  144.8465  133.2460  154.0985 H   0  0  0  0  0  0  0  0  0  0  0  0
  147.4076  132.6444  154.8642 H   0  0  0  0  0  0  0  0  0  0  0  0
  1  2  1  0  0  0  0
  1 20  1  0  0  0  0
  1 21  1  0  0  0  0
  1 22  1  0  0  0  0
  2 19  1  0  0  0  0
  2  3  2  0  0  0  0
  3  4  1  0  0  0  0
  3 23  1  0  0  0  0
  4  5  1  0  0  0  0
  4 18  2  0  0  0  0
  5  6  1  0  0  0  0
  5 24  1  0  0  0  0
  6  7  2  0  0  0  0
  6  8  1  0  0  0  0
  8  9  1  0  0  0  0
  8 25  1  0  0  0  0
  9 15  1  0  0  0  0
  9 10  1  0  0  0  0
  9 26  1  0  0  0  0
 10 14  1  0  0  0  0
 10 11  1  0  0  0  0
 10 27  1  0  0  0  0
 11 12  1  0  0  0  0
 11 28  1  0  0  0  0
 11 29  1  0  0  0  0
 12 13  1  0  0  0  0
 12 30  1  0  0  0  0
 12 31  1  0  0  0  0
 13 14  1  0  0  0  0
 13 15  1  0  0  0  0
 13 32  1  0  0  0  0
 14 33  1  0  0  0  0
 14 34  1  0  0  0  0
 15 16  1  0  0  0  0
 15 35  1  0  0  0  0
 16 17  1  0  0  0  0
 16 36  1  0  0  0  0
 16 37  1  0  0  0  0
 17 38  1  0  0  0  0
 18 19  1  0  0  0  0
M  END
> <s_m_source_file>
AV-unprocessed.smi

> <i_m_source_file_index>
781

> <i_lp_mmshare_version>
43012

> <i_f3d_flags>
0

> <s_epik_input>
W0NIM11jMVtjSF1jKG5vMSlbTkhdQyg9TylbTkhdW0NASF0oW0NAQEhdMjMpW0NASF0oW0NIMl1bT0hdKVtDQEBIXShbQ0gyXTMpW0NIMl1bQ0gyXTI=

> <s_epik_cmdline>
J2VwaWtfcHl0aG9uJywgJy1waCcsICc3LjAnLCAnLXRuJywgJzgnLCAnLW1hJywgJzIwMCcsICctbWV0YWxfYmluZGluZycsICctaW1hZScsICc8aW5maWxlLm1hZT4nLCAnLW9tYWUnLCAnPG91dGZpbGUubWFlPic=

> <r_lp_tautomer_probability>
1

> <r_epik_Ionization_Penalty>
2.32222e-05

> <r_epik_Ionization_Penalty_Charging>
0

> <r_epik_Ionization_Penalty_Neutral>
2.32222e-05

> <r_epik_State_Penalty>
-0

> <r_epik_Charging_Adjusted_Penalty>
0

> <i_epik_Tot_Q>
0

> <i_epik_Tot_abs_Q>
0

> <r_epik_Metal_State_Penalty>
-0

> <b_epik_Metal_Only>
0

> <s_lp_Force_Field>
OPLS_2005

> <r_lp_Energy>
47.0606

> <b_lp_Chiralities_Consistent>
1

> <s_lp_Variant>
AV-unprocessed.smi:781-1

> <Gold.Version>
5.8.1

> <Gold.Id.Protein>
6NUR|6NUR_protein|mol2

> <Gold.PLP.Fitness>
42.1846

> <Gold.PLP.PLP>
-37.1537

> <Gold.PLP.part.hbond>
-2.7088

> <Gold.PLP.part.metal>
0.0000

> <Gold.PLP.part.buried>
-6.5068

> <Gold.PLP.part.nonpolar>
-27.6485

> <Gold.PLP.part.repulsive>
0.3059

> <Gold.PLP.ligand.clash>
0.0000

> <Gold.PLP.ligand.torsion>
0.4189

> <Gold.PLP.Chemscore.Hbond>
1.9500

> <Gold.PLP.Chemscore.CHOScore>
0.0000

> <Gold.PLP.Chemscore.Metal>
0.0000

> <Gold.Chemscore.Hbonds>
donor molecule, donor type, donor heavy atom, donor atom, acceptor molecule, acceptor atom, score
      L1  H     5    24       P1 10747  0.95
      L1  H     8    25       P1 10747  1.00

> <Gold.PLP.Chemscore.Internal.Correction>
0.0185

> <Gold.Rescore>
     Score         DG    S(hbond)    S(metal)    S(lipo)     H(rot)  DE(clash)    DE(int)     intcor
     12.85     -13.39       1.33        0.00      70.30       1.86       0.00       0.54       ----

> <Gold.Chemscore.Fitness>
12.8515

> <Gold.Chemscore.DG>
-13.3913

> <Gold.Chemscore.ZeroCoef>
-5.4800

> <Gold.Chemscore.Hbond>
1.3309

> <Gold.Chemscore.Metal>
0.0000

> <Gold.Chemscore.Lipo>
70.2952

> <Gold.Chemscore.Internal_Hbond>
0.0000

> <Gold.Chemscore.DEClash>
0.0019

> <Gold.Chemscore.DEInternal>
0.5379

> <Gold.Chemscore.Rot>
1.8587

> <Gold.Chemscore.Internal.Correction>
   9.000000E+99

> <Gold.Chemscore.Hbonds>
donor molecule, donor type, donor heavy atom, donor atom, acceptor molecule, acceptor atom, score
      L1  H     5    24       P1 10747  0.21
      L1  H     8    25       P1 10747  0.97

> <Gold.Chemscore.Hbond.Weighted>
-4.4450

> <Gold.Chemscore.Metal.Weighted>
-0.0000

> <Gold.Chemscore.Lipo.Weighted>
-8.2245

> <Gold.Chemscore.Internal_Hbond.Weighted>
0.0000

> <Gold.Chemscore.DEClash.Weighted>
0.0019

> <Gold.Chemscore.DEInternal.Weighted>
0.5379

> <Gold.Chemscore.Rot.Weighted>
4.7583

> <Gold.Chemscore.Internal.Correction.Weighted>
   9.000000E+99

> <Gold.Protein.RotatedTorsions>
[ 6907 6896 6895 6894 ] final  -32.16 input  -60.11 | X-H torsion
[ 7974 7965 7964 7962 ] final   -3.21 input  175.53 | X-H torsion
[ 8008 7997 7996 7995 ] final  -76.00 input   59.86 | X-H torsion
[ 10167 10162 10161 10158 ] final   18.15 input  -65.29 | X-H torsion
[ 10718 10713 10712 10709 ] final  139.62 input   66.30 | X-H torsion
[ 10763 10752 10751 10750 ] final -126.64 input  -60.55 | X-H torsion
[ 11005 11000 10999 10996 ] final   58.01 input  -57.11 | X-H torsion

> <Gold.Protein.ActiveResidues>
 VAL166  LYS551  ARG553  GLY616  TRP617  ASP618  TYR619  PRO620  LYS621  CYS622 
 ASP623  PHE694  ASN695  SER759  ASP760  ASP761  ALA762  ILE779  LEU786  VAL792 
 PHE793  MET794  SER795  GLU796  ALA797  LYS798  CYS799  TRP800  GLU811  SER814 

> <Gold.Protein.RotatedAtoms>
  151.0825  134.9867  159.8362 H   0  0  0  0  0  0  0  0  0  0  0  0  # atno 6907 bound_to 6896
  152.5421  134.2164  159.8780 H   0  0  0  0  0  0  0  0  0  0  0  0  # atno 6908 bound_to 6896
  151.2195  133.4466  159.2634 H   0  0  0  0  0  0  0  0  0  0  0  0  # atno 6909 bound_to 6896
  146.2393  140.1687  142.8332 H   0  0  0  0  0  0  0  0  0  0  0  0  # atno 7974 bound_to 7965
  154.5466  140.0734  156.8599 H   0  0  0  0  0  0  0  0  0  0  0  0  # atno 8008 bound_to 7997
  155.3074  140.3388  155.4227 H   0  0  0  0  0  0  0  0  0  0  0  0  # atno 8009 bound_to 7997
  156.1924  140.1691  156.8052 H   0  0  0  0  0  0  0  0  0  0  0  0  # atno 8010 bound_to 7997
  140.5674  143.9225  150.6687 H   0  0  0  0  0  0  0  0  0  0  0  0  # atno 10167 bound_to 10162
  157.4124  131.1029  151.0440 H   0  0  0  0  0  0  0  0  0  0  0  0  # atno 10718 bound_to 10713
  154.8747  135.3989  154.3463 H   0  0  0  0  0  0  0  0  0  0  0  0  # atno 10763 bound_to 10752
  153.4255  135.7024  153.6270 H   0  0  0  0  0  0  0  0  0  0  0  0  # atno 10764 bound_to 10752
  153.4914  135.3747  155.2463 H   0  0  0  0  0  0  0  0  0  0  0  0  # atno 10765 bound_to 10752
  140.0409  134.5875  155.9383 H   0  0  0  0  0  0  0  0  0  0  0  0  # atno 11005 bound_to 11000
  145.0030  140.8648  143.5270 LP  0  0  0  0  0  0  0  0  0  0  0  0  # atno 17320 bound_to 7965
  145.1709  139.2405  143.5343 LP  0  0  0  0  0  0  0  0  0  0  0  0  # atno 17321 bound_to 7965
  140.2692  143.3468  152.1254 LP  0  0  0  0  0  0  0  0  0  0  0  0  # atno 17342 bound_to 10162
  139.5100  144.6876  151.5845 LP  0  0  0  0  0  0  0  0  0  0  0  0  # atno 17343 bound_to 10162
  157.1400  130.6139  149.5552 LP  0  0  0  0  0  0  0  0  0  0  0  0  # atno 17370 bound_to 10713
  155.9854  130.4884  150.7032 LP  0  0  0  0  0  0  0  0  0  0  0  0  # atno 17371 bound_to 10713
  141.1882  133.6562  156.5316 LP  0  0  0  0  0  0  0  0  0  0  0  0  # atno 17394 bound_to 11000
  140.4071  134.7305  157.4814 LP  0  0  0  0  0  0  0  0  0  0  0  0  # atno 17395 bound_to 11000

$$$$
