AV-unprocessed.smi:287|AV-procd|sdf|2206|dock10
  -GOLD-   2262022 33D 1   1.00000     0.00000
 Structure written by MMmdl.
 55 58  0  0  0  0  0  0  0  0  1 V2000
  147.2953  123.0641  147.8643 C   0  0  0  0  0  0  0  0  0  0  0  0
  147.6525  123.3495  149.2826 C   0  0  0  0  0  0  0  0  0  0  0  0
  148.1117  124.4551  149.9369 C   0  0  0  0  0  0  0  0  0  0  0  0
  148.2604  124.1055  151.3122 C   0  0  0  0  0  0  0  0  0  0  0  0
  148.7415  125.0334  152.4199 C   0  0  2  0  0  0  0  0  0  0  0  0
  150.0013  124.4503  153.0820 C   0  0  0  0  0  0  0  0  0  0  0  0
  147.8019  125.1742  153.4678 O   0  0  0  0  0  0  0  0  0  0  0  0
  149.0250  126.4629  151.9051 C   0  0  0  0  0  0  0  0  0  0  0  0
  149.3868  127.3890  152.9734 N   0  0  0  0  0  0  0  0  0  0  0  0
  148.6651  128.5117  153.1720 C   0  0  0  0  0  0  0  0  0  0  0  0
  148.9083  129.3214  154.2353 N   0  0  0  0  0  0  0  0  0  0  0  0
  148.1808  130.4285  154.4093 C   0  0  0  0  0  0  0  0  0  0  0  0
  147.1856  130.8995  153.6552 N   0  0  0  0  0  0  0  0  0  0  0  0
  146.9372  130.0909  152.5843 C   0  0  0  0  0  0  0  0  0  0  0  0
  147.6291  128.8857  152.2780 C   0  0  0  0  0  0  0  0  0  0  0  0
  147.1088  128.3238  151.1201 N   0  0  0  0  0  0  0  0  0  0  0  0
  146.1640  129.1521  150.7656 C   0  0  0  0  0  0  0  0  0  0  0  0
  145.9897  130.2422  151.5896 N   0  0  0  0  0  0  0  0  0  0  0  0
  144.9864  131.3452  151.4267 C   0  0  2  0  0  0  0  0  0  0  0  0
  144.3655  131.2338  150.1789 O   0  0  0  0  0  0  0  0  0  0  0  0
  144.5890  132.4090  149.3989 C   0  0  1  0  0  0  0  0  0  0  0  0
  143.3800  132.6663  148.4863 C   0  0  0  0  0  0  0  0  0  0  0  0
  143.4356  133.9764  147.9639 O   0  0  0  0  0  0  0  0  0  0  0  0
  144.7918  133.4880  150.4641 C   0  0  2  0  0  0  0  0  0  0  0  0
  145.4401  134.6471  149.9765 O   0  0  0  0  0  0  0  0  0  0  0  0
  145.6056  132.7529  151.5191 C   0  0  2  0  0  0  0  0  0  0  0  0
  146.9997  132.7817  151.2503 O   0  0  0  0  0  0  0  0  0  0  0  0
  147.8801  122.7864  151.3818 C   0  0  0  0  0  0  0  0  0  0  0  0
  147.7906  121.7874  152.4884 C   0  0  0  0  0  0  0  0  0  0  0  0
  147.5083  122.3219  150.1562 O   0  0  0  0  0  0  0  0  0  0  0  0
  144.2443  131.1591  152.2040 H   0  0  0  0  0  0  0  0  0  0  0  0
  145.5050  132.2979  148.8161 H   0  0  0  0  0  0  0  0  0  0  0  0
  143.8261  133.7715  150.8858 H   0  0  0  0  0  0  0  0  0  0  0  0
  145.4400  133.1609  152.5167 H   0  0  0  0  0  0  0  0  0  0  0  0
  147.3753  123.9640  147.2543 H   0  0  0  0  0  0  0  0  0  0  0  0
  146.2720  122.6958  147.7898 H   0  0  0  0  0  0  0  0  0  0  0  0
  147.9596  122.3096  147.4429 H   0  0  0  0  0  0  0  0  0  0  0  0
  148.3138  125.4132  149.4814 H   0  0  0  0  0  0  0  0  0  0  0  0
  150.8118  124.3382  152.3610 H   0  0  0  0  0  0  0  0  0  0  0  0
  149.8051  123.4661  153.5098 H   0  0  0  0  0  0  0  0  0  0  0  0
  150.3659  125.0930  153.8843 H   0  0  0  0  0  0  0  0  0  0  0  0
  146.9343  125.1776  153.0937 H   0  0  0  0  0  0  0  0  0  0  0  0
  149.7927  126.4534  151.1298 H   0  0  0  0  0  0  0  0  0  0  0  0
  148.1177  126.8523  151.4408 H   0  0  0  0  0  0  0  0  0  0  0  0
  150.1548  127.1054  153.5653 H   0  0  0  0  0  0  0  0  0  0  0  0
  148.4314  131.0223  155.2758 H   0  0  0  0  0  0  0  0  0  0  0  0
  145.5605  128.9877  149.8847 H   0  0  0  0  0  0  0  0  0  0  0  0
  143.3292  131.9363  147.6778 H   0  0  0  0  0  0  0  0  0  0  0  0
  142.4546  132.5824  149.0569 H   0  0  0  0  0  0  0  0  0  0  0  0
  144.2889  134.1118  147.5810 H   0  0  0  0  0  0  0  0  0  0  0  0
  145.5433  134.5553  149.0408 H   0  0  0  0  0  0  0  0  0  0  0  0
  147.2397  131.9712  150.8275 H   0  0  0  0  0  0  0  0  0  0  0  0
  148.7574  121.6628  152.9758 H   0  0  0  0  0  0  0  0  0  0  0  0
  147.4751  120.8126  152.1163 H   0  0  0  0  0  0  0  0  0  0  0  0
  147.0695  122.1081  153.2403 H   0  0  0  0  0  0  0  0  0  0  0  0
  1  2  1  0  0  0  0
  1 35  1  0  0  0  0
  1 36  1  0  0  0  0
  1 37  1  0  0  0  0
  2 30  1  0  0  0  0
  2  3  2  0  0  0  0
  3  4  1  0  0  0  0
  3 38  1  0  0  0  0
  4  5  1  0  0  0  0
  4 28  2  0  0  0  0
  5  6  1  0  0  0  0
  5  7  1  0  0  0  0
  5  8  1  0  0  0  0
  6 39  1  0  0  0  0
  6 40  1  0  0  0  0
  6 41  1  0  0  0  0
  7 42  1  0  0  0  0
  8  9  1  0  0  0  0
  8 43  1  0  0  0  0
  8 44  1  0  0  0  0
  9 10  1  0  0  0  0
  9 45  1  0  0  0  0
 10 15  1  0  0  0  0
 10 11  2  0  0  0  0
 11 12  1  0  0  0  0
 12 13  2  0  0  0  0
 12 46  1  0  0  0  0
 13 14  1  0  0  0  0
 14 18  1  0  0  0  0
 14 15  2  0  0  0  0
 15 16  1  0  0  0  0
 16 17  2  0  0  0  0
 17 18  1  0  0  0  0
 17 47  1  0  0  0  0
 18 19  1  0  0  0  0
 19 31  1  0  0  0  0
 19 26  1  0  0  0  0
 19 20  1  0  0  0  0
 20 21  1  0  0  0  0
 21 32  1  0  0  0  0
 21 22  1  0  0  0  0
 21 24  1  0  0  0  0
 22 23  1  0  0  0  0
 22 48  1  0  0  0  0
 22 49  1  0  0  0  0
 23 50  1  0  0  0  0
 24 33  1  0  0  0  0
 24 25  1  0  0  0  0
 24 26  1  0  0  0  0
 25 51  1  0  0  0  0
 26 34  1  0  0  0  0
 26 27  1  0  0  0  0
 27 52  1  0  0  0  0
 28 29  1  0  0  0  0
 28 30  1  0  0  0  0
 29 53  1  0  0  0  0
 29 54  1  0  0  0  0
 29 55  1  0  0  0  0
M  END
> <s_m_source_file>
AV-unprocessed.smi

> <i_m_source_file_index>
287

> <i_lp_mmshare_version>
43012

> <i_f3d_flags>
0

> <s_epik_input>
W0NIM11jMVtjSF1jKGMobzEpW0NIM10pW0NAQF0oW0NIM10pKFtPSF0pW0NIMl1bTkhdYyhuW2NIXW4yKWMoYzIzKW5bY0hdbjNbQ0BASF00T1tDQEhdKFtDSDJdW09IXSlbQ0BASF0oW09IXSlbQ0BIXTRbT0hd

> <s_epik_cmdline>
J2VwaWtfcHl0aG9uJywgJy1waCcsICc3LjAnLCAnLXRuJywgJzgnLCAnLW1hJywgJzIwMCcsICctbWV0YWxfYmluZGluZycsICctaW1hZScsICc8aW5maWxlLm1hZT4nLCAnLW9tYWUnLCAnPG91dGZpbGUubWFlPic=

> <r_lp_tautomer_probability>
1

> <r_epik_Ionization_Penalty>
0.000992612

> <r_epik_Ionization_Penalty_Charging>
0

> <r_epik_Ionization_Penalty_Neutral>
0.000992612

> <r_epik_State_Penalty>
-0

> <r_epik_Charging_Adjusted_Penalty>
0

> <i_epik_Tot_Q>
0

> <i_epik_Tot_abs_Q>
0

> <r_epik_Metal_State_Penalty>
-0

> <b_epik_Metal_Only>
0

> <s_epik_Chemistry_Notes>
This compound contains an acetal/aminal-like group ( X-CH(R)-Y where X, Y are N, S, or O) that may be acid/base labile, releasing an aldehyde.

> <s_lp_Force_Field>
OPLS_2005

> <r_lp_Energy>
49.5285

> <b_lp_Chiralities_Consistent>
1

> <s_lp_Variant>
AV-unprocessed.smi:287-30

> <Gold.Version>
5.8.1

> <Gold.Id.Protein>
6NUR|6NUR_protein|mol2

> <Gold.PLP.Fitness>
60.1541

> <Gold.PLP.PLP>
-48.8923

> <Gold.PLP.part.hbond>
-8.6619

> <Gold.PLP.part.metal>
0.0000

> <Gold.PLP.part.buried>
-4.6390

> <Gold.PLP.part.nonpolar>
-35.8424

> <Gold.PLP.part.repulsive>
0.4658

> <Gold.PLP.ligand.clash>
0.0000

> <Gold.PLP.ligand.torsion>
0.2903

> <Gold.PLP.Chemscore.Hbond>
3.9200

> <Gold.PLP.Chemscore.CHOScore>
0.0000

> <Gold.PLP.Chemscore.Metal>
0.0000

> <Gold.Chemscore.Hbonds>
donor molecule, donor type, donor heavy atom, donor atom, acceptor molecule, acceptor atom, score
      L1  H    23    50       P1  7921  1.00
      L1  H    25    51       P1  7921  1.00
      L1  H    27    52       P1 10747  0.60
      P1  H 10192 10197       L1    23  1.00
      P1  H 10785 10796       L1    20  0.33

> <Gold.PLP.Chemscore.Internal.Correction>
0.0826

> <Gold.Rescore>
     Score         DG    S(hbond)    S(metal)    S(lipo)     H(rot)  DE(clash)    DE(int)     intcor
      8.38     -12.59       2.99        0.00      90.52       5.27       1.61       2.60       ----

> <Gold.Chemscore.Fitness>
8.3760

> <Gold.Chemscore.DG>
-12.5878

> <Gold.Chemscore.ZeroCoef>
-5.4800

> <Gold.Chemscore.Hbond>
2.9942

> <Gold.Chemscore.Metal>
0.0000

> <Gold.Chemscore.Lipo>
90.5228

> <Gold.Chemscore.Internal_Hbond>
0.0000

> <Gold.Chemscore.DEClash>
1.6138

> <Gold.Chemscore.DEInternal>
2.5980

> <Gold.Chemscore.Rot>
5.2672

> <Gold.Chemscore.Internal.Correction>
   9.000000E+99

> <Gold.Chemscore.Hbonds>
donor molecule, donor type, donor heavy atom, donor atom, acceptor molecule, acceptor atom, score
      L1  H    23    50       P1  7921  0.97
      L1  H    25    51       P1  7921  0.92
      L1  H    27    52       P1 10747  0.58
      P1  H 10192 10197       L1    23  0.81
      P1  H 10785 10796       L1    20  0.07

> <Gold.Chemscore.Hbond.Weighted>
-10.0006

> <Gold.Chemscore.Metal.Weighted>
-0.0000

> <Gold.Chemscore.Lipo.Weighted>
-10.5912

> <Gold.Chemscore.Internal_Hbond.Weighted>
0.0000

> <Gold.Chemscore.DEClash.Weighted>
1.6138

> <Gold.Chemscore.DEInternal.Weighted>
2.5980

> <Gold.Chemscore.Rot.Weighted>
13.4839

> <Gold.Chemscore.Internal.Correction.Weighted>
   9.000000E+99

> <Gold.Protein.RotatedTorsions>
[ 6907 6896 6895 6894 ] final   -1.09 input  -60.11 | X-H torsion
[ 7974 7965 7964 7962 ] final  108.03 input  175.53 | X-H torsion
[ 8008 7997 7996 7995 ] final  114.94 input   59.86 | X-H torsion
[ 10167 10162 10161 10158 ] final -146.36 input  -65.29 | X-H torsion
[ 10718 10713 10712 10709 ] final   75.38 input   66.30 | X-H torsion
[ 10763 10752 10751 10750 ] final  117.13 input  -60.55 | X-H torsion
[ 11005 11000 10999 10996 ] final -175.72 input  -57.11 | X-H torsion

> <Gold.Protein.ActiveResidues>
 VAL166  LYS551  ARG553  GLY616  TRP617  ASP618  TYR619  PRO620  LYS621  CYS622 
 ASP623  PHE694  ASN695  SER759  ASP760  ASP761  ALA762  ILE779  LEU786  VAL792 
 PHE793  MET794  SER795  GLU796  ALA797  LYS798  CYS799  TRP800  GLU811  SER814 

> <Gold.Protein.RotatedAtoms>
  151.5517  135.1067  159.9951 H   0  0  0  0  0  0  0  0  0  0  0  0  # atno 6907 bound_to 6896
  152.4488  133.7584  159.6744 H   0  0  0  0  0  0  0  0  0  0  0  0  # atno 6908 bound_to 6896
  150.8410  133.7868  159.3085 H   0  0  0  0  0  0  0  0  0  0  0  0  # atno 6909 bound_to 6896
  145.2860  139.2616  143.3890 H   0  0  0  0  0  0  0  0  0  0  0  0  # atno 7974 bound_to 7965
  156.2351  140.2949  156.0292 H   0  0  0  0  0  0  0  0  0  0  0  0  # atno 8008 bound_to 7997
  155.2113  140.0412  157.2951 H   0  0  0  0  0  0  0  0  0  0  0  0  # atno 8009 bound_to 7997
  154.6065  140.2440  155.7731 H   0  0  0  0  0  0  0  0  0  0  0  0  # atno 8010 bound_to 7997
  139.7720  143.8223  152.2626 H   0  0  0  0  0  0  0  0  0  0  0  0  # atno 10167 bound_to 10162
  157.6632  130.9723  150.1345 H   0  0  0  0  0  0  0  0  0  0  0  0  # atno 10718 bound_to 10713
  153.5477  135.3546  155.2746 H   0  0  0  0  0  0  0  0  0  0  0  0  # atno 10763 bound_to 10752
  154.8710  135.4106  154.2973 H   0  0  0  0  0  0  0  0  0  0  0  0  # atno 10764 bound_to 10752
  153.3692  135.7063  153.6719 H   0  0  0  0  0  0  0  0  0  0  0  0  # atno 10765 bound_to 10752
  140.4601  134.6262  157.4839 H   0  0  0  0  0  0  0  0  0  0  0  0  # atno 11005 bound_to 11000
  146.3201  140.3339  142.8642 LP  0  0  0  0  0  0  0  0  0  0  0  0  # atno 17320 bound_to 7965
  144.9213  140.7871  143.5746 LP  0  0  0  0  0  0  0  0  0  0  0  0  # atno 17321 bound_to 7965
  139.8261  144.7274  150.9510 LP  0  0  0  0  0  0  0  0  0  0  0  0  # atno 17342 bound_to 10162
  140.7814  143.4113  151.0987 LP  0  0  0  0  0  0  0  0  0  0  0  0  # atno 17343 bound_to 10162
  156.2184  130.3672  149.8586 LP  0  0  0  0  0  0  0  0  0  0  0  0  # atno 17370 bound_to 10713
  156.6446  130.8718  151.3520 LP  0  0  0  0  0  0  0  0  0  0  0  0  # atno 17371 bound_to 10713
  139.9951  134.6924  155.9624 LP  0  0  0  0  0  0  0  0  0  0  0  0  # atno 17394 bound_to 11000
  141.1625  133.6538  156.4367 LP  0  0  0  0  0  0  0  0  0  0  0  0  # atno 17395 bound_to 11000

$$$$
