AV-unprocessed.smi:2020|AV-procd|sdf|8174|dock7
  -GOLD-   2272010423D 1   1.00000     0.00000
 Structure written by MMmdl.
 40 41  0  0  0  0  0  0  0  0  1 V2000
  153.3376  138.4801  154.5043 C   0  0  0  0  0  0  0  0  0  0  0  0
  151.9390  138.0357  154.7624 C   0  0  0  0  0  0  0  0  0  0  0  0
  151.6284  136.8326  155.2512 N   0  0  0  0  0  0  0  0  0  0  0  0
  150.2505  136.6551  155.4111 C   0  0  0  0  0  0  0  0  0  0  0  0
  149.7207  135.3627  155.9541 C   0  0  0  0  0  0  0  0  0  0  0  0
  149.8693  134.2068  154.9505 C   0  0  0  0  0  0  0  0  0  0  0  0
  148.9688  134.3601  153.8137 N   0  0  0  0  0  0  0  0  0  0  0  0
  148.0231  133.4792  153.4586 C   0  0  0  0  0  0  0  0  0  0  0  0
  147.8015  132.4261  154.0569 O   0  0  0  0  0  0  0  0  0  0  0  0
  147.3516  133.8823  152.3707 N   0  0  0  0  0  0  0  0  0  0  0  0
  146.2643  133.1471  151.7317 C   0  0  2  0  0  0  0  0  0  0  0  0
  146.5867  132.8780  150.2477 C   0  0  0  0  0  0  0  0  0  0  0  0
  145.4253  132.1582  149.5403 C   0  0  0  0  0  0  0  0  0  0  0  0
  144.0915  132.9135  149.6914 C   0  0  2  0  0  0  0  0  0  0  0  0
  144.1232  134.1087  148.9365 O   0  0  0  0  0  0  0  0  0  0  0  0
  143.7834  133.2303  151.1670 C   0  0  0  0  0  0  0  0  0  0  0  0
  144.9534  133.9430  151.8677 C   0  0  0  0  0  0  0  0  0  0  0  0
  149.5165  137.7513  155.0319 C   0  0  0  0  0  0  0  0  0  0  0  0
  150.5314  139.0481  154.4625 S   0  0  0  0  0  0  0  0  0  0  0  0
  153.9357  137.6493  154.1285 H   0  0  0  0  0  0  0  0  0  0  0  0
  153.7866  138.8482  155.4268 H   0  0  0  0  0  0  0  0  0  0  0  0
  153.3493  139.2806  153.7644 H   0  0  0  0  0  0  0  0  0  0  0  0
  150.2409  135.1085  156.8784 H   0  0  0  0  0  0  0  0  0  0  0  0
  148.6713  135.4823  156.2263 H   0  0  0  0  0  0  0  0  0  0  0  0
  150.9007  134.1307  154.6017 H   0  0  0  0  0  0  0  0  0  0  0  0
  149.6364  133.2603  155.4389 H   0  0  0  0  0  0  0  0  0  0  0  0
  149.0740  135.1968  153.2586 H   0  0  0  0  0  0  0  0  0  0  0  0
  147.6104  134.7638  151.9525 H   0  0  0  0  0  0  0  0  0  0  0  0
  146.1353  132.1920  152.2445 H   0  0  0  0  0  0  0  0  0  0  0  0
  146.7967  133.8197  149.7386 H   0  0  0  0  0  0  0  0  0  0  0  0
  147.4916  132.2754  150.1617 H   0  0  0  0  0  0  0  0  0  0  0  0
  145.6611  132.0118  148.4857 H   0  0  0  0  0  0  0  0  0  0  0  0
  145.3184  131.1603  149.9677 H   0  0  0  0  0  0  0  0  0  0  0  0
  143.2868  132.3013  149.2834 H   0  0  0  0  0  0  0  0  0  0  0  0
  144.9596  134.1668  148.5003 H   0  0  0  0  0  0  0  0  0  0  0  0
  142.8773  133.8326  151.2431 H   0  0  0  0  0  0  0  0  0  0  0  0
  143.5730  132.2983  151.6934 H   0  0  0  0  0  0  0  0  0  0  0  0
  144.7127  134.0880  152.9216 H   0  0  0  0  0  0  0  0  0  0  0  0
  145.0789  134.9396  151.4417 H   0  0  0  0  0  0  0  0  0  0  0  0
  148.4439  137.8749  155.0545 H   0  0  0  0  0  0  0  0  0  0  0  0
  1  2  1  0  0  0  0
  1 20  1  0  0  0  0
  1 21  1  0  0  0  0
  1 22  1  0  0  0  0
  2 19  1  0  0  0  0
  2  3  2  0  0  0  0
  3  4  1  0  0  0  0
  4  5  1  0  0  0  0
  4 18  2  0  0  0  0
  5  6  1  0  0  0  0
  5 23  1  0  0  0  0
  5 24  1  0  0  0  0
  6  7  1  0  0  0  0
  6 25  1  0  0  0  0
  6 26  1  0  0  0  0
  7  8  1  0  0  0  0
  7 27  1  0  0  0  0
  8  9  2  0  0  0  0
  8 10  1  0  0  0  0
 10 11  1  0  0  0  0
 10 28  1  0  0  0  0
 11 17  1  0  0  0  0
 11 12  1  0  0  0  0
 11 29  1  0  0  0  0
 12 13  1  0  0  0  0
 12 30  1  0  0  0  0
 12 31  1  0  0  0  0
 13 14  1  0  0  0  0
 13 32  1  0  0  0  0
 13 33  1  0  0  0  0
 14 15  1  0  0  0  0
 14 16  1  0  0  0  0
 14 34  1  0  0  0  0
 15 35  1  0  0  0  0
 16 17  1  0  0  0  0
 16 36  1  0  0  0  0
 16 37  1  0  0  0  0
 17 38  1  0  0  0  0
 17 39  1  0  0  0  0
 18 19  1  0  0  0  0
 18 40  1  0  0  0  0
M  END
> <s_m_source_file>
AV-unprocessed.smi

> <i_m_source_file_index>
2020

> <i_lp_mmshare_version>
43012

> <i_f3d_flags>
0

> <s_epik_input>
W0NIM11jMW5jKFtjSF1zMSlbQ0gyXVtDSDJdW05IXUMoPU8pW05IXVtDQEBIXTJbQ0gyXVtDSDJdW0NAQEhdKFtPSF0pW0NIMl1bQ0gyXTI=

> <s_epik_cmdline>
J2VwaWtfcHl0aG9uJywgJy1waCcsICc3LjAnLCAnLXRuJywgJzgnLCAnLW1hJywgJzIwMCcsICctbWV0YWxfYmluZGluZycsICctaW1hZScsICc8aW5maWxlLm1hZT4nLCAnLW9tYWUnLCAnPG91dGZpbGUubWFlPic=

> <r_epik_Ionization_Penalty>
0.00202099

> <r_epik_Ionization_Penalty_Charging>
0

> <r_epik_Ionization_Penalty_Neutral>
0.00202099

> <r_epik_State_Penalty>
0.00133629

> <r_epik_Charging_Adjusted_Penalty>
0.00133629

> <i_epik_Tot_Q>
0

> <i_epik_Tot_abs_Q>
0

> <r_epik_Metal_State_Penalty>
-0

> <b_epik_Metal_Only>
0

> <s_lp_Force_Field>
OPLS_2005

> <r_lp_Energy>
2.55027

> <b_lp_Chiralities_Consistent>
1

> <s_lp_Variant>
AV-unprocessed.smi:2020-2

> <Gold.Version>
5.8.1

> <Gold.Id.Protein>
6NUR|6NUR_protein|mol2

> <Gold.PLP.Fitness>
50.2021

> <Gold.PLP.PLP>
-38.7115

> <Gold.PLP.part.hbond>
-4.2157

> <Gold.PLP.part.metal>
0.0000

> <Gold.PLP.part.buried>
-4.1938

> <Gold.PLP.part.nonpolar>
-29.5329

> <Gold.PLP.part.repulsive>
0.1749

> <Gold.PLP.ligand.clash>
0.0000

> <Gold.PLP.ligand.torsion>
0.1540

> <Gold.PLP.Chemscore.Hbond>
3.9280

> <Gold.PLP.Chemscore.CHOScore>
0.0000

> <Gold.PLP.Chemscore.Metal>
0.0000

> <Gold.Chemscore.Hbonds>
donor molecule, donor type, donor heavy atom, donor atom, acceptor molecule, acceptor atom, score
      L1  H     7    27       P1  7948  1.00
      L1  H    10    28       P1  7948  0.93
      L1  H    15    35       P1  7921  1.00
      P1  H 10752 10764       L1     3  1.00

> <Gold.PLP.Chemscore.Internal.Correction>
0.0147

> <Gold.Rescore>
     Score         DG    S(hbond)    S(metal)    S(lipo)     H(rot)  DE(clash)    DE(int)     intcor
     20.47     -20.77       3.07        0.00      88.91       2.10       0.14       0.16       ----

> <Gold.Chemscore.Fitness>
20.4652

> <Gold.Chemscore.DG>
-20.7716

> <Gold.Chemscore.ZeroCoef>
-5.4800

> <Gold.Chemscore.Hbond>
3.0731

> <Gold.Chemscore.Metal>
0.0000

> <Gold.Chemscore.Lipo>
88.9106

> <Gold.Chemscore.Internal_Hbond>
0.0000

> <Gold.Chemscore.DEClash>
0.1440

> <Gold.Chemscore.DEInternal>
0.1624

> <Gold.Chemscore.Rot>
2.0997

> <Gold.Chemscore.Internal.Correction>
   9.000000E+99

> <Gold.Chemscore.Hbonds>
donor molecule, donor type, donor heavy atom, donor atom, acceptor molecule, acceptor atom, score
      L1  H     7    27       P1  7948  0.25
      L1  H    10    28       P1  7948  0.59
      L1  H    15    35       P1  7921  0.97
      P1  H 10752 10764       L1     3  0.70

> <Gold.Chemscore.Hbond.Weighted>
-10.2643

> <Gold.Chemscore.Metal.Weighted>
-0.0000

> <Gold.Chemscore.Lipo.Weighted>
-10.4025

> <Gold.Chemscore.Internal_Hbond.Weighted>
0.0000

> <Gold.Chemscore.DEClash.Weighted>
0.1440

> <Gold.Chemscore.DEInternal.Weighted>
0.1624

> <Gold.Chemscore.Rot.Weighted>
5.3752

> <Gold.Chemscore.Internal.Correction.Weighted>
   9.000000E+99

> <Gold.Protein.RotatedTorsions>
[ 6907 6896 6895 6894 ] final   -3.63 input  -60.11 | X-H torsion
[ 7974 7965 7964 7962 ] final  119.02 input  175.53 | X-H torsion
[ 8008 7997 7996 7995 ] final  128.04 input   59.86 | X-H torsion
[ 10167 10162 10161 10158 ] final  119.55 input  -65.29 | X-H torsion
[ 10718 10713 10712 10709 ] final   26.37 input   66.30 | X-H torsion
[ 10763 10752 10751 10750 ] final  -53.86 input  -60.55 | X-H torsion
[ 11005 11000 10999 10996 ] final   39.00 input  -57.11 | X-H torsion

> <Gold.Protein.ActiveResidues>
 VAL166  LYS551  ARG553  GLY616  TRP617  ASP618  TYR619  PRO620  LYS621  CYS622 
 ASP623  PHE694  ASN695  SER759  ASP760  ASP761  ALA762  ILE779  LEU786  VAL792 
 PHE793  MET794  SER795  GLU796  ALA797  LYS798  CYS799  TRP800  GLU811  SER814 

> <Gold.Protein.RotatedAtoms>
  151.5106  135.1065  159.9852 H   0  0  0  0  0  0  0  0  0  0  0  0  # atno 6907 bound_to 6896
  152.4663  133.7926  159.6921 H   0  0  0  0  0  0  0  0  0  0  0  0  # atno 6908 bound_to 6896
  150.8648  133.7526  159.3006 H   0  0  0  0  0  0  0  0  0  0  0  0  # atno 6909 bound_to 6896
  145.1482  139.3226  143.4580 H   0  0  0  0  0  0  0  0  0  0  0  0  # atno 7974 bound_to 7965
  156.2905  140.2654  156.2371 H   0  0  0  0  0  0  0  0  0  0  0  0  # atno 8008 bound_to 7997
  155.0014  140.0388  157.2380 H   0  0  0  0  0  0  0  0  0  0  0  0  # atno 8009 bound_to 7997
  154.7598  140.2758  155.6228 H   0  0  0  0  0  0  0  0  0  0  0  0  # atno 8010 bound_to 7997
  139.6039  144.7064  151.2999 H   0  0  0  0  0  0  0  0  0  0  0  0  # atno 10167 bound_to 10162
  157.2059  130.6912  149.6208 H   0  0  0  0  0  0  0  0  0  0  0  0  # atno 10718 bound_to 10713
  154.1656  135.6467  153.4996 H   0  0  0  0  0  0  0  0  0  0  0  0  # atno 10763 bound_to 10752
  153.0098  135.5371  154.6666 H   0  0  0  0  0  0  0  0  0  0  0  0  # atno 10764 bound_to 10752
  154.5991  135.2942  155.0526 H   0  0  0  0  0  0  0  0  0  0  0  0  # atno 10765 bound_to 10752
  140.2070  134.3801  155.8067 H   0  0  0  0  0  0  0  0  0  0  0  0  # atno 11005 bound_to 11000
  146.3497  140.1545  142.8592 LP  0  0  0  0  0  0  0  0  0  0  0  0  # atno 17320 bound_to 7965
  145.0459  140.8981  143.5024 LP  0  0  0  0  0  0  0  0  0  0  0  0  # atno 17321 bound_to 7965
  140.7270  143.6975  150.7872 LP  0  0  0  0  0  0  0  0  0  0  0  0  # atno 17342 bound_to 10162
  140.0556  143.5206  152.2652 LP  0  0  0  0  0  0  0  0  0  0  0  0  # atno 17343 bound_to 10162
  155.9695  130.4567  150.5935 LP  0  0  0  0  0  0  0  0  0  0  0  0  # atno 17370 bound_to 10713
  157.3720  131.0767  151.1549 LP  0  0  0  0  0  0  0  0  0  0  0  0  # atno 17371 bound_to 10713
  141.2227  133.7123  156.8355 LP  0  0  0  0  0  0  0  0  0  0  0  0  # atno 17394 bound_to 11000
  140.1991  134.8910  157.3149 LP  0  0  0  0  0  0  0  0  0  0  0  0  # atno 17395 bound_to 11000

$$$$
