AV-unprocessed.smi:2623|AV-procd|sdf|10229|dock6
  -GOLD-   2272014233D 1   1.00000     0.00000
 Structure written by MMmdl.
 40 42  0  0  0  0  0  0  0  0  1 V2000
  153.4345  139.4985  154.6767 O   0  0  0  0  0  0  0  0  0  0  0  0
  152.2717  139.2681  155.4415 C   0  0  0  0  0  0  0  0  0  0  0  0
  152.0889  140.2690  156.5421 C   0  0  0  0  0  0  0  0  0  0  0  0
  152.7660  140.1774  157.6875 N   0  0  0  0  0  0  0  0  0  0  0  0
  152.3252  141.2800  158.3919 C   0  0  0  0  0  0  0  0  0  0  0  0
  152.6731  141.7458  159.6799 C   0  0  0  0  0  0  0  0  0  0  0  0
  152.0878  142.9201  160.1967 C   0  0  0  0  0  0  0  0  0  0  0  0
  151.1496  143.6450  159.4339 C   0  0  0  0  0  0  0  0  0  0  0  0
  150.7887  143.1979  158.1483 C   0  0  0  0  0  0  0  0  0  0  0  0
  151.3728  142.0226  157.6385 C   0  0  0  0  0  0  0  0  0  0  0  0
  151.2367  141.3224  156.4433 N   0  0  0  0  0  0  0  0  0  0  0  0
  150.3639  141.6926  155.3353 C   0  0  0  0  0  0  0  0  0  0  0  0
  149.3888  140.5641  154.9409 C   0  0  2  0  0  0  0  0  0  0  0  0
  149.8577  139.9029  153.7834 O   0  0  0  0  0  0  0  0  0  0  0  0
  147.9724  141.0864  154.6617 C   0  0  0  0  0  0  0  0  0  0  0  0
  147.5173  141.8085  155.7987 O   0  0  0  0  0  0  0  0  0  0  0  0
  146.3741  142.5686  155.6757 C   0  0  0  0  0  0  0  0  0  0  0  0
  146.0646  143.0536  154.3881 C   0  0  0  0  0  0  0  0  0  0  0  0
  144.9168  143.8398  154.1704 C   0  0  0  0  0  0  0  0  0  0  0  0
  144.0619  144.1488  155.2443 C   0  0  0  0  0  0  0  0  0  0  0  0
  144.3581  143.6710  156.5343 C   0  0  0  0  0  0  0  0  0  0  0  0
  145.5071  142.8857  156.7523 C   0  0  0  0  0  0  0  0  0  0  0  0
  153.7935  138.6637  154.4173 H   0  0  0  0  0  0  0  0  0  0  0  0
  151.4093  139.3056  154.7748 H   0  0  0  0  0  0  0  0  0  0  0  0
  152.2956  138.2605  155.8563 H   0  0  0  0  0  0  0  0  0  0  0  0
  153.3932  141.1991  160.2708 H   0  0  0  0  0  0  0  0  0  0  0  0
  152.3613  143.2671  161.1824 H   0  0  0  0  0  0  0  0  0  0  0  0
  150.7073  144.5448  159.8360 H   0  0  0  0  0  0  0  0  0  0  0  0
  150.0714  143.7524  157.5617 H   0  0  0  0  0  0  0  0  0  0  0  0
  149.8042  142.5784  155.6380 H   0  0  0  0  0  0  0  0  0  0  0  0
  150.9584  141.9932  154.4736 H   0  0  0  0  0  0  0  0  0  0  0  0
  149.3381  139.8228  155.7387 H   0  0  0  0  0  0  0  0  0  0  0  0
  149.3572  140.2061  153.0410 H   0  0  0  0  0  0  0  0  0  0  0  0
  147.9756  141.7209  153.7736 H   0  0  0  0  0  0  0  0  0  0  0  0
  147.3013  140.2460  154.4757 H   0  0  0  0  0  0  0  0  0  0  0  0
  146.7153  142.8209  153.5579 H   0  0  0  0  0  0  0  0  0  0  0  0
  144.6927  144.2058  153.1792 H   0  0  0  0  0  0  0  0  0  0  0  0
  143.1814  144.7518  155.0788 H   0  0  0  0  0  0  0  0  0  0  0  0
  143.7031  143.9074  157.3599 H   0  0  0  0  0  0  0  0  0  0  0  0
  145.7014  142.5396  157.7559 H   0  0  0  0  0  0  0  0  0  0  0  0
  1  2  1  0  0  0  0
  1 23  1  0  0  0  0
  2  3  1  0  0  0  0
  2 24  1  0  0  0  0
  2 25  1  0  0  0  0
  3 11  1  0  0  0  0
  3  4  2  0  0  0  0
  4  5  1  0  0  0  0
  5 10  2  0  0  0  0
  5  6  1  0  0  0  0
  6  7  2  0  0  0  0
  6 26  1  0  0  0  0
  7  8  1  0  0  0  0
  7 27  1  0  0  0  0
  8  9  2  0  0  0  0
  8 28  1  0  0  0  0
  9 10  1  0  0  0  0
  9 29  1  0  0  0  0
 10 11  1  0  0  0  0
 11 12  1  0  0  0  0
 12 13  1  0  0  0  0
 12 30  1  0  0  0  0
 12 31  1  0  0  0  0
 13 14  1  0  0  0  0
 13 15  1  0  0  0  0
 13 32  1  0  0  0  0
 14 33  1  0  0  0  0
 15 16  1  0  0  0  0
 15 34  1  0  0  0  0
 15 35  1  0  0  0  0
 16 17  1  0  0  0  0
 17 22  1  0  0  0  0
 17 18  2  0  0  0  0
 18 19  1  0  0  0  0
 18 36  1  0  0  0  0
 19 20  2  0  0  0  0
 19 37  1  0  0  0  0
 20 21  1  0  0  0  0
 20 38  1  0  0  0  0
 21 22  2  0  0  0  0
 21 39  1  0  0  0  0
 22 40  1  0  0  0  0
M  END
> <s_m_source_file>
AV-unprocessed.smi

> <i_m_source_file_index>
2623

> <i_lp_mmshare_version>
43012

> <i_f3d_flags>
0

> <s_epik_input>
W2NIXTFbY0hdW2NIXVtjSF1jKGMxMiluKGMobjIpW0NIMl1bT0hdKVtDSDJdW0NASF0oW09IXSlbQ0gyXU9jM1tjSF1bY0hdW2NIXVtjSF1bY0hdMw==

> <s_epik_cmdline>
J2VwaWtfcHl0aG9uJywgJy1waCcsICc3LjAnLCAnLXRuJywgJzgnLCAnLW1hJywgJzIwMCcsICctbWV0YWxfYmluZGluZycsICctaW1hZScsICc8aW5maWxlLm1hZT4nLCAnLW9tYWUnLCAnPG91dGZpbGUubWFlPic=

> <r_lp_tautomer_probability>
1

> <r_epik_Ionization_Penalty>
0.0583159

> <r_epik_Ionization_Penalty_Charging>
0

> <r_epik_Ionization_Penalty_Neutral>
0.0583159

> <r_epik_State_Penalty>
0.0503525

> <r_epik_Charging_Adjusted_Penalty>
0.0503525

> <i_epik_Tot_Q>
0

> <i_epik_Tot_abs_Q>
0

> <r_epik_Metal_State_Penalty>
5.25517e-05

> <b_epik_Metal_Only>
0

> <s_lp_Force_Field>
OPLS_2005

> <r_lp_Energy>
14.6276

> <b_lp_Chiralities_Consistent>
1

> <s_lp_Variant>
AV-unprocessed.smi:2623-1

> <Gold.Version>
5.8.1

> <Gold.Id.Protein>
6NUR|6NUR_protein|mol2

> <Gold.PLP.Fitness>
49.6596

> <Gold.PLP.PLP>
-43.5180

> <Gold.PLP.part.hbond>
-4.8539

> <Gold.PLP.part.metal>
0.0000

> <Gold.PLP.part.buried>
-3.9025

> <Gold.PLP.part.nonpolar>
-33.5735

> <Gold.PLP.part.repulsive>
0.1307

> <Gold.PLP.ligand.clash>
0.1121

> <Gold.PLP.ligand.torsion>
1.2873

> <Gold.PLP.Chemscore.Hbond>
2.9103

> <Gold.PLP.Chemscore.CHOScore>
0.0000

> <Gold.PLP.Chemscore.Metal>
0.0000

> <Gold.Chemscore.Hbonds>
donor molecule, donor type, donor heavy atom, donor atom, acceptor molecule, acceptor atom, score
      L1  H    14    33       P1  7957  0.66
      P1  H  7989  7998       L1    14  0.80
      P1  H  7997  8008       L1     4  0.69
      P1  H  7997  8009       L1     1  0.77

> <Gold.PLP.Chemscore.Internal.Correction>
0.0972

> <Gold.Rescore>
     Score         DG    S(hbond)    S(metal)    S(lipo)     H(rot)  DE(clash)    DE(int)     intcor
     15.27     -17.98       1.98        0.00     116.84       3.04       0.49       2.22       ----

> <Gold.Chemscore.Fitness>
15.2707

> <Gold.Chemscore.DG>
-17.9813

> <Gold.Chemscore.ZeroCoef>
-5.4800

> <Gold.Chemscore.Hbond>
1.9767

> <Gold.Chemscore.Metal>
0.0000

> <Gold.Chemscore.Lipo>
116.8434

> <Gold.Chemscore.Internal_Hbond>
0.0000

> <Gold.Chemscore.DEClash>
0.4871

> <Gold.Chemscore.DEInternal>
2.2235

> <Gold.Chemscore.Rot>
3.0358

> <Gold.Chemscore.Internal.Correction>
   9.000000E+99

> <Gold.Chemscore.Hbonds>
donor molecule, donor type, donor heavy atom, donor atom, acceptor molecule, acceptor atom, score
      L1  H    14    33       P1  7957  0.66
      P1  H  7989  7998       L1    14  0.06
      P1  H  7997  8008       L1     4  0.29
      P1  H  7997  8009       L1     1  0.19

> <Gold.Chemscore.Hbond.Weighted>
-6.6023

> <Gold.Chemscore.Metal.Weighted>
-0.0000

> <Gold.Chemscore.Lipo.Weighted>
-13.6707

> <Gold.Chemscore.Internal_Hbond.Weighted>
0.0000

> <Gold.Chemscore.DEClash.Weighted>
0.4871

> <Gold.Chemscore.DEInternal.Weighted>
2.2235

> <Gold.Chemscore.Rot.Weighted>
7.7716

> <Gold.Chemscore.Internal.Correction.Weighted>
   9.000000E+99

> <Gold.Protein.RotatedTorsions>
[ 6907 6896 6895 6894 ] final -145.28 input  -60.11 | X-H torsion
[ 7974 7965 7964 7962 ] final   10.04 input  175.53 | X-H torsion
[ 8008 7997 7996 7995 ] final  -95.53 input   59.86 | X-H torsion
[ 10167 10162 10161 10158 ] final  158.15 input  -65.29 | X-H torsion
[ 10718 10713 10712 10709 ] final  -12.52 input   66.30 | X-H torsion
[ 10763 10752 10751 10750 ] final   63.81 input  -60.55 | X-H torsion
[ 11005 11000 10999 10996 ] final -163.26 input  -57.11 | X-H torsion

> <Gold.Protein.ActiveResidues>
 VAL166  LYS551  ARG553  GLY616  TRP617  ASP618  TYR619  PRO620  LYS621  CYS622 
 ASP623  PHE694  ASN695  SER759  ASP760  ASP761  ALA762  ILE779  LEU786  VAL792 
 PHE793  MET794  SER795  GLU796  ALA797  LYS798  CYS799  TRP800  GLU811  SER814 

> <Gold.Protein.RotatedAtoms>
  151.1257  133.5072  159.2600 H   0  0  0  0  0  0  0  0  0  0  0  0  # atno 6907 bound_to 6896
  151.1813  135.0361  159.8803 H   0  0  0  0  0  0  0  0  0  0  0  0  # atno 6908 bound_to 6896
  152.5458  134.1108  159.8411 H   0  0  0  0  0  0  0  0  0  0  0  0  # atno 6909 bound_to 6896
  146.2394  139.9693  142.8449 H   0  0  0  0  0  0  0  0  0  0  0  0  # atno 7974 bound_to 7965
  154.7625  140.0479  157.0985 H   0  0  0  0  0  0  0  0  0  0  0  0  # atno 8008 bound_to 7997
  154.9920  140.3114  155.4883 H   0  0  0  0  0  0  0  0  0  0  0  0  # atno 8009 bound_to 7997
  156.2907  140.2217  156.5025 H   0  0  0  0  0  0  0  0  0  0  0  0  # atno 8010 bound_to 7997
  139.4825  144.4851  151.8388 H   0  0  0  0  0  0  0  0  0  0  0  0  # atno 10167 bound_to 10162
  156.6435  130.4934  149.6087 H   0  0  0  0  0  0  0  0  0  0  0  0  # atno 10718 bound_to 10713
  153.0032  135.5415  154.6411 H   0  0  0  0  0  0  0  0  0  0  0  0  # atno 10763 bound_to 10752
  154.5666  135.2838  155.0870 H   0  0  0  0  0  0  0  0  0  0  0  0  # atno 10764 bound_to 10752
  154.2052  135.6477  153.5151 H   0  0  0  0  0  0  0  0  0  0  0  0  # atno 10765 bound_to 10752
  140.6001  134.4956  157.5204 H   0  0  0  0  0  0  0  0  0  0  0  0  # atno 11005 bound_to 11000
  145.1696  140.9714  143.4329 LP  0  0  0  0  0  0  0  0  0  0  0  0  # atno 17320 bound_to 7965
  145.0040  139.3571  143.6153 LP  0  0  0  0  0  0  0  0  0  0  0  0  # atno 17321 bound_to 7965
  140.4331  144.2089  150.5888 LP  0  0  0  0  0  0  0  0  0  0  0  0  # atno 17342 bound_to 10162
  140.4760  143.2396  151.9023 LP  0  0  0  0  0  0  0  0  0  0  0  0  # atno 17343 bound_to 10162
  156.2140  130.6696  151.1300 LP  0  0  0  0  0  0  0  0  0  0  0  0  # atno 17370 bound_to 10713
  157.7164  131.0707  150.6311 LP  0  0  0  0  0  0  0  0  0  0  0  0  # atno 17371 bound_to 10713
  139.9236  134.8100  156.1136 LP  0  0  0  0  0  0  0  0  0  0  0  0  # atno 17394 bound_to 11000
  141.0878  133.6727  156.2474 LP  0  0  0  0  0  0  0  0  0  0  0  0  # atno 17395 bound_to 11000

$$$$
