AV-unprocessed.smi:1190|AV-procd|sdf|4980|dock2
  -GOLD-   22720 3573D 1   1.00000     0.00000
 Structure written by MMmdl.
 43 44  0  0  0  0  0  0  0  0  1 V2000
  151.0699  142.7919  157.6135 C   0  0  0  0  0  0  0  0  0  0  0  0
  151.6151  141.6067  157.0439 O   0  0  0  0  0  0  0  0  0  0  0  0
  150.8311  140.8780  156.1732 C   0  0  0  0  0  0  0  0  0  0  0  0
  151.3226  139.6484  155.6925 C   0  0  0  0  0  0  0  0  0  0  0  0
  150.5263  138.9012  154.8044 C   0  0  0  0  0  0  0  0  0  0  0  0
  149.2671  139.4028  154.4182 C   0  0  0  0  0  0  0  0  0  0  0  0
  148.4849  138.6112  153.5336 N   0  0  0  0  0  0  0  0  0  0  0  0
  147.1763  138.7086  153.2425 C   0  0  0  0  0  0  0  0  0  0  0  0
  146.4048  139.5551  153.6926 O   0  0  0  0  0  0  0  0  0  0  0  0
  146.8067  137.7552  152.3763 N   0  0  0  0  0  0  0  0  0  0  0  0
  145.4522  137.5379  151.8715 C   0  0  0  0  0  0  0  0  0  0  0  0
  144.9966  136.0630  152.0265 C   0  0  2  0  0  0  0  0  0  0  0  0
  145.4334  135.2819  150.7663 C   0  0  0  0  0  0  0  0  0  0  0  0
  143.5608  135.9077  152.3492 N   0  0  0  0  0  0  0  0  0  0  0  0
  143.1471  134.5031  152.4183 C   0  0  0  0  0  0  0  0  0  0  0  0
  141.6572  134.3431  152.7672 C   0  0  0  0  0  0  0  0  0  0  0  0
  141.3818  134.9964  153.9994 O   0  0  0  0  0  0  0  0  0  0  0  0
  141.7060  136.3799  153.9579 C   0  0  0  0  0  0  0  0  0  0  0  0
  143.1956  136.5531  153.6139 C   0  0  0  0  0  0  0  0  0  0  0  0
  148.8581  140.6444  154.9651 C   0  0  0  0  0  0  0  0  0  0  0  0
  149.6178  141.3664  155.8162 N   0  0  0  0  0  0  0  0  0  0  0  0
  151.8027  143.2407  158.2838 H   0  0  0  0  0  0  0  0  0  0  0  0
  150.1742  142.5797  158.1990 H   0  0  0  0  0  0  0  0  0  0  0  0
  150.8296  143.5279  156.8450 H   0  0  0  0  0  0  0  0  0  0  0  0
  152.2917  139.2842  156.0006 H   0  0  0  0  0  0  0  0  0  0  0  0
  150.8820  137.9543  154.4247 H   0  0  0  0  0  0  0  0  0  0  0  0
  148.9939  137.8973  153.0335 H   0  0  0  0  0  0  0  0  0  0  0  0
  147.5112  137.1038  152.0626 H   0  0  0  0  0  0  0  0  0  0  0  0
  144.7418  138.2023  152.3661 H   0  0  0  0  0  0  0  0  0  0  0  0
  145.4248  137.8459  150.8269 H   0  0  0  0  0  0  0  0  0  0  0  0
  145.5722  135.6508  152.8567 H   0  0  0  0  0  0  0  0  0  0  0  0
  146.4625  135.5170  150.4924 H   0  0  0  0  0  0  0  0  0  0  0  0
  144.8030  135.5193  149.9090 H   0  0  0  0  0  0  0  0  0  0  0  0
  145.3996  134.2039  150.9205 H   0  0  0  0  0  0  0  0  0  0  0  0
  143.3143  134.0077  151.4629 H   0  0  0  0  0  0  0  0  0  0  0  0
  143.7506  133.9751  153.1582 H   0  0  0  0  0  0  0  0  0  0  0  0
  141.0291  134.7583  151.9774 H   0  0  0  0  0  0  0  0  0  0  0  0
  141.4006  133.2877  152.8587 H   0  0  0  0  0  0  0  0  0  0  0  0
  141.0785  136.8868  153.2231 H   0  0  0  0  0  0  0  0  0  0  0  0
  141.4872  136.8261  154.9282 H   0  0  0  0  0  0  0  0  0  0  0  0
  143.8032  136.1481  154.4247 H   0  0  0  0  0  0  0  0  0  0  0  0
  143.3982  137.6218  153.5717 H   0  0  0  0  0  0  0  0  0  0  0  0
  147.8973  141.0820  154.7469 H   0  0  0  0  0  0  0  0  0  0  0  0
  1  2  1  0  0  0  0
  1 22  1  0  0  0  0
  1 23  1  0  0  0  0
  1 24  1  0  0  0  0
  2  3  1  0  0  0  0
  3 21  1  0  0  0  0
  3  4  2  0  0  0  0
  4  5  1  0  0  0  0
  4 25  1  0  0  0  0
  5  6  2  0  0  0  0
  5 26  1  0  0  0  0
  6  7  1  0  0  0  0
  6 20  1  0  0  0  0
  7  8  1  0  0  0  0
  7 27  1  0  0  0  0
  8  9  2  0  0  0  0
  8 10  1  0  0  0  0
 10 11  1  0  0  0  0
 10 28  1  0  0  0  0
 11 12  1  0  0  0  0
 11 29  1  0  0  0  0
 11 30  1  0  0  0  0
 12 13  1  0  0  0  0
 12 14  1  0  0  0  0
 12 31  1  0  0  0  0
 13 32  1  0  0  0  0
 13 33  1  0  0  0  0
 13 34  1  0  0  0  0
 14 19  1  0  0  0  0
 14 15  1  0  0  0  0
 15 16  1  0  0  0  0
 15 35  1  0  0  0  0
 15 36  1  0  0  0  0
 16 17  1  0  0  0  0
 16 37  1  0  0  0  0
 16 38  1  0  0  0  0
 17 18  1  0  0  0  0
 18 19  1  0  0  0  0
 18 39  1  0  0  0  0
 18 40  1  0  0  0  0
 19 41  1  0  0  0  0
 19 42  1  0  0  0  0
 20 21  2  0  0  0  0
 20 43  1  0  0  0  0
M  END
> <s_m_source_file>
AV-unprocessed.smi

> <i_m_source_file_index>
1190

> <i_lp_mmshare_version>
43012

> <i_f3d_flags>
0

> <s_epik_input>
W0NIM11PYzFbY0hdW2NIXWMoW2NIXW4xKVtOSF1DKD1PKVtOSF1bQ0gyXVtDQEhdKFtDSDNdKU4yW0NIMl1bQ0gyXU9bQ0gyXVtDSDJdMg==

> <s_epik_cmdline>
J2VwaWtfcHl0aG9uJywgJy1waCcsICc3LjAnLCAnLXRuJywgJzgnLCAnLW1hJywgJzIwMCcsICctbWV0YWxfYmluZGluZycsICctaW1hZScsICc8aW5maWxlLm1hZT4nLCAnLW9tYWUnLCAnPG91dGZpbGUubWFlPic=

> <r_lp_tautomer_probability>
1

> <r_epik_Ionization_Penalty>
0.266084

> <r_epik_Ionization_Penalty_Charging>
0

> <r_epik_Ionization_Penalty_Neutral>
0.266084

> <r_epik_State_Penalty>
0.257924

> <r_epik_Charging_Adjusted_Penalty>
0.257924

> <i_epik_Tot_Q>
0

> <i_epik_Tot_abs_Q>
0

> <r_epik_Metal_State_Penalty>
0.257922

> <b_epik_Metal_Only>
0

> <s_lp_Force_Field>
OPLS_2005

> <r_lp_Energy>
36.3321

> <b_lp_Chiralities_Consistent>
1

> <s_lp_Variant>
AV-unprocessed.smi:1190-1

> <Gold.Version>
5.8.1

> <Gold.Id.Protein>
6NUR|6NUR_protein|mol2

> <Gold.PLP.Fitness>
42.2824

> <Gold.PLP.PLP>
-34.5479

> <Gold.PLP.part.hbond>
-4.0000

> <Gold.PLP.part.metal>
0.0000

> <Gold.PLP.part.buried>
-1.5342

> <Gold.PLP.part.nonpolar>
-31.0037

> <Gold.PLP.part.repulsive>
0.7253

> <Gold.PLP.ligand.clash>
0.0000

> <Gold.PLP.ligand.torsion>
0.5540

> <Gold.PLP.Chemscore.Hbond>
2.9124

> <Gold.PLP.Chemscore.CHOScore>
0.0000

> <Gold.PLP.Chemscore.Metal>
0.0000

> <Gold.Chemscore.Hbonds>
donor molecule, donor type, donor heavy atom, donor atom, acceptor molecule, acceptor atom, score
      L1  H     7    27       P1  7948  0.99
      L1  H    10    28       P1  7948  1.00
      P1  H 11000 11005       L1    17  0.80

> <Gold.PLP.Chemscore.Internal.Correction>
0.1053

> <Gold.Rescore>
     Score         DG    S(hbond)    S(metal)    S(lipo)     H(rot)  DE(clash)    DE(int)     intcor
     16.13     -18.27       2.63        0.00      72.19       1.73       0.53       1.61       ----

> <Gold.Chemscore.Fitness>
16.1336

> <Gold.Chemscore.DG>
-18.2736

> <Gold.Chemscore.ZeroCoef>
-5.4800

> <Gold.Chemscore.Hbond>
2.6270

> <Gold.Chemscore.Metal>
0.0000

> <Gold.Chemscore.Lipo>
72.1918

> <Gold.Chemscore.Internal_Hbond>
0.0000

> <Gold.Chemscore.DEClash>
0.5318

> <Gold.Chemscore.DEInternal>
1.6082

> <Gold.Chemscore.Rot>
1.7292

> <Gold.Chemscore.Internal.Correction>
   9.000000E+99

> <Gold.Chemscore.Hbonds>
donor molecule, donor type, donor heavy atom, donor atom, acceptor molecule, acceptor atom, score
      L1  H     7    27       P1  7948  0.90
      L1  H    10    28       P1  7948  1.00
      P1  H 11000 11005       L1    17  0.73

> <Gold.Chemscore.Hbond.Weighted>
-8.7740

> <Gold.Chemscore.Metal.Weighted>
-0.0000

> <Gold.Chemscore.Lipo.Weighted>
-8.4464

> <Gold.Chemscore.Internal_Hbond.Weighted>
0.0000

> <Gold.Chemscore.DEClash.Weighted>
0.5318

> <Gold.Chemscore.DEInternal.Weighted>
1.6082

> <Gold.Chemscore.Rot.Weighted>
4.4268

> <Gold.Chemscore.Internal.Correction.Weighted>
   9.000000E+99

> <Gold.Protein.RotatedTorsions>
[ 6907 6896 6895 6894 ] final  102.18 input  -60.11 | X-H torsion
[ 7974 7965 7964 7962 ] final  138.62 input  175.53 | X-H torsion
[ 8008 7997 7996 7995 ] final   61.10 input   59.86 | X-H torsion
[ 10167 10162 10161 10158 ] final   -0.44 input  -65.29 | X-H torsion
[ 10718 10713 10712 10709 ] final  129.02 input   66.30 | X-H torsion
[ 10763 10752 10751 10750 ] final  -22.22 input  -60.55 | X-H torsion
[ 11005 11000 10999 10996 ] final   18.66 input  -57.11 | X-H torsion

> <Gold.Protein.ActiveResidues>
 VAL166  LYS551  ARG553  GLY616  TRP617  ASP618  TYR619  PRO620  LYS621  CYS622 
 ASP623  PHE694  ASN695  SER759  ASP760  ASP761  ALA762  ILE779  LEU786  VAL792 
 PHE793  MET794  SER795  GLU796  ALA797  LYS798  CYS799  TRP800  GLU811  SER814 

> <Gold.Protein.RotatedAtoms>
  152.5330  134.0013  159.7895 H   0  0  0  0  0  0  0  0  0  0  0  0  # atno 6907 bound_to 6896
  151.0232  133.5850  159.2676 H   0  0  0  0  0  0  0  0  0  0  0  0  # atno 6908 bound_to 6896
  151.2882  135.0741  159.9248 H   0  0  0  0  0  0  0  0  0  0  0  0  # atno 6909 bound_to 6896
  144.9355  139.4994  143.5597 H   0  0  0  0  0  0  0  0  0  0  0  0  # atno 7974 bound_to 7965
  155.5929  140.3493  155.4571 H   0  0  0  0  0  0  0  0  0  0  0  0  # atno 8008 bound_to 7997
  156.0287  140.1270  157.0305 H   0  0  0  0  0  0  0  0  0  0  0  0  # atno 8009 bound_to 7997
  154.4343  140.1047  156.6054 H   0  0  0  0  0  0  0  0  0  0  0  0  # atno 8010 bound_to 7997
  140.6767  143.6894  150.8040 H   0  0  0  0  0  0  0  0  0  0  0  0  # atno 10167 bound_to 10162
  157.5192  131.1098  150.9179 H   0  0  0  0  0  0  0  0  0  0  0  0  # atno 10718 bound_to 10713
  153.6486  135.6982  153.5217 H   0  0  0  0  0  0  0  0  0  0  0  0  # atno 10763 bound_to 10752
  153.2725  135.4210  155.1000 H   0  0  0  0  0  0  0  0  0  0  0  0  # atno 10764 bound_to 10752
  154.8482  135.3582  154.6030 H   0  0  0  0  0  0  0  0  0  0  0  0  # atno 10765 bound_to 10752
  140.4223  134.1506  155.7674 H   0  0  0  0  0  0  0  0  0  0  0  0  # atno 11005 bound_to 11000
  146.3265  139.8337  142.8903 LP  0  0  0  0  0  0  0  0  0  0  0  0  # atno 17320 bound_to 7965
  145.3073  141.0210  143.3574 LP  0  0  0  0  0  0  0  0  0  0  0  0  # atno 17321 bound_to 7965
  140.0588  143.5176  152.2638 LP  0  0  0  0  0  0  0  0  0  0  0  0  # atno 17342 bound_to 10162
  139.6064  144.7597  151.3051 LP  0  0  0  0  0  0  0  0  0  0  0  0  # atno 17343 bound_to 10162
  156.9794  130.5521  149.5295 LP  0  0  0  0  0  0  0  0  0  0  0  0  # atno 17370 bound_to 10713
  156.0342  130.5430  150.8610 LP  0  0  0  0  0  0  0  0  0  0  0  0  # atno 17371 bound_to 10713
  141.1779  133.8475  157.1359 LP  0  0  0  0  0  0  0  0  0  0  0  0  # atno 17394 bound_to 11000
  140.0191  134.9954  157.0556 LP  0  0  0  0  0  0  0  0  0  0  0  0  # atno 17395 bound_to 11000

$$$$
