AV-unprocessed.smi:1853|AV-procd|sdf|7528|dock2
  -GOLD-   22720 9233D 1   1.00000     0.00000
 Structure written by MMmdl.
 43 45  0  0  0  0  0  0  0  0  2 V2000
  143.9029  144.3512  155.4615 C   0  0  0  0  0  0  0  0  0  0  0  0
  145.1378  143.5114  155.2079 C   0  0  0  0  0  0  0  0  0  0  0  0
  145.6362  143.3526  153.8998 C   0  0  0  0  0  0  0  0  0  0  0  0
  146.7839  142.5696  153.6725 C   0  0  0  0  0  0  0  0  0  0  0  0
  147.4500  141.9347  154.7406 C   0  0  0  0  0  0  0  0  0  0  0  0
  148.5673  141.1912  154.4278 O   0  0  0  0  0  0  0  0  0  0  0  0
  149.4014  140.7495  155.4907 C   0  0  0  0  0  0  0  0  0  0  0  0
  150.4996  141.7930  155.7388 C   0  0  0  0  0  0  0  0  0  0  0  0
  151.2926  141.4935  156.9398 N   0  0  0  0  0  0  0  0  0  0  0  0
  151.8435  140.3209  157.3688 C   0  0  0  0  0  0  0  0  0  0  0  0
  151.7699  138.9924  156.6755 C   0  0  0  0  0  0  0  0  0  0  0  0
  151.9999  139.0548  155.2349 N   0  0  0  0  0  0  0  0  0  0  0  0
  151.9219  138.0097  154.3982 C   0  0  0  0  0  0  0  0  0  0  0  0
  151.5965  136.8731  154.7364 O   0  0  0  0  0  0  0  0  0  0  0  0
  152.4728  140.5844  158.5508 N   0  3  0  0  0  0  0  0  0  0  0  0
  152.3404  141.9358  158.8689 C   0  0  0  0  0  0  0  0  0  0  0  0
  152.8140  142.6683  159.9532 C   0  0  0  0  0  0  0  0  0  0  0  0
  152.5020  144.0436  159.9721 C   0  0  0  0  0  0  0  0  0  0  0  0
  151.7479  144.6398  158.9403 C   0  0  0  0  0  0  0  0  0  0  0  0
  151.2724  143.8861  157.8467 C   0  0  0  0  0  0  0  0  0  0  0  0
  151.5848  142.5270  157.8365 C   0  0  0  0  0  0  0  0  0  0  0  0
  146.9407  142.0955  156.0540 C   0  0  0  0  0  0  0  0  0  0  0  0
  145.7927  142.8789  156.2827 C   0  0  0  0  0  0  0  0  0  0  0  0
  143.6785  144.9915  154.6077 H   0  0  0  0  0  0  0  0  0  0  0  0
  144.0469  144.9895  156.3338 H   0  0  0  0  0  0  0  0  0  0  0  0
  143.0418  143.7081  155.6443 H   0  0  0  0  0  0  0  0  0  0  0  0
  145.1415  143.8292  153.0660 H   0  0  0  0  0  0  0  0  0  0  0  0
  147.1550  142.4531  152.6652 H   0  0  0  0  0  0  0  0  0  0  0  0
  148.8153  140.6094  156.4002 H   0  0  0  0  0  0  0  0  0  0  0  0
  149.8611  139.7937  155.2348 H   0  0  0  0  0  0  0  0  0  0  0  0
  151.1703  141.8652  154.8823 H   0  0  0  0  0  0  0  0  0  0  0  0
  150.0578  142.7817  155.8660 H   0  0  0  0  0  0  0  0  0  0  0  0
  152.5152  138.3299  157.1159 H   0  0  0  0  0  0  0  0  0  0  0  0
  150.7976  138.5349  156.8612 H   0  0  0  0  0  0  0  0  0  0  0  0
  152.2754  139.9487  154.8541 H   0  0  0  0  0  0  0  0  0  0  0  0
  152.1840  138.3074  153.3711 H   0  0  0  0  0  0  0  0  0  0  0  0
  153.3937  142.2141  160.7433 H   0  0  0  0  0  0  0  0  0  0  0  0
  152.8496  144.6537  160.7932 H   0  0  0  0  0  0  0  0  0  0  0  0
  151.5304  145.6969  158.9878 H   0  0  0  0  0  0  0  0  0  0  0  0
  150.6980  144.3527  157.0602 H   0  0  0  0  0  0  0  0  0  0  0  0
  147.4126  141.6288  156.9051 H   0  0  0  0  0  0  0  0  0  0  0  0
  145.4159  142.9933  157.2887 H   0  0  0  0  0  0  0  0  0  0  0  0
  152.9692  139.8873  159.0905 H   0  0  0  0  0  0  0  0  0  0  0  0
  1  2  1  0  0  0  0
  1 24  1  0  0  0  0
  1 25  1  0  0  0  0
  1 26  1  0  0  0  0
  2 23  1  0  0  0  0
  2  3  2  0  0  0  0
  3  4  1  0  0  0  0
  3 27  1  0  0  0  0
  4  5  2  0  0  0  0
  4 28  1  0  0  0  0
  5  6  1  0  0  0  0
  5 22  1  0  0  0  0
  6  7  1  0  0  0  0
  7  8  1  0  0  0  0
  7 29  1  0  0  0  0
  7 30  1  0  0  0  0
  8  9  1  0  0  0  0
  8 31  1  0  0  0  0
  8 32  1  0  0  0  0
  9 21  1  0  0  0  0
  9 10  1  0  0  0  0
 10 11  1  0  0  0  0
 10 15  2  0  0  0  0
 11 12  1  0  0  0  0
 11 33  1  0  0  0  0
 11 34  1  0  0  0  0
 12 13  1  0  0  0  0
 12 35  1  0  0  0  0
 13 14  2  0  0  0  0
 13 36  1  0  0  0  0
 15 16  1  0  0  0  0
 15 43  1  0  0  0  0
 16 21  2  0  0  0  0
 16 17  1  0  0  0  0
 17 18  2  0  0  0  0
 17 37  1  0  0  0  0
 18 19  1  0  0  0  0
 18 38  1  0  0  0  0
 19 20  2  0  0  0  0
 19 39  1  0  0  0  0
 20 21  1  0  0  0  0
 20 40  1  0  0  0  0
 22 23  2  0  0  0  0
 22 41  1  0  0  0  0
 23 42  1  0  0  0  0
M  CHG  1  15   1
M  END
> <s_m_source_file>
AV-unprocessed.smi

> <i_m_source_file_index>
1853

> <i_lp_mmshare_version>
43012

> <i_f3d_flags>
0

> <s_epik_input>
W0NIM11jMVtjSF1bY0hdYyhbY0hdW2NIXTEpT1tDSDJdW0NIMl1uKGMobjIpW0NIMl1bTkhdW0NIXT1PKWMoYzIzKVtjSF1bY0hdW2NIXVtjSF0z

> <s_epik_cmdline>
J2VwaWtfcHl0aG9uJywgJy1waCcsICc3LjAnLCAnLXRuJywgJzgnLCAnLW1hJywgJzIwMCcsICctbWV0YWxfYmluZGluZycsICctaW1hZScsICc8aW5maWxlLm1hZT4nLCAnLW9tYWUnLCAnPG91dGZpbGUubWFlPic=

> <r_lp_tautomer_probability>
1

> <r_epik_Ionization_Penalty>
1.39966

> <r_epik_Ionization_Penalty_Charging>
1.39966

> <r_epik_Ionization_Penalty_Neutral>
7.38905e-08

> <r_epik_State_Penalty>
1.4817

> <r_epik_Charging_Adjusted_Penalty>
2.88136

> <i_epik_Tot_Q>
1

> <i_epik_Tot_abs_Q>
1

> <r_epik_Metal_State_Penalty>
1.53574

> <b_epik_Metal_Only>
0

> <s_lp_Force_Field>
OPLS_2005

> <r_lp_Energy>
13.1997

> <b_lp_Chiralities_Consistent>
1

> <s_lp_Variant>
AV-unprocessed.smi:1853-2

> <Gold.Version>
5.8.1

> <Gold.Id.Protein>
6NUR|6NUR_protein|mol2

> <Gold.PLP.Fitness>
50.4985

> <Gold.PLP.PLP>
-48.8379

> <Gold.PLP.part.hbond>
-1.0000

> <Gold.PLP.part.metal>
0.0000

> <Gold.PLP.part.buried>
-8.2759

> <Gold.PLP.part.nonpolar>
-40.3473

> <Gold.PLP.part.repulsive>
0.5675

> <Gold.PLP.ligand.clash>
0.0000

> <Gold.PLP.ligand.torsion>
0.7311

> <Gold.PLP.Chemscore.Hbond>
1.0000

> <Gold.PLP.Chemscore.CHOScore>
0.0000

> <Gold.PLP.Chemscore.Metal>
0.0000

> <Gold.Chemscore.Hbonds>
donor molecule, donor type, donor heavy atom, donor atom, acceptor molecule, acceptor atom, score
      P1  H 10752 10765       L1    14  1.00

> <Gold.PLP.Chemscore.Internal.Correction>
0.1228

> <Gold.Rescore>
     Score         DG    S(hbond)    S(metal)    S(lipo)     H(rot)  DE(clash)    DE(int)     intcor
     16.07     -16.65       0.95        0.00     122.25       2.46       0.06       0.51       ----

> <Gold.Chemscore.Fitness>
16.0725

> <Gold.Chemscore.DG>
-16.6477

> <Gold.Chemscore.ZeroCoef>
-5.4800

> <Gold.Chemscore.Hbond>
0.9469

> <Gold.Chemscore.Metal>
0.0000

> <Gold.Chemscore.Lipo>
122.2495

> <Gold.Chemscore.Internal_Hbond>
0.0000

> <Gold.Chemscore.DEClash>
0.0617

> <Gold.Chemscore.DEInternal>
0.5134

> <Gold.Chemscore.Rot>
2.4603

> <Gold.Chemscore.Internal.Correction>
   9.000000E+99

> <Gold.Chemscore.Hbonds>
donor molecule, donor type, donor heavy atom, donor atom, acceptor molecule, acceptor atom, score
      P1  H 10752 10765       L1    14  0.90

> <Gold.Chemscore.Hbond.Weighted>
-3.1628

> <Gold.Chemscore.Metal.Weighted>
-0.0000

> <Gold.Chemscore.Lipo.Weighted>
-14.3032

> <Gold.Chemscore.Internal_Hbond.Weighted>
0.0000

> <Gold.Chemscore.DEClash.Weighted>
0.0617

> <Gold.Chemscore.DEInternal.Weighted>
0.5134

> <Gold.Chemscore.Rot.Weighted>
6.2983

> <Gold.Chemscore.Internal.Correction.Weighted>
   9.000000E+99

> <Gold.Protein.RotatedTorsions>
[ 6907 6896 6895 6894 ] final  139.97 input  -60.11 | X-H torsion
[ 7974 7965 7964 7962 ] final   80.95 input  175.53 | X-H torsion
[ 8008 7997 7996 7995 ] final  100.66 input   59.86 | X-H torsion
[ 10167 10162 10161 10158 ] final  -10.92 input  -65.29 | X-H torsion
[ 10718 10713 10712 10709 ] final -132.98 input   66.30 | X-H torsion
[ 10763 10752 10751 10750 ] final -177.62 input  -60.55 | X-H torsion
[ 11005 11000 10999 10996 ] final   75.67 input  -57.11 | X-H torsion

> <Gold.Protein.ActiveResidues>
 VAL166  LYS551  ARG553  GLY616  TRP617  ASP618  TYR619  PRO620  LYS621  CYS622 
 ASP623  PHE694  ASN695  SER759  ASP760  ASP761  ALA762  ILE779  LEU786  VAL792 
 PHE793  MET794  SER795  GLU796  ALA797  LYS798  CYS799  TRP800  GLU811  SER814 

> <Gold.Protein.RotatedAtoms>
  152.2486  133.5195  159.5311 H   0  0  0  0  0  0  0  0  0  0  0  0  # atno 6907 bound_to 6896
  150.7086  134.0991  159.3968 H   0  0  0  0  0  0  0  0  0  0  0  0  # atno 6908 bound_to 6896
  151.8911  135.0416  160.0548 H   0  0  0  0  0  0  0  0  0  0  0  0  # atno 6909 bound_to 6896
  145.6445  139.2433  143.2012 H   0  0  0  0  0  0  0  0  0  0  0  0  # atno 7974 bound_to 7965
  156.1225  140.3210  155.8229 H   0  0  0  0  0  0  0  0  0  0  0  0  # atno 8008 bound_to 7997
  155.4479  140.0530  157.3021 H   0  0  0  0  0  0  0  0  0  0  0  0  # atno 8009 bound_to 7997
  154.4838  140.2064  155.9716 H   0  0  0  0  0  0  0  0  0  0  0  0  # atno 8010 bound_to 7997
  140.7126  143.5696  150.9107 H   0  0  0  0  0  0  0  0  0  0  0  0  # atno 10167 bound_to 10162
  156.2402  130.7091  151.0949 H   0  0  0  0  0  0  0  0  0  0  0  0  # atno 10718 bound_to 10713
  154.5579  135.2818  155.0947 H   0  0  0  0  0  0  0  0  0  0  0  0  # atno 10763 bound_to 10752
  154.2367  135.6364  153.5197 H   0  0  0  0  0  0  0  0  0  0  0  0  # atno 10764 bound_to 10752
  153.0021  135.5550  154.6164 H   0  0  0  0  0  0  0  0  0  0  0  0  # atno 10765 bound_to 10752
  139.9333  134.7537  156.1300 H   0  0  0  0  0  0  0  0  0  0  0  0  # atno 11005 bound_to 11000
  146.1254  140.7255  142.9437 LP  0  0  0  0  0  0  0  0  0  0  0  0  # atno 17320 bound_to 7965
  144.7145  140.4160  143.7055 LP  0  0  0  0  0  0  0  0  0  0  0  0  # atno 17321 bound_to 7965
  139.9422  143.6369  152.3051 LP  0  0  0  0  0  0  0  0  0  0  0  0  # atno 17342 bound_to 10162
  139.6858  144.7652  151.1527 LP  0  0  0  0  0  0  0  0  0  0  0  0  # atno 17343 bound_to 10162
  157.7172  131.0703  150.6281 LP  0  0  0  0  0  0  0  0  0  0  0  0  # atno 17370 bound_to 10713
  156.6353  130.4443  149.5771 LP  0  0  0  0  0  0  0  0  0  0  0  0  # atno 17371 bound_to 10713
  141.0933  133.6705  156.2590 LP  0  0  0  0  0  0  0  0  0  0  0  0  # atno 17394 bound_to 11000
  140.6143  134.5426  157.5538 LP  0  0  0  0  0  0  0  0  0  0  0  0  # atno 17395 bound_to 11000

$$$$
