AV-unprocessed.smi:835|AV-procd|sdf|3887|dock4
  -GOLD-   22720 1343D 1   1.00000     0.00000
 Structure written by MMmdl.
 41 43  0  0  0  0  0  0  0  0  2 V2000
  153.0248  142.1975  161.9746 C   0  0  0  0  0  0  0  0  0  0  0  0
  152.5156  142.3903  160.5767 C   0  0  0  0  0  0  0  0  0  0  0  0
  152.0171  141.4009  159.6800 C   0  0  0  0  0  0  0  0  0  0  0  0
  151.6981  142.1344  158.5700 C   0  0  0  0  0  0  0  0  0  0  0  0
  151.1799  141.7119  157.3862 N   0  0  0  0  0  0  0  0  0  0  0  0
  151.2734  140.4986  156.8146 C   0  0  0  0  0  0  0  0  0  0  0  0
  151.8659  139.5284  157.2868 O   0  0  0  0  0  0  0  0  0  0  0  0
  150.6223  140.4624  155.6434 N   0  0  0  0  0  0  0  0  0  0  0  0
  150.5171  139.2836  154.7901 C   0  0  1  0  0  0  0  0  0  0  0  0
  151.7761  138.4144  154.7586 C   0  0  0  0  0  0  0  0  0  0  0  0
  151.2546  136.9963  154.4724 C   0  0  0  0  0  0  0  0  0  0  0  0
  149.7801  137.0416  154.6181 N   0  3  1  0  0  0  0  0  0  0  0  0
  149.1963  135.8478  155.2652 C   0  0  0  0  0  0  0  0  0  0  0  0
  150.1479  135.1408  156.2002 C   0  0  0  0  0  0  0  0  0  0  0  0
  149.8439  134.5519  154.8395 C   0  0  0  0  0  0  0  0  0  0  0  0
  149.4576  138.3100  155.2962 C   0  0  0  0  0  0  0  0  0  0  0  0
  151.9990  143.4568  158.8087 N   0  0  0  0  0  0  0  0  0  0  0  0
  151.8406  144.6086  157.9423 C   0  0  0  0  0  0  0  0  0  0  0  0
  152.5013  143.6110  160.0528 N   0  0  0  0  0  0  0  0  0  0  0  0
  153.1082  141.1387  162.2206 H   0  0  0  0  0  0  0  0  0  0  0  0
  152.3540  142.6552  162.7017 H   0  0  0  0  0  0  0  0  0  0  0  0
  154.0107  142.6456  162.1007 H   0  0  0  0  0  0  0  0  0  0  0  0
  151.9203  140.3382  159.8441 H   0  0  0  0  0  0  0  0  0  0  0  0
  150.6400  142.4015  156.8846 H   0  0  0  0  0  0  0  0  0  0  0  0
  150.1625  141.3036  155.3264 H   0  0  0  0  0  0  0  0  0  0  0  0
  150.2587  139.5851  153.7727 H   0  0  0  0  0  0  0  0  0  0  0  0
  152.4976  138.7540  154.0145 H   0  0  0  0  0  0  0  0  0  0  0  0
  152.2714  138.4295  155.7308 H   0  0  0  0  0  0  0  0  0  0  0  0
  151.5016  136.6782  153.4592 H   0  0  0  0  0  0  0  0  0  0  0  0
  151.7053  136.2815  155.1627 H   0  0  0  0  0  0  0  0  0  0  0  0
  148.1314  135.8873  155.4880 H   0  0  0  0  0  0  0  0  0  0  0  0
  151.1362  135.5712  156.3528 H   0  0  0  0  0  0  0  0  0  0  0  0
  149.7206  134.6394  157.0664 H   0  0  0  0  0  0  0  0  0  0  0  0
  149.2167  133.6633  154.8101 H   0  0  0  0  0  0  0  0  0  0  0  0
  150.6309  134.5904  154.0884 H   0  0  0  0  0  0  0  0  0  0  0  0
  149.5407  138.1816  156.3773 H   0  0  0  0  0  0  0  0  0  0  0  0
  148.4429  138.6384  155.0686 H   0  0  0  0  0  0  0  0  0  0  0  0
  150.7796  144.8058  157.7884 H   0  0  0  0  0  0  0  0  0  0  0  0
  152.3107  144.4111  156.9788 H   0  0  0  0  0  0  0  0  0  0  0  0
  152.3042  145.4905  158.3863 H   0  0  0  0  0  0  0  0  0  0  0  0
  149.3993  137.1077  153.6848 H   0  0  0  0  0  0  0  0  0  0  0  0
  1  2  1  0  0  0  0
  1 20  1  0  0  0  0
  1 21  1  0  0  0  0
  1 22  1  0  0  0  0
  2 19  2  0  0  0  0
  2  3  1  0  0  0  0
  3  4  2  0  0  0  0
  3 23  1  0  0  0  0
  4  5  1  0  0  0  0
  4 17  1  0  0  0  0
  5  6  1  0  0  0  0
  5 24  1  0  0  0  0
  6  7  2  0  0  0  0
  6  8  1  0  0  0  0
  8  9  1  0  0  0  0
  8 25  1  0  0  0  0
  9 16  1  0  0  0  0
  9 10  1  0  0  0  0
  9 26  1  0  0  0  0
 10 11  1  0  0  0  0
 10 27  1  0  0  0  0
 10 28  1  0  0  0  0
 11 12  1  0  0  0  0
 11 29  1  0  0  0  0
 11 30  1  0  0  0  0
 12 13  1  0  0  0  0
 12 16  1  0  0  0  0
 12 41  1  0  0  0  0
 13 15  1  0  0  0  0
 13 14  1  0  0  0  0
 13 31  1  0  0  0  0
 14 15  1  0  0  0  0
 14 32  1  0  0  0  0
 14 33  1  0  0  0  0
 15 34  1  0  0  0  0
 15 35  1  0  0  0  0
 16 36  1  0  0  0  0
 16 37  1  0  0  0  0
 17 18  1  0  0  0  0
 17 19  1  0  0  0  0
 18 38  1  0  0  0  0
 18 39  1  0  0  0  0
 18 40  1  0  0  0  0
M  CHG  1  12   1
M  END
> <s_m_source_file>
AV-unprocessed.smi

> <i_m_source_file_index>
835

> <i_lp_mmshare_version>
43012

> <i_f3d_flags>
0

> <s_epik_input>
W0NIM11jMVtjSF1jKG4objEpW0NIM10pW05IXUMoPU8pW05IXVtDQEBIXTJbQ0gyXVtDSDJdTihbQ0gyXTIpW0NIXTNbQ0gyXVtDSDJdMw==

> <s_epik_cmdline>
J2VwaWtfcHl0aG9uJywgJy1waCcsICc3LjAnLCAnLXRuJywgJzgnLCAnLW1hJywgJzIwMCcsICctbWV0YWxfYmluZGluZycsICctaW1hZScsICc8aW5maWxlLm1hZT4nLCAnLW9tYWUnLCAnPG91dGZpbGUubWFlPic=

> <r_lp_tautomer_probability>
1

> <r_epik_Ionization_Penalty>
0.000700689

> <r_epik_Ionization_Penalty_Charging>
0.000627528

> <r_epik_Ionization_Penalty_Neutral>
7.31611e-05

> <r_epik_State_Penalty>
0.00039643

> <r_epik_Charging_Adjusted_Penalty>
0.00102396

> <i_epik_Tot_Q>
1

> <i_epik_Tot_abs_Q>
1

> <r_epik_Metal_State_Penalty>
-0

> <b_epik_Metal_Only>
0

> <s_lp_Force_Field>
OPLS_2005

> <r_lp_Energy>
38.0069

> <b_lp_Chiralities_Consistent>
1

> <s_lp_Variant>
AV-unprocessed.smi:835-2

> <Gold.Version>
5.8.1

> <Gold.Id.Protein>
6NUR|6NUR_protein|mol2

> <Gold.PLP.Fitness>
42.8674

> <Gold.PLP.PLP>
-37.8028

> <Gold.PLP.part.hbond>
-1.0000

> <Gold.PLP.part.metal>
0.0000

> <Gold.PLP.part.buried>
-3.7272

> <Gold.PLP.part.nonpolar>
-33.7729

> <Gold.PLP.part.repulsive>
0.2302

> <Gold.PLP.ligand.clash>
0.0000

> <Gold.PLP.ligand.torsion>
1.0758

> <Gold.PLP.Chemscore.Hbond>
1.9840

> <Gold.PLP.Chemscore.CHOScore>
0.0000

> <Gold.PLP.Chemscore.Metal>
0.0000

> <Gold.Chemscore.Hbonds>
donor molecule, donor type, donor heavy atom, donor atom, acceptor molecule, acceptor atom, score
      L1  H    12    41       P1  7948  1.90

> <Gold.PLP.Chemscore.Internal.Correction>
1.2642

> <Gold.Rescore>
     Score         DG    S(hbond)    S(metal)    S(lipo)     H(rot)  DE(clash)    DE(int)     intcor
     11.85     -15.52       0.92        0.00      86.10       1.22       0.28       3.39       ----

> <Gold.Chemscore.Fitness>
11.8481

> <Gold.Chemscore.DG>
-15.5156

> <Gold.Chemscore.ZeroCoef>
-5.4800

> <Gold.Chemscore.Hbond>
0.9236

> <Gold.Chemscore.Metal>
0.0000

> <Gold.Chemscore.Lipo>
86.0958

> <Gold.Chemscore.Internal_Hbond>
0.0000

> <Gold.Chemscore.DEClash>
0.2784

> <Gold.Chemscore.DEInternal>
3.3891

> <Gold.Chemscore.Rot>
1.2196

> <Gold.Chemscore.Internal.Correction>
   9.000000E+99

> <Gold.Chemscore.Hbonds>
donor molecule, donor type, donor heavy atom, donor atom, acceptor molecule, acceptor atom, score
      L1  H    12    41       P1  7948  0.82

> <Gold.Chemscore.Hbond.Weighted>
-3.0847

> <Gold.Chemscore.Metal.Weighted>
-0.0000

> <Gold.Chemscore.Lipo.Weighted>
-10.0732

> <Gold.Chemscore.Internal_Hbond.Weighted>
0.0000

> <Gold.Chemscore.DEClash.Weighted>
0.2784

> <Gold.Chemscore.DEInternal.Weighted>
3.3891

> <Gold.Chemscore.Rot.Weighted>
3.1223

> <Gold.Chemscore.Internal.Correction.Weighted>
   9.000000E+99

> <Gold.Protein.RotatedTorsions>
[ 6907 6896 6895 6894 ] final   23.88 input  -60.11 | X-H torsion
[ 7974 7965 7964 7962 ] final  107.07 input  175.53 | X-H torsion
[ 8008 7997 7996 7995 ] final  -68.12 input   59.86 | X-H torsion
[ 10167 10162 10161 10158 ] final   63.65 input  -65.29 | X-H torsion
[ 10718 10713 10712 10709 ] final   21.65 input   66.30 | X-H torsion
[ 10763 10752 10751 10750 ] final  125.50 input  -60.55 | X-H torsion
[ 11005 11000 10999 10996 ] final    7.10 input  -57.11 | X-H torsion

> <Gold.Protein.ActiveResidues>
 VAL166  LYS551  ARG553  GLY616  TRP617  ASP618  TYR619  PRO620  LYS621  CYS622 
 ASP623  PHE694  ASN695  SER759  ASP760  ASP761  ALA762  ILE779  LEU786  VAL792 
 PHE793  MET794  SER795  GLU796  ALA797  LYS798  CYS799  TRP800  GLU811  SER814 

> <Gold.Protein.RotatedAtoms>
  151.9490  135.0178  160.0540 H   0  0  0  0  0  0  0  0  0  0  0  0  # atno 6907 bound_to 6896
  152.1969  133.4808  159.5046 H   0  0  0  0  0  0  0  0  0  0  0  0  # atno 6908 bound_to 6896
  150.6946  134.1557  159.4200 H   0  0  0  0  0  0  0  0  0  0  0  0  # atno 6909 bound_to 6896
  145.2984  139.2577  143.3827 H   0  0  0  0  0  0  0  0  0  0  0  0  # atno 7974 bound_to 7965
  154.4846  140.0879  156.7456 H   0  0  0  0  0  0  0  0  0  0  0  0  # atno 8008 bound_to 7997
  155.4383  140.3452  155.4269 H   0  0  0  0  0  0  0  0  0  0  0  0  # atno 8009 bound_to 7997
  156.1242  140.1483  156.9148 H   0  0  0  0  0  0  0  0  0  0  0  0  # atno 8010 bound_to 7997
  140.1307  144.4646  150.6866 H   0  0  0  0  0  0  0  0  0  0  0  0  # atno 10167 bound_to 10162
  157.1413  130.6634  149.5982 H   0  0  0  0  0  0  0  0  0  0  0  0  # atno 10718 bound_to 10713
  153.6784  135.3318  155.3172 H   0  0  0  0  0  0  0  0  0  0  0  0  # atno 10763 bound_to 10752
  154.8472  135.4403  154.1632 H   0  0  0  0  0  0  0  0  0  0  0  0  # atno 10764 bound_to 10752
  153.2642  135.6994  153.7624 H   0  0  0  0  0  0  0  0  0  0  0  0  # atno 10765 bound_to 10752
  140.5521  134.0273  155.7940 H   0  0  0  0  0  0  0  0  0  0  0  0  # atno 11005 bound_to 11000
  146.3161  140.3492  142.8654 LP  0  0  0  0  0  0  0  0  0  0  0  0  # atno 17320 bound_to 7965
  144.9114  140.7762  143.5805 LP  0  0  0  0  0  0  0  0  0  0  0  0  # atno 17321 bound_to 7965
  140.6819  143.2331  151.5363 LP  0  0  0  0  0  0  0  0  0  0  0  0  # atno 17342 bound_to 10162
  139.5521  144.2369  152.1549 LP  0  0  0  0  0  0  0  0  0  0  0  0  # atno 17343 bound_to 10162
  155.9788  130.4776  150.6677 LP  0  0  0  0  0  0  0  0  0  0  0  0  # atno 17370 bound_to 10713
  157.4304  131.0848  151.1044 LP  0  0  0  0  0  0  0  0  0  0  0  0  # atno 17371 bound_to 10713
  141.1165  133.9531  157.2811 LP  0  0  0  0  0  0  0  0  0  0  0  0  # atno 17394 bound_to 11000
  139.9450  135.0185  156.8825 LP  0  0  0  0  0  0  0  0  0  0  0  0  # atno 17395 bound_to 11000

$$$$
