AV-unprocessed.smi:602|AV-procd|sdf|3035|dock6
  -GOLD-   2262023553D 1   1.00000     0.00000
 Structure written by MMmdl.
 47 48  0  0  0  0  0  0  0  0  1 V2000
  150.9095  142.3507  157.9638 C   0  0  0  0  0  0  0  0  0  0  0  0
  150.7420  141.9566  156.4932 C   0  0  0  0  0  0  0  0  0  0  0  0
  151.4645  140.6420  156.1551 C   0  0  0  0  0  0  0  0  0  0  0  0
  151.0382  139.5427  156.9976 N   0  0  0  0  0  0  0  0  0  0  0  0
  149.8227  138.8718  156.8358 C   0  0  0  0  0  0  0  0  0  0  0  0
  148.9831  139.2839  155.8109 N   0  0  0  0  0  0  0  0  0  0  0  0
  149.4742  137.8163  157.6306 C   0  0  0  0  0  0  0  0  0  0  0  0
  148.2450  137.1491  157.4733 N   0  0  0  0  0  0  0  0  0  0  0  0
  147.2082  137.4195  158.4838 C   0  0  0  0  0  0  0  0  0  0  0  0
  146.9766  136.2146  159.4177 C   0  0  0  0  0  0  0  0  0  0  0  0
  147.3413  136.4862  160.7639 O   0  0  0  0  0  0  0  0  0  0  0  0
  147.2145  135.3703  161.6310 C   0  0  0  0  0  0  0  0  0  0  0  0
  147.9891  136.3581  156.3971 C   0  0  0  0  0  0  0  0  0  0  0  0
  146.9123  135.7770  156.2564 O   0  0  0  0  0  0  0  0  0  0  0  0
  149.0808  136.1781  155.3183 C   0  0  0  0  0  0  0  0  0  0  0  0
  148.7029  135.1961  154.1957 C   0  0  0  0  0  0  0  0  0  0  0  0
  150.1287  134.6426  154.2565 C   0  0  0  0  0  0  0  0  0  0  0  0
  150.2332  135.2154  155.6723 C   0  0  0  0  0  0  0  0  0  0  0  0
  150.3639  137.3687  158.7109 C   0  0  0  0  0  0  0  0  0  0  0  0
  150.1313  136.4538  159.4999 O   0  0  0  0  0  0  0  0  0  0  0  0
  151.5666  138.0637  158.8047 N   0  0  0  0  0  0  0  0  0  0  0  0
  151.9562  139.1201  157.9891 C   0  0  0  0  0  0  0  0  0  0  0  0
  153.0623  139.6351  158.1569 O   0  0  0  0  0  0  0  0  0  0  0  0
  152.2142  137.7705  159.5219 H   0  0  0  0  0  0  0  0  0  0  0  0
  150.3871  143.2831  158.1785 H   0  0  0  0  0  0  0  0  0  0  0  0
  151.9610  142.4924  158.2152 H   0  0  0  0  0  0  0  0  0  0  0  0
  150.5065  141.5831  158.6248 H   0  0  0  0  0  0  0  0  0  0  0  0
  149.6796  141.8614  156.2653 H   0  0  0  0  0  0  0  0  0  0  0  0
  151.1204  142.7611  155.8616 H   0  0  0  0  0  0  0  0  0  0  0  0
  151.3226  140.3504  155.1127 H   0  0  0  0  0  0  0  0  0  0  0  0
  152.5434  140.7351  156.2759 H   0  0  0  0  0  0  0  0  0  0  0  0
  149.2308  140.0442  155.1937 H   0  0  0  0  0  0  0  0  0  0  0  0
  148.0663  138.8814  155.6796 H   0  0  0  0  0  0  0  0  0  0  0  0
  147.5201  138.2662  159.0968 H   0  0  0  0  0  0  0  0  0  0  0  0
  146.2746  137.7431  158.0225 H   0  0  0  0  0  0  0  0  0  0  0  0
  145.9209  135.9441  159.4054 H   0  0  0  0  0  0  0  0  0  0  0  0
  147.5127  135.3383  159.0502 H   0  0  0  0  0  0  0  0  0  0  0  0
  147.5156  135.6585  162.6380 H   0  0  0  0  0  0  0  0  0  0  0  0
  147.8470  134.5385  161.3213 H   0  0  0  0  0  0  0  0  0  0  0  0
  146.1812  135.0244  161.6772 H   0  0  0  0  0  0  0  0  0  0  0  0
  149.4752  137.1193  154.9343 H   0  0  0  0  0  0  0  0  0  0  0  0
  147.9490  134.4629  154.4889 H   0  0  0  0  0  0  0  0  0  0  0  0
  148.4507  135.6706  153.2467 H   0  0  0  0  0  0  0  0  0  0  0  0
  150.1994  133.5562  154.1970 H   0  0  0  0  0  0  0  0  0  0  0  0
  150.8019  135.1330  153.5517 H   0  0  0  0  0  0  0  0  0  0  0  0
  151.1834  135.7078  155.8813 H   0  0  0  0  0  0  0  0  0  0  0  0
  149.9970  134.4696  156.4328 H   0  0  0  0  0  0  0  0  0  0  0  0
  1  2  1  0  0  0  0
  1 25  1  0  0  0  0
  1 26  1  0  0  0  0
  1 27  1  0  0  0  0
  2  3  1  0  0  0  0
  2 28  1  0  0  0  0
  2 29  1  0  0  0  0
  3  4  1  0  0  0  0
  3 30  1  0  0  0  0
  3 31  1  0  0  0  0
  4 22  1  0  0  0  0
  4  5  1  0  0  0  0
  5  6  1  0  0  0  0
  5  7  2  0  0  0  0
  6 32  1  0  0  0  0
  6 33  1  0  0  0  0
  7  8  1  0  0  0  0
  7 19  1  0  0  0  0
  8  9  1  0  0  0  0
  8 13  1  0  0  0  0
  9 10  1  0  0  0  0
  9 34  1  0  0  0  0
  9 35  1  0  0  0  0
 10 11  1  0  0  0  0
 10 36  1  0  0  0  0
 10 37  1  0  0  0  0
 11 12  1  0  0  0  0
 12 38  1  0  0  0  0
 12 39  1  0  0  0  0
 12 40  1  0  0  0  0
 13 14  2  0  0  0  0
 13 15  1  0  0  0  0
 15 18  1  0  0  0  0
 15 16  1  0  0  0  0
 15 41  1  0  0  0  0
 16 17  1  0  0  0  0
 16 42  1  0  0  0  0
 16 43  1  0  0  0  0
 17 18  1  0  0  0  0
 17 44  1  0  0  0  0
 17 45  1  0  0  0  0
 18 46  1  0  0  0  0
 18 47  1  0  0  0  0
 19 20  2  0  0  0  0
 19 21  1  0  0  0  0
 21 24  1  0  0  0  0
 21 22  1  0  0  0  0
 22 23  2  0  0  0  0
M  END
> <s_m_source_file>
AV-unprocessed.smi

> <i_m_source_file_index>
602

> <i_lp_mmshare_version>
43012

> <i_f3d_flags>
0

> <s_epik_input>
W0NIM11bQ0gyXVtDSDJdbjFjKFtOSDJdKWMoYyg9TylbbkhdYzE9TylOKFtDSDJdW0NIMl1PW0NIM10pQyg9TylbQ0hdMltDSDJdW0NIMl1bQ0gyXTI=

> <s_epik_cmdline>
J2VwaWtfcHl0aG9uJywgJy1waCcsICc3LjAnLCAnLXRuJywgJzgnLCAnLW1hJywgJzIwMCcsICctbWV0YWxfYmluZGluZycsICctaW1hZScsICc8aW5maWxlLm1hZT4nLCAnLW9tYWUnLCAnPG91dGZpbGUubWFlPic=

> <r_lp_tautomer_probability>
1

> <r_epik_Ionization_Penalty>
1.77098e-05

> <r_epik_Ionization_Penalty_Charging>
5.46221e-06

> <r_epik_Ionization_Penalty_Neutral>
1.22476e-05

> <r_epik_State_Penalty>
-0

> <r_epik_Charging_Adjusted_Penalty>
5.46221e-06

> <i_epik_Tot_Q>
0

> <i_epik_Tot_abs_Q>
0

> <r_epik_Metal_State_Penalty>
-0

> <b_epik_Metal_Only>
0

> <s_epik_Chemistry_Notes>
This compound has an imine and may undergo hydrolysis.

> <s_lp_Force_Field>
OPLS_2005

> <r_lp_Energy>
36.0285

> <b_lp_Chiralities_Consistent>
1

> <s_lp_Variant>
AV-unprocessed.smi:602-1

> <Gold.Version>
5.8.1

> <Gold.Id.Protein>
6NUR|6NUR_protein|mol2

> <Gold.PLP.Fitness>
39.0951

> <Gold.PLP.PLP>
-29.3060

> <Gold.PLP.part.hbond>
-4.7135

> <Gold.PLP.part.metal>
0.0000

> <Gold.PLP.part.buried>
-3.7515

> <Gold.PLP.part.nonpolar>
-21.3178

> <Gold.PLP.part.repulsive>
0.1045

> <Gold.PLP.ligand.clash>
0.0000

> <Gold.PLP.ligand.torsion>
2.3137

> <Gold.PLP.Chemscore.Hbond>
3.9040

> <Gold.PLP.Chemscore.CHOScore>
0.0000

> <Gold.PLP.Chemscore.Metal>
0.0000

> <Gold.Chemscore.Hbonds>
donor molecule, donor type, donor heavy atom, donor atom, acceptor molecule, acceptor atom, score
      P1  H  6896  6909       L1    20  1.00
      P1  H  7997  8010       L1    23  1.00

> <Gold.PLP.Chemscore.Internal.Correction>
2.7045

> <Gold.Rescore>
     Score         DG    S(hbond)    S(metal)    S(lipo)     H(rot)  DE(clash)    DE(int)     intcor
     13.64     -16.26       2.94        0.00      54.59       2.12       0.04       2.58       ----

> <Gold.Chemscore.Fitness>
13.6390

> <Gold.Chemscore.DG>
-16.2590

> <Gold.Chemscore.ZeroCoef>
-5.4800

> <Gold.Chemscore.Hbond>
2.9418

> <Gold.Chemscore.Metal>
0.0000

> <Gold.Chemscore.Lipo>
54.5912

> <Gold.Chemscore.Internal_Hbond>
0.0000

> <Gold.Chemscore.DEClash>
0.0417

> <Gold.Chemscore.DEInternal>
2.5782

> <Gold.Chemscore.Rot>
2.1226

> <Gold.Chemscore.Internal.Correction>
   9.000000E+99

> <Gold.Chemscore.Hbonds>
donor molecule, donor type, donor heavy atom, donor atom, acceptor molecule, acceptor atom, score
      P1  H  6896  6909       L1    20  1.00
      P1  H  7997  8010       L1    23  0.97

> <Gold.Chemscore.Hbond.Weighted>
-9.8256

> <Gold.Chemscore.Metal.Weighted>
-0.0000

> <Gold.Chemscore.Lipo.Weighted>
-6.3872

> <Gold.Chemscore.Internal_Hbond.Weighted>
0.0000

> <Gold.Chemscore.DEClash.Weighted>
0.0417

> <Gold.Chemscore.DEInternal.Weighted>
2.5782

> <Gold.Chemscore.Rot.Weighted>
5.4338

> <Gold.Chemscore.Internal.Correction.Weighted>
   9.000000E+99

> <Gold.Protein.RotatedTorsions>
[ 6907 6896 6895 6894 ] final   84.15 input  -60.11 | X-H torsion
[ 7974 7965 7964 7962 ] final -123.92 input  175.53 | X-H torsion
[ 8008 7997 7996 7995 ] final   26.21 input   59.86 | X-H torsion
[ 10167 10162 10161 10158 ] final  -94.01 input  -65.29 | X-H torsion
[ 10718 10713 10712 10709 ] final  102.39 input   66.30 | X-H torsion
[ 10763 10752 10751 10750 ] final -172.01 input  -60.55 | X-H torsion
[ 11005 11000 10999 10996 ] final  -57.30 input  -57.11 | X-H torsion

> <Gold.Protein.ActiveResidues>
 VAL166  LYS551  ARG553  GLY616  TRP617  ASP618  TYR619  PRO620  LYS621  CYS622 
 ASP623  PHE694  ASN695  SER759  ASP760  ASP761  ALA762  ILE779  LEU786  VAL792 
 PHE793  MET794  SER795  GLU796  ALA797  LYS798  CYS799  TRP800  GLU811  SER814 

> <Gold.Protein.RotatedAtoms>
  152.5345  134.2785  159.8998 H   0  0  0  0  0  0  0  0  0  0  0  0  # atno 6907 bound_to 6896
  151.2739  133.4235  159.2630 H   0  0  0  0  0  0  0  0  0  0  0  0  # atno 6908 bound_to 6896
  151.0343  134.9577  159.8184 H   0  0  0  0  0  0  0  0  0  0  0  0  # atno 6909 bound_to 6896
  145.0136  140.7927  143.4424 H   0  0  0  0  0  0  0  0  0  0  0  0  # atno 7974 bound_to 7965
  155.0237  140.3150  155.4784 H   0  0  0  0  0  0  0  0  0  0  0  0  # atno 8008 bound_to 7997
  156.2887  140.2193  156.5298 H   0  0  0  0  0  0  0  0  0  0  0  0  # atno 8009 bound_to 7997
  154.7430  140.0472  157.0815 H   0  0  0  0  0  0  0  0  0  0  0  0  # atno 8010 bound_to 7997
  140.3188  143.3061  152.0068 H   0  0  0  0  0  0  0  0  0  0  0  0  # atno 10167 bound_to 10162
  157.6803  131.0752  150.5397 H   0  0  0  0  0  0  0  0  0  0  0  0  # atno 10718 bound_to 10713
  154.6241  135.2878  155.0292 H   0  0  0  0  0  0  0  0  0  0  0  0  # atno 10763 bound_to 10752
  154.1477  135.6508  153.4960 H   0  0  0  0  0  0  0  0  0  0  0  0  # atno 10764 bound_to 10752
  153.0249  135.5348  154.7042 H   0  0  0  0  0  0  0  0  0  0  0  0  # atno 10765 bound_to 10752
  141.1158  133.6610  156.4748 H   0  0  0  0  0  0  0  0  0  0  0  0  # atno 11005 bound_to 11000
  145.1990  139.2262  143.5203 LP  0  0  0  0  0  0  0  0  0  0  0  0  # atno 17320 bound_to 7965
  146.3474  140.1803  142.8589 LP  0  0  0  0  0  0  0  0  0  0  0  0  # atno 17321 bound_to 7965
  139.4878  144.6327  151.7038 LP  0  0  0  0  0  0  0  0  0  0  0  0  # atno 17342 bound_to 10162
  140.5502  144.0438  150.6124 LP  0  0  0  0  0  0  0  0  0  0  0  0  # atno 17343 bound_to 10162
  156.5705  130.4278  149.6022 LP  0  0  0  0  0  0  0  0  0  0  0  0  # atno 17370 bound_to 10713
  156.2745  130.7036  151.1842 LP  0  0  0  0  0  0  0  0  0  0  0  0  # atno 17371 bound_to 10713
  140.4649  134.6807  157.5102 LP  0  0  0  0  0  0  0  0  0  0  0  0  # atno 17394 bound_to 11000
  140.0080  134.6734  155.9425 LP  0  0  0  0  0  0  0  0  0  0  0  0  # atno 17395 bound_to 11000

$$$$
