AV-unprocessed.smi:3076|AV-procd|sdf|11727|dock9
  -GOLD-   2272017123D 1   1.00000     0.00000
 Structure written by MMmdl.
 20 20  0  0  0  0  0  0  0  0  1 V2000
  143.7984  134.1578  146.7783 N   0  0  0  0  0  0  0  0  0  0  0  0
  143.9384  134.1224  148.2422 C   0  0  0  0  0  0  0  0  0  0  0  0
  144.0064  132.6906  148.8013 C   0  0  2  0  0  0  0  0  0  0  0  0
  142.7082  132.1318  148.7558 O   0  0  0  0  0  0  0  0  0  0  0  0
  144.5576  132.6870  150.2182 C   0  0  0  0  0  0  0  0  0  0  0  0
  145.7058  131.9388  150.5585 C   0  0  0  0  0  0  0  0  0  0  0  0
  146.1645  131.9628  151.8896 C   0  0  0  0  0  0  0  0  0  0  0  0
  145.4537  132.7343  152.8299 C   0  0  0  0  0  0  0  0  0  0  0  0
  144.3531  133.4520  152.5191 N   0  0  0  0  0  0  0  0  0  0  0  0
  143.9198  133.4234  151.2402 C   0  0  0  0  0  0  0  0  0  0  0  0
  142.9061  133.7549  146.4961 H   0  0  0  0  0  0  0  0  0  0  0  0
  143.8126  135.1196  146.4422 H   0  0  0  0  0  0  0  0  0  0  0  0
  144.8585  134.6434  148.5083 H   0  0  0  0  0  0  0  0  0  0  0  0
  143.1290  134.6783  148.7169 H   0  0  0  0  0  0  0  0  0  0  0  0
  144.6578  132.0810  148.1731 H   0  0  0  0  0  0  0  0  0  0  0  0
  142.0822  132.8101  148.9578 H   0  0  0  0  0  0  0  0  0  0  0  0
  146.2261  131.3536  149.8143 H   0  0  0  0  0  0  0  0  0  0  0  0
  147.0391  131.4015  152.1833 H   0  0  0  0  0  0  0  0  0  0  0  0
  145.7767  132.7743  153.8596 H   0  0  0  0  0  0  0  0  0  0  0  0
  143.0347  134.0056  151.0293 H   0  0  0  0  0  0  0  0  0  0  0  0
  1  2  1  0  0  0  0
  1 11  1  0  0  0  0
  1 12  1  0  0  0  0
  2  3  1  0  0  0  0
  2 13  1  0  0  0  0
  2 14  1  0  0  0  0
  3  4  1  0  0  0  0
  3  5  1  0  0  0  0
  3 15  1  0  0  0  0
  4 16  1  0  0  0  0
  5 10  1  0  0  0  0
  5  6  2  0  0  0  0
  6  7  1  0  0  0  0
  6 17  1  0  0  0  0
  7  8  2  0  0  0  0
  7 18  1  0  0  0  0
  8  9  1  0  0  0  0
  8 19  1  0  0  0  0
  9 10  2  0  0  0  0
 10 20  1  0  0  0  0
M  END
> <s_m_source_file>
AV-unprocessed.smi

> <i_m_source_file_index>
3076

> <i_lp_mmshare_version>
43012

> <i_f3d_flags>
0

> <s_epik_input>
W05IMl1bQ0gyXVtDQEhdKFtPSF0pYzFbY0hdW2NIXVtjSF1uW2NIXTE=

> <s_epik_cmdline>
J2VwaWtfcHl0aG9uJywgJy1waCcsICc3LjAnLCAnLXRuJywgJzgnLCAnLW1hJywgJzIwMCcsICctbWV0YWxfYmluZGluZycsICctaW1hZScsICc8aW5maWxlLm1hZT4nLCAnLW9tYWUnLCAnPG91dGZpbGUubWFlPic=

> <r_epik_Ionization_Penalty>
2.22627

> <r_epik_Ionization_Penalty_Charging>
0

> <r_epik_Ionization_Penalty_Neutral>
2.22627

> <r_epik_State_Penalty>
2.36938

> <r_epik_Charging_Adjusted_Penalty>
2.36938

> <i_epik_Tot_Q>
0

> <i_epik_Tot_abs_Q>
0

> <r_epik_Metal_State_Penalty>
2.36785

> <b_epik_Metal_Only>
0

> <s_lp_Force_Field>
OPLS_2005

> <r_lp_Energy>
11.5599

> <b_lp_Chiralities_Consistent>
1

> <s_lp_Variant>
AV-unprocessed.smi:3076-3

> <Gold.Version>
5.8.1

> <Gold.Id.Protein>
6NUR|6NUR_protein|mol2

> <Gold.PLP.Fitness>
37.4459

> <Gold.PLP.PLP>
-22.7782

> <Gold.PLP.part.hbond>
-6.9585

> <Gold.PLP.part.metal>
0.0000

> <Gold.PLP.part.buried>
0.8365

> <Gold.PLP.part.nonpolar>
-17.4417

> <Gold.PLP.part.repulsive>
0.1277

> <Gold.PLP.ligand.clash>
0.0000

> <Gold.PLP.ligand.torsion>
0.1351

> <Gold.PLP.Chemscore.Hbond>
4.0000

> <Gold.PLP.Chemscore.CHOScore>
0.9784

> <Gold.PLP.Chemscore.Metal>
0.0000

> <Gold.Chemscore.Hbonds>
donor molecule, donor type, donor heavy atom, donor atom, acceptor molecule, acceptor atom, score
      L1  H     1    11       P1 10195  1.00
      L1  H     4    16       P1 10186  1.00
      P1  H  7918  7932       L1     1  1.00
      P1  H 10785 10796       L1     4  0.98
      L1  C    10    20       P1 10186  0.99

> <Gold.PLP.Chemscore.Internal.Correction>
0.0028

> <Gold.Rescore>
     Score         DG    S(hbond)    S(metal)    S(lipo)     H(rot)  DE(clash)    DE(int)     intcor
     13.13     -15.08       2.15        0.00      60.96       1.85       1.83       0.13       ----

> <Gold.Chemscore.Fitness>
13.1284

> <Gold.Chemscore.DG>
-15.0809

> <Gold.Chemscore.ZeroCoef>
-5.4800

> <Gold.Chemscore.Hbond>
2.1538

> <Gold.Chemscore.Metal>
0.0000

> <Gold.Chemscore.Lipo>
60.9553

> <Gold.Chemscore.Internal_Hbond>
0.0000

> <Gold.Chemscore.DEClash>
1.8264

> <Gold.Chemscore.DEInternal>
0.1261

> <Gold.Chemscore.Rot>
1.8455

> <Gold.Chemscore.Internal.Correction>
   9.000000E+99

> <Gold.Chemscore.Hbonds>
donor molecule, donor type, donor heavy atom, donor atom, acceptor molecule, acceptor atom, score
      L1  H     1    11       P1 10195  0.95
      L1  H     4    16       P1 10186  0.95
      P1  H  7918  7932       L1     1  0.38
      P1  H 10785 10796       L1     4  0.23

> <Gold.Chemscore.Hbond.Weighted>
-7.1936

> <Gold.Chemscore.Metal.Weighted>
-0.0000

> <Gold.Chemscore.Lipo.Weighted>
-7.1318

> <Gold.Chemscore.Internal_Hbond.Weighted>
0.0000

> <Gold.Chemscore.DEClash.Weighted>
1.8264

> <Gold.Chemscore.DEInternal.Weighted>
0.1261

> <Gold.Chemscore.Rot.Weighted>
4.7245

> <Gold.Chemscore.Internal.Correction.Weighted>
   9.000000E+99

> <Gold.Protein.RotatedTorsions>
[ 6907 6896 6895 6894 ] final  -58.08 input  -60.11 | X-H torsion
[ 7974 7965 7964 7962 ] final  -28.81 input  175.53 | X-H torsion
[ 8008 7997 7996 7995 ] final  -46.74 input   59.86 | X-H torsion
[ 10167 10162 10161 10158 ] final -119.49 input  -65.29 | X-H torsion
[ 10718 10713 10712 10709 ] final -163.23 input   66.30 | X-H torsion
[ 10763 10752 10751 10750 ] final  -48.41 input  -60.55 | X-H torsion
[ 11005 11000 10999 10996 ] final  -43.07 input  -57.11 | X-H torsion

> <Gold.Protein.ActiveResidues>
 VAL166  LYS551  ARG553  GLY616  TRP617  ASP618  TYR619  PRO620  LYS621  CYS622 
 ASP623  PHE694  ASN695  SER759  ASP760  ASP761  ALA762  ILE779  LEU786  VAL792 
 PHE793  MET794  SER795  GLU796  ALA797  LYS798  CYS799  TRP800  GLU811  SER814 

> <Gold.Protein.RotatedAtoms>
  150.8035  134.7144  159.6621 H   0  0  0  0  0  0  0  0  0  0  0  0  # atno 6907 bound_to 6896
  152.4153  134.6049  160.0020 H   0  0  0  0  0  0  0  0  0  0  0  0  # atno 6908 bound_to 6896
  151.6280  133.3297  159.3138 H   0  0  0  0  0  0  0  0  0  0  0  0  # atno 6909 bound_to 6896
  146.1261  140.5331  142.8714 H   0  0  0  0  0  0  0  0  0  0  0  0  # atno 7974 bound_to 7965
  154.4010  140.1364  156.4062 H   0  0  0  0  0  0  0  0  0  0  0  0  # atno 8008 bound_to 7997
  155.7777  140.3482  155.5260 H   0  0  0  0  0  0  0  0  0  0  0  0  # atno 8009 bound_to 7997
  155.8704  140.0971  157.1544 H   0  0  0  0  0  0  0  0  0  0  0  0  # atno 8010 bound_to 7997
  140.0460  143.5106  152.2106 H   0  0  0  0  0  0  0  0  0  0  0  0  # atno 10167 bound_to 10162
  156.6218  130.8893  151.2959 H   0  0  0  0  0  0  0  0  0  0  0  0  # atno 10718 bound_to 10713
  154.0773  135.6596  153.4832 H   0  0  0  0  0  0  0  0  0  0  0  0  # atno 10763 bound_to 10752
  153.0369  135.5171  154.7508 H   0  0  0  0  0  0  0  0  0  0  0  0  # atno 10764 bound_to 10752
  154.6593  135.3012  154.9855 H   0  0  0  0  0  0  0  0  0  0  0  0  # atno 10765 bound_to 10752
  141.0359  133.6800  156.2681 H   0  0  0  0  0  0  0  0  0  0  0  0  # atno 11005 bound_to 11000
  144.7644  140.5496  143.6713 LP  0  0  0  0  0  0  0  0  0  0  0  0  # atno 17320 bound_to 7965
  145.5361  139.1475  143.3472 LP  0  0  0  0  0  0  0  0  0  0  0  0  # atno 17321 bound_to 7965
  139.5983  144.7574  151.3233 LP  0  0  0  0  0  0  0  0  0  0  0  0  # atno 17342 bound_to 10162
  140.7238  143.7060  150.7807 LP  0  0  0  0  0  0  0  0  0  0  0  0  # atno 17343 bound_to 10162
  157.7225  130.9578  150.1498 LP  0  0  0  0  0  0  0  0  0  0  0  0  # atno 17370 bound_to 10713
  156.2305  130.3681  149.8450 LP  0  0  0  0  0  0  0  0  0  0  0  0  # atno 17371 bound_to 10713
  140.6324  134.5250  157.5561 LP  0  0  0  0  0  0  0  0  0  0  0  0  # atno 17394 bound_to 11000
  139.9240  134.8092  156.1124 LP  0  0  0  0  0  0  0  0  0  0  0  0  # atno 17395 bound_to 11000

$$$$
