AV-unprocessed.smi:3208|AV-procd|sdf|12267|dock7
  -GOLD-   2272018103D 1   1.00000     0.00000
 Structure written by MMmdl.
 29 29  0  0  0  0  0  0  0  0  2 V2000
  147.2518  141.8789  153.9720 C   0  0  0  0  0  0  0  0  0  0  0  0
  148.5153  141.4294  154.0026 C   0  0  0  0  0  0  0  0  0  0  0  0
  148.9569  140.1561  154.6899 C   0  0  0  0  0  0  0  0  0  0  0  0
  150.3413  139.9269  154.4570 O   0  0  0  0  0  0  0  0  0  0  0  0
  151.0765  139.4286  155.5726 C   0  0  1  0  0  0  0  0  0  0  0  0
  152.4658  139.0159  155.0643 C   0  0  0  0  0  0  0  0  0  0  0  0
  151.1794  140.4979  156.6724 C   0  0  0  0  0  0  0  0  0  0  0  0
  150.4717  141.5044  156.6129 O   0  0  0  0  0  0  0  0  0  0  0  0
  152.0555  140.2329  157.6588 N   0  0  0  0  0  0  0  0  0  0  0  0
  152.3817  141.0201  158.7975 C   0  0  0  0  0  0  0  0  0  0  0  0
  151.7090  142.1510  159.1290 N   0  0  0  0  0  0  0  0  0  0  0  0
  152.0832  142.8462  160.2227 C   0  0  0  0  0  0  0  0  0  0  0  0
  153.1492  142.4604  161.0543 C   0  0  0  0  0  0  0  0  0  0  0  0
  153.8550  141.2904  160.7246 C   0  0  0  0  0  0  0  0  0  0  0  0
  153.4701  140.5578  159.5836 C   0  0  0  0  0  0  0  0  0  0  0  0
  154.1580  139.4186  159.2632 O   0  5  0  0  0  0  0  0  0  0  0  0
  146.4514  141.3369  154.4544 H   0  0  0  0  0  0  0  0  0  0  0  0
  147.0026  142.7979  153.4624 H   0  0  0  0  0  0  0  0  0  0  0  0
  149.2904  141.9980  153.5098 H   0  0  0  0  0  0  0  0  0  0  0  0
  148.7450  140.2268  155.7577 H   0  0  0  0  0  0  0  0  0  0  0  0
  148.3667  139.3302  154.2908 H   0  0  0  0  0  0  0  0  0  0  0  0
  150.5789  138.5394  155.9645 H   0  0  0  0  0  0  0  0  0  0  0  0
  153.0883  138.6384  155.8765 H   0  0  0  0  0  0  0  0  0  0  0  0
  152.9892  139.8530  154.6011 H   0  0  0  0  0  0  0  0  0  0  0  0
  152.3844  138.2256  154.3179 H   0  0  0  0  0  0  0  0  0  0  0  0
  152.5627  139.3623  157.5900 H   0  0  0  0  0  0  0  0  0  0  0  0
  151.5151  143.7384  160.4408 H   0  0  0  0  0  0  0  0  0  0  0  0
  153.4183  143.0453  161.9210 H   0  0  0  0  0  0  0  0  0  0  0  0
  154.6802  140.9617  161.3393 H   0  0  0  0  0  0  0  0  0  0  0  0
  1  2  2  0  0  0  0
  1 17  1  0  0  0  0
  1 18  1  0  0  0  0
  2  3  1  0  0  0  0
  2 19  1  0  0  0  0
  3  4  1  0  0  0  0
  3 20  1  0  0  0  0
  3 21  1  0  0  0  0
  4  5  1  0  0  0  0
  5  6  1  0  0  0  0
  5  7  1  0  0  0  0
  5 22  1  0  0  0  0
  6 23  1  0  0  0  0
  6 24  1  0  0  0  0
  6 25  1  0  0  0  0
  7  8  2  0  0  0  0
  7  9  1  0  0  0  0
  9 26  1  0  0  0  0
  9 10  1  0  0  0  0
 10 15  2  0  0  0  0
 10 11  1  0  0  0  0
 11 12  2  0  0  0  0
 12 27  1  0  0  0  0
 12 13  1  0  0  0  0
 13 28  1  0  0  0  0
 13 14  2  0  0  0  0
 14 15  1  0  0  0  0
 14 29  1  0  0  0  0
 15 16  1  0  0  0  0
M  CHG  1  16  -1
M  END
> <s_m_source_file>
AV-unprocessed.smi

> <i_m_source_file_index>
3208

> <i_lp_mmshare_version>
43012

> <i_f3d_flags>
0

> <s_epik_input>
W0NIMl09W0NIXVtDSDJdT1tDQEhdKFtDSDNdKUMoPU8pW05IXWMxbltjSF1bY0hdW2NIXWMxW09IXQ==

> <s_epik_cmdline>
J2VwaWtfcHl0aG9uJywgJy1waCcsICc3LjAnLCAnLXRuJywgJzgnLCAnLW1hJywgJzIwMCcsICctbWV0YWxfYmluZGluZycsICctaW1hZScsICc8aW5maWxlLm1hZT4nLCAnLW9tYWUnLCAnPG91dGZpbGUubWFlPic=

> <r_epik_Ionization_Penalty>
4.05889

> <r_epik_Ionization_Penalty_Charging>
2.07983

> <r_epik_Ionization_Penalty_Neutral>
1.97905

> <r_epik_State_Penalty>
2.65143

> <r_epik_Charging_Adjusted_Penalty>
4.73126

> <i_epik_Tot_Q>
-1

> <i_epik_Tot_abs_Q>
1

> <r_epik_Metal_State_Penalty>
0.650759

> <b_epik_Metal_Only>
0

> <s_lp_Force_Field>
OPLS_2005

> <r_lp_Energy>
4.10408

> <b_lp_Chiralities_Consistent>
1

> <s_lp_Variant>
AV-unprocessed.smi:3208-8

> <Gold.Version>
5.8.1

> <Gold.Id.Protein>
6NUR|6NUR_protein|mol2

> <Gold.PLP.Fitness>
43.0765

> <Gold.PLP.PLP>
-35.2588

> <Gold.PLP.part.hbond>
-2.0000

> <Gold.PLP.part.metal>
0.0000

> <Gold.PLP.part.buried>
-3.0588

> <Gold.PLP.part.nonpolar>
-30.3783

> <Gold.PLP.part.repulsive>
0.2670

> <Gold.PLP.ligand.clash>
0.0000

> <Gold.PLP.ligand.torsion>
0.5967

> <Gold.PLP.Chemscore.Hbond>
3.0000

> <Gold.PLP.Chemscore.CHOScore>
0.0000

> <Gold.PLP.Chemscore.Metal>
0.0000

> <Gold.Chemscore.Hbonds>
donor molecule, donor type, donor heavy atom, donor atom, acceptor molecule, acceptor atom, score
      P1  H  7989  7998       L1     4  1.00
      P1  H  7997  8010       L1    16  1.11

> <Gold.PLP.Chemscore.Internal.Correction>
0.0110

> <Gold.Rescore>
     Score         DG    S(hbond)    S(metal)    S(lipo)     H(rot)  DE(clash)    DE(int)     intcor
      9.63     -14.19       0.99        0.00      82.27       1.65       1.46       3.09       ----

> <Gold.Chemscore.Fitness>
9.6323

> <Gold.Chemscore.DG>
-14.1864

> <Gold.Chemscore.ZeroCoef>
-5.4800

> <Gold.Chemscore.Hbond>
0.9919

> <Gold.Chemscore.Metal>
0.0000

> <Gold.Chemscore.Lipo>
82.2716

> <Gold.Chemscore.Internal_Hbond>
0.0000

> <Gold.Chemscore.DEClash>
1.4602

> <Gold.Chemscore.DEInternal>
3.0939

> <Gold.Chemscore.Rot>
1.6533

> <Gold.Chemscore.Internal.Correction>
   9.000000E+99

> <Gold.Chemscore.Hbonds>
donor molecule, donor type, donor heavy atom, donor atom, acceptor molecule, acceptor atom, score
      P1  H  7989  7998       L1     4  0.40
      P1  H  7997  8010       L1    16  0.14

> <Gold.Chemscore.Hbond.Weighted>
-3.3130

> <Gold.Chemscore.Metal.Weighted>
-0.0000

> <Gold.Chemscore.Lipo.Weighted>
-9.6258

> <Gold.Chemscore.Internal_Hbond.Weighted>
0.0000

> <Gold.Chemscore.DEClash.Weighted>
1.4602

> <Gold.Chemscore.DEInternal.Weighted>
3.0939

> <Gold.Chemscore.Rot.Weighted>
4.2324

> <Gold.Chemscore.Internal.Correction.Weighted>
   9.000000E+99

> <Gold.Protein.RotatedTorsions>
[ 6907 6896 6895 6894 ] final   -7.16 input  -60.11 | X-H torsion
[ 7974 7965 7964 7962 ] final  -79.72 input  175.53 | X-H torsion
[ 8008 7997 7996 7995 ] final    7.21 input   59.86 | X-H torsion
[ 10167 10162 10161 10158 ] final   41.10 input  -65.29 | X-H torsion
[ 10718 10713 10712 10709 ] final  -89.64 input   66.30 | X-H torsion
[ 10763 10752 10751 10750 ] final  148.46 input  -60.55 | X-H torsion
[ 11005 11000 10999 10996 ] final -144.67 input  -57.11 | X-H torsion

> <Gold.Protein.ActiveResidues>
 VAL166  LYS551  ARG553  GLY616  TRP617  ASP618  TYR619  PRO620  LYS621  CYS622 
 ASP623  PHE694  ASN695  SER759  ASP760  ASP761  ALA762  ILE779  LEU786  VAL792 
 PHE793  MET794  SER795  GLU796  ALA797  LYS798  CYS799  TRP800  GLU811  SER814 

> <Gold.Protein.RotatedAtoms>
  151.4540  135.1032  159.9705 H   0  0  0  0  0  0  0  0  0  0  0  0  # atno 6907 bound_to 6896
  152.4878  133.8414  159.7165 H   0  0  0  0  0  0  0  0  0  0  0  0  # atno 6908 bound_to 6896
  150.9003  133.7068  159.2908 H   0  0  0  0  0  0  0  0  0  0  0  0  # atno 6909 bound_to 6896
  145.5695  140.9468  143.1403 H   0  0  0  0  0  0  0  0  0  0  0  0  # atno 7974 bound_to 7965
  154.7509  140.2767  155.6293 H   0  0  0  0  0  0  0  0  0  0  0  0  # atno 8008 bound_to 7997
  156.2895  140.2678  156.2189 H   0  0  0  0  0  0  0  0  0  0  0  0  # atno 8009 bound_to 7997
  155.0138  140.0372  157.2400 H   0  0  0  0  0  0  0  0  0  0  0  0  # atno 8010 bound_to 7997
  140.3676  144.2146  150.6134 H   0  0  0  0  0  0  0  0  0  0  0  0  # atno 10167 bound_to 10162
  155.9985  130.4880  150.5202 H   0  0  0  0  0  0  0  0  0  0  0  0  # atno 10718 bound_to 10713
  154.0551  135.2878  155.3334 H   0  0  0  0  0  0  0  0  0  0  0  0  # atno 10763 bound_to 10752
  154.6844  135.5251  153.8310 H   0  0  0  0  0  0  0  0  0  0  0  0  # atno 10764 bound_to 10752
  153.0545  135.6589  154.0744 H   0  0  0  0  0  0  0  0  0  0  0  0  # atno 10765 bound_to 10752
  140.8000  134.2867  157.4982 H   0  0  0  0  0  0  0  0  0  0  0  0  # atno 11005 bound_to 11000
  144.7444  139.7359  143.7298 LP  0  0  0  0  0  0  0  0  0  0  0  0  # atno 17320 bound_to 7965
  146.1794  139.4979  142.9876 LP  0  0  0  0  0  0  0  0  0  0  0  0  # atno 17321 bound_to 7965
  140.5065  143.2303  151.8600 LP  0  0  0  0  0  0  0  0  0  0  0  0  # atno 17342 bound_to 10162
  139.4807  144.4999  151.9074 LP  0  0  0  0  0  0  0  0  0  0  0  0  # atno 17343 bound_to 10162
  157.3164  131.0673  151.1964 LP  0  0  0  0  0  0  0  0  0  0  0  0  # atno 17370 bound_to 10713
  157.2892  130.6788  149.6105 LP  0  0  0  0  0  0  0  0  0  0  0  0  # atno 17371 bound_to 10713
  139.8722  134.9424  156.3824 LP  0  0  0  0  0  0  0  0  0  0  0  0  # atno 17394 bound_to 11000
  140.9304  133.7583  156.0017 LP  0  0  0  0  0  0  0  0  0  0  0  0  # atno 17395 bound_to 11000

$$$$
