AV-unprocessed.smi:3112|AV-procd|sdf|11844|dock8
  -GOLD-   2272017223D 1   1.00000     0.00000
 Structure written by MMmdl.
 36 36  0  0  0  0  0  0  0  0  1 V2000
  152.9529  142.9720  159.9053 C   0  0  0  0  0  0  0  0  0  0  0  0
  151.9090  144.0725  160.1406 C   0  0  0  0  0  0  0  0  0  0  0  0
  151.3032  144.6289  158.8367 C   0  0  2  0  0  0  0  0  0  0  0  0
  150.0003  145.1015  159.1115 O   0  0  0  0  0  0  0  0  0  0  0  0
  151.1858  143.5703  157.7271 C   0  0  0  0  0  0  0  0  0  0  0  0
  150.3223  142.4615  158.1372 N   0  0  0  0  0  0  0  0  0  0  0  0
  150.6457  141.1676  157.5281 C   0  0  2  0  0  0  0  0  0  0  0  0
  151.9917  140.6900  158.1051 C   0  0  0  0  0  0  0  0  0  0  0  0
  150.6651  141.2481  155.9717 C   0  0  2  0  0  0  0  0  0  0  0  0
  149.3692  141.7961  155.3454 C   0  0  0  0  0  0  0  0  0  0  0  0
  150.9915  139.9616  155.3679 N   0  0  0  0  0  0  0  0  0  0  0  0
  152.1592  139.2358  155.4846 C   0  0  0  0  0  0  0  0  0  0  0  0
  152.0073  138.0953  154.7496 C   0  0  0  0  0  0  0  0  0  0  0  0
  150.6962  138.2134  154.2101 C   0  0  0  0  0  0  0  0  0  0  0  0
  150.0906  139.3294  154.5812 N   0  0  0  0  0  0  0  0  0  0  0  0
  153.3323  142.5897  160.8531 H   0  0  0  0  0  0  0  0  0  0  0  0
  153.8048  143.3439  159.3359 H   0  0  0  0  0  0  0  0  0  0  0  0
  152.5230  142.1328  159.3576 H   0  0  0  0  0  0  0  0  0  0  0  0
  151.1158  143.6563  160.7623 H   0  0  0  0  0  0  0  0  0  0  0  0
  152.3533  144.8821  160.7210 H   0  0  0  0  0  0  0  0  0  0  0  0
  151.8976  145.4693  158.4752 H   0  0  0  0  0  0  0  0  0  0  0  0
  149.5536  145.2433  158.2909 H   0  0  0  0  0  0  0  0  0  0  0  0
  150.7944  144.0327  156.8199 H   0  0  0  0  0  0  0  0  0  0  0  0
  152.1797  143.2062  157.4745 H   0  0  0  0  0  0  0  0  0  0  0  0
  149.3599  142.7010  157.9213 H   0  0  0  0  0  0  0  0  0  0  0  0
  149.9001  140.4303  157.8299 H   0  0  0  0  0  0  0  0  0  0  0  0
  152.2324  139.6744  157.7907 H   0  0  0  0  0  0  0  0  0  0  0  0
  151.9699  140.6844  159.1955 H   0  0  0  0  0  0  0  0  0  0  0  0
  152.8106  141.3390  157.7928 H   0  0  0  0  0  0  0  0  0  0  0  0
  151.4688  141.9298  155.6879 H   0  0  0  0  0  0  0  0  0  0  0  0
  149.2348  142.8532  155.5720 H   0  0  0  0  0  0  0  0  0  0  0  0
  148.4913  141.2554  155.7005 H   0  0  0  0  0  0  0  0  0  0  0  0
  149.3938  141.7113  154.2585 H   0  0  0  0  0  0  0  0  0  0  0  0
  152.9918  139.5868  156.0762 H   0  0  0  0  0  0  0  0  0  0  0  0
  152.7234  137.2980  154.6170 H   0  0  0  0  0  0  0  0  0  0  0  0
  150.1699  137.5260  153.5643 H   0  0  0  0  0  0  0  0  0  0  0  0
  1  2  1  0  0  0  0
  1 16  1  0  0  0  0
  1 17  1  0  0  0  0
  1 18  1  0  0  0  0
  2  3  1  0  0  0  0
  2 19  1  0  0  0  0
  2 20  1  0  0  0  0
  3  4  1  0  0  0  0
  3  5  1  0  0  0  0
  3 21  1  0  0  0  0
  4 22  1  0  0  0  0
  5  6  1  0  0  0  0
  5 23  1  0  0  0  0
  5 24  1  0  0  0  0
  6  7  1  0  0  0  0
  6 25  1  0  0  0  0
  7  8  1  0  0  0  0
  7  9  1  0  0  0  0
  7 26  1  0  0  0  0
  8 27  1  0  0  0  0
  8 28  1  0  0  0  0
  8 29  1  0  0  0  0
  9 10  1  0  0  0  0
  9 11  1  0  0  0  0
  9 30  1  0  0  0  0
 10 31  1  0  0  0  0
 10 32  1  0  0  0  0
 10 33  1  0  0  0  0
 11 15  1  0  0  0  0
 11 12  1  0  0  0  0
 12 13  2  0  0  0  0
 12 34  1  0  0  0  0
 13 14  1  0  0  0  0
 13 35  1  0  0  0  0
 14 15  2  0  0  0  0
 14 36  1  0  0  0  0
M  END
> <s_m_source_file>
AV-unprocessed.smi

> <i_m_source_file_index>
3112

> <i_lp_mmshare_version>
43012

> <i_f3d_flags>
0

> <s_epik_input>
W0NIM11bQ0gyXVtDQEhdKFtPSF0pW0NIMl1bTkhdW0NASF0oW0NIM10pW0NASF0oW0NIM10pbjFbY0hdW2NIXVtjSF1uMQ==

> <s_epik_cmdline>
J2VwaWtfcHl0aG9uJywgJy1waCcsICc3LjAnLCAnLXRuJywgJzgnLCAnLW1hJywgJzIwMCcsICctbWV0YWxfYmluZGluZycsICctaW1hZScsICc8aW5maWxlLm1hZT4nLCAnLW9tYWUnLCAnPG91dGZpbGUubWFlPic=

> <r_lp_tautomer_probability>
1

> <r_epik_Ionization_Penalty>
2.16876

> <r_epik_Ionization_Penalty_Charging>
0

> <r_epik_Ionization_Penalty_Neutral>
2.16876

> <r_epik_State_Penalty>
2.30854

> <r_epik_Charging_Adjusted_Penalty>
2.30854

> <i_epik_Tot_Q>
0

> <i_epik_Tot_abs_Q>
0

> <r_epik_Metal_State_Penalty>
2.3073

> <b_epik_Metal_Only>
0

> <s_lp_Force_Field>
OPLS_2005

> <r_lp_Energy>
16.1769

> <b_lp_Chiralities_Consistent>
1

> <s_lp_Variant>
AV-unprocessed.smi:3112-9

> <Gold.Version>
5.8.1

> <Gold.Id.Protein>
6NUR|6NUR_protein|mol2

> <Gold.PLP.Fitness>
42.3119

> <Gold.PLP.PLP>
-37.1344

> <Gold.PLP.part.hbond>
-1.0000

> <Gold.PLP.part.metal>
0.0000

> <Gold.PLP.part.buried>
-1.9753

> <Gold.PLP.part.nonpolar>
-34.7759

> <Gold.PLP.part.repulsive>
0.1342

> <Gold.PLP.ligand.clash>
0.0000

> <Gold.PLP.ligand.torsion>
0.6648

> <Gold.PLP.Chemscore.Hbond>
0.9920

> <Gold.PLP.Chemscore.CHOScore>
1.1273

> <Gold.PLP.Chemscore.Metal>
0.0000

> <Gold.Chemscore.Hbonds>
donor molecule, donor type, donor heavy atom, donor atom, acceptor molecule, acceptor atom, score
      L1  H     4    22       P1  8029  0.93
      L1  C    14    36       P1  7948  1.00
      L1  C    14    36       P1  7949  0.10

> <Gold.PLP.Chemscore.Internal.Correction>
0.1493

> <Gold.Rescore>
     Score         DG    S(hbond)    S(metal)    S(lipo)     H(rot)  DE(clash)    DE(int)     intcor
     13.03     -13.66       0.92        0.00      94.26       2.31       0.07       0.56       ----

> <Gold.Chemscore.Fitness>
13.0312

> <Gold.Chemscore.DG>
-13.6586

> <Gold.Chemscore.ZeroCoef>
-5.4800

> <Gold.Chemscore.Hbond>
0.9178

> <Gold.Chemscore.Metal>
0.0000

> <Gold.Chemscore.Lipo>
94.2624

> <Gold.Chemscore.Internal_Hbond>
0.0000

> <Gold.Chemscore.DEClash>
0.0650

> <Gold.Chemscore.DEInternal>
0.5624

> <Gold.Chemscore.Rot>
2.3108

> <Gold.Chemscore.Internal.Correction>
   9.000000E+99

> <Gold.Chemscore.Hbonds>
donor molecule, donor type, donor heavy atom, donor atom, acceptor molecule, acceptor atom, score
      L1  H     4    22       P1  8029  0.47

> <Gold.Chemscore.Hbond.Weighted>
-3.0656

> <Gold.Chemscore.Metal.Weighted>
-0.0000

> <Gold.Chemscore.Lipo.Weighted>
-11.0287

> <Gold.Chemscore.Internal_Hbond.Weighted>
0.0000

> <Gold.Chemscore.DEClash.Weighted>
0.0650

> <Gold.Chemscore.DEInternal.Weighted>
0.5624

> <Gold.Chemscore.Rot.Weighted>
5.9157

> <Gold.Chemscore.Internal.Correction.Weighted>
   9.000000E+99

> <Gold.Protein.RotatedTorsions>
[ 6907 6896 6895 6894 ] final   13.07 input  -60.11 | X-H torsion
[ 7974 7965 7964 7962 ] final -116.95 input  175.53 | X-H torsion
[ 8008 7997 7996 7995 ] final   69.18 input   59.86 | X-H torsion
[ 10167 10162 10161 10158 ] final -141.88 input  -65.29 | X-H torsion
[ 10718 10713 10712 10709 ] final  -25.77 input   66.30 | X-H torsion
[ 10763 10752 10751 10750 ] final  113.41 input  -60.55 | X-H torsion
[ 11005 11000 10999 10996 ] final  146.43 input  -57.11 | X-H torsion

> <Gold.Protein.ActiveResidues>
 VAL166  LYS551  ARG553  GLY616  TRP617  ASP618  TYR619  PRO620  LYS621  CYS622 
 ASP623  PHE694  ASN695  SER759  ASP760  ASP761  ALA762  ILE779  LEU786  VAL792 
 PHE793  MET794  SER795  GLU796  ALA797  LYS798  CYS799  TRP800  GLU811  SER814 

> <Gold.Protein.RotatedAtoms>
  151.7805  135.0763  160.0372 H   0  0  0  0  0  0  0  0  0  0  0  0  # atno 6907 bound_to 6896
  152.3226  133.5866  159.5763 H   0  0  0  0  0  0  0  0  0  0  0  0  # atno 6908 bound_to 6896
  150.7378  133.9904  159.3647 H   0  0  0  0  0  0  0  0  0  0  0  0  # atno 6909 bound_to 6896
  145.0909  140.8489  143.3983 H   0  0  0  0  0  0  0  0  0  0  0  0  # atno 7974 bound_to 7965
  155.7197  140.3493  155.5010 H   0  0  0  0  0  0  0  0  0  0  0  0  # atno 8008 bound_to 7997
  155.9281  140.1079  157.1176 H   0  0  0  0  0  0  0  0  0  0  0  0  # atno 8009 bound_to 7997
  154.4080  140.1236  156.4753 H   0  0  0  0  0  0  0  0  0  0  0  0  # atno 8010 bound_to 7997
  139.8142  143.7661  152.2664 H   0  0  0  0  0  0  0  0  0  0  0  0  # atno 10167 bound_to 10162
  156.4600  130.4502  149.6934 H   0  0  0  0  0  0  0  0  0  0  0  0  # atno 10718 bound_to 10713
  153.4920  135.3656  155.2497 H   0  0  0  0  0  0  0  0  0  0  0  0  # atno 10763 bound_to 10752
  154.8751  135.3979  154.3577 H   0  0  0  0  0  0  0  0  0  0  0  0  # atno 10764 bound_to 10752
  153.4199  135.7080  153.6367 H   0  0  0  0  0  0  0  0  0  0  0  0  # atno 10765 bound_to 10752
  140.0793  134.9107  157.1474 H   0  0  0  0  0  0  0  0  0  0  0  0  # atno 11005 bound_to 11000
  145.1067  139.2785  143.5658 LP  0  0  0  0  0  0  0  0  0  0  0  0  # atno 17320 bound_to 7965
  146.3531  140.0651  142.8627 LP  0  0  0  0  0  0  0  0  0  0  0  0  # atno 17321 bound_to 7965
  139.7820  144.7441  151.0075 LP  0  0  0  0  0  0  0  0  0  0  0  0  # atno 17342 bound_to 10162
  140.7816  143.4532  151.0383 LP  0  0  0  0  0  0  0  0  0  0  0  0  # atno 17343 bound_to 10162
  156.3726  130.7538  151.2523 LP  0  0  0  0  0  0  0  0  0  0  0  0  # atno 17370 bound_to 10713
  157.7498  131.0319  150.4201 LP  0  0  0  0  0  0  0  0  0  0  0  0  # atno 17371 bound_to 10713
  140.3512  134.2597  155.7198 LP  0  0  0  0  0  0  0  0  0  0  0  0  # atno 17394 bound_to 11000
  141.2041  133.7896  157.0306 LP  0  0  0  0  0  0  0  0  0  0  0  0  # atno 17395 bound_to 11000

$$$$
