AV-unprocessed.smi:2732|AV-procd|sdf|10532|dock5
  -GOLD-   2272014573D 1   1.00000     0.00000
 Structure written by MMmdl.
 34 35  0  0  0  0  0  0  0  0  1 V2000
  151.6559  144.7376  157.5384 C   0  0  0  0  0  0  0  0  0  0  0  0
  151.3842  143.4934  158.3968 C   0  0  2  0  0  0  0  0  0  0  0  0
  152.5064  143.3146  159.2568 O   0  0  0  0  0  0  0  0  0  0  0  0
  152.3344  142.3568  160.2943 C   0  0  0  0  0  0  0  0  0  0  0  0
  153.6769  142.1009  160.9439 C   0  0  0  0  0  0  0  0  0  0  0  0
  154.7522  141.3367  160.2056 C   0  0  0  0  0  0  0  0  0  0  0  0
  154.0608  140.7077  161.3885 C   0  0  0  0  0  0  0  0  0  0  0  0
  151.1788  142.2442  157.5244 C   0  0  0  0  0  0  0  0  0  0  0  0
  151.8462  141.2330  157.7417 O   0  0  0  0  0  0  0  0  0  0  0  0
  150.2550  142.3552  156.5520 N   0  0  0  0  0  0  0  0  0  0  0  0
  149.8166  141.3652  155.6317 C   0  0  0  0  0  0  0  0  0  0  0  0
  150.4485  140.1111  155.4540 C   0  0  0  0  0  0  0  0  0  0  0  0
  149.9032  139.1994  154.5294 C   0  0  0  0  0  0  0  0  0  0  0  0
  148.7417  139.5693  153.8227 C   0  0  0  0  0  0  0  0  0  0  0  0
  148.1741  138.6915  152.9027 N   0  0  0  0  0  0  0  0  0  0  0  0
  148.1229  140.7563  153.9925 N   0  0  0  0  0  0  0  0  0  0  0  0
  148.6508  141.6256  154.8809 C   0  0  0  0  0  0  0  0  0  0  0  0
  150.8398  144.9242  156.8394 H   0  0  0  0  0  0  0  0  0  0  0  0
  152.5760  144.6348  156.9613 H   0  0  0  0  0  0  0  0  0  0  0  0
  151.7596  145.6230  158.1661 H   0  0  0  0  0  0  0  0  0  0  0  0
  150.4927  143.6795  158.9994 H   0  0  0  0  0  0  0  0  0  0  0  0
  151.6427  142.7360  161.0475 H   0  0  0  0  0  0  0  0  0  0  0  0
  151.9327  141.4167  159.9138 H   0  0  0  0  0  0  0  0  0  0  0  0
  154.0196  142.9141  161.5813 H   0  0  0  0  0  0  0  0  0  0  0  0
  154.5109  140.9497  159.2174 H   0  0  0  0  0  0  0  0  0  0  0  0
  155.7809  141.6653  160.3382 H   0  0  0  0  0  0  0  0  0  0  0  0
  154.6302  140.6130  162.3109 H   0  0  0  0  0  0  0  0  0  0  0  0
  153.3601  139.8997  161.1878 H   0  0  0  0  0  0  0  0  0  0  0  0
  149.8537  143.2733  156.4264 H   0  0  0  0  0  0  0  0  0  0  0  0
  151.3239  139.8249  156.0161 H   0  0  0  0  0  0  0  0  0  0  0  0
  150.3668  138.2363  154.3742 H   0  0  0  0  0  0  0  0  0  0  0  0
  148.5745  137.7822  152.7220 H   0  0  0  0  0  0  0  0  0  0  0  0
  147.3377  138.9348  152.3918 H   0  0  0  0  0  0  0  0  0  0  0  0
  148.1248  142.5624  154.9929 H   0  0  0  0  0  0  0  0  0  0  0  0
  1  2  1  0  0  0  0
  1 18  1  0  0  0  0
  1 19  1  0  0  0  0
  1 20  1  0  0  0  0
  2  3  1  0  0  0  0
  2  8  1  0  0  0  0
  2 21  1  0  0  0  0
  3  4  1  0  0  0  0
  4  5  1  0  0  0  0
  4 22  1  0  0  0  0
  4 23  1  0  0  0  0
  5  7  1  0  0  0  0
  5  6  1  0  0  0  0
  5 24  1  0  0  0  0
  6  7  1  0  0  0  0
  6 25  1  0  0  0  0
  6 26  1  0  0  0  0
  7 27  1  0  0  0  0
  7 28  1  0  0  0  0
  8  9  2  0  0  0  0
  8 10  1  0  0  0  0
 10 11  1  0  0  0  0
 10 29  1  0  0  0  0
 11 17  1  0  0  0  0
 11 12  2  0  0  0  0
 12 13  1  0  0  0  0
 12 30  1  0  0  0  0
 13 14  2  0  0  0  0
 13 31  1  0  0  0  0
 14 15  1  0  0  0  0
 14 16  1  0  0  0  0
 15 32  1  0  0  0  0
 15 33  1  0  0  0  0
 16 17  2  0  0  0  0
 17 34  1  0  0  0  0
M  END
> <s_m_source_file>
AV-unprocessed.smi

> <i_m_source_file_index>
2732

> <i_lp_mmshare_version>
43012

> <i_f3d_flags>
0

> <s_epik_input>
W0NIMl0xW0NIMl1bQ0hdMVtDSDJdT1tDQEBIXShbQ0gzXSlDKD1PKVtOSF1jMltjSF1bY0hdYyhbTkgyXSluW2NIXTI=

> <s_epik_cmdline>
J2VwaWtfcHl0aG9uJywgJy1waCcsICc3LjAnLCAnLXRuJywgJzgnLCAnLW1hJywgJzIwMCcsICctbWV0YWxfYmluZGluZycsICctaW1hZScsICc8aW5maWxlLm1hZT4nLCAnLW9tYWUnLCAnPG91dGZpbGUubWFlPic=

> <r_lp_tautomer_probability>
1

> <r_epik_Ionization_Penalty>
0.0764773

> <r_epik_Ionization_Penalty_Charging>
0

> <r_epik_Ionization_Penalty_Neutral>
0.0764773

> <r_epik_State_Penalty>
0.0673619

> <r_epik_Charging_Adjusted_Penalty>
0.0673619

> <i_epik_Tot_Q>
0

> <i_epik_Tot_abs_Q>
0

> <r_epik_Metal_State_Penalty>
0.0594329

> <b_epik_Metal_Only>
0

> <s_lp_Force_Field>
OPLS_2005

> <r_lp_Energy>
19.1894

> <b_lp_Chiralities_Consistent>
1

> <s_lp_Variant>
AV-unprocessed.smi:2732-1

> <Gold.Version>
5.8.1

> <Gold.Id.Protein>
6NUR|6NUR_protein|mol2

> <Gold.PLP.Fitness>
46.6569

> <Gold.PLP.PLP>
-38.1353

> <Gold.PLP.part.hbond>
-2.9202

> <Gold.PLP.part.metal>
0.0000

> <Gold.PLP.part.buried>
-2.1195

> <Gold.PLP.part.nonpolar>
-33.2240

> <Gold.PLP.part.repulsive>
0.4695

> <Gold.PLP.ligand.clash>
0.0000

> <Gold.PLP.ligand.torsion>
0.5181

> <Gold.PLP.Chemscore.Hbond>
2.0000

> <Gold.PLP.Chemscore.CHOScore>
1.0000

> <Gold.PLP.Chemscore.Metal>
0.0000

> <Gold.Chemscore.Hbonds>
donor molecule, donor type, donor heavy atom, donor atom, acceptor molecule, acceptor atom, score
      L1  H    10    29       P1  8028  1.00
      L1  H    15    32       P1  7948  1.00
      L1  C    17    34       P1  8028  1.00

> <Gold.PLP.Chemscore.Internal.Correction>
0.5577

> <Gold.Rescore>
     Score         DG    S(hbond)    S(metal)    S(lipo)     H(rot)  DE(clash)    DE(int)     intcor
     16.01     -18.26       1.98        0.00      90.37       1.72       0.36       1.90       ----

> <Gold.Chemscore.Fitness>
16.0056

> <Gold.Chemscore.DG>
-18.2598

> <Gold.Chemscore.ZeroCoef>
-5.4800

> <Gold.Chemscore.Hbond>
1.9816

> <Gold.Chemscore.Metal>
0.0000

> <Gold.Chemscore.Lipo>
90.3743

> <Gold.Chemscore.Internal_Hbond>
0.0000

> <Gold.Chemscore.DEClash>
0.3582

> <Gold.Chemscore.DEInternal>
1.8960

> <Gold.Chemscore.Rot>
1.7237

> <Gold.Chemscore.Internal.Correction>
   9.000000E+99

> <Gold.Chemscore.Hbonds>
donor molecule, donor type, donor heavy atom, donor atom, acceptor molecule, acceptor atom, score
      L1  H    10    29       P1  8028  1.00
      L1  H    15    32       P1  7948  0.99

> <Gold.Chemscore.Hbond.Weighted>
-6.6187

> <Gold.Chemscore.Metal.Weighted>
-0.0000

> <Gold.Chemscore.Lipo.Weighted>
-10.5738

> <Gold.Chemscore.Internal_Hbond.Weighted>
0.0000

> <Gold.Chemscore.DEClash.Weighted>
0.3582

> <Gold.Chemscore.DEInternal.Weighted>
1.8960

> <Gold.Chemscore.Rot.Weighted>
4.4127

> <Gold.Chemscore.Internal.Correction.Weighted>
   9.000000E+99

> <Gold.Protein.RotatedTorsions>
[ 6907 6896 6895 6894 ] final  -56.82 input  -60.11 | X-H torsion
[ 7974 7965 7964 7962 ] final  120.93 input  175.53 | X-H torsion
[ 8008 7997 7996 7995 ] final  153.40 input   59.86 | X-H torsion
[ 10167 10162 10161 10158 ] final   98.53 input  -65.29 | X-H torsion
[ 10718 10713 10712 10709 ] final   91.68 input   66.30 | X-H torsion
[ 10763 10752 10751 10750 ] final -139.37 input  -60.55 | X-H torsion
[ 11005 11000 10999 10996 ] final  -53.46 input  -57.11 | X-H torsion

> <Gold.Protein.ActiveResidues>
 VAL166  LYS551  ARG553  GLY616  TRP617  ASP618  TYR619  PRO620  LYS621  CYS622 
 ASP623  PHE694  ASN695  SER759  ASP760  ASP761  ALA762  ILE779  LEU786  VAL792 
 PHE793  MET794  SER795  GLU796  ALA797  LYS798  CYS799  TRP800  GLU811  SER814 

> <Gold.Protein.RotatedAtoms>
  150.8136  134.7305  159.6709 H   0  0  0  0  0  0  0  0  0  0  0  0  # atno 6907 bound_to 6896
  152.4256  134.5872  159.9974 H   0  0  0  0  0  0  0  0  0  0  0  0  # atno 6908 bound_to 6896
  151.6075  133.3313  159.3096 H   0  0  0  0  0  0  0  0  0  0  0  0  # atno 6909 bound_to 6896
  145.1253  139.3362  143.4693 H   0  0  0  0  0  0  0  0  0  0  0  0  # atno 7974 bound_to 7965
  156.2583  140.1995  156.6483 H   0  0  0  0  0  0  0  0  0  0  0  0  # atno 8008 bound_to 7997
  154.6556  140.0567  157.0029 H   0  0  0  0  0  0  0  0  0  0  0  0  # atno 8009 bound_to 7997
  155.1353  140.3237  155.4467 H   0  0  0  0  0  0  0  0  0  0  0  0  # atno 8010 bound_to 7997
  139.7700  144.6925  151.0169 H   0  0  0  0  0  0  0  0  0  0  0  0  # atno 10167 bound_to 10162
  157.6960  131.0416  150.3767 H   0  0  0  0  0  0  0  0  0  0  0  0  # atno 10718 bound_to 10713
  154.8611  135.3584  154.5535 H   0  0  0  0  0  0  0  0  0  0  0  0  # atno 10763 bound_to 10752
  153.6152  135.7008  153.5336 H   0  0  0  0  0  0  0  0  0  0  0  0  # atno 10764 bound_to 10752
  153.3175  135.4161  155.1349 H   0  0  0  0  0  0  0  0  0  0  0  0  # atno 10765 bound_to 10752
  141.0977  133.6622  156.4175 H   0  0  0  0  0  0  0  0  0  0  0  0  # atno 11005 bound_to 11000
  146.3518  140.1229  142.8599 LP  0  0  0  0  0  0  0  0  0  0  0  0  # atno 17320 bound_to 7965
  145.0695  140.9145  143.4890 LP  0  0  0  0  0  0  0  0  0  0  0  0  # atno 17321 bound_to 7965
  140.7813  143.4599  151.0292 LP  0  0  0  0  0  0  0  0  0  0  0  0  # atno 17342 bound_to 10162
  139.8283  143.7726  152.3179 LP  0  0  0  0  0  0  0  0  0  0  0  0  # atno 17343 bound_to 10162
  156.4185  130.3948  149.6841 LP  0  0  0  0  0  0  0  0  0  0  0  0  # atno 17370 bound_to 10713
  156.4100  130.7717  151.2730 LP  0  0  0  0  0  0  0  0  0  0  0  0  # atno 17371 bound_to 10713
  140.5100  134.6404  157.5280 LP  0  0  0  0  0  0  0  0  0  0  0  0  # atno 17394 bound_to 11000
  139.9818  134.7125  155.9845 LP  0  0  0  0  0  0  0  0  0  0  0  0  # atno 17395 bound_to 11000

$$$$
