AV-unprocessed.smi:3179|AV-procd|sdf|12132|dock9
  -GOLD-   2272017573D 1   1.00000     0.00000
 Structure written by MMmdl.
 34 34  0  0  0  0  0  0  0  0  2 V2000
  144.8471  143.7513  155.2467 C   0  0  0  0  0  0  0  0  0  0  0  0
  145.5797  143.2720  153.9904 C   0  0  0  0  0  0  0  0  0  0  0  0
  146.9071  142.7370  154.3206 N   0  3  0  0  0  0  0  0  0  0  0  0
  147.3469  141.4962  154.0331 C   0  0  0  0  0  0  0  0  0  0  0  0
  146.5396  140.6265  153.3947 N   0  0  0  0  0  0  0  0  0  0  0  0
  146.8880  139.2486  153.0233 C   0  0  0  0  0  0  0  0  0  0  0  0
  146.7389  139.0265  151.5157 C   0  0  0  0  0  0  0  0  0  0  0  0
  148.5936  141.1244  154.3835 N   0  0  0  0  0  0  0  0  0  0  0  0
  149.5723  141.9614  155.0908 C   0  0  0  0  0  0  0  0  0  0  0  0
  150.0792  141.2689  156.3614 C   0  0  0  0  0  0  0  0  0  0  0  0
  150.8748  142.1840  157.2307 C   0  0  0  0  0  0  0  0  0  0  0  0
  151.0772  143.4744  156.9506 N   0  0  0  0  0  0  0  0  0  0  0  0
  151.8728  144.1106  157.9069 C   0  0  0  0  0  0  0  0  0  0  0  0
  152.2903  143.2771  158.9132 C   0  0  0  0  0  0  0  0  0  0  0  0
  151.6956  141.6537  158.6953 S   0  0  0  0  0  0  0  0  0  0  0  0
  143.8666  144.1546  154.9918 H   0  0  0  0  0  0  0  0  0  0  0  0
  145.4070  144.5368  155.7550 H   0  0  0  0  0  0  0  0  0  0  0  0
  144.6967  142.9336  155.9521 H   0  0  0  0  0  0  0  0  0  0  0  0
  144.9980  142.4984  153.4889 H   0  0  0  0  0  0  0  0  0  0  0  0
  145.6947  144.0984  153.2885 H   0  0  0  0  0  0  0  0  0  0  0  0
  145.6111  140.9361  153.1458 H   0  0  0  0  0  0  0  0  0  0  0  0
  147.9133  139.0443  153.3323 H   0  0  0  0  0  0  0  0  0  0  0  0
  146.2413  138.5600  153.5677 H   0  0  0  0  0  0  0  0  0  0  0  0
  146.9891  137.9991  151.2501 H   0  0  0  0  0  0  0  0  0  0  0  0
  147.4002  139.6854  150.9523 H   0  0  0  0  0  0  0  0  0  0  0  0
  145.7161  139.2143  151.1878 H   0  0  0  0  0  0  0  0  0  0  0  0
  148.8844  140.1813  154.1686 H   0  0  0  0  0  0  0  0  0  0  0  0
  150.4086  142.1728  154.4235 H   0  0  0  0  0  0  0  0  0  0  0  0
  149.1050  142.9151  155.3388 H   0  0  0  0  0  0  0  0  0  0  0  0
  149.2395  140.8792  156.9384 H   0  0  0  0  0  0  0  0  0  0  0  0
  150.7016  140.4126  156.0995 H   0  0  0  0  0  0  0  0  0  0  0  0
  152.0941  145.1616  157.7918 H   0  0  0  0  0  0  0  0  0  0  0  0
  152.9106  143.5183  159.7640 H   0  0  0  0  0  0  0  0  0  0  0  0
  147.5324  143.3617  154.8093 H   0  0  0  0  0  0  0  0  0  0  0  0
  1  2  1  0  0  0  0
  1 16  1  0  0  0  0
  1 17  1  0  0  0  0
  1 18  1  0  0  0  0
  2  3  1  0  0  0  0
  2 19  1  0  0  0  0
  2 20  1  0  0  0  0
  3  4  2  0  0  0  0
  3 34  1  0  0  0  0
  4  5  1  0  0  0  0
  4  8  1  0  0  0  0
  5  6  1  0  0  0  0
  5 21  1  0  0  0  0
  6  7  1  0  0  0  0
  6 22  1  0  0  0  0
  6 23  1  0  0  0  0
  7 24  1  0  0  0  0
  7 25  1  0  0  0  0
  7 26  1  0  0  0  0
  8  9  1  0  0  0  0
  8 27  1  0  0  0  0
  9 10  1  0  0  0  0
  9 28  1  0  0  0  0
  9 29  1  0  0  0  0
 10 11  1  0  0  0  0
 10 30  1  0  0  0  0
 10 31  1  0  0  0  0
 11 15  1  0  0  0  0
 11 12  2  0  0  0  0
 12 13  1  0  0  0  0
 13 14  2  0  0  0  0
 13 32  1  0  0  0  0
 14 15  1  0  0  0  0
 14 33  1  0  0  0  0
M  CHG  1   3   1
M  END
> <s_m_source_file>
AV-unprocessed.smi

> <i_m_source_file_index>
3179

> <i_lp_mmshare_version>
43012

> <i_f3d_flags>
0

> <s_epik_input>
W0NIM11bQ0gyXS9OPUMoXFtOSF1bQ0gyXVtDSDNdKVtOSF1bQ0gyXVtDSDJdYzFuW2NIXVtjSF1zMQ==

> <s_epik_cmdline>
J2VwaWtfcHl0aG9uJywgJy1waCcsICc3LjAnLCAnLXRuJywgJzgnLCAnLW1hJywgJzIwMCcsICctbWV0YWxfYmluZGluZycsICctaW1hZScsICc8aW5maWxlLm1hZT4nLCAnLW9tYWUnLCAnPG91dGZpbGUubWFlPic=

> <r_lp_tautomer_probability>
1

> <r_epik_Ionization_Penalty>
3.28801e-05

> <r_epik_Ionization_Penalty_Charging>
8.99277e-08

> <r_epik_Ionization_Penalty_Neutral>
3.27902e-05

> <r_epik_State_Penalty>
-0

> <r_epik_Charging_Adjusted_Penalty>
8.99277e-08

> <i_epik_Tot_Q>
1

> <i_epik_Tot_abs_Q>
1

> <r_epik_Metal_State_Penalty>
-0

> <b_epik_Metal_Only>
0

> <s_epik_Chemistry_Notes>
This compound has an imine and may undergo hydrolysis.

> <s_lp_Force_Field>
OPLS_2005

> <r_lp_Energy>
0.386487

> <b_lp_Chiralities_Consistent>
1

> <s_lp_Variant>
AV-unprocessed.smi:3179-1

> <Gold.Version>
5.8.1

> <Gold.Id.Protein>
6NUR|6NUR_protein|mol2

> <Gold.PLP.Fitness>
43.0065

> <Gold.PLP.PLP>
-32.1349

> <Gold.PLP.part.hbond>
-1.9702

> <Gold.PLP.part.metal>
0.0000

> <Gold.PLP.part.buried>
-1.6593

> <Gold.PLP.part.nonpolar>
-31.4012

> <Gold.PLP.part.repulsive>
1.9553

> <Gold.PLP.ligand.clash>
0.0000

> <Gold.PLP.ligand.torsion>
0.0621

> <Gold.PLP.Chemscore.Hbond>
3.6590

> <Gold.PLP.Chemscore.CHOScore>
0.0000

> <Gold.PLP.Chemscore.Metal>
0.0000

> <Gold.Chemscore.Hbonds>
donor molecule, donor type, donor heavy atom, donor atom, acceptor molecule, acceptor atom, score
      L1  H     3    34       P1  8028  1.92
      L1  H     5    21       P1 10175  1.76

> <Gold.PLP.Chemscore.Internal.Correction>
0.0190

> <Gold.Rescore>
     Score         DG    S(hbond)    S(metal)    S(lipo)     H(rot)  DE(clash)    DE(int)     intcor
     13.37     -13.97       0.90        0.00      84.35       1.72       0.53       0.08       ----

> <Gold.Chemscore.Fitness>
13.3676

> <Gold.Chemscore.DG>
-13.9689

> <Gold.Chemscore.ZeroCoef>
-5.4800

> <Gold.Chemscore.Hbond>
0.9042

> <Gold.Chemscore.Metal>
0.0000

> <Gold.Chemscore.Lipo>
84.3463

> <Gold.Chemscore.Internal_Hbond>
0.0000

> <Gold.Chemscore.DEClash>
0.5258

> <Gold.Chemscore.DEInternal>
0.0756

> <Gold.Chemscore.Rot>
1.7187

> <Gold.Chemscore.Internal.Correction>
   9.000000E+99

> <Gold.Chemscore.Hbonds>
donor molecule, donor type, donor heavy atom, donor atom, acceptor molecule, acceptor atom, score
      L1  H     3    34       P1  8028  0.27
      L1  H     5    21       P1 10175  0.40

> <Gold.Chemscore.Hbond.Weighted>
-3.0202

> <Gold.Chemscore.Metal.Weighted>
-0.0000

> <Gold.Chemscore.Lipo.Weighted>
-9.8685

> <Gold.Chemscore.Internal_Hbond.Weighted>
0.0000

> <Gold.Chemscore.DEClash.Weighted>
0.5258

> <Gold.Chemscore.DEInternal.Weighted>
0.0756

> <Gold.Chemscore.Rot.Weighted>
4.3998

> <Gold.Chemscore.Internal.Correction.Weighted>
   9.000000E+99

> <Gold.Protein.RotatedTorsions>
[ 6907 6896 6895 6894 ] final  -68.32 input  -60.11 | X-H torsion
[ 7974 7965 7964 7962 ] final  138.44 input  175.53 | X-H torsion
[ 8008 7997 7996 7995 ] final  177.55 input   59.86 | X-H torsion
[ 10167 10162 10161 10158 ] final  -34.63 input  -65.29 | X-H torsion
[ 10718 10713 10712 10709 ] final  -81.99 input   66.30 | X-H torsion
[ 10763 10752 10751 10750 ] final  -70.20 input  -60.55 | X-H torsion
[ 11005 11000 10999 10996 ] final    0.22 input  -57.11 | X-H torsion

> <Gold.Protein.ActiveResidues>
 VAL166  LYS551  ARG553  GLY616  TRP617  ASP618  TYR619  PRO620  LYS621  CYS622 
 ASP623  PHE694  ASN695  SER759  ASP760  ASP761  ALA762  ILE779  LEU786  VAL792 
 PHE793  MET794  SER795  GLU796  ALA797  LYS798  CYS799  TRP800  GLU811  SER814 

> <Gold.Protein.RotatedAtoms>
  150.7362  134.5755  159.5911 H   0  0  0  0  0  0  0  0  0  0  0  0  # atno 6907 bound_to 6896
  152.3183  134.7409  160.0329 H   0  0  0  0  0  0  0  0  0  0  0  0  # atno 6908 bound_to 6896
  151.7934  133.3326  159.3542 H   0  0  0  0  0  0  0  0  0  0  0  0  # atno 6909 bound_to 6896
  144.9372  139.4974  143.5589 H   0  0  0  0  0  0  0  0  0  0  0  0  # atno 7974 bound_to 7965
  156.0645  140.1356  156.9902 H   0  0  0  0  0  0  0  0  0  0  0  0  # atno 8008 bound_to 7997
  154.4499  140.0984  156.6637 H   0  0  0  0  0  0  0  0  0  0  0  0  # atno 8009 bound_to 7997
  155.5326  140.3459  155.4431 H   0  0  0  0  0  0  0  0  0  0  0  0  # atno 8010 bound_to 7997
  140.7182  143.3534  151.2108 H   0  0  0  0  0  0  0  0  0  0  0  0  # atno 10167 bound_to 10162
  156.0040  130.4620  150.4036 H   0  0  0  0  0  0  0  0  0  0  0  0  # atno 10718 bound_to 10713
  154.4142  135.6002  153.5971 H   0  0  0  0  0  0  0  0  0  0  0  0  # atno 10763 bound_to 10752
  152.9791  135.5937  154.4033 H   0  0  0  0  0  0  0  0  0  0  0  0  # atno 10764 bound_to 10752
  154.3849  135.2841  155.2167 H   0  0  0  0  0  0  0  0  0  0  0  0  # atno 10765 bound_to 10752
  140.6289  133.9593  155.8264 H   0  0  0  0  0  0  0  0  0  0  0  0  # atno 11005 bound_to 11000
  146.3271  139.8366  142.8898 LP  0  0  0  0  0  0  0  0  0  0  0  0  # atno 17320 bound_to 7965
  145.3048  141.0204  143.3588 LP  0  0  0  0  0  0  0  0  0  0  0  0  # atno 17321 bound_to 7965
  139.7070  143.9438  152.2931 LP  0  0  0  0  0  0  0  0  0  0  0  0  # atno 17342 bound_to 10162
  139.9151  144.6833  150.8521 LP  0  0  0  0  0  0  0  0  0  0  0  0  # atno 17343 bound_to 10162
  157.2103  131.0459  151.2602 LP  0  0  0  0  0  0  0  0  0  0  0  0  # atno 17370 bound_to 10713
  157.3894  130.7274  149.6687 LP  0  0  0  0  0  0  0  0  0  0  0  0  # atno 17371 bound_to 10713
  141.0689  134.0235  157.3554 LP  0  0  0  0  0  0  0  0  0  0  0  0  # atno 17394 bound_to 11000
  139.9124  135.0192  156.7744 LP  0  0  0  0  0  0  0  0  0  0  0  0  # atno 17395 bound_to 11000

$$$$
