AV-unprocessed.smi:184|AV-procd|sdf|1462|dock10
  -GOLD-   2262019273D 1   1.00000     0.00000
 Structure written by MMmdl.
 54 58  0  0  0  0  0  0  0  0  1 V2000
  152.6662  138.5014  159.1995 O   0  0  0  0  0  0  0  0  0  0  0  0
  152.3855  139.6172  158.7680 C   0  0  0  0  0  0  0  0  0  0  0  0
  151.4724  139.7451  157.5351 C   0  0  0  0  0  0  0  0  0  0  0  0
  151.1628  141.1234  157.1179 N   0  0  0  0  0  0  0  0  0  0  0  0
  150.1127  141.1412  156.2620 C   0  0  0  0  0  0  0  0  0  0  0  0
  150.2542  140.6579  154.9991 N   0  0  0  0  0  0  0  0  0  0  0  0
  149.2240  140.6967  154.1489 C   0  0  0  0  0  0  0  0  0  0  0  0
  147.9933  141.1730  154.3499 N   0  0  0  0  0  0  0  0  0  0  0  0
  147.8526  141.6688  155.6127 C   0  0  0  0  0  0  0  0  0  0  0  0
  148.8559  141.6966  156.6214 C   0  0  0  0  0  0  0  0  0  0  0  0
  148.3546  142.2808  157.7772 N   0  0  0  0  0  0  0  0  0  0  0  0
  147.1218  142.5802  157.4696 C   0  0  0  0  0  0  0  0  0  0  0  0
  146.7327  142.2388  156.1931 N   0  0  0  0  0  0  0  0  0  0  0  0
  145.4233  142.4545  155.5937 C   0  0  0  0  0  0  0  0  0  0  0  0
  144.2659  141.7081  156.3123 C   0  0  0  0  0  0  0  0  0  0  0  0
  144.5789  140.3274  156.3048 O   0  0  0  0  0  0  0  0  0  0  0  0
  144.1364  142.1374  157.7876 C   0  0  0  0  0  0  0  0  0  0  0  0
  143.4874  143.5269  157.9214 C   0  0  0  0  0  0  0  0  0  0  0  0
  142.2235  143.5406  157.2662 O   0  0  0  0  0  0  0  0  0  0  0  0
  142.3164  143.2849  155.8690 C   0  0  0  0  0  0  0  0  0  0  0  0
  142.8900  141.8769  155.6322 C   0  0  0  0  0  0  0  0  0  0  0  0
  151.2384  142.1790  158.1355 C   0  0  2  0  0  0  0  0  0  0  0  0
  151.0759  143.6108  157.5665 C   0  0  0  0  0  0  0  0  0  0  0  0
  151.1797  144.6661  158.6813 C   0  0  0  0  0  0  0  0  0  0  0  0
  152.4970  144.5376  159.4628 C   0  0  0  0  0  0  0  0  0  0  0  0
  152.6917  143.1113  160.0019 C   0  0  0  0  0  0  0  0  0  0  0  0
  152.5982  142.0818  158.8625 C   0  0  1  0  0  0  0  0  0  0  0  0
  152.8414  140.7331  159.3583 N   0  0  0  0  0  0  0  0  0  0  0  0
  151.9535  139.2258  156.7051 H   0  0  0  0  0  0  0  0  0  0  0  0
  150.5499  139.2032  157.7536 H   0  0  0  0  0  0  0  0  0  0  0  0
  149.4131  140.2895  153.1668 H   0  0  0  0  0  0  0  0  0  0  0  0
  146.4544  143.0567  158.1731 H   0  0  0  0  0  0  0  0  0  0  0  0
  145.2299  143.5283  155.5891 H   0  0  0  0  0  0  0  0  0  0  0  0
  145.4811  142.1603  154.5461 H   0  0  0  0  0  0  0  0  0  0  0  0
  144.3098  139.9636  155.4750 H   0  0  0  0  0  0  0  0  0  0  0  0
  143.5151  141.4199  158.3261 H   0  0  0  0  0  0  0  0  0  0  0  0
  145.1098  142.1265  158.2793 H   0  0  0  0  0  0  0  0  0  0  0  0
  143.3358  143.7645  158.9744 H   0  0  0  0  0  0  0  0  0  0  0  0
  144.1297  144.3086  157.5143 H   0  0  0  0  0  0  0  0  0  0  0  0
  141.3200  143.3584  155.4332 H   0  0  0  0  0  0  0  0  0  0  0  0
  142.9263  144.0505  155.3893 H   0  0  0  0  0  0  0  0  0  0  0  0
  142.9422  141.6617  154.5649 H   0  0  0  0  0  0  0  0  0  0  0  0
  142.1874  141.1528  156.0475 H   0  0  0  0  0  0  0  0  0  0  0  0
  150.4422  142.0003  158.8615 H   0  0  0  0  0  0  0  0  0  0  0  0
  151.8409  143.7969  156.8112 H   0  0  0  0  0  0  0  0  0  0  0  0
  150.1162  143.7341  157.0657 H   0  0  0  0  0  0  0  0  0  0  0  0
  151.0981  145.6663  158.2547 H   0  0  0  0  0  0  0  0  0  0  0  0
  150.3382  144.5536  159.3663 H   0  0  0  0  0  0  0  0  0  0  0  0
  153.3322  144.7967  158.8110 H   0  0  0  0  0  0  0  0  0  0  0  0
  152.5138  145.2534  160.2852 H   0  0  0  0  0  0  0  0  0  0  0  0
  153.6595  143.0369  160.4994 H   0  0  0  0  0  0  0  0  0  0  0  0
  151.9358  142.8980  160.7591 H   0  0  0  0  0  0  0  0  0  0  0  0
  153.3946  142.2913  158.1457 H   0  0  0  0  0  0  0  0  0  0  0  0
  153.4253  140.6376  160.1765 H   0  0  0  0  0  0  0  0  0  0  0  0
  1  2  2  0  0  0  0
  2 28  1  0  0  0  0
  2  3  1  0  0  0  0
  3  4  1  0  0  0  0
  3 29  1  0  0  0  0
  3 30  1  0  0  0  0
  4  5  1  0  0  0  0
  4 22  1  0  0  0  0
  5 10  1  0  0  0  0
  5  6  2  0  0  0  0
  6  7  1  0  0  0  0
  7  8  2  0  0  0  0
  7 31  1  0  0  0  0
  8  9  1  0  0  0  0
  9 13  1  0  0  0  0
  9 10  2  0  0  0  0
 10 11  1  0  0  0  0
 11 12  2  0  0  0  0
 12 13  1  0  0  0  0
 12 32  1  0  0  0  0
 13 14  1  0  0  0  0
 14 15  1  0  0  0  0
 14 33  1  0  0  0  0
 14 34  1  0  0  0  0
 15 21  1  0  0  0  0
 15 16  1  0  0  0  0
 15 17  1  0  0  0  0
 16 35  1  0  0  0  0
 17 18  1  0  0  0  0
 17 36  1  0  0  0  0
 17 37  1  0  0  0  0
 18 19  1  0  0  0  0
 18 38  1  0  0  0  0
 18 39  1  0  0  0  0
 19 20  1  0  0  0  0
 20 21  1  0  0  0  0
 20 40  1  0  0  0  0
 20 41  1  0  0  0  0
 21 42  1  0  0  0  0
 21 43  1  0  0  0  0
 22 27  1  0  0  0  0
 22 23  1  0  0  0  0
 22 44  1  0  0  0  0
 23 24  1  0  0  0  0
 23 45  1  0  0  0  0
 23 46  1  0  0  0  0
 24 25  1  0  0  0  0
 24 47  1  0  0  0  0
 24 48  1  0  0  0  0
 25 26  1  0  0  0  0
 25 49  1  0  0  0  0
 25 50  1  0  0  0  0
 26 27  1  0  0  0  0
 26 51  1  0  0  0  0
 26 52  1  0  0  0  0
 27 28  1  0  0  0  0
 27 53  1  0  0  0  0
 28 54  1  0  0  0  0
M  END
> <s_m_source_file>
AV-unprocessed.smi

> <i_m_source_file_index>
184

> <i_lp_mmshare_version>
43012

> <i_f3d_flags>
0

> <s_epik_input>
W0NIMl0xW0NIMl1bQ0gyXVtDSDJdW0NASF0oW0NASF0xMilbTkhdQyg9TylbQ0gyXU4yYyhuW2NIXW4zKWMoYzM0KW5bY0hdbjRbQ0gyXUM1KFtPSF0pW0NIMl1bQ0gyXU9bQ0gyXVtDSDJdNQ==

> <s_epik_cmdline>
J2VwaWtfcHl0aG9uJywgJy1waCcsICc3LjAnLCAnLXRuJywgJzgnLCAnLW1hJywgJzIwMCcsICctbWV0YWxfYmluZGluZycsICctaW1hZScsICc8aW5maWxlLm1hZT4nLCAnLW9tYWUnLCAnPG91dGZpbGUubWFlPic=

> <r_lp_tautomer_probability>
1

> <r_epik_Ionization_Penalty>
0.000822761

> <r_epik_Ionization_Penalty_Charging>
0

> <r_epik_Ionization_Penalty_Neutral>
0.000822761

> <r_epik_State_Penalty>
0.000403048

> <r_epik_Charging_Adjusted_Penalty>
0.000403048

> <i_epik_Tot_Q>
0

> <i_epik_Tot_abs_Q>
0

> <r_epik_Metal_State_Penalty>
-0

> <b_epik_Metal_Only>
0

> <s_lp_Force_Field>
OPLS_2005

> <r_lp_Energy>
34.5881

> <b_lp_Chiralities_Consistent>
1

> <s_lp_Variant>
AV-unprocessed.smi:184-2

> <Gold.Version>
5.8.1

> <Gold.Id.Protein>
6NUR|6NUR_protein|mol2

> <Gold.PLP.Fitness>
39.8428

> <Gold.PLP.PLP>
-35.6894

> <Gold.PLP.part.hbond>
-1.0000

> <Gold.PLP.part.metal>
0.0000

> <Gold.PLP.part.buried>
-2.1258

> <Gold.PLP.part.nonpolar>
-31.6014

> <Gold.PLP.part.repulsive>
0.5231

> <Gold.PLP.ligand.clash>
0.0000

> <Gold.PLP.ligand.torsion>
0.4640

> <Gold.PLP.Chemscore.Hbond>
0.5678

> <Gold.PLP.Chemscore.CHOScore>
1.0000

> <Gold.PLP.Chemscore.Metal>
0.0000

> <Gold.Chemscore.Hbonds>
donor molecule, donor type, donor heavy atom, donor atom, acceptor molecule, acceptor atom, score
      P1  H  7989  7998       L1     6  0.57
      L1  C     7    31       P1  7957  1.00

> <Gold.PLP.Chemscore.Internal.Correction>
0.3780

> <Gold.Rescore>
     Score         DG    S(hbond)    S(metal)    S(lipo)     H(rot)  DE(clash)    DE(int)     intcor
      8.58     -10.37       0.02        0.00      88.83       2.17       0.04       1.75       ----

> <Gold.Chemscore.Fitness>
8.5811

> <Gold.Chemscore.DG>
-10.3723

> <Gold.Chemscore.ZeroCoef>
-5.4800

> <Gold.Chemscore.Hbond>
0.0156

> <Gold.Chemscore.Metal>
0.0000

> <Gold.Chemscore.Lipo>
88.8319

> <Gold.Chemscore.Internal_Hbond>
0.0000

> <Gold.Chemscore.DEClash>
0.0423

> <Gold.Chemscore.DEInternal>
1.7488

> <Gold.Chemscore.Rot>
2.1693

> <Gold.Chemscore.Internal.Correction>
   9.000000E+99

> <Gold.Chemscore.Hbonds>
donor molecule, donor type, donor heavy atom, donor atom, acceptor molecule, acceptor atom, score
      P1  H  7989  7998       L1     6  0.05

> <Gold.Chemscore.Hbond.Weighted>
-0.0523

> <Gold.Chemscore.Metal.Weighted>
-0.0000

> <Gold.Chemscore.Lipo.Weighted>
-10.3933

> <Gold.Chemscore.Internal_Hbond.Weighted>
0.0000

> <Gold.Chemscore.DEClash.Weighted>
0.0423

> <Gold.Chemscore.DEInternal.Weighted>
1.7488

> <Gold.Chemscore.Rot.Weighted>
5.5533

> <Gold.Chemscore.Internal.Correction.Weighted>
   9.000000E+99

> <Gold.Protein.RotatedTorsions>
[ 6907 6896 6895 6894 ] final  140.38 input  -60.11 | X-H torsion
[ 7974 7965 7964 7962 ] final -138.62 input  175.53 | X-H torsion
[ 8008 7997 7996 7995 ] final   92.96 input   59.86 | X-H torsion
[ 10167 10162 10161 10158 ] final   78.54 input  -65.29 | X-H torsion
[ 10718 10713 10712 10709 ] final  -11.95 input   66.30 | X-H torsion
[ 10763 10752 10751 10750 ] final   89.86 input  -60.55 | X-H torsion
[ 11005 11000 10999 10996 ] final -145.33 input  -57.11 | X-H torsion

> <Gold.Protein.ActiveResidues>
 VAL166  LYS551  ARG553  GLY616  TRP617  ASP618  TYR619  PRO620  LYS621  CYS622 
 ASP623  PHE694  ASN695  SER759  ASP760  ASP761  ALA762  ILE779  LEU786  VAL792 
 PHE793  MET794  SER795  GLU796  ALA797  LYS798  CYS799  TRP800  GLU811  SER814 

> <Gold.Protein.RotatedAtoms>
  152.2437  133.5157  159.5284 H   0  0  0  0  0  0  0  0  0  0  0  0  # atno 6907 bound_to 6896
  150.7072  134.1054  159.3990 H   0  0  0  0  0  0  0  0  0  0  0  0  # atno 6908 bound_to 6896
  151.8974  135.0392  160.0554 H   0  0  0  0  0  0  0  0  0  0  0  0  # atno 6909 bound_to 6896
  144.8744  140.6414  143.5246 H   0  0  0  0  0  0  0  0  0  0  0  0  # atno 7974 bound_to 7965
  156.0413  140.3319  155.7247 H   0  0  0  0  0  0  0  0  0  0  0  0  # atno 8008 bound_to 7997
  155.5740  140.0630  157.2817 H   0  0  0  0  0  0  0  0  0  0  0  0  # atno 8009 bound_to 7997
  154.4394  140.1855  156.0897 H   0  0  0  0  0  0  0  0  0  0  0  0  # atno 8010 bound_to 7997
  139.9699  144.5902  150.7995 H   0  0  0  0  0  0  0  0  0  0  0  0  # atno 10167 bound_to 10162
  156.6517  130.4956  149.6060 H   0  0  0  0  0  0  0  0  0  0  0  0  # atno 10718 bound_to 10713
  153.1915  135.4455  155.0154 H   0  0  0  0  0  0  0  0  0  0  0  0  # atno 10763 bound_to 10752
  154.8093  135.3287  154.7351 H   0  0  0  0  0  0  0  0  0  0  0  0  # atno 10764 bound_to 10752
  153.7805  135.6978  153.4944 H   0  0  0  0  0  0  0  0  0  0  0  0  # atno 10765 bound_to 10752
  140.7933  134.2942  157.5005 H   0  0  0  0  0  0  0  0  0  0  0  0  # atno 11005 bound_to 11000
  145.4071  139.1587  143.4146 LP  0  0  0  0  0  0  0  0  0  0  0  0  # atno 17320 bound_to 7965
  146.2952  140.4172  142.8724 LP  0  0  0  0  0  0  0  0  0  0  0  0  # atno 17321 bound_to 7965
  140.7525  143.2992  151.3124 LP  0  0  0  0  0  0  0  0  0  0  0  0  # atno 17342 bound_to 10162
  139.6489  144.0399  152.2612 LP  0  0  0  0  0  0  0  0  0  0  0  0  # atno 17343 bound_to 10162
  156.2079  130.6661  151.1238 LP  0  0  0  0  0  0  0  0  0  0  0  0  # atno 17370 bound_to 10713
  157.7139  131.0720  150.6401 LP  0  0  0  0  0  0  0  0  0  0  0  0  # atno 17371 bound_to 10713
  139.8729  134.9387  156.3722 LP  0  0  0  0  0  0  0  0  0  0  0  0  # atno 17394 bound_to 11000
  140.9368  133.7542  156.0094 LP  0  0  0  0  0  0  0  0  0  0  0  0  # atno 17395 bound_to 11000

$$$$
