AV-unprocessed.smi:554|AV-procd|sdf|2906|dock5
  -GOLD-   2262023403D 1   1.00000     0.00000
 Structure written by MMmdl.
 27 28  0  0  0  0  0  0  0  0  1 V2000
  153.6220  141.7997  160.5392 C   0  0  0  0  0  0  0  0  0  0  0  0
  153.2900  143.1639  159.9746 C   0  0  2  0  0  0  0  0  0  0  0  0
  152.3860  144.1102  160.7309 C   0  0  0  0  0  0  0  0  0  0  0  0
  151.9045  143.4683  159.4506 C   0  0  1  0  0  0  0  0  0  0  0  0
  151.7267  144.2877  158.1869 C   0  0  0  0  0  0  0  0  0  0  0  0
  150.9198  143.6544  157.1519 N   0  0  0  0  0  0  0  0  0  0  0  0
  150.9381  142.3472  156.8555 C   0  0  0  0  0  0  0  0  0  0  0  0
  151.6461  141.5278  157.4419 O   0  0  0  0  0  0  0  0  0  0  0  0
  150.0910  142.0649  155.8503 N   0  0  0  0  0  0  0  0  0  0  0  0
  149.8604  140.8136  155.2213 C   0  0  0  0  0  0  0  0  0  0  0  0
  150.8222  139.9391  154.9033 N   0  0  0  0  0  0  0  0  0  0  0  0
  150.3082  138.7964  154.2850 C   0  0  0  0  0  0  0  0  0  0  0  0
  148.9434  138.8181  154.1387 C   0  0  0  0  0  0  0  0  0  0  0  0
  148.2448  140.2818  154.7785 S   0  0  0  0  0  0  0  0  0  0  0  0
  152.7699  141.3849  161.0788 H   0  0  0  0  0  0  0  0  0  0  0  0
  154.4655  141.8739  161.2255 H   0  0  0  0  0  0  0  0  0  0  0  0
  153.8880  141.1169  159.7323 H   0  0  0  0  0  0  0  0  0  0  0  0
  154.1172  143.6248  159.4379 H   0  0  0  0  0  0  0  0  0  0  0  0
  151.9461  143.7591  161.6622 H   0  0  0  0  0  0  0  0  0  0  0  0
  152.6366  145.1689  160.7058 H   0  0  0  0  0  0  0  0  0  0  0  0
  151.1751  142.6672  159.5596 H   0  0  0  0  0  0  0  0  0  0  0  0
  151.2615  145.2408  158.4404 H   0  0  0  0  0  0  0  0  0  0  0  0
  152.7127  144.5284  157.7862 H   0  0  0  0  0  0  0  0  0  0  0  0
  150.3077  144.2559  156.6207 H   0  0  0  0  0  0  0  0  0  0  0  0
  149.5619  142.8401  155.4788 H   0  0  0  0  0  0  0  0  0  0  0  0
  150.9875  138.0146  153.9786 H   0  0  0  0  0  0  0  0  0  0  0  0
  148.3098  138.0643  153.6957 H   0  0  0  0  0  0  0  0  0  0  0  0
  1  2  1  0  0  0  0
  1 15  1  0  0  0  0
  1 16  1  0  0  0  0
  1 17  1  0  0  0  0
  2  4  1  0  0  0  0
  2  3  1  0  0  0  0
  2 18  1  0  0  0  0
  3  4  1  0  0  0  0
  3 19  1  0  0  0  0
  3 20  1  0  0  0  0
  4  5  1  0  0  0  0
  4 21  1  0  0  0  0
  5  6  1  0  0  0  0
  5 22  1  0  0  0  0
  5 23  1  0  0  0  0
  6  7  1  0  0  0  0
  6 24  1  0  0  0  0
  7  8  2  0  0  0  0
  7  9  1  0  0  0  0
  9 10  1  0  0  0  0
  9 25  1  0  0  0  0
 10 14  1  0  0  0  0
 10 11  2  0  0  0  0
 11 12  1  0  0  0  0
 12 13  2  0  0  0  0
 12 26  1  0  0  0  0
 13 14  1  0  0  0  0
 13 27  1  0  0  0  0
M  END
> <s_m_source_file>
AV-unprocessed.smi

> <i_m_source_file_index>
554

> <i_lp_mmshare_version>
43012

> <i_f3d_flags>
0

> <s_epik_input>
W0NIM11bQ0BASF0xW0NIMl1bQ0BIXTFbQ0gyXVtOSF1DKD1PKVtOSF1jMm5bY0hdW2NIXXMy

> <s_epik_cmdline>
J2VwaWtfcHl0aG9uJywgJy1waCcsICc3LjAnLCAnLXRuJywgJzgnLCAnLW1hJywgJzIwMCcsICctbWV0YWxfYmluZGluZycsICctaW1hZScsICc8aW5maWxlLm1hZT4nLCAnLW9tYWUnLCAnPG91dGZpbGUubWFlPic=

> <r_lp_tautomer_probability>
0.999

> <r_epik_Ionization_Penalty>
0.00042678

> <r_epik_Ionization_Penalty_Charging>
0

> <r_epik_Ionization_Penalty_Neutral>
0.00042678

> <r_epik_State_Penalty>
0.000177984

> <r_epik_Charging_Adjusted_Penalty>
0.000177984

> <i_epik_Tot_Q>
0

> <i_epik_Tot_abs_Q>
0

> <r_epik_Metal_State_Penalty>
-0

> <b_epik_Metal_Only>
0

> <s_lp_Force_Field>
OPLS_2005

> <r_lp_Energy>
13.37

> <b_lp_Chiralities_Consistent>
1

> <s_lp_Variant>
AV-unprocessed.smi:554-1

> <Gold.Version>
5.8.1

> <Gold.Id.Protein>
6NUR|6NUR_protein|mol2

> <Gold.PLP.Fitness>
45.2668

> <Gold.PLP.PLP>
-34.7251

> <Gold.PLP.part.hbond>
-3.0000

> <Gold.PLP.part.metal>
0.0000

> <Gold.PLP.part.buried>
-2.3832

> <Gold.PLP.part.nonpolar>
-29.4702

> <Gold.PLP.part.repulsive>
0.2342

> <Gold.PLP.ligand.clash>
0.0000

> <Gold.PLP.ligand.torsion>
0.9146

> <Gold.PLP.Chemscore.Hbond>
2.9920

> <Gold.PLP.Chemscore.CHOScore>
0.9527

> <Gold.PLP.Chemscore.Metal>
0.0000

> <Gold.Chemscore.Hbonds>
donor molecule, donor type, donor heavy atom, donor atom, acceptor molecule, acceptor atom, score
      L1  H     6    24       P1  8028  1.00
      L1  H     9    25       P1  8028  1.00
      P1  H  7989  7998       L1    11  1.00
      L1  C    13    27       P1  7948  0.64

> <Gold.PLP.Chemscore.Internal.Correction>
0.5370

> <Gold.Rescore>
     Score         DG    S(hbond)    S(metal)    S(lipo)     H(rot)  DE(clash)    DE(int)     intcor
     17.74     -20.33       2.82        0.00      74.32       1.28       0.01       2.57       ----

> <Gold.Chemscore.Fitness>
17.7430

> <Gold.Chemscore.DG>
-20.3285

> <Gold.Chemscore.ZeroCoef>
-5.4800

> <Gold.Chemscore.Hbond>
2.8224

> <Gold.Chemscore.Metal>
0.0000

> <Gold.Chemscore.Lipo>
74.3195

> <Gold.Chemscore.Internal_Hbond>
0.0000

> <Gold.Chemscore.DEClash>
0.0119

> <Gold.Chemscore.DEInternal>
2.5736

> <Gold.Chemscore.Rot>
1.2788

> <Gold.Chemscore.Internal.Correction>
   9.000000E+99

> <Gold.Chemscore.Hbonds>
donor molecule, donor type, donor heavy atom, donor atom, acceptor molecule, acceptor atom, score
      L1  H     6    24       P1  8028  0.99
      L1  H     9    25       P1  8028  0.91
      P1  H  7989  7998       L1    11  0.11

> <Gold.Chemscore.Hbond.Weighted>
-9.4269

> <Gold.Chemscore.Metal.Weighted>
-0.0000

> <Gold.Chemscore.Lipo.Weighted>
-8.6954

> <Gold.Chemscore.Internal_Hbond.Weighted>
0.0000

> <Gold.Chemscore.DEClash.Weighted>
0.0119

> <Gold.Chemscore.DEInternal.Weighted>
2.5736

> <Gold.Chemscore.Rot.Weighted>
3.2738

> <Gold.Chemscore.Internal.Correction.Weighted>
   9.000000E+99

> <Gold.Protein.RotatedTorsions>
[ 6907 6896 6895 6894 ] final -126.75 input  -60.11 | X-H torsion
[ 7974 7965 7964 7962 ] final  -87.46 input  175.53 | X-H torsion
[ 8008 7997 7996 7995 ] final  149.83 input   59.86 | X-H torsion
[ 10167 10162 10161 10158 ] final  -15.18 input  -65.29 | X-H torsion
[ 10718 10713 10712 10709 ] final   69.99 input   66.30 | X-H torsion
[ 10763 10752 10751 10750 ] final  -25.06 input  -60.55 | X-H torsion
[ 11005 11000 10999 10996 ] final  -39.53 input  -57.11 | X-H torsion

> <Gold.Protein.ActiveResidues>
 VAL166  LYS551  ARG553  GLY616  TRP617  ASP618  TYR619  PRO620  LYS621  CYS622 
 ASP623  PHE694  ASN695  SER759  ASP760  ASP761  ALA762  ILE779  LEU786  VAL792 
 PHE793  MET794  SER795  GLU796  ALA797  LYS798  CYS799  TRP800  GLU811  SER814 

> <Gold.Protein.RotatedAtoms>
  150.9001  133.7129  159.2880 H   0  0  0  0  0  0  0  0  0  0  0  0  # atno 6907 bound_to 6896
  151.4650  135.1040  159.9745 H   0  0  0  0  0  0  0  0  0  0  0  0  # atno 6908 bound_to 6896
  152.4872  133.8355  159.7181 H   0  0  0  0  0  0  0  0  0  0  0  0  # atno 6909 bound_to 6896
  145.4662  140.9560  143.1942 H   0  0  0  0  0  0  0  0  0  0  0  0  # atno 7974 bound_to 7965
  156.2739  140.2091  156.5921 H   0  0  0  0  0  0  0  0  0  0  0  0  # atno 8008 bound_to 7997
  154.6974  140.0524  157.0447 H   0  0  0  0  0  0  0  0  0  0  0  0  # atno 8009 bound_to 7997
  155.0782  140.3184  155.4612 H   0  0  0  0  0  0  0  0  0  0  0  0  # atno 8010 bound_to 7997
  140.7214  143.5245  150.9594 H   0  0  0  0  0  0  0  0  0  0  0  0  # atno 10167 bound_to 10162
  157.6376  130.9454  150.0589 H   0  0  0  0  0  0  0  0  0  0  0  0  # atno 10718 bound_to 10713
  153.6937  135.6960  153.5082 H   0  0  0  0  0  0  0  0  0  0  0  0  # atno 10763 bound_to 10752
  153.2394  135.4311  155.0680 H   0  0  0  0  0  0  0  0  0  0  0  0  # atno 10764 bound_to 10752
  154.8365  135.3504  154.6478 H   0  0  0  0  0  0  0  0  0  0  0  0  # atno 10765 bound_to 10752
  141.0109  133.6908  156.2199 H   0  0  0  0  0  0  0  0  0  0  0  0  # atno 11005 bound_to 11000
  144.7972  139.6210  143.7087 LP  0  0  0  0  0  0  0  0  0  0  0  0  # atno 17320 bound_to 7965
  146.2423  139.6026  142.9483 LP  0  0  0  0  0  0  0  0  0  0  0  0  # atno 17321 bound_to 7965
  139.8963  143.6891  152.3138 LP  0  0  0  0  0  0  0  0  0  0  0  0  # atno 17342 bound_to 10162
  139.7224  144.7600  151.0933 LP  0  0  0  0  0  0  0  0  0  0  0  0  # atno 17343 bound_to 10162
  156.1628  130.3644  149.9275 LP  0  0  0  0  0  0  0  0  0  0  0  0  # atno 17370 bound_to 10713
  156.7269  130.9028  151.3623 LP  0  0  0  0  0  0  0  0  0  0  0  0  # atno 17371 bound_to 10713
  140.6736  134.4842  157.5588 LP  0  0  0  0  0  0  0  0  0  0  0  0  # atno 17394 bound_to 11000
  139.9089  134.8388  156.1601 LP  0  0  0  0  0  0  0  0  0  0  0  0  # atno 17395 bound_to 11000

$$$$
