AV-unprocessed.smi:428|AV-procd|sdf|2544|dock6
  -GOLD-   2262022503D 1   1.00000     0.00000
 Structure written by MMmdl.
 40 41  0  0  0  0  0  0  0  0  1 V2000
  149.1335  132.3717  156.1288 C   0  0  0  0  0  0  0  0  0  0  0  0
  149.7969  133.7261  156.4026 C   0  0  0  0  0  0  0  0  0  0  0  0
  149.2291  134.8472  155.5138 C   0  0  0  0  0  0  0  0  0  0  0  0
  150.2095  136.0044  155.2967 C   0  0  0  0  0  0  0  0  0  0  0  0
  151.2643  136.0632  155.9293 O   0  0  0  0  0  0  0  0  0  0  0  0
  149.8486  136.9186  154.3831 N   0  0  0  0  0  0  0  0  0  0  0  0
  150.6271  138.0991  154.0188 C   0  0  0  0  0  0  0  0  0  0  0  0
  150.9070  139.0763  155.1550 C   0  0  0  0  0  0  0  0  0  0  0  0
  149.9250  140.0210  155.5121 C   0  0  0  0  0  0  0  0  0  0  0  0
  150.1905  140.9307  156.5528 C   0  0  0  0  0  0  0  0  0  0  0  0
  151.4387  140.8744  157.2159 C   0  0  0  0  0  0  0  0  0  0  0  0
  151.7269  141.7796  158.2597 N   0  0  0  0  0  0  0  0  0  0  0  0
  152.7402  141.3936  159.2398 C   0  0  0  0  0  0  0  0  0  0  0  0
  152.7196  142.3575  160.4381 C   0  0  0  0  0  0  0  0  0  0  0  0
  152.8827  143.6954  159.9789 O   0  0  0  0  0  0  0  0  0  0  0  0
  151.8257  144.0889  159.1099 C   0  0  0  0  0  0  0  0  0  0  0  0
  151.8078  143.1837  157.8659 C   0  0  0  0  0  0  0  0  0  0  0  0
  152.3818  139.9620  156.8753 N   0  0  0  0  0  0  0  0  0  0  0  0
  152.1232  139.0946  155.8741 C   0  0  0  0  0  0  0  0  0  0  0  0
  149.5542  131.5966  156.7697 H   0  0  0  0  0  0  0  0  0  0  0  0
  149.2800  132.0636  155.0933 H   0  0  0  0  0  0  0  0  0  0  0  0
  148.0607  132.4135  156.3181 H   0  0  0  0  0  0  0  0  0  0  0  0
  149.6619  133.9827  157.4543 H   0  0  0  0  0  0  0  0  0  0  0  0
  150.8717  133.6316  156.2419 H   0  0  0  0  0  0  0  0  0  0  0  0
  148.9521  134.4449  154.5388 H   0  0  0  0  0  0  0  0  0  0  0  0
  148.3140  135.2369  155.9623 H   0  0  0  0  0  0  0  0  0  0  0  0
  148.9672  136.7897  153.9074 H   0  0  0  0  0  0  0  0  0  0  0  0
  151.5842  137.7566  153.6251 H   0  0  0  0  0  0  0  0  0  0  0  0
  150.1359  138.6316  153.2025 H   0  0  0  0  0  0  0  0  0  0  0  0
  148.9769  140.0499  154.9951 H   0  0  0  0  0  0  0  0  0  0  0  0
  149.4347  141.6474  156.8383 H   0  0  0  0  0  0  0  0  0  0  0  0
  152.5576  140.3766  159.5894 H   0  0  0  0  0  0  0  0  0  0  0  0
  153.7236  141.4065  158.7681 H   0  0  0  0  0  0  0  0  0  0  0  0
  151.7872  142.2642  160.9973 H   0  0  0  0  0  0  0  0  0  0  0  0
  153.5290  142.1170  161.1274 H   0  0  0  0  0  0  0  0  0  0  0  0
  150.8713  144.0433  159.6370 H   0  0  0  0  0  0  0  0  0  0  0  0
  151.9771  145.1272  158.8151 H   0  0  0  0  0  0  0  0  0  0  0  0
  152.7183  143.3329  157.2840 H   0  0  0  0  0  0  0  0  0  0  0  0
  150.9732  143.4721  157.2284 H   0  0  0  0  0  0  0  0  0  0  0  0
  152.9208  138.4027  155.6490 H   0  0  0  0  0  0  0  0  0  0  0  0
  1  2  1  0  0  0  0
  1 20  1  0  0  0  0
  1 21  1  0  0  0  0
  1 22  1  0  0  0  0
  2  3  1  0  0  0  0
  2 23  1  0  0  0  0
  2 24  1  0  0  0  0
  3  4  1  0  0  0  0
  3 25  1  0  0  0  0
  3 26  1  0  0  0  0
  4  5  2  0  0  0  0
  4  6  1  0  0  0  0
  6  7  1  0  0  0  0
  6 27  1  0  0  0  0
  7  8  1  0  0  0  0
  7 28  1  0  0  0  0
  7 29  1  0  0  0  0
  8 19  1  0  0  0  0
  8  9  2  0  0  0  0
  9 10  1  0  0  0  0
  9 30  1  0  0  0  0
 10 11  2  0  0  0  0
 10 31  1  0  0  0  0
 11 12  1  0  0  0  0
 11 18  1  0  0  0  0
 12 17  1  0  0  0  0
 12 13  1  0  0  0  0
 13 14  1  0  0  0  0
 13 32  1  0  0  0  0
 13 33  1  0  0  0  0
 14 15  1  0  0  0  0
 14 34  1  0  0  0  0
 14 35  1  0  0  0  0
 15 16  1  0  0  0  0
 16 17  1  0  0  0  0
 16 36  1  0  0  0  0
 16 37  1  0  0  0  0
 17 38  1  0  0  0  0
 17 39  1  0  0  0  0
 18 19  2  0  0  0  0
 19 40  1  0  0  0  0
M  END
> <s_m_source_file>
AV-unprocessed.smi

> <i_m_source_file_index>
428

> <i_lp_mmshare_version>
43012

> <i_f3d_flags>
0

> <s_epik_input>
W0NIM11bQ0gyXVtDSDJdQyg9TylbTkhdW0NIMl1jMVtjSF1bY0hdYyhuW2NIXTEpTjJbQ0gyXVtDSDJdT1tDSDJdW0NIMl0y

> <s_epik_cmdline>
J2VwaWtfcHl0aG9uJywgJy1waCcsICc3LjAnLCAnLXRuJywgJzgnLCAnLW1hJywgJzIwMCcsICctbWV0YWxfYmluZGluZycsICctaW1hZScsICc8aW5maWxlLm1hZT4nLCAnLW9tYWUnLCAnPG91dGZpbGUubWFlPic=

> <r_lp_tautomer_probability>
1

> <r_epik_Ionization_Penalty>
0.00505548

> <r_epik_Ionization_Penalty_Charging>
0

> <r_epik_Ionization_Penalty_Neutral>
0.00505548

> <r_epik_State_Penalty>
0.00367784

> <r_epik_Charging_Adjusted_Penalty>
0.00367784

> <i_epik_Tot_Q>
0

> <i_epik_Tot_abs_Q>
0

> <r_epik_Metal_State_Penalty>
-0

> <b_epik_Metal_Only>
0

> <s_lp_Force_Field>
OPLS_2005

> <r_lp_Energy>
16.3878

> <b_lp_Chiralities_Consistent>
1

> <s_lp_Variant>
AV-unprocessed.smi:428-1

> <Gold.Version>
5.8.1

> <Gold.Id.Protein>
6NUR|6NUR_protein|mol2

> <Gold.PLP.Fitness>
42.8351

> <Gold.PLP.PLP>
-37.2045

> <Gold.PLP.part.hbond>
-3.9809

> <Gold.PLP.part.metal>
0.0000

> <Gold.PLP.part.buried>
-2.4536

> <Gold.PLP.part.nonpolar>
-30.5414

> <Gold.PLP.part.repulsive>
0.1283

> <Gold.PLP.ligand.clash>
0.0000

> <Gold.PLP.ligand.torsion>
0.8869

> <Gold.PLP.Chemscore.Hbond>
2.3568

> <Gold.PLP.Chemscore.CHOScore>
0.0000

> <Gold.PLP.Chemscore.Metal>
0.0000

> <Gold.Chemscore.Hbonds>
donor molecule, donor type, donor heavy atom, donor atom, acceptor molecule, acceptor atom, score
      L1  H     6    27       P1  7948  0.30
      P1  H  7997  8008       L1    18  0.90
      P1  H 10752 10763       L1     5  0.76

> <Gold.PLP.Chemscore.Internal.Correction>
0.3339

> <Gold.Rescore>
     Score         DG    S(hbond)    S(metal)    S(lipo)     H(rot)  DE(clash)    DE(int)     intcor
     16.51     -17.81       1.73        0.00      93.00       1.69       0.25       1.05       ----

> <Gold.Chemscore.Fitness>
16.5069

> <Gold.Chemscore.DG>
-17.8060

> <Gold.Chemscore.ZeroCoef>
-5.4800

> <Gold.Chemscore.Hbond>
1.7299

> <Gold.Chemscore.Metal>
0.0000

> <Gold.Chemscore.Lipo>
93.0027

> <Gold.Chemscore.Internal_Hbond>
0.0000

> <Gold.Chemscore.DEClash>
0.2523

> <Gold.Chemscore.DEInternal>
1.0468

> <Gold.Chemscore.Rot>
1.6926

> <Gold.Chemscore.Internal.Correction>
   9.000000E+99

> <Gold.Chemscore.Hbonds>
donor molecule, donor type, donor heavy atom, donor atom, acceptor molecule, acceptor atom, score
      L1  H     6    27       P1  7948  0.29
      P1  H  7997  8008       L1    18  0.17
      P1  H 10752 10763       L1     5  0.66

> <Gold.Chemscore.Hbond.Weighted>
-5.7778

> <Gold.Chemscore.Metal.Weighted>
-0.0000

> <Gold.Chemscore.Lipo.Weighted>
-10.8813

> <Gold.Chemscore.Internal_Hbond.Weighted>
0.0000

> <Gold.Chemscore.DEClash.Weighted>
0.2523

> <Gold.Chemscore.DEInternal.Weighted>
1.0468

> <Gold.Chemscore.Rot.Weighted>
4.3330

> <Gold.Chemscore.Internal.Correction.Weighted>
   9.000000E+99

> <Gold.Protein.RotatedTorsions>
[ 6907 6896 6895 6894 ] final   67.45 input  -60.11 | X-H torsion
[ 7974 7965 7964 7962 ] final  -33.69 input  175.53 | X-H torsion
[ 8008 7997 7996 7995 ] final  -60.24 input   59.86 | X-H torsion
[ 10167 10162 10161 10158 ] final   36.89 input  -65.29 | X-H torsion
[ 10718 10713 10712 10709 ] final   64.08 input   66.30 | X-H torsion
[ 10763 10752 10751 10750 ] final   72.02 input  -60.55 | X-H torsion
[ 11005 11000 10999 10996 ] final   38.89 input  -57.11 | X-H torsion

> <Gold.Protein.ActiveResidues>
 VAL166  LYS551  ARG553  GLY616  TRP617  ASP618  TYR619  PRO620  LYS621  CYS622 
 ASP623  PHE694  ASN695  SER759  ASP760  ASP761  ALA762  ILE779  LEU786  VAL792 
 PHE793  MET794  SER795  GLU796  ALA797  LYS798  CYS799  TRP800  GLU811  SER814 

> <Gold.Protein.RotatedAtoms>
  152.4553  134.5305  159.9809 H   0  0  0  0  0  0  0  0  0  0  0  0  # atno 6907 bound_to 6896
  151.5367  133.3434  159.2936 H   0  0  0  0  0  0  0  0  0  0  0  0  # atno 6908 bound_to 6896
  150.8495  134.7846  159.7060 H   0  0  0  0  0  0  0  0  0  0  0  0  # atno 6909 bound_to 6896
  146.0890  140.5947  142.8873 H   0  0  0  0  0  0  0  0  0  0  0  0  # atno 7974 bound_to 7965
  154.4389  140.1044  156.6242 H   0  0  0  0  0  0  0  0  0  0  0  0  # atno 8008 bound_to 7997
  155.5675  140.3488  155.4488 H   0  0  0  0  0  0  0  0  0  0  0  0  # atno 8009 bound_to 7997
  156.0414  140.1283  157.0140 H   0  0  0  0  0  0  0  0  0  0  0  0  # atno 8010 bound_to 7997
  140.4085  144.1625  150.6138 H   0  0  0  0  0  0  0  0  0  0  0  0  # atno 10167 bound_to 10162
  157.6015  130.9140  149.9799 H   0  0  0  0  0  0  0  0  0  0  0  0  # atno 10718 bound_to 10713
  153.0434  135.5115  154.7682 H   0  0  0  0  0  0  0  0  0  0  0  0  # atno 10763 bound_to 10752
  154.6601  135.2937  154.9879 H   0  0  0  0  0  0  0  0  0  0  0  0  # atno 10764 bound_to 10752
  154.0733  135.6674  153.4880 H   0  0  0  0  0  0  0  0  0  0  0  0  # atno 10765 bound_to 10752
  140.2081  134.3788  155.8062 H   0  0  0  0  0  0  0  0  0  0  0  0  # atno 11005 bound_to 11000
  144.7346  140.4772  143.6913 LP  0  0  0  0  0  0  0  0  0  0  0  0  # atno 17320 bound_to 7965
  145.6075  139.1510  143.3094 LP  0  0  0  0  0  0  0  0  0  0  0  0  # atno 17321 bound_to 7965
  140.4663  143.2429  151.9150 LP  0  0  0  0  0  0  0  0  0  0  0  0  # atno 17342 bound_to 10162
  139.4783  144.5415  151.8520 LP  0  0  0  0  0  0  0  0  0  0  0  0  # atno 17343 bound_to 10162
  156.1090  130.3651  150.0083 LP  0  0  0  0  0  0  0  0  0  0  0  0  # atno 17370 bound_to 10713
  156.8184  130.9350  151.3642 LP  0  0  0  0  0  0  0  0  0  0  0  0  # atno 17371 bound_to 10713
  141.2226  133.7129  156.8372 LP  0  0  0  0  0  0  0  0  0  0  0  0  # atno 17394 bound_to 11000
  140.1980  134.8917  157.3137 LP  0  0  0  0  0  0  0  0  0  0  0  0  # atno 17395 bound_to 11000

$$$$
