AV-unprocessed.smi:102|AV-procd|sdf|959|dock6
  -GOLD-   2262017503D 1   1.00000     0.00000
 Structure written by MMmdl.
 44 45  0  0  0  0  0  0  0  0  1 V2000
  152.2244  144.9180  159.1008 C   0  0  0  0  0  0  0  0  0  0  0  0
  152.2808  143.3988  159.1891 C   0  0  0  0  0  0  0  0  0  0  0  0
  153.3227  142.8066  159.4695 O   0  0  0  0  0  0  0  0  0  0  0  0
  151.0972  142.8317  158.9280 O   0  0  0  0  0  0  0  0  0  0  0  0
  150.9890  141.4213  158.8336 C   0  0  0  0  0  0  0  0  0  0  0  0
  152.0654  140.8456  157.8929 C   0  0  2  0  0  0  0  0  0  0  0  0
  151.6536  141.0586  156.5450 O   0  0  0  0  0  0  0  0  0  0  0  0
  151.6110  139.8541  155.8388 C   0  0  2  0  0  0  0  0  0  0  0  0
  150.3817  139.8355  154.9564 N   0  0  0  0  0  0  0  0  0  0  0  0
  149.4535  140.8697  154.9645 C   0  0  0  0  0  0  0  0  0  0  0  0
  148.3270  140.8518  154.2141 C   0  0  0  0  0  0  0  0  0  0  0  0
  147.4712  141.8855  154.2790 F   0  0  0  0  0  0  0  0  0  0  0  0
  148.0294  139.7178  153.3438 C   0  0  0  0  0  0  0  0  0  0  0  0
  147.0382  139.6124  152.6244 O   0  0  0  0  0  0  0  0  0  0  0  0
  148.9846  138.6973  153.3781 N   0  0  0  0  0  0  0  0  0  0  0  0
  150.1462  138.7002  154.1522 C   0  0  0  0  0  0  0  0  0  0  0  0
  150.9111  137.7372  154.1232 O   0  0  0  0  0  0  0  0  0  0  0  0
  151.6161  138.7064  156.8635 C   0  0  2  0  0  0  0  0  0  0  0  0
  150.2820  138.3308  157.2054 O   0  0  0  0  0  0  0  0  0  0  0  0
  150.0479  137.2964  158.0287 C   0  0  0  0  0  0  0  0  0  0  0  0
  148.5603  137.0248  158.2045 C   0  0  0  0  0  0  0  0  0  0  0  0
  150.8987  136.6193  158.6052 O   0  0  0  0  0  0  0  0  0  0  0  0
  152.3722  139.3428  158.0220 C   0  0  2  0  0  0  0  0  0  0  0  0
  152.0365  138.7593  159.2773 O   0  0  0  0  0  0  0  0  0  0  0  0
  152.9171  137.9747  159.9199 C   0  0  0  0  0  0  0  0  0  0  0  0
  152.2959  137.2682  161.1169 C   0  0  0  0  0  0  0  0  0  0  0  0
  154.1015  137.8194  159.6224 O   0  0  0  0  0  0  0  0  0  0  0  0
  148.8158  137.8879  152.7988 H   0  0  0  0  0  0  0  0  0  0  0  0
  151.6042  145.2288  158.2593 H   0  0  0  0  0  0  0  0  0  0  0  0
  153.2242  145.3299  158.9626 H   0  0  0  0  0  0  0  0  0  0  0  0
  151.8015  145.3329  160.0158 H   0  0  0  0  0  0  0  0  0  0  0  0
  151.0937  140.9742  159.8231 H   0  0  0  0  0  0  0  0  0  0  0  0
  149.9946  141.1622  158.4680 H   0  0  0  0  0  0  0  0  0  0  0  0
  152.9864  141.4052  158.0576 H   0  0  0  0  0  0  0  0  0  0  0  0
  152.4758  139.8336  155.1724 H   0  0  0  0  0  0  0  0  0  0  0  0
  149.6124  141.7304  155.5961 H   0  0  0  0  0  0  0  0  0  0  0  0
  152.1616  137.8621  156.4389 H   0  0  0  0  0  0  0  0  0  0  0  0
  148.1295  137.7327  158.9128 H   0  0  0  0  0  0  0  0  0  0  0  0
  148.3979  136.0148  158.5815 H   0  0  0  0  0  0  0  0  0  0  0  0
  148.0386  137.1255  157.2524 H   0  0  0  0  0  0  0  0  0  0  0  0
  153.4346  139.1948  157.8204 H   0  0  0  0  0  0  0  0  0  0  0  0
  151.4155  136.7038  160.8086 H   0  0  0  0  0  0  0  0  0  0  0  0
  151.9956  137.9961  161.8708 H   0  0  0  0  0  0  0  0  0  0  0  0
  153.0091  136.5775  161.5675 H   0  0  0  0  0  0  0  0  0  0  0  0
  1  2  1  0  0  0  0
  1 29  1  0  0  0  0
  1 30  1  0  0  0  0
  1 31  1  0  0  0  0
  2  3  2  0  0  0  0
  2  4  1  0  0  0  0
  4  5  1  0  0  0  0
  5  6  1  0  0  0  0
  5 32  1  0  0  0  0
  5 33  1  0  0  0  0
  6 23  1  0  0  0  0
  6  7  1  0  0  0  0
  6 34  1  0  0  0  0
  7  8  1  0  0  0  0
  8  9  1  0  0  0  0
  8 18  1  0  0  0  0
  8 35  1  0  0  0  0
  9 16  1  0  0  0  0
  9 10  1  0  0  0  0
 10 11  2  0  0  0  0
 10 36  1  0  0  0  0
 11 12  1  0  0  0  0
 11 13  1  0  0  0  0
 13 14  2  0  0  0  0
 13 15  1  0  0  0  0
 15 28  1  0  0  0  0
 15 16  1  0  0  0  0
 16 17  2  0  0  0  0
 18 19  1  0  0  0  0
 18 23  1  0  0  0  0
 18 37  1  0  0  0  0
 19 20  1  0  0  0  0
 20 21  1  0  0  0  0
 20 22  2  0  0  0  0
 21 38  1  0  0  0  0
 21 39  1  0  0  0  0
 21 40  1  0  0  0  0
 23 24  1  0  0  0  0
 23 41  1  0  0  0  0
 24 25  1  0  0  0  0
 25 26  1  0  0  0  0
 25 27  2  0  0  0  0
 26 42  1  0  0  0  0
 26 43  1  0  0  0  0
 26 44  1  0  0  0  0
M  END
> <s_m_source_file>
AV-unprocessed.smi

> <i_m_source_file_index>
102

> <i_lp_mmshare_version>
43012

> <i_f3d_flags>
0

> <s_epik_input>
W0NIM11DKD1PKU9bQ0gyXVtDQEBIXTFPW0NASF0oW0NAQEhdKE9DKD1PKVtDSDNdKVtDQEhdMU9DKD1PKVtDSDNdKW4yW2NIXWMoRiljKD1PKVtuSF1jMj1P

> <s_epik_cmdline>
J2VwaWtfcHl0aG9uJywgJy1waCcsICc3LjAnLCAnLXRuJywgJzgnLCAnLW1hJywgJzIwMCcsICctbWV0YWxfYmluZGluZycsICctaW1hZScsICc8aW5maWxlLm1hZT4nLCAnLW9tYWUnLCAnPG91dGZpbGUubWFlPic=

> <r_lp_tautomer_probability>
0.999537

> <r_epik_Ionization_Penalty>
0.058267

> <r_epik_Ionization_Penalty_Charging>
0.058267

> <r_epik_Ionization_Penalty_Neutral>
6.57791e-16

> <r_epik_State_Penalty>
0.0503774

> <r_epik_Charging_Adjusted_Penalty>
0.108644

> <i_epik_Tot_Q>
0

> <i_epik_Tot_abs_Q>
0

> <r_epik_Metal_State_Penalty>
2.6644

> <b_epik_Metal_Only>
0

> <s_epik_Chemistry_Notes>
This compound has an ester and may undergo hydrolysis at high or low pH. This compound contains an acetal/aminal-like group ( X-CH(R)-Y where X, Y are N, S, or O) that may be acid/base labile, releasing an aldehyde.

> <s_lp_Force_Field>
OPLS_2005

> <r_lp_Energy>
17.4488

> <b_lp_Chiralities_Consistent>
1

> <s_lp_Variant>
AV-unprocessed.smi:102-15

> <Gold.Version>
5.8.1

> <Gold.Id.Protein>
6NUR|6NUR_protein|mol2

> <Gold.PLP.Fitness>
43.2858

> <Gold.PLP.PLP>
-39.8678

> <Gold.PLP.part.hbond>
-3.0000

> <Gold.PLP.part.metal>
0.0000

> <Gold.PLP.part.buried>
-3.6567

> <Gold.PLP.part.nonpolar>
-33.7565

> <Gold.PLP.part.repulsive>
0.6142

> <Gold.PLP.ligand.clash>
0.0000

> <Gold.PLP.ligand.torsion>
1.0476

> <Gold.PLP.Chemscore.Hbond>
1.7680

> <Gold.PLP.Chemscore.CHOScore>
0.0000

> <Gold.PLP.Chemscore.Metal>
0.0000

> <Gold.Chemscore.Hbonds>
donor molecule, donor type, donor heavy atom, donor atom, acceptor molecule, acceptor atom, score
      L1  H    15    28       P1  7948  1.00
      P1  H  6896  6907       L1    22  0.85

> <Gold.PLP.Chemscore.Internal.Correction>
0.2092

> <Gold.Rescore>
     Score         DG    S(hbond)    S(metal)    S(lipo)     H(rot)  DE(clash)    DE(int)     intcor
      0.99      -8.22       1.89        0.00      58.13       4.05       0.53       6.70       ----

> <Gold.Chemscore.Fitness>
0.9939

> <Gold.Chemscore.DG>
-8.2177

> <Gold.Chemscore.ZeroCoef>
-5.4800

> <Gold.Chemscore.Hbond>
1.8892

> <Gold.Chemscore.Metal>
0.0000

> <Gold.Chemscore.Lipo>
58.1280

> <Gold.Chemscore.Internal_Hbond>
0.0000

> <Gold.Chemscore.DEClash>
0.5282

> <Gold.Chemscore.DEInternal>
6.6956

> <Gold.Chemscore.Rot>
4.0520

> <Gold.Chemscore.Internal.Correction>
   9.000000E+99

> <Gold.Chemscore.Hbonds>
donor molecule, donor type, donor heavy atom, donor atom, acceptor molecule, acceptor atom, score
      L1  H    15    28       P1  7948  1.00
      P1  H  6896  6907       L1    22  0.80

> <Gold.Chemscore.Hbond.Weighted>
-6.3099

> <Gold.Chemscore.Metal.Weighted>
-0.0000

> <Gold.Chemscore.Lipo.Weighted>
-6.8010

> <Gold.Chemscore.Internal_Hbond.Weighted>
0.0000

> <Gold.Chemscore.DEClash.Weighted>
0.5282

> <Gold.Chemscore.DEInternal.Weighted>
6.6956

> <Gold.Chemscore.Rot.Weighted>
10.3732

> <Gold.Chemscore.Internal.Correction.Weighted>
   9.000000E+99

> <Gold.Protein.RotatedTorsions>
[ 6907 6896 6895 6894 ] final  -15.73 input  -60.11 | X-H torsion
[ 7974 7965 7964 7962 ] final   -8.39 input  175.53 | X-H torsion
[ 8008 7997 7996 7995 ] final   33.22 input   59.86 | X-H torsion
[ 10167 10162 10161 10158 ] final  -74.73 input  -65.29 | X-H torsion
[ 10718 10713 10712 10709 ] final -168.12 input   66.30 | X-H torsion
[ 10763 10752 10751 10750 ] final  -84.26 input  -60.55 | X-H torsion
[ 11005 11000 10999 10996 ] final   -1.58 input  -57.11 | X-H torsion

> <Gold.Protein.ActiveResidues>
 VAL166  LYS551  ARG553  GLY616  TRP617  ASP618  TYR619  PRO620  LYS621  CYS622 
 ASP623  PHE694  ASN695  SER759  ASP760  ASP761  ALA762  ILE779  LEU786  VAL792 
 PHE793  MET794  SER795  GLU796  ALA797  LYS798  CYS799  TRP800  GLU811  SER814 

> <Gold.Protein.RotatedAtoms>
  151.3195  135.0815  159.9300 H   0  0  0  0  0  0  0  0  0  0  0  0  # atno 6907 bound_to 6896
  152.5260  133.9653  159.7747 H   0  0  0  0  0  0  0  0  0  0  0  0  # atno 6908 bound_to 6896
  150.9972  133.6039  159.2730 H   0  0  0  0  0  0  0  0  0  0  0  0  # atno 6909 bound_to 6896
  146.2282  140.2461  142.8345 H   0  0  0  0  0  0  0  0  0  0  0  0  # atno 7974 bound_to 7965
  155.1351  140.3261  155.4465 H   0  0  0  0  0  0  0  0  0  0  0  0  # atno 8008 bound_to 7997
  156.2622  140.2003  156.6418 H   0  0  0  0  0  0  0  0  0  0  0  0  # atno 8009 bound_to 7997
  154.6583  140.0550  157.0021 H   0  0  0  0  0  0  0  0  0  0  0  0  # atno 8010 bound_to 7997
  140.5002  143.2362  151.7764 H   0  0  0  0  0  0  0  0  0  0  0  0  # atno 10167 bound_to 10162
  156.6923  130.9164  151.3070 H   0  0  0  0  0  0  0  0  0  0  0  0  # atno 10718 bound_to 10713
  154.5974  135.5527  153.7339 H   0  0  0  0  0  0  0  0  0  0  0  0  # atno 10763 bound_to 10752
  153.0140  135.6358  154.1763 H   0  0  0  0  0  0  0  0  0  0  0  0  # atno 10764 bound_to 10752
  154.1704  135.2892  155.3063 H   0  0  0  0  0  0  0  0  0  0  0  0  # atno 10765 bound_to 10752
  140.6489  133.9422  155.8369 H   0  0  0  0  0  0  0  0  0  0  0  0  # atno 11005 bound_to 11000
  144.9448  140.8116  143.5608 LP  0  0  0  0  0  0  0  0  0  0  0  0  # atno 17320 bound_to 7965
  145.2415  139.2070  143.4990 LP  0  0  0  0  0  0  0  0  0  0  0  0  # atno 17321 bound_to 7965
  139.4870  144.4532  151.9629 LP  0  0  0  0  0  0  0  0  0  0  0  0  # atno 17342 bound_to 10162
  140.3621  144.2960  150.5932 LP  0  0  0  0  0  0  0  0  0  0  0  0  # atno 17343 bound_to 10162
  157.7004  130.9327  150.0769 LP  0  0  0  0  0  0  0  0  0  0  0  0  # atno 17370 bound_to 10713
  156.1788  130.3649  149.9063 LP  0  0  0  0  0  0  0  0  0  0  0  0  # atno 17371 bound_to 10713
  141.0551  134.0428  157.3733 LP  0  0  0  0  0  0  0  0  0  0  0  0  # atno 17394 bound_to 11000
  139.9053  135.0177  156.7456 LP  0  0  0  0  0  0  0  0  0  0  0  0  # atno 17395 bound_to 11000

$$$$
