AV-unprocessed.smi:2836|AV-procd|sdf|10919|dock1
  -GOLD-   2272015363D 1   1.00000     0.00000
 Structure written by MMmdl.
 30 31  0  0  0  0  0  0  0  0  1 V2000
  146.1869  140.9445  153.6505 N   0  0  0  0  0  0  0  0  0  0  0  0
  147.2502  140.2710  153.2023 C   0  0  0  0  0  0  0  0  0  0  0  0
  147.1836  139.4489  152.2913 O   0  0  0  0  0  0  0  0  0  0  0  0
  148.5380  140.5308  153.9197 C   0  0  0  0  0  0  0  0  0  0  0  0
  149.7611  139.8349  153.7318 C   0  0  0  0  0  0  0  0  0  0  0  0
  150.7130  140.3369  154.5047 N   0  0  0  0  0  0  0  0  0  0  0  0
  150.1232  141.3606  155.1736 N   0  0  0  0  0  0  0  0  0  0  0  0
  150.9025  142.1530  156.1067 C   0  0  0  0  0  0  0  0  0  0  0  0
  150.3655  142.0468  157.5412 C   0  0  0  0  0  0  0  0  0  0  0  0
  151.2316  142.7534  158.4189 O   0  0  0  0  0  0  0  0  0  0  0  0
  152.1772  142.0438  159.1279 C   0  0  0  0  0  0  0  0  0  0  0  0
  152.7319  140.8130  158.6937 C   0  0  0  0  0  0  0  0  0  0  0  0
  153.6985  140.1506  159.4749 C   0  0  0  0  0  0  0  0  0  0  0  0
  154.1219  140.7060  160.6959 C   0  0  0  0  0  0  0  0  0  0  0  0
  155.0518  140.0682  161.4453 F   0  0  0  0  0  0  0  0  0  0  0  0
  153.5769  141.9259  161.1363 C   0  0  0  0  0  0  0  0  0  0  0  0
  152.6103  142.5907  160.3566 C   0  0  0  0  0  0  0  0  0  0  0  0
  151.9538  144.0859  160.9205 Cl  0  0  0  0  0  0  0  0  0  0  0  0
  148.7934  141.5115  154.8328 C   0  0  0  0  0  0  0  0  0  0  0  0
  145.2880  140.8091  153.2112 H   0  0  0  0  0  0  0  0  0  0  0  0
  146.2830  141.5814  154.4277 H   0  0  0  0  0  0  0  0  0  0  0  0
  149.9848  139.0031  153.0801 H   0  0  0  0  0  0  0  0  0  0  0  0
  151.9385  141.8147  156.0667 H   0  0  0  0  0  0  0  0  0  0  0  0
  150.8981  143.1934  155.7781 H   0  0  0  0  0  0  0  0  0  0  0  0
  149.3588  142.4657  157.5868 H   0  0  0  0  0  0  0  0  0  0  0  0
  150.3084  140.9964  157.8299 H   0  0  0  0  0  0  0  0  0  0  0  0
  152.4345  140.3564  157.7622 H   0  0  0  0  0  0  0  0  0  0  0  0
  154.1165  139.2144  159.1352 H   0  0  0  0  0  0  0  0  0  0  0  0
  153.9016  142.3525  162.0740 H   0  0  0  0  0  0  0  0  0  0  0  0
  148.1680  142.2832  155.2570 H   0  0  0  0  0  0  0  0  0  0  0  0
  1  2  1  0  0  0  0
  1 20  1  0  0  0  0
  1 21  1  0  0  0  0
  2  3  2  0  0  0  0
  2  4  1  0  0  0  0
  4 19  2  0  0  0  0
  4  5  1  0  0  0  0
  5  6  2  0  0  0  0
  5 22  1  0  0  0  0
  6  7  1  0  0  0  0
  7  8  1  0  0  0  0
  7 19  1  0  0  0  0
  8  9  1  0  0  0  0
  8 23  1  0  0  0  0
  8 24  1  0  0  0  0
  9 10  1  0  0  0  0
  9 25  1  0  0  0  0
  9 26  1  0  0  0  0
 10 11  1  0  0  0  0
 11 17  1  0  0  0  0
 11 12  2  0  0  0  0
 12 13  1  0  0  0  0
 12 27  1  0  0  0  0
 13 14  2  0  0  0  0
 13 28  1  0  0  0  0
 14 15  1  0  0  0  0
 14 16  1  0  0  0  0
 16 17  2  0  0  0  0
 16 29  1  0  0  0  0
 17 18  1  0  0  0  0
 19 30  1  0  0  0  0
M  END
> <s_m_source_file>
AV-unprocessed.smi

> <i_m_source_file_index>
2836

> <i_lp_mmshare_version>
43012

> <i_f3d_flags>
0

> <s_epik_input>
W05IMl1DKD1PKWMxW2NIXW5uKFtjSF0xKVtDSDJdW0NIMl1PYzJbY0hdW2NIXWMoRilbY0hdYzJDbA==

> <s_epik_cmdline>
J2VwaWtfcHl0aG9uJywgJy1waCcsICc3LjAnLCAnLXRuJywgJzgnLCAnLW1hJywgJzIwMCcsICctbWV0YWxfYmluZGluZycsICctaW1hZScsICc8aW5maWxlLm1hZT4nLCAnLW9tYWUnLCAnPG91dGZpbGUubWFlPic=

> <r_lp_tautomer_probability>
1

> <r_epik_Ionization_Penalty>
2.53738e-06

> <r_epik_Ionization_Penalty_Charging>
0

> <r_epik_Ionization_Penalty_Neutral>
2.53738e-06

> <r_epik_State_Penalty>
-0

> <r_epik_Charging_Adjusted_Penalty>
0

> <i_epik_Tot_Q>
0

> <i_epik_Tot_abs_Q>
0

> <r_epik_Metal_State_Penalty>
-0

> <b_epik_Metal_Only>
0

> <s_lp_Force_Field>
OPLS_2005

> <r_lp_Energy>
11.0812

> <b_lp_Chiralities_Consistent>
1

> <s_lp_Variant>
AV-unprocessed.smi:2836-1

> <Gold.Version>
5.8.1

> <Gold.Id.Protein>
6NUR|6NUR_protein|mol2

> <Gold.PLP.Fitness>
51.0205

> <Gold.PLP.PLP>
-42.9871

> <Gold.PLP.part.hbond>
-2.0000

> <Gold.PLP.part.metal>
0.0000

> <Gold.PLP.part.buried>
-3.4919

> <Gold.PLP.part.nonpolar>
-37.4535

> <Gold.PLP.part.repulsive>
1.0007

> <Gold.PLP.ligand.clash>
0.0000

> <Gold.PLP.ligand.torsion>
0.6731

> <Gold.PLP.Chemscore.Hbond>
2.0000

> <Gold.PLP.Chemscore.CHOScore>
1.0913

> <Gold.PLP.Chemscore.Metal>
0.0000

> <Gold.Chemscore.Hbonds>
donor molecule, donor type, donor heavy atom, donor atom, acceptor molecule, acceptor atom, score
      L1  H     1    20       P1 10175  1.00
      P1  H  7989  7998       L1     6  0.83
      L1  C     5    22       P1  7957  0.36
      L1  C    19    30       P1  8028  0.86

> <Gold.PLP.Chemscore.Internal.Correction>
0.1058

> <Gold.Rescore>
     Score         DG    S(hbond)    S(metal)    S(lipo)     H(rot)  DE(clash)    DE(int)     intcor
     16.38     -17.32       1.29        0.00     105.59       1.89       0.31       0.62       ----

> <Gold.Chemscore.Fitness>
16.3840

> <Gold.Chemscore.DG>
-17.3180

> <Gold.Chemscore.ZeroCoef>
-5.4800

> <Gold.Chemscore.Hbond>
1.2910

> <Gold.Chemscore.Metal>
0.0000

> <Gold.Chemscore.Lipo>
105.5869

> <Gold.Chemscore.Internal_Hbond>
0.0000

> <Gold.Chemscore.DEClash>
0.3100

> <Gold.Chemscore.DEInternal>
0.6240

> <Gold.Chemscore.Rot>
1.8857

> <Gold.Chemscore.Internal.Correction>
   9.000000E+99

> <Gold.Chemscore.Hbonds>
donor molecule, donor type, donor heavy atom, donor atom, acceptor molecule, acceptor atom, score
      L1  H     1    20       P1 10175  0.70
      P1  H  7989  7998       L1     6  0.17

> <Gold.Chemscore.Hbond.Weighted>
-4.3118

> <Gold.Chemscore.Metal.Weighted>
-0.0000

> <Gold.Chemscore.Lipo.Weighted>
-12.3537

> <Gold.Chemscore.Internal_Hbond.Weighted>
0.0000

> <Gold.Chemscore.DEClash.Weighted>
0.3100

> <Gold.Chemscore.DEInternal.Weighted>
0.6240

> <Gold.Chemscore.Rot.Weighted>
4.8275

> <Gold.Chemscore.Internal.Correction.Weighted>
   9.000000E+99

> <Gold.Protein.RotatedTorsions>
[ 6907 6896 6895 6894 ] final  111.34 input  -60.11 | X-H torsion
[ 7974 7965 7964 7962 ] final -131.39 input  175.53 | X-H torsion
[ 8008 7997 7996 7995 ] final   16.23 input   59.86 | X-H torsion
[ 10167 10162 10161 10158 ] final  156.01 input  -65.29 | X-H torsion
[ 10718 10713 10712 10709 ] final  162.67 input   66.30 | X-H torsion
[ 10763 10752 10751 10750 ] final  -89.67 input  -60.55 | X-H torsion
[ 11005 11000 10999 10996 ] final   56.01 input  -57.11 | X-H torsion

> <Gold.Protein.ActiveResidues>
 VAL166  LYS551  ARG553  GLY616  TRP617  ASP618  TYR619  PRO620  LYS621  CYS622 
 ASP623  PHE694  ASN695  SER759  ASP760  ASP761  ALA762  ILE779  LEU786  VAL792 
 PHE793  MET794  SER795  GLU796  ALA797  LYS798  CYS799  TRP800  GLU811  SER814 

> <Gold.Protein.RotatedAtoms>
  152.4974  133.8672  159.7279 H   0  0  0  0  0  0  0  0  0  0  0  0  # atno 6907 bound_to 6896
  150.9168  133.6920  159.2848 H   0  0  0  0  0  0  0  0  0  0  0  0  # atno 6908 bound_to 6896
  151.4311  135.1014  159.9695 H   0  0  0  0  0  0  0  0  0  0  0  0  # atno 6909 bound_to 6896
  144.9384  140.7210  143.4862 H   0  0  0  0  0  0  0  0  0  0  0  0  # atno 7974 bound_to 7965
  154.8740  140.2963  155.5464 H   0  0  0  0  0  0  0  0  0  0  0  0  # atno 8008 bound_to 7997
  156.3022  140.2455  156.3667 H   0  0  0  0  0  0  0  0  0  0  0  0  # atno 8009 bound_to 7997
  154.8787  140.0398  157.1758 H   0  0  0  0  0  0  0  0  0  0  0  0  # atno 8010 bound_to 7997
  139.4821  144.5047  151.8115 H   0  0  0  0  0  0  0  0  0  0  0  0  # atno 10167 bound_to 10162
  157.1193  131.0488  151.2422 H   0  0  0  0  0  0  0  0  0  0  0  0  # atno 10718 bound_to 10713
  154.6577  135.5332  153.7979 H   0  0  0  0  0  0  0  0  0  0  0  0  # atno 10763 bound_to 10752
  153.0423  135.6498  154.0920 H   0  0  0  0  0  0  0  0  0  0  0  0  # atno 10764 bound_to 10752
  154.0832  135.2945  155.3266 H   0  0  0  0  0  0  0  0  0  0  0  0  # atno 10765 bound_to 10752
  140.0562  134.5667  155.9205 H   0  0  0  0  0  0  0  0  0  0  0  0  # atno 11005 bound_to 11000
  145.3030  139.1844  143.4679 LP  0  0  0  0  0  0  0  0  0  0  0  0  # atno 17320 bound_to 7965
  146.3276  140.3024  142.8621 LP  0  0  0  0  0  0  0  0  0  0  0  0  # atno 17321 bound_to 7965
  140.4544  144.1810  150.5900 LP  0  0  0  0  0  0  0  0  0  0  0  0  # atno 17342 bound_to 10162
  140.4551  143.2471  151.9296 LP  0  0  0  0  0  0  0  0  0  0  0  0  # atno 17343 bound_to 10162
  157.4491  130.7588  149.7135 LP  0  0  0  0  0  0  0  0  0  0  0  0  # atno 17370 bound_to 10713
  155.9832  130.4002  150.3375 LP  0  0  0  0  0  0  0  0  0  0  0  0  # atno 17371 bound_to 10713
  141.1953  133.6586  156.5636 LP  0  0  0  0  0  0  0  0  0  0  0  0  # atno 17394 bound_to 11000
  140.3840  134.7498  157.4679 LP  0  0  0  0  0  0  0  0  0  0  0  0  # atno 17395 bound_to 11000

$$$$
