AV-unprocessed.smi:694|AV-procd|sdf|3380|dock1
  -GOLD-   22720 0363D 1   1.00000     0.00000
 Structure written by MMmdl.
 42 43  0  0  0  0  0  0  0  0  1 V2000
  147.5021  127.7994  152.6956 C   0  0  0  0  0  0  0  0  0  0  0  0
  146.6631  128.9682  152.4496 N   0  0  0  0  0  0  0  0  0  0  0  0
  145.2657  128.7916  152.0759 C   0  0  0  0  0  0  0  0  0  0  0  0
  147.1791  130.2641  152.6803 C   0  0  0  0  0  0  0  0  0  0  0  0
  146.5105  131.4213  152.2103 C   0  0  0  0  0  0  0  0  0  0  0  0
  147.0640  132.6888  152.4720 C   0  0  0  0  0  0  0  0  0  0  0  0
  148.2656  132.7824  153.1996 C   0  0  0  0  0  0  0  0  0  0  0  0
  148.7997  134.0788  153.4357 N   0  0  0  0  0  0  0  0  0  0  0  0
  149.4677  134.5336  154.5099 C   0  0  0  0  0  0  0  0  0  0  0  0
  149.7382  133.8775  155.5150 O   0  0  0  0  0  0  0  0  0  0  0  0
  149.7983  135.8242  154.3617 N   0  0  0  0  0  0  0  0  0  0  0  0
  150.5166  136.6241  155.3484 C   0  0  0  0  0  0  0  0  0  0  0  0
  150.8097  138.0514  154.8425 C   0  0  2  0  0  0  0  0  0  0  0  0
  151.7143  138.8747  155.7738 C   0  0  0  0  0  0  0  0  0  0  0  0
  151.3165  140.3465  155.5771 C   0  0  0  0  0  0  0  0  0  0  0  0
  150.1106  140.3464  154.6303 C   0  0  0  0  0  0  0  0  0  0  0  0
  149.5583  138.9219  154.6925 C   0  0  1  0  0  0  0  0  0  0  0  0
  148.8200  138.6057  153.5304 O   0  0  0  0  0  0  0  0  0  0  0  0
  148.8712  131.5739  153.6171 C   0  0  0  0  0  0  0  0  0  0  0  0
  148.3437  130.3569  153.3673 N   0  0  0  0  0  0  0  0  0  0  0  0
  147.8038  127.7590  153.7428 H   0  0  0  0  0  0  0  0  0  0  0  0
  148.3996  127.8336  152.0770 H   0  0  0  0  0  0  0  0  0  0  0  0
  146.9743  126.8743  152.4640 H   0  0  0  0  0  0  0  0  0  0  0  0
  145.0598  129.2784  151.1224 H   0  0  0  0  0  0  0  0  0  0  0  0
  144.6083  129.2161  152.8350 H   0  0  0  0  0  0  0  0  0  0  0  0
  145.0135  127.7365  151.9708 H   0  0  0  0  0  0  0  0  0  0  0  0
  145.5865  131.3634  151.6554 H   0  0  0  0  0  0  0  0  0  0  0  0
  146.5648  133.5791  152.1181 H   0  0  0  0  0  0  0  0  0  0  0  0
  148.6047  134.7606  152.7173 H   0  0  0  0  0  0  0  0  0  0  0  0
  149.5327  136.2885  153.5055 H   0  0  0  0  0  0  0  0  0  0  0  0
  149.9459  136.6610  156.2779 H   0  0  0  0  0  0  0  0  0  0  0  0
  151.4498  136.1112  155.5823 H   0  0  0  0  0  0  0  0  0  0  0  0
  151.3000  137.9950  153.8686 H   0  0  0  0  0  0  0  0  0  0  0  0
  151.5456  138.5931  156.8142 H   0  0  0  0  0  0  0  0  0  0  0  0
  152.7702  138.7044  155.5603 H   0  0  0  0  0  0  0  0  0  0  0  0
  151.0484  140.7910  156.5363 H   0  0  0  0  0  0  0  0  0  0  0  0
  152.1368  140.9345  155.1641 H   0  0  0  0  0  0  0  0  0  0  0  0
  149.3655  141.0963  154.8978 H   0  0  0  0  0  0  0  0  0  0  0  0
  150.4527  140.5695  153.6184 H   0  0  0  0  0  0  0  0  0  0  0  0
  148.9184  138.8148  155.5697 H   0  0  0  0  0  0  0  0  0  0  0  0
  149.0803  137.7476  153.2325 H   0  0  0  0  0  0  0  0  0  0  0  0
  149.8088  131.5526  154.1489 H   0  0  0  0  0  0  0  0  0  0  0  0
  1  2  1  0  0  0  0
  1 21  1  0  0  0  0
  1 22  1  0  0  0  0
  1 23  1  0  0  0  0
  2  3  1  0  0  0  0
  2  4  1  0  0  0  0
  3 24  1  0  0  0  0
  3 25  1  0  0  0  0
  3 26  1  0  0  0  0
  4 20  1  0  0  0  0
  4  5  2  0  0  0  0
  5  6  1  0  0  0  0
  5 27  1  0  0  0  0
  6  7  2  0  0  0  0
  6 28  1  0  0  0  0
  7  8  1  0  0  0  0
  7 19  1  0  0  0  0
  8  9  1  0  0  0  0
  8 29  1  0  0  0  0
  9 10  2  0  0  0  0
  9 11  1  0  0  0  0
 11 12  1  0  0  0  0
 11 30  1  0  0  0  0
 12 13  1  0  0  0  0
 12 31  1  0  0  0  0
 12 32  1  0  0  0  0
 13 17  1  0  0  0  0
 13 14  1  0  0  0  0
 13 33  1  0  0  0  0
 14 15  1  0  0  0  0
 14 34  1  0  0  0  0
 14 35  1  0  0  0  0
 15 16  1  0  0  0  0
 15 36  1  0  0  0  0
 15 37  1  0  0  0  0
 16 17  1  0  0  0  0
 16 38  1  0  0  0  0
 16 39  1  0  0  0  0
 17 18  1  0  0  0  0
 17 40  1  0  0  0  0
 18 41  1  0  0  0  0
 19 20  2  0  0  0  0
 19 42  1  0  0  0  0
M  END
> <s_m_source_file>
AV-unprocessed.smi

> <i_m_source_file_index>
694

> <i_lp_mmshare_version>
43012

> <i_f3d_flags>
0

> <s_epik_input>
W0NIM11OKFtDSDNdKWMxW2NIXVtjSF1jKFtjSF1uMSlbTkhdQyg9TylbTkhdW0NIMl1bQ0BASF0yW0NIMl1bQ0gyXVtDSDJdW0NASF0yW09IXQ==

> <s_epik_cmdline>
J2VwaWtfcHl0aG9uJywgJy1waCcsICc3LjAnLCAnLXRuJywgJzgnLCAnLW1hJywgJzIwMCcsICctbWV0YWxfYmluZGluZycsICctaW1hZScsICc8aW5maWxlLm1hZT4nLCAnLW9tYWUnLCAnPG91dGZpbGUubWFlPic=

> <r_lp_tautomer_probability>
1

> <r_epik_Ionization_Penalty>
0.60335

> <r_epik_Ionization_Penalty_Charging>
0

> <r_epik_Ionization_Penalty_Neutral>
0.60335

> <r_epik_State_Penalty>
0.616805

> <r_epik_Charging_Adjusted_Penalty>
0.616805

> <i_epik_Tot_Q>
0

> <i_epik_Tot_abs_Q>
0

> <r_epik_Metal_State_Penalty>
0.301709

> <b_epik_Metal_Only>
0

> <s_lp_Force_Field>
OPLS_2005

> <r_lp_Energy>
26.6001

> <b_lp_Chiralities_Consistent>
1

> <s_lp_Variant>
AV-unprocessed.smi:694-5

> <Gold.Version>
5.8.1

> <Gold.Id.Protein>
6NUR|6NUR_protein|mol2

> <Gold.PLP.Fitness>
43.7691

> <Gold.PLP.PLP>
-35.5282

> <Gold.PLP.part.hbond>
-4.0390

> <Gold.PLP.part.metal>
0.0000

> <Gold.PLP.part.buried>
1.6807

> <Gold.PLP.part.nonpolar>
-31.8489

> <Gold.PLP.part.repulsive>
0.1603

> <Gold.PLP.ligand.clash>
0.0000

> <Gold.PLP.ligand.torsion>
0.3931

> <Gold.PLP.Chemscore.Hbond>
2.9920

> <Gold.PLP.Chemscore.CHOScore>
0.0000

> <Gold.PLP.Chemscore.Metal>
0.0000

> <Gold.Chemscore.Hbonds>
donor molecule, donor type, donor heavy atom, donor atom, acceptor molecule, acceptor atom, score
      L1  H     8    29       P1  7948  0.90
      L1  H    11    30       P1  7948  1.00
      L1  H    18    41       P1  7948  1.00

> <Gold.PLP.Chemscore.Internal.Correction>
0.0510

> <Gold.Rescore>
     Score         DG    S(hbond)    S(metal)    S(lipo)     H(rot)  DE(clash)    DE(int)     intcor
     16.39     -17.62       2.27        0.00      76.72       1.73       0.18       1.04       ----

> <Gold.Chemscore.Fitness>
16.3948

> <Gold.Chemscore.DG>
-17.6174

> <Gold.Chemscore.ZeroCoef>
-5.4800

> <Gold.Chemscore.Hbond>
2.2694

> <Gold.Chemscore.Metal>
0.0000

> <Gold.Chemscore.Lipo>
76.7187

> <Gold.Chemscore.Internal_Hbond>
0.0000

> <Gold.Chemscore.DEClash>
0.1805

> <Gold.Chemscore.DEInternal>
1.0420

> <Gold.Chemscore.Rot>
1.7259

> <Gold.Chemscore.Internal.Correction>
   9.000000E+99

> <Gold.Chemscore.Hbonds>
donor molecule, donor type, donor heavy atom, donor atom, acceptor molecule, acceptor atom, score
      L1  H     8    29       P1  7948  0.17
      L1  H    11    30       P1  7948  0.52
      L1  H    18    41       P1  7948  0.88

> <Gold.Chemscore.Hbond.Weighted>
-7.5796

> <Gold.Chemscore.Metal.Weighted>
-0.0000

> <Gold.Chemscore.Lipo.Weighted>
-8.9761

> <Gold.Chemscore.Internal_Hbond.Weighted>
0.0000

> <Gold.Chemscore.DEClash.Weighted>
0.1805

> <Gold.Chemscore.DEInternal.Weighted>
1.0420

> <Gold.Chemscore.Rot.Weighted>
4.4184

> <Gold.Chemscore.Internal.Correction.Weighted>
   9.000000E+99

> <Gold.Protein.RotatedTorsions>
[ 6907 6896 6895 6894 ] final -161.97 input  -60.11 | X-H torsion
[ 7974 7965 7964 7962 ] final  -11.69 input  175.53 | X-H torsion
[ 8008 7997 7996 7995 ] final -128.03 input   59.86 | X-H torsion
[ 10167 10162 10161 10158 ] final  -17.36 input  -65.29 | X-H torsion
[ 10718 10713 10712 10709 ] final   55.10 input   66.30 | X-H torsion
[ 10763 10752 10751 10750 ] final   -4.66 input  -60.55 | X-H torsion
[ 11005 11000 10999 10996 ] final  -51.34 input  -57.11 | X-H torsion

> <Gold.Protein.ActiveResidues>
 VAL166  LYS551  ARG553  GLY616  TRP617  ASP618  TYR619  PRO620  LYS621  CYS622 
 ASP623  PHE694  ASN695  SER759  ASP760  ASP761  ALA762  ILE779  LEU786  VAL792 
 PHE793  MET794  SER795  GLU796  ALA797  LYS798  CYS799  TRP800  GLU811  SER814 

> <Gold.Protein.RotatedAtoms>
  151.3730  133.3848  159.2701 H   0  0  0  0  0  0  0  0  0  0  0  0  # atno 6907 bound_to 6896
  150.9636  134.9021  159.7756 H   0  0  0  0  0  0  0  0  0  0  0  0  # atno 6908 bound_to 6896
  152.5159  134.3690  159.9363 H   0  0  0  0  0  0  0  0  0  0  0  0  # atno 6909 bound_to 6896
  146.2178  140.2948  142.8371 H   0  0  0  0  0  0  0  0  0  0  0  0  # atno 7974 bound_to 7965
  155.2560  140.0434  157.2992 H   0  0  0  0  0  0  0  0  0  0  0  0  # atno 8008 bound_to 7997
  154.5740  140.2382  155.8119 H   0  0  0  0  0  0  0  0  0  0  0  0  # atno 8009 bound_to 7997
  156.2144  140.2989  155.9813 H   0  0  0  0  0  0  0  0  0  0  0  0  # atno 8010 bound_to 7997
  140.7246  143.5023  150.9854 H   0  0  0  0  0  0  0  0  0  0  0  0  # atno 10167 bound_to 10162
  157.5315  130.8634  149.8694 H   0  0  0  0  0  0  0  0  0  0  0  0  # atno 10718 bound_to 10713
  153.3879  135.7001  153.6516 H   0  0  0  0  0  0  0  0  0  0  0  0  # atno 10763 bound_to 10752
  153.5101  135.3634  155.2583 H   0  0  0  0  0  0  0  0  0  0  0  0  # atno 10764 bound_to 10752
  154.8699  135.4133  154.3190 H   0  0  0  0  0  0  0  0  0  0  0  0  # atno 10765 bound_to 10752
  141.0866  133.6641  156.3863 H   0  0  0  0  0  0  0  0  0  0  0  0  # atno 11005 bound_to 11000
  144.9100  140.7746  143.5813 LP  0  0  0  0  0  0  0  0  0  0  0  0  # atno 17320 bound_to 7965
  145.2878  139.1894  143.4756 LP  0  0  0  0  0  0  0  0  0  0  0  0  # atno 17321 bound_to 7965
  139.8733  143.7165  152.3164 LP  0  0  0  0  0  0  0  0  0  0  0  0  # atno 17342 bound_to 10162
  139.7421  144.7556  151.0636 LP  0  0  0  0  0  0  0  0  0  0  0  0  # atno 17343 bound_to 10162
  156.0426  130.3735  150.1397 LP  0  0  0  0  0  0  0  0  0  0  0  0  # atno 17370 bound_to 10713
  156.9581  130.9796  151.3484 LP  0  0  0  0  0  0  0  0  0  0  0  0  # atno 17371 bound_to 10713
  140.5349  134.6176  157.5362 LP  0  0  0  0  0  0  0  0  0  0  0  0  # atno 17394 bound_to 11000
  139.9685  134.7333  156.0090 LP  0  0  0  0  0  0  0  0  0  0  0  0  # atno 17395 bound_to 11000

$$$$
