AV-unprocessed.smi:2241|AV-procd|sdf|9058|dock2
  -GOLD-   2272012263D 1   1.00000     0.00000
 Structure written by MMmdl.
 45 47  0  0  0  0  0  0  0  0  1 V2000
  152.1718  145.2076  158.9454 C   0  0  0  0  0  0  0  0  0  0  0  0
  152.1120  143.6938  158.9304 C   0  0  0  0  0  0  0  0  0  0  0  0
  152.7335  142.9493  159.9520 C   0  0  0  0  0  0  0  0  0  0  0  0
  152.6733  141.5441  159.9322 C   0  0  0  0  0  0  0  0  0  0  0  0
  151.9926  140.8788  158.8942 C   0  0  0  0  0  0  0  0  0  0  0  0
  151.9347  139.1523  158.8954 Cl  0  0  0  0  0  0  0  0  0  0  0  0
  151.3619  141.6104  157.8634 C   0  0  0  0  0  0  0  0  0  0  0  0
  150.7131  140.8910  156.8810 O   0  0  0  0  0  0  0  0  0  0  0  0
  150.2810  141.5759  155.7135 C   0  0  0  0  0  0  0  0  0  0  0  0
  149.5201  140.5849  154.8144 C   0  0  2  0  0  0  0  0  0  0  0  0
  149.7695  140.9296  153.4675 O   0  0  0  0  0  0  0  0  0  0  0  0
  147.9865  140.6096  155.0146 C   0  0  0  0  0  0  0  0  0  0  0  0
  147.2946  139.5084  154.3211 N   0  0  0  0  0  0  0  0  0  0  0  0
  147.1089  139.6503  152.9316 C   0  0  0  0  0  0  0  0  0  0  0  0
  146.5044  138.7469  152.2280 N   0  0  0  0  0  0  0  0  0  0  0  0
  146.0204  137.5897  152.8488 C   0  0  0  0  0  0  0  0  0  0  0  0
  145.2824  136.5799  151.9806 C   0  0  0  0  0  0  0  0  0  0  0  0
  143.8894  136.1502  152.4721 C   0  0  0  0  0  0  0  0  0  0  0  0
  144.2319  134.7325  152.0005 C   0  0  0  0  0  0  0  0  0  0  0  0
  145.7096  135.1124  152.1472 C   0  0  0  0  0  0  0  0  0  0  0  0
  146.1832  137.4032  154.1803 C   0  0  0  0  0  0  0  0  0  0  0  0
  146.8722  138.4009  154.9985 C   0  0  0  0  0  0  0  0  0  0  0  0
  147.0535  138.2549  156.2074 O   0  0  0  0  0  0  0  0  0  0  0  0
  151.4282  143.0274  157.8929 C   0  0  0  0  0  0  0  0  0  0  0  0
  152.9779  145.5645  159.5874 H   0  0  0  0  0  0  0  0  0  0  0  0
  151.2316  145.6174  159.3150 H   0  0  0  0  0  0  0  0  0  0  0  0
  152.3445  145.5950  157.9409 H   0  0  0  0  0  0  0  0  0  0  0  0
  153.2571  143.4514  160.7523 H   0  0  0  0  0  0  0  0  0  0  0  0
  153.1509  140.9754  160.7165 H   0  0  0  0  0  0  0  0  0  0  0  0
  149.6143  142.3786  156.0279 H   0  0  0  0  0  0  0  0  0  0  0  0
  151.1165  142.0263  155.1746 H   0  0  0  0  0  0  0  0  0  0  0  0
  149.8958  139.5749  154.9809 H   0  0  0  0  0  0  0  0  0  0  0  0
  149.4975  140.2085  152.9202 H   0  0  0  0  0  0  0  0  0  0  0  0
  147.7589  140.6194  156.0826 H   0  0  0  0  0  0  0  0  0  0  0  0
  147.5871  141.5547  154.6409 H   0  0  0  0  0  0  0  0  0  0  0  0
  147.5011  140.5706  152.4955 H   0  0  0  0  0  0  0  0  0  0  0  0
  145.2679  136.8824  150.9320 H   0  0  0  0  0  0  0  0  0  0  0  0
  143.7694  136.2079  153.5557 H   0  0  0  0  0  0  0  0  0  0  0  0
  143.0557  136.6181  151.9481 H   0  0  0  0  0  0  0  0  0  0  0  0
  143.8963  133.9351  152.6646 H   0  0  0  0  0  0  0  0  0  0  0  0
  143.9422  134.5480  150.9647 H   0  0  0  0  0  0  0  0  0  0  0  0
  146.3599  134.7331  151.3583 H   0  0  0  0  0  0  0  0  0  0  0  0
  146.1016  134.8824  153.1401 H   0  0  0  0  0  0  0  0  0  0  0  0
  145.8008  136.5105  154.6536 H   0  0  0  0  0  0  0  0  0  0  0  0
  150.9606  143.6271  157.1269 H   0  0  0  0  0  0  0  0  0  0  0  0
  1  2  1  0  0  0  0
  1 25  1  0  0  0  0
  1 26  1  0  0  0  0
  1 27  1  0  0  0  0
  2 24  1  0  0  0  0
  2  3  2  0  0  0  0
  3  4  1  0  0  0  0
  3 28  1  0  0  0  0
  4  5  2  0  0  0  0
  4 29  1  0  0  0  0
  5  6  1  0  0  0  0
  5  7  1  0  0  0  0
  7  8  1  0  0  0  0
  7 24  2  0  0  0  0
  8  9  1  0  0  0  0
  9 10  1  0  0  0  0
  9 30  1  0  0  0  0
  9 31  1  0  0  0  0
 10 11  1  0  0  0  0
 10 12  1  0  0  0  0
 10 32  1  0  0  0  0
 11 33  1  0  0  0  0
 12 13  1  0  0  0  0
 12 34  1  0  0  0  0
 12 35  1  0  0  0  0
 13 22  1  0  0  0  0
 13 14  1  0  0  0  0
 14 15  2  0  0  0  0
 14 36  1  0  0  0  0
 15 16  1  0  0  0  0
 16 17  1  0  0  0  0
 16 21  2  0  0  0  0
 17 20  1  0  0  0  0
 17 18  1  0  0  0  0
 17 37  1  0  0  0  0
 18 19  1  0  0  0  0
 18 38  1  0  0  0  0
 18 39  1  0  0  0  0
 19 20  1  0  0  0  0
 19 40  1  0  0  0  0
 19 41  1  0  0  0  0
 20 42  1  0  0  0  0
 20 43  1  0  0  0  0
 21 22  1  0  0  0  0
 21 44  1  0  0  0  0
 22 23  2  0  0  0  0
 24 45  1  0  0  0  0
M  END
> <s_m_source_file>
AV-unprocessed.smi

> <i_m_source_file_index>
2241

> <i_lp_mmshare_version>
43012

> <i_f3d_flags>
0

> <s_epik_input>
W0NIM11jMVtjSF1bY0hdYyhDbCljKFtjSF0xKU9bQ0gyXVtDQEhdKFtPSF0pW0NIMl1uMltjSF1uYyhbY0hdYzI9TylbQ0hdM1tDSDJdW0NIMl1bQ0gyXTM=

> <s_epik_cmdline>
J2VwaWtfcHl0aG9uJywgJy1waCcsICc3LjAnLCAnLXRuJywgJzgnLCAnLW1hJywgJzIwMCcsICctbWV0YWxfYmluZGluZycsICctaW1hZScsICc8aW5maWxlLm1hZT4nLCAnLW9tYWUnLCAnPG91dGZpbGUubWFlPic=

> <r_lp_tautomer_probability>
1

> <r_epik_Ionization_Penalty>
1.78212e-05

> <r_epik_Ionization_Penalty_Charging>
5.61663e-08

> <r_epik_Ionization_Penalty_Neutral>
1.7765e-05

> <r_epik_State_Penalty>
-0

> <r_epik_Charging_Adjusted_Penalty>
5.61663e-08

> <i_epik_Tot_Q>
0

> <i_epik_Tot_abs_Q>
0

> <r_epik_Metal_State_Penalty>
-0

> <b_epik_Metal_Only>
0

> <s_lp_Force_Field>
OPLS_2005

> <r_lp_Energy>
31.1581

> <b_lp_Chiralities_Consistent>
1

> <s_lp_Variant>
AV-unprocessed.smi:2241-1

> <Gold.Version>
5.8.1

> <Gold.Id.Protein>
6NUR|6NUR_protein|mol2

> <Gold.PLP.Fitness>
51.3279

> <Gold.PLP.PLP>
-45.5644

> <Gold.PLP.part.hbond>
-2.3790

> <Gold.PLP.part.metal>
0.0000

> <Gold.PLP.part.buried>
-5.3081

> <Gold.PLP.part.nonpolar>
-37.7532

> <Gold.PLP.part.repulsive>
0.3527

> <Gold.PLP.ligand.clash>
0.0000

> <Gold.PLP.ligand.torsion>
1.0651

> <Gold.PLP.Chemscore.Hbond>
1.8640

> <Gold.PLP.Chemscore.CHOScore>
0.5977

> <Gold.PLP.Chemscore.Metal>
0.0000

> <Gold.Chemscore.Hbonds>
donor molecule, donor type, donor heavy atom, donor atom, acceptor molecule, acceptor atom, score
      L1  H    11    33       P1  7957  0.58
      P1  H  7989  7998       L1    11  0.27
      P1  H  8011  8017       L1    11  1.00
      L1  C    14    36       P1  7957  0.59

> <Gold.PLP.Chemscore.Internal.Correction>
0.5086

> <Gold.Rescore>
     Score         DG    S(hbond)    S(metal)    S(lipo)     H(rot)  DE(clash)    DE(int)     intcor
     15.76     -18.29       1.37        0.00     122.53       2.38       0.44       2.08       ----

> <Gold.Chemscore.Fitness>
15.7639

> <Gold.Chemscore.DG>
-18.2883

> <Gold.Chemscore.ZeroCoef>
-5.4800

> <Gold.Chemscore.Hbond>
1.3669

> <Gold.Chemscore.Metal>
0.0000

> <Gold.Chemscore.Lipo>
122.5285

> <Gold.Chemscore.Internal_Hbond>
0.0000

> <Gold.Chemscore.DEClash>
0.4404

> <Gold.Chemscore.DEInternal>
2.0840

> <Gold.Chemscore.Rot>
2.3801

> <Gold.Chemscore.Internal.Correction>
   9.000000E+99

> <Gold.Chemscore.Hbonds>
donor molecule, donor type, donor heavy atom, donor atom, acceptor molecule, acceptor atom, score
      L1  H    11    33       P1  7957  0.58
      P1  H  7989  7998       L1    11  0.05
      P1  H  8011  8017       L1    11  0.49

> <Gold.Chemscore.Hbond.Weighted>
-4.5656

> <Gold.Chemscore.Metal.Weighted>
-0.0000

> <Gold.Chemscore.Lipo.Weighted>
-14.3358

> <Gold.Chemscore.Internal_Hbond.Weighted>
0.0000

> <Gold.Chemscore.DEClash.Weighted>
0.4404

> <Gold.Chemscore.DEInternal.Weighted>
2.0840

> <Gold.Chemscore.Rot.Weighted>
6.0931

> <Gold.Chemscore.Internal.Correction.Weighted>
   9.000000E+99

> <Gold.Protein.RotatedTorsions>
[ 6907 6896 6895 6894 ] final   78.15 input  -60.11 | X-H torsion
[ 7974 7965 7964 7962 ] final  -24.20 input  175.53 | X-H torsion
[ 8008 7997 7996 7995 ] final  -61.97 input   59.86 | X-H torsion
[ 10167 10162 10161 10158 ] final  -88.51 input  -65.29 | X-H torsion
[ 10718 10713 10712 10709 ] final  -36.95 input   66.30 | X-H torsion
[ 10763 10752 10751 10750 ] final   -4.50 input  -60.55 | X-H torsion
[ 11005 11000 10999 10996 ] final  -51.02 input  -57.11 | X-H torsion

> <Gold.Protein.ActiveResidues>
 VAL166  LYS551  ARG553  GLY616  TRP617  ASP618  TYR619  PRO620  LYS621  CYS622 
 ASP623  PHE694  ASN695  SER759  ASP760  ASP761  ALA762  ILE779  LEU786  VAL792 
 PHE793  MET794  SER795  GLU796  ALA797  LYS798  CYS799  TRP800  GLU811  SER814 

> <Gold.Protein.RotatedAtoms>
  152.5147  134.3708  159.9317 H   0  0  0  0  0  0  0  0  0  0  0  0  # atno 6907 bound_to 6896
  151.3663  133.3865  159.2702 H   0  0  0  0  0  0  0  0  0  0  0  0  # atno 6908 bound_to 6896
  150.9613  134.9019  159.7790 H   0  0  0  0  0  0  0  0  0  0  0  0  # atno 6909 bound_to 6896
  146.1569  140.4719  142.8587 H   0  0  0  0  0  0  0  0  0  0  0  0  # atno 7974 bound_to 7965
  154.4475  140.1006  156.6514 H   0  0  0  0  0  0  0  0  0  0  0  0  # atno 8008 bound_to 7997
  155.5393  140.3483  155.4425 H   0  0  0  0  0  0  0  0  0  0  0  0  # atno 8009 bound_to 7997
  156.0608  140.1326  156.9932 H   0  0  0  0  0  0  0  0  0  0  0  0  # atno 8010 bound_to 7997
  140.3740  143.2780  151.9466 H   0  0  0  0  0  0  0  0  0  0  0  0  # atno 10167 bound_to 10162
  156.3209  130.4265  149.7961 H   0  0  0  0  0  0  0  0  0  0  0  0  # atno 10718 bound_to 10713
  153.3857  135.7000  153.6532 H   0  0  0  0  0  0  0  0  0  0  0  0  # atno 10763 bound_to 10752
  153.5125  135.3629  155.2594 H   0  0  0  0  0  0  0  0  0  0  0  0  # atno 10764 bound_to 10752
  154.8697  135.4138  154.3164 H   0  0  0  0  0  0  0  0  0  0  0  0  # atno 10765 bound_to 10752
  141.0848  133.6645  156.3815 H   0  0  0  0  0  0  0  0  0  0  0  0  # atno 11005 bound_to 11000
  144.7976  140.6152  143.6500 LP  0  0  0  0  0  0  0  0  0  0  0  0  # atno 17320 bound_to 7965
  145.4685  139.1506  143.3827 LP  0  0  0  0  0  0  0  0  0  0  0  0  # atno 17321 bound_to 7965
  139.4801  144.5881  151.7819 LP  0  0  0  0  0  0  0  0  0  0  0  0  # atno 17342 bound_to 10162
  140.5005  144.1176  150.5970 LP  0  0  0  0  0  0  0  0  0  0  0  0  # atno 17343 bound_to 10162
  156.5269  130.8240  151.3223 LP  0  0  0  0  0  0  0  0  0  0  0  0  # atno 17370 bound_to 10713
  157.7411  130.9864  150.2425 LP  0  0  0  0  0  0  0  0  0  0  0  0  # atno 17371 bound_to 10713
  140.5388  134.6141  157.5373 LP  0  0  0  0  0  0  0  0  0  0  0  0  # atno 17394 bound_to 11000
  139.9665  134.7364  156.0128 LP  0  0  0  0  0  0  0  0  0  0  0  0  # atno 17395 bound_to 11000

$$$$
