AV-unprocessed.smi:282|AV-procd|sdf|2122|dock4
  -GOLD-   2262021423D 1   1.00000     0.00000
 Structure written by MMmdl.
 65 69  0  0  0  0  0  0  0  0  2 V2000
  147.1943  129.7256  155.8541 C   0  0  0  0  0  0  0  0  0  0  0  0
  147.2795  131.2188  155.5075 C   0  0  0  0  0  0  0  0  0  0  0  0
  147.5382  131.5082  154.0043 C   0  0  1  0  0  0  0  0  0  0  0  0
  146.3398  131.0287  153.1511 C   0  0  0  0  0  0  0  0  0  0  0  0
  146.4860  131.3809  151.7155 N   0  3  1  0  0  0  0  0  0  0  0  0
  145.3779  130.8733  150.8640 C   0  0  0  0  0  0  0  0  0  0  0  0
  144.0889  131.7026  151.0304 C   0  0  0  0  0  0  0  0  0  0  0  0
  144.3545  133.1946  150.7858 C   0  0  0  0  0  0  0  0  0  0  0  0
  145.5018  133.6891  151.6784 C   0  0  0  0  0  0  0  0  0  0  0  0
  146.7656  132.8240  151.4805 C   0  0  1  0  0  0  0  0  0  0  0  0
  147.9510  133.2954  152.3373 C   0  0  0  0  0  0  0  0  0  0  0  0
  147.7942  132.9329  153.7432 N   0  0  0  0  0  0  0  0  0  0  0  0
  148.7567  133.5430  154.4747 C   0  0  0  0  0  0  0  0  0  0  0  0
  149.8162  132.8315  154.9425 N   0  0  0  0  0  0  0  0  0  0  0  0
  150.7718  133.4456  155.6470 C   0  0  0  0  0  0  0  0  0  0  0  0
  150.8628  134.7341  155.9835 N   0  0  0  0  0  0  0  0  0  0  0  0
  149.8052  135.4508  155.5064 C   0  0  0  0  0  0  0  0  0  0  0  0
  148.7224  134.9368  154.7405 C   0  0  0  0  0  0  0  0  0  0  0  0
  147.8406  135.9572  154.4117 N   0  0  0  0  0  0  0  0  0  0  0  0
  148.3734  137.0184  154.9537 C   0  0  0  0  0  0  0  0  0  0  0  0
  149.5433  136.8032  155.6499 N   0  0  0  0  0  0  0  0  0  0  0  0
  150.3401  137.8056  156.3451 C   0  0  0  0  0  0  0  0  0  0  0  0
  151.0807  138.8271  155.4236 C   0  0  0  0  0  0  0  0  0  0  0  0
  152.2471  138.0952  154.7015 C   0  0  0  0  0  0  0  0  0  0  0  0
  151.8235  137.0041  153.9080 O   0  0  0  0  0  0  0  0  0  0  0  0
  150.1263  139.4539  154.3742 C   0  0  0  0  0  0  0  0  0  0  0  0
  149.0981  140.4102  155.0068 C   0  0  0  0  0  0  0  0  0  0  0  0
  149.7679  141.4277  155.7402 O   0  0  0  0  0  0  0  0  0  0  0  0
  150.5300  140.9151  156.8260 C   0  0  0  0  0  0  0  0  0  0  0  0
  151.6359  139.9821  156.2979 C   0  0  0  0  0  0  0  0  0  0  0  0
  147.1261  129.5860  156.9332 H   0  0  0  0  0  0  0  0  0  0  0  0
  148.0785  129.1897  155.5078 H   0  0  0  0  0  0  0  0  0  0  0  0
  146.3167  129.2540  155.4129 H   0  0  0  0  0  0  0  0  0  0  0  0
  146.3656  131.7196  155.8295 H   0  0  0  0  0  0  0  0  0  0  0  0
  148.0765  131.6363  156.1216 H   0  0  0  0  0  0  0  0  0  0  0  0
  148.4226  130.9522  153.6889 H   0  0  0  0  0  0  0  0  0  0  0  0
  146.2383  129.9460  153.2237 H   0  0  0  0  0  0  0  0  0  0  0  0
  145.4180  131.4564  153.5457 H   0  0  0  0  0  0  0  0  0  0  0  0
  145.7010  130.9126  149.8229 H   0  0  0  0  0  0  0  0  0  0  0  0
  145.1873  129.8222  151.0850 H   0  0  0  0  0  0  0  0  0  0  0  0
  143.3284  131.3449  150.3360 H   0  0  0  0  0  0  0  0  0  0  0  0
  143.6757  131.5615  152.0296 H   0  0  0  0  0  0  0  0  0  0  0  0
  144.6114  133.3537  149.7377 H   0  0  0  0  0  0  0  0  0  0  0  0
  143.4513  133.7751  150.9766 H   0  0  0  0  0  0  0  0  0  0  0  0
  145.7240  134.7302  151.4421 H   0  0  0  0  0  0  0  0  0  0  0  0
  145.1890  133.6758  152.7230 H   0  0  0  0  0  0  0  0  0  0  0  0
  147.0659  132.9256  150.4365 H   0  0  0  0  0  0  0  0  0  0  0  0
  148.8694  132.8395  151.9637 H   0  0  0  0  0  0  0  0  0  0  0  0
  148.0745  134.3746  152.2304 H   0  0  0  0  0  0  0  0  0  0  0  0
  151.5798  132.8156  155.9890 H   0  0  0  0  0  0  0  0  0  0  0  0
  147.9187  137.9949  154.8683 H   0  0  0  0  0  0  0  0  0  0  0  0
  149.6851  138.3095  157.0540 H   0  0  0  0  0  0  0  0  0  0  0  0
  151.0696  137.2736  156.9576 H   0  0  0  0  0  0  0  0  0  0  0  0
  152.7893  138.7884  154.0576 H   0  0  0  0  0  0  0  0  0  0  0  0
  152.9649  137.7028  155.4214 H   0  0  0  0  0  0  0  0  0  0  0  0
  151.7056  137.3064  153.0204 H   0  0  0  0  0  0  0  0  0  0  0  0
  150.7011  140.0311  153.6496 H   0  0  0  0  0  0  0  0  0  0  0  0
  149.6195  138.6826  153.7952 H   0  0  0  0  0  0  0  0  0  0  0  0
  148.5026  140.8809  154.2246 H   0  0  0  0  0  0  0  0  0  0  0  0
  148.3981  139.8833  155.6546 H   0  0  0  0  0  0  0  0  0  0  0  0
  150.9793  141.7535  157.3583 H   0  0  0  0  0  0  0  0  0  0  0  0
  149.8792  140.4102  157.5401 H   0  0  0  0  0  0  0  0  0  0  0  0
  152.2176  139.5848  157.1304 H   0  0  0  0  0  0  0  0  0  0  0  0
  152.3255  140.5973  155.7197 H   0  0  0  0  0  0  0  0  0  0  0  0
  147.3146  130.8898  151.4116 H   0  0  0  0  0  0  0  0  0  0  0  0
  1  2  1  0  0  0  0
  1 31  1  0  0  0  0
  1 32  1  0  0  0  0
  1 33  1  0  0  0  0
  2  3  1  0  0  0  0
  2 34  1  0  0  0  0
  2 35  1  0  0  0  0
  3 12  1  0  0  0  0
  3  4  1  0  0  0  0
  3 36  1  0  0  0  0
  4  5  1  0  0  0  0
  4 37  1  0  0  0  0
  4 38  1  0  0  0  0
  5 10  1  0  0  0  0
  5  6  1  0  0  0  0
  5 65  1  0  0  0  0
  6  7  1  0  0  0  0
  6 39  1  0  0  0  0
  6 40  1  0  0  0  0
  7  8  1  0  0  0  0
  7 41  1  0  0  0  0
  7 42  1  0  0  0  0
  8  9  1  0  0  0  0
  8 43  1  0  0  0  0
  8 44  1  0  0  0  0
  9 10  1  0  0  0  0
  9 45  1  0  0  0  0
  9 46  1  0  0  0  0
 10 11  1  0  0  0  0
 10 47  1  0  0  0  0
 11 12  1  0  0  0  0
 11 48  1  0  0  0  0
 11 49  1  0  0  0  0
 12 13  1  0  0  0  0
 13 18  1  0  0  0  0
 13 14  2  0  0  0  0
 14 15  1  0  0  0  0
 15 16  2  0  0  0  0
 15 50  1  0  0  0  0
 16 17  1  0  0  0  0
 17 21  1  0  0  0  0
 17 18  2  0  0  0  0
 18 19  1  0  0  0  0
 19 20  2  0  0  0  0
 20 21  1  0  0  0  0
 20 51  1  0  0  0  0
 21 22  1  0  0  0  0
 22 23  1  0  0  0  0
 22 52  1  0  0  0  0
 22 53  1  0  0  0  0
 23 30  1  0  0  0  0
 23 24  1  0  0  0  0
 23 26  1  0  0  0  0
 24 25  1  0  0  0  0
 24 54  1  0  0  0  0
 24 55  1  0  0  0  0
 25 56  1  0  0  0  0
 26 27  1  0  0  0  0
 26 57  1  0  0  0  0
 26 58  1  0  0  0  0
 27 28  1  0  0  0  0
 27 59  1  0  0  0  0
 27 60  1  0  0  0  0
 28 29  1  0  0  0  0
 29 30  1  0  0  0  0
 29 61  1  0  0  0  0
 29 62  1  0  0  0  0
 30 63  1  0  0  0  0
 30 64  1  0  0  0  0
M  CHG  1   5   1
M  END
> <s_m_source_file>
AV-unprocessed.smi

> <i_m_source_file_index>
282

> <i_lp_mmshare_version>
43012

> <i_f3d_flags>
0

> <s_epik_input>
W0NIMl0xW0NIMl1bQ0gyXVtDSDJdW0NAQEhdKE4xMilbQ0gyXU4oW0NAQEhdKFtDSDJdMilbQ0gyXVtDSDNdKWMobltjSF1uMyljKGMzNCluW2NIXW40W0NIMl1DNShbQ0gyXVtPSF0pW0NIMl1bQ0gyXU9bQ0gyXVtDSDJdNQ==

> <s_epik_cmdline>
J2VwaWtfcHl0aG9uJywgJy1waCcsICc3LjAnLCAnLXRuJywgJzgnLCAnLW1hJywgJzIwMCcsICctbWV0YWxfYmluZGluZycsICctaW1hZScsICc8aW5maWxlLm1hZT4nLCAnLW9tYWUnLCAnPG91dGZpbGUubWFlPic=

> <r_lp_tautomer_probability>
1

> <r_epik_Ionization_Penalty>
0.00308583

> <r_epik_Ionization_Penalty_Charging>
0.00300384

> <r_epik_Ionization_Penalty_Neutral>
8.19894e-05

> <r_epik_State_Penalty>
-0

> <r_epik_Charging_Adjusted_Penalty>
0.00300384

> <i_epik_Tot_Q>
1

> <i_epik_Tot_abs_Q>
1

> <r_epik_Metal_State_Penalty>
-0

> <b_epik_Metal_Only>
0

> <s_lp_Force_Field>
OPLS_2005

> <r_lp_Energy>
60.0912

> <b_lp_Chiralities_Consistent>
1

> <s_lp_Variant>
AV-unprocessed.smi:282-6

> <Gold.Version>
5.8.1

> <Gold.Id.Protein>
6NUR|6NUR_protein|mol2

> <Gold.PLP.Fitness>
47.2336

> <Gold.PLP.PLP>
-41.4168

> <Gold.PLP.part.hbond>
-3.0000

> <Gold.PLP.part.metal>
0.0000

> <Gold.PLP.part.buried>
-6.0734

> <Gold.PLP.part.nonpolar>
-33.8274

> <Gold.PLP.part.repulsive>
2.3971

> <Gold.PLP.ligand.clash>
0.0000

> <Gold.PLP.ligand.torsion>
0.7599

> <Gold.PLP.Chemscore.Hbond>
2.3580

> <Gold.PLP.Chemscore.CHOScore>
0.0000

> <Gold.PLP.Chemscore.Metal>
0.0000

> <Gold.Chemscore.Hbonds>
donor molecule, donor type, donor heavy atom, donor atom, acceptor molecule, acceptor atom, score
      L1  H     5    65       P1 10747  0.99
      L1  H    25    56       P1  7949  0.37
      P1  H 10752 10765       L1    25  1.00

> <Gold.PLP.Chemscore.Internal.Correction>
0.2626

> <Gold.Rescore>
     Score         DG    S(hbond)    S(metal)    S(lipo)     H(rot)  DE(clash)    DE(int)     intcor
     12.67     -18.97       2.15        0.00     107.74       2.46       1.45       4.85       ----

> <Gold.Chemscore.Fitness>
12.6743

> <Gold.Chemscore.DG>
-18.9701

> <Gold.Chemscore.ZeroCoef>
-5.4800

> <Gold.Chemscore.Hbond>
2.1486

> <Gold.Chemscore.Metal>
0.0000

> <Gold.Chemscore.Lipo>
107.7383

> <Gold.Chemscore.Internal_Hbond>
0.0000

> <Gold.Chemscore.DEClash>
1.4484

> <Gold.Chemscore.DEInternal>
4.8474

> <Gold.Chemscore.Rot>
2.4576

> <Gold.Chemscore.Internal.Correction>
   9.000000E+99

> <Gold.Chemscore.Hbonds>
donor molecule, donor type, donor heavy atom, donor atom, acceptor molecule, acceptor atom, score
      L1  H     5    65       P1 10747  0.89
      L1  H    25    56       P1  7949  0.36
      P1  H 10752 10765       L1    25  0.57

> <Gold.Chemscore.Hbond.Weighted>
-7.1762

> <Gold.Chemscore.Metal.Weighted>
-0.0000

> <Gold.Chemscore.Lipo.Weighted>
-12.6054

> <Gold.Chemscore.Internal_Hbond.Weighted>
0.0000

> <Gold.Chemscore.DEClash.Weighted>
1.4484

> <Gold.Chemscore.DEInternal.Weighted>
4.8474

> <Gold.Chemscore.Rot.Weighted>
6.2915

> <Gold.Chemscore.Internal.Correction.Weighted>
   9.000000E+99

> <Gold.Protein.RotatedTorsions>
[ 6907 6896 6895 6894 ] final  -86.04 input  -60.11 | X-H torsion
[ 7974 7965 7964 7962 ] final  179.39 input  175.53 | X-H torsion
[ 8008 7997 7996 7995 ] final -127.34 input   59.86 | X-H torsion
[ 10167 10162 10161 10158 ] final   62.31 input  -65.29 | X-H torsion
[ 10718 10713 10712 10709 ] final -107.37 input   66.30 | X-H torsion
[ 10763 10752 10751 10750 ] final  143.78 input  -60.55 | X-H torsion
[ 11005 11000 10999 10996 ] final   13.65 input  -57.11 | X-H torsion

> <Gold.Protein.ActiveResidues>
 VAL166  LYS551  ARG553  GLY616  TRP617  ASP618  TYR619  PRO620  LYS621  CYS622 
 ASP623  PHE694  ASN695  SER759  ASP760  ASP761  ALA762  ILE779  LEU786  VAL792 
 PHE793  MET794  SER795  GLU796  ALA797  LYS798  CYS799  TRP800  GLU811  SER814 

> <Gold.Protein.RotatedAtoms>
  150.6868  134.3111  159.4746 H   0  0  0  0  0  0  0  0  0  0  0  0  # atno 6907 bound_to 6896
  152.0997  134.9347  160.0579 H   0  0  0  0  0  0  0  0  0  0  0  0  # atno 6908 bound_to 6896
  152.0631  133.4037  159.4463 H   0  0  0  0  0  0  0  0  0  0  0  0  # atno 6909 bound_to 6896
  144.7146  140.0541  143.6434 H   0  0  0  0  0  0  0  0  0  0  0  0  # atno 7974 bound_to 7965
  155.2445  140.0430  157.2979 H   0  0  0  0  0  0  0  0  0  0  0  0  # atno 8008 bound_to 7997
  154.5807  140.2400  155.8027 H   0  0  0  0  0  0  0  0  0  0  0  0  # atno 8009 bound_to 7997
  156.2191  140.2975  155.9917 H   0  0  0  0  0  0  0  0  0  0  0  0  # atno 8010 bound_to 7997
  140.1453  144.4514  150.6788 H   0  0  0  0  0  0  0  0  0  0  0  0  # atno 10167 bound_to 10162
  156.0433  130.5659  150.7812 H   0  0  0  0  0  0  0  0  0  0  0  0  # atno 10718 bound_to 10713
  153.9779  135.2944  155.3422 H   0  0  0  0  0  0  0  0  0  0  0  0  # atno 10763 bound_to 10752
  154.7285  135.5078  153.8929 H   0  0  0  0  0  0  0  0  0  0  0  0  # atno 10764 bound_to 10752
  153.0868  135.6696  154.0046 H   0  0  0  0  0  0  0  0  0  0  0  0  # atno 10765 bound_to 10752
  140.4783  134.0961  155.7746 H   0  0  0  0  0  0  0  0  0  0  0  0  # atno 11005 bound_to 11000
  145.9919  139.3021  143.0980 LP  0  0  0  0  0  0  0  0  0  0  0  0  # atno 17320 bound_to 7965
  145.8893  140.9314  143.0560 LP  0  0  0  0  0  0  0  0  0  0  0  0  # atno 17321 bound_to 7965
  140.6735  143.2295  151.5565 LP  0  0  0  0  0  0  0  0  0  0  0  0  # atno 17342 bound_to 10162
  139.5452  144.2541  152.1428 LP  0  0  0  0  0  0  0  0  0  0  0  0  # atno 17343 bound_to 10162
  157.5279  131.0935  150.9994 LP  0  0  0  0  0  0  0  0  0  0  0  0  # atno 17370 bound_to 10713
  157.0307  130.5710  149.5343 LP  0  0  0  0  0  0  0  0  0  0  0  0  # atno 17371 bound_to 10713
  141.1543  133.8911  157.2017 LP  0  0  0  0  0  0  0  0  0  0  0  0  # atno 17394 bound_to 11000
  139.9842  135.0088  156.9823 LP  0  0  0  0  0  0  0  0  0  0  0  0  # atno 17395 bound_to 11000

$$$$
