AV-unprocessed.smi:2290|AV-procd|sdf|9211|dock3
  -GOLD-   2272012433D 1   1.00000     0.00000
 Structure written by MMmdl.
 38 39  0  0  0  0  0  0  0  0  1 V2000
  145.2670  142.4740  156.8169 C   0  0  0  0  0  0  0  0  0  0  0  0
  146.4603  141.7341  156.2388 C   0  0  0  0  0  0  0  0  0  0  0  0
  147.0714  140.8123  157.0937 N   0  0  0  0  0  0  0  0  0  0  0  0
  148.0951  140.1355  156.6865 C   0  0  0  0  0  0  0  0  0  0  0  0
  148.6192  140.2966  155.3936 N   0  0  0  0  0  0  0  0  0  0  0  0
  149.7925  139.4728  155.0589 C   0  0  0  0  0  0  0  0  0  0  0  0
  151.0765  139.9845  155.7496 C   0  0  1  0  0  0  0  0  0  0  0  0
  152.1879  139.8518  154.8869 O   0  0  0  0  0  0  0  0  0  0  0  0
  150.9886  141.4612  156.1676 C   0  0  0  0  0  0  0  0  0  0  0  0
  150.6802  141.5527  157.5491 O   0  0  0  0  0  0  0  0  0  0  0  0
  150.3107  142.8628  157.9456 C   0  0  0  0  0  0  0  0  0  0  0  0
  151.0773  143.2084  159.1840 C   0  0  0  0  0  0  0  0  0  0  0  0
  152.0659  142.4584  159.7684 C   0  0  0  0  0  0  0  0  0  0  0  0
  152.6025  143.0516  160.9487 C   0  0  0  0  0  0  0  0  0  0  0  0
  152.0150  144.2497  161.2552 C   0  0  0  0  0  0  0  0  0  0  0  0
  150.7847  144.6727  160.0969 S   0  0  0  0  0  0  0  0  0  0  0  0
  148.0900  141.1814  154.4998 C   0  0  0  0  0  0  0  0  0  0  0  0
  148.5697  141.3282  153.3739 O   0  0  0  0  0  0  0  0  0  0  0  0
  146.9224  141.9409  154.9753 C   0  0  0  0  0  0  0  0  0  0  0  0
  146.2978  142.9312  154.0003 C   0  0  0  0  0  0  0  0  0  0  0  0
  144.3704  142.2690  156.2313 H   0  0  0  0  0  0  0  0  0  0  0  0
  145.4473  143.5491  156.8153 H   0  0  0  0  0  0  0  0  0  0  0  0
  145.0708  142.1702  157.8460 H   0  0  0  0  0  0  0  0  0  0  0  0
  148.6116  139.4086  157.3158 H   0  0  0  0  0  0  0  0  0  0  0  0
  149.6307  138.4163  155.2842 H   0  0  0  0  0  0  0  0  0  0  0  0
  149.9322  139.4958  153.9764 H   0  0  0  0  0  0  0  0  0  0  0  0
  151.2855  139.3967  156.6441 H   0  0  0  0  0  0  0  0  0  0  0  0
  152.9716  139.8179  155.4145 H   0  0  0  0  0  0  0  0  0  0  0  0
  151.9520  141.9412  155.9892 H   0  0  0  0  0  0  0  0  0  0  0  0
  150.2487  141.9923  155.5662 H   0  0  0  0  0  0  0  0  0  0  0  0
  150.5389  143.5784  157.1544 H   0  0  0  0  0  0  0  0  0  0  0  0
  149.2387  142.9105  158.1429 H   0  0  0  0  0  0  0  0  0  0  0  0
  152.4201  141.5103  159.3913 H   0  0  0  0  0  0  0  0  0  0  0  0
  153.3889  142.5850  161.5237 H   0  0  0  0  0  0  0  0  0  0  0  0
  152.2271  144.9053  162.0868 H   0  0  0  0  0  0  0  0  0  0  0  0
  147.0256  143.6935  153.7209 H   0  0  0  0  0  0  0  0  0  0  0  0
  145.4260  143.4420  154.4057 H   0  0  0  0  0  0  0  0  0  0  0  0
  145.9822  142.4163  153.0924 H   0  0  0  0  0  0  0  0  0  0  0  0
  1  2  1  0  0  0  0
  1 21  1  0  0  0  0
  1 22  1  0  0  0  0
  1 23  1  0  0  0  0
  2 19  2  0  0  0  0
  2  3  1  0  0  0  0
  3  4  2  0  0  0  0
  4  5  1  0  0  0  0
  4 24  1  0  0  0  0
  5  6  1  0  0  0  0
  5 17  1  0  0  0  0
  6  7  1  0  0  0  0
  6 25  1  0  0  0  0
  6 26  1  0  0  0  0
  7  8  1  0  0  0  0
  7  9  1  0  0  0  0
  7 27  1  0  0  0  0
  8 28  1  0  0  0  0
  9 10  1  0  0  0  0
  9 29  1  0  0  0  0
  9 30  1  0  0  0  0
 10 11  1  0  0  0  0
 11 12  1  0  0  0  0
 11 31  1  0  0  0  0
 11 32  1  0  0  0  0
 12 16  1  0  0  0  0
 12 13  2  0  0  0  0
 13 14  1  0  0  0  0
 13 33  1  0  0  0  0
 14 15  2  0  0  0  0
 14 34  1  0  0  0  0
 15 16  1  0  0  0  0
 15 35  1  0  0  0  0
 17 18  2  0  0  0  0
 17 19  1  0  0  0  0
 19 20  1  0  0  0  0
 20 36  1  0  0  0  0
 20 37  1  0  0  0  0
 20 38  1  0  0  0  0
M  END
> <s_m_source_file>
AV-unprocessed.smi

> <i_m_source_file_index>
2290

> <i_lp_mmshare_version>
43012

> <i_f3d_flags>
0

> <s_epik_input>
W0NIM11jMW5bY0hdbihjKD1PKWMxW0NIM10pW0NIMl1bQ0BIXShbT0hdKVtDSDJdT1tDSDJdYzJbY0hdW2NIXVtjSF1zMg==

> <s_epik_cmdline>
J2VwaWtfcHl0aG9uJywgJy1waCcsICc3LjAnLCAnLXRuJywgJzgnLCAnLW1hJywgJzIwMCcsICctbWV0YWxfYmluZGluZycsICctaW1hZScsICc8aW5maWxlLm1hZT4nLCAnLW9tYWUnLCAnPG91dGZpbGUubWFlPic=

> <r_lp_tautomer_probability>
1

> <r_epik_Ionization_Penalty>
4.77825e-05

> <r_epik_Ionization_Penalty_Charging>
1.20754e-07

> <r_epik_Ionization_Penalty_Neutral>
4.76618e-05

> <r_epik_State_Penalty>
-0

> <r_epik_Charging_Adjusted_Penalty>
1.20754e-07

> <i_epik_Tot_Q>
0

> <i_epik_Tot_abs_Q>
0

> <r_epik_Metal_State_Penalty>
-0

> <b_epik_Metal_Only>
0

> <s_lp_Force_Field>
OPLS_2005

> <r_lp_Energy>
16.3979

> <b_lp_Chiralities_Consistent>
1

> <s_lp_Variant>
AV-unprocessed.smi:2290-2

> <Gold.Version>
5.8.1

> <Gold.Id.Protein>
6NUR|6NUR_protein|mol2

> <Gold.PLP.Fitness>
39.3689

> <Gold.PLP.PLP>
-37.8947

> <Gold.PLP.part.hbond>
-2.0000

> <Gold.PLP.part.metal>
0.0000

> <Gold.PLP.part.buried>
-6.9354

> <Gold.PLP.part.nonpolar>
-31.8880

> <Gold.PLP.part.repulsive>
2.0839

> <Gold.PLP.ligand.clash>
0.0000

> <Gold.PLP.ligand.torsion>
1.6920

> <Gold.PLP.Chemscore.Hbond>
1.5840

> <Gold.PLP.Chemscore.CHOScore>
0.0000

> <Gold.PLP.Chemscore.Metal>
0.0000

> <Gold.Chemscore.Hbonds>
donor molecule, donor type, donor heavy atom, donor atom, acceptor molecule, acceptor atom, score
      P1  H  7989  7998       L1     8  0.77
      P1  H  8011  8017       L1    18  0.85

> <Gold.PLP.Chemscore.Internal.Correction>
0.1060

> <Gold.Rescore>
     Score         DG    S(hbond)    S(metal)    S(lipo)     H(rot)  DE(clash)    DE(int)     intcor
     10.85     -14.09       1.11        0.00      97.69       2.55       1.47       1.77       ----

> <Gold.Chemscore.Fitness>
10.8542

> <Gold.Chemscore.DG>
-14.0926

> <Gold.Chemscore.ZeroCoef>
-5.4800

> <Gold.Chemscore.Hbond>
1.1116

> <Gold.Chemscore.Metal>
0.0000

> <Gold.Chemscore.Lipo>
97.6893

> <Gold.Chemscore.Internal_Hbond>
0.0000

> <Gold.Chemscore.DEClash>
1.4719

> <Gold.Chemscore.DEInternal>
1.7665

> <Gold.Chemscore.Rot>
2.5507

> <Gold.Chemscore.Internal.Correction>
   9.000000E+99

> <Gold.Chemscore.Hbonds>
donor molecule, donor type, donor heavy atom, donor atom, acceptor molecule, acceptor atom, score
      P1  H  7989  7998       L1     8  0.23
      P1  H  8011  8017       L1    18  0.84

> <Gold.Chemscore.Hbond.Weighted>
-3.7128

> <Gold.Chemscore.Metal.Weighted>
-0.0000

> <Gold.Chemscore.Lipo.Weighted>
-11.4296

> <Gold.Chemscore.Internal_Hbond.Weighted>
0.0000

> <Gold.Chemscore.DEClash.Weighted>
1.4719

> <Gold.Chemscore.DEInternal.Weighted>
1.7665

> <Gold.Chemscore.Rot.Weighted>
6.5298

> <Gold.Chemscore.Internal.Correction.Weighted>
   9.000000E+99

> <Gold.Protein.RotatedTorsions>
[ 6907 6896 6895 6894 ] final  122.21 input  -60.11 | X-H torsion
[ 7974 7965 7964 7962 ] final  136.79 input  175.53 | X-H torsion
[ 8008 7997 7996 7995 ] final   24.79 input   59.86 | X-H torsion
[ 10167 10162 10161 10158 ] final  157.98 input  -65.29 | X-H torsion
[ 10718 10713 10712 10709 ] final -100.18 input   66.30 | X-H torsion
[ 10763 10752 10751 10750 ] final -136.80 input  -60.55 | X-H torsion
[ 11005 11000 10999 10996 ] final  -91.90 input  -57.11 | X-H torsion

> <Gold.Protein.ActiveResidues>
 VAL166  LYS551  ARG553  GLY616  TRP617  ASP618  TYR619  PRO620  LYS621  CYS622 
 ASP623  PHE694  ASN695  SER759  ASP760  ASP761  ALA762  ILE779  LEU786  VAL792 
 PHE793  MET794  SER795  GLU796  ALA797  LYS798  CYS799  TRP800  GLU811  SER814 

> <Gold.Protein.RotatedAtoms>
  152.4261  133.7197  159.6525 H   0  0  0  0  0  0  0  0  0  0  0  0  # atno 6907 bound_to 6896
  150.8137  133.8364  159.3176 H   0  0  0  0  0  0  0  0  0  0  0  0  # atno 6908 bound_to 6896
  151.6066  135.1045  160.0123 H   0  0  0  0  0  0  0  0  0  0  0  0  # atno 6909 bound_to 6896
  144.9531  139.4796  143.5516 H   0  0  0  0  0  0  0  0  0  0  0  0  # atno 7974 bound_to 7965
  155.0016  140.3126  155.4865 H   0  0  0  0  0  0  0  0  0  0  0  0  # atno 8008 bound_to 7997
  156.2924  140.2231  156.5067 H   0  0  0  0  0  0  0  0  0  0  0  0  # atno 8009 bound_to 7997
  154.7613  140.0459  157.0964 H   0  0  0  0  0  0  0  0  0  0  0  0  # atno 8010 bound_to 7997
  139.4825  144.4867  151.8367 H   0  0  0  0  0  0  0  0  0  0  0  0  # atno 10167 bound_to 10162
  156.0155  130.5316  150.6779 H   0  0  0  0  0  0  0  0  0  0  0  0  # atno 10718 bound_to 10713
  154.8676  135.3661  154.5120 H   0  0  0  0  0  0  0  0  0  0  0  0  # atno 10763 bound_to 10752
  153.5755  135.7019  153.5491 H   0  0  0  0  0  0  0  0  0  0  0  0  # atno 10764 bound_to 10752
  153.3504  135.4073  155.1604 H   0  0  0  0  0  0  0  0  0  0  0  0  # atno 10765 bound_to 10752
  141.1534  133.7786  156.9945 H   0  0  0  0  0  0  0  0  0  0  0  0  # atno 11005 bound_to 11000
  146.3328  139.8629  142.8853 LP  0  0  0  0  0  0  0  0  0  0  0  0  # atno 17320 bound_to 7965
  145.2814  141.0140  143.3715 LP  0  0  0  0  0  0  0  0  0  0  0  0  # atno 17321 bound_to 7965
  140.4348  144.2067  150.5889 LP  0  0  0  0  0  0  0  0  0  0  0  0  # atno 17342 bound_to 10162
  140.4743  143.2401  151.9045 LP  0  0  0  0  0  0  0  0  0  0  0  0  # atno 17343 bound_to 10162
  157.4488  131.0870  151.0868 LP  0  0  0  0  0  0  0  0  0  0  0  0  # atno 17370 bound_to 10713
  157.1390  130.6135  149.5550 LP  0  0  0  0  0  0  0  0  0  0  0  0  # atno 17371 bound_to 10713
  140.0981  134.9552  157.1880 LP  0  0  0  0  0  0  0  0  0  0  0  0  # atno 17394 bound_to 11000
  140.3355  134.2762  155.7220 LP  0  0  0  0  0  0  0  0  0  0  0  0  # atno 17395 bound_to 11000

$$$$
