AV-unprocessed.smi:1983|AV-procd|sdf|8029|dock2
  -GOLD-   2272010223D 1   1.00000     0.00000
 Structure written by MMmdl.
 49 50  0  0  0  0  0  0  0  0  1 V2000
  144.3595  135.3344  151.7148 C   0  0  0  0  0  0  0  0  0  0  0  0
  145.6160  135.0613  152.5605 C   0  0  1  0  0  0  0  0  0  0  0  0
  146.4011  133.8371  152.0593 C   0  0  0  0  0  0  0  0  0  0  0  0
  147.6844  133.7968  152.6456 O   0  0  0  0  0  0  0  0  0  0  0  0
  146.4957  136.2271  152.5563 N   0  0  0  0  0  0  0  0  0  0  0  0
  146.1280  137.4766  152.8733 C   0  0  0  0  0  0  0  0  0  0  0  0
  144.9868  137.7983  153.2052 O   0  0  0  0  0  0  0  0  0  0  0  0
  147.1524  138.3354  152.7793 N   0  0  0  0  0  0  0  0  0  0  0  0
  147.0574  139.7687  153.0296 C   0  0  0  0  0  0  0  0  0  0  0  0
  148.0451  140.2487  154.0780 C   0  0  0  0  0  0  0  0  0  0  0  0
  147.6190  141.0219  155.1750 C   0  0  0  0  0  0  0  0  0  0  0  0
  148.5730  141.4504  156.1175 C   0  0  0  0  0  0  0  0  0  0  0  0
  149.9301  141.0921  155.9383 C   0  0  0  0  0  0  0  0  0  0  0  0
  150.8999  141.5115  156.8735 N   0  0  0  0  0  0  0  0  0  0  0  0
  151.3237  140.4969  157.8337 C   0  0  0  0  0  0  0  0  0  0  0  0
  152.5891  140.9592  158.5813 C   0  0  2  0  0  0  0  0  0  0  0  0
  152.9923  139.9791  159.6879 C   0  0  0  0  0  0  0  0  0  0  0  0
  152.3464  142.2312  159.1773 O   0  0  0  0  0  0  0  0  0  0  0  0
  152.0409  143.2356  158.2132 C   0  0  2  0  0  0  0  0  0  0  0  0
  151.8940  144.5753  158.9416 C   0  0  0  0  0  0  0  0  0  0  0  0
  150.7550  142.8397  157.4639 C   0  0  0  0  0  0  0  0  0  0  0  0
  150.3344  140.3430  154.8826 N   0  0  0  0  0  0  0  0  0  0  0  0
  149.4164  139.9390  153.9795 C   0  0  0  0  0  0  0  0  0  0  0  0
  143.6860  134.4772  151.7229 H   0  0  0  0  0  0  0  0  0  0  0  0
  144.6166  135.5449  150.6764 H   0  0  0  0  0  0  0  0  0  0  0  0
  143.8002  136.1882  152.0986 H   0  0  0  0  0  0  0  0  0  0  0  0
  145.3126  134.8696  153.5918 H   0  0  0  0  0  0  0  0  0  0  0  0
  145.8680  132.9108  152.2770 H   0  0  0  0  0  0  0  0  0  0  0  0
  146.5334  133.8866  150.9777 H   0  0  0  0  0  0  0  0  0  0  0  0
  148.1097  134.6272  152.4958 H   0  0  0  0  0  0  0  0  0  0  0  0
  147.4574  136.0676  152.2947 H   0  0  0  0  0  0  0  0  0  0  0  0
  148.0544  137.9775  152.5017 H   0  0  0  0  0  0  0  0  0  0  0  0
  147.1897  140.3240  152.0992 H   0  0  0  0  0  0  0  0  0  0  0  0
  146.0484  139.9898  153.3777 H   0  0  0  0  0  0  0  0  0  0  0  0
  146.5784  141.2859  155.2947 H   0  0  0  0  0  0  0  0  0  0  0  0
  148.2544  142.0336  156.9686 H   0  0  0  0  0  0  0  0  0  0  0  0
  150.5110  140.3252  158.5408 H   0  0  0  0  0  0  0  0  0  0  0  0
  151.5245  139.5439  157.3457 H   0  0  0  0  0  0  0  0  0  0  0  0
  153.4187  141.0471  157.8775 H   0  0  0  0  0  0  0  0  0  0  0  0
  153.1961  138.9890  159.2796 H   0  0  0  0  0  0  0  0  0  0  0  0
  152.2023  139.8781  160.4329 H   0  0  0  0  0  0  0  0  0  0  0  0
  153.8925  140.3191  160.2006 H   0  0  0  0  0  0  0  0  0  0  0  0
  152.8683  143.3158  157.5057 H   0  0  0  0  0  0  0  0  0  0  0  0
  151.6729  145.3808  158.2409 H   0  0  0  0  0  0  0  0  0  0  0  0
  152.8133  144.8354  159.4670 H   0  0  0  0  0  0  0  0  0  0  0  0
  151.0889  144.5399  159.6762 H   0  0  0  0  0  0  0  0  0  0  0  0
  150.5474  143.5748  156.6851 H   0  0  0  0  0  0  0  0  0  0  0  0
  149.9053  142.8391  158.1482 H   0  0  0  0  0  0  0  0  0  0  0  0
  149.7883  139.3495  153.1546 H   0  0  0  0  0  0  0  0  0  0  0  0
  1  2  1  0  0  0  0
  1 24  1  0  0  0  0
  1 25  1  0  0  0  0
  1 26  1  0  0  0  0
  2  3  1  0  0  0  0
  2  5  1  0  0  0  0
  2 27  1  0  0  0  0
  3  4  1  0  0  0  0
  3 28  1  0  0  0  0
  3 29  1  0  0  0  0
  4 30  1  0  0  0  0
  5  6  1  0  0  0  0
  5 31  1  0  0  0  0
  6  7  2  0  0  0  0
  6  8  1  0  0  0  0
  8  9  1  0  0  0  0
  8 32  1  0  0  0  0
  9 10  1  0  0  0  0
  9 33  1  0  0  0  0
  9 34  1  0  0  0  0
 10 23  1  0  0  0  0
 10 11  2  0  0  0  0
 11 12  1  0  0  0  0
 11 35  1  0  0  0  0
 12 13  2  0  0  0  0
 12 36  1  0  0  0  0
 13 14  1  0  0  0  0
 13 22  1  0  0  0  0
 14 21  1  0  0  0  0
 14 15  1  0  0  0  0
 15 16  1  0  0  0  0
 15 37  1  0  0  0  0
 15 38  1  0  0  0  0
 16 17  1  0  0  0  0
 16 18  1  0  0  0  0
 16 39  1  0  0  0  0
 17 40  1  0  0  0  0
 17 41  1  0  0  0  0
 17 42  1  0  0  0  0
 18 19  1  0  0  0  0
 19 20  1  0  0  0  0
 19 21  1  0  0  0  0
 19 43  1  0  0  0  0
 20 44  1  0  0  0  0
 20 45  1  0  0  0  0
 20 46  1  0  0  0  0
 21 47  1  0  0  0  0
 21 48  1  0  0  0  0
 22 23  2  0  0  0  0
 23 49  1  0  0  0  0
M  END
> <s_m_source_file>
AV-unprocessed.smi

> <i_m_source_file_index>
1983

> <i_lp_mmshare_version>
43012

> <i_f3d_flags>
0

> <s_epik_input>
W09IXVtDSDJdW0NAQEhdKFtDSDNdKVtOSF1DKD1PKVtOSF1bQ0gyXWMxW2NIXVtjSF1jKG5bY0hdMSlOMltDSDJdW0NAQEhdKFtDSDNdKU9bQ0BASF0oW0NIM10pW0NIMl0y

> <s_epik_cmdline>
J2VwaWtfcHl0aG9uJywgJy1waCcsICc3LjAnLCAnLXRuJywgJzgnLCAnLW1hJywgJzIwMCcsICctbWV0YWxfYmluZGluZycsICctaW1hZScsICc8aW5maWxlLm1hZT4nLCAnLW9tYWUnLCAnPG91dGZpbGUubWFlPic=

> <r_lp_tautomer_probability>
1

> <r_epik_Ionization_Penalty>
0.00801967

> <r_epik_Ionization_Penalty_Charging>
0

> <r_epik_Ionization_Penalty_Neutral>
0.00801967

> <r_epik_State_Penalty>
0.00598289

> <r_epik_Charging_Adjusted_Penalty>
0.00598289

> <i_epik_Tot_Q>
0

> <i_epik_Tot_abs_Q>
0

> <r_epik_Metal_State_Penalty>
0.00590297

> <b_epik_Metal_Only>
0

> <s_lp_Force_Field>
OPLS_2005

> <r_lp_Energy>
11.3831

> <b_lp_Chiralities_Consistent>
1

> <s_lp_Variant>
AV-unprocessed.smi:1983-2

> <Gold.Version>
5.8.1

> <Gold.Id.Protein>
6NUR|6NUR_protein|mol2

> <Gold.PLP.Fitness>
47.7622

> <Gold.PLP.PLP>
-36.1339

> <Gold.PLP.part.hbond>
-3.9840

> <Gold.PLP.part.metal>
0.0000

> <Gold.PLP.part.buried>
-2.8039

> <Gold.PLP.part.nonpolar>
-30.5645

> <Gold.PLP.part.repulsive>
0.8863

> <Gold.PLP.ligand.clash>
0.0000

> <Gold.PLP.ligand.torsion>
0.8001

> <Gold.PLP.Chemscore.Hbond>
3.4820

> <Gold.PLP.Chemscore.CHOScore>
0.8142

> <Gold.PLP.Chemscore.Metal>
0.0000

> <Gold.Chemscore.Hbonds>
donor molecule, donor type, donor heavy atom, donor atom, acceptor molecule, acceptor atom, score
      L1  H     4    30       P1  7948  1.00
      L1  H     5    31       P1  7948  1.00
      L1  H     8    32       P1  7948  0.80
      P1  H  7989  7998       L1    22  0.65
      L1  C    23    49       P1  7957  0.83

> <Gold.PLP.Chemscore.Internal.Correction>
0.3399

> <Gold.Rescore>
     Score         DG    S(hbond)    S(metal)    S(lipo)     H(rot)  DE(clash)    DE(int)     intcor
     15.54     -17.70       2.42        0.00      92.43       2.61       0.44       1.73       ----

> <Gold.Chemscore.Fitness>
15.5360

> <Gold.Chemscore.DG>
-17.7043

> <Gold.Chemscore.ZeroCoef>
-5.4800

> <Gold.Chemscore.Hbond>
2.4226

> <Gold.Chemscore.Metal>
0.0000

> <Gold.Chemscore.Lipo>
92.4260

> <Gold.Chemscore.Internal_Hbond>
0.0000

> <Gold.Chemscore.DEClash>
0.4354

> <Gold.Chemscore.DEInternal>
1.7330

> <Gold.Chemscore.Rot>
2.6097

> <Gold.Chemscore.Internal.Correction>
   9.000000E+99

> <Gold.Chemscore.Hbonds>
donor molecule, donor type, donor heavy atom, donor atom, acceptor molecule, acceptor atom, score
      L1  H     4    30       P1  7948  0.45
      L1  H     5    31       P1  7948  0.95
      L1  H     8    32       P1  7948  0.76
      P1  H  7989  7998       L1    22  0.05

> <Gold.Chemscore.Hbond.Weighted>
-8.0914

> <Gold.Chemscore.Metal.Weighted>
-0.0000

> <Gold.Chemscore.Lipo.Weighted>
-10.8138

> <Gold.Chemscore.Internal_Hbond.Weighted>
0.0000

> <Gold.Chemscore.DEClash.Weighted>
0.4354

> <Gold.Chemscore.DEInternal.Weighted>
1.7330

> <Gold.Chemscore.Rot.Weighted>
6.6809

> <Gold.Chemscore.Internal.Correction.Weighted>
   9.000000E+99

> <Gold.Protein.RotatedTorsions>
[ 6907 6896 6895 6894 ] final   42.57 input  -60.11 | X-H torsion
[ 7974 7965 7964 7962 ] final  152.74 input  175.53 | X-H torsion
[ 8008 7997 7996 7995 ] final -144.24 input   59.86 | X-H torsion
[ 10167 10162 10161 10158 ] final   22.87 input  -65.29 | X-H torsion
[ 10718 10713 10712 10709 ] final   77.13 input   66.30 | X-H torsion
[ 10763 10752 10751 10750 ] final  144.85 input  -60.55 | X-H torsion
[ 11005 11000 10999 10996 ] final  105.73 input  -57.11 | X-H torsion

> <Gold.Protein.ActiveResidues>
 VAL166  LYS551  ARG553  GLY616  TRP617  ASP618  TYR619  PRO620  LYS621  CYS622 
 ASP623  PHE694  ASN695  SER759  ASP760  ASP761  ALA762  ILE779  LEU786  VAL792 
 PHE793  MET794  SER795  GLU796  ALA797  LYS798  CYS799  TRP800  GLU811  SER814 

> <Gold.Protein.RotatedAtoms>
  152.2095  134.8515  160.0498 H   0  0  0  0  0  0  0  0  0  0  0  0  # atno 6907 bound_to 6896
  151.9338  133.3613  159.3948 H   0  0  0  0  0  0  0  0  0  0  0  0  # atno 6908 bound_to 6896
  150.6973  134.4434  159.5347 H   0  0  0  0  0  0  0  0  0  0  0  0  # atno 6909 bound_to 6896
  144.8202  139.6708  143.6104 H   0  0  0  0  0  0  0  0  0  0  0  0  # atno 7974 bound_to 7965
  155.5237  140.0593  157.2902 H   0  0  0  0  0  0  0  0  0  0  0  0  # atno 8008 bound_to 7997
  154.4508  140.1948  156.0470 H   0  0  0  0  0  0  0  0  0  0  0  0  # atno 8009 bound_to 7997
  156.0701  140.3261  155.7569 H   0  0  0  0  0  0  0  0  0  0  0  0  # atno 8010 bound_to 7997
  140.5314  143.9835  150.6467 H   0  0  0  0  0  0  0  0  0  0  0  0  # atno 10167 bound_to 10162
  157.6699  130.9807  150.1597 H   0  0  0  0  0  0  0  0  0  0  0  0  # atno 10718 bound_to 10713
  153.9957  135.2928  155.3407 H   0  0  0  0  0  0  0  0  0  0  0  0  # atno 10763 bound_to 10752
  154.7189  135.5118  153.8783 H   0  0  0  0  0  0  0  0  0  0  0  0  # atno 10764 bound_to 10752
  153.0789  135.6672  154.0204 H   0  0  0  0  0  0  0  0  0  0  0  0  # atno 10765 bound_to 10752
  139.8805  134.9345  156.5558 H   0  0  0  0  0  0  0  0  0  0  0  0  # atno 11005 bound_to 11000
  146.2507  139.6193  142.9429 LP  0  0  0  0  0  0  0  0  0  0  0  0  # atno 17320 bound_to 7965
  145.5123  141.0435  143.2481 LP  0  0  0  0  0  0  0  0  0  0  0  0  # atno 17321 bound_to 7965
  140.3211  143.3136  152.0783 LP  0  0  0  0  0  0  0  0  0  0  0  0  # atno 17342 bound_to 10162
  139.4955  144.6573  151.6544 LP  0  0  0  0  0  0  0  0  0  0  0  0  # atno 17343 bound_to 10162
  156.2376  130.3688  149.8373 LP  0  0  0  0  0  0  0  0  0  0  0  0  # atno 17370 bound_to 10713
  156.6182  130.8615  151.3469 LP  0  0  0  0  0  0  0  0  0  0  0  0  # atno 17371 bound_to 10713
  140.8206  133.8357  155.8892 LP  0  0  0  0  0  0  0  0  0  0  0  0  # atno 17394 bound_to 11000
  140.9422  134.1886  157.4789 LP  0  0  0  0  0  0  0  0  0  0  0  0  # atno 17395 bound_to 11000

$$$$
