AV-unprocessed.smi:2445|AV-procd|sdf|9637|dock4
  -GOLD-   2272013273D 1   1.00000     0.00000
 Structure written by MMmdl.
 40 41  0  0  0  0  0  0  0  0  1 V2000
  145.4519  130.8139  150.7393 C   0  0  0  0  0  0  0  0  0  0  0  0
  145.5710  132.2329  151.1812 C   0  0  0  0  0  0  0  0  0  0  0  0
  146.7136  132.9152  151.5180 C   0  0  0  0  0  0  0  0  0  0  0  0
  146.4892  134.2411  151.8951 N   0  0  0  0  0  0  0  0  0  0  0  0
  145.1970  134.5754  151.8507 C   0  0  0  0  0  0  0  0  0  0  0  0
  144.6848  135.9361  152.2097 C   0  0  2  0  0  0  0  0  0  0  0  0
  143.1586  136.0226  152.0362 C   0  0  0  0  0  0  0  0  0  0  0  0
  145.4568  137.0419  151.4572 C   0  0  0  0  0  0  0  0  0  0  0  0
  146.7152  137.3980  152.1057 N   0  0  0  0  0  0  0  0  0  0  0  0
  146.8256  138.1461  153.2119 C   0  0  0  0  0  0  0  0  0  0  0  0
  145.8686  138.6297  153.8165 O   0  0  0  0  0  0  0  0  0  0  0  0
  148.1049  138.2976  153.5825 N   0  0  0  0  0  0  0  0  0  0  0  0
  148.5650  139.0586  154.7446 C   0  0  2  0  0  0  0  0  0  0  0  0
  148.2002  140.5355  154.5965 C   0  0  0  0  0  0  0  0  0  0  0  0
  149.5049  141.2741  154.8773 C   0  0  0  0  0  0  0  0  0  0  0  0
  150.4967  140.3582  154.4492 O   0  0  0  0  0  0  0  0  0  0  0  0
  150.1031  139.0738  154.9092 C   0  0  2  0  0  0  0  0  0  0  0  0
  150.9108  137.9838  154.1859 C   0  0  0  0  0  0  0  0  0  0  0  0
  144.1613  133.2493  151.3265 S   0  0  0  0  0  0  0  0  0  0  0  0
  146.4172  130.3085  150.7773 H   0  0  0  0  0  0  0  0  0  0  0  0
  145.0822  130.7577  149.7155 H   0  0  0  0  0  0  0  0  0  0  0  0
  144.7601  130.2664  151.3798 H   0  0  0  0  0  0  0  0  0  0  0  0
  147.7249  132.5357  151.5193 H   0  0  0  0  0  0  0  0  0  0  0  0
  144.8843  136.0701  153.2741 H   0  0  0  0  0  0  0  0  0  0  0  0
  142.6569  135.2419  152.6089 H   0  0  0  0  0  0  0  0  0  0  0  0
  142.8698  135.9062  150.9914 H   0  0  0  0  0  0  0  0  0  0  0  0
  142.7686  136.9793  152.3839 H   0  0  0  0  0  0  0  0  0  0  0  0
  145.6542  136.7315  150.4295 H   0  0  0  0  0  0  0  0  0  0  0  0
  144.8491  137.9448  151.3927 H   0  0  0  0  0  0  0  0  0  0  0  0
  147.5612  137.0441  151.6836 H   0  0  0  0  0  0  0  0  0  0  0  0
  148.8174  137.8528  153.0226 H   0  0  0  0  0  0  0  0  0  0  0  0
  148.1101  138.6625  155.6546 H   0  0  0  0  0  0  0  0  0  0  0  0
  147.8735  140.7583  153.5795 H   0  0  0  0  0  0  0  0  0  0  0  0
  147.4020  140.8419  155.2729 H   0  0  0  0  0  0  0  0  0  0  0  0
  149.5751  142.2238  154.3468 H   0  0  0  0  0  0  0  0  0  0  0  0
  149.6218  141.4667  155.9450 H   0  0  0  0  0  0  0  0  0  0  0  0
  150.3354  139.0267  155.9746 H   0  0  0  0  0  0  0  0  0  0  0  0
  150.6179  136.9892  154.5228 H   0  0  0  0  0  0  0  0  0  0  0  0
  151.9760  138.0983  154.3860 H   0  0  0  0  0  0  0  0  0  0  0  0
  150.7746  138.0306  153.1054 H   0  0  0  0  0  0  0  0  0  0  0  0
  1  2  1  0  0  0  0
  1 20  1  0  0  0  0
  1 21  1  0  0  0  0
  1 22  1  0  0  0  0
  2 19  1  0  0  0  0
  2  3  2  0  0  0  0
  3  4  1  0  0  0  0
  3 23  1  0  0  0  0
  4  5  2  0  0  0  0
  5  6  1  0  0  0  0
  5 19  1  0  0  0  0
  6  7  1  0  0  0  0
  6  8  1  0  0  0  0
  6 24  1  0  0  0  0
  7 25  1  0  0  0  0
  7 26  1  0  0  0  0
  7 27  1  0  0  0  0
  8  9  1  0  0  0  0
  8 28  1  0  0  0  0
  8 29  1  0  0  0  0
  9 10  1  0  0  0  0
  9 30  1  0  0  0  0
 10 11  2  0  0  0  0
 10 12  1  0  0  0  0
 12 13  1  0  0  0  0
 12 31  1  0  0  0  0
 13 17  1  0  0  0  0
 13 14  1  0  0  0  0
 13 32  1  0  0  0  0
 14 15  1  0  0  0  0
 14 33  1  0  0  0  0
 14 34  1  0  0  0  0
 15 16  1  0  0  0  0
 15 35  1  0  0  0  0
 15 36  1  0  0  0  0
 16 17  1  0  0  0  0
 17 18  1  0  0  0  0
 17 37  1  0  0  0  0
 18 38  1  0  0  0  0
 18 39  1  0  0  0  0
 18 40  1  0  0  0  0
M  END
> <s_m_source_file>
AV-unprocessed.smi

> <i_m_source_file_index>
2445

> <i_lp_mmshare_version>
43012

> <i_f3d_flags>
0

> <s_epik_input>
W0NIM11jMVtjSF1uYyhzMSlbQ0BIXShbQ0gzXSlbQ0gyXVtOSF1DKD1PKVtOSF1bQ0BASF0yW0NIMl1bQ0gyXU9bQ0BIXTJbQ0gzXQ==

> <s_epik_cmdline>
J2VwaWtfcHl0aG9uJywgJy1waCcsICc3LjAnLCAnLXRuJywgJzgnLCAnLW1hJywgJzIwMCcsICctbWV0YWxfYmluZGluZycsICctaW1hZScsICc8aW5maWxlLm1hZT4nLCAnLW9tYWUnLCAnPG91dGZpbGUubWFlPic=

> <r_epik_Ionization_Penalty>
0.000649483

> <r_epik_Ionization_Penalty_Charging>
0

> <r_epik_Ionization_Penalty_Neutral>
0.000649483

> <r_epik_State_Penalty>
0.000379895

> <r_epik_Charging_Adjusted_Penalty>
0.000379895

> <i_epik_Tot_Q>
0

> <i_epik_Tot_abs_Q>
0

> <r_epik_Metal_State_Penalty>
-0

> <b_epik_Metal_Only>
0

> <s_lp_Force_Field>
OPLS_2005

> <r_lp_Energy>
6.28074

> <b_lp_Chiralities_Consistent>
1

> <s_lp_Variant>
AV-unprocessed.smi:2445-5

> <Gold.Version>
5.8.1

> <Gold.Id.Protein>
6NUR|6NUR_protein|mol2

> <Gold.PLP.Fitness>
40.0272

> <Gold.PLP.PLP>
-29.5734

> <Gold.PLP.part.hbond>
-2.7518

> <Gold.PLP.part.metal>
0.0000

> <Gold.PLP.part.buried>
-3.4179

> <Gold.PLP.part.nonpolar>
-24.3449

> <Gold.PLP.part.repulsive>
0.4887

> <Gold.PLP.ligand.clash>
0.0000

> <Gold.PLP.ligand.torsion>
0.4794

> <Gold.PLP.Chemscore.Hbond>
2.7753

> <Gold.PLP.Chemscore.CHOScore>
1.0000

> <Gold.PLP.Chemscore.Metal>
0.0000

> <Gold.Chemscore.Hbonds>
donor molecule, donor type, donor heavy atom, donor atom, acceptor molecule, acceptor atom, score
      L1  H     9    30       P1  7948  1.00
      L1  H    12    31       P1  7948  0.77
      P1  H  7989  7998       L1    16  1.00
      L1  C     3    23       P1 10747  1.00

> <Gold.PLP.Chemscore.Internal.Correction>
0.0869

> <Gold.Rescore>
     Score         DG    S(hbond)    S(metal)    S(lipo)     H(rot)  DE(clash)    DE(int)     intcor
     18.68     -19.96       2.59        0.00      83.28       1.53       0.35       0.94       ----

> <Gold.Chemscore.Fitness>
18.6777

> <Gold.Chemscore.DG>
-19.9639

> <Gold.Chemscore.ZeroCoef>
-5.4800

> <Gold.Chemscore.Hbond>
2.5938

> <Gold.Chemscore.Metal>
0.0000

> <Gold.Chemscore.Lipo>
83.2816

> <Gold.Chemscore.Internal_Hbond>
0.0000

> <Gold.Chemscore.DEClash>
0.3485

> <Gold.Chemscore.DEInternal>
0.9377

> <Gold.Chemscore.Rot>
1.5325

> <Gold.Chemscore.Internal.Correction>
   9.000000E+99

> <Gold.Chemscore.Hbonds>
donor molecule, donor type, donor heavy atom, donor atom, acceptor molecule, acceptor atom, score
      L1  H     9    30       P1  7948  0.93
      L1  H    12    31       P1  7948  0.74
      P1  H  7989  7998       L1    16  0.90

> <Gold.Chemscore.Hbond.Weighted>
-8.6633

> <Gold.Chemscore.Metal.Weighted>
-0.0000

> <Gold.Chemscore.Lipo.Weighted>
-9.7440

> <Gold.Chemscore.Internal_Hbond.Weighted>
0.0000

> <Gold.Chemscore.DEClash.Weighted>
0.3485

> <Gold.Chemscore.DEInternal.Weighted>
0.9377

> <Gold.Chemscore.Rot.Weighted>
3.9233

> <Gold.Chemscore.Internal.Correction.Weighted>
   9.000000E+99

> <Gold.Protein.RotatedTorsions>
[ 6907 6896 6895 6894 ] final   85.18 input  -60.11 | X-H torsion
[ 7974 7965 7964 7962 ] final  -39.09 input  175.53 | X-H torsion
[ 8008 7997 7996 7995 ] final  -36.28 input   59.86 | X-H torsion
[ 10167 10162 10161 10158 ] final  -71.83 input  -65.29 | X-H torsion
[ 10718 10713 10712 10709 ] final   35.04 input   66.30 | X-H torsion
[ 10763 10752 10751 10750 ] final  155.93 input  -60.55 | X-H torsion
[ 11005 11000 10999 10996 ] final  -13.52 input  -57.11 | X-H torsion

> <Gold.Protein.ActiveResidues>
 VAL166  LYS551  ARG553  GLY616  TRP617  ASP618  TYR619  PRO620  LYS621  CYS622 
 ASP623  PHE694  ASN695  SER759  ASP760  ASP761  ALA762  ILE779  LEU786  VAL792 
 PHE793  MET794  SER795  GLU796  ALA797  LYS798  CYS799  TRP800  GLU811  SER814 

> <Gold.Protein.RotatedAtoms>
  152.5369  134.2626  159.8940 H   0  0  0  0  0  0  0  0  0  0  0  0  # atno 6907 bound_to 6896
  151.2586  133.4307  159.2622 H   0  0  0  0  0  0  0  0  0  0  0  0  # atno 6908 bound_to 6896
  151.0474  134.9663  159.8250 H   0  0  0  0  0  0  0  0  0  0  0  0  # atno 6909 bound_to 6896
  146.0428  140.6586  142.9079 H   0  0  0  0  0  0  0  0  0  0  0  0  # atno 7974 bound_to 7965
  154.4076  140.1635  156.2348 H   0  0  0  0  0  0  0  0  0  0  0  0  # atno 8008 bound_to 7997
  155.9252  140.3418  155.6181 H   0  0  0  0  0  0  0  0  0  0  0  0  # atno 8009 bound_to 7997
  155.7174  140.0764  157.2336 H   0  0  0  0  0  0  0  0  0  0  0  0  # atno 8010 bound_to 7997
  140.5241  143.2328  151.7377 H   0  0  0  0  0  0  0  0  0  0  0  0  # atno 10167 bound_to 10162
  157.3178  130.7432  149.6765 H   0  0  0  0  0  0  0  0  0  0  0  0  # atno 10718 bound_to 10713
  154.1762  135.2802  155.3066 H   0  0  0  0  0  0  0  0  0  0  0  0  # atno 10763 bound_to 10752
  154.6037  135.5521  153.7404 H   0  0  0  0  0  0  0  0  0  0  0  0  # atno 10764 bound_to 10752
  153.0150  135.6398  154.1902 H   0  0  0  0  0  0  0  0  0  0  0  0  # atno 10765 bound_to 10752
  140.7769  133.8393  155.9257 H   0  0  0  0  0  0  0  0  0  0  0  0  # atno 11005 bound_to 11000
  144.7083  140.3938  143.7101 LP  0  0  0  0  0  0  0  0  0  0  0  0  # atno 17320 bound_to 7965
  145.6856  139.1628  143.2676 LP  0  0  0  0  0  0  0  0  0  0  0  0  # atno 17321 bound_to 7965
  139.4933  144.4211  151.9977 LP  0  0  0  0  0  0  0  0  0  0  0  0  # atno 17342 bound_to 10162
  140.3309  144.3317  150.5987 LP  0  0  0  0  0  0  0  0  0  0  0  0  # atno 17343 bound_to 10162
  155.9683  130.4232  150.4551 LP  0  0  0  0  0  0  0  0  0  0  0  0  # atno 17370 bound_to 10713
  157.2562  131.0557  151.2349 LP  0  0  0  0  0  0  0  0  0  0  0  0  # atno 17371 bound_to 10713
  140.9520  134.1767  157.4720 LP  0  0  0  0  0  0  0  0  0  0  0  0  # atno 17394 bound_to 11000
  139.8748  134.9912  156.5541 LP  0  0  0  0  0  0  0  0  0  0  0  0  # atno 17395 bound_to 11000

$$$$
