AV-unprocessed.smi:2736|AV-procd|sdf|10545|dock9
  -GOLD-   2272014593D 1   1.00000     0.00000
 Structure written by MMmdl.
 38 40  0  0  0  0  0  0  0  0  1 V2000
  151.5821  142.0866  158.3612 C   0  0  0  0  0  0  0  0  0  0  0  0
  151.3460  141.0846  157.3050 N   0  0  0  0  0  0  0  0  0  0  0  0
  150.2996  141.2857  156.4438 C   0  0  0  0  0  0  0  0  0  0  0  0
  149.5310  142.2468  156.4790 O   0  0  0  0  0  0  0  0  0  0  0  0
  150.1522  140.2345  155.4345 C   0  0  0  0  0  0  0  0  0  0  0  0
  150.9782  139.1636  155.3583 C   0  0  0  0  0  0  0  0  0  0  0  0
  150.6208  138.3216  154.3112 N   0  0  0  0  0  0  0  0  0  0  0  0
  149.5620  138.9508  153.7988 C   0  0  0  0  0  0  0  0  0  0  0  0
  149.2135  140.1000  154.4138 N   0  0  0  0  0  0  0  0  0  0  0  0
  148.1013  140.9687  154.0573 C   0  0  0  0  0  0  0  0  0  0  0  0
  147.0321  141.0610  155.1656 C   0  0  2  0  0  0  0  0  0  0  0  0
  146.3309  139.8341  155.2535 O   0  0  0  0  0  0  0  0  0  0  0  0
  146.0959  142.2438  154.9286 C   0  0  0  0  0  0  0  0  0  0  0  0
  146.2282  143.0015  153.7417 C   0  0  0  0  0  0  0  0  0  0  0  0
  145.3880  144.1030  153.4934 C   0  0  0  0  0  0  0  0  0  0  0  0
  144.4056  144.4623  154.4330 C   0  0  0  0  0  0  0  0  0  0  0  0
  144.2697  143.7216  155.6213 C   0  0  0  0  0  0  0  0  0  0  0  0
  145.1091  142.6183  155.8767 C   0  0  0  0  0  0  0  0  0  0  0  0
  144.8987  141.7608  157.3630 Cl  0  0  0  0  0  0  0  0  0  0  0  0
  152.0315  139.0497  156.2992 N   0  0  0  0  0  0  0  0  0  0  0  0
  152.9022  137.8756  156.1895 C   0  0  0  0  0  0  0  0  0  0  0  0
  152.2137  140.0054  157.2698 C   0  0  0  0  0  0  0  0  0  0  0  0
  153.1294  139.9029  158.0906 O   0  0  0  0  0  0  0  0  0  0  0  0
  150.8939  142.9325  158.3546 H   0  0  0  0  0  0  0  0  0  0  0  0
  152.5857  142.5057  158.2714 H   0  0  0  0  0  0  0  0  0  0  0  0
  151.4979  141.6262  159.3468 H   0  0  0  0  0  0  0  0  0  0  0  0
  149.0187  138.5601  152.9509 H   0  0  0  0  0  0  0  0  0  0  0  0
  148.4926  141.9576  153.8180 H   0  0  0  0  0  0  0  0  0  0  0  0
  147.6547  140.5905  153.1365 H   0  0  0  0  0  0  0  0  0  0  0  0
  147.5294  141.1734  156.1277 H   0  0  0  0  0  0  0  0  0  0  0  0
  146.7594  139.2040  154.6944 H   0  0  0  0  0  0  0  0  0  0  0  0
  146.9820  142.7422  153.0127 H   0  0  0  0  0  0  0  0  0  0  0  0
  145.4991  144.6729  152.5825 H   0  0  0  0  0  0  0  0  0  0  0  0
  143.7596  145.3071  154.2448 H   0  0  0  0  0  0  0  0  0  0  0  0
  143.5175  144.0041  156.3430 H   0  0  0  0  0  0  0  0  0  0  0  0
  153.7062  137.8389  156.9250 H   0  0  0  0  0  0  0  0  0  0  0  0
  153.3657  137.8490  155.2029 H   0  0  0  0  0  0  0  0  0  0  0  0
  152.3141  136.9648  156.3067 H   0  0  0  0  0  0  0  0  0  0  0  0
  1  2  1  0  0  0  0
  1 24  1  0  0  0  0
  1 25  1  0  0  0  0
  1 26  1  0  0  0  0
  2 22  1  0  0  0  0
  2  3  1  0  0  0  0
  3  4  2  0  0  0  0
  3  5  1  0  0  0  0
  5  9  1  0  0  0  0
  5  6  2  0  0  0  0
  6  7  1  0  0  0  0
  6 20  1  0  0  0  0
  7  8  2  0  0  0  0
  8  9  1  0  0  0  0
  8 27  1  0  0  0  0
  9 10  1  0  0  0  0
 10 11  1  0  0  0  0
 10 28  1  0  0  0  0
 10 29  1  0  0  0  0
 11 12  1  0  0  0  0
 11 13  1  0  0  0  0
 11 30  1  0  0  0  0
 12 31  1  0  0  0  0
 13 18  1  0  0  0  0
 13 14  2  0  0  0  0
 14 15  1  0  0  0  0
 14 32  1  0  0  0  0
 15 16  2  0  0  0  0
 15 33  1  0  0  0  0
 16 17  1  0  0  0  0
 16 34  1  0  0  0  0
 17 18  2  0  0  0  0
 17 35  1  0  0  0  0
 18 19  1  0  0  0  0
 20 21  1  0  0  0  0
 20 22  1  0  0  0  0
 21 36  1  0  0  0  0
 21 37  1  0  0  0  0
 21 38  1  0  0  0  0
 22 23  2  0  0  0  0
M  END
> <s_m_source_file>
AV-unprocessed.smi

> <i_m_source_file_index>
2736

> <i_lp_mmshare_version>
43012

> <i_f3d_flags>
0

> <s_epik_input>
Tz1jMW4oW0NIM10pYyg9TyluKFtDSDNdKWMoYzEyKW5bY0hdbjJbQ0gyXVtDQEhdKFtPSF0pYzNbY0hdW2NIXVtjSF1bY0hdYzNDbA==

> <s_epik_cmdline>
J2VwaWtfcHl0aG9uJywgJy1waCcsICc3LjAnLCAnLXRuJywgJzgnLCAnLW1hJywgJzIwMCcsICctbWV0YWxfYmluZGluZycsICctaW1hZScsICc8aW5maWxlLm1hZT4nLCAnLW9tYWUnLCAnPG91dGZpbGUubWFlPic=

> <r_lp_tautomer_probability>
1

> <r_epik_Ionization_Penalty>
1.63404e-06

> <r_epik_Ionization_Penalty_Charging>
3.74189e-09

> <r_epik_Ionization_Penalty_Neutral>
1.63029e-06

> <r_epik_State_Penalty>
-0

> <r_epik_Charging_Adjusted_Penalty>
3.74189e-09

> <i_epik_Tot_Q>
0

> <i_epik_Tot_abs_Q>
0

> <r_epik_Metal_State_Penalty>
-0

> <b_epik_Metal_Only>
0

> <s_lp_Force_Field>
OPLS_2005

> <r_lp_Energy>
36.4155

> <b_lp_Chiralities_Consistent>
1

> <s_lp_Variant>
AV-unprocessed.smi:2736-1

> <Gold.Version>
5.8.1

> <Gold.Id.Protein>
6NUR|6NUR_protein|mol2

> <Gold.PLP.Fitness>
43.0194

> <Gold.PLP.PLP>
-35.8169

> <Gold.PLP.part.hbond>
-1.0000

> <Gold.PLP.part.metal>
0.0000

> <Gold.PLP.part.buried>
-3.9579

> <Gold.PLP.part.nonpolar>
-34.4619

> <Gold.PLP.part.repulsive>
3.1960

> <Gold.PLP.ligand.clash>
0.0000

> <Gold.PLP.ligand.torsion>
0.1412

> <Gold.PLP.Chemscore.Hbond>
1.0000

> <Gold.PLP.Chemscore.CHOScore>
1.4894

> <Gold.PLP.Chemscore.Metal>
0.0000

> <Gold.Chemscore.Hbonds>
donor molecule, donor type, donor heavy atom, donor atom, acceptor molecule, acceptor atom, score
      P1  H  7997  8010       L1    23  1.00
      L1  C     8    27       P1  7948  0.98
      L1  C     8    27       P1  7957  0.49

> <Gold.PLP.Chemscore.Internal.Correction>
0.0166

> <Gold.Rescore>
     Score         DG    S(hbond)    S(metal)    S(lipo)     H(rot)  DE(clash)    DE(int)     intcor
      7.89     -10.67       0.88        0.00      66.21       2.15       2.60       0.18       ----

> <Gold.Chemscore.Fitness>
7.8931

> <Gold.Chemscore.DG>
-10.6722

> <Gold.Chemscore.ZeroCoef>
-5.4800

> <Gold.Chemscore.Hbond>
0.8811

> <Gold.Chemscore.Metal>
0.0000

> <Gold.Chemscore.Lipo>
66.2100

> <Gold.Chemscore.Internal_Hbond>
0.0000

> <Gold.Chemscore.DEClash>
2.5961

> <Gold.Chemscore.DEInternal>
0.1829

> <Gold.Chemscore.Rot>
2.1474

> <Gold.Chemscore.Internal.Correction>
   9.000000E+99

> <Gold.Chemscore.Hbonds>
donor molecule, donor type, donor heavy atom, donor atom, acceptor molecule, acceptor atom, score
      P1  H  7997  8010       L1    23  0.25

> <Gold.Chemscore.Hbond.Weighted>
-2.9429

> <Gold.Chemscore.Metal.Weighted>
-0.0000

> <Gold.Chemscore.Lipo.Weighted>
-7.7466

> <Gold.Chemscore.Internal_Hbond.Weighted>
0.0000

> <Gold.Chemscore.DEClash.Weighted>
2.5961

> <Gold.Chemscore.DEInternal.Weighted>
0.1829

> <Gold.Chemscore.Rot.Weighted>
5.4974

> <Gold.Chemscore.Internal.Correction.Weighted>
   9.000000E+99

> <Gold.Protein.RotatedTorsions>
[ 6907 6896 6895 6894 ] final  -54.79 input  -60.11 | X-H torsion
[ 7974 7965 7964 7962 ] final  134.49 input  175.53 | X-H torsion
[ 8008 7997 7996 7995 ] final   38.02 input   59.86 | X-H torsion
[ 10167 10162 10161 10158 ] final -108.31 input  -65.29 | X-H torsion
[ 10718 10713 10712 10709 ] final  -36.51 input   66.30 | X-H torsion
[ 10763 10752 10751 10750 ] final   -9.39 input  -60.55 | X-H torsion
[ 11005 11000 10999 10996 ] final -124.70 input  -57.11 | X-H torsion

> <Gold.Protein.ActiveResidues>
 VAL166  LYS551  ARG553  GLY616  TRP617  ASP618  TYR619  PRO620  LYS621  CYS622 
 ASP623  PHE694  ASN695  SER759  ASP760  ASP761  ALA762  ILE779  LEU786  VAL792 
 PHE793  MET794  SER795  GLU796  ALA797  LYS798  CYS799  TRP800  GLU811  SER814 

> <Gold.Protein.RotatedAtoms>
  150.8307  134.7559  159.6850 H   0  0  0  0  0  0  0  0  0  0  0  0  # atno 6907 bound_to 6896
  152.4412  134.5584  159.9897 H   0  0  0  0  0  0  0  0  0  0  0  0  # atno 6908 bound_to 6896
  151.5746  133.3348  159.3032 H   0  0  0  0  0  0  0  0  0  0  0  0  # atno 6909 bound_to 6896
  144.9758  139.4556  143.5410 H   0  0  0  0  0  0  0  0  0  0  0  0  # atno 7974 bound_to 7965
  155.2133  140.3325  155.4326 H   0  0  0  0  0  0  0  0  0  0  0  0  # atno 8008 bound_to 7997
  156.2362  140.1873  156.7161 H   0  0  0  0  0  0  0  0  0  0  0  0  # atno 8009 bound_to 7997
  154.6063  140.0615  156.9421 H   0  0  0  0  0  0  0  0  0  0  0  0  # atno 8010 bound_to 7997
  140.1675  143.4069  152.1379 H   0  0  0  0  0  0  0  0  0  0  0  0  # atno 10167 bound_to 10162
  156.3260  130.4272  149.7916 H   0  0  0  0  0  0  0  0  0  0  0  0  # atno 10718 bound_to 10713
  153.4540  135.7015  153.6091 H   0  0  0  0  0  0  0  0  0  0  0  0  # atno 10763 bound_to 10752
  153.4413  135.3779  155.2230 H   0  0  0  0  0  0  0  0  0  0  0  0  # atno 10764 bound_to 10752
  154.8728  135.3974  154.3957 H   0  0  0  0  0  0  0  0  0  0  0  0  # atno 10765 bound_to 10752
  140.9820  134.0659  157.3753 H   0  0  0  0  0  0  0  0  0  0  0  0  # atno 11005 bound_to 11000
  146.3395  139.9000  142.8796 LP  0  0  0  0  0  0  0  0  0  0  0  0  # atno 17320 bound_to 7965
  145.2492  141.0037  143.3891 LP  0  0  0  0  0  0  0  0  0  0  0  0  # atno 17321 bound_to 7965
  139.5353  144.7202  151.4916 LP  0  0  0  0  0  0  0  0  0  0  0  0  # atno 17342 bound_to 10162
  140.6603  143.8512  150.6880 LP  0  0  0  0  0  0  0  0  0  0  0  0  # atno 17343 bound_to 10162
  156.5207  130.8213  151.3202 LP  0  0  0  0  0  0  0  0  0  0  0  0  # atno 17370 bound_to 10713
  157.7421  130.9884  150.2493 LP  0  0  0  0  0  0  0  0  0  0  0  0  # atno 17371 bound_to 10713
  139.8954  135.0141  156.7001 LP  0  0  0  0  0  0  0  0  0  0  0  0  # atno 17394 bound_to 11000
  140.7171  133.9172  155.8122 LP  0  0  0  0  0  0  0  0  0  0  0  0  # atno 17395 bound_to 11000

$$$$
