AV-unprocessed.smi:3314|AV-procd|sdf|12732|dock7
  -GOLD-   2272019 73D 1   1.00000     0.00000
 Structure written by MMmdl.
 38 39  0  0  0  0  0  0  0  0  2 V2000
  154.4410  140.3420  160.2471 C   0  0  0  0  0  0  0  0  0  0  0  0
  153.2619  141.2453  159.9513 C   0  0  0  0  0  0  0  0  0  0  0  0
  153.2047  142.5535  160.4685 C   0  0  0  0  0  0  0  0  0  0  0  0
  152.0796  143.3425  160.1587 C   0  0  0  0  0  0  0  0  0  0  0  0
  151.9535  144.7585  160.6802 C   0  0  0  0  0  0  0  0  0  0  0  0
  151.0589  142.9015  159.3925 N   0  0  0  0  0  0  0  0  0  0  0  0
  151.1026  141.6423  158.8911 C   0  0  0  0  0  0  0  0  0  0  0  0
  150.0823  141.0844  158.0767 N   0  0  0  0  0  0  0  0  0  0  0  0
  148.9531  141.6701  157.6362 C   0  0  0  0  0  0  0  0  0  0  0  0
  148.6174  142.8260  157.8990 O   0  0  0  0  0  0  0  0  0  0  0  0
  148.0573  140.7839  156.7494 C   0  0  1  0  0  0  0  0  0  0  0  0
  146.7858  141.4812  156.2084 C   0  0  0  0  0  0  0  0  0  0  0  0
  147.1183  142.4747  155.1594 N   0  3  2  0  0  0  0  0  0  0  0  0
  145.9283  143.1907  154.6533 C   0  0  0  0  0  0  0  0  0  0  0  0
  147.9151  141.8528  154.0784 C   0  0  0  0  0  0  0  0  0  0  0  0
  149.1763  141.1918  154.6576 C   0  0  0  0  0  0  0  0  0  0  0  0
  148.8064  140.2421  155.6574 O   0  0  0  0  0  0  0  0  0  0  0  0
  152.1965  140.7868  159.1507 C   0  0  0  0  0  0  0  0  0  0  0  0
  155.1876  140.8508  160.8576 H   0  0  0  0  0  0  0  0  0  0  0  0
  154.9176  140.0256  159.3191 H   0  0  0  0  0  0  0  0  0  0  0  0
  154.1094  139.4531  160.7840 H   0  0  0  0  0  0  0  0  0  0  0  0
  154.0015  142.9421  161.0863 H   0  0  0  0  0  0  0  0  0  0  0  0
  152.7811  145.0111  161.3438 H   0  0  0  0  0  0  0  0  0  0  0  0
  151.0238  144.8769  161.2375 H   0  0  0  0  0  0  0  0  0  0  0  0
  151.9515  145.4678  159.8522 H   0  0  0  0  0  0  0  0  0  0  0  0
  150.2251  140.1238  157.8006 H   0  0  0  0  0  0  0  0  0  0  0  0
  147.7402  139.9434  157.3682 H   0  0  0  0  0  0  0  0  0  0  0  0
  146.1096  140.7329  155.7919 H   0  0  0  0  0  0  0  0  0  0  0  0
  146.2452  141.9690  157.0211 H   0  0  0  0  0  0  0  0  0  0  0  0
  145.2407  142.5059  154.1548 H   0  0  0  0  0  0  0  0  0  0  0  0
  146.2196  143.9630  153.9408 H   0  0  0  0  0  0  0  0  0  0  0  0
  145.3955  143.6760  155.4716 H   0  0  0  0  0  0  0  0  0  0  0  0
  147.3093  141.1101  153.5569 H   0  0  0  0  0  0  0  0  0  0  0  0
  148.1970  142.6087  153.3447 H   0  0  0  0  0  0  0  0  0  0  0  0
  149.7195  140.6722  153.8682 H   0  0  0  0  0  0  0  0  0  0  0  0
  149.8586  141.9415  155.0601 H   0  0  0  0  0  0  0  0  0  0  0  0
  152.2204  139.7859  158.7440 H   0  0  0  0  0  0  0  0  0  0  0  0
  147.7099  143.1678  155.5965 H   0  0  0  0  0  0  0  0  0  0  0  0
  1  2  1  0  0  0  0
  1 19  1  0  0  0  0
  1 20  1  0  0  0  0
  1 21  1  0  0  0  0
  2 18  1  0  0  0  0
  2  3  2  0  0  0  0
  3  4  1  0  0  0  0
  3 22  1  0  0  0  0
  4  5  1  0  0  0  0
  4  6  2  0  0  0  0
  5 23  1  0  0  0  0
  5 24  1  0  0  0  0
  5 25  1  0  0  0  0
  6  7  1  0  0  0  0
  7  8  1  0  0  0  0
  7 18  2  0  0  0  0
  8  9  1  0  0  0  0
  8 26  1  0  0  0  0
  9 10  2  0  0  0  0
  9 11  1  0  0  0  0
 11 17  1  0  0  0  0
 11 12  1  0  0  0  0
 11 27  1  0  0  0  0
 12 13  1  0  0  0  0
 12 28  1  0  0  0  0
 12 29  1  0  0  0  0
 13 14  1  0  0  0  0
 13 15  1  0  0  0  0
 13 38  1  0  0  0  0
 14 30  1  0  0  0  0
 14 31  1  0  0  0  0
 14 32  1  0  0  0  0
 15 16  1  0  0  0  0
 15 33  1  0  0  0  0
 15 34  1  0  0  0  0
 16 17  1  0  0  0  0
 16 35  1  0  0  0  0
 16 36  1  0  0  0  0
 18 37  1  0  0  0  0
M  CHG  1  13   1
M  END
> <s_m_source_file>
AV-unprocessed.smi

> <i_m_source_file_index>
3314

> <i_lp_mmshare_version>
43012

> <i_f3d_flags>
0

> <s_epik_input>
W0NIM11jMVtjSF1jKFtDSDNdKW5jKFtjSF0xKVtOSF1DKD1PKVtDQEBIXTJbQ0gyXU4oW0NIM10pW0NIMl1bQ0gyXU8y

> <s_epik_cmdline>
J2VwaWtfcHl0aG9uJywgJy1waCcsICc3LjAnLCAnLXRuJywgJzgnLCAnLW1hJywgJzIwMCcsICctbWV0YWxfYmluZGluZycsICctaW1hZScsICc8aW5maWxlLm1hZT4nLCAnLW9tYWUnLCAnPG91dGZpbGUubWFlPic=

> <r_epik_Ionization_Penalty>
0.32442

> <r_epik_Ionization_Penalty_Charging>
0.314023

> <r_epik_Ionization_Penalty_Neutral>
0.0103972

> <r_epik_State_Penalty>
0.29453

> <r_epik_Charging_Adjusted_Penalty>
0.608553

> <i_epik_Tot_Q>
1

> <i_epik_Tot_abs_Q>
1

> <r_epik_Metal_State_Penalty>
0.286909

> <b_epik_Metal_Only>
0

> <s_lp_Force_Field>
OPLS_2005

> <r_lp_Energy>
14.9445

> <b_lp_Chiralities_Consistent>
1

> <s_lp_Variant>
AV-unprocessed.smi:3314-2

> <Gold.Version>
5.8.1

> <Gold.Id.Protein>
6NUR|6NUR_protein|mol2

> <Gold.PLP.Fitness>
40.7924

> <Gold.PLP.PLP>
-34.8655

> <Gold.PLP.part.hbond>
-1.1163

> <Gold.PLP.part.metal>
0.0000

> <Gold.PLP.part.buried>
-5.7856

> <Gold.PLP.part.nonpolar>
-29.4723

> <Gold.PLP.part.repulsive>
1.6083

> <Gold.PLP.ligand.clash>
0.0000

> <Gold.PLP.ligand.torsion>
0.0473

> <Gold.PLP.Chemscore.Hbond>
2.0000

> <Gold.PLP.Chemscore.CHOScore>
0.0000

> <Gold.PLP.Chemscore.Metal>
0.0000

> <Gold.Chemscore.Hbonds>
donor molecule, donor type, donor heavy atom, donor atom, acceptor molecule, acceptor atom, score
      L1  H    13    38       P1  8028  2.00

> <Gold.PLP.Chemscore.Internal.Correction>
0.0216

> <Gold.Rescore>
     Score         DG    S(hbond)    S(metal)    S(lipo)     H(rot)  DE(clash)    DE(int)     intcor
     13.69     -15.78       0.85        0.00      85.57       1.00       0.49       1.60       ----

> <Gold.Chemscore.Fitness>
13.6900

> <Gold.Chemscore.DG>
-15.7767

> <Gold.Chemscore.ZeroCoef>
-5.4800

> <Gold.Chemscore.Hbond>
0.8519

> <Gold.Chemscore.Metal>
0.0000

> <Gold.Chemscore.Lipo>
85.5661

> <Gold.Chemscore.Internal_Hbond>
0.0000

> <Gold.Chemscore.DEClash>
0.4863

> <Gold.Chemscore.DEInternal>
1.6003

> <Gold.Chemscore.Rot>
1.0000

> <Gold.Chemscore.Internal.Correction>
   9.000000E+99

> <Gold.Chemscore.Hbonds>
donor molecule, donor type, donor heavy atom, donor atom, acceptor molecule, acceptor atom, score
      L1  H    13    38       P1  8028  0.34

> <Gold.Chemscore.Hbond.Weighted>
-2.8454

> <Gold.Chemscore.Metal.Weighted>
-0.0000

> <Gold.Chemscore.Lipo.Weighted>
-10.0112

> <Gold.Chemscore.Internal_Hbond.Weighted>
0.0000

> <Gold.Chemscore.DEClash.Weighted>
0.4863

> <Gold.Chemscore.DEInternal.Weighted>
1.6003

> <Gold.Chemscore.Rot.Weighted>
2.5600

> <Gold.Chemscore.Internal.Correction.Weighted>
   9.000000E+99

> <Gold.Protein.RotatedTorsions>
[ 6907 6896 6895 6894 ] final   33.21 input  -60.11 | X-H torsion
[ 7974 7965 7964 7962 ] final   84.62 input  175.53 | X-H torsion
[ 8008 7997 7996 7995 ] final  -85.54 input   59.86 | X-H torsion
[ 10167 10162 10161 10158 ] final   81.32 input  -65.29 | X-H torsion
[ 10718 10713 10712 10709 ] final  -27.46 input   66.30 | X-H torsion
[ 10763 10752 10751 10750 ] final  170.27 input  -60.55 | X-H torsion
[ 11005 11000 10999 10996 ] final  134.76 input  -57.11 | X-H torsion

> <Gold.Protein.ActiveResidues>
 VAL166  LYS551  ARG553  GLY616  TRP617  ASP618  TYR619  PRO620  LYS621  CYS622 
 ASP623  PHE694  ASN695  SER759  ASP760  ASP761  ALA762  ILE779  LEU786  VAL792 
 PHE793  MET794  SER795  GLU796  ALA797  LYS798  CYS799  TRP800  GLU811  SER814 

> <Gold.Protein.RotatedAtoms>
  152.0852  134.9444  160.0572 H   0  0  0  0  0  0  0  0  0  0  0  0  # atno 6907 bound_to 6896
  152.0717  133.4105  159.4470 H   0  0  0  0  0  0  0  0  0  0  0  0  # atno 6908 bound_to 6896
  150.6836  134.3004  159.4747 H   0  0  0  0  0  0  0  0  0  0  0  0  # atno 6909 bound_to 6896
  145.5963  139.2345  143.2271 H   0  0  0  0  0  0  0  0  0  0  0  0  # atno 7974 bound_to 7965
  154.6419  140.0590  156.9855 H   0  0  0  0  0  0  0  0  0  0  0  0  # atno 8008 bound_to 7997
  155.1504  140.3273  155.4414 H   0  0  0  0  0  0  0  0  0  0  0  0  # atno 8009 bound_to 7997
  156.2535  140.1948  156.6616 H   0  0  0  0  0  0  0  0  0  0  0  0  # atno 8010 bound_to 7997
  139.9405  144.6093  150.8256 H   0  0  0  0  0  0  0  0  0  0  0  0  # atno 10167 bound_to 10162
  156.4379  130.4458  149.7072 H   0  0  0  0  0  0  0  0  0  0  0  0  # atno 10718 bound_to 10713
  154.3952  135.2754  155.2131 H   0  0  0  0  0  0  0  0  0  0  0  0  # atno 10763 bound_to 10752
  154.4180  135.6007  153.5996 H   0  0  0  0  0  0  0  0  0  0  0  0  # atno 10764 bound_to 10752
  152.9831  135.5965  154.4212 H   0  0  0  0  0  0  0  0  0  0  0  0  # atno 10765 bound_to 10752
  139.9935  134.9506  156.9912 H   0  0  0  0  0  0  0  0  0  0  0  0  # atno 11005 bound_to 11000
  146.1609  140.6788  142.9278 LP  0  0  0  0  0  0  0  0  0  0  0  0  # atno 17320 bound_to 7965
  144.7329  140.4725  143.6924 LP  0  0  0  0  0  0  0  0  0  0  0  0  # atno 17321 bound_to 7965
  140.7612  143.3169  151.2712 LP  0  0  0  0  0  0  0  0  0  0  0  0  # atno 17342 bound_to 10162
  139.6708  144.0023  152.2752 LP  0  0  0  0  0  0  0  0  0  0  0  0  # atno 17343 bound_to 10162
  156.3949  130.7645  151.2649 LP  0  0  0  0  0  0  0  0  0  0  0  0  # atno 17370 bound_to 10713
  157.7507  131.0257  150.3930 LP  0  0  0  0  0  0  0  0  0  0  0  0  # atno 17371 bound_to 10713
  140.4862  134.1239  155.7225 LP  0  0  0  0  0  0  0  0  0  0  0  0  # atno 17394 bound_to 11000
  141.1586  133.8836  157.1911 LP  0  0  0  0  0  0  0  0  0  0  0  0  # atno 17395 bound_to 11000

$$$$
