AV-unprocessed.smi:1086|AV-procd|sdf|4724|dock10
  -GOLD-   22720 3253D 1   1.00000     0.00000
 Structure written by MMmdl.
 41 42  0  0  0  0  0  0  0  0  1 V2000
  151.2968  141.6180  158.0462 C   0  0  0  0  0  0  0  0  0  0  0  0
  151.2967  141.5001  156.6276 O   0  0  0  0  0  0  0  0  0  0  0  0
  150.5498  140.4909  156.0550 C   0  0  0  0  0  0  0  0  0  0  0  0
  149.5732  139.8460  156.8397 C   0  0  0  0  0  0  0  0  0  0  0  0
  148.8106  138.8111  156.2649 C   0  0  0  0  0  0  0  0  0  0  0  0
  149.0565  138.4473  154.9194 C   0  0  0  0  0  0  0  0  0  0  0  0
  148.3520  137.4291  154.2218 N   0  0  0  0  0  0  0  0  0  0  0  0
  147.2608  136.7482  154.6118 C   0  0  0  0  0  0  0  0  0  0  0  0
  146.6590  136.9118  155.6731 O   0  0  0  0  0  0  0  0  0  0  0  0
  146.9054  135.8362  153.6946 N   0  0  0  0  0  0  0  0  0  0  0  0
  145.7621  134.9318  153.8082 C   0  0  0  0  0  0  0  0  0  0  0  0
  144.8397  134.9523  152.5742 C   0  0  0  0  0  0  0  0  0  0  0  0
  143.7530  135.5296  152.6495 O   0  0  0  0  0  0  0  0  0  0  0  0
  145.2518  134.3376  151.4385 N   0  0  0  0  0  0  0  0  0  0  0  0
  146.5125  133.6008  151.2741 C   0  0  0  0  0  0  0  0  0  0  0  0
  146.1944  132.0978  151.1781 C   0  0  0  0  0  0  0  0  0  0  0  0
  145.2096  131.8191  150.0259 C   0  0  0  0  0  0  0  0  0  0  0  0
  143.9794  132.7454  150.0880 C   0  0  0  0  0  0  0  0  0  0  0  0
  144.4009  134.2185  150.2473 C   0  0  0  0  0  0  0  0  0  0  0  0
  150.0438  139.1671  154.2154 C   0  0  0  0  0  0  0  0  0  0  0  0
  150.7787  140.1591  154.7605 N   0  0  0  0  0  0  0  0  0  0  0  0
  151.9264  142.4583  158.3386 H   0  0  0  0  0  0  0  0  0  0  0  0
  151.6998  140.7222  158.5211 H   0  0  0  0  0  0  0  0  0  0  0  0
  150.2936  141.8073  158.4308 H   0  0  0  0  0  0  0  0  0  0  0  0
  149.4097  140.1422  157.8654 H   0  0  0  0  0  0  0  0  0  0  0  0
  148.0509  138.3308  156.8614 H   0  0  0  0  0  0  0  0  0  0  0  0
  148.7702  137.1333  153.3520 H   0  0  0  0  0  0  0  0  0  0  0  0
  147.4538  135.7711  152.8496 H   0  0  0  0  0  0  0  0  0  0  0  0
  146.1458  133.9207  153.9454 H   0  0  0  0  0  0  0  0  0  0  0  0
  145.1926  135.1840  154.7042 H   0  0  0  0  0  0  0  0  0  0  0  0
  147.0037  133.9341  150.3588 H   0  0  0  0  0  0  0  0  0  0  0  0
  147.2360  133.7822  152.0673 H   0  0  0  0  0  0  0  0  0  0  0  0
  147.1119  131.5274  151.0313 H   0  0  0  0  0  0  0  0  0  0  0  0
  145.7632  131.7561  152.1202 H   0  0  0  0  0  0  0  0  0  0  0  0
  145.7223  131.9726  149.0755 H   0  0  0  0  0  0  0  0  0  0  0  0
  144.8964  130.7747  150.0416 H   0  0  0  0  0  0  0  0  0  0  0  0
  143.3736  132.6227  149.1898 H   0  0  0  0  0  0  0  0  0  0  0  0
  143.3480  132.4566  150.9296 H   0  0  0  0  0  0  0  0  0  0  0  0
  143.5154  134.8538  150.2921 H   0  0  0  0  0  0  0  0  0  0  0  0
  144.9575  134.5487  149.3691 H   0  0  0  0  0  0  0  0  0  0  0  0
  150.2581  138.9363  153.1820 H   0  0  0  0  0  0  0  0  0  0  0  0
  1  2  1  0  0  0  0
  1 22  1  0  0  0  0
  1 23  1  0  0  0  0
  1 24  1  0  0  0  0
  2  3  1  0  0  0  0
  3 21  1  0  0  0  0
  3  4  2  0  0  0  0
  4  5  1  0  0  0  0
  4 25  1  0  0  0  0
  5  6  2  0  0  0  0
  5 26  1  0  0  0  0
  6  7  1  0  0  0  0
  6 20  1  0  0  0  0
  7  8  1  0  0  0  0
  7 27  1  0  0  0  0
  8  9  2  0  0  0  0
  8 10  1  0  0  0  0
 10 11  1  0  0  0  0
 10 28  1  0  0  0  0
 11 12  1  0  0  0  0
 11 29  1  0  0  0  0
 11 30  1  0  0  0  0
 12 13  2  0  0  0  0
 12 14  1  0  0  0  0
 14 19  1  0  0  0  0
 14 15  1  0  0  0  0
 15 16  1  0  0  0  0
 15 31  1  0  0  0  0
 15 32  1  0  0  0  0
 16 17  1  0  0  0  0
 16 33  1  0  0  0  0
 16 34  1  0  0  0  0
 17 18  1  0  0  0  0
 17 35  1  0  0  0  0
 17 36  1  0  0  0  0
 18 19  1  0  0  0  0
 18 37  1  0  0  0  0
 18 38  1  0  0  0  0
 19 39  1  0  0  0  0
 19 40  1  0  0  0  0
 20 21  2  0  0  0  0
 20 41  1  0  0  0  0
M  END
> <s_m_source_file>
AV-unprocessed.smi

> <i_m_source_file_index>
1086

> <i_lp_mmshare_version>
43012

> <i_f3d_flags>
0

> <s_epik_input>
W0NIM11PYzFbY0hdW2NIXWMoW2NIXW4xKVtOSF1DKD1PKVtOSF1bQ0gyXUMoPU8pTjJbQ0gyXVtDSDJdW0NIMl1bQ0gyXVtDSDJdMg==

> <s_epik_cmdline>
J2VwaWtfcHl0aG9uJywgJy1waCcsICc3LjAnLCAnLXRuJywgJzgnLCAnLW1hJywgJzIwMCcsICctbWV0YWxfYmluZGluZycsICctaW1hZScsICc8aW5maWxlLm1hZT4nLCAnLW9tYWUnLCAnPG91dGZpbGUubWFlPic=

> <r_lp_tautomer_probability>
1

> <r_epik_Ionization_Penalty>
0.0001417

> <r_epik_Ionization_Penalty_Charging>
0

> <r_epik_Ionization_Penalty_Neutral>
0.0001417

> <r_epik_State_Penalty>
-0

> <r_epik_Charging_Adjusted_Penalty>
0

> <i_epik_Tot_Q>
0

> <i_epik_Tot_abs_Q>
0

> <r_epik_Metal_State_Penalty>
-0

> <b_epik_Metal_Only>
0

> <s_lp_Force_Field>
OPLS_2005

> <r_lp_Energy>
23.1479

> <b_lp_Chiralities_Consistent>
1

> <s_lp_Variant>
AV-unprocessed.smi:1086-1

> <Gold.Version>
5.8.1

> <Gold.Id.Protein>
6NUR|6NUR_protein|mol2

> <Gold.PLP.Fitness>
40.5740

> <Gold.PLP.PLP>
-29.4409

> <Gold.PLP.part.hbond>
-3.0000

> <Gold.PLP.part.metal>
0.0000

> <Gold.PLP.part.buried>
-3.5834

> <Gold.PLP.part.nonpolar>
-22.7386

> <Gold.PLP.part.repulsive>
0.2482

> <Gold.PLP.ligand.clash>
0.0000

> <Gold.PLP.ligand.torsion>
0.4421

> <Gold.PLP.Chemscore.Hbond>
3.0000

> <Gold.PLP.Chemscore.CHOScore>
1.0000

> <Gold.PLP.Chemscore.Metal>
0.0000

> <Gold.Chemscore.Hbonds>
donor molecule, donor type, donor heavy atom, donor atom, acceptor molecule, acceptor atom, score
      L1  H     7    27       P1  7948  1.00
      L1  H    10    28       P1  7948  1.00
      P1  H  7989  7998       L1    21  1.00
      L1  C    20    41       P1  7957  1.00

> <Gold.PLP.Chemscore.Internal.Correction>
0.0172

> <Gold.Rescore>
     Score         DG    S(hbond)    S(metal)    S(lipo)     H(rot)  DE(clash)    DE(int)     intcor
     16.91     -18.56       2.75        0.00      67.15       1.55       0.00       1.64       ----

> <Gold.Chemscore.Fitness>
16.9119

> <Gold.Chemscore.DG>
-18.5568

> <Gold.Chemscore.ZeroCoef>
-5.4800

> <Gold.Chemscore.Hbond>
2.7526

> <Gold.Chemscore.Metal>
0.0000

> <Gold.Chemscore.Lipo>
67.1507

> <Gold.Chemscore.Internal_Hbond>
0.0000

> <Gold.Chemscore.DEClash>
0.0000

> <Gold.Chemscore.DEInternal>
1.6450

> <Gold.Chemscore.Rot>
1.5521

> <Gold.Chemscore.Internal.Correction>
   9.000000E+99

> <Gold.Chemscore.Hbonds>
donor molecule, donor type, donor heavy atom, donor atom, acceptor molecule, acceptor atom, score
      L1  H     7    27       P1  7948  0.99
      L1  H    10    28       P1  7948  0.95
      P1  H  7989  7998       L1    21  0.60

> <Gold.Chemscore.Hbond.Weighted>
-9.1936

> <Gold.Chemscore.Metal.Weighted>
-0.0000

> <Gold.Chemscore.Lipo.Weighted>
-7.8566

> <Gold.Chemscore.Internal_Hbond.Weighted>
0.0000

> <Gold.Chemscore.DEClash.Weighted>
0.0000

> <Gold.Chemscore.DEInternal.Weighted>
1.6450

> <Gold.Chemscore.Rot.Weighted>
3.9734

> <Gold.Chemscore.Internal.Correction.Weighted>
   9.000000E+99

> <Gold.Protein.RotatedTorsions>
[ 6907 6896 6895 6894 ] final  -50.29 input  -60.11 | X-H torsion
[ 7974 7965 7964 7962 ] final   46.94 input  175.53 | X-H torsion
[ 8008 7997 7996 7995 ] final  -29.09 input   59.86 | X-H torsion
[ 10167 10162 10161 10158 ] final -134.78 input  -65.29 | X-H torsion
[ 10718 10713 10712 10709 ] final  102.23 input   66.30 | X-H torsion
[ 10763 10752 10751 10750 ] final  176.48 input  -60.55 | X-H torsion
[ 11005 11000 10999 10996 ] final   16.90 input  -57.11 | X-H torsion

> <Gold.Protein.ActiveResidues>
 VAL166  LYS551  ARG553  GLY616  TRP617  ASP618  TYR619  PRO620  LYS621  CYS622 
 ASP623  PHE694  ASN695  SER759  ASP760  ASP761  ALA762  ILE779  LEU786  VAL792 
 PHE793  MET794  SER795  GLU796  ALA797  LYS798  CYS799  TRP800  GLU811  SER814 

> <Gold.Protein.RotatedAtoms>
  150.8721  134.8097  159.7162 H   0  0  0  0  0  0  0  0  0  0  0  0  # atno 6907 bound_to 6896
  152.4722  134.4930  159.9711 H   0  0  0  0  0  0  0  0  0  0  0  0  # atno 6908 bound_to 6896
  151.5017  133.3464  159.2905 H   0  0  0  0  0  0  0  0  0  0  0  0  # atno 6909 bound_to 6896
  146.0344  139.4802  142.9817 H   0  0  0  0  0  0  0  0  0  0  0  0  # atno 7974 bound_to 7965
  154.4304  140.1827  156.1193 H   0  0  0  0  0  0  0  0  0  0  0  0  # atno 8008 bound_to 7997
  156.0156  140.3346  155.6960 H   0  0  0  0  0  0  0  0  0  0  0  0  # atno 8009 bound_to 7997
  155.6049  140.0644  157.2713 H   0  0  0  0  0  0  0  0  0  0  0  0  # atno 8010 bound_to 7997
  139.8846  143.6797  152.2622 H   0  0  0  0  0  0  0  0  0  0  0  0  # atno 10167 bound_to 10162
  157.6808  131.0747  150.5372 H   0  0  0  0  0  0  0  0  0  0  0  0  # atno 10718 bound_to 10713
  154.4816  135.2775  155.1566 H   0  0  0  0  0  0  0  0  0  0  0  0  # atno 10763 bound_to 10752
  154.3274  135.6197  153.5539 H   0  0  0  0  0  0  0  0  0  0  0  0  # atno 10764 bound_to 10752
  152.9876  135.5757  154.5218 H   0  0  0  0  0  0  0  0  0  0  0  0  # atno 10765 bound_to 10752
  140.4420  134.1312  155.7691 H   0  0  0  0  0  0  0  0  0  0  0  0  # atno 11005 bound_to 11000
  145.6988  141.0142  143.1515 LP  0  0  0  0  0  0  0  0  0  0  0  0  # atno 17320 bound_to 7965
  144.7045  139.8620  143.7434 LP  0  0  0  0  0  0  0  0  0  0  0  0  # atno 17321 bound_to 7965
  139.7165  144.7611  151.1026 LP  0  0  0  0  0  0  0  0  0  0  0  0  # atno 17342 bound_to 10162
  140.7738  143.5263  150.9476 LP  0  0  0  0  0  0  0  0  0  0  0  0  # atno 17343 bound_to 10162
  156.5680  130.4272  149.6032 LP  0  0  0  0  0  0  0  0  0  0  0  0  # atno 17370 bound_to 10713
  156.2765  130.7046  151.1858 LP  0  0  0  0  0  0  0  0  0  0  0  0  # atno 17371 bound_to 10713
  141.1701  133.8625  157.1595 LP  0  0  0  0  0  0  0  0  0  0  0  0  # atno 17394 bound_to 11000
  140.0064  135.0007  157.0301 LP  0  0  0  0  0  0  0  0  0  0  0  0  # atno 17395 bound_to 11000

$$$$
