AV-unprocessed.smi:99|AV-procd|sdf|882|dock3
  -GOLD-   2262017363D 1   1.00000     0.00000
 Structure written by MMmdl.
 52 55  0  0  0  0  0  0  0  0  2 V2000
  151.6726  139.8647  156.1956 O   0  0  0  0  0  0  0  0  0  0  0  0
  151.4945  139.8928  157.4149 C   0  0  0  0  0  0  0  0  0  0  0  0
  150.9519  138.8771  158.1149 O   0  0  0  0  0  0  0  0  0  0  0  0
  151.0284  137.5473  157.6248 C   0  0  0  0  0  0  0  0  0  0  0  0
  150.2035  137.4334  156.3341 C   0  0  1  0  0  0  0  0  0  0  0  0
  150.5925  136.2801  155.5908 O   0  0  0  0  0  0  0  0  0  0  0  0
  149.5160  135.8022  154.8342 C   0  0  1  0  0  0  0  0  0  0  0  0
  149.3229  134.3268  155.1278 N   0  0  0  0  0  0  0  0  0  0  0  0
  149.9656  133.7267  156.1968 C   0  0  0  0  0  0  0  0  0  0  0  0
  149.8017  132.4171  156.4731 C   0  0  0  0  0  0  0  0  0  0  0  0
  148.9323  131.6096  155.6235 C   0  0  0  0  0  0  0  0  0  0  0  0
  148.7832  130.4178  155.8862 O   0  0  0  0  0  0  0  0  0  0  0  0
  148.3208  132.2190  154.5671 N   0  5  0  0  0  0  0  0  0  0  0  0
  148.4840  133.5451  154.2864 C   0  0  0  0  0  0  0  0  0  0  0  0
  147.9316  134.1052  153.3394 O   0  0  0  0  0  0  0  0  0  0  0  0
  148.2870  136.6587  155.2016 C   0  0  1  0  0  0  0  0  0  0  0  0
  147.0353  136.0001  155.2634 O   0  0  0  0  0  0  0  0  0  0  0  0
  148.6883  137.2884  156.5256 C   0  0  1  0  0  0  0  0  0  0  0  0
  148.4321  136.4195  157.6310 O   0  0  0  0  0  0  0  0  0  0  0  0
  148.3730  136.9025  158.8950 C   0  0  0  0  0  0  0  0  0  0  0  0
  148.6917  138.0517  159.2064 O   0  0  0  0  0  0  0  0  0  0  0  0
  147.8841  135.8984  159.8826 C   0  0  0  0  0  0  0  0  0  0  0  0
  147.5817  134.5876  159.4454 C   0  0  0  0  0  0  0  0  0  0  0  0
  147.1205  133.6162  160.3551 C   0  0  0  0  0  0  0  0  0  0  0  0
  146.9536  133.9443  161.7131 C   0  0  0  0  0  0  0  0  0  0  0  0
  147.2459  135.2461  162.1595 C   0  0  0  0  0  0  0  0  0  0  0  0
  147.7066  136.2178  161.2504 C   0  0  0  0  0  0  0  0  0  0  0  0
  151.8633  141.0544  158.2738 C   0  0  0  0  0  0  0  0  0  0  0  0
  152.7023  140.8496  159.3940 C   0  0  0  0  0  0  0  0  0  0  0  0
  153.0644  141.9273  160.2255 C   0  0  0  0  0  0  0  0  0  0  0  0
  152.5903  143.2226  159.9480 C   0  0  0  0  0  0  0  0  0  0  0  0
  151.7522  143.4387  158.8387 C   0  0  0  0  0  0  0  0  0  0  0  0
  151.3894  142.3624  158.0056 C   0  0  0  0  0  0  0  0  0  0  0  0
  152.0701  137.2859  157.4372 H   0  0  0  0  0  0  0  0  0  0  0  0
  150.6459  136.8428  158.3652 H   0  0  0  0  0  0  0  0  0  0  0  0
  150.3915  138.3052  155.7054 H   0  0  0  0  0  0  0  0  0  0  0  0
  149.7802  135.8634  153.7775 H   0  0  0  0  0  0  0  0  0  0  0  0
  150.6180  134.3079  156.8297 H   0  0  0  0  0  0  0  0  0  0  0  0
  150.3119  131.9684  157.3127 H   0  0  0  0  0  0  0  0  0  0  0  0
  148.2157  137.4486  154.4528 H   0  0  0  0  0  0  0  0  0  0  0  0
  146.3536  136.6472  155.1628 H   0  0  0  0  0  0  0  0  0  0  0  0
  148.2209  138.2656  156.6523 H   0  0  0  0  0  0  0  0  0  0  0  0
  147.7041  134.3113  158.4080 H   0  0  0  0  0  0  0  0  0  0  0  0
  146.8959  132.6179  160.0100 H   0  0  0  0  0  0  0  0  0  0  0  0
  146.6011  133.1991  162.4111 H   0  0  0  0  0  0  0  0  0  0  0  0
  147.1169  135.5016  163.2010 H   0  0  0  0  0  0  0  0  0  0  0  0
  147.9140  137.2070  161.6247 H   0  0  0  0  0  0  0  0  0  0  0  0
  153.0783  139.8638  159.6275 H   0  0  0  0  0  0  0  0  0  0  0  0
  153.7068  141.7591  161.0773 H   0  0  0  0  0  0  0  0  0  0  0  0
  152.8682  144.0488  160.5858 H   0  0  0  0  0  0  0  0  0  0  0  0
  151.3856  144.4321  158.6260 H   0  0  0  0  0  0  0  0  0  0  0  0
  150.7408  142.5625  157.1654 H   0  0  0  0  0  0  0  0  0  0  0  0
  1  2  2  0  0  0  0
  2  3  1  0  0  0  0
  2 28  1  0  0  0  0
  3  4  1  0  0  0  0
  4  5  1  0  0  0  0
  4 34  1  0  0  0  0
  4 35  1  0  0  0  0
  5 18  1  0  0  0  0
  5  6  1  0  0  0  0
  5 36  1  0  0  0  0
  6  7  1  0  0  0  0
  7  8  1  0  0  0  0
  7 16  1  0  0  0  0
  7 37  1  0  0  0  0
  8 14  1  0  0  0  0
  8  9  1  0  0  0  0
  9 10  2  0  0  0  0
  9 38  1  0  0  0  0
 10 11  1  0  0  0  0
 10 39  1  0  0  0  0
 11 12  2  0  0  0  0
 11 13  1  0  0  0  0
 13 14  1  0  0  0  0
 14 15  2  0  0  0  0
 16 17  1  0  0  0  0
 16 18  1  0  0  0  0
 16 40  1  0  0  0  0
 17 41  1  0  0  0  0
 18 19  1  0  0  0  0
 18 42  1  0  0  0  0
 19 20  1  0  0  0  0
 20 21  2  0  0  0  0
 20 22  1  0  0  0  0
 22 27  1  0  0  0  0
 22 23  2  0  0  0  0
 23 24  1  0  0  0  0
 23 43  1  0  0  0  0
 24 25  2  0  0  0  0
 24 44  1  0  0  0  0
 25 26  1  0  0  0  0
 25 45  1  0  0  0  0
 26 27  2  0  0  0  0
 26 46  1  0  0  0  0
 27 47  1  0  0  0  0
 28 33  1  0  0  0  0
 28 29  2  0  0  0  0
 29 30  1  0  0  0  0
 29 48  1  0  0  0  0
 30 31  2  0  0  0  0
 30 49  1  0  0  0  0
 31 32  1  0  0  0  0
 31 50  1  0  0  0  0
 32 33  2  0  0  0  0
 32 51  1  0  0  0  0
 33 52  1  0  0  0  0
M  CHG  1  13  -1
M  END
> <s_m_source_file>
AV-unprocessed.smi

> <i_m_source_file_index>
99

> <i_lp_mmshare_version>
43012

> <i_f3d_flags>
0

> <s_epik_input>
W2NIXTFbY0hdW2NIXVtjSF1bY0hdYzFDKD1PKU9bQ0gyXVtDQEBIXTJPW0NAQEhdKG4zW2NIXVtjSF1jKD1PKVtuSF1jMz1PKVtDQEBIXShbT0hdKVtDQEhdMk9DKD1PKWM0W2NIXVtjSF1bY0hdW2NIXVtjSF00

> <s_epik_cmdline>
J2VwaWtfcHl0aG9uJywgJy1waCcsICc3LjAnLCAnLXRuJywgJzgnLCAnLW1hJywgJzIwMCcsICctbWV0YWxfYmluZGluZycsICctaW1hZScsICc8aW5maWxlLm1hZT4nLCAnLW9tYWUnLCAnPG91dGZpbGUubWFlPic=

> <r_lp_tautomer_probability>
1

> <r_epik_Ionization_Penalty>
2.89159

> <r_epik_Ionization_Penalty_Charging>
2.1077e-08

> <r_epik_Ionization_Penalty_Neutral>
2.89159

> <r_epik_State_Penalty>
2.88671

> <r_epik_Charging_Adjusted_Penalty>
2.88671

> <i_epik_Tot_Q>
-1

> <i_epik_Tot_abs_Q>
1

> <r_epik_Metal_State_Penalty>
0.0727308

> <b_epik_Metal_Only>
1

> <s_epik_Chemistry_Notes>
This compound has an ester and may undergo hydrolysis at high or low pH. This compound contains an acetal/aminal-like group ( X-CH(R)-Y where X, Y are N, S, or O) that may be acid/base labile, releasing an aldehyde.

> <s_lp_Force_Field>
OPLS_2005

> <r_lp_Energy>
51.9735

> <b_lp_Chiralities_Consistent>
1

> <s_lp_Variant>
AV-unprocessed.smi:99-18

> <Gold.Version>
5.8.1

> <Gold.Id.Protein>
6NUR|6NUR_protein|mol2

> <Gold.PLP.Fitness>
54.7501

> <Gold.PLP.PLP>
-52.1637

> <Gold.PLP.part.hbond>
-3.4226

> <Gold.PLP.part.metal>
0.0000

> <Gold.PLP.part.buried>
-8.0329

> <Gold.PLP.part.nonpolar>
-42.7328

> <Gold.PLP.part.repulsive>
0.3194

> <Gold.PLP.ligand.clash>
0.0000

> <Gold.PLP.ligand.torsion>
2.1510

> <Gold.PLP.Chemscore.Hbond>
2.0000

> <Gold.PLP.Chemscore.CHOScore>
0.0000

> <Gold.PLP.Chemscore.Metal>
0.0000

> <Gold.PLP.Chemscore.Internal.Correction>
0.8884

> <Gold.Rescore>
     Score         DG    S(hbond)    S(metal)    S(lipo)     H(rot)  DE(clash)    DE(int)     intcor
     13.54     -16.52       1.57        0.00     118.01       3.13       0.01       2.96       ----

> <Gold.Chemscore.Fitness>
13.5432

> <Gold.Chemscore.DG>
-16.5155

> <Gold.Chemscore.ZeroCoef>
-5.4800

> <Gold.Chemscore.Hbond>
1.5726

> <Gold.Chemscore.Metal>
0.0000

> <Gold.Chemscore.Lipo>
118.0121

> <Gold.Chemscore.Internal_Hbond>
0.0000

> <Gold.Chemscore.DEClash>
0.0126

> <Gold.Chemscore.DEInternal>
2.9597

> <Gold.Chemscore.Rot>
3.1346

> <Gold.Chemscore.Internal.Correction>
   9.000000E+99

> <Gold.Chemscore.Hbonds>
donor molecule, donor type, donor heavy atom, donor atom, acceptor molecule, acceptor atom, score
      P1  H  6934  6947       L1    21  0.01

> <Gold.Chemscore.Hbond.Weighted>
-5.2526

> <Gold.Chemscore.Metal.Weighted>
-0.0000

> <Gold.Chemscore.Lipo.Weighted>
-13.8074

> <Gold.Chemscore.Internal_Hbond.Weighted>
0.0000

> <Gold.Chemscore.DEClash.Weighted>
0.0126

> <Gold.Chemscore.DEInternal.Weighted>
2.9597

> <Gold.Chemscore.Rot.Weighted>
8.0246

> <Gold.Chemscore.Internal.Correction.Weighted>
   9.000000E+99

> <Gold.Protein.RotatedTorsions>
[ 6907 6896 6895 6894 ] final  171.30 input  -60.11 | X-H torsion
[ 7974 7965 7964 7962 ] final -149.87 input  175.53 | X-H torsion
[ 8008 7997 7996 7995 ] final   66.15 input   59.86 | X-H torsion
[ 10167 10162 10161 10158 ] final -135.40 input  -65.29 | X-H torsion
[ 10718 10713 10712 10709 ] final  -57.15 input   66.30 | X-H torsion
[ 10763 10752 10751 10750 ] final  -27.18 input  -60.55 | X-H torsion
[ 11005 11000 10999 10996 ] final -145.95 input  -57.11 | X-H torsion

> <Gold.Protein.ActiveResidues>
 VAL166  LYS551  ARG553  GLY616  TRP617  ASP618  TYR619  PRO620  LYS621  CYS622 
 ASP623  PHE694  ASN695  SER759  ASP760  ASP761  ALA762  ILE779  LEU786  VAL792 
 PHE793  MET794  SER795  GLU796  ALA797  LYS798  CYS799  TRP800  GLU811  SER814 

> <Gold.Protein.RotatedAtoms>
  151.8024  133.3371  159.3530 H   0  0  0  0  0  0  0  0  0  0  0  0  # atno 6907 bound_to 6896
  150.7354  134.5741  159.5915 H   0  0  0  0  0  0  0  0  0  0  0  0  # atno 6908 bound_to 6896
  152.3134  134.7471  160.0382 H   0  0  0  0  0  0  0  0  0  0  0  0  # atno 6909 bound_to 6896
  144.7941  140.5007  143.5752 H   0  0  0  0  0  0  0  0  0  0  0  0  # atno 7974 bound_to 7965
  155.6728  140.3497  155.4825 H   0  0  0  0  0  0  0  0  0  0  0  0  # atno 8008 bound_to 7997
  155.9673  140.1149  157.0866 H   0  0  0  0  0  0  0  0  0  0  0  0  # atno 8009 bound_to 7997
  154.4157  140.1164  156.5246 H   0  0  0  0  0  0  0  0  0  0  0  0  # atno 8010 bound_to 7997
  139.8782  143.6871  152.2631 H   0  0  0  0  0  0  0  0  0  0  0  0  # atno 10167 bound_to 10162
  156.1233  130.4164  150.0401 H   0  0  0  0  0  0  0  0  0  0  0  0  # atno 10718 bound_to 10713
  153.7280  135.6940  153.4996 H   0  0  0  0  0  0  0  0  0  0  0  0  # atno 10763 bound_to 10752
  153.2156  135.4387  155.0429 H   0  0  0  0  0  0  0  0  0  0  0  0  # atno 10764 bound_to 10752
  154.8262  135.3448  154.6811 H   0  0  0  0  0  0  0  0  0  0  0  0  # atno 10765 bound_to 10752
  140.7870  134.3013  157.5026 H   0  0  0  0  0  0  0  0  0  0  0  0  # atno 11005 bound_to 11000
  145.5718  139.1484  143.3284 LP  0  0  0  0  0  0  0  0  0  0  0  0  # atno 17320 bound_to 7965
  146.2203  140.5851  142.9020 LP  0  0  0  0  0  0  0  0  0  0  0  0  # atno 17321 bound_to 7965
  139.7220  144.7600  151.0940 LP  0  0  0  0  0  0  0  0  0  0  0  0  # atno 17342 bound_to 10162
  140.7749  143.5196  150.9553 LP  0  0  0  0  0  0  0  0  0  0  0  0  # atno 17343 bound_to 10162
  156.8333  130.9400  151.3636 LP  0  0  0  0  0  0  0  0  0  0  0  0  # atno 17370 bound_to 10713
  157.6416  130.8810  149.9459 LP  0  0  0  0  0  0  0  0  0  0  0  0  # atno 17371 bound_to 10713
  139.8735  134.9352  156.3627 LP  0  0  0  0  0  0  0  0  0  0  0  0  # atno 17394 bound_to 11000
  140.9427  133.7504  156.0167 LP  0  0  0  0  0  0  0  0  0  0  0  0  # atno 17395 bound_to 11000

$$$$
