AV-unprocessed.smi:1999|AV-procd|sdf|8094|dock5
  -GOLD-   2272010313D 1   1.00000     0.00000
 Structure written by MMmdl.
 39 40  0  0  0  0  0  0  0  0  2 V2000
  143.8552  143.6893  162.2186 C   0  0  0  0  0  0  0  0  0  0  0  0
  145.0870  143.6827  161.3795 C   0  0  0  0  0  0  0  0  0  0  0  0
  146.2992  143.9564  161.8769 N   0  0  0  0  0  0  0  0  0  0  0  0
  147.2927  143.8875  160.9103 N   0  0  0  0  0  0  0  0  0  0  0  0
  146.7980  143.5636  159.7077 C   0  0  0  0  0  0  0  0  0  0  0  0
  147.5945  143.4170  158.5411 N   0  0  0  0  0  0  0  0  0  0  0  0
  148.2109  142.3113  158.0888 C   0  0  0  0  0  0  0  0  0  0  0  0
  148.2132  141.2164  158.6519 O   0  0  0  0  0  0  0  0  0  0  0  0
  148.8285  142.5419  156.9203 N   0  0  0  0  0  0  0  0  0  0  0  0
  149.6198  141.5741  156.1586 C   0  0  2  0  0  0  0  0  0  0  0  0
  148.9023  140.2175  156.1816 C   0  0  0  0  0  0  0  0  0  0  0  0
  151.0588  141.4539  156.7133 C   0  0  0  0  0  0  0  0  0  0  0  0
  151.3113  142.3357  157.8813 N   0  3  0  0  0  0  0  0  0  0  0  0
  152.3820  141.8294  158.7711 C   0  0  0  0  0  0  0  0  0  0  0  0
  152.5331  142.7476  159.9962 C   0  0  0  0  0  0  0  0  0  0  0  0
  152.7983  144.0781  159.5685 O   0  0  0  0  0  0  0  0  0  0  0  0
  151.7399  144.6050  158.7771 C   0  0  0  0  0  0  0  0  0  0  0  0
  151.5708  143.7485  157.5116 C   0  0  0  0  0  0  0  0  0  0  0  0
  145.0619  143.3096  159.6598 S   0  0  0  0  0  0  0  0  0  0  0  0
  143.7973  144.6131  162.7946 H   0  0  0  0  0  0  0  0  0  0  0  0
  143.8689  142.8451  162.9080 H   0  0  0  0  0  0  0  0  0  0  0  0
  142.9672  143.6141  161.5908 H   0  0  0  0  0  0  0  0  0  0  0  0
  147.6990  144.2509  157.9823 H   0  0  0  0  0  0  0  0  0  0  0  0
  148.7691  143.4735  156.5350 H   0  0  0  0  0  0  0  0  0  0  0  0
  149.6596  141.8899  155.1154 H   0  0  0  0  0  0  0  0  0  0  0  0
  149.4444  139.4775  155.5921 H   0  0  0  0  0  0  0  0  0  0  0  0
  147.8978  140.2964  155.7640 H   0  0  0  0  0  0  0  0  0  0  0  0
  148.8115  139.8314  157.1973 H   0  0  0  0  0  0  0  0  0  0  0  0
  151.2218  140.4157  157.0071 H   0  0  0  0  0  0  0  0  0  0  0  0
  151.7927  141.6654  155.9340 H   0  0  0  0  0  0  0  0  0  0  0  0
  152.1439  140.8176  159.1009 H   0  0  0  0  0  0  0  0  0  0  0  0
  153.3224  141.7768  158.2204 H   0  0  0  0  0  0  0  0  0  0  0  0
  151.6332  142.7244  160.6131 H   0  0  0  0  0  0  0  0  0  0  0  0
  153.3575  142.4062  160.6225 H   0  0  0  0  0  0  0  0  0  0  0  0
  150.8143  144.6345  159.3547 H   0  0  0  0  0  0  0  0  0  0  0  0
  151.9789  145.6335  158.5060 H   0  0  0  0  0  0  0  0  0  0  0  0
  152.4704  143.8096  156.8972 H   0  0  0  0  0  0  0  0  0  0  0  0
  150.7491  144.1435  156.9148 H   0  0  0  0  0  0  0  0  0  0  0  0
  150.4631  142.3293  158.4302 H   0  0  0  0  0  0  0  0  0  0  0  0
  1  2  1  0  0  0  0
  1 20  1  0  0  0  0
  1 21  1  0  0  0  0
  1 22  1  0  0  0  0
  2 19  1  0  0  0  0
  2  3  2  0  0  0  0
  3  4  1  0  0  0  0
  4  5  2  0  0  0  0
  5  6  1  0  0  0  0
  5 19  1  0  0  0  0
  6  7  1  0  0  0  0
  6 23  1  0  0  0  0
  7  8  2  0  0  0  0
  7  9  1  0  0  0  0
  9 10  1  0  0  0  0
  9 24  1  0  0  0  0
 10 11  1  0  0  0  0
 10 12  1  0  0  0  0
 10 25  1  0  0  0  0
 11 26  1  0  0  0  0
 11 27  1  0  0  0  0
 11 28  1  0  0  0  0
 12 13  1  0  0  0  0
 12 29  1  0  0  0  0
 12 30  1  0  0  0  0
 13 18  1  0  0  0  0
 13 14  1  0  0  0  0
 13 39  1  0  0  0  0
 14 15  1  0  0  0  0
 14 31  1  0  0  0  0
 14 32  1  0  0  0  0
 15 16  1  0  0  0  0
 15 33  1  0  0  0  0
 15 34  1  0  0  0  0
 16 17  1  0  0  0  0
 17 18  1  0  0  0  0
 17 35  1  0  0  0  0
 17 36  1  0  0  0  0
 18 37  1  0  0  0  0
 18 38  1  0  0  0  0
M  CHG  1  13   1
M  END
> <s_m_source_file>
AV-unprocessed.smi

> <i_m_source_file_index>
1999

> <i_lp_mmshare_version>
43012

> <i_f3d_flags>
0

> <s_epik_input>
W0NIM11jMW5uYyhzMSlbTkhdQyg9TylbTkhdW0NASF0oW0NIM10pW0NIMl1OMltDSDJdW0NIMl1PW0NIMl1bQ0gyXTI=

> <s_epik_cmdline>
J2VwaWtfcHl0aG9uJywgJy1waCcsICc3LjAnLCAnLXRuJywgJzgnLCAnLW1hJywgJzIwMCcsICctbWV0YWxfYmluZGluZycsICctaW1hZScsICc8aW5maWxlLm1hZT4nLCAnLW9tYWUnLCAnPG91dGZpbGUubWFlPic=

> <r_lp_tautomer_probability>
1

> <r_epik_Ionization_Penalty>
0.701298

> <r_epik_Ionization_Penalty_Charging>
0.695697

> <r_epik_Ionization_Penalty_Neutral>
0.00560124

> <r_epik_State_Penalty>
0.717972

> <r_epik_Charging_Adjusted_Penalty>
1.41367

> <i_epik_Tot_Q>
1

> <i_epik_Tot_abs_Q>
1

> <r_epik_Metal_State_Penalty>
1.07748

> <b_epik_Metal_Only>
0

> <s_lp_Force_Field>
OPLS_2005

> <r_lp_Energy>
20.3025

> <b_lp_Chiralities_Consistent>
1

> <s_lp_Variant>
AV-unprocessed.smi:1999-3

> <Gold.Version>
5.8.1

> <Gold.Id.Protein>
6NUR|6NUR_protein|mol2

> <Gold.PLP.Fitness>
37.8246

> <Gold.PLP.PLP>
-32.9282

> <Gold.PLP.part.hbond>
-4.3905

> <Gold.PLP.part.metal>
0.0000

> <Gold.PLP.part.buried>
-4.0727

> <Gold.PLP.part.nonpolar>
-25.4527

> <Gold.PLP.part.repulsive>
0.3311

> <Gold.PLP.ligand.clash>
0.0000

> <Gold.PLP.ligand.torsion>
2.0108

> <Gold.PLP.Chemscore.Hbond>
2.9588

> <Gold.PLP.Chemscore.CHOScore>
0.0000

> <Gold.PLP.Chemscore.Metal>
0.0000

> <Gold.Chemscore.Hbonds>
donor molecule, donor type, donor heavy atom, donor atom, acceptor molecule, acceptor atom, score
      L1  H     6    23       P1  8029  0.95
      L1  H     9    24       P1  8028  0.98
      P1  H  6933  6944       L1     4  1.00

> <Gold.PLP.Chemscore.Internal.Correction>
0.0417

> <Gold.Rescore>
     Score         DG    S(hbond)    S(metal)    S(lipo)     H(rot)  DE(clash)    DE(int)     intcor
     13.40     -16.99       1.88        0.00      80.43       1.63       0.09       3.50       ----

> <Gold.Chemscore.Fitness>
13.3985

> <Gold.Chemscore.DG>
-16.9924

> <Gold.Chemscore.ZeroCoef>
-5.4800

> <Gold.Chemscore.Hbond>
1.8801

> <Gold.Chemscore.Metal>
0.0000

> <Gold.Chemscore.Lipo>
80.4275

> <Gold.Chemscore.Internal_Hbond>
0.0000

> <Gold.Chemscore.DEClash>
0.0893

> <Gold.Chemscore.DEInternal>
3.5046

> <Gold.Chemscore.Rot>
1.6317

> <Gold.Chemscore.Internal.Correction>
   9.000000E+99

> <Gold.Chemscore.Hbonds>
donor molecule, donor type, donor heavy atom, donor atom, acceptor molecule, acceptor atom, score
      L1  H     6    23       P1  8029  0.22
      L1  H     9    24       P1  8028  0.72
      P1  H  6933  6944       L1     4  0.29

> <Gold.Chemscore.Hbond.Weighted>
-6.2796

> <Gold.Chemscore.Metal.Weighted>
-0.0000

> <Gold.Chemscore.Lipo.Weighted>
-9.4100

> <Gold.Chemscore.Internal_Hbond.Weighted>
0.0000

> <Gold.Chemscore.DEClash.Weighted>
0.0893

> <Gold.Chemscore.DEInternal.Weighted>
3.5046

> <Gold.Chemscore.Rot.Weighted>
4.1773

> <Gold.Chemscore.Internal.Correction.Weighted>
   9.000000E+99

> <Gold.Protein.RotatedTorsions>
[ 6907 6896 6895 6894 ] final  -41.79 input  -60.11 | X-H torsion
[ 7974 7965 7964 7962 ] final  167.20 input  175.53 | X-H torsion
[ 8008 7997 7996 7995 ] final  -59.42 input   59.86 | X-H torsion
[ 10167 10162 10161 10158 ] final   78.50 input  -65.29 | X-H torsion
[ 10718 10713 10712 10709 ] final -116.44 input   66.30 | X-H torsion
[ 10763 10752 10751 10750 ] final   48.11 input  -60.55 | X-H torsion
[ 11005 11000 10999 10996 ] final   24.72 input  -57.11 | X-H torsion

> <Gold.Protein.ActiveResidues>
 VAL166  LYS551  ARG553  GLY616  TRP617  ASP618  TYR619  PRO620  LYS621  CYS622 
 ASP623  PHE694  ASN695  SER759  ASP760  ASP761  ALA762  ILE779  LEU786  VAL792 
 PHE793  MET794  SER795  GLU796  ALA797  LYS798  CYS799  TRP800  GLU811  SER814 

> <Gold.Protein.RotatedAtoms>
  150.9627  134.9013  159.7740 H   0  0  0  0  0  0  0  0  0  0  0  0  # atno 6907 bound_to 6896
  152.5162  134.3650  159.9308 H   0  0  0  0  0  0  0  0  0  0  0  0  # atno 6908 bound_to 6896
  151.3662  133.3831  159.2729 H   0  0  0  0  0  0  0  0  0  0  0  0  # atno 6909 bound_to 6896
  144.7433  139.8726  143.6390 H   0  0  0  0  0  0  0  0  0  0  0  0  # atno 7974 bound_to 7965
  154.4351  140.1062  156.6112 H   0  0  0  0  0  0  0  0  0  0  0  0  # atno 8008 bound_to 7997
  155.5807  140.3490  155.4521 H   0  0  0  0  0  0  0  0  0  0  0  0  # atno 8009 bound_to 7997
  156.0321  140.1263  157.0237 H   0  0  0  0  0  0  0  0  0  0  0  0  # atno 8010 bound_to 7997
  139.9703  144.5899  150.7992 H   0  0  0  0  0  0  0  0  0  0  0  0  # atno 10167 bound_to 10162
  156.0964  130.6136  150.9036 H   0  0  0  0  0  0  0  0  0  0  0  0  # atno 10718 bound_to 10713
  152.9794  135.5954  154.3873 H   0  0  0  0  0  0  0  0  0  0  0  0  # atno 10763 bound_to 10752
  154.3532  135.2767  155.2363 H   0  0  0  0  0  0  0  0  0  0  0  0  # atno 10764 bound_to 10752
  154.4393  135.6017  153.6174 H   0  0  0  0  0  0  0  0  0  0  0  0  # atno 10765 bound_to 10752
  140.3557  134.2180  155.7676 H   0  0  0  0  0  0  0  0  0  0  0  0  # atno 11005 bound_to 11000
  146.1269  139.4297  143.0193 LP  0  0  0  0  0  0  0  0  0  0  0  0  # atno 17320 bound_to 7965
  145.7221  141.0071  143.1397 LP  0  0  0  0  0  0  0  0  0  0  0  0  # atno 17321 bound_to 7965
  140.7524  143.2990  151.3130 LP  0  0  0  0  0  0  0  0  0  0  0  0  # atno 17342 bound_to 10162
  139.6486  144.0404  152.2610 LP  0  0  0  0  0  0  0  0  0  0  0  0  # atno 17343 bound_to 10162
  157.6126  131.0935  150.8768 LP  0  0  0  0  0  0  0  0  0  0  0  0  # atno 17370 bound_to 10713
  156.8905  130.5211  149.5286 LP  0  0  0  0  0  0  0  0  0  0  0  0  # atno 17371 bound_to 10713
  141.1999  133.8000  157.0514 LP  0  0  0  0  0  0  0  0  0  0  0  0  # atno 17394 bound_to 11000
  140.0667  134.9725  157.1398 LP  0  0  0  0  0  0  0  0  0  0  0  0  # atno 17395 bound_to 11000

$$$$
