AV-unprocessed.smi:148|AV-procd|sdf|1209|dock6
  -GOLD-   2262018383D 1   1.00000     0.00000
 Structure written by MMmdl.
 63 67  0  0  0  0  0  0  0  0  1 V2000
  151.0906  132.4180  157.8808 O   0  0  0  0  0  0  0  0  0  0  0  0
  150.1123  132.0328  156.9379 C   0  0  0  0  0  0  0  0  0  0  0  0
  149.4160  133.2754  156.3345 C   0  0  1  0  0  0  0  0  0  0  0  0
  150.4693  134.3122  155.8691 C   0  0  0  0  0  0  0  0  0  0  0  0
  149.9031  135.6170  155.5772 N   0  0  0  0  0  0  0  0  0  0  0  0
  148.5668  135.9476  155.5346 C   0  0  0  0  0  0  0  0  0  0  0  0
  148.3110  137.1971  155.2574 N   0  0  0  0  0  0  0  0  0  0  0  0
  149.5669  137.7656  155.0897 C   0  0  0  0  0  0  0  0  0  0  0  0
  150.0237  139.0709  154.7728 C   0  0  0  0  0  0  0  0  0  0  0  0
  149.1672  140.0944  154.5672 N   0  0  0  0  0  0  0  0  0  0  0  0
  148.0331  139.6534  153.7528 C   0  0  0  0  0  0  0  0  0  0  0  0
  147.2221  140.8455  153.2362 C   0  0  0  0  0  0  0  0  0  0  0  0
  146.7702  141.7129  154.4122 C   0  0  0  0  0  0  0  0  0  0  0  0
  147.9861  142.1440  155.2435 C   0  0  0  0  0  0  0  0  0  0  0  0
  148.8373  140.9405  155.7326 C   0  0  2  0  0  0  0  0  0  0  0  0
  150.0947  141.4407  156.5281 C   0  0  1  0  0  0  0  0  0  0  0  0
  149.8120  142.4941  157.6156 C   0  0  0  0  0  0  0  0  0  0  0  0
  151.0472  142.5190  158.5230 C   0  0  0  0  0  0  0  0  0  0  0  0
  151.7948  141.2064  158.2628 C   0  0  0  0  0  0  0  0  0  0  0  0
  150.9041  140.3881  157.3217 C   0  0  1  0  0  0  0  0  0  0  0  0
  150.0544  139.5658  158.0999 O   0  0  0  0  0  0  0  0  0  0  0  0
  151.3647  139.2758  154.6840 N   0  0  0  0  0  0  0  0  0  0  0  0
  152.2070  138.2571  154.8829 C   0  0  0  0  0  0  0  0  0  0  0  0
  151.9255  136.9862  155.1811 N   0  0  0  0  0  0  0  0  0  0  0  0
  150.5796  136.7856  155.2775 C   0  0  0  0  0  0  0  0  0  0  0  0
  148.3833  132.9304  155.2244 C   0  0  2  0  0  0  0  0  0  0  0  0
  147.2636  131.9726  155.6369 C   0  0  0  0  0  0  0  0  0  0  0  0
  147.2710  130.8987  154.5493 C   0  0  0  0  0  0  0  0  0  0  0  0
  147.8765  131.5394  153.4383 O   0  0  0  0  0  0  0  0  0  0  0  0
  148.9594  132.2967  153.9513 C   0  0  0  0  0  0  0  0  0  0  0  0
  151.7519  132.9280  157.4384 H   0  0  0  0  0  0  0  0  0  0  0  0
  150.5900  131.4325  156.1636 H   0  0  0  0  0  0  0  0  0  0  0  0
  149.4046  131.3825  157.4498 H   0  0  0  0  0  0  0  0  0  0  0  0
  148.8408  133.7391  157.1375 H   0  0  0  0  0  0  0  0  0  0  0  0
  151.2363  134.4470  156.6323 H   0  0  0  0  0  0  0  0  0  0  0  0
  150.9829  133.9525  154.9767 H   0  0  0  0  0  0  0  0  0  0  0  0
  147.7817  135.2306  155.7262 H   0  0  0  0  0  0  0  0  0  0  0  0
  148.3882  139.0631  152.9061 H   0  0  0  0  0  0  0  0  0  0  0  0
  147.3888  139.0031  154.3465 H   0  0  0  0  0  0  0  0  0  0  0  0
  147.8298  141.4364  152.5497 H   0  0  0  0  0  0  0  0  0  0  0  0
  146.3581  140.4956  152.6708 H   0  0  0  0  0  0  0  0  0  0  0  0
  146.2327  142.5889  154.0484 H   0  0  0  0  0  0  0  0  0  0  0  0
  146.0738  141.1541  155.0385 H   0  0  0  0  0  0  0  0  0  0  0  0
  148.6087  142.8130  154.6475 H   0  0  0  0  0  0  0  0  0  0  0  0
  147.6208  142.7297  156.0863 H   0  0  0  0  0  0  0  0  0  0  0  0
  148.2068  140.3512  156.3991 H   0  0  0  0  0  0  0  0  0  0  0  0
  150.7732  141.9113  155.8139 H   0  0  0  0  0  0  0  0  0  0  0  0
  149.6026  143.4801  157.1991 H   0  0  0  0  0  0  0  0  0  0  0  0
  148.9437  142.1946  158.2047 H   0  0  0  0  0  0  0  0  0  0  0  0
  151.6874  143.3678  158.2794 H   0  0  0  0  0  0  0  0  0  0  0  0
  150.7588  142.6167  159.5699 H   0  0  0  0  0  0  0  0  0  0  0  0
  152.7386  141.4279  157.7628 H   0  0  0  0  0  0  0  0  0  0  0  0
  152.0403  140.6742  159.1828 H   0  0  0  0  0  0  0  0  0  0  0  0
  151.5222  139.7521  156.6917 H   0  0  0  0  0  0  0  0  0  0  0  0
  149.3224  139.3001  157.5648 H   0  0  0  0  0  0  0  0  0  0  0  0
  153.2565  138.4939  154.7873 H   0  0  0  0  0  0  0  0  0  0  0  0
  147.8762  133.8470  154.9217 H   0  0  0  0  0  0  0  0  0  0  0  0
  147.3871  131.5411  156.6297 H   0  0  0  0  0  0  0  0  0  0  0  0
  146.3095  132.5015  155.6363 H   0  0  0  0  0  0  0  0  0  0  0  0
  147.8824  130.0474  154.8525 H   0  0  0  0  0  0  0  0  0  0  0  0
  146.2719  130.5342  154.3103 H   0  0  0  0  0  0  0  0  0  0  0  0
  149.3022  133.0401  153.2315 H   0  0  0  0  0  0  0  0  0  0  0  0
  149.7888  131.6217  154.1615 H   0  0  0  0  0  0  0  0  0  0  0  0
  1  2  1  0  0  0  0
  1 31  1  0  0  0  0
  2  3  1  0  0  0  0
  2 32  1  0  0  0  0
  2 33  1  0  0  0  0
  3  4  1  0  0  0  0
  3 26  1  0  0  0  0
  3 34  1  0  0  0  0
  4  5  1  0  0  0  0
  4 35  1  0  0  0  0
  4 36  1  0  0  0  0
  5 25  1  0  0  0  0
  5  6  1  0  0  0  0
  6  7  2  0  0  0  0
  6 37  1  0  0  0  0
  7  8  1  0  0  0  0
  8 25  2  0  0  0  0
  8  9  1  0  0  0  0
  9 10  1  0  0  0  0
  9 22  2  0  0  0  0
 10 15  1  0  0  0  0
 10 11  1  0  0  0  0
 11 12  1  0  0  0  0
 11 38  1  0  0  0  0
 11 39  1  0  0  0  0
 12 13  1  0  0  0  0
 12 40  1  0  0  0  0
 12 41  1  0  0  0  0
 13 14  1  0  0  0  0
 13 42  1  0  0  0  0
 13 43  1  0  0  0  0
 14 15  1  0  0  0  0
 14 44  1  0  0  0  0
 14 45  1  0  0  0  0
 15 16  1  0  0  0  0
 15 46  1  0  0  0  0
 16 20  1  0  0  0  0
 16 17  1  0  0  0  0
 16 47  1  0  0  0  0
 17 18  1  0  0  0  0
 17 48  1  0  0  0  0
 17 49  1  0  0  0  0
 18 19  1  0  0  0  0
 18 50  1  0  0  0  0
 18 51  1  0  0  0  0
 19 20  1  0  0  0  0
 19 52  1  0  0  0  0
 19 53  1  0  0  0  0
 20 21  1  0  0  0  0
 20 54  1  0  0  0  0
 21 55  1  0  0  0  0
 22 23  1  0  0  0  0
 23 24  2  0  0  0  0
 23 56  1  0  0  0  0
 24 25  1  0  0  0  0
 26 30  1  0  0  0  0
 26 27  1  0  0  0  0
 26 57  1  0  0  0  0
 27 28  1  0  0  0  0
 27 58  1  0  0  0  0
 27 59  1  0  0  0  0
 28 29  1  0  0  0  0
 28 60  1  0  0  0  0
 28 61  1  0  0  0  0
 29 30  1  0  0  0  0
 30 62  1  0  0  0  0
 30 63  1  0  0  0  0
M  END
> <s_m_source_file>
AV-unprocessed.smi

> <i_m_source_file_index>
148

> <i_lp_mmshare_version>
43012

> <i_f3d_flags>
0

> <s_epik_input>
W0NIMl0xT1tDSDJdW0NIMl1bQ0BIXTFbQ0BIXShbQ0gyXVtPSF0pW0NIMl1uKFtjSF1uMiljKGMyMyluW2NIXW5jM040W0NIMl1bQ0gyXVtDSDJdW0NIMl1bQ0BIXTRbQ0BASF01W0NIMl1bQ0gyXVtDSDJdW0NASF01W09IXQ==

> <s_epik_cmdline>
J2VwaWtfcHl0aG9uJywgJy1waCcsICc3LjAnLCAnLXRuJywgJzgnLCAnLW1hJywgJzIwMCcsICctbWV0YWxfYmluZGluZycsICctaW1hZScsICc8aW5maWxlLm1hZT4nLCAnLW9tYWUnLCAnPG91dGZpbGUubWFlPic=

> <r_lp_tautomer_probability>
1

> <r_epik_Ionization_Penalty>
0.00556303

> <r_epik_Ionization_Penalty_Charging>
0

> <r_epik_Ionization_Penalty_Neutral>
0.00556303

> <r_epik_State_Penalty>
0.00401767

> <r_epik_Charging_Adjusted_Penalty>
0.00401767

> <i_epik_Tot_Q>
0

> <i_epik_Tot_abs_Q>
0

> <r_epik_Metal_State_Penalty>
-0

> <b_epik_Metal_Only>
0

> <s_lp_Force_Field>
OPLS_2005

> <r_lp_Energy>
71.0858

> <b_lp_Chiralities_Consistent>
1

> <s_lp_Variant>
AV-unprocessed.smi:148-8

> <Gold.Version>
5.8.1

> <Gold.Id.Protein>
6NUR|6NUR_protein|mol2

> <Gold.PLP.Fitness>
49.1170

> <Gold.PLP.PLP>
-41.3062

> <Gold.PLP.part.hbond>
-3.0000

> <Gold.PLP.part.metal>
0.0000

> <Gold.PLP.part.buried>
-3.7007

> <Gold.PLP.part.nonpolar>
-36.3866

> <Gold.PLP.part.repulsive>
0.9579

> <Gold.PLP.ligand.clash>
0.0000

> <Gold.PLP.ligand.torsion>
0.8557

> <Gold.PLP.Chemscore.Hbond>
2.8960

> <Gold.PLP.Chemscore.CHOScore>
0.0000

> <Gold.PLP.Chemscore.Metal>
0.0000

> <Gold.Chemscore.Hbonds>
donor molecule, donor type, donor heavy atom, donor atom, acceptor molecule, acceptor atom, score
      P1  H  6896  6908       L1     1  0.45
      P1  H  7989  7998       L1    22  1.00
      P1  H 10752 10764       L1    24  0.90

> <Gold.PLP.Chemscore.Internal.Correction>
0.8342

> <Gold.Rescore>
     Score         DG    S(hbond)    S(metal)    S(lipo)     H(rot)  DE(clash)    DE(int)     intcor
     12.68     -15.43       2.63        0.00      82.78       3.32       0.68       2.07       ----

> <Gold.Chemscore.Fitness>
12.6845

> <Gold.Chemscore.DG>
-15.4344

> <Gold.Chemscore.ZeroCoef>
-5.4800

> <Gold.Chemscore.Hbond>
2.6256

> <Gold.Chemscore.Metal>
0.0000

> <Gold.Chemscore.Lipo>
82.7767

> <Gold.Chemscore.Internal_Hbond>
0.0000

> <Gold.Chemscore.DEClash>
0.6822

> <Gold.Chemscore.DEInternal>
2.0678

> <Gold.Chemscore.Rot>
3.3203

> <Gold.Chemscore.Internal.Correction>
   9.000000E+99

> <Gold.Chemscore.Hbonds>
donor molecule, donor type, donor heavy atom, donor atom, acceptor molecule, acceptor atom, score
      P1  H  6896  6908       L1     1  0.02
      P1  H  7989  7998       L1    22  0.58
      P1  H 10752 10764       L1    24  0.81

> <Gold.Chemscore.Hbond.Weighted>
-8.7696

> <Gold.Chemscore.Metal.Weighted>
-0.0000

> <Gold.Chemscore.Lipo.Weighted>
-9.6849

> <Gold.Chemscore.Internal_Hbond.Weighted>
0.0000

> <Gold.Chemscore.DEClash.Weighted>
0.6822

> <Gold.Chemscore.DEInternal.Weighted>
2.0678

> <Gold.Chemscore.Rot.Weighted>
8.5000

> <Gold.Chemscore.Internal.Correction.Weighted>
   9.000000E+99

> <Gold.Protein.RotatedTorsions>
[ 6907 6896 6895 6894 ] final   81.33 input  -60.11 | X-H torsion
[ 7974 7965 7964 7962 ] final  -20.38 input  175.53 | X-H torsion
[ 8008 7997 7996 7995 ] final -121.26 input   59.86 | X-H torsion
[ 10167 10162 10161 10158 ] final -157.07 input  -65.29 | X-H torsion
[ 10718 10713 10712 10709 ] final  113.92 input   66.30 | X-H torsion
[ 10763 10752 10751 10750 ] final  -72.51 input  -60.55 | X-H torsion
[ 11005 11000 10999 10996 ] final   70.87 input  -57.11 | X-H torsion

> <Gold.Protein.ActiveResidues>
 VAL166  LYS551  ARG553  GLY616  TRP617  ASP618  TYR619  PRO620  LYS621  CYS622 
 ASP623  PHE694  ASN695  SER759  ASP760  ASP761  ALA762  ILE779  LEU786  VAL792 
 PHE793  MET794  SER795  GLU796  ALA797  LYS798  CYS799  TRP800  GLU811  SER814 

> <Gold.Protein.RotatedAtoms>
  152.5265  134.3220  159.9151 H   0  0  0  0  0  0  0  0  0  0  0  0  # atno 6907 bound_to 6896
  151.3169  133.4050  159.2659 H   0  0  0  0  0  0  0  0  0  0  0  0  # atno 6908 bound_to 6896
  150.9991  134.9324  159.8001 H   0  0  0  0  0  0  0  0  0  0  0  0  # atno 6909 bound_to 6896
  146.1791  140.4194  142.8501 H   0  0  0  0  0  0  0  0  0  0  0  0  # atno 7974 bound_to 7965
  155.1452  140.0402  157.2808 H   0  0  0  0  0  0  0  0  0  0  0  0  # atno 8008 bound_to 7997
  154.6444  140.2554  155.7258 H   0  0  0  0  0  0  0  0  0  0  0  0  # atno 8009 bound_to 7997
  156.2548  140.2849  156.0851 H   0  0  0  0  0  0  0  0  0  0  0  0  # atno 8010 bound_to 7997
  139.6800  143.9598  152.2331 H   0  0  0  0  0  0  0  0  0  0  0  0  # atno 10167 bound_to 10162
  157.6311  131.0991  150.7111 H   0  0  0  0  0  0  0  0  0  0  0  0  # atno 10718 bound_to 10713
  154.4467  135.5927  153.6164 H   0  0  0  0  0  0  0  0  0  0  0  0  # atno 10763 bound_to 10752
  152.9810  135.6011  154.3655 H   0  0  0  0  0  0  0  0  0  0  0  0  # atno 10764 bound_to 10752
  154.3512  135.2841  155.2350 H   0  0  0  0  0  0  0  0  0  0  0  0  # atno 10765 bound_to 10752
  139.9574  134.7120  156.0722 H   0  0  0  0  0  0  0  0  0  0  0  0  # atno 11005 bound_to 11000
  144.8285  140.6668  143.6306 LP  0  0  0  0  0  0  0  0  0  0  0  0  # atno 17320 bound_to 7965
  145.4127  139.1577  143.4117 LP  0  0  0  0  0  0  0  0  0  0  0  0  # atno 17321 bound_to 7965
  139.9385  144.6696  150.8290 LP  0  0  0  0  0  0  0  0  0  0  0  0  # atno 17342 bound_to 10162
  140.7649  143.3260  151.2515 LP  0  0  0  0  0  0  0  0  0  0  0  0  # atno 17343 bound_to 10162
  156.7450  130.4751  149.5469 LP  0  0  0  0  0  0  0  0  0  0  0  0  # atno 17370 bound_to 10713
  156.1515  130.6313  151.0602 LP  0  0  0  0  0  0  0  0  0  0  0  0  # atno 17371 bound_to 10713
  141.1247  133.6602  156.3306 LP  0  0  0  0  0  0  0  0  0  0  0  0  # atno 17394 bound_to 11000
  140.5578  134.5964  157.5425 LP  0  0  0  0  0  0  0  0  0  0  0  0  # atno 17395 bound_to 11000

$$$$
