AV-unprocessed.smi:33|AV-procd|sdf|204|dock6
  -GOLD-   2262015483D 1   1.00000     0.00000
 Structure written by MMmdl.
 67 72  0  0  0  0  0  0  0  0  1 V2000
  153.4363  139.3691  158.8533 O   0  0  0  0  0  0  0  0  0  0  0  0
  152.3803  139.9760  158.6633 C   0  0  0  0  0  0  0  0  0  0  0  0
  151.2658  139.3955  158.1647 O   0  0  0  0  0  0  0  0  0  0  0  0
  151.3250  138.0593  157.6845 C   0  0  0  0  0  0  0  0  0  0  0  0
  151.2633  137.9560  156.1474 C   0  0  1  0  0  0  0  0  0  0  0  0
  151.3919  136.6136  155.6859 O   0  0  0  0  0  0  0  0  0  0  0  0
  150.1465  136.0817  155.3275 C   0  0  1  0  0  0  0  0  0  0  0  0
  149.7974  135.0146  156.3192 N   0  0  0  0  0  0  0  0  0  0  0  0
  150.5278  133.9122  156.7130 C   0  0  0  0  0  0  0  0  0  0  0  0
  149.9607  133.1567  157.6145 N   0  0  0  0  0  0  0  0  0  0  0  0
  148.7234  133.7520  157.8179 C   0  0  0  0  0  0  0  0  0  0  0  0
  147.6019  133.4468  158.6344 C   0  0  0  0  0  0  0  0  0  0  0  0
  147.5825  132.3890  159.4773 N   0  0  0  0  0  0  0  0  0  0  0  0
  147.6444  132.6816  160.9142 C   0  0  0  0  0  0  0  0  0  0  0  0
  148.2267  131.9051  161.6733 O   0  0  0  0  0  0  0  0  0  0  0  0
  147.0485  133.9524  161.4494 C   0  0  0  0  0  0  0  0  0  0  0  0
  147.7219  135.1810  161.2739 C   0  0  0  0  0  0  0  0  0  0  0  0
  147.1769  136.3696  161.7974 C   0  0  0  0  0  0  0  0  0  0  0  0
  145.9661  136.3340  162.5151 C   0  0  0  0  0  0  0  0  0  0  0  0
  145.3040  135.1081  162.7170 C   0  0  0  0  0  0  0  0  0  0  0  0
  145.8471  133.9196  162.1927 C   0  0  0  0  0  0  0  0  0  0  0  0
  147.5371  131.0438  158.8835 C   0  0  0  0  0  0  0  0  0  0  0  0
  147.8472  130.8833  157.7013 O   0  0  0  0  0  0  0  0  0  0  0  0
  147.1480  129.8562  159.7176 C   0  0  0  0  0  0  0  0  0  0  0  0
  147.5977  128.5666  159.3593 C   0  0  0  0  0  0  0  0  0  0  0  0
  147.2268  127.4462  160.1278 C   0  0  0  0  0  0  0  0  0  0  0  0
  146.3894  127.6057  161.2482 C   0  0  0  0  0  0  0  0  0  0  0  0
  145.9152  128.8850  161.5951 C   0  0  0  0  0  0  0  0  0  0  0  0
  146.2863  130.0062  160.8277 C   0  0  0  0  0  0  0  0  0  0  0  0
  146.5159  134.2584  158.5568 N   0  0  0  0  0  0  0  0  0  0  0  0
  146.5366  135.3161  157.7399 C   0  0  0  0  0  0  0  0  0  0  0  0
  147.5164  135.7294  156.9320 N   0  0  0  0  0  0  0  0  0  0  0  0
  148.6041  134.9085  157.0011 C   0  0  0  0  0  0  0  0  0  0  0  0
  149.1170  137.2275  155.3884 C   0  0  2  0  0  0  0  0  0  0  0  0
  148.2730  137.2935  154.2559 O   0  0  0  0  0  0  0  0  0  0  0  0
  149.9895  138.4713  155.4834 C   0  0  2  0  0  0  0  0  0  0  0  0
  150.3266  138.9071  154.2659 F   0  0  0  0  0  0  0  0  0  0  0  0
  152.2001  141.4209  158.9852 C   0  0  0  0  0  0  0  0  0  0  0  0
  151.1965  142.1578  158.3133 C   0  0  0  0  0  0  0  0  0  0  0  0
  151.0018  143.5245  158.5910 C   0  0  0  0  0  0  0  0  0  0  0  0
  151.8055  144.1698  159.5479 C   0  0  0  0  0  0  0  0  0  0  0  0
  152.8098  143.4494  160.2202 C   0  0  0  0  0  0  0  0  0  0  0  0
  153.0069  142.0836  159.9414 C   0  0  0  0  0  0  0  0  0  0  0  0
  152.2533  137.6116  158.0410 H   0  0  0  0  0  0  0  0  0  0  0  0
  150.5085  137.4708  158.1058 H   0  0  0  0  0  0  0  0  0  0  0  0
  152.1218  138.5120  155.7686 H   0  0  0  0  0  0  0  0  0  0  0  0
  150.2014  135.5671  154.3673 H   0  0  0  0  0  0  0  0  0  0  0  0
  151.5133  133.6913  156.3299 H   0  0  0  0  0  0  0  0  0  0  0  0
  148.6529  135.2196  160.7267 H   0  0  0  0  0  0  0  0  0  0  0  0
  147.6895  137.3087  161.6498 H   0  0  0  0  0  0  0  0  0  0  0  0
  145.5490  137.2456  162.9172 H   0  0  0  0  0  0  0  0  0  0  0  0
  144.3804  135.0781  163.2761 H   0  0  0  0  0  0  0  0  0  0  0  0
  145.3351  132.9830  162.3622 H   0  0  0  0  0  0  0  0  0  0  0  0
  148.2411  128.4328  158.5015 H   0  0  0  0  0  0  0  0  0  0  0  0
  147.5845  126.4640  159.8567 H   0  0  0  0  0  0  0  0  0  0  0  0
  146.1054  126.7462  161.8372 H   0  0  0  0  0  0  0  0  0  0  0  0
  145.2659  129.0070  162.4493 H   0  0  0  0  0  0  0  0  0  0  0  0
  145.9123  130.9824  161.1010 H   0  0  0  0  0  0  0  0  0  0  0  0
  145.6405  135.9189  157.7339 H   0  0  0  0  0  0  0  0  0  0  0  0
  148.5081  137.1330  156.2859 H   0  0  0  0  0  0  0  0  0  0  0  0
  148.7410  136.9435  153.5132 H   0  0  0  0  0  0  0  0  0  0  0  0
  149.5184  139.3004  156.0124 H   0  0  0  0  0  0  0  0  0  0  0  0
  150.5663  141.6839  157.5745 H   0  0  0  0  0  0  0  0  0  0  0  0
  150.2351  144.0781  158.0689 H   0  0  0  0  0  0  0  0  0  0  0  0
  151.6585  145.2186  159.7597 H   0  0  0  0  0  0  0  0  0  0  0  0
  153.4335  143.9465  160.9487 H   0  0  0  0  0  0  0  0  0  0  0  0
  153.7845  141.5623  160.4763 H   0  0  0  0  0  0  0  0  0  0  0  0
  1  2  2  0  0  0  0
  2  3  1  0  0  0  0
  2 38  1  0  0  0  0
  3  4  1  0  0  0  0
  4  5  1  0  0  0  0
  4 44  1  0  0  0  0
  4 45  1  0  0  0  0
  5 36  1  0  0  0  0
  5  6  1  0  0  0  0
  5 46  1  0  0  0  0
  6  7  1  0  0  0  0
  7  8  1  0  0  0  0
  7 34  1  0  0  0  0
  7 47  1  0  0  0  0
  8 33  1  0  0  0  0
  8  9  1  0  0  0  0
  9 10  2  0  0  0  0
  9 48  1  0  0  0  0
 10 11  1  0  0  0  0
 11 33  2  0  0  0  0
 11 12  1  0  0  0  0
 12 13  1  0  0  0  0
 12 30  2  0  0  0  0
 13 14  1  0  0  0  0
 13 22  1  0  0  0  0
 14 15  2  0  0  0  0
 14 16  1  0  0  0  0
 16 21  1  0  0  0  0
 16 17  2  0  0  0  0
 17 18  1  0  0  0  0
 17 49  1  0  0  0  0
 18 19  2  0  0  0  0
 18 50  1  0  0  0  0
 19 20  1  0  0  0  0
 19 51  1  0  0  0  0
 20 21  2  0  0  0  0
 20 52  1  0  0  0  0
 21 53  1  0  0  0  0
 22 23  2  0  0  0  0
 22 24  1  0  0  0  0
 24 29  1  0  0  0  0
 24 25  2  0  0  0  0
 25 26  1  0  0  0  0
 25 54  1  0  0  0  0
 26 27  2  0  0  0  0
 26 55  1  0  0  0  0
 27 28  1  0  0  0  0
 27 56  1  0  0  0  0
 28 29  2  0  0  0  0
 28 57  1  0  0  0  0
 29 58  1  0  0  0  0
 30 31  1  0  0  0  0
 31 32  2  0  0  0  0
 31 59  1  0  0  0  0
 32 33  1  0  0  0  0
 34 35  1  0  0  0  0
 34 36  1  0  0  0  0
 34 60  1  0  0  0  0
 35 61  1  0  0  0  0
 36 37  1  0  0  0  0
 36 62  1  0  0  0  0
 38 43  1  0  0  0  0
 38 39  2  0  0  0  0
 39 40  1  0  0  0  0
 39 63  1  0  0  0  0
 40 41  2  0  0  0  0
 40 64  1  0  0  0  0
 41 42  1  0  0  0  0
 41 65  1  0  0  0  0
 42 43  2  0  0  0  0
 42 66  1  0  0  0  0
 43 67  1  0  0  0  0
M  END
> <s_m_source_file>
AV-unprocessed.smi

> <i_m_source_file_index>
33

> <i_lp_mmshare_version>
43012

> <i_f3d_flags>
0

> <s_epik_input>
W2NIXTFbY0hdW2NIXVtjSF1bY0hdYzFDKD1PKU9bQ0gyXVtDQEBIXTJPW0NASF0oW0NAQEhdKFtPSF0pW0NAQEhdMkYpbihbY0hdbjMpYyhjMzQpbltjSF1uYzROKEMoPU8pYzVbY0hdW2NIXVtjSF1bY0hdW2NIXTUpQyg9TyljNltjSF1bY0hdW2NIXVtjSF1bY0hdNg==

> <s_epik_cmdline>
J2VwaWtfcHl0aG9uJywgJy1waCcsICc3LjAnLCAnLXRuJywgJzgnLCAnLW1hJywgJzIwMCcsICctbWV0YWxfYmluZGluZycsICctaW1hZScsICc8aW5maWxlLm1hZT4nLCAnLW9tYWUnLCAnPG91dGZpbGUubWFlPic=

> <r_lp_tautomer_probability>
1

> <r_epik_Ionization_Penalty>
0.00067664

> <r_epik_Ionization_Penalty_Charging>
0

> <r_epik_Ionization_Penalty_Neutral>
0.00067664

> <r_epik_State_Penalty>
0.000428095

> <r_epik_Charging_Adjusted_Penalty>
0.000428095

> <i_epik_Tot_Q>
0

> <i_epik_Tot_abs_Q>
0

> <r_epik_Metal_State_Penalty>
-0

> <b_epik_Metal_Only>
0

> <s_epik_Chemistry_Notes>
This compound has an ester and may undergo hydrolysis at high or low pH. This compound contains an acetal/aminal-like group ( X-CH(R)-Y where X, Y are N, S, or O) that may be acid/base labile, releasing an aldehyde.

> <s_lp_Force_Field>
OPLS_2005

> <r_lp_Energy>
67.2923

> <b_lp_Chiralities_Consistent>
1

> <s_lp_Variant>
AV-unprocessed.smi:33-6

> <Gold.Version>
5.8.1

> <Gold.Id.Protein>
6NUR|6NUR_protein|mol2

> <Gold.PLP.Fitness>
60.6051

> <Gold.PLP.PLP>
-55.9918

> <Gold.PLP.part.hbond>
-3.9795

> <Gold.PLP.part.metal>
0.0000

> <Gold.PLP.part.buried>
-7.9171

> <Gold.PLP.part.nonpolar>
-45.0791

> <Gold.PLP.part.repulsive>
0.0796

> <Gold.PLP.ligand.clash>
2.4716

> <Gold.PLP.ligand.torsion>
4.3807

> <Gold.PLP.Chemscore.Hbond>
4.0000

> <Gold.PLP.Chemscore.CHOScore>
0.0000

> <Gold.PLP.Chemscore.Metal>
0.0000

> <Gold.Chemscore.Hbonds>
donor molecule, donor type, donor heavy atom, donor atom, acceptor molecule, acceptor atom, score
      L1  H    35    61       P1  7948  1.00
      P1  H  6896  6908       L1    10  1.00
      P1  H  7997  8008       L1     1  0.49
      P1  H 10752 10763       L1     6  0.67

> <Gold.PLP.Chemscore.Internal.Correction>
3.8464

> <Gold.Rescore>
     Score         DG    S(hbond)    S(metal)    S(lipo)     H(rot)  DE(clash)    DE(int)     intcor
     17.41     -26.43       3.12        0.00     145.32       2.52       0.12       8.90       ----

> <Gold.Chemscore.Fitness>
17.4054

> <Gold.Chemscore.DG>
-26.4265

> <Gold.Chemscore.ZeroCoef>
-5.4800

> <Gold.Chemscore.Hbond>
3.1159

> <Gold.Chemscore.Metal>
0.0000

> <Gold.Chemscore.Lipo>
145.3229

> <Gold.Chemscore.Internal_Hbond>
0.0000

> <Gold.Chemscore.DEClash>
0.1185

> <Gold.Chemscore.DEInternal>
8.9026

> <Gold.Chemscore.Rot>
2.5247

> <Gold.Chemscore.Internal.Correction>
   9.000000E+99

> <Gold.Chemscore.Hbonds>
donor molecule, donor type, donor heavy atom, donor atom, acceptor molecule, acceptor atom, score
      L1  H    35    61       P1  7948  0.99
      P1  H  6896  6908       L1    10  0.23
      P1  H  7997  8008       L1     1  0.24
      P1  H 10752 10763       L1     6  0.61

> <Gold.Chemscore.Hbond.Weighted>
-10.4070

> <Gold.Chemscore.Metal.Weighted>
-0.0000

> <Gold.Chemscore.Lipo.Weighted>
-17.0028

> <Gold.Chemscore.Internal_Hbond.Weighted>
0.0000

> <Gold.Chemscore.DEClash.Weighted>
0.1185

> <Gold.Chemscore.DEInternal.Weighted>
8.9026

> <Gold.Chemscore.Rot.Weighted>
6.4633

> <Gold.Chemscore.Internal.Correction.Weighted>
   9.000000E+99

> <Gold.Protein.RotatedTorsions>
[ 6907 6896 6895 6894 ] final   92.42 input  -60.11 | X-H torsion
[ 7974 7965 7964 7962 ] final   50.48 input  175.53 | X-H torsion
[ 8008 7997 7996 7995 ] final -101.45 input   59.86 | X-H torsion
[ 10167 10162 10161 10158 ] final   83.75 input  -65.29 | X-H torsion
[ 10718 10713 10712 10709 ] final -136.81 input   66.30 | X-H torsion
[ 10763 10752 10751 10750 ] final   88.02 input  -60.55 | X-H torsion
[ 11005 11000 10999 10996 ] final  -94.29 input  -57.11 | X-H torsion

> <Gold.Protein.ActiveResidues>
 VAL166  LYS551  ARG553  GLY616  TRP617  ASP618  TYR619  PRO620  LYS621  CYS622 
 ASP623  PHE694  ASN695  SER759  ASP760  ASP761  ALA762  ILE779  LEU786  VAL792 
 PHE793  MET794  SER795  GLU796  ALA797  LYS798  CYS799  TRP800  GLU811  SER814 

> <Gold.Protein.RotatedAtoms>
  152.5452  134.1505  159.8515 H   0  0  0  0  0  0  0  0  0  0  0  0  # atno 6907 bound_to 6896
  151.1532  133.4886  159.2602 H   0  0  0  0  0  0  0  0  0  0  0  0  # atno 6908 bound_to 6896
  151.1450  135.0209  159.8698 H   0  0  0  0  0  0  0  0  0  0  0  0  # atno 6909 bound_to 6896
  146.0008  139.4437  143.0016 H   0  0  0  0  0  0  0  0  0  0  0  0  # atno 7974 bound_to 7965
  154.8427  140.0434  157.1552 H   0  0  0  0  0  0  0  0  0  0  0  0  # atno 8008 bound_to 7997
  154.9029  140.3002  155.5287 H   0  0  0  0  0  0  0  0  0  0  0  0  # atno 8009 bound_to 7997
  156.2993  140.2372  156.4059 H   0  0  0  0  0  0  0  0  0  0  0  0  # atno 8010 bound_to 7997
  139.9152  144.6247  150.8496 H   0  0  0  0  0  0  0  0  0  0  0  0  # atno 10167 bound_to 10162
  156.2812  130.7321  151.1319 H   0  0  0  0  0  0  0  0  0  0  0  0  # atno 10718 bound_to 10713
  153.1726  135.4522  154.9923 H   0  0  0  0  0  0  0  0  0  0  0  0  # atno 10763 bound_to 10752
  154.7976  135.3243  154.7631 H   0  0  0  0  0  0  0  0  0  0  0  0  # atno 10764 bound_to 10752
  153.8105  135.6955  153.4896 H   0  0  0  0  0  0  0  0  0  0  0  0  # atno 10765 bound_to 10752
  141.1474  133.7946  157.0277 H   0  0  0  0  0  0  0  0  0  0  0  0  # atno 11005 bound_to 11000
  145.7490  140.9979  143.1260 LP  0  0  0  0  0  0  0  0  0  0  0  0  # atno 17320 bound_to 7965
  144.6919  139.9191  143.7467 LP  0  0  0  0  0  0  0  0  0  0  0  0  # atno 17321 bound_to 7965
  140.7676  143.3336  151.2356 LP  0  0  0  0  0  0  0  0  0  0  0  0  # atno 17342 bound_to 10162
  139.6908  143.9695  152.2858 LP  0  0  0  0  0  0  0  0  0  0  0  0  # atno 17343 bound_to 10162
  157.7315  131.0608  150.5676 LP  0  0  0  0  0  0  0  0  0  0  0  0  # atno 17370 bound_to 10713
  156.5782  130.4297  149.5989 LP  0  0  0  0  0  0  0  0  0  0  0  0  # atno 17371 bound_to 10713
  140.0774  134.9668  157.1568 LP  0  0  0  0  0  0  0  0  0  0  0  0  # atno 17394 bound_to 11000
  140.3625  134.2479  155.7185 LP  0  0  0  0  0  0  0  0  0  0  0  0  # atno 17395 bound_to 11000

$$$$
