AV-unprocessed.smi:451|AV-procd|sdf|2609|dock8
  -GOLD-   2262023 03D 1   1.00000     0.00000
 Structure written by MMmdl.
 38 38  0  0  0  0  0  0  0  0  1 V2000
  146.8220  142.3885  154.2725 C   0  0  0  0  0  0  0  0  0  0  0  0
  147.8313  141.5660  155.0844 C   0  0  0  0  0  0  0  0  0  0  0  0
  149.2001  141.3767  154.3997 C   0  0  0  0  0  0  0  0  0  0  0  0
  150.2343  140.8611  155.2794 N   0  0  0  0  0  0  0  0  0  0  0  0
  150.7323  141.5762  156.3726 C   0  0  0  0  0  0  0  0  0  0  0  0
  150.2201  142.8431  156.6078 N   0  0  0  0  0  0  0  0  0  0  0  0
  151.7019  141.0692  157.1901 C   0  0  0  0  0  0  0  0  0  0  0  0
  152.2090  141.7520  158.2946 N   0  0  0  0  0  0  0  0  0  0  0  0
  153.2452  141.1706  159.1400 C   0  0  0  0  0  0  0  0  0  0  0  0
  151.6596  143.0332  158.7318 C   0  0  0  0  0  0  0  0  0  0  0  0
  152.7245  144.1451  158.7626 C   0  0  0  0  0  0  0  0  0  0  0  0
  152.1489  145.4276  158.9699 O   0  0  0  0  0  0  0  0  0  0  0  0
  151.3316  145.5198  160.1264 C   0  0  0  0  0  0  0  0  0  0  0  0
  152.2517  139.7301  156.9427 C   0  0  0  0  0  0  0  0  0  0  0  0
  153.1161  139.1712  157.6175 O   0  0  0  0  0  0  0  0  0  0  0  0
  151.7133  139.0659  155.8439 N   0  0  0  0  0  0  0  0  0  0  0  0
  150.7269  139.5628  155.0003 C   0  0  0  0  0  0  0  0  0  0  0  0
  150.3255  138.8636  154.0695 O   0  0  0  0  0  0  0  0  0  0  0  0
  152.0655  138.1404  155.6474 H   0  0  0  0  0  0  0  0  0  0  0  0
  145.9044  142.5434  154.8402 H   0  0  0  0  0  0  0  0  0  0  0  0
  146.5517  141.8851  153.3442 H   0  0  0  0  0  0  0  0  0  0  0  0
  147.2263  143.3691  154.0195 H   0  0  0  0  0  0  0  0  0  0  0  0
  147.9905  142.0595  156.0435 H   0  0  0  0  0  0  0  0  0  0  0  0
  147.3954  140.5944  155.3178 H   0  0  0  0  0  0  0  0  0  0  0  0
  149.1259  140.7377  153.5190 H   0  0  0  0  0  0  0  0  0  0  0  0
  149.5779  142.3263  154.0203 H   0  0  0  0  0  0  0  0  0  0  0  0
  149.5095  143.2444  156.0131 H   0  0  0  0  0  0  0  0  0  0  0  0
  150.5210  143.4042  157.3916 H   0  0  0  0  0  0  0  0  0  0  0  0
  153.8015  140.4047  158.5982 H   0  0  0  0  0  0  0  0  0  0  0  0
  152.8099  140.7079  160.0256 H   0  0  0  0  0  0  0  0  0  0  0  0
  153.9575  141.9297  159.4649 H   0  0  0  0  0  0  0  0  0  0  0  0
  150.8426  143.3179  158.0677 H   0  0  0  0  0  0  0  0  0  0  0  0
  151.2171  142.9153  159.7206 H   0  0  0  0  0  0  0  0  0  0  0  0
  153.4874  143.9375  159.5146 H   0  0  0  0  0  0  0  0  0  0  0  0
  153.2397  144.1828  157.8030 H   0  0  0  0  0  0  0  0  0  0  0  0
  150.9955  146.5492  160.2497 H   0  0  0  0  0  0  0  0  0  0  0  0
  151.8824  145.2393  161.0251 H   0  0  0  0  0  0  0  0  0  0  0  0
  150.4442  144.8922  160.0489 H   0  0  0  0  0  0  0  0  0  0  0  0
  1  2  1  0  0  0  0
  1 20  1  0  0  0  0
  1 21  1  0  0  0  0
  1 22  1  0  0  0  0
  2  3  1  0  0  0  0
  2 23  1  0  0  0  0
  2 24  1  0  0  0  0
  3  4  1  0  0  0  0
  3 25  1  0  0  0  0
  3 26  1  0  0  0  0
  4 17  1  0  0  0  0
  4  5  1  0  0  0  0
  5  6  1  0  0  0  0
  5  7  2  0  0  0  0
  6 27  1  0  0  0  0
  6 28  1  0  0  0  0
  7  8  1  0  0  0  0
  7 14  1  0  0  0  0
  8  9  1  0  0  0  0
  8 10  1  0  0  0  0
  9 29  1  0  0  0  0
  9 30  1  0  0  0  0
  9 31  1  0  0  0  0
 10 11  1  0  0  0  0
 10 32  1  0  0  0  0
 10 33  1  0  0  0  0
 11 12  1  0  0  0  0
 11 34  1  0  0  0  0
 11 35  1  0  0  0  0
 12 13  1  0  0  0  0
 13 36  1  0  0  0  0
 13 37  1  0  0  0  0
 13 38  1  0  0  0  0
 14 15  2  0  0  0  0
 14 16  1  0  0  0  0
 16 19  1  0  0  0  0
 16 17  1  0  0  0  0
 17 18  2  0  0  0  0
M  END
> <s_m_source_file>
AV-unprocessed.smi

> <i_m_source_file_index>
451

> <i_lp_mmshare_version>
43012

> <i_f3d_flags>
0

> <s_epik_input>
W0NIM11bQ0gyXVtDSDJdbjFjKFtOSDJdKWMoYyg9TylbbkhdYzE9TylOKFtDSDNdKVtDSDJdW0NIMl1PW0NIM10=

> <s_epik_cmdline>
J2VwaWtfcHl0aG9uJywgJy1waCcsICc3LjAnLCAnLXRuJywgJzgnLCAnLW1hJywgJzIwMCcsICctbWV0YWxfYmluZGluZycsICctaW1hZScsICc8aW5maWxlLm1hZT4nLCAnLW9tYWUnLCAnPG91dGZpbGUubWFlPic=

> <r_lp_tautomer_probability>
1

> <r_epik_Ionization_Penalty>
2.19941e-05

> <r_epik_Ionization_Penalty_Charging>
2.62604e-06

> <r_epik_Ionization_Penalty_Neutral>
1.93681e-05

> <r_epik_State_Penalty>
-0

> <r_epik_Charging_Adjusted_Penalty>
2.62604e-06

> <i_epik_Tot_Q>
0

> <i_epik_Tot_abs_Q>
0

> <r_epik_Metal_State_Penalty>
-0

> <b_epik_Metal_Only>
0

> <s_epik_Chemistry_Notes>
This compound has an imine and may undergo hydrolysis.

> <s_lp_Force_Field>
OPLS_2005

> <r_lp_Energy>
22.0879

> <b_lp_Chiralities_Consistent>
1

> <s_lp_Variant>
AV-unprocessed.smi:451-1

> <Gold.Version>
5.8.1

> <Gold.Id.Protein>
6NUR|6NUR_protein|mol2

> <Gold.PLP.Fitness>
44.4184

> <Gold.PLP.PLP>
-39.3206

> <Gold.PLP.part.hbond>
-1.9565

> <Gold.PLP.part.metal>
0.0000

> <Gold.PLP.part.buried>
-2.5241

> <Gold.PLP.part.nonpolar>
-32.6142

> <Gold.PLP.part.repulsive>
0.4685

> <Gold.PLP.ligand.clash>
21.3575

> <Gold.PLP.ligand.torsion>
0.1222

> <Gold.PLP.Chemscore.Hbond>
1.8000

> <Gold.PLP.Chemscore.CHOScore>
0.0000

> <Gold.PLP.Chemscore.Metal>
0.0000

> <Gold.Chemscore.Hbonds>
donor molecule, donor type, donor heavy atom, donor atom, acceptor molecule, acceptor atom, score
      L1  H     6    27       P1  8028  0.77
      P1  H  7997  8009       L1    15  1.00

> <Gold.PLP.Chemscore.Internal.Correction>
21.2996

> <Gold.Rescore>
     Score         DG    S(hbond)    S(metal)    S(lipo)     H(rot)  DE(clash)    DE(int)     intcor
      8.76     -12.48       1.25        0.00      67.95       2.00       0.11       3.60       ----

> <Gold.Chemscore.Fitness>
8.7647

> <Gold.Chemscore.DG>
-12.4804

> <Gold.Chemscore.ZeroCoef>
-5.4800

> <Gold.Chemscore.Hbond>
1.2509

> <Gold.Chemscore.Metal>
0.0000

> <Gold.Chemscore.Lipo>
67.9515

> <Gold.Chemscore.Internal_Hbond>
0.0000

> <Gold.Chemscore.DEClash>
0.1114

> <Gold.Chemscore.DEInternal>
3.6043

> <Gold.Chemscore.Rot>
2.0031

> <Gold.Chemscore.Internal.Correction>
   9.000000E+99

> <Gold.Chemscore.Hbonds>
donor molecule, donor type, donor heavy atom, donor atom, acceptor molecule, acceptor atom, score
      L1  H     6    27       P1  8028  0.77
      P1  H  7997  8009       L1    15  0.34

> <Gold.Chemscore.Hbond.Weighted>
-4.1779

> <Gold.Chemscore.Metal.Weighted>
-0.0000

> <Gold.Chemscore.Lipo.Weighted>
-7.9503

> <Gold.Chemscore.Internal_Hbond.Weighted>
0.0000

> <Gold.Chemscore.DEClash.Weighted>
0.1114

> <Gold.Chemscore.DEInternal.Weighted>
3.6043

> <Gold.Chemscore.Rot.Weighted>
5.1278

> <Gold.Chemscore.Internal.Correction.Weighted>
   9.000000E+99

> <Gold.Protein.RotatedTorsions>
[ 6907 6896 6895 6894 ] final  120.16 input  -60.11 | X-H torsion
[ 7974 7965 7964 7962 ] final   78.50 input  175.53 | X-H torsion
[ 8008 7997 7996 7995 ] final  150.77 input   59.86 | X-H torsion
[ 10167 10162 10161 10158 ] final  140.17 input  -65.29 | X-H torsion
[ 10718 10713 10712 10709 ] final -167.92 input   66.30 | X-H torsion
[ 10763 10752 10751 10750 ] final -174.84 input  -60.55 | X-H torsion
[ 11005 11000 10999 10996 ] final  153.27 input  -57.11 | X-H torsion

> <Gold.Protein.ActiveResidues>
 VAL166  LYS551  ARG553  GLY616  TRP617  ASP618  TYR619  PRO620  LYS621  CYS622 
 ASP623  PHE694  ASN695  SER759  ASP760  ASP761  ALA762  ILE779  LEU786  VAL792 
 PHE793  MET794  SER795  GLU796  ALA797  LYS798  CYS799  TRP800  GLU811  SER814 

> <Gold.Protein.RotatedAtoms>
  152.4419  133.7464  159.6669 H   0  0  0  0  0  0  0  0  0  0  0  0  # atno 6907 bound_to 6896
  150.8311  133.8079  159.3104 H   0  0  0  0  0  0  0  0  0  0  0  0  # atno 6908 bound_to 6896
  151.5732  135.1064  160.0052 H   0  0  0  0  0  0  0  0  0  0  0  0  # atno 6909 bound_to 6896
  145.6764  139.2511  143.1839 H   0  0  0  0  0  0  0  0  0  0  0  0  # atno 7974 bound_to 7965
  156.2702  140.2066  156.6070 H   0  0  0  0  0  0  0  0  0  0  0  0  # atno 8008 bound_to 7997
  154.6861  140.0535  157.0340 H   0  0  0  0  0  0  0  0  0  0  0  0  # atno 8009 bound_to 7997
  155.0932  140.3198  155.4571 H   0  0  0  0  0  0  0  0  0  0  0  0  # atno 8010 bound_to 7997
  139.5057  144.6251  151.5958 H   0  0  0  0  0  0  0  0  0  0  0  0  # atno 10167 bound_to 10162
  156.6893  130.9153  151.3067 H   0  0  0  0  0  0  0  0  0  0  0  0  # atno 10718 bound_to 10713
  154.5915  135.2845  155.0631 H   0  0  0  0  0  0  0  0  0  0  0  0  # atno 10763 bound_to 10752
  154.1929  135.6437  153.5069 H   0  0  0  0  0  0  0  0  0  0  0  0  # atno 10764 bound_to 10752
  153.0123  135.5450  154.6602 H   0  0  0  0  0  0  0  0  0  0  0  0  # atno 10765 bound_to 10752
  140.1383  134.8756  157.2297 H   0  0  0  0  0  0  0  0  0  0  0  0  # atno 11005 bound_to 11000
  146.1002  140.7553  142.9553 LP  0  0  0  0  0  0  0  0  0  0  0  0  # atno 17320 bound_to 7965
  144.7040  140.3775  143.7133 LP  0  0  0  0  0  0  0  0  0  0  0  0  # atno 17321 bound_to 7965
  140.5965  143.9687  150.6358 LP  0  0  0  0  0  0  0  0  0  0  0  0  # atno 17342 bound_to 10162
  140.2884  143.3341  152.1085 LP  0  0  0  0  0  0  0  0  0  0  0  0  # atno 17343 bound_to 10162
  157.7015  130.9338  150.0798 LP  0  0  0  0  0  0  0  0  0  0  0  0  # atno 17370 bound_to 10713
  156.1809  130.3650  149.9037 LP  0  0  0  0  0  0  0  0  0  0  0  0  # atno 17371 bound_to 10713
  140.2754  134.3411  155.7360 LP  0  0  0  0  0  0  0  0  0  0  0  0  # atno 17394 bound_to 11000
  141.2182  133.7447  156.9285 LP  0  0  0  0  0  0  0  0  0  0  0  0  # atno 17395 bound_to 11000

$$$$
