AV-unprocessed.smi:2294|AV-procd|sdf|9216|dock5
  -GOLD-   2272012433D 1   1.00000     0.00000
 Structure written by MMmdl.
 34 35  0  0  0  0  0  0  0  0  1 V2000
  148.3777  139.1443  153.5745 C   0  0  0  0  0  0  0  0  0  0  0  0
  149.4293  139.7953  154.4553 C   0  0  0  0  0  0  0  0  0  0  0  0
  149.1000  141.0584  154.9551 N   0  0  0  0  0  0  0  0  0  0  0  0
  149.9350  141.6885  155.7146 C   0  0  0  0  0  0  0  0  0  0  0  0
  151.1799  141.1369  156.0617 N   0  0  0  0  0  0  0  0  0  0  0  0
  152.0389  141.9593  156.9314 C   0  0  0  0  0  0  0  0  0  0  0  0
  151.2271  142.9625  157.7810 C   0  0  2  0  0  0  0  0  0  0  0  0
  151.3639  144.2548  157.2222 O   0  0  0  0  0  0  0  0  0  0  0  0
  151.6819  142.9302  159.2349 C   0  0  0  0  0  0  0  0  0  0  0  0
  152.4549  141.8513  159.7213 C   0  0  0  0  0  0  0  0  0  0  0  0
  152.8654  141.8187  161.0679 C   0  0  0  0  0  0  0  0  0  0  0  0
  152.5027  142.8621  161.9402 C   0  0  0  0  0  0  0  0  0  0  0  0
  151.7257  143.9356  161.4654 C   0  0  0  0  0  0  0  0  0  0  0  0
  151.3136  143.9703  160.1188 C   0  0  0  0  0  0  0  0  0  0  0  0
  150.5574  145.0064  159.6826 F   0  0  0  0  0  0  0  0  0  0  0  0
  151.5813  139.9119  155.6144 C   0  0  0  0  0  0  0  0  0  0  0  0
  152.6760  139.4362  155.9204 O   0  0  0  0  0  0  0  0  0  0  0  0
  150.6206  139.2067  154.7500 C   0  0  0  0  0  0  0  0  0  0  0  0
  151.0336  137.8342  154.2323 C   0  0  0  0  0  0  0  0  0  0  0  0
  148.7751  138.9628  152.5756 H   0  0  0  0  0  0  0  0  0  0  0  0
  147.4962  139.7785  153.4737 H   0  0  0  0  0  0  0  0  0  0  0  0
  148.0567  138.1937  154.0009 H   0  0  0  0  0  0  0  0  0  0  0  0
  149.7302  142.6790  156.1256 H   0  0  0  0  0  0  0  0  0  0  0  0
  152.5870  141.2906  157.5988 H   0  0  0  0  0  0  0  0  0  0  0  0
  152.8220  142.4741  156.3713 H   0  0  0  0  0  0  0  0  0  0  0  0
  150.1665  142.7114  157.7460 H   0  0  0  0  0  0  0  0  0  0  0  0
  150.5455  144.4936  156.8143 H   0  0  0  0  0  0  0  0  0  0  0  0
  152.7345  141.0410  159.0638 H   0  0  0  0  0  0  0  0  0  0  0  0
  153.4573  140.9917  161.4316 H   0  0  0  0  0  0  0  0  0  0  0  0
  152.8171  142.8371  162.9733 H   0  0  0  0  0  0  0  0  0  0  0  0
  151.4431  144.7338  162.1358 H   0  0  0  0  0  0  0  0  0  0  0  0
  151.2247  137.1593  155.0671 H   0  0  0  0  0  0  0  0  0  0  0  0
  151.9488  137.9131  153.6445 H   0  0  0  0  0  0  0  0  0  0  0  0
  150.2791  137.3677  153.6012 H   0  0  0  0  0  0  0  0  0  0  0  0
  1  2  1  0  0  0  0
  1 20  1  0  0  0  0
  1 21  1  0  0  0  0
  1 22  1  0  0  0  0
  2 18  2  0  0  0  0
  2  3  1  0  0  0  0
  3  4  2  0  0  0  0
  4  5  1  0  0  0  0
  4 23  1  0  0  0  0
  5  6  1  0  0  0  0
  5 16  1  0  0  0  0
  6  7  1  0  0  0  0
  6 24  1  0  0  0  0
  6 25  1  0  0  0  0
  7  8  1  0  0  0  0
  7  9  1  0  0  0  0
  7 26  1  0  0  0  0
  8 27  1  0  0  0  0
  9 14  1  0  0  0  0
  9 10  2  0  0  0  0
 10 11  1  0  0  0  0
 10 28  1  0  0  0  0
 11 12  2  0  0  0  0
 11 29  1  0  0  0  0
 12 13  1  0  0  0  0
 12 30  1  0  0  0  0
 13 14  2  0  0  0  0
 13 31  1  0  0  0  0
 14 15  1  0  0  0  0
 16 17  2  0  0  0  0
 16 18  1  0  0  0  0
 18 19  1  0  0  0  0
 19 32  1  0  0  0  0
 19 33  1  0  0  0  0
 19 34  1  0  0  0  0
M  END
> <s_m_source_file>
AV-unprocessed.smi

> <i_m_source_file_index>
2294

> <i_lp_mmshare_version>
43012

> <i_f3d_flags>
0

> <s_epik_input>
W0NIM11jMW5bY0hdbihjKD1PKWMxW0NIM10pW0NIMl1bQ0BIXShbT0hdKWMyW2NIXVtjSF1bY0hdW2NIXWMyRg==

> <s_epik_cmdline>
J2VwaWtfcHl0aG9uJywgJy1waCcsICc3LjAnLCAnLXRuJywgJzgnLCAnLW1hJywgJzIwMCcsICctbWV0YWxfYmluZGluZycsICctaW1hZScsICc8aW5maWxlLm1hZT4nLCAnLW9tYWUnLCAnPG91dGZpbGUubWFlPic=

> <r_lp_tautomer_probability>
1

> <r_epik_Ionization_Penalty>
5.07259e-05

> <r_epik_Ionization_Penalty_Charging>
7.56727e-08

> <r_epik_Ionization_Penalty_Neutral>
5.06502e-05

> <r_epik_State_Penalty>
-0

> <r_epik_Charging_Adjusted_Penalty>
7.56727e-08

> <i_epik_Tot_Q>
0

> <i_epik_Tot_abs_Q>
0

> <r_epik_Metal_State_Penalty>
-0

> <b_epik_Metal_Only>
0

> <s_lp_Force_Field>
OPLS_2005

> <r_lp_Energy>
20.4384

> <b_lp_Chiralities_Consistent>
1

> <s_lp_Variant>
AV-unprocessed.smi:2294-1

> <Gold.Version>
5.8.1

> <Gold.Id.Protein>
6NUR|6NUR_protein|mol2

> <Gold.PLP.Fitness>
50.9785

> <Gold.PLP.PLP>
-44.8159

> <Gold.PLP.part.hbond>
-2.0000

> <Gold.PLP.part.metal>
0.0000

> <Gold.PLP.part.buried>
-5.9666

> <Gold.PLP.part.nonpolar>
-36.7242

> <Gold.PLP.part.repulsive>
0.1097

> <Gold.PLP.ligand.clash>
0.0009

> <Gold.PLP.ligand.torsion>
1.4237

> <Gold.PLP.Chemscore.Hbond>
2.0000

> <Gold.PLP.Chemscore.CHOScore>
1.0000

> <Gold.PLP.Chemscore.Metal>
0.0000

> <Gold.Chemscore.Hbonds>
donor molecule, donor type, donor heavy atom, donor atom, acceptor molecule, acceptor atom, score
      L1  H     8    27       P1  8028  1.00
      P1  H  7997  8009       L1    17  1.00
      L1  C     4    23       P1  8028  1.00

> <Gold.PLP.Chemscore.Internal.Correction>
0.0110

> <Gold.Rescore>
     Score         DG    S(hbond)    S(metal)    S(lipo)     H(rot)  DE(clash)    DE(int)     intcor
     17.36     -20.25       1.99        0.00     113.66       2.02       1.81       1.09       ----

> <Gold.Chemscore.Fitness>
17.3637

> <Gold.Chemscore.DG>
-20.2543

> <Gold.Chemscore.ZeroCoef>
-5.4800

> <Gold.Chemscore.Hbond>
1.9888

> <Gold.Chemscore.Metal>
0.0000

> <Gold.Chemscore.Lipo>
113.6584

> <Gold.Chemscore.Internal_Hbond>
0.0000

> <Gold.Chemscore.DEClash>
1.8055

> <Gold.Chemscore.DEInternal>
1.0851

> <Gold.Chemscore.Rot>
2.0181

> <Gold.Chemscore.Internal.Correction>
   9.000000E+99

> <Gold.Chemscore.Hbonds>
donor molecule, donor type, donor heavy atom, donor atom, acceptor molecule, acceptor atom, score
      L1  H     8    27       P1  8028  0.89
      P1  H  7997  8009       L1    17  1.00

> <Gold.Chemscore.Hbond.Weighted>
-6.6426

> <Gold.Chemscore.Metal.Weighted>
-0.0000

> <Gold.Chemscore.Lipo.Weighted>
-13.2980

> <Gold.Chemscore.Internal_Hbond.Weighted>
0.0000

> <Gold.Chemscore.DEClash.Weighted>
1.8055

> <Gold.Chemscore.DEInternal.Weighted>
1.0851

> <Gold.Chemscore.Rot.Weighted>
5.1663

> <Gold.Chemscore.Internal.Correction.Weighted>
   9.000000E+99

> <Gold.Protein.RotatedTorsions>
[ 6907 6896 6895 6894 ] final -173.20 input  -60.11 | X-H torsion
[ 7974 7965 7964 7962 ] final  118.43 input  175.53 | X-H torsion
[ 8008 7997 7996 7995 ] final -160.17 input   59.86 | X-H torsion
[ 10167 10162 10161 10158 ] final  169.21 input  -65.29 | X-H torsion
[ 10718 10713 10712 10709 ] final   19.72 input   66.30 | X-H torsion
[ 10763 10752 10751 10750 ] final   98.98 input  -60.55 | X-H torsion
[ 11005 11000 10999 10996 ] final   -8.42 input  -57.11 | X-H torsion

> <Gold.Protein.ActiveResidues>
 VAL166  LYS551  ARG553  GLY616  TRP617  ASP618  TYR619  PRO620  LYS621  CYS622 
 ASP623  PHE694  ASN695  SER759  ASP760  ASP761  ALA762  ILE779  LEU786  VAL792 
 PHE793  MET794  SER795  GLU796  ALA797  LYS798  CYS799  TRP800  GLU811  SER814 

> <Gold.Protein.RotatedAtoms>
  151.5524  133.3415  159.2955 H   0  0  0  0  0  0  0  0  0  0  0  0  # atno 6907 bound_to 6896
  150.8471  134.7786  159.6990 H   0  0  0  0  0  0  0  0  0  0  0  0  # atno 6908 bound_to 6896
  152.4526  134.5369  159.9879 H   0  0  0  0  0  0  0  0  0  0  0  0  # atno 6909 bound_to 6896
  145.1553  139.3186  143.4545 H   0  0  0  0  0  0  0  0  0  0  0  0  # atno 7974 bound_to 7965
  155.7735  140.0855  157.2096 H   0  0  0  0  0  0  0  0  0  0  0  0  # atno 8008 bound_to 7997
  154.3994  140.1521  156.3026 H   0  0  0  0  0  0  0  0  0  0  0  0  # atno 8009 bound_to 7997
  155.8724  140.3425  155.5833 H   0  0  0  0  0  0  0  0  0  0  0  0  # atno 8010 bound_to 7997
  139.4986  144.3731  151.9703 H   0  0  0  0  0  0  0  0  0  0  0  0  # atno 10167 bound_to 10162
  157.1144  130.6522  149.5906 H   0  0  0  0  0  0  0  0  0  0  0  0  # atno 10718 bound_to 10713
  153.2958  135.4129  155.1208 H   0  0  0  0  0  0  0  0  0  0  0  0  # atno 10763 bound_to 10752
  154.8534  135.3529  154.5919 H   0  0  0  0  0  0  0  0  0  0  0  0  # atno 10764 bound_to 10752
  153.6343  135.7059  153.5322 H   0  0  0  0  0  0  0  0  0  0  0  0  # atno 10765 bound_to 10752
  140.7233  133.8810  155.8837 H   0  0  0  0  0  0  0  0  0  0  0  0  # atno 11005 bound_to 11000
  146.3489  140.1643  142.8590 LP  0  0  0  0  0  0  0  0  0  0  0  0  # atno 17320 bound_to 7965
  145.0387  140.8928  143.5065 LP  0  0  0  0  0  0  0  0  0  0  0  0  # atno 17321 bound_to 7965
  140.3167  144.3475  150.6020 LP  0  0  0  0  0  0  0  0  0  0  0  0  # atno 17342 bound_to 10162
  140.5755  143.2177  151.7522 LP  0  0  0  0  0  0  0  0  0  0  0  0  # atno 17343 bound_to 10162
  155.9843  130.4867  150.6976 LP  0  0  0  0  0  0  0  0  0  0  0  0  # atno 17370 bound_to 10713
  157.4531  131.0875  151.0824 LP  0  0  0  0  0  0  0  0  0  0  0  0  # atno 17371 bound_to 10713
  140.9985  134.1183  157.4340 LP  0  0  0  0  0  0  0  0  0  0  0  0  # atno 17394 bound_to 11000
  139.8843  135.0061  156.6360 LP  0  0  0  0  0  0  0  0  0  0  0  0  # atno 17395 bound_to 11000

$$$$
