AV-unprocessed.smi:1033|AV-procd|sdf|4497|dock8
  -GOLD-   22720 2493D 1   1.00000     0.00000
 Structure written by MMmdl.
 56 58  0  0  0  0  0  0  0  0  2 V2000
  153.4011  143.1013  162.8552 C   0  0  0  0  0  0  0  0  0  0  0  0
  152.8632  142.7134  161.4890 C   0  0  0  0  0  0  0  0  0  0  0  0
  151.8482  143.5016  160.9005 C   0  0  0  0  0  0  0  0  0  0  0  0
  151.3226  143.1756  159.6308 C   0  0  0  0  0  0  0  0  0  0  0  0
  150.3417  143.7963  158.8760 N   0  0  0  0  0  0  0  0  0  0  0  0
  150.3039  143.0212  157.7955 C   0  0  0  0  0  0  0  0  0  0  0  0
  151.1456  141.9701  157.7619 N   0  0  0  0  0  0  0  0  0  0  0  0
  151.2908  140.9879  156.7036 C   0  0  0  0  0  0  0  0  0  0  0  0
  150.2863  141.2162  155.5563 C   0  0  1  0  0  0  0  0  0  0  0  0
  150.6355  140.3907  154.4635 O   0  0  0  0  0  0  0  0  0  0  0  0
  148.8334  140.8894  155.9545 C   0  0  0  0  0  0  0  0  0  0  0  0
  147.7969  141.4957  155.1100 N   0  0  0  0  0  0  0  0  0  0  0  0
  147.8086  141.0582  153.7110 C   0  0  0  0  0  0  0  0  0  0  0  0
  147.3384  139.6022  153.5221 C   0  0  0  0  0  0  0  0  0  0  0  0
  145.9720  139.4298  154.0839 N   0  3  0  0  0  0  0  0  0  0  0  0
  145.4075  138.0709  153.8828 C   0  0  0  0  0  0  0  0  0  0  0  0
  145.6883  137.5158  152.4723 C   0  0  1  0  0  0  0  0  0  0  0  0
  144.8368  136.2793  152.1573 C   0  0  0  0  0  0  0  0  0  0  0  0
  145.3903  138.5096  151.5122 O   0  0  0  0  0  0  0  0  0  0  0  0
  145.9349  139.8584  155.5059 C   0  0  0  0  0  0  0  0  0  0  0  0
  146.4485  141.3069  155.6441 C   0  0  0  0  0  0  0  0  0  0  0  0
  151.8456  142.0314  158.9611 C   0  0  0  0  0  0  0  0  0  0  0  0
  152.8553  141.2394  159.5355 C   0  0  0  0  0  0  0  0  0  0  0  0
  153.3678  141.5780  160.8052 C   0  0  0  0  0  0  0  0  0  0  0  0
  154.4575  140.7159  161.4177 C   0  0  0  0  0  0  0  0  0  0  0  0
  152.9245  144.0083  163.2282 H   0  0  0  0  0  0  0  0  0  0  0  0
  154.4746  143.2851  162.8056 H   0  0  0  0  0  0  0  0  0  0  0  0
  153.2182  142.3059  163.5778 H   0  0  0  0  0  0  0  0  0  0  0  0
  151.4635  144.3663  161.4208 H   0  0  0  0  0  0  0  0  0  0  0  0
  149.6237  143.2277  156.9819 H   0  0  0  0  0  0  0  0  0  0  0  0
  152.3163  141.0144  156.3321 H   0  0  0  0  0  0  0  0  0  0  0  0
  151.1467  140.0015  157.1457 H   0  0  0  0  0  0  0  0  0  0  0  0
  150.3554  142.2447  155.2035 H   0  0  0  0  0  0  0  0  0  0  0  0
  150.6827  139.4960  154.7640 H   0  0  0  0  0  0  0  0  0  0  0  0
  148.7091  139.8068  155.9783 H   0  0  0  0  0  0  0  0  0  0  0  0
  148.6863  141.2227  156.9827 H   0  0  0  0  0  0  0  0  0  0  0  0
  147.1512  141.7111  153.1351 H   0  0  0  0  0  0  0  0  0  0  0  0
  148.7961  141.1926  153.2722 H   0  0  0  0  0  0  0  0  0  0  0  0
  147.3416  139.3690  152.4582 H   0  0  0  0  0  0  0  0  0  0  0  0
  148.0303  138.9048  153.9956 H   0  0  0  0  0  0  0  0  0  0  0  0
  145.8056  137.4002  154.6460 H   0  0  0  0  0  0  0  0  0  0  0  0
  144.3271  138.0974  154.0353 H   0  0  0  0  0  0  0  0  0  0  0  0
  146.7379  137.2428  152.3683 H   0  0  0  0  0  0  0  0  0  0  0  0
  145.0432  135.4725  152.8611 H   0  0  0  0  0  0  0  0  0  0  0  0
  145.0467  135.9024  151.1557 H   0  0  0  0  0  0  0  0  0  0  0  0
  143.7707  136.5034  152.2119 H   0  0  0  0  0  0  0  0  0  0  0  0
  145.0433  139.2683  151.9570 H   0  0  0  0  0  0  0  0  0  0  0  0
  144.9105  139.8064  155.8761 H   0  0  0  0  0  0  0  0  0  0  0  0
  146.5243  139.1734  156.1170 H   0  0  0  0  0  0  0  0  0  0  0  0
  146.4167  141.6142  156.6901 H   0  0  0  0  0  0  0  0  0  0  0  0
  145.7633  141.9742  155.1193 H   0  0  0  0  0  0  0  0  0  0  0  0
  153.2317  140.3794  159.0018 H   0  0  0  0  0  0  0  0  0  0  0  0
  154.7039  139.8695  160.7762 H   0  0  0  0  0  0  0  0  0  0  0  0
  154.1369  140.3211  162.3819 H   0  0  0  0  0  0  0  0  0  0  0  0
  155.3666  141.2992  161.5664 H   0  0  0  0  0  0  0  0  0  0  0  0
  145.3659  140.0651  153.5841 H   0  0  0  0  0  0  0  0  0  0  0  0
  1  2  1  0  0  0  0
  1 26  1  0  0  0  0
  1 27  1  0  0  0  0
  1 28  1  0  0  0  0
  2 24  1  0  0  0  0
  2  3  2  0  0  0  0
  3  4  1  0  0  0  0
  3 29  1  0  0  0  0
  4 22  2  0  0  0  0
  4  5  1  0  0  0  0
  5  6  2  0  0  0  0
  6  7  1  0  0  0  0
  6 30  1  0  0  0  0
  7  8  1  0  0  0  0
  7 22  1  0  0  0  0
  8  9  1  0  0  0  0
  8 31  1  0  0  0  0
  8 32  1  0  0  0  0
  9 10  1  0  0  0  0
  9 11  1  0  0  0  0
  9 33  1  0  0  0  0
 10 34  1  0  0  0  0
 11 12  1  0  0  0  0
 11 35  1  0  0  0  0
 11 36  1  0  0  0  0
 12 21  1  0  0  0  0
 12 13  1  0  0  0  0
 13 14  1  0  0  0  0
 13 37  1  0  0  0  0
 13 38  1  0  0  0  0
 14 15  1  0  0  0  0
 14 39  1  0  0  0  0
 14 40  1  0  0  0  0
 15 16  1  0  0  0  0
 15 20  1  0  0  0  0
 15 56  1  0  0  0  0
 16 17  1  0  0  0  0
 16 41  1  0  0  0  0
 16 42  1  0  0  0  0
 17 18  1  0  0  0  0
 17 19  1  0  0  0  0
 17 43  1  0  0  0  0
 18 44  1  0  0  0  0
 18 45  1  0  0  0  0
 18 46  1  0  0  0  0
 19 47  1  0  0  0  0
 20 21  1  0  0  0  0
 20 48  1  0  0  0  0
 20 49  1  0  0  0  0
 21 50  1  0  0  0  0
 21 51  1  0  0  0  0
 22 23  1  0  0  0  0
 23 24  2  0  0  0  0
 23 52  1  0  0  0  0
 24 25  1  0  0  0  0
 25 53  1  0  0  0  0
 25 54  1  0  0  0  0
 25 55  1  0  0  0  0
M  CHG  1  15   1
M  END
> <s_m_source_file>
AV-unprocessed.smi

> <i_m_source_file_index>
1033

> <i_lp_mmshare_version>
43012

> <i_f3d_flags>
0

> <s_epik_input>
W0NIM11jKFtjSF0xKWMoW0NIM10pW2NIXWMoYzEyKW4oW2NIXW4yKVtDSDJdW0NASF0oW09IXSlbQ0gyXU4zW0NIMl1bQ0gyXU4oW0NIMl1bQ0gyXTMpW0NIMl1bQ0BIXShbQ0gzXSlbT0hd

> <s_epik_cmdline>
J2VwaWtfcHl0aG9uJywgJy1waCcsICc3LjAnLCAnLXRuJywgJzgnLCAnLW1hJywgJzIwMCcsICctbWV0YWxfYmluZGluZycsICctaW1hZScsICc8aW5maWxlLm1hZT4nLCAnLW9tYWUnLCAnPG91dGZpbGUubWFlPic=

> <r_epik_Ionization_Penalty>
0.129152

> <r_epik_Ionization_Penalty_Charging>
0.00083231

> <r_epik_Ionization_Penalty_Neutral>
0.128319

> <r_epik_State_Penalty>
0.556973

> <r_epik_Charging_Adjusted_Penalty>
0.557805

> <i_epik_Tot_Q>
1

> <i_epik_Tot_abs_Q>
1

> <r_epik_Metal_State_Penalty>
0.490047

> <b_epik_Metal_Only>
0

> <s_lp_Force_Field>
OPLS_2005

> <r_lp_Energy>
33.0878

> <b_lp_Chiralities_Consistent>
1

> <s_lp_Variant>
AV-unprocessed.smi:1033-8

> <Gold.Version>
5.8.1

> <Gold.Id.Protein>
6NUR|6NUR_protein|mol2

> <Gold.PLP.Fitness>
60.3043

> <Gold.PLP.PLP>
-46.0094

> <Gold.PLP.part.hbond>
-3.0843

> <Gold.PLP.part.metal>
0.0000

> <Gold.PLP.part.buried>
-5.2641

> <Gold.PLP.part.nonpolar>
-38.3005

> <Gold.PLP.part.repulsive>
0.2606

> <Gold.PLP.ligand.clash>
0.0000

> <Gold.PLP.ligand.torsion>
0.4526

> <Gold.PLP.Chemscore.Hbond>
3.9825

> <Gold.PLP.Chemscore.CHOScore>
1.0000

> <Gold.PLP.Chemscore.Metal>
0.0000

> <Gold.Chemscore.Hbonds>
donor molecule, donor type, donor heavy atom, donor atom, acceptor molecule, acceptor atom, score
      L1  H    15    56       P1 10175  1.85
      L1  H    19    47       P1 10175  1.00
      P1  H  7989  7998       L1    10  0.83
      L1  C     6    30       P1  8028  1.00

> <Gold.PLP.Chemscore.Internal.Correction>
0.2527

> <Gold.Rescore>
     Score         DG    S(hbond)    S(metal)    S(lipo)     H(rot)  DE(clash)    DE(int)     intcor
     20.53     -22.12       2.82        0.00     128.86       3.07       0.10       1.49       ----

> <Gold.Chemscore.Fitness>
20.5256

> <Gold.Chemscore.DG>
-22.1163

> <Gold.Chemscore.ZeroCoef>
-5.4800

> <Gold.Chemscore.Hbond>
2.8162

> <Gold.Chemscore.Metal>
0.0000

> <Gold.Chemscore.Lipo>
128.8595

> <Gold.Chemscore.Internal_Hbond>
0.0000

> <Gold.Chemscore.DEClash>
0.0975

> <Gold.Chemscore.DEInternal>
1.4932

> <Gold.Chemscore.Rot>
3.0650

> <Gold.Chemscore.Internal.Correction>
   9.000000E+99

> <Gold.Chemscore.Hbonds>
donor molecule, donor type, donor heavy atom, donor atom, acceptor molecule, acceptor atom, score
      L1  H    15    56       P1 10175  0.85
      L1  H    19    47       P1 10175  0.96
      P1  H  7989  7998       L1    10  0.77

> <Gold.Chemscore.Hbond.Weighted>
-9.4062

> <Gold.Chemscore.Metal.Weighted>
-0.0000

> <Gold.Chemscore.Lipo.Weighted>
-15.0766

> <Gold.Chemscore.Internal_Hbond.Weighted>
0.0000

> <Gold.Chemscore.DEClash.Weighted>
0.0975

> <Gold.Chemscore.DEInternal.Weighted>
1.4932

> <Gold.Chemscore.Rot.Weighted>
7.8465

> <Gold.Chemscore.Internal.Correction.Weighted>
   9.000000E+99

> <Gold.Protein.RotatedTorsions>
[ 6907 6896 6895 6894 ] final  135.58 input  -60.11 | X-H torsion
[ 7974 7965 7964 7962 ] final -125.87 input  175.53 | X-H torsion
[ 8008 7997 7996 7995 ] final  -49.13 input   59.86 | X-H torsion
[ 10167 10162 10161 10158 ] final  178.82 input  -65.29 | X-H torsion
[ 10718 10713 10712 10709 ] final    8.41 input   66.30 | X-H torsion
[ 10763 10752 10751 10750 ] final  106.68 input  -60.55 | X-H torsion
[ 11005 11000 10999 10996 ] final   93.94 input  -57.11 | X-H torsion

> <Gold.Protein.ActiveResidues>
 VAL166  LYS551  ARG553  GLY616  TRP617  ASP618  TYR619  PRO620  LYS621  CYS622 
 ASP623  PHE694  ASN695  SER759  ASP760  ASP761  ALA762  ILE779  LEU786  VAL792 
 PHE793  MET794  SER795  GLU796  ALA797  LYS798  CYS799  TRP800  GLU811  SER814 

> <Gold.Protein.RotatedAtoms>
  152.2989  133.5635  159.5605 H   0  0  0  0  0  0  0  0  0  0  0  0  # atno 6907 bound_to 6896
  150.7268  134.0320  159.3745 H   0  0  0  0  0  0  0  0  0  0  0  0  # atno 6908 bound_to 6896
  151.8221  135.0648  160.0477 H   0  0  0  0  0  0  0  0  0  0  0  0  # atno 6909 bound_to 6896
  144.9931  140.7750  143.4542 H   0  0  0  0  0  0  0  0  0  0  0  0  # atno 7974 bound_to 7965
  154.4039  140.1304  156.4452 H   0  0  0  0  0  0  0  0  0  0  0  0  # atno 8008 bound_to 7997
  155.7420  140.3489  155.5089 H   0  0  0  0  0  0  0  0  0  0  0  0  # atno 8009 bound_to 7997
  155.9030  140.1022  157.1326 H   0  0  0  0  0  0  0  0  0  0  0  0  # atno 8010 bound_to 7997
  139.5310  144.2635  152.0687 H   0  0  0  0  0  0  0  0  0  0  0  0  # atno 10167 bound_to 10162
  156.9513  130.5898  149.5657 H   0  0  0  0  0  0  0  0  0  0  0  0  # atno 10718 bound_to 10713
  153.3962  135.3869  155.1957 H   0  0  0  0  0  0  0  0  0  0  0  0  # atno 10763 bound_to 10752
  154.8724  135.3760  154.4675 H   0  0  0  0  0  0  0  0  0  0  0  0  # atno 10764 bound_to 10752
  153.5167  135.7087  153.5814 H   0  0  0  0  0  0  0  0  0  0  0  0  # atno 10765 bound_to 10752
  139.8804  134.8818  156.3791 H   0  0  0  0  0  0  0  0  0  0  0  0  # atno 11005 bound_to 11000
  145.2258  139.2138  143.5069 LP  0  0  0  0  0  0  0  0  0  0  0  0  # atno 17320 bound_to 7965
  146.3436  140.2125  142.8590 LP  0  0  0  0  0  0  0  0  0  0  0  0  # atno 17321 bound_to 7965
  140.2098  144.4574  150.6391 LP  0  0  0  0  0  0  0  0  0  0  0  0  # atno 17342 bound_to 10162
  140.6487  143.2219  151.6126 LP  0  0  0  0  0  0  0  0  0  0  0  0  # atno 17343 bound_to 10162
  156.0362  130.5449  150.8658 LP  0  0  0  0  0  0  0  0  0  0  0  0  # atno 17370 bound_to 10713
  157.5720  131.0946  150.9403 LP  0  0  0  0  0  0  0  0  0  0  0  0  # atno 17371 bound_to 10713
  140.9411  133.7514  156.0147 LP  0  0  0  0  0  0  0  0  0  0  0  0  # atno 17394 bound_to 11000
  140.8218  134.3280  157.5379 LP  0  0  0  0  0  0  0  0  0  0  0  0  # atno 17395 bound_to 11000

$$$$
