AV-unprocessed.smi:2735|AV-procd|sdf|10542|dock7
  -GOLD-   2272014593D 1   1.00000     0.00000
 Structure written by MMmdl.
 42 42  0  0  0  0  0  0  0  0  2 V2000
  146.4838  136.6315  155.5147 C   0  0  0  0  0  0  0  0  0  0  0  0
  146.7440  137.7502  154.5495 C   0  0  0  0  0  0  0  0  0  0  0  0
  146.4695  137.7911  153.1551 C   0  0  0  0  0  0  0  0  0  0  0  0
  146.9118  139.0218  152.7593 C   0  0  0  0  0  0  0  0  0  0  0  0
  146.9193  139.6406  151.3995 C   0  0  0  0  0  0  0  0  0  0  0  0
  147.4008  139.6611  153.8880 N   0  0  0  0  0  0  0  0  0  0  0  0
  148.0488  140.9699  153.9967 C   0  0  1  0  0  0  0  0  0  0  0  0
  147.1499  142.0032  154.7075 C   0  0  0  0  0  0  0  0  0  0  0  0
  149.4334  140.8227  154.6521 C   0  0  0  0  0  0  0  0  0  0  0  0
  150.2924  140.0861  154.1660 O   0  0  0  0  0  0  0  0  0  0  0  0
  149.6327  141.5520  155.7609 N   0  0  0  0  0  0  0  0  0  0  0  0
  150.8769  141.6517  156.5179 C   0  0  1  0  0  0  0  0  0  0  0  0
  150.6353  142.5643  157.7453 C   0  0  0  0  0  0  0  0  0  0  0  0
  151.9149  143.0678  158.4562 C   0  0  0  0  0  0  0  0  0  0  0  0
  152.4885  142.0390  159.4442 C   0  0  0  0  0  0  0  0  0  0  0  0
  151.6491  144.4046  159.1642 C   0  0  0  0  0  0  0  0  0  0  0  0
  151.2896  140.2587  157.0196 C   0  0  0  0  0  0  0  0  0  0  0  0
  152.3862  139.8138  156.6156 O   0  0  0  0  0  0  0  0  0  0  0  0
  150.5125  139.6639  157.8007 O   0  5  0  0  0  0  0  0  0  0  0  0
  147.3023  138.8680  154.9809 N   0  0  0  0  0  0  0  0  0  0  0  0
  151.6747  142.0612  155.8962 H   0  0  0  0  0  0  0  0  0  0  0  0
  146.4477  135.6713  155.0003 H   0  0  0  0  0  0  0  0  0  0  0  0
  145.5319  136.7707  156.0269 H   0  0  0  0  0  0  0  0  0  0  0  0
  147.2658  136.5691  156.2724 H   0  0  0  0  0  0  0  0  0  0  0  0
  146.0256  137.0263  152.5352 H   0  0  0  0  0  0  0  0  0  0  0  0
  146.4978  138.9595  150.6601 H   0  0  0  0  0  0  0  0  0  0  0  0
  147.9348  139.8837  151.0867 H   0  0  0  0  0  0  0  0  0  0  0  0
  146.3286  140.5566  151.3854 H   0  0  0  0  0  0  0  0  0  0  0  0
  148.2204  141.3424  152.9866 H   0  0  0  0  0  0  0  0  0  0  0  0
  147.6082  142.9927  154.7016 H   0  0  0  0  0  0  0  0  0  0  0  0
  146.9591  141.7336  155.7472 H   0  0  0  0  0  0  0  0  0  0  0  0
  146.1856  142.0884  154.2058 H   0  0  0  0  0  0  0  0  0  0  0  0
  148.8629  142.1106  156.0976 H   0  0  0  0  0  0  0  0  0  0  0  0
  150.0523  143.4352  157.4393 H   0  0  0  0  0  0  0  0  0  0  0  0
  150.0151  142.0321  158.4684 H   0  0  0  0  0  0  0  0  0  0  0  0
  152.6795  143.2611  157.7031 H   0  0  0  0  0  0  0  0  0  0  0  0
  151.7533  141.7622  160.2003 H   0  0  0  0  0  0  0  0  0  0  0  0
  153.3631  142.4372  159.9595 H   0  0  0  0  0  0  0  0  0  0  0  0
  152.8064  141.1292  158.9349 H   0  0  0  0  0  0  0  0  0  0  0  0
  150.8973  144.2965  159.9466 H   0  0  0  0  0  0  0  0  0  0  0  0
  151.2922  145.1579  158.4612 H   0  0  0  0  0  0  0  0  0  0  0  0
  152.5571  144.7930  159.6262 H   0  0  0  0  0  0  0  0  0  0  0  0
  1  2  1  0  0  0  0
  1 22  1  0  0  0  0
  1 23  1  0  0  0  0
  1 24  1  0  0  0  0
  2 20  2  0  0  0  0
  2  3  1  0  0  0  0
  3  4  2  0  0  0  0
  3 25  1  0  0  0  0
  4  5  1  0  0  0  0
  4  6  1  0  0  0  0
  5 26  1  0  0  0  0
  5 27  1  0  0  0  0
  5 28  1  0  0  0  0
  6  7  1  0  0  0  0
  6 20  1  0  0  0  0
  7  8  1  0  0  0  0
  7  9  1  0  0  0  0
  7 29  1  0  0  0  0
  8 30  1  0  0  0  0
  8 31  1  0  0  0  0
  8 32  1  0  0  0  0
  9 10  2  0  0  0  0
  9 11  1  0  0  0  0
 11 12  1  0  0  0  0
 11 33  1  0  0  0  0
 12 21  1  0  0  0  0
 12 13  1  0  0  0  0
 12 17  1  0  0  0  0
 13 14  1  0  0  0  0
 13 34  1  0  0  0  0
 13 35  1  0  0  0  0
 14 15  1  0  0  0  0
 14 16  1  0  0  0  0
 14 36  1  0  0  0  0
 15 37  1  0  0  0  0
 15 38  1  0  0  0  0
 15 39  1  0  0  0  0
 16 40  1  0  0  0  0
 16 41  1  0  0  0  0
 16 42  1  0  0  0  0
 17 18  2  0  0  0  0
 17 19  1  0  0  0  0
M  CHG  1  19  -1
M  END
> <s_m_source_file>
AV-unprocessed.smi

> <i_m_source_file_index>
2735

> <i_lp_mmshare_version>
43012

> <i_f3d_flags>
0

> <s_epik_input>
W0NIM11jMVtjSF1jKFtDSDNdKW4objEpW0NASF0oW0NIM10pQyg9TylbTkhdW0NASF0oQyg9TylbT0hdKVtDSDJdW0NIXShbQ0gzXSlbQ0gzXQ==

> <s_epik_cmdline>
J2VwaWtfcHl0aG9uJywgJy1waCcsICc3LjAnLCAnLXRuJywgJzgnLCAnLW1hJywgJzIwMCcsICctbWV0YWxfYmluZGluZycsICctaW1hZScsICc8aW5maWxlLm1hZT4nLCAnLW9tYWUnLCAnPG91dGZpbGUubWFlPic=

> <r_lp_tautomer_probability>
1

> <r_epik_Ionization_Penalty>
0.0012303

> <r_epik_Ionization_Penalty_Charging>
0.000186407

> <r_epik_Ionization_Penalty_Neutral>
0.0010439

> <r_epik_State_Penalty>
-0

> <r_epik_Charging_Adjusted_Penalty>
0.000186407

> <i_epik_Tot_Q>
-1

> <i_epik_Tot_abs_Q>
1

> <r_epik_Metal_State_Penalty>
-0

> <b_epik_Metal_Only>
0

> <s_lp_Force_Field>
OPLS_2005

> <r_lp_Energy>
6.48876

> <b_lp_Chiralities_Consistent>
1

> <s_lp_Variant>
AV-unprocessed.smi:2735-2

> <Gold.Version>
5.8.1

> <Gold.Id.Protein>
6NUR|6NUR_protein|mol2

> <Gold.PLP.Fitness>
44.7490

> <Gold.PLP.PLP>
-37.3289

> <Gold.PLP.part.hbond>
-2.5271

> <Gold.PLP.part.metal>
0.0000

> <Gold.PLP.part.buried>
-1.9947

> <Gold.PLP.part.nonpolar>
-33.4333

> <Gold.PLP.part.repulsive>
0.9090

> <Gold.PLP.ligand.clash>
0.5631

> <Gold.PLP.ligand.torsion>
0.6010

> <Gold.PLP.Chemscore.Hbond>
3.0000

> <Gold.PLP.Chemscore.CHOScore>
0.0000

> <Gold.PLP.Chemscore.Metal>
0.0000

> <Gold.Chemscore.Hbonds>
donor molecule, donor type, donor heavy atom, donor atom, acceptor molecule, acceptor atom, score
      P1  H  7989  7998       L1    10  1.00
      P1  H  7997  8008       L1    18  2.00

> <Gold.PLP.Chemscore.Internal.Correction>
0.1852

> <Gold.Rescore>
     Score         DG    S(hbond)    S(metal)    S(lipo)     H(rot)  DE(clash)    DE(int)     intcor
     15.18     -16.80       1.94        0.00      90.22       2.24       0.80       0.82       ----

> <Gold.Chemscore.Fitness>
15.1831

> <Gold.Chemscore.DG>
-16.7987

> <Gold.Chemscore.ZeroCoef>
-5.4800

> <Gold.Chemscore.Hbond>
1.9445

> <Gold.Chemscore.Metal>
0.0000

> <Gold.Chemscore.Lipo>
90.2180

> <Gold.Chemscore.Internal_Hbond>
0.0000

> <Gold.Chemscore.DEClash>
0.7970

> <Gold.Chemscore.DEInternal>
0.8186

> <Gold.Chemscore.Rot>
2.2388

> <Gold.Chemscore.Internal.Correction>
   9.000000E+99

> <Gold.Chemscore.Hbonds>
donor molecule, donor type, donor heavy atom, donor atom, acceptor molecule, acceptor atom, score
      P1  H  7989  7998       L1    10  0.87
      P1  H  7997  8008       L1    18  0.97

> <Gold.Chemscore.Hbond.Weighted>
-6.4945

> <Gold.Chemscore.Metal.Weighted>
-0.0000

> <Gold.Chemscore.Lipo.Weighted>
-10.5555

> <Gold.Chemscore.Internal_Hbond.Weighted>
0.0000

> <Gold.Chemscore.DEClash.Weighted>
0.7970

> <Gold.Chemscore.DEInternal.Weighted>
0.8186

> <Gold.Chemscore.Rot.Weighted>
5.7314

> <Gold.Chemscore.Internal.Correction.Weighted>
   9.000000E+99

> <Gold.Protein.RotatedTorsions>
[ 6907 6896 6895 6894 ] final  -52.06 input  -60.11 | X-H torsion
[ 7974 7965 7964 7962 ] final  118.83 input  175.53 | X-H torsion
[ 8008 7997 7996 7995 ] final  -51.83 input   59.86 | X-H torsion
[ 10167 10162 10161 10158 ] final  -45.02 input  -65.29 | X-H torsion
[ 10718 10713 10712 10709 ] final  111.52 input   66.30 | X-H torsion
[ 10763 10752 10751 10750 ] final  152.80 input  -60.55 | X-H torsion
[ 11005 11000 10999 10996 ] final  -87.08 input  -57.11 | X-H torsion

> <Gold.Protein.ActiveResidues>
 VAL166  LYS551  ARG553  GLY616  TRP617  ASP618  TYR619  PRO620  LYS621  CYS622 
 ASP623  PHE694  ASN695  SER759  ASP760  ASP761  ALA762  ILE779  LEU786  VAL792 
 PHE793  MET794  SER795  GLU796  ALA797  LYS798  CYS799  TRP800  GLU811  SER814 

> <Gold.Protein.RotatedAtoms>
  150.8553  134.7889  159.7040 H   0  0  0  0  0  0  0  0  0  0  0  0  # atno 6907 bound_to 6896
  152.4606  134.5189  159.9786 H   0  0  0  0  0  0  0  0  0  0  0  0  # atno 6908 bound_to 6896
  151.5303  133.3412  159.2952 H   0  0  0  0  0  0  0  0  0  0  0  0  # atno 6909 bound_to 6896
  145.1505  139.3213  143.4569 H   0  0  0  0  0  0  0  0  0  0  0  0  # atno 7974 bound_to 7965
  154.4092  140.1238  156.4892 H   0  0  0  0  0  0  0  0  0  0  0  0  # atno 8008 bound_to 7997
  155.7007  140.3495  155.4912 H   0  0  0  0  0  0  0  0  0  0  0  0  # atno 8009 bound_to 7997
  155.9388  140.1083  157.1063 H   0  0  0  0  0  0  0  0  0  0  0  0  # atno 8010 bound_to 7997
  140.6874  143.2900  151.3579 H   0  0  0  0  0  0  0  0  0  0  0  0  # atno 10167 bound_to 10162
  157.6440  131.0952  150.6761 H   0  0  0  0  0  0  0  0  0  0  0  0  # atno 10718 bound_to 10713
  154.1258  135.2830  155.3197 H   0  0  0  0  0  0  0  0  0  0  0  0  # atno 10763 bound_to 10752
  154.6390  135.5409  153.7771 H   0  0  0  0  0  0  0  0  0  0  0  0  # atno 10764 bound_to 10752
  153.0297  135.6481  154.1411 H   0  0  0  0  0  0  0  0  0  0  0  0  # atno 10765 bound_to 10752
  141.1622  133.7491  156.9254 H   0  0  0  0  0  0  0  0  0  0  0  0  # atno 11005 bound_to 11000
  146.3495  140.1577  142.8591 LP  0  0  0  0  0  0  0  0  0  0  0  0  # atno 17320 bound_to 7965
  145.0436  140.8964  143.5037 LP  0  0  0  0  0  0  0  0  0  0  0  0  # atno 17321 bound_to 7965
  139.6245  144.0842  152.2421 LP  0  0  0  0  0  0  0  0  0  0  0  0  # atno 17342 bound_to 10162
  140.0296  144.6091  150.7498 LP  0  0  0  0  0  0  0  0  0  0  0  0  # atno 17343 bound_to 10162
  156.7081  130.4643  149.5555 LP  0  0  0  0  0  0  0  0  0  0  0  0  # atno 17370 bound_to 10713
  156.1749  130.6461  151.0882 LP  0  0  0  0  0  0  0  0  0  0  0  0  # atno 17371 bound_to 10713
  140.1423  134.9286  157.2482 LP  0  0  0  0  0  0  0  0  0  0  0  0  # atno 17394 bound_to 11000
  140.2822  134.3336  155.7339 LP  0  0  0  0  0  0  0  0  0  0  0  0  # atno 17395 bound_to 11000

$$$$
