AV-unprocessed.smi:1712|AV-procd|sdf|6904|dock3
  -GOLD-   22720 8103D 1   1.00000     0.00000
 Structure written by MMmdl.
 38 39  0  0  0  0  0  0  0  0  2 V2000
  148.2832  138.9116  153.8800 C   0  0  0  0  0  0  0  0  0  0  0  0
  146.9351  139.2795  153.2114 C   0  0  1  0  0  0  0  0  0  0  0  0
  145.9305  138.1007  153.3108 C   0  0  0  0  0  0  0  0  0  0  0  0
  146.3840  136.8986  152.6145 N   0  0  0  0  0  0  0  0  0  0  0  0
  145.5909  135.9116  152.1725 C   0  0  0  0  0  0  0  0  0  0  0  0
  144.3692  135.9007  152.3239 O   0  0  0  0  0  0  0  0  0  0  0  0
  146.3020  134.9499  151.5620 N   0  0  0  0  0  0  0  0  0  0  0  0
  145.8088  133.7569  150.9761 C   0  0  0  0  0  0  0  0  0  0  0  0
  144.4465  133.5198  150.6471 C   0  0  0  0  0  0  0  0  0  0  0  0
  144.2800  132.3177  150.1142 N   0  0  0  0  0  0  0  0  0  0  0  0
  145.5228  131.7850  150.1009 N   0  0  0  0  0  0  0  0  0  0  0  0
  146.4852  132.6253  150.6155 C   0  0  0  0  0  0  0  0  0  0  0  0
  146.3191  140.5298  153.7683 N   0  3  0  0  0  0  0  0  0  0  0  0
  146.0337  140.5112  155.2303 C   0  0  0  0  0  0  0  0  0  0  0  0
  145.3766  141.8254  155.6862 C   0  0  0  0  0  0  0  0  0  0  0  0
  146.2052  142.9263  155.3442 O   0  0  0  0  0  0  0  0  0  0  0  0
  146.3894  143.0197  153.9400 C   0  0  0  0  0  0  0  0  0  0  0  0
  147.0974  141.7537  153.4314 C   0  0  0  0  0  0  0  0  0  0  0  0
  145.6963  130.8568  149.7421 H   0  0  0  0  0  0  0  0  0  0  0  0
  148.7102  138.0029  153.4576 H   0  0  0  0  0  0  0  0  0  0  0  0
  148.1655  138.7502  154.9521 H   0  0  0  0  0  0  0  0  0  0  0  0
  149.0421  139.6789  153.7287 H   0  0  0  0  0  0  0  0  0  0  0  0
  147.1510  139.4595  152.1569 H   0  0  0  0  0  0  0  0  0  0  0  0
  145.7119  137.8871  154.3587 H   0  0  0  0  0  0  0  0  0  0  0  0
  144.9757  138.3565  152.8559 H   0  0  0  0  0  0  0  0  0  0  0  0
  147.3764  136.8188  152.4456 H   0  0  0  0  0  0  0  0  0  0  0  0
  147.3014  135.0826  151.5110 H   0  0  0  0  0  0  0  0  0  0  0  0
  143.5908  134.1662  150.7746 H   0  0  0  0  0  0  0  0  0  0  0  0
  147.5263  132.3445  150.6746 H   0  0  0  0  0  0  0  0  0  0  0  0
  145.3466  139.7040  155.4821 H   0  0  0  0  0  0  0  0  0  0  0  0
  146.9589  140.3422  155.7836 H   0  0  0  0  0  0  0  0  0  0  0  0
  144.3898  141.9438  155.2354 H   0  0  0  0  0  0  0  0  0  0  0  0
  145.2319  141.8162  156.7667 H   0  0  0  0  0  0  0  0  0  0  0  0
  145.4303  143.1609  153.4387 H   0  0  0  0  0  0  0  0  0  0  0  0
  146.9945  143.8999  153.7224 H   0  0  0  0  0  0  0  0  0  0  0  0
  148.0927  141.6865  153.8738 H   0  0  0  0  0  0  0  0  0  0  0  0
  147.2364  141.8521  152.3568 H   0  0  0  0  0  0  0  0  0  0  0  0
  145.4197  140.6222  153.3179 H   0  0  0  0  0  0  0  0  0  0  0  0
  1  2  1  0  0  0  0
  1 20  1  0  0  0  0
  1 21  1  0  0  0  0
  1 22  1  0  0  0  0
  2  3  1  0  0  0  0
  2 13  1  0  0  0  0
  2 23  1  0  0  0  0
  3  4  1  0  0  0  0
  3 24  1  0  0  0  0
  3 25  1  0  0  0  0
  4  5  1  0  0  0  0
  4 26  1  0  0  0  0
  5  6  2  0  0  0  0
  5  7  1  0  0  0  0
  7  8  1  0  0  0  0
  7 27  1  0  0  0  0
  8 12  2  0  0  0  0
  8  9  1  0  0  0  0
  9 10  2  0  0  0  0
  9 28  1  0  0  0  0
 10 11  1  0  0  0  0
 11 19  1  0  0  0  0
 11 12  1  0  0  0  0
 12 29  1  0  0  0  0
 13 18  1  0  0  0  0
 13 14  1  0  0  0  0
 13 38  1  0  0  0  0
 14 15  1  0  0  0  0
 14 30  1  0  0  0  0
 14 31  1  0  0  0  0
 15 16  1  0  0  0  0
 15 32  1  0  0  0  0
 15 33  1  0  0  0  0
 16 17  1  0  0  0  0
 17 18  1  0  0  0  0
 17 34  1  0  0  0  0
 17 35  1  0  0  0  0
 18 36  1  0  0  0  0
 18 37  1  0  0  0  0
M  CHG  1  13   1
M  END
> <s_m_source_file>
AV-unprocessed.smi

> <i_m_source_file_index>
1712

> <i_lp_mmshare_version>
43012

> <i_f3d_flags>
0

> <s_epik_input>
W0NIMl0xW0NIMl1PW0NIMl1bQ0gyXU4xW0NASF0oW0NIM10pW0NIMl1bTkhdQyg9TylbTkhdYzJbY0hdbltuSF1bY0hdMg==

> <s_epik_cmdline>
J2VwaWtfcHl0aG9uJywgJy1waCcsICc3LjAnLCAnLXRuJywgJzgnLCAnLW1hJywgJzIwMCcsICctbWV0YWxfYmluZGluZycsICctaW1hZScsICc8aW5maWxlLm1hZT4nLCAnLW9tYWUnLCAnPG91dGZpbGUubWFlPic=

> <r_lp_tautomer_probability>
0.5

> <r_epik_Ionization_Penalty>
0.646007

> <r_epik_Ionization_Penalty_Charging>
0.645968

> <r_epik_Ionization_Penalty_Neutral>
3.91929e-05

> <r_epik_State_Penalty>
0.664063

> <r_epik_Charging_Adjusted_Penalty>
1.31003

> <i_epik_Tot_Q>
1

> <i_epik_Tot_abs_Q>
1

> <r_epik_Metal_State_Penalty>
0.664064

> <b_epik_Metal_Only>
0

> <s_lp_Force_Field>
OPLS_2005

> <r_lp_Energy>
23.8856

> <b_lp_Chiralities_Consistent>
1

> <s_lp_Variant>
AV-unprocessed.smi:1712-4

> <Gold.Version>
5.8.1

> <Gold.Id.Protein>
6NUR|6NUR_protein|mol2

> <Gold.PLP.Fitness>
42.3681

> <Gold.PLP.PLP>
-25.8292

> <Gold.PLP.part.hbond>
-3.0000

> <Gold.PLP.part.metal>
0.0000

> <Gold.PLP.part.buried>
-4.3516

> <Gold.PLP.part.nonpolar>
-19.2989

> <Gold.PLP.part.repulsive>
0.8366

> <Gold.PLP.ligand.clash>
0.0000

> <Gold.PLP.ligand.torsion>
0.3024

> <Gold.PLP.Chemscore.Hbond>
3.9588

> <Gold.PLP.Chemscore.CHOScore>
1.7338

> <Gold.PLP.Chemscore.Metal>
0.0000

> <Gold.Chemscore.Hbonds>
donor molecule, donor type, donor heavy atom, donor atom, acceptor molecule, acceptor atom, score
      L1  H     4    26       P1  7948  1.00
      L1  H     7    27       P1  7948  1.00
      L1  H    13    38       P1 10175  2.00
      L1  C     9    28       P1 10186  0.16
      L1  C    12    29       P1 10747  1.00

> <Gold.PLP.Chemscore.Internal.Correction>
0.0662

> <Gold.Rescore>
     Score         DG    S(hbond)    S(metal)    S(lipo)     H(rot)  DE(clash)    DE(int)     intcor
     15.22     -16.87       2.67        0.00      57.77       1.68       0.08       1.57       ----

> <Gold.Chemscore.Fitness>
15.2210

> <Gold.Chemscore.DG>
-16.8724

> <Gold.Chemscore.ZeroCoef>
-5.4800

> <Gold.Chemscore.Hbond>
2.6727

> <Gold.Chemscore.Metal>
0.0000

> <Gold.Chemscore.Lipo>
57.7700

> <Gold.Chemscore.Internal_Hbond>
0.0000

> <Gold.Chemscore.DEClash>
0.0781

> <Gold.Chemscore.DEInternal>
1.5734

> <Gold.Chemscore.Rot>
1.6771

> <Gold.Chemscore.Internal.Correction>
   9.000000E+99

> <Gold.Chemscore.Hbonds>
donor molecule, donor type, donor heavy atom, donor atom, acceptor molecule, acceptor atom, score
      L1  H     4    26       P1  7948  1.00
      L1  H     7    27       P1  7948  0.73
      L1  H    13    38       P1 10175  0.90

> <Gold.Chemscore.Hbond.Weighted>
-8.9268

> <Gold.Chemscore.Metal.Weighted>
-0.0000

> <Gold.Chemscore.Lipo.Weighted>
-6.7591

> <Gold.Chemscore.Internal_Hbond.Weighted>
0.0000

> <Gold.Chemscore.DEClash.Weighted>
0.0781

> <Gold.Chemscore.DEInternal.Weighted>
1.5734

> <Gold.Chemscore.Rot.Weighted>
4.2935

> <Gold.Chemscore.Internal.Correction.Weighted>
   9.000000E+99

> <Gold.Protein.RotatedTorsions>
[ 6907 6896 6895 6894 ] final  -41.60 input  -60.11 | X-H torsion
[ 7974 7965 7964 7962 ] final  -15.97 input  175.53 | X-H torsion
[ 8008 7997 7996 7995 ] final   16.50 input   59.86 | X-H torsion
[ 10167 10162 10161 10158 ] final -153.11 input  -65.29 | X-H torsion
[ 10718 10713 10712 10709 ] final  158.52 input   66.30 | X-H torsion
[ 10763 10752 10751 10750 ] final   14.11 input  -60.55 | X-H torsion
[ 11005 11000 10999 10996 ] final  168.02 input  -57.11 | X-H torsion

> <Gold.Protein.ActiveResidues>
 VAL166  LYS551  ARG553  GLY616  TRP617  ASP618  TYR619  PRO620  LYS621  CYS622 
 ASP623  PHE694  ASN695  SER759  ASP760  ASP761  ALA762  ILE779  LEU786  VAL792 
 PHE793  MET794  SER795  GLU796  ALA797  LYS798  CYS799  TRP800  GLU811  SER814 

> <Gold.Protein.RotatedAtoms>
  150.9648  134.9031  159.7752 H   0  0  0  0  0  0  0  0  0  0  0  0  # atno 6907 bound_to 6896
  152.5169  134.3622  159.9298 H   0  0  0  0  0  0  0  0  0  0  0  0  # atno 6908 bound_to 6896
  151.3633  133.3841  159.2726 H   0  0  0  0  0  0  0  0  0  0  0  0  # atno 6909 bound_to 6896
  146.2009  140.3569  142.8424 H   0  0  0  0  0  0  0  0  0  0  0  0  # atno 7974 bound_to 7965
  154.8778  140.2968  155.5443 H   0  0  0  0  0  0  0  0  0  0  0  0  # atno 8008 bound_to 7997
  156.3022  140.2448  156.3710 H   0  0  0  0  0  0  0  0  0  0  0  0  # atno 8009 bound_to 7997
  154.8749  140.0400  157.1736 H   0  0  0  0  0  0  0  0  0  0  0  0  # atno 8010 bound_to 7997
  139.7125  143.9086  152.2473 H   0  0  0  0  0  0  0  0  0  0  0  0  # atno 10167 bound_to 10162
  157.1767  131.0623  151.2154 H   0  0  0  0  0  0  0  0  0  0  0  0  # atno 10718 bound_to 10713
  153.1654  135.6803  153.8682 H   0  0  0  0  0  0  0  0  0  0  0  0  # atno 10763 bound_to 10752
  153.8064  135.3149  155.3397 H   0  0  0  0  0  0  0  0  0  0  0  0  # atno 10764 bound_to 10752
  154.7962  135.4806  154.0256 H   0  0  0  0  0  0  0  0  0  0  0  0  # atno 10765 bound_to 10752
  140.2829  134.7735  157.3773 H   0  0  0  0  0  0  0  0  0  0  0  0  # atno 11005 bound_to 11000
  144.8680  140.7233  143.6065 LP  0  0  0  0  0  0  0  0  0  0  0  0  # atno 17320 bound_to 7965
  145.3488  139.1712  143.4446 LP  0  0  0  0  0  0  0  0  0  0  0  0  # atno 17321 bound_to 7965
  139.8959  144.6939  150.8718 LP  0  0  0  0  0  0  0  0  0  0  0  0  # atno 17342 bound_to 10162
  140.7736  143.3550  151.1939 LP  0  0  0  0  0  0  0  0  0  0  0  0  # atno 17343 bound_to 10162
  157.3992  130.7324  149.6754 LP  0  0  0  0  0  0  0  0  0  0  0  0  # atno 17370 bound_to 10713
  155.9730  130.4125  150.4037 LP  0  0  0  0  0  0  0  0  0  0  0  0  # atno 17371 bound_to 10713
  140.1266  134.5149  155.8139 LP  0  0  0  0  0  0  0  0  0  0  0  0  # atno 17394 bound_to 11000
  141.2159  133.6775  156.6964 LP  0  0  0  0  0  0  0  0  0  0  0  0  # atno 17395 bound_to 11000

$$$$
