AV-unprocessed.smi:37|AV-procd|sdf|329|dock6
  -GOLD-   2262016163D 1   1.00000     0.00000
 Structure written by MMmdl.
 43 44  0  0  0  0  0  0  0  0  2 V2000
  144.3110  134.4073  150.3681 C   0  0  0  0  0  0  0  0  0  0  0  0
  145.0098  135.7255  150.7319 C   0  0  0  0  0  0  0  0  0  0  0  0
  145.0749  135.9905  152.2376 C   0  0  0  0  0  0  0  0  0  0  0  0
  144.6921  135.1701  153.0738 O   0  0  0  0  0  0  0  0  0  0  0  0
  145.5932  137.1946  152.5049 O   0  0  0  0  0  0  0  0  0  0  0  0
  145.7434  137.6282  153.8470 C   0  0  0  0  0  0  0  0  0  0  0  0
  146.5123  138.9605  153.9237 C   0  0  2  0  0  0  0  0  0  0  0  0
  147.7990  138.9008  153.3104 O   0  0  0  0  0  0  0  0  0  0  0  0
  148.7117  139.7080  154.0034 C   0  0  2  0  0  0  0  0  0  0  0  0
  149.7547  138.8318  154.6766 N   0  0  0  0  0  0  0  0  0  0  0  0
  149.6750  137.4483  154.6383 C   0  0  0  0  0  0  0  0  0  0  0  0
  150.6037  136.6738  155.2341 C   0  0  0  0  0  0  0  0  0  0  0  0
  150.4912  135.3352  155.1824 F   0  0  0  0  0  0  0  0  0  0  0  0
  151.7255  137.2974  155.9316 C   0  0  0  0  0  0  0  0  0  0  0  0
  152.5519  136.5873  156.5019 O   0  0  0  0  0  0  0  0  0  0  0  0
  151.8069  138.6590  155.9152 N   0  5  0  0  0  0  0  0  0  0  0  0
  150.8769  139.4461  155.2994 C   0  0  0  0  0  0  0  0  0  0  0  0
  150.9623  140.6733  155.2528 O   0  0  0  0  0  0  0  0  0  0  0  0
  147.9008  140.5046  155.0438 C   0  0  1  0  0  0  0  0  0  0  0  0
  147.2775  142.2106  154.2248 Br  0  0  0  0  0  0  0  0  0  0  0  0
  146.7025  139.6061  155.3033 C   0  0  2  0  0  0  0  0  0  0  0  0
  147.0033  138.6402  156.3052 O   0  0  0  0  0  0  0  0  0  0  0  0
  147.4272  139.0235  157.5234 C   0  0  0  0  0  0  0  0  0  0  0  0
  147.5203  140.1849  157.9206 O   0  0  0  0  0  0  0  0  0  0  0  0
  147.7768  137.8447  158.4306 C   0  0  0  0  0  0  0  0  0  0  0  0
  149.2537  137.8324  158.8478 C   0  0  0  0  0  0  0  0  0  0  0  0
  144.3006  134.2652  149.2875 H   0  0  0  0  0  0  0  0  0  0  0  0
  143.2759  134.3986  150.7115 H   0  0  0  0  0  0  0  0  0  0  0  0
  144.8216  133.5498  150.8082 H   0  0  0  0  0  0  0  0  0  0  0  0
  146.0273  135.7210  150.3398 H   0  0  0  0  0  0  0  0  0  0  0  0
  144.4931  136.5591  150.2555 H   0  0  0  0  0  0  0  0  0  0  0  0
  144.7580  137.7446  154.2997 H   0  0  0  0  0  0  0  0  0  0  0  0
  146.2751  136.8673  154.4202 H   0  0  0  0  0  0  0  0  0  0  0  0
  145.9504  139.6762  153.3221 H   0  0  0  0  0  0  0  0  0  0  0  0
  149.2835  140.3307  153.3133 H   0  0  0  0  0  0  0  0  0  0  0  0
  148.8675  136.9582  154.1208 H   0  0  0  0  0  0  0  0  0  0  0  0
  148.4699  140.7579  155.9378 H   0  0  0  0  0  0  0  0  0  0  0  0
  145.8178  140.1732  155.5971 H   0  0  0  0  0  0  0  0  0  0  0  0
  147.1485  137.8995  159.3201 H   0  0  0  0  0  0  0  0  0  0  0  0
  147.5223  136.9151  157.9214 H   0  0  0  0  0  0  0  0  0  0  0  0
  149.4301  137.0794  159.6157 H   0  0  0  0  0  0  0  0  0  0  0  0
  149.5667  138.7966  159.2508 H   0  0  0  0  0  0  0  0  0  0  0  0
  149.8988  137.5931  158.0025 H   0  0  0  0  0  0  0  0  0  0  0  0
  1  2  1  0  0  0  0
  1 27  1  0  0  0  0
  1 28  1  0  0  0  0
  1 29  1  0  0  0  0
  2  3  1  0  0  0  0
  2 30  1  0  0  0  0
  2 31  1  0  0  0  0
  3  4  2  0  0  0  0
  3  5  1  0  0  0  0
  5  6  1  0  0  0  0
  6  7  1  0  0  0  0
  6 32  1  0  0  0  0
  6 33  1  0  0  0  0
  7 21  1  0  0  0  0
  7  8  1  0  0  0  0
  7 34  1  0  0  0  0
  8  9  1  0  0  0  0
  9 10  1  0  0  0  0
  9 19  1  0  0  0  0
  9 35  1  0  0  0  0
 10 17  1  0  0  0  0
 10 11  1  0  0  0  0
 11 12  2  0  0  0  0
 11 36  1  0  0  0  0
 12 13  1  0  0  0  0
 12 14  1  0  0  0  0
 14 15  2  0  0  0  0
 14 16  1  0  0  0  0
 16 17  1  0  0  0  0
 17 18  2  0  0  0  0
 19 20  1  0  0  0  0
 19 21  1  0  0  0  0
 19 37  1  0  0  0  0
 21 22  1  0  0  0  0
 21 38  1  0  0  0  0
 22 23  1  0  0  0  0
 23 24  2  0  0  0  0
 23 25  1  0  0  0  0
 25 26  1  0  0  0  0
 25 39  1  0  0  0  0
 25 40  1  0  0  0  0
 26 41  1  0  0  0  0
 26 42  1  0  0  0  0
 26 43  1  0  0  0  0
M  CHG  1  16  -1
M  END
> <s_m_source_file>
AV-unprocessed.smi

> <i_m_source_file_index>
37

> <i_lp_mmshare_version>
43012

> <i_f3d_flags>
0

> <s_epik_input>
W0NIM11bQ0gyXUMoPU8pT1tDSDJdW0NAQEhdMU9bQ0BASF0objJbY0hdYyhGKWMoPU8pW25IXWMyPU8pW0NAQEhdKEJyKVtDQEhdMU9DKD1PKVtDSDJdW0NIM10=

> <s_epik_cmdline>
J2VwaWtfcHl0aG9uJywgJy1waCcsICc3LjAnLCAnLXRuJywgJzgnLCAnLW1hJywgJzIwMCcsICctbWV0YWxfYmluZGluZycsICctaW1hZScsICc8aW5maWxlLm1hZT4nLCAnLW9tYWUnLCAnPG91dGZpbGUubWFlPic=

> <r_epik_Ionization_Penalty>
1.08158

> <r_epik_Ionization_Penalty_Charging>
9.05154e-09

> <r_epik_Ionization_Penalty_Neutral>
1.08158

> <r_epik_State_Penalty>
1.13706

> <r_epik_Charging_Adjusted_Penalty>
1.13706

> <i_epik_Tot_Q>
-1

> <i_epik_Tot_abs_Q>
1

> <r_epik_Metal_State_Penalty>
0.00343535

> <b_epik_Metal_Only>
0

> <s_epik_Chemistry_Notes>
This compound has an ester and may undergo hydrolysis at high or low pH. This compound contains an acetal/aminal-like group ( X-CH(R)-Y where X, Y are N, S, or O) that may be acid/base labile, releasing an aldehyde.

> <s_lp_Force_Field>
OPLS_2005

> <r_lp_Energy>
30.7461

> <b_lp_Chiralities_Consistent>
1

> <s_lp_Variant>
AV-unprocessed.smi:37-27

> <Gold.Version>
5.8.1

> <Gold.Id.Protein>
6NUR|6NUR_protein|mol2

> <Gold.PLP.Fitness>
37.7184

> <Gold.PLP.PLP>
-29.5503

> <Gold.PLP.part.hbond>
-3.0000

> <Gold.PLP.part.metal>
0.0000

> <Gold.PLP.part.buried>
-3.6156

> <Gold.PLP.part.nonpolar>
-25.2850

> <Gold.PLP.part.repulsive>
1.1004

> <Gold.PLP.ligand.clash>
0.0000

> <Gold.PLP.ligand.torsion>
0.2118

> <Gold.PLP.Chemscore.Hbond>
1.8800

> <Gold.PLP.Chemscore.CHOScore>
0.9224

> <Gold.PLP.Chemscore.Metal>
0.0000

> <Gold.Chemscore.Hbonds>
donor molecule, donor type, donor heavy atom, donor atom, acceptor molecule, acceptor atom, score
      P1  H  7989  7998       L1    18  0.88
      P1  H 10752 10764       L1    15  0.99
      L1  C    11    36       P1  7948  0.88

> <Gold.PLP.Chemscore.Internal.Correction>
0.1843

> <Gold.Rescore>
     Score         DG    S(hbond)    S(metal)    S(lipo)     H(rot)  DE(clash)    DE(int)     intcor
      7.39      -8.21       1.74        0.00      45.09       3.27       0.29       0.53       ----

> <Gold.Chemscore.Fitness>
7.3913

> <Gold.Chemscore.DG>
-8.2086

> <Gold.Chemscore.ZeroCoef>
-5.4800

> <Gold.Chemscore.Hbond>
1.7413

> <Gold.Chemscore.Metal>
0.0000

> <Gold.Chemscore.Lipo>
45.0948

> <Gold.Chemscore.Internal_Hbond>
0.0000

> <Gold.Chemscore.DEClash>
0.2853

> <Gold.Chemscore.DEInternal>
0.5320

> <Gold.Chemscore.Rot>
3.2669

> <Gold.Chemscore.Internal.Correction>
   9.000000E+99

> <Gold.Chemscore.Hbonds>
donor molecule, donor type, donor heavy atom, donor atom, acceptor molecule, acceptor atom, score
      P1  H  7989  7998       L1    18  0.22
      P1  H 10752 10764       L1    15  0.80

> <Gold.Chemscore.Hbond.Weighted>
-5.8159

> <Gold.Chemscore.Metal.Weighted>
-0.0000

> <Gold.Chemscore.Lipo.Weighted>
-5.2761

> <Gold.Chemscore.Internal_Hbond.Weighted>
0.0000

> <Gold.Chemscore.DEClash.Weighted>
0.2853

> <Gold.Chemscore.DEInternal.Weighted>
0.5320

> <Gold.Chemscore.Rot.Weighted>
8.3634

> <Gold.Chemscore.Internal.Correction.Weighted>
   9.000000E+99

> <Gold.Protein.RotatedTorsions>
[ 6907 6896 6895 6894 ] final  -76.01 input  -60.11 | X-H torsion
[ 7974 7965 7964 7962 ] final  -57.09 input  175.53 | X-H torsion
[ 8008 7997 7996 7995 ] final   90.21 input   59.86 | X-H torsion
[ 10167 10162 10161 10158 ] final  -35.31 input  -65.29 | X-H torsion
[ 10718 10713 10712 10709 ] final  -82.24 input   66.30 | X-H torsion
[ 10763 10752 10751 10750 ] final   -4.31 input  -60.55 | X-H torsion
[ 11005 11000 10999 10996 ] final -151.36 input  -57.11 | X-H torsion

> <Gold.Protein.ActiveResidues>
 VAL166  LYS551  ARG553  GLY616  TRP617  ASP618  TYR619  PRO620  LYS621  CYS622 
 ASP623  PHE694  ASN695  SER759  ASP760  ASP761  ALA762  ILE779  LEU786  VAL792 
 PHE793  MET794  SER795  GLU796  ALA797  LYS798  CYS799  TRP800  GLU811  SER814 

> <Gold.Protein.RotatedAtoms>
  150.7040  134.4635  159.5391 H   0  0  0  0  0  0  0  0  0  0  0  0  # atno 6907 bound_to 6896
  152.2305  134.8323  160.0483 H   0  0  0  0  0  0  0  0  0  0  0  0  # atno 6908 bound_to 6896
  151.9141  133.3533  159.3910 H   0  0  0  0  0  0  0  0  0  0  0  0  # atno 6909 bound_to 6896
  145.8551  140.8325  142.9965 H   0  0  0  0  0  0  0  0  0  0  0  0  # atno 7974 bound_to 7965
  156.0092  140.3352  155.6923 H   0  0  0  0  0  0  0  0  0  0  0  0  # atno 8008 bound_to 7997
  155.6182  140.0672  157.2704 H   0  0  0  0  0  0  0  0  0  0  0  0  # atno 8009 bound_to 7997
  154.4275  140.1781  156.1331 H   0  0  0  0  0  0  0  0  0  0  0  0  # atno 8010 bound_to 7997
  140.7168  143.3486  151.2203 H   0  0  0  0  0  0  0  0  0  0  0  0  # atno 10167 bound_to 10162
  156.0036  130.4628  150.4075 H   0  0  0  0  0  0  0  0  0  0  0  0  # atno 10718 bound_to 10713
  153.3831  135.6999  153.6550 H   0  0  0  0  0  0  0  0  0  0  0  0  # atno 10763 bound_to 10752
  153.5153  135.3623  155.2607 H   0  0  0  0  0  0  0  0  0  0  0  0  # atno 10764 bound_to 10752
  154.8695  135.4145  154.3133 H   0  0  0  0  0  0  0  0  0  0  0  0  # atno 10765 bound_to 10752
  140.7304  134.3627  157.5167 H   0  0  0  0  0  0  0  0  0  0  0  0  # atno 11005 bound_to 11000
  144.6728  140.1011  143.7460 LP  0  0  0  0  0  0  0  0  0  0  0  0  # atno 17320 bound_to 7965
  145.9313  139.2608  143.1323 LP  0  0  0  0  0  0  0  0  0  0  0  0  # atno 17321 bound_to 7965
  139.7012  143.9530  152.2906 LP  0  0  0  0  0  0  0  0  0  0  0  0  # atno 17342 bound_to 10162
  139.9224  144.6791  150.8447 LP  0  0  0  0  0  0  0  0  0  0  0  0  # atno 17343 bound_to 10162
  157.2140  131.0467  151.2583 LP  0  0  0  0  0  0  0  0  0  0  0  0  # atno 17370 bound_to 10713
  157.3862  130.7258  149.6665 LP  0  0  0  0  0  0  0  0  0  0  0  0  # atno 17371 bound_to 10713
  139.8827  134.9015  156.2811 LP  0  0  0  0  0  0  0  0  0  0  0  0  # atno 17394 bound_to 11000
  140.9925  133.7200  156.0836 LP  0  0  0  0  0  0  0  0  0  0  0  0  # atno 17395 bound_to 11000

$$$$
