AV-unprocessed.smi:1572|AV-procd|sdf|6329|dock6
  -GOLD-   22720 6543D 1   1.00000     0.00000
 Structure written by MMmdl.
 42 43  0  0  0  0  0  0  0  0  1 V2000
  151.5445  141.9209  157.6792 C   0  0  0  0  0  0  0  0  0  0  0  0
  150.2832  141.8961  156.9548 N   0  0  0  0  0  0  0  0  0  0  0  0
  150.4580  141.4212  155.5855 C   0  0  0  0  0  0  0  0  0  0  0  0
  149.1234  141.4123  154.8174 C   0  0  0  0  0  0  0  0  0  0  0  0
  148.1165  140.5656  155.4780 N   0  0  0  0  0  0  0  0  0  0  0  0
  146.8408  140.4070  154.7241 C   0  0  0  0  0  0  0  0  0  0  0  0
  146.0887  141.7442  154.5176 C   0  0  0  0  0  0  0  0  0  0  0  0
  147.0956  139.8068  153.3177 C   0  0  0  0  0  0  0  0  0  0  0  0
  145.8620  139.4375  155.4502 C   0  0  0  0  0  0  0  0  0  0  0  0
  144.6138  139.2385  154.7135 N   0  0  0  0  0  0  0  0  0  0  0  0
  143.7166  138.2683  154.9403 C   0  0  0  0  0  0  0  0  0  0  0  0
  143.8577  137.3970  155.7987 O   0  0  0  0  0  0  0  0  0  0  0  0
  142.6582  138.3862  154.1193 N   0  0  0  0  0  0  0  0  0  0  0  0
  141.5016  137.5652  154.0511 C   0  0  0  0  0  0  0  0  0  0  0  0
  141.4075  136.3607  154.6365 N   0  0  0  0  0  0  0  0  0  0  0  0
  140.1711  135.7690  154.4127 N   0  0  0  0  0  0  0  0  0  0  0  0
  139.3822  136.5496  153.6689 C   0  0  0  0  0  0  0  0  0  0  0  0
  140.0727  138.0837  153.1679 S   0  0  0  0  0  0  0  0  0  0  0  0
  147.9592  141.0416  156.8626 C   0  0  0  0  0  0  0  0  0  0  0  0
  149.2984  141.0502  157.6212 C   0  0  0  0  0  0  0  0  0  0  0  0
  152.2624  142.5742  157.1823 H   0  0  0  0  0  0  0  0  0  0  0  0
  151.9813  140.9235  157.7457 H   0  0  0  0  0  0  0  0  0  0  0  0
  151.3999  142.2969  158.6925 H   0  0  0  0  0  0  0  0  0  0  0  0
  151.1697  142.0609  155.0624 H   0  0  0  0  0  0  0  0  0  0  0  0
  150.8851  140.4169  155.5885 H   0  0  0  0  0  0  0  0  0  0  0  0
  148.7593  142.4354  154.7229 H   0  0  0  0  0  0  0  0  0  0  0  0
  149.3285  141.0554  153.8098 H   0  0  0  0  0  0  0  0  0  0  0  0
  145.1676  141.5908  153.9541 H   0  0  0  0  0  0  0  0  0  0  0  0
  146.6803  142.4686  153.9585 H   0  0  0  0  0  0  0  0  0  0  0  0
  145.8040  142.2071  155.4622 H   0  0  0  0  0  0  0  0  0  0  0  0
  146.1633  139.5137  152.8332 H   0  0  0  0  0  0  0  0  0  0  0  0
  147.7291  138.9203  153.3652 H   0  0  0  0  0  0  0  0  0  0  0  0
  147.5761  140.5179  152.6459 H   0  0  0  0  0  0  0  0  0  0  0  0
  146.3185  138.4598  155.6016 H   0  0  0  0  0  0  0  0  0  0  0  0
  145.6585  139.7968  156.4607 H   0  0  0  0  0  0  0  0  0  0  0  0
  144.4069  139.9158  153.9943 H   0  0  0  0  0  0  0  0  0  0  0  0
  142.6795  139.1582  153.4700 H   0  0  0  0  0  0  0  0  0  0  0  0
  138.3863  136.2193  153.4131 H   0  0  0  0  0  0  0  0  0  0  0  0
  147.5374  142.0468  156.8743 H   0  0  0  0  0  0  0  0  0  0  0  0
  147.2732  140.4046  157.4174 H   0  0  0  0  0  0  0  0  0  0  0  0
  149.6768  140.0305  157.7084 H   0  0  0  0  0  0  0  0  0  0  0  0
  149.1331  141.4095  158.6375 H   0  0  0  0  0  0  0  0  0  0  0  0
  1  2  1  0  0  0  0
  1 21  1  0  0  0  0
  1 22  1  0  0  0  0
  1 23  1  0  0  0  0
  2 20  1  0  0  0  0
  2  3  1  0  0  0  0
  3  4  1  0  0  0  0
  3 24  1  0  0  0  0
  3 25  1  0  0  0  0
  4  5  1  0  0  0  0
  4 26  1  0  0  0  0
  4 27  1  0  0  0  0
  5  6  1  0  0  0  0
  5 19  1  0  0  0  0
  6  7  1  0  0  0  0
  6  8  1  0  0  0  0
  6  9  1  0  0  0  0
  7 28  1  0  0  0  0
  7 29  1  0  0  0  0
  7 30  1  0  0  0  0
  8 31  1  0  0  0  0
  8 32  1  0  0  0  0
  8 33  1  0  0  0  0
  9 10  1  0  0  0  0
  9 34  1  0  0  0  0
  9 35  1  0  0  0  0
 10 11  1  0  0  0  0
 10 36  1  0  0  0  0
 11 12  2  0  0  0  0
 11 13  1  0  0  0  0
 13 14  1  0  0  0  0
 13 37  1  0  0  0  0
 14 18  1  0  0  0  0
 14 15  2  0  0  0  0
 15 16  1  0  0  0  0
 16 17  2  0  0  0  0
 17 18  1  0  0  0  0
 17 38  1  0  0  0  0
 19 20  1  0  0  0  0
 19 39  1  0  0  0  0
 19 40  1  0  0  0  0
 20 41  1  0  0  0  0
 20 42  1  0  0  0  0
M  END
> <s_m_source_file>
AV-unprocessed.smi

> <i_m_source_file_index>
1572

> <i_lp_mmshare_version>
43012

> <i_f3d_flags>
0

> <s_epik_input>
W0NIM11OMVtDSDJdW0NIMl1OKFtDSDJdW0NIMl0xKUMoW0NIM10pKFtDSDNdKVtDSDJdW05IXUMoPU8pW05IXWMybm5bY0hdczI=

> <s_epik_cmdline>
J2VwaWtfcHl0aG9uJywgJy1waCcsICc3LjAnLCAnLXRuJywgJzgnLCAnLW1hJywgJzIwMCcsICctbWV0YWxfYmluZGluZycsICctaW1hZScsICc8aW5maWxlLm1hZT4nLCAnLW9tYWUnLCAnPG91dGZpbGUubWFlPic=

> <r_lp_tautomer_probability>
1

> <r_epik_Ionization_Penalty>
3.01909

> <r_epik_Ionization_Penalty_Charging>
0

> <r_epik_Ionization_Penalty_Neutral>
3.01909

> <r_epik_State_Penalty>
2.1369

> <r_epik_Charging_Adjusted_Penalty>
2.1369

> <i_epik_Tot_Q>
0

> <i_epik_Tot_abs_Q>
0

> <r_epik_Metal_State_Penalty>
2.47072

> <b_epik_Metal_Only>
0

> <s_lp_Force_Field>
OPLS_2005

> <r_lp_Energy>
48.823

> <b_lp_Chiralities_Consistent>
1

> <s_lp_Variant>
AV-unprocessed.smi:1572-3

> <Gold.Version>
5.8.1

> <Gold.Id.Protein>
6NUR|6NUR_protein|mol2

> <Gold.PLP.Fitness>
36.8911

> <Gold.PLP.PLP>
-28.1443

> <Gold.PLP.part.hbond>
-3.4935

> <Gold.PLP.part.metal>
0.0000

> <Gold.PLP.part.buried>
-4.7307

> <Gold.PLP.part.nonpolar>
-19.3722

> <Gold.PLP.part.repulsive>
0.2931

> <Gold.PLP.ligand.clash>
0.0000

> <Gold.PLP.ligand.torsion>
0.1536

> <Gold.PLP.Chemscore.Hbond>
3.0000

> <Gold.PLP.Chemscore.CHOScore>
0.0000

> <Gold.PLP.Chemscore.Metal>
0.0000

> <Gold.Chemscore.Hbonds>
donor molecule, donor type, donor heavy atom, donor atom, acceptor molecule, acceptor atom, score
      L1  H    10    36       P1 10175  1.00
      L1  H    13    37       P1 10175  1.00
      P1  H 11000 11005       L1    16  1.00

> <Gold.PLP.Chemscore.Internal.Correction>
0.0541

> <Gold.Rescore>
     Score         DG    S(hbond)    S(metal)    S(lipo)     H(rot)  DE(clash)    DE(int)     intcor
     16.47     -17.93       2.80        0.00      62.80       1.66       0.00       1.46       ----

> <Gold.Chemscore.Fitness>
16.4665

> <Gold.Chemscore.DG>
-17.9304

> <Gold.Chemscore.ZeroCoef>
-5.4800

> <Gold.Chemscore.Hbond>
2.7993

> <Gold.Chemscore.Metal>
0.0000

> <Gold.Chemscore.Lipo>
62.8011

> <Gold.Chemscore.Internal_Hbond>
0.0000

> <Gold.Chemscore.DEClash>
0.0000

> <Gold.Chemscore.DEInternal>
1.4639

> <Gold.Chemscore.Rot>
1.6590

> <Gold.Chemscore.Internal.Correction>
   9.000000E+99

> <Gold.Chemscore.Hbonds>
donor molecule, donor type, donor heavy atom, donor atom, acceptor molecule, acceptor atom, score
      L1  H    10    36       P1 10175  0.98
      L1  H    13    37       P1 10175  0.96
      P1  H 11000 11005       L1    16  0.30

> <Gold.Chemscore.Hbond.Weighted>
-9.3496

> <Gold.Chemscore.Metal.Weighted>
-0.0000

> <Gold.Chemscore.Lipo.Weighted>
-7.3477

> <Gold.Chemscore.Internal_Hbond.Weighted>
0.0000

> <Gold.Chemscore.DEClash.Weighted>
0.0000

> <Gold.Chemscore.DEInternal.Weighted>
1.4639

> <Gold.Chemscore.Rot.Weighted>
4.2469

> <Gold.Chemscore.Internal.Correction.Weighted>
   9.000000E+99

> <Gold.Protein.RotatedTorsions>
[ 6907 6896 6895 6894 ] final  -70.38 input  -60.11 | X-H torsion
[ 7974 7965 7964 7962 ] final   -4.26 input  175.53 | X-H torsion
[ 8008 7997 7996 7995 ] final  121.63 input   59.86 | X-H torsion
[ 10167 10162 10161 10158 ] final -163.53 input  -65.29 | X-H torsion
[ 10718 10713 10712 10709 ] final -101.00 input   66.30 | X-H torsion
[ 10763 10752 10751 10750 ] final  -52.20 input  -60.55 | X-H torsion
[ 11005 11000 10999 10996 ] final   54.07 input  -57.11 | X-H torsion

> <Gold.Protein.ActiveResidues>
 VAL166  LYS551  ARG553  GLY616  TRP617  ASP618  TYR619  PRO620  LYS621  CYS622 
 ASP623  PHE694  ASN695  SER759  ASP760  ASP761  ALA762  ILE779  LEU786  VAL792 
 PHE793  MET794  SER795  GLU796  ALA797  LYS798  CYS799  TRP800  GLU811  SER814 

> <Gold.Protein.RotatedAtoms>
  150.7260  134.5462  159.5771 H   0  0  0  0  0  0  0  0  0  0  0  0  # atno 6907 bound_to 6896
  152.2960  134.7663  160.0377 H   0  0  0  0  0  0  0  0  0  0  0  0  # atno 6908 bound_to 6896
  151.8260  133.3366  159.3635 H   0  0  0  0  0  0  0  0  0  0  0  0  # atno 6909 bound_to 6896
  146.2375  140.1845  142.8332 H   0  0  0  0  0  0  0  0  0  0  0  0  # atno 7974 bound_to 7965
  156.2695  140.2804  156.1339 H   0  0  0  0  0  0  0  0  0  0  0  0  # atno 8008 bound_to 7997
  155.1024  140.0390  157.2718 H   0  0  0  0  0  0  0  0  0  0  0  0  # atno 8009 bound_to 7997
  154.6805  140.2607  155.6919 H   0  0  0  0  0  0  0  0  0  0  0  0  # atno 8010 bound_to 7997
  139.6314  144.0432  152.2019 H   0  0  0  0  0  0  0  0  0  0  0  0  # atno 10167 bound_to 10162
  156.0180  130.5353  150.6898 H   0  0  0  0  0  0  0  0  0  0  0  0  # atno 10718 bound_to 10713
  154.1390  135.6508  153.4938 H   0  0  0  0  0  0  0  0  0  0  0  0  # atno 10763 bound_to 10752
  153.0172  135.5311  154.6924 H   0  0  0  0  0  0  0  0  0  0  0  0  # atno 10764 bound_to 10752
  154.6180  135.2961  155.0328 H   0  0  0  0  0  0  0  0  0  0  0  0  # atno 10765 bound_to 10752
  140.0716  134.5462  155.9040 H   0  0  0  0  0  0  0  0  0  0  0  0  # atno 11005 bound_to 11000
  144.9908  140.8545  143.5341 LP  0  0  0  0  0  0  0  0  0  0  0  0  # atno 17320 bound_to 7965
  145.1850  139.2331  143.5272 LP  0  0  0  0  0  0  0  0  0  0  0  0  # atno 17321 bound_to 7965
  140.0099  144.6232  150.7657 LP  0  0  0  0  0  0  0  0  0  0  0  0  # atno 17342 bound_to 10162
  140.7441  143.2856  151.3474 LP  0  0  0  0  0  0  0  0  0  0  0  0  # atno 17343 bound_to 10162
  157.4582  131.0880  151.0773 LP  0  0  0  0  0  0  0  0  0  0  0  0  # atno 17370 bound_to 10713
  157.1269  130.6085  149.5519 LP  0  0  0  0  0  0  0  0  0  0  0  0  # atno 17371 bound_to 10713
  141.2014  133.6618  156.5948 LP  0  0  0  0  0  0  0  0  0  0  0  0  # atno 17394 bound_to 11000
  140.3619  134.7680  157.4539 LP  0  0  0  0  0  0  0  0  0  0  0  0  # atno 17395 bound_to 11000

$$$$
