AV-unprocessed.smi:2184|AV-procd|sdf|8873|dock5
  -GOLD-   2272012 73D 1   1.00000     0.00000
 Structure written by MMmdl.
 47 48  0  0  0  0  0  0  0  0  1 V2000
  146.4301  137.8254  152.3790 C   0  0  0  0  0  0  0  0  0  0  0  0
  147.0579  139.4603  151.9070 S   0  0  0  0  0  0  0  0  0  0  0  0
  147.0270  140.3189  153.5093 C   0  0  2  0  0  0  0  0  0  0  0  0
  147.1132  141.8391  153.2991 C   0  0  0  0  0  0  0  0  0  0  0  0
  148.1371  139.8238  154.4448 C   0  0  0  0  0  0  0  0  0  0  0  0
  147.8700  139.4516  155.5877 O   0  0  0  0  0  0  0  0  0  0  0  0
  149.3836  139.8339  153.9507 N   0  0  0  0  0  0  0  0  0  0  0  0
  150.5687  139.4199  154.6920 C   0  0  0  0  0  0  0  0  0  0  0  0
  150.8660  140.2531  155.9311 C   0  0  0  0  0  0  0  0  0  0  0  0
  151.5135  139.7322  157.0729 C   0  0  0  0  0  0  0  0  0  0  0  0
  151.7438  140.5785  158.1743 C   0  0  0  0  0  0  0  0  0  0  0  0
  151.3236  141.9281  158.1106 C   0  0  0  0  0  0  0  0  0  0  0  0
  151.5474  142.7944  159.2028 N   0  0  0  0  0  0  0  0  0  0  0  0
  151.7200  144.2190  158.9254 C   0  0  0  0  0  0  0  0  0  0  0  0
  151.6462  145.0504  160.2212 C   0  0  1  0  0  0  0  0  0  0  0  0
  150.2155  145.2133  160.7648 C   0  0  0  0  0  0  0  0  0  0  0  0
  152.5384  144.5167  161.2018 O   0  0  0  0  0  0  0  0  0  0  0  0
  152.3304  143.1395  161.5120 C   0  0  2  0  0  0  0  0  0  0  0  0
  153.3629  142.7307  162.5677 C   0  0  0  0  0  0  0  0  0  0  0  0
  152.4564  142.2967  160.2303 C   0  0  0  0  0  0  0  0  0  0  0  0
  150.6952  142.4221  157.0157 N   0  0  0  0  0  0  0  0  0  0  0  0
  150.4773  141.6071  155.9625 C   0  0  0  0  0  0  0  0  0  0  0  0
  146.3503  137.1884  151.4982 H   0  0  0  0  0  0  0  0  0  0  0  0
  145.4429  137.9117  152.8328 H   0  0  0  0  0  0  0  0  0  0  0  0
  147.1009  137.3432  153.0897 H   0  0  0  0  0  0  0  0  0  0  0  0
  146.0610  140.1067  153.9702 H   0  0  0  0  0  0  0  0  0  0  0  0
  147.1061  142.3730  154.2504 H   0  0  0  0  0  0  0  0  0  0  0  0
  146.2643  142.1987  152.7170 H   0  0  0  0  0  0  0  0  0  0  0  0
  148.0212  142.1204  152.7640 H   0  0  0  0  0  0  0  0  0  0  0  0
  149.5211  140.1564  153.0041 H   0  0  0  0  0  0  0  0  0  0  0  0
  150.4501  138.3788  154.9961 H   0  0  0  0  0  0  0  0  0  0  0  0
  151.4371  139.4626  154.0327 H   0  0  0  0  0  0  0  0  0  0  0  0
  151.8318  138.7018  157.1222 H   0  0  0  0  0  0  0  0  0  0  0  0
  152.2241  140.1807  159.0557 H   0  0  0  0  0  0  0  0  0  0  0  0
  152.6913  144.3671  158.4510 H   0  0  0  0  0  0  0  0  0  0  0  0
  150.9624  144.5686  158.2227 H   0  0  0  0  0  0  0  0  0  0  0  0
  152.0111  146.0519  159.9927 H   0  0  0  0  0  0  0  0  0  0  0  0
  149.5908  145.7493  160.0499 H   0  0  0  0  0  0  0  0  0  0  0  0
  150.2154  145.7828  161.6942 H   0  0  0  0  0  0  0  0  0  0  0  0
  149.7342  144.2549  160.9579 H   0  0  0  0  0  0  0  0  0  0  0  0
  151.3379  143.0045  161.9427 H   0  0  0  0  0  0  0  0  0  0  0  0
  153.2417  141.6850  162.8513 H   0  0  0  0  0  0  0  0  0  0  0  0
  153.2571  143.3340  163.4695 H   0  0  0  0  0  0  0  0  0  0  0  0
  154.3799  142.8616  162.1968 H   0  0  0  0  0  0  0  0  0  0  0  0
  152.2624  141.2525  160.4713 H   0  0  0  0  0  0  0  0  0  0  0  0
  153.4763  142.3476  159.8465 H   0  0  0  0  0  0  0  0  0  0  0  0
  149.9743  142.0518  155.1166 H   0  0  0  0  0  0  0  0  0  0  0  0
  1  2  1  0  0  0  0
  1 23  1  0  0  0  0
  1 24  1  0  0  0  0
  1 25  1  0  0  0  0
  2  3  1  0  0  0  0
  3  4  1  0  0  0  0
  3  5  1  0  0  0  0
  3 26  1  0  0  0  0
  4 27  1  0  0  0  0
  4 28  1  0  0  0  0
  4 29  1  0  0  0  0
  5  6  2  0  0  0  0
  5  7  1  0  0  0  0
  7  8  1  0  0  0  0
  7 30  1  0  0  0  0
  8  9  1  0  0  0  0
  8 31  1  0  0  0  0
  8 32  1  0  0  0  0
  9 22  1  0  0  0  0
  9 10  2  0  0  0  0
 10 11  1  0  0  0  0
 10 33  1  0  0  0  0
 11 12  2  0  0  0  0
 11 34  1  0  0  0  0
 12 13  1  0  0  0  0
 12 21  1  0  0  0  0
 13 20  1  0  0  0  0
 13 14  1  0  0  0  0
 14 15  1  0  0  0  0
 14 35  1  0  0  0  0
 14 36  1  0  0  0  0
 15 16  1  0  0  0  0
 15 17  1  0  0  0  0
 15 37  1  0  0  0  0
 16 38  1  0  0  0  0
 16 39  1  0  0  0  0
 16 40  1  0  0  0  0
 17 18  1  0  0  0  0
 18 19  1  0  0  0  0
 18 20  1  0  0  0  0
 18 41  1  0  0  0  0
 19 42  1  0  0  0  0
 19 43  1  0  0  0  0
 19 44  1  0  0  0  0
 20 45  1  0  0  0  0
 20 46  1  0  0  0  0
 21 22  2  0  0  0  0
 22 47  1  0  0  0  0
M  END
> <s_m_source_file>
AV-unprocessed.smi

> <i_m_source_file_index>
2184

> <i_lp_mmshare_version>
43012

> <i_f3d_flags>
0

> <s_epik_input>
W0NIM11TW0NASF0oW0NIM10pQyg9TylbTkhdW0NIMl1jMVtjSF1bY0hdYyhuW2NIXTEpTjJbQ0gyXVtDQEBIXShbQ0gzXSlPW0NAQEhdKFtDSDNdKVtDSDJdMg==

> <s_epik_cmdline>
J2VwaWtfcHl0aG9uJywgJy1waCcsICc3LjAnLCAnLXRuJywgJzgnLCAnLW1hJywgJzIwMCcsICctbWV0YWxfYmluZGluZycsICctaW1hZScsICc8aW5maWxlLm1hZT4nLCAnLW9tYWUnLCAnPG91dGZpbGUubWFlPic=

> <r_lp_tautomer_probability>
1

> <r_epik_Ionization_Penalty>
0.00551702

> <r_epik_Ionization_Penalty_Charging>
0

> <r_epik_Ionization_Penalty_Neutral>
0.00551702

> <r_epik_State_Penalty>
0.00403758

> <r_epik_Charging_Adjusted_Penalty>
0.00403758

> <i_epik_Tot_Q>
0

> <i_epik_Tot_abs_Q>
0

> <r_epik_Metal_State_Penalty>
-0

> <b_epik_Metal_Only>
0

> <s_lp_Force_Field>
OPLS_2005

> <r_lp_Energy>
19.1656

> <b_lp_Chiralities_Consistent>
1

> <s_lp_Variant>
AV-unprocessed.smi:2184-5

> <Gold.Version>
5.8.1

> <Gold.Id.Protein>
6NUR|6NUR_protein|mol2

> <Gold.PLP.Fitness>
44.4448

> <Gold.PLP.PLP>
-42.6467

> <Gold.PLP.part.hbond>
-1.0000

> <Gold.PLP.part.metal>
0.0000

> <Gold.PLP.part.buried>
1.1685

> <Gold.PLP.part.nonpolar>
-43.4818

> <Gold.PLP.part.repulsive>
0.7121

> <Gold.PLP.ligand.clash>
0.0000

> <Gold.PLP.ligand.torsion>
1.1634

> <Gold.PLP.Chemscore.Hbond>
1.0000

> <Gold.PLP.Chemscore.CHOScore>
0.2516

> <Gold.PLP.Chemscore.Metal>
0.0000

> <Gold.Chemscore.Hbonds>
donor molecule, donor type, donor heavy atom, donor atom, acceptor molecule, acceptor atom, score
      L1  H     7    30       P1  7957  1.00
      L1  C    22    47       P1  8028  0.01

> <Gold.PLP.Chemscore.Internal.Correction>
0.3701

> <Gold.Rescore>
     Score         DG    S(hbond)    S(metal)    S(lipo)     H(rot)  DE(clash)    DE(int)     intcor
     17.81     -19.39       1.00        0.00     125.35       1.59       0.55       1.03       ----

> <Gold.Chemscore.Fitness>
17.8076

> <Gold.Chemscore.DG>
-19.3928

> <Gold.Chemscore.ZeroCoef>
-5.4800

> <Gold.Chemscore.Hbond>
0.9968

> <Gold.Chemscore.Metal>
0.0000

> <Gold.Chemscore.Lipo>
125.3494

> <Gold.Chemscore.Internal_Hbond>
0.0000

> <Gold.Chemscore.DEClash>
0.5535

> <Gold.Chemscore.DEInternal>
1.0317

> <Gold.Chemscore.Rot>
1.5947

> <Gold.Chemscore.Internal.Correction>
   9.000000E+99

> <Gold.Chemscore.Hbonds>
donor molecule, donor type, donor heavy atom, donor atom, acceptor molecule, acceptor atom, score
      L1  H     7    30       P1  7957  0.99

> <Gold.Chemscore.Hbond.Weighted>
-3.3294

> <Gold.Chemscore.Metal.Weighted>
-0.0000

> <Gold.Chemscore.Lipo.Weighted>
-14.6659

> <Gold.Chemscore.Internal_Hbond.Weighted>
0.0000

> <Gold.Chemscore.DEClash.Weighted>
0.5535

> <Gold.Chemscore.DEInternal.Weighted>
1.0317

> <Gold.Chemscore.Rot.Weighted>
4.0824

> <Gold.Chemscore.Internal.Correction.Weighted>
   9.000000E+99

> <Gold.Protein.RotatedTorsions>
[ 6907 6896 6895 6894 ] final  -55.41 input  -60.11 | X-H torsion
[ 7974 7965 7964 7962 ] final  -68.21 input  175.53 | X-H torsion
[ 8008 7997 7996 7995 ] final  -49.79 input   59.86 | X-H torsion
[ 10167 10162 10161 10158 ] final  179.75 input  -65.29 | X-H torsion
[ 10718 10713 10712 10709 ] final -132.79 input   66.30 | X-H torsion
[ 10763 10752 10751 10750 ] final  -85.00 input  -60.55 | X-H torsion
[ 11005 11000 10999 10996 ] final -166.20 input  -57.11 | X-H torsion

> <Gold.Protein.ActiveResidues>
 VAL166  LYS551  ARG553  GLY616  TRP617  ASP618  TYR619  PRO620  LYS621  CYS622 
 ASP623  PHE694  ASN695  SER759  ASP760  ASP761  ALA762  ILE779  LEU786  VAL792 
 PHE793  MET794  SER795  GLU796  ALA797  LYS798  CYS799  TRP800  GLU811  SER814 

> <Gold.Protein.RotatedAtoms>
  150.8254  134.7482  159.6807 H   0  0  0  0  0  0  0  0  0  0  0  0  # atno 6907 bound_to 6896
  152.4365  134.5672  159.9921 H   0  0  0  0  0  0  0  0  0  0  0  0  # atno 6908 bound_to 6896
  151.5846  133.3336  159.3051 H   0  0  0  0  0  0  0  0  0  0  0  0  # atno 6909 bound_to 6896
  145.7194  140.9045  143.0638 H   0  0  0  0  0  0  0  0  0  0  0  0  # atno 7974 bound_to 7965
  154.4050  140.1288  156.4559 H   0  0  0  0  0  0  0  0  0  0  0  0  # atno 8008 bound_to 7997
  155.7320  140.3491  155.5044 H   0  0  0  0  0  0  0  0  0  0  0  0  # atno 8009 bound_to 7997
  155.9118  140.1037  157.1263 H   0  0  0  0  0  0  0  0  0  0  0  0  # atno 8010 bound_to 7997
  139.5350  144.2524  152.0774 H   0  0  0  0  0  0  0  0  0  0  0  0  # atno 10167 bound_to 10162
  156.2382  130.7080  151.0930 H   0  0  0  0  0  0  0  0  0  0  0  0  # atno 10718 bound_to 10713
  154.6060  135.5500  153.7424 H   0  0  0  0  0  0  0  0  0  0  0  0  # atno 10763 bound_to 10752
  153.0175  135.6378  154.1646 H   0  0  0  0  0  0  0  0  0  0  0  0  # atno 10764 bound_to 10752
  154.1585  135.2898  155.3095 H   0  0  0  0  0  0  0  0  0  0  0  0  # atno 10765 bound_to 10752
  140.5672  134.5274  157.5155 H   0  0  0  0  0  0  0  0  0  0  0  0  # atno 11005 bound_to 11000
  144.6920  139.9182  143.7466 LP  0  0  0  0  0  0  0  0  0  0  0  0  # atno 17320 bound_to 7965
  146.0640  139.3631  143.0564 LP  0  0  0  0  0  0  0  0  0  0  0  0  # atno 17321 bound_to 7965
  140.1993  144.4674  150.6439 LP  0  0  0  0  0  0  0  0  0  0  0  0  # atno 17342 bound_to 10162
  140.6551  143.2235  151.5987 LP  0  0  0  0  0  0  0  0  0  0  0  0  # atno 17343 bound_to 10162
  157.7164  131.0707  150.6311 LP  0  0  0  0  0  0  0  0  0  0  0  0  # atno 17370 bound_to 10713
  156.6382  130.4451  149.5762 LP  0  0  0  0  0  0  0  0  0  0  0  0  # atno 17371 bound_to 10713
  139.9379  134.7841  156.0754 LP  0  0  0  0  0  0  0  0  0  0  0  0  # atno 17394 bound_to 11000
  141.1078  133.6653  156.2907 LP  0  0  0  0  0  0  0  0  0  0  0  0  # atno 17395 bound_to 11000

$$$$
