AV-unprocessed.smi:1006|AV-procd|sdf|4393|dock5
  -GOLD-   22720 2323D 1   1.00000     0.00000
 Structure written by MMmdl.
 46 48  0  0  0  0  0  0  0  0  2 V2000
  142.6462  137.1622  153.1453 C   0  0  0  0  0  0  0  0  0  0  0  0
  143.9884  137.2722  153.8372 C   0  0  0  0  0  0  0  0  0  0  0  0
  144.4168  136.3203  154.7853 C   0  0  0  0  0  0  0  0  0  0  0  0
  145.6812  136.5267  155.3640 C   0  0  0  0  0  0  0  0  0  0  0  0
  146.1940  135.6398  156.3071 N   0  0  0  0  0  0  0  0  0  0  0  0
  146.4422  137.5856  155.0288 N   0  0  0  0  0  0  0  0  0  0  0  0
  145.9759  138.4547  154.1219 C   0  0  0  0  0  0  0  0  0  0  0  0
  146.9716  139.8640  153.6602 S   0  0  0  0  0  0  0  0  0  0  0  0
  148.3245  139.7813  154.8729 C   0  0  0  0  0  0  0  0  0  0  0  0
  149.5523  140.6192  154.4709 C   0  0  1  0  0  0  0  0  0  0  0  0
  149.2565  141.3496  153.2981 O   0  0  0  0  0  0  0  0  0  0  0  0
  149.9881  141.6256  155.5565 C   0  0  0  0  0  0  0  0  0  0  0  0
  150.9921  141.0847  156.4560 N   0  0  0  0  0  0  0  0  0  0  0  0
  151.6750  139.9334  156.3079 C   0  0  0  0  0  0  0  0  0  0  0  0
  152.5419  139.6122  157.2640 N   0  0  0  0  0  0  0  0  0  0  0  0
  152.4068  140.6804  158.1342 C   0  0  0  0  0  0  0  0  0  0  0  0
  153.0429  140.9460  159.3666 C   0  0  0  0  0  0  0  0  0  0  0  0
  152.7369  142.1117  160.1047 C   0  0  0  0  0  0  0  0  0  0  0  0
  153.4403  142.3535  161.4285 C   0  0  0  0  0  0  0  0  0  0  0  0
  151.7829  143.0364  159.6091 C   0  0  0  0  0  0  0  0  0  0  0  0
  151.4325  144.2925  160.3866 C   0  0  0  0  0  0  0  0  0  0  0  0
  151.1446  142.7908  158.3757 C   0  0  0  0  0  0  0  0  0  0  0  0
  151.4516  141.6232  157.6542 C   0  0  0  0  0  0  0  0  0  0  0  0
  144.7828  138.3271  153.5241 N   0  3  0  0  0  0  0  0  0  0  0  0
  142.3420  136.1190  153.0560 H   0  0  0  0  0  0  0  0  0  0  0  0
  142.6867  137.5895  152.1425 H   0  0  0  0  0  0  0  0  0  0  0  0
  141.8844  137.6945  153.7154 H   0  0  0  0  0  0  0  0  0  0  0  0
  143.8021  135.4725  155.0524 H   0  0  0  0  0  0  0  0  0  0  0  0
  145.6783  134.8240  156.6049 H   0  0  0  0  0  0  0  0  0  0  0  0
  147.1176  135.7639  156.6973 H   0  0  0  0  0  0  0  0  0  0  0  0
  147.9526  140.1062  155.8454 H   0  0  0  0  0  0  0  0  0  0  0  0
  148.6080  138.7333  154.9644 H   0  0  0  0  0  0  0  0  0  0  0  0
  150.3853  139.9510  154.2491 H   0  0  0  0  0  0  0  0  0  0  0  0
  148.8141  140.7763  152.6907 H   0  0  0  0  0  0  0  0  0  0  0  0
  150.3911  142.5282  155.0947 H   0  0  0  0  0  0  0  0  0  0  0  0
  149.1293  141.9394  156.1514 H   0  0  0  0  0  0  0  0  0  0  0  0
  151.5219  139.2914  155.4525 H   0  0  0  0  0  0  0  0  0  0  0  0
  153.7679  140.2403  159.7449 H   0  0  0  0  0  0  0  0  0  0  0  0
  153.9672  143.3078  161.4139 H   0  0  0  0  0  0  0  0  0  0  0  0
  154.1716  141.5725  161.6398 H   0  0  0  0  0  0  0  0  0  0  0  0
  152.7194  142.3672  162.2463 H   0  0  0  0  0  0  0  0  0  0  0  0
  150.6417  144.8584  159.8930 H   0  0  0  0  0  0  0  0  0  0  0  0
  152.3045  144.9408  160.4753 H   0  0  0  0  0  0  0  0  0  0  0  0
  151.0854  144.0395  161.3887 H   0  0  0  0  0  0  0  0  0  0  0  0
  150.4159  143.4867  157.9872 H   0  0  0  0  0  0  0  0  0  0  0  0
  144.4686  139.0135  152.8378 H   0  0  0  0  0  0  0  0  0  0  0  0
  1  2  1  0  0  0  0
  1 25  1  0  0  0  0
  1 26  1  0  0  0  0
  1 27  1  0  0  0  0
  2 24  1  0  0  0  0
  2  3  2  0  0  0  0
  3  4  1  0  0  0  0
  3 28  1  0  0  0  0
  4  5  1  0  0  0  0
  4  6  2  0  0  0  0
  5 29  1  0  0  0  0
  5 30  1  0  0  0  0
  6  7  1  0  0  0  0
  7  8  1  0  0  0  0
  7 24  2  0  0  0  0
  8  9  1  0  0  0  0
  9 10  1  0  0  0  0
  9 31  1  0  0  0  0
  9 32  1  0  0  0  0
 10 11  1  0  0  0  0
 10 12  1  0  0  0  0
 10 33  1  0  0  0  0
 11 34  1  0  0  0  0
 12 13  1  0  0  0  0
 12 35  1  0  0  0  0
 12 36  1  0  0  0  0
 13 23  1  0  0  0  0
 13 14  1  0  0  0  0
 14 15  2  0  0  0  0
 14 37  1  0  0  0  0
 15 16  1  0  0  0  0
 16 23  2  0  0  0  0
 16 17  1  0  0  0  0
 17 18  2  0  0  0  0
 17 38  1  0  0  0  0
 18 19  1  0  0  0  0
 18 20  1  0  0  0  0
 19 39  1  0  0  0  0
 19 40  1  0  0  0  0
 19 41  1  0  0  0  0
 20 21  1  0  0  0  0
 20 22  2  0  0  0  0
 21 42  1  0  0  0  0
 21 43  1  0  0  0  0
 21 44  1  0  0  0  0
 22 23  1  0  0  0  0
 22 45  1  0  0  0  0
 24 46  1  0  0  0  0
M  CHG  1  24   1
M  END
> <s_m_source_file>
AV-unprocessed.smi

> <i_m_source_file_index>
1006

> <i_lp_mmshare_version>
43012

> <i_f3d_flags>
0

> <s_epik_input>
W0NIM11jMVtjSF1jKFtOSDJdKW5jKG4xKVNbQ0gyXVtDQEhdKFtPSF0pW0NIMl1uKFtjSF1uMiljKGMyMylbY0hdYyhbQ0gzXSljKFtjSF0zKVtDSDNd

> <s_epik_cmdline>
J2VwaWtfcHl0aG9uJywgJy1waCcsICc3LjAnLCAnLXRuJywgJzgnLCAnLW1hJywgJzIwMCcsICctbWV0YWxfYmluZGluZycsICctaW1hZScsICc8aW5maWxlLm1hZT4nLCAnLW9tYWUnLCAnPG91dGZpbGUubWFlPic=

> <r_lp_tautomer_probability>
0.999762

> <r_epik_Ionization_Penalty>
0.549885

> <r_epik_Ionization_Penalty_Charging>
0.440405

> <r_epik_Ionization_Penalty_Neutral>
0.10948

> <r_epik_State_Penalty>
0.546419

> <r_epik_Charging_Adjusted_Penalty>
0.986823

> <i_epik_Tot_Q>
1

> <i_epik_Tot_abs_Q>
1

> <r_epik_Metal_State_Penalty>
0.699827

> <b_epik_Metal_Only>
0

> <s_lp_Force_Field>
OPLS_2005

> <r_lp_Energy>
7.78967

> <b_lp_Chiralities_Consistent>
1

> <s_lp_Variant>
AV-unprocessed.smi:1006-4

> <Gold.Version>
5.8.1

> <Gold.Id.Protein>
6NUR|6NUR_protein|mol2

> <Gold.PLP.Fitness>
53.0566

> <Gold.PLP.PLP>
-42.3618

> <Gold.PLP.part.hbond>
-4.7731

> <Gold.PLP.part.metal>
0.0000

> <Gold.PLP.part.buried>
-3.7942

> <Gold.PLP.part.nonpolar>
-33.7205

> <Gold.PLP.part.repulsive>
0.0485

> <Gold.PLP.ligand.clash>
0.0259

> <Gold.PLP.ligand.torsion>
1.4080

> <Gold.PLP.Chemscore.Hbond>
4.4960

> <Gold.PLP.Chemscore.CHOScore>
0.0000

> <Gold.PLP.Chemscore.Metal>
0.0000

> <Gold.Chemscore.Hbonds>
donor molecule, donor type, donor heavy atom, donor atom, acceptor molecule, acceptor atom, score
      L1  H    11    34       P1  7957  0.50
      L1  H    24    46       P1 10175  2.00
      P1  H  7997  8010       L1    15  0.88
      P1  H  8011  8017       L1    11  1.00

> <Gold.PLP.Chemscore.Internal.Correction>
0.0488

> <Gold.Rescore>
     Score         DG    S(hbond)    S(metal)    S(lipo)     H(rot)  DE(clash)    DE(int)     intcor
     18.38     -19.86       2.84        0.00     105.23       2.89       0.01       1.48       ----

> <Gold.Chemscore.Fitness>
18.3759

> <Gold.Chemscore.DG>
-19.8633

> <Gold.Chemscore.ZeroCoef>
-5.4800

> <Gold.Chemscore.Hbond>
2.8354

> <Gold.Chemscore.Metal>
0.0000

> <Gold.Chemscore.Lipo>
105.2268

> <Gold.Chemscore.Internal_Hbond>
0.0000

> <Gold.Chemscore.DEClash>
0.0114

> <Gold.Chemscore.DEInternal>
1.4759

> <Gold.Chemscore.Rot>
2.8901

> <Gold.Chemscore.Internal.Correction>
   9.000000E+99

> <Gold.Chemscore.Hbonds>
donor molecule, donor type, donor heavy atom, donor atom, acceptor molecule, acceptor atom, score
      L1  H    11    34       P1  7957  0.48
      L1  H    24    46       P1 10175  0.94
      P1  H  7997  8010       L1    15  0.06
      P1  H  8011  8017       L1    11  0.23

> <Gold.Chemscore.Hbond.Weighted>
-9.4703

> <Gold.Chemscore.Metal.Weighted>
-0.0000

> <Gold.Chemscore.Lipo.Weighted>
-12.3115

> <Gold.Chemscore.Internal_Hbond.Weighted>
0.0000

> <Gold.Chemscore.DEClash.Weighted>
0.0114

> <Gold.Chemscore.DEInternal.Weighted>
1.4759

> <Gold.Chemscore.Rot.Weighted>
7.3986

> <Gold.Chemscore.Internal.Correction.Weighted>
   9.000000E+99

> <Gold.Protein.RotatedTorsions>
[ 6907 6896 6895 6894 ] final  119.87 input  -60.11 | X-H torsion
[ 7974 7965 7964 7962 ] final  -44.48 input  175.53 | X-H torsion
[ 8008 7997 7996 7995 ] final   75.29 input   59.86 | X-H torsion
[ 10167 10162 10161 10158 ] final  150.32 input  -65.29 | X-H torsion
[ 10718 10713 10712 10709 ] final -106.36 input   66.30 | X-H torsion
[ 10763 10752 10751 10750 ] final   10.22 input  -60.55 | X-H torsion
[ 11005 11000 10999 10996 ] final   43.77 input  -57.11 | X-H torsion

> <Gold.Protein.ActiveResidues>
 VAL166  LYS551  ARG553  GLY616  TRP617  ASP618  TYR619  PRO620  LYS621  CYS622 
 ASP623  PHE694  ASN695  SER759  ASP760  ASP761  ALA762  ILE779  LEU786  VAL792 
 PHE793  MET794  SER795  GLU796  ALA797  LYS798  CYS799  TRP800  GLU811  SER814 

> <Gold.Protein.RotatedAtoms>
  152.4440  133.7502  159.6689 H   0  0  0  0  0  0  0  0  0  0  0  0  # atno 6907 bound_to 6896
  150.8336  133.8039  159.3094 H   0  0  0  0  0  0  0  0  0  0  0  0  # atno 6908 bound_to 6896
  151.5685  135.1066  160.0041 H   0  0  0  0  0  0  0  0  0  0  0  0  # atno 6909 bound_to 6896
  145.9916  140.7174  142.9314 H   0  0  0  0  0  0  0  0  0  0  0  0  # atno 7974 bound_to 7965
  155.8107  140.3473  155.5456 H   0  0  0  0  0  0  0  0  0  0  0  0  # atno 8008 bound_to 7997
  155.8443  140.0946  157.1735 H   0  0  0  0  0  0  0  0  0  0  0  0  # atno 8009 bound_to 7997
  154.4006  140.1388  156.3754 H   0  0  0  0  0  0  0  0  0  0  0  0  # atno 8010 bound_to 7997
  139.4851  144.5531  151.7365 H   0  0  0  0  0  0  0  0  0  0  0  0  # atno 10167 bound_to 10162
  156.0386  130.5609  150.7669 H   0  0  0  0  0  0  0  0  0  0  0  0  # atno 10718 bound_to 10713
  153.2056  135.6862  153.8177 H   0  0  0  0  0  0  0  0  0  0  0  0  # atno 10763 bound_to 10752
  153.7428  135.3235  155.3308 H   0  0  0  0  0  0  0  0  0  0  0  0  # atno 10764 bound_to 10752
  154.8195  135.4662  154.0841 H   0  0  0  0  0  0  0  0  0  0  0  0  # atno 10765 bound_to 10752
  140.1614  134.4337  155.8315 H   0  0  0  0  0  0  0  0  0  0  0  0  # atno 11005 bound_to 11000
  144.6891  140.3080  143.7252 LP  0  0  0  0  0  0  0  0  0  0  0  0  # atno 17320 bound_to 7965
  145.7621  139.1828  143.2261 LP  0  0  0  0  0  0  0  0  0  0  0  0  # atno 17321 bound_to 7965
  140.5089  144.1056  150.5990 LP  0  0  0  0  0  0  0  0  0  0  0  0  # atno 17342 bound_to 10162
  140.3975  143.2721  151.9988 LP  0  0  0  0  0  0  0  0  0  0  0  0  # atno 17343 bound_to 10162
  157.5174  131.0929  151.0122 LP  0  0  0  0  0  0  0  0  0  0  0  0  # atno 17370 bound_to 10713
  157.0462  130.5769  149.5363 LP  0  0  0  0  0  0  0  0  0  0  0  0  # atno 17371 bound_to 10713
  141.2210  133.6915  156.7600 LP  0  0  0  0  0  0  0  0  0  0  0  0  # atno 17394 bound_to 11000
  140.2485  134.8559  157.3644 LP  0  0  0  0  0  0  0  0  0  0  0  0  # atno 17395 bound_to 11000

$$$$
