AV-unprocessed.smi:2124|AV-procd|sdf|8663|dock1
  -GOLD-   2272011413D 1   1.00000     0.00000
 Structure written by MMmdl.
 47 49  0  0  0  0  0  0  0  0  1 V2000
  147.9322  134.5560  154.8866 C   0  0  0  0  0  0  0  0  0  0  0  0
  148.9838  135.3418  155.6393 C   0  0  0  0  0  0  0  0  0  0  0  0
  149.7819  136.1263  154.8229 N   0  0  0  0  0  0  0  0  0  0  0  0
  150.7728  136.8840  155.4213 C   0  0  0  0  0  0  0  0  0  0  0  0
  151.6033  137.7122  154.4564 C   0  0  0  0  0  0  0  0  0  0  0  0
  150.9606  136.8595  156.7654 C   0  0  0  0  0  0  0  0  0  0  0  0
  152.0486  137.6738  157.4647 C   0  0  0  0  0  0  0  0  0  0  0  0
  152.1164  139.1611  157.1069 C   0  0  0  0  0  0  0  0  0  0  0  0
  152.9722  139.5818  156.3278 O   0  0  0  0  0  0  0  0  0  0  0  0
  151.1979  139.9472  157.6885 N   0  0  0  0  0  0  0  0  0  0  0  0
  151.0791  141.3921  157.5046 C   0  0  1  0  0  0  0  0  0  0  0  0
  149.7209  141.7064  156.8512 C   0  0  0  0  0  0  0  0  0  0  0  0
  151.2567  142.1137  158.8628 C   0  0  2  0  0  0  0  0  0  0  0  0
  150.5846  143.5077  158.9157 C   0  0  0  0  0  0  0  0  0  0  0  0
  151.7288  144.4389  159.3549 C   0  0  1  0  0  0  0  0  0  0  0  0
  152.0944  144.1506  160.8220 C   0  0  0  0  0  0  0  0  0  0  0  0
  152.8031  142.7864  160.7307 C   0  0  0  0  0  0  0  0  0  0  0  0
  152.7241  142.4618  159.2262 C   0  0  2  0  0  0  0  0  0  0  0  0
  152.9138  143.8429  158.6075 C   0  0  0  0  0  0  0  0  0  0  0  0
  150.0785  135.9966  157.5860 C   0  0  0  0  0  0  0  0  0  0  0  0
  150.2063  135.9221  158.8073 O   0  0  0  0  0  0  0  0  0  0  0  0
  149.0844  135.2521  156.9307 N   0  0  0  0  0  0  0  0  0  0  0  0
  149.6789  136.1712  153.8193 H   0  0  0  0  0  0  0  0  0  0  0  0
  147.3664  133.9140  155.5627 H   0  0  0  0  0  0  0  0  0  0  0  0
  148.3984  133.9246  154.1295 H   0  0  0  0  0  0  0  0  0  0  0  0
  147.2337  135.2325  154.3934 H   0  0  0  0  0  0  0  0  0  0  0  0
  152.6595  137.4570  154.5453 H   0  0  0  0  0  0  0  0  0  0  0  0
  151.4859  138.7751  154.6687 H   0  0  0  0  0  0  0  0  0  0  0  0
  151.3041  137.5428  153.4210 H   0  0  0  0  0  0  0  0  0  0  0  0
  153.0296  137.2307  157.2884 H   0  0  0  0  0  0  0  0  0  0  0  0
  151.8990  137.5960  158.5418 H   0  0  0  0  0  0  0  0  0  0  0  0
  150.5348  139.5142  158.3150 H   0  0  0  0  0  0  0  0  0  0  0  0
  151.8705  141.7274  156.8319 H   0  0  0  0  0  0  0  0  0  0  0  0
  149.6041  142.7722  156.6570 H   0  0  0  0  0  0  0  0  0  0  0  0
  148.8930  141.3933  157.4881 H   0  0  0  0  0  0  0  0  0  0  0  0
  149.6154  141.1925  155.8953 H   0  0  0  0  0  0  0  0  0  0  0  0
  150.8363  141.4732  159.6402 H   0  0  0  0  0  0  0  0  0  0  0  0
  150.2184  143.8147  157.9352 H   0  0  0  0  0  0  0  0  0  0  0  0
  149.7400  143.5345  159.6052 H   0  0  0  0  0  0  0  0  0  0  0  0
  151.5373  145.4926  159.1501 H   0  0  0  0  0  0  0  0  0  0  0  0
  152.7738  144.9102  161.2106 H   0  0  0  0  0  0  0  0  0  0  0  0
  151.2167  144.1227  161.4688 H   0  0  0  0  0  0  0  0  0  0  0  0
  153.8415  142.8727  161.0536 H   0  0  0  0  0  0  0  0  0  0  0  0
  152.3254  142.0258  161.3492 H   0  0  0  0  0  0  0  0  0  0  0  0
  153.4605  141.7203  158.9166 H   0  0  0  0  0  0  0  0  0  0  0  0
  152.7951  143.8567  157.5229 H   0  0  0  0  0  0  0  0  0  0  0  0
  153.8672  144.3067  158.8679 H   0  0  0  0  0  0  0  0  0  0  0  0
  1 24  1  0  0  0  0
  1 25  1  0  0  0  0
  1 26  1  0  0  0  0
  1  2  1  0  0  0  0
  2  3  1  0  0  0  0
  2 22  2  0  0  0  0
  3  4  1  0  0  0  0
  3 23  1  0  0  0  0
  4  6  2  0  0  0  0
  4  5  1  0  0  0  0
  5 27  1  0  0  0  0
  5 28  1  0  0  0  0
  5 29  1  0  0  0  0
  6 20  1  0  0  0  0
  6  7  1  0  0  0  0
  7  8  1  0  0  0  0
  7 30  1  0  0  0  0
  7 31  1  0  0  0  0
  8  9  2  0  0  0  0
  8 10  1  0  0  0  0
 10 11  1  0  0  0  0
 10 32  1  0  0  0  0
 11 12  1  0  0  0  0
 11 13  1  0  0  0  0
 11 33  1  0  0  0  0
 12 34  1  0  0  0  0
 12 35  1  0  0  0  0
 12 36  1  0  0  0  0
 13 18  1  0  0  0  0
 13 14  1  0  0  0  0
 13 37  1  0  0  0  0
 14 15  1  0  0  0  0
 14 38  1  0  0  0  0
 14 39  1  0  0  0  0
 15 19  1  0  0  0  0
 15 16  1  0  0  0  0
 15 40  1  0  0  0  0
 16 17  1  0  0  0  0
 16 41  1  0  0  0  0
 16 42  1  0  0  0  0
 17 18  1  0  0  0  0
 17 43  1  0  0  0  0
 17 44  1  0  0  0  0
 18 19  1  0  0  0  0
 18 45  1  0  0  0  0
 19 46  1  0  0  0  0
 19 47  1  0  0  0  0
 20 21  2  0  0  0  0
 20 22  1  0  0  0  0
M  END
> <s_m_source_file>
AV-unprocessed.smi

> <i_m_source_file_index>
2124

> <i_lp_mmshare_version>
43012

> <i_f3d_flags>
0

> <s_epik_input>
W0NIM11jMW5jKFtDSDNdKWMoYyg9TylbbkhdMSlbQ0gyXUMoPU8pW05IXVtDQEhdKFtDSDNdKVtDQEhdKFtDSDJdW0NASF0yMylbQ0BIXShbQ0gyXTMpW0NIMl1bQ0gyXTI=

> <s_epik_cmdline>
J2VwaWtfcHl0aG9uJywgJy1waCcsICc3LjAnLCAnLXRuJywgJzgnLCAnLW1hJywgJzIwMCcsICctbWV0YWxfYmluZGluZycsICctaW1hZScsICc8aW5maWxlLm1hZT4nLCAnLW9tYWUnLCAnPG91dGZpbGUubWFlPic=

> <r_lp_tautomer_probability>
0.156392

> <r_epik_Ionization_Penalty>
0.0139374

> <r_epik_Ionization_Penalty_Charging>
0.0138122

> <r_epik_Ionization_Penalty_Neutral>
0.000125146

> <r_epik_State_Penalty>
1.15342

> <r_epik_Charging_Adjusted_Penalty>
1.16723

> <i_epik_Tot_Q>
0

> <i_epik_Tot_abs_Q>
0

> <r_epik_Metal_State_Penalty>
1.3173

> <b_epik_Metal_Only>
0

> <s_lp_Force_Field>
OPLS_2005

> <r_lp_Energy>
55.952

> <b_lp_Chiralities_Consistent>
1

> <s_lp_Variant>
AV-unprocessed.smi:2124-14

> <Gold.Version>
5.8.1

> <Gold.Id.Protein>
6NUR|6NUR_protein|mol2

> <Gold.PLP.Fitness>
46.2072

> <Gold.PLP.PLP>
-39.1348

> <Gold.PLP.part.hbond>
-2.8548

> <Gold.PLP.part.metal>
0.0000

> <Gold.PLP.part.buried>
-5.3038

> <Gold.PLP.part.nonpolar>
-31.2980

> <Gold.PLP.part.repulsive>
0.0875

> <Gold.PLP.ligand.clash>
0.0000

> <Gold.PLP.ligand.torsion>
0.9774

> <Gold.PLP.Chemscore.Hbond>
3.0000

> <Gold.PLP.Chemscore.CHOScore>
0.0000

> <Gold.PLP.Chemscore.Metal>
0.0000

> <Gold.Chemscore.Hbonds>
donor molecule, donor type, donor heavy atom, donor atom, acceptor molecule, acceptor atom, score
      L1  H     3    23       P1  7948  0.94
      P1  H  6896  6909       L1    21  0.96
      P1  H  7997  8010       L1     9  0.96

> <Gold.PLP.Chemscore.Internal.Correction>
0.0271

> <Gold.Rescore>
     Score         DG    S(hbond)    S(metal)    S(lipo)     H(rot)  DE(clash)    DE(int)     intcor
     23.51     -24.48       2.96        0.00     114.24       1.65       0.12       0.85       ----

> <Gold.Chemscore.Fitness>
23.5119

> <Gold.Chemscore.DG>
-24.4842

> <Gold.Chemscore.ZeroCoef>
-5.4800

> <Gold.Chemscore.Hbond>
2.9552

> <Gold.Chemscore.Metal>
0.0000

> <Gold.Chemscore.Lipo>
114.2419

> <Gold.Chemscore.Internal_Hbond>
0.0000

> <Gold.Chemscore.DEClash>
0.1212

> <Gold.Chemscore.DEInternal>
0.8511

> <Gold.Chemscore.Rot>
1.6534

> <Gold.Chemscore.Internal.Correction>
   9.000000E+99

> <Gold.Chemscore.Hbonds>
donor molecule, donor type, donor heavy atom, donor atom, acceptor molecule, acceptor atom, score
      L1  H     3    23       P1  7948  0.40
      P1  H  6896  6909       L1    21  0.90
      P1  H  7997  8010       L1     9  0.89

> <Gold.Chemscore.Hbond.Weighted>
-9.8705

> <Gold.Chemscore.Metal.Weighted>
-0.0000

> <Gold.Chemscore.Lipo.Weighted>
-13.3663

> <Gold.Chemscore.Internal_Hbond.Weighted>
0.0000

> <Gold.Chemscore.DEClash.Weighted>
0.1212

> <Gold.Chemscore.DEInternal.Weighted>
0.8511

> <Gold.Chemscore.Rot.Weighted>
4.2326

> <Gold.Chemscore.Internal.Correction.Weighted>
   9.000000E+99

> <Gold.Protein.RotatedTorsions>
[ 6907 6896 6895 6894 ] final   69.66 input  -60.11 | X-H torsion
[ 7974 7965 7964 7962 ] final   46.85 input  175.53 | X-H torsion
[ 8008 7997 7996 7995 ] final   60.63 input   59.86 | X-H torsion
[ 10167 10162 10161 10158 ] final   -3.27 input  -65.29 | X-H torsion
[ 10718 10713 10712 10709 ] final   57.24 input   66.30 | X-H torsion
[ 10763 10752 10751 10750 ] final -165.57 input  -60.55 | X-H torsion
[ 11005 11000 10999 10996 ] final  122.33 input  -57.11 | X-H torsion

> <Gold.Protein.ActiveResidues>
 VAL166  LYS551  ARG553  GLY616  TRP617  ASP618  TYR619  PRO620  LYS621  CYS622 
 ASP623  PHE694  ASN695  SER759  ASP760  ASP761  ALA762  ILE779  LEU786  VAL792 
 PHE793  MET794  SER795  GLU796  ALA797  LYS798  CYS799  TRP800  GLU811  SER814 

> <Gold.Protein.RotatedAtoms>
  152.4700  134.4983  159.9716 H   0  0  0  0  0  0  0  0  0  0  0  0  # atno 6907 bound_to 6896
  151.5012  133.3498  159.2877 H   0  0  0  0  0  0  0  0  0  0  0  0  # atno 6908 bound_to 6896
  150.8705  134.8105  159.7213 H   0  0  0  0  0  0  0  0  0  0  0  0  # atno 6909 bound_to 6896
  146.0352  139.4811  142.9813 H   0  0  0  0  0  0  0  0  0  0  0  0  # atno 7974 bound_to 7965
  155.5854  140.3492  155.4551 H   0  0  0  0  0  0  0  0  0  0  0  0  # atno 8008 bound_to 7997
  156.0342  140.1281  157.0251 H   0  0  0  0  0  0  0  0  0  0  0  0  # atno 8009 bound_to 7997
  154.4364  140.1037  156.6129 H   0  0  0  0  0  0  0  0  0  0  0  0  # atno 8010 bound_to 7997
  140.6884  143.6559  150.8309 H   0  0  0  0  0  0  0  0  0  0  0  0  # atno 10167 bound_to 10162
  157.5498  130.8757  149.8946 H   0  0  0  0  0  0  0  0  0  0  0  0  # atno 10718 bound_to 10713
  154.6919  135.2972  154.9467 H   0  0  0  0  0  0  0  0  0  0  0  0  # atno 10763 bound_to 10752
  154.0428  135.6655  153.4796 H   0  0  0  0  0  0  0  0  0  0  0  0  # atno 10764 bound_to 10752
  153.0618  135.5111  154.8015 H   0  0  0  0  0  0  0  0  0  0  0  0  # atno 10765 bound_to 10752
  139.9264  134.9641  156.8093 H   0  0  0  0  0  0  0  0  0  0  0  0  # atno 11005 bound_to 11000
  145.6976  141.0146  143.1522 LP  0  0  0  0  0  0  0  0  0  0  0  0  # atno 17320 bound_to 7965
  144.7048  139.8606  143.7433 LP  0  0  0  0  0  0  0  0  0  0  0  0  # atno 17321 bound_to 7965
  140.0269  143.5484  152.2777 LP  0  0  0  0  0  0  0  0  0  0  0  0  # atno 17342 bound_to 10162
  139.6262  144.7637  151.2633 LP  0  0  0  0  0  0  0  0  0  0  0  0  # atno 17343 bound_to 10162
  156.0567  130.3707  150.1076 LP  0  0  0  0  0  0  0  0  0  0  0  0  # atno 17370 bound_to 10713
  156.9249  130.9695  151.3542 LP  0  0  0  0  0  0  0  0  0  0  0  0  # atno 17371 bound_to 10713
  140.6325  133.9892  155.7669 LP  0  0  0  0  0  0  0  0  0  0  0  0  # atno 17394 bound_to 11000
  141.0824  134.0042  157.3366 LP  0  0  0  0  0  0  0  0  0  0  0  0  # atno 17395 bound_to 11000

$$$$
