AV-unprocessed.smi:275|AV-procd|sdf|2069|dock9
  -GOLD-   2262021323D 1   1.00000     0.00000
 Structure written by MMmdl.
 65 69  0  0  0  0  0  0  0  0  1 V2000
  149.4681  143.9740  159.5293 C   0  0  0  0  0  0  0  0  0  0  0  0
  148.9427  143.1457  158.3450 C   0  0  0  0  0  0  0  0  0  0  0  0
  147.5259  142.6537  158.6993 C   0  0  0  0  0  0  0  0  0  0  0  0
  149.8745  141.9703  157.9483 C   0  0  1  0  0  0  0  0  0  0  0  0
  149.7569  141.7898  156.4986 N   0  0  0  0  0  0  0  0  0  0  0  0
  149.5598  140.4540  156.0167 C   0  0  0  0  0  0  0  0  0  0  0  0
  150.6068  139.5846  156.0375 N   0  0  0  0  0  0  0  0  0  0  0  0
  150.4861  138.3317  155.5917 C   0  0  0  0  0  0  0  0  0  0  0  0
  149.4167  137.7353  155.0679 N   0  0  0  0  0  0  0  0  0  0  0  0
  148.3624  138.5953  155.0097 C   0  0  0  0  0  0  0  0  0  0  0  0
  148.3491  139.9517  155.4491 C   0  0  0  0  0  0  0  0  0  0  0  0
  147.0947  140.5009  155.2062 N   0  0  0  0  0  0  0  0  0  0  0  0
  146.4078  139.5300  154.6713 C   0  0  0  0  0  0  0  0  0  0  0  0
  147.0916  138.3465  154.5235 N   0  0  0  0  0  0  0  0  0  0  0  0
  146.5778  137.1093  153.9625 C   0  0  0  0  0  0  0  0  0  0  0  0
  146.1350  137.2419  152.4836 C   0  0  1  0  0  0  0  0  0  0  0  0
  146.8602  138.3893  151.7386 C   0  0  0  0  0  0  0  0  0  0  0  0
  146.7423  138.2514  150.3373 O   0  0  0  0  0  0  0  0  0  0  0  0
  146.2483  135.8906  151.7339 C   0  0  1  0  0  0  0  0  0  0  0  0
  146.3856  134.6733  152.6312 C   0  0  0  0  0  0  0  0  0  0  0  0
  146.0058  133.5358  151.6894 C   0  0  0  0  0  0  0  0  0  0  0  0
  145.0353  134.0807  150.8031 O   0  0  0  0  0  0  0  0  0  0  0  0
  145.0083  135.4997  150.9227 C   0  0  0  0  0  0  0  0  0  0  0  0
  151.0617  142.3956  156.2622 C   0  0  0  0  0  0  0  0  0  0  0  0
  151.4151  142.0945  157.7259 C   0  0  0  0  0  0  0  0  0  0  0  0
  152.2408  140.7981  157.9138 C   0  0  0  0  0  0  0  0  0  0  0  0
  152.5405  140.4587  159.3808 C   0  0  0  0  0  0  0  0  0  0  0  0
  153.3195  141.5944  160.0472 C   0  0  0  0  0  0  0  0  0  0  0  0
  152.5546  142.9120  159.9082 C   0  0  0  0  0  0  0  0  0  0  0  0
  152.2020  143.2151  158.4366 C   0  0  0  0  0  0  0  0  0  0  0  0
  149.8085  143.3343  160.3441 H   0  0  0  0  0  0  0  0  0  0  0  0
  148.6917  144.6272  159.9288 H   0  0  0  0  0  0  0  0  0  0  0  0
  150.2832  144.6313  159.2384 H   0  0  0  0  0  0  0  0  0  0  0  0
  148.8411  143.8309  157.5018 H   0  0  0  0  0  0  0  0  0  0  0  0
  147.5411  142.0066  159.5764 H   0  0  0  0  0  0  0  0  0  0  0  0
  147.0703  142.0964  157.8808 H   0  0  0  0  0  0  0  0  0  0  0  0
  146.8625  143.4901  158.9205 H   0  0  0  0  0  0  0  0  0  0  0  0
  149.6607  141.0681  158.5196 H   0  0  0  0  0  0  0  0  0  0  0  0
  151.3745  137.7220  155.6642 H   0  0  0  0  0  0  0  0  0  0  0  0
  145.3763  139.6500  154.3732 H   0  0  0  0  0  0  0  0  0  0  0  0
  147.3487  136.3432  154.0565 H   0  0  0  0  0  0  0  0  0  0  0  0
  145.7439  136.7854  154.5859 H   0  0  0  0  0  0  0  0  0  0  0  0
  145.0781  137.5120  152.4956 H   0  0  0  0  0  0  0  0  0  0  0  0
  146.4551  139.3584  152.0290 H   0  0  0  0  0  0  0  0  0  0  0  0
  147.9180  138.4199  151.9999 H   0  0  0  0  0  0  0  0  0  0  0  0
  145.8266  138.1630  150.1204 H   0  0  0  0  0  0  0  0  0  0  0  0
  147.1082  135.9162  151.0623 H   0  0  0  0  0  0  0  0  0  0  0  0
  147.3871  134.5529  153.0453 H   0  0  0  0  0  0  0  0  0  0  0  0
  145.6769  134.7264  153.4592 H   0  0  0  0  0  0  0  0  0  0  0  0
  146.8712  133.2208  151.1046 H   0  0  0  0  0  0  0  0  0  0  0  0
  145.6186  132.6653  152.2197 H   0  0  0  0  0  0  0  0  0  0  0  0
  144.0952  135.7793  151.4502 H   0  0  0  0  0  0  0  0  0  0  0  0
  144.9879  135.9729  149.9407 H   0  0  0  0  0  0  0  0  0  0  0  0
  151.7149  141.9142  155.5344 H   0  0  0  0  0  0  0  0  0  0  0  0
  150.9661  143.4626  156.0565 H   0  0  0  0  0  0  0  0  0  0  0  0
  151.7330  139.9430  157.4700 H   0  0  0  0  0  0  0  0  0  0  0  0
  153.1836  140.8808  157.3713 H   0  0  0  0  0  0  0  0  0  0  0  0
  151.6077  140.2821  159.9176 H   0  0  0  0  0  0  0  0  0  0  0  0
  153.1134  139.5331  159.4391 H   0  0  0  0  0  0  0  0  0  0  0  0
  153.4911  141.3674  161.0998 H   0  0  0  0  0  0  0  0  0  0  0  0
  154.3022  141.6885  159.5832 H   0  0  0  0  0  0  0  0  0  0  0  0
  151.6543  142.8443  160.5149 H   0  0  0  0  0  0  0  0  0  0  0  0
  153.1440  143.7294  160.3245 H   0  0  0  0  0  0  0  0  0  0  0  0
  153.1321  143.3952  157.8960 H   0  0  0  0  0  0  0  0  0  0  0  0
  151.6628  144.1597  158.3753 H   0  0  0  0  0  0  0  0  0  0  0  0
  1  2  1  0  0  0  0
  1 31  1  0  0  0  0
  1 32  1  0  0  0  0
  1 33  1  0  0  0  0
  2  3  1  0  0  0  0
  2  4  1  0  0  0  0
  2 34  1  0  0  0  0
  3 35  1  0  0  0  0
  3 36  1  0  0  0  0
  3 37  1  0  0  0  0
  4 25  1  0  0  0  0
  4  5  1  0  0  0  0
  4 38  1  0  0  0  0
  5  6  1  0  0  0  0
  5 24  1  0  0  0  0
  6 11  1  0  0  0  0
  6  7  2  0  0  0  0
  7  8  1  0  0  0  0
  8  9  2  0  0  0  0
  8 39  1  0  0  0  0
  9 10  1  0  0  0  0
 10 14  1  0  0  0  0
 10 11  2  0  0  0  0
 11 12  1  0  0  0  0
 12 13  2  0  0  0  0
 13 14  1  0  0  0  0
 13 40  1  0  0  0  0
 14 15  1  0  0  0  0
 15 16  1  0  0  0  0
 15 41  1  0  0  0  0
 15 42  1  0  0  0  0
 16 17  1  0  0  0  0
 16 19  1  0  0  0  0
 16 43  1  0  0  0  0
 17 18  1  0  0  0  0
 17 44  1  0  0  0  0
 17 45  1  0  0  0  0
 18 46  1  0  0  0  0
 19 23  1  0  0  0  0
 19 20  1  0  0  0  0
 19 47  1  0  0  0  0
 20 21  1  0  0  0  0
 20 48  1  0  0  0  0
 20 49  1  0  0  0  0
 21 22  1  0  0  0  0
 21 50  1  0  0  0  0
 21 51  1  0  0  0  0
 22 23  1  0  0  0  0
 23 52  1  0  0  0  0
 23 53  1  0  0  0  0
 24 25  1  0  0  0  0
 24 54  1  0  0  0  0
 24 55  1  0  0  0  0
 25 30  1  0  0  0  0
 25 26  1  0  0  0  0
 26 27  1  0  0  0  0
 26 56  1  0  0  0  0
 26 57  1  0  0  0  0
 27 28  1  0  0  0  0
 27 58  1  0  0  0  0
 27 59  1  0  0  0  0
 28 29  1  0  0  0  0
 28 60  1  0  0  0  0
 28 61  1  0  0  0  0
 29 30  1  0  0  0  0
 29 62  1  0  0  0  0
 29 63  1  0  0  0  0
 30 64  1  0  0  0  0
 30 65  1  0  0  0  0
M  END
> <s_m_source_file>
AV-unprocessed.smi

> <i_m_source_file_index>
275

> <i_lp_mmshare_version>
43012

> <i_f3d_flags>
0

> <s_epik_input>
W0NIMl0xW0NIMl1bQ0gyXVtDSDJdW0NIMl1DMTJbQ0BIXShbQ0hdKFtDSDNdKVtDSDNdKU4oW0NIMl0yKWMobltjSF1uMyljKGMzNCluW2NIXW40W0NIMl1bQ0BIXShbQ0gyXVtPSF0pW0NAQEhdNVtDSDJdW0NIMl1PW0NIMl01

> <s_epik_cmdline>
J2VwaWtfcHl0aG9uJywgJy1waCcsICc3LjAnLCAnLXRuJywgJzgnLCAnLW1hJywgJzIwMCcsICctbWV0YWxfYmluZGluZycsICctaW1hZScsICc8aW5maWxlLm1hZT4nLCAnLW9tYWUnLCAnPG91dGZpbGUubWFlPic=

> <r_lp_tautomer_probability>
1

> <r_epik_Ionization_Penalty>
0.00375122

> <r_epik_Ionization_Penalty_Charging>
0

> <r_epik_Ionization_Penalty_Neutral>
0.00375122

> <r_epik_State_Penalty>
0.00260593

> <r_epik_Charging_Adjusted_Penalty>
0.00260593

> <i_epik_Tot_Q>
0

> <i_epik_Tot_abs_Q>
0

> <r_epik_Metal_State_Penalty>
-0

> <b_epik_Metal_Only>
0

> <s_lp_Force_Field>
OPLS_2005

> <r_lp_Energy>
68.7999

> <b_lp_Chiralities_Consistent>
1

> <s_lp_Variant>
AV-unprocessed.smi:275-8

> <Gold.Version>
5.8.1

> <Gold.Id.Protein>
6NUR|6NUR_protein|mol2

> <Gold.PLP.Fitness>
43.2520

> <Gold.PLP.PLP>
-39.8574

> <Gold.PLP.part.hbond>
-2.0000

> <Gold.PLP.part.metal>
0.0000

> <Gold.PLP.part.buried>
-3.2767

> <Gold.PLP.part.nonpolar>
-35.0292

> <Gold.PLP.part.repulsive>
0.4610

> <Gold.PLP.ligand.clash>
0.0000

> <Gold.PLP.ligand.torsion>
2.7157

> <Gold.PLP.Chemscore.Hbond>
1.7840

> <Gold.PLP.Chemscore.CHOScore>
0.9982

> <Gold.PLP.Chemscore.Metal>
0.0000

> <Gold.Chemscore.Hbonds>
donor molecule, donor type, donor heavy atom, donor atom, acceptor molecule, acceptor atom, score
      L1  H    18    46       P1 10171  1.00
      P1  H  7954  7966       L1    18  0.79
      L1  C    13    40       P1 10175  0.64

> <Gold.PLP.Chemscore.Internal.Correction>
0.4795

> <Gold.Rescore>
     Score         DG    S(hbond)    S(metal)    S(lipo)     H(rot)  DE(clash)    DE(int)     intcor
     14.37     -18.67       1.89        0.00     114.25       2.54       0.30       4.00       ----

> <Gold.Chemscore.Fitness>
14.3742

> <Gold.Chemscore.DG>
-18.6737

> <Gold.Chemscore.ZeroCoef>
-5.4800

> <Gold.Chemscore.Hbond>
1.8931

> <Gold.Chemscore.Metal>
0.0000

> <Gold.Chemscore.Lipo>
114.2503

> <Gold.Chemscore.Internal_Hbond>
0.0000

> <Gold.Chemscore.DEClash>
0.3005

> <Gold.Chemscore.DEInternal>
3.9991

> <Gold.Chemscore.Rot>
2.5377

> <Gold.Chemscore.Internal.Correction>
   9.000000E+99

> <Gold.Chemscore.Hbonds>
donor molecule, donor type, donor heavy atom, donor atom, acceptor molecule, acceptor atom, score
      L1  H    18    46       P1 10171  0.96
      P1  H  7954  7966       L1    18  0.37

> <Gold.Chemscore.Hbond.Weighted>
-6.3230

> <Gold.Chemscore.Metal.Weighted>
-0.0000

> <Gold.Chemscore.Lipo.Weighted>
-13.3673

> <Gold.Chemscore.Internal_Hbond.Weighted>
0.0000

> <Gold.Chemscore.DEClash.Weighted>
0.3005

> <Gold.Chemscore.DEInternal.Weighted>
3.9991

> <Gold.Chemscore.Rot.Weighted>
6.4966

> <Gold.Chemscore.Internal.Correction.Weighted>
   9.000000E+99

> <Gold.Protein.RotatedTorsions>
[ 6907 6896 6895 6894 ] final  -81.13 input  -60.11 | X-H torsion
[ 7974 7965 7964 7962 ] final -109.24 input  175.53 | X-H torsion
[ 8008 7997 7996 7995 ] final  142.09 input   59.86 | X-H torsion
[ 10167 10162 10161 10158 ] final  -27.19 input  -65.29 | X-H torsion
[ 10718 10713 10712 10709 ] final -132.11 input   66.30 | X-H torsion
[ 10763 10752 10751 10750 ] final   48.37 input  -60.55 | X-H torsion
[ 11005 11000 10999 10996 ] final  118.83 input  -57.11 | X-H torsion

> <Gold.Protein.ActiveResidues>
 VAL166  LYS551  ARG553  GLY616  TRP617  ASP618  TYR619  PRO620  LYS621  CYS622 
 ASP623  PHE694  ASN695  SER759  ASP760  ASP761  ALA762  ILE779  LEU786  VAL792 
 PHE793  MET794  SER795  GLU796  ALA797  LYS798  CYS799  TRP800  GLU811  SER814 

> <Gold.Protein.RotatedAtoms>
  150.6917  134.3864  159.5056 H   0  0  0  0  0  0  0  0  0  0  0  0  # atno 6907 bound_to 6896
  152.1659  134.8871  160.0547 H   0  0  0  0  0  0  0  0  0  0  0  0  # atno 6908 bound_to 6896
  151.9916  133.3758  159.4183 H   0  0  0  0  0  0  0  0  0  0  0  0  # atno 6909 bound_to 6896
  145.1830  140.8980  143.3469 H   0  0  0  0  0  0  0  0  0  0  0  0  # atno 7974 bound_to 7965
  156.2955  140.2298  156.4672 H   0  0  0  0  0  0  0  0  0  0  0  0  # atno 8008 bound_to 7997
  154.7967  140.0451  157.1263 H   0  0  0  0  0  0  0  0  0  0  0  0  # atno 8009 bound_to 7997
  154.9581  140.3051  155.5047 H   0  0  0  0  0  0  0  0  0  0  0  0  # atno 8010 bound_to 7997
  140.7279  143.4114  151.1099 H   0  0  0  0  0  0  0  0  0  0  0  0  # atno 10167 bound_to 10162
  156.2312  130.7039  151.0860 H   0  0  0  0  0  0  0  0  0  0  0  0  # atno 10718 bound_to 10713
  152.9792  135.5946  154.3914 H   0  0  0  0  0  0  0  0  0  0  0  0  # atno 10763 bound_to 10752
  154.3569  135.2767  155.2343 H   0  0  0  0  0  0  0  0  0  0  0  0  # atno 10764 bound_to 10752
  154.4357  135.6025  153.6152 H   0  0  0  0  0  0  0  0  0  0  0  0  # atno 10765 bound_to 10752
  139.9124  134.9623  156.7562 H   0  0  0  0  0  0  0  0  0  0  0  0  # atno 11005 bound_to 11000
  145.0117  139.3504  143.6116 LP  0  0  0  0  0  0  0  0  0  0  0  0  # atno 17320 bound_to 7965
  146.3450  139.9382  142.8744 LP  0  0  0  0  0  0  0  0  0  0  0  0  # atno 17321 bound_to 7965
  139.7748  143.8441  152.3127 LP  0  0  0  0  0  0  0  0  0  0  0  0  # atno 17342 bound_to 10162
  139.8372  144.7227  150.9376 LP  0  0  0  0  0  0  0  0  0  0  0  0  # atno 17343 bound_to 10162
  157.7134  131.0722  150.6418 LP  0  0  0  0  0  0  0  0  0  0  0  0  # atno 17370 bound_to 10713
  156.6485  130.4478  149.5727 LP  0  0  0  0  0  0  0  0  0  0  0  0  # atno 17371 bound_to 10713
  140.6734  133.9539  155.7869 LP  0  0  0  0  0  0  0  0  0  0  0  0  # atno 17394 bound_to 11000
  141.0562  134.0413  157.3720 LP  0  0  0  0  0  0  0  0  0  0  0  0  # atno 17395 bound_to 11000

$$$$
