AV-unprocessed.smi:1046|AV-procd|sdf|4556|dock2
  -GOLD-   22720 2593D 1   1.00000     0.00000
 Structure written by MMmdl.
 54 56  0  0  0  0  0  0  0  0  3 V2000
  153.1514  142.9315  160.8377 C   0  0  0  0  0  0  0  0  0  0  0  0
  152.2801  142.5412  159.6569 C   0  0  0  0  0  0  0  0  0  0  0  0
  151.9435  141.1814  159.4718 C   0  0  0  0  0  0  0  0  0  0  0  0
  151.1338  140.7767  158.3883 C   0  0  0  0  0  0  0  0  0  0  0  0
  150.6799  139.5206  158.0247 N   0  0  0  0  0  0  0  0  0  0  0  0
  149.9692  139.7960  156.9355 C   0  0  0  0  0  0  0  0  0  0  0  0
  149.8995  141.0862  156.5550 N   0  0  0  0  0  0  0  0  0  0  0  0
  149.1749  141.6210  155.4169 C   0  0  0  0  0  0  0  0  0  0  0  0
  148.6403  140.5153  154.4852 C   0  0  2  0  0  0  0  0  0  0  0  0
  149.6968  140.1200  153.6341 O   0  0  0  0  0  0  0  0  0  0  0  0
  147.4424  140.9626  153.6180 C   0  0  0  0  0  0  0  0  0  0  0  0
  146.3694  139.9371  153.5480 N   0  3  2  0  0  0  0  0  0  0  0  0
  145.9893  139.4308  154.8904 C   0  0  0  0  0  0  0  0  0  0  0  0
  144.8120  138.4420  154.7992 C   0  0  0  0  0  0  0  0  0  0  0  0
  145.1114  137.3125  153.8844 N   0  3  2  0  0  0  0  0  0  0  0  0
  146.0206  136.2933  154.4750 C   0  0  0  0  0  0  0  0  0  0  0  0
  146.2075  135.0719  153.5591 C   0  0  0  0  0  0  0  0  0  0  0  0
  147.5037  134.5380  153.7267 O   0  0  0  0  0  0  0  0  0  0  0  0
  145.5169  137.8072  152.5425 C   0  0  0  0  0  0  0  0  0  0  0  0
  146.6791  138.8195  152.6177 C   0  0  0  0  0  0  0  0  0  0  0  0
  150.6666  141.7778  157.4871 C   0  0  0  0  0  0  0  0  0  0  0  0
  150.9979  143.1336  157.6583 C   0  0  0  0  0  0  0  0  0  0  0  0
  151.8074  143.5205  158.7468 C   0  0  0  0  0  0  0  0  0  0  0  0
  152.1585  144.9870  158.9250 C   0  0  0  0  0  0  0  0  0  0  0  0
  153.3912  142.0681  161.4588 H   0  0  0  0  0  0  0  0  0  0  0  0
  152.6410  143.6622  161.4653 H   0  0  0  0  0  0  0  0  0  0  0  0
  154.0893  143.3665  160.4921 H   0  0  0  0  0  0  0  0  0  0  0  0
  152.3056  140.4353  160.1639 H   0  0  0  0  0  0  0  0  0  0  0  0
  149.4631  139.0156  156.3859 H   0  0  0  0  0  0  0  0  0  0  0  0
  148.3570  142.2411  155.7864 H   0  0  0  0  0  0  0  0  0  0  0  0
  149.8451  142.2856  154.8694 H   0  0  0  0  0  0  0  0  0  0  0  0
  148.3660  139.6568  155.0975 H   0  0  0  0  0  0  0  0  0  0  0  0
  149.3855  140.1229  152.7412 H   0  0  0  0  0  0  0  0  0  0  0  0
  147.0092  141.8907  153.9922 H   0  0  0  0  0  0  0  0  0  0  0  0
  147.8090  141.1835  152.6142 H   0  0  0  0  0  0  0  0  0  0  0  0
  146.8515  138.9552  155.3604 H   0  0  0  0  0  0  0  0  0  0  0  0
  145.7030  140.2671  155.5295 H   0  0  0  0  0  0  0  0  0  0  0  0
  144.5426  138.0709  155.7887 H   0  0  0  0  0  0  0  0  0  0  0  0
  143.9311  138.9636  154.4225 H   0  0  0  0  0  0  0  0  0  0  0  0
  146.9880  136.7383  154.7072 H   0  0  0  0  0  0  0  0  0  0  0  0
  145.6158  135.9452  155.4265 H   0  0  0  0  0  0  0  0  0  0  0  0
  145.4638  134.2980  153.7450 H   0  0  0  0  0  0  0  0  0  0  0  0
  146.0949  135.3728  152.5172 H   0  0  0  0  0  0  0  0  0  0  0  0
  148.0930  134.9817  153.1346 H   0  0  0  0  0  0  0  0  0  0  0  0
  145.7762  136.9797  151.8832 H   0  0  0  0  0  0  0  0  0  0  0  0
  144.6515  138.2913  152.0877 H   0  0  0  0  0  0  0  0  0  0  0  0
  146.8705  139.2052  151.6170 H   0  0  0  0  0  0  0  0  0  0  0  0
  147.5963  138.3229  152.9365 H   0  0  0  0  0  0  0  0  0  0  0  0
  150.6323  143.8706  156.9589 H   0  0  0  0  0  0  0  0  0  0  0  0
  151.7514  145.5953  158.1168 H   0  0  0  0  0  0  0  0  0  0  0  0
  153.2402  145.1238  158.9332 H   0  0  0  0  0  0  0  0  0  0  0  0
  151.7549  145.3636  159.8651 H   0  0  0  0  0  0  0  0  0  0  0  0
  145.5542  140.4102  153.1831 H   0  0  0  0  0  0  0  0  0  0  0  0
  144.2347  136.8247  153.7582 H   0  0  0  0  0  0  0  0  0  0  0  0
  1  2  1  0  0  0  0
  1 25  1  0  0  0  0
  1 26  1  0  0  0  0
  1 27  1  0  0  0  0
  2 23  1  0  0  0  0
  2  3  2  0  0  0  0
  3  4  1  0  0  0  0
  3 28  1  0  0  0  0
  4 21  2  0  0  0  0
  4  5  1  0  0  0  0
  5  6  2  0  0  0  0
  6  7  1  0  0  0  0
  6 29  1  0  0  0  0
  7  8  1  0  0  0  0
  7 21  1  0  0  0  0
  8  9  1  0  0  0  0
  8 30  1  0  0  0  0
  8 31  1  0  0  0  0
  9 10  1  0  0  0  0
  9 11  1  0  0  0  0
  9 32  1  0  0  0  0
 10 33  1  0  0  0  0
 11 12  1  0  0  0  0
 11 34  1  0  0  0  0
 11 35  1  0  0  0  0
 12 20  1  0  0  0  0
 12 13  1  0  0  0  0
 12 53  1  0  0  0  0
 13 14  1  0  0  0  0
 13 36  1  0  0  0  0
 13 37  1  0  0  0  0
 14 15  1  0  0  0  0
 14 38  1  0  0  0  0
 14 39  1  0  0  0  0
 15 16  1  0  0  0  0
 15 19  1  0  0  0  0
 15 54  1  0  0  0  0
 16 17  1  0  0  0  0
 16 40  1  0  0  0  0
 16 41  1  0  0  0  0
 17 18  1  0  0  0  0
 17 42  1  0  0  0  0
 17 43  1  0  0  0  0
 18 44  1  0  0  0  0
 19 20  1  0  0  0  0
 19 45  1  0  0  0  0
 19 46  1  0  0  0  0
 20 47  1  0  0  0  0
 20 48  1  0  0  0  0
 21 22  1  0  0  0  0
 22 23  2  0  0  0  0
 22 49  1  0  0  0  0
 23 24  1  0  0  0  0
 24 50  1  0  0  0  0
 24 51  1  0  0  0  0
 24 52  1  0  0  0  0
M  CHG  1  12   1
M  CHG  1  15   1
M  END
> <s_m_source_file>
AV-unprocessed.smi

> <i_m_source_file_index>
1046

> <i_lp_mmshare_version>
43012

> <i_f3d_flags>
0

> <s_epik_input>
W0NIM11jKFtjSF0xKWMoW0NIM10pW2NIXWMoYzEyKW4oW2NIXW4yKVtDSDJdW0NASF0oW09IXSlbQ0gyXU4zW0NIMl1bQ0gyXU4oW0NIMl1bQ0gyXTMpW0NIMl1bQ0gyXVtPSF0=

> <s_epik_cmdline>
J2VwaWtfcHl0aG9uJywgJy1waCcsICc3LjAnLCAnLXRuJywgJzgnLCAnLW1hJywgJzIwMCcsICctbWV0YWxfYmluZGluZycsICctaW1hZScsICc8aW5maWxlLm1hZT4nLCAnLW9tYWUnLCAnPG91dGZpbGUubWFlPic=

> <r_epik_Ionization_Penalty>
3.17398

> <r_epik_Ionization_Penalty_Charging>
3.09061

> <r_epik_Ionization_Penalty_Neutral>
0.0833726

> <r_epik_State_Penalty>
2.17606

> <r_epik_Charging_Adjusted_Penalty>
5.26667

> <i_epik_Tot_Q>
2

> <i_epik_Tot_abs_Q>
2

> <r_epik_Metal_State_Penalty>
2.08587

> <b_epik_Metal_Only>
0

> <s_lp_Force_Field>
OPLS_2005

> <r_lp_Energy>
31.2877

> <b_lp_Chiralities_Consistent>
1

> <s_lp_Variant>
AV-unprocessed.smi:1046-9

> <Gold.Version>
5.8.1

> <Gold.Id.Protein>
6NUR|6NUR_protein|mol2

> <Gold.PLP.Fitness>
55.5988

> <Gold.PLP.PLP>
-44.3071

> <Gold.PLP.part.hbond>
-3.5959

> <Gold.PLP.part.metal>
0.0000

> <Gold.PLP.part.buried>
-4.8099

> <Gold.PLP.part.nonpolar>
-37.5379

> <Gold.PLP.part.repulsive>
0.0000

> <Gold.PLP.ligand.clash>
0.0000

> <Gold.PLP.ligand.torsion>
1.2448

> <Gold.PLP.Chemscore.Hbond>
4.5000

> <Gold.PLP.Chemscore.CHOScore>
0.0000

> <Gold.PLP.Chemscore.Metal>
0.0000

> <Gold.Chemscore.Hbonds>
donor molecule, donor type, donor heavy atom, donor atom, acceptor molecule, acceptor atom, score
      L1  H    10    33       P1  7957  1.00
      L1  H    12    53       P1 10175  2.00
      L1  H    18    44       P1  7948  1.00
      P1  H  7989  7998       L1    10  0.62

> <Gold.PLP.Chemscore.Internal.Correction>
0.2813

> <Gold.Rescore>
     Score         DG    S(hbond)    S(metal)    S(lipo)     H(rot)  DE(clash)    DE(int)     intcor
     19.78     -21.25       3.10        0.00     118.05       3.28       0.04       1.43       ----

> <Gold.Chemscore.Fitness>
19.7830

> <Gold.Chemscore.DG>
-21.2524

> <Gold.Chemscore.ZeroCoef>
-5.4800

> <Gold.Chemscore.Hbond>
3.1032

> <Gold.Chemscore.Metal>
0.0000

> <Gold.Chemscore.Lipo>
118.0469

> <Gold.Chemscore.Internal_Hbond>
0.0000

> <Gold.Chemscore.DEClash>
0.0434

> <Gold.Chemscore.DEInternal>
1.4260

> <Gold.Chemscore.Rot>
3.2828

> <Gold.Chemscore.Internal.Correction>
   9.000000E+99

> <Gold.Chemscore.Hbonds>
donor molecule, donor type, donor heavy atom, donor atom, acceptor molecule, acceptor atom, score
      L1  H    10    33       P1  7957  0.95
      L1  H    12    53       P1 10175  0.90
      L1  H    18    44       P1  7948  0.95
      P1  H  7989  7998       L1    10  0.24

> <Gold.Chemscore.Hbond.Weighted>
-10.3648

> <Gold.Chemscore.Metal.Weighted>
-0.0000

> <Gold.Chemscore.Lipo.Weighted>
-13.8115

> <Gold.Chemscore.Internal_Hbond.Weighted>
0.0000

> <Gold.Chemscore.DEClash.Weighted>
0.0434

> <Gold.Chemscore.DEInternal.Weighted>
1.4260

> <Gold.Chemscore.Rot.Weighted>
8.4039

> <Gold.Chemscore.Internal.Correction.Weighted>
   9.000000E+99

> <Gold.Protein.RotatedTorsions>
[ 6907 6896 6895 6894 ] final  122.32 input  -60.11 | X-H torsion
[ 7974 7965 7964 7962 ] final   99.71 input  175.53 | X-H torsion
[ 8008 7997 7996 7995 ] final   36.50 input   59.86 | X-H torsion
[ 10167 10162 10161 10158 ] final -111.03 input  -65.29 | X-H torsion
[ 10718 10713 10712 10709 ] final    3.42 input   66.30 | X-H torsion
[ 10763 10752 10751 10750 ] final  -32.64 input  -60.55 | X-H torsion
[ 11005 11000 10999 10996 ] final -131.39 input  -57.11 | X-H torsion

> <Gold.Protein.ActiveResidues>
 VAL166  LYS551  ARG553  GLY616  TRP617  ASP618  TYR619  PRO620  LYS621  CYS622 
 ASP623  PHE694  ASN695  SER759  ASP760  ASP761  ALA762  ILE779  LEU786  VAL792 
 PHE793  MET794  SER795  GLU796  ALA797  LYS798  CYS799  TRP800  GLU811  SER814 

> <Gold.Protein.RotatedAtoms>
  152.4252  133.7183  159.6518 H   0  0  0  0  0  0  0  0  0  0  0  0  # atno 6907 bound_to 6896
  150.8128  133.8380  159.3180 H   0  0  0  0  0  0  0  0  0  0  0  0  # atno 6908 bound_to 6896
  151.6085  135.1044  160.0127 H   0  0  0  0  0  0  0  0  0  0  0  0  # atno 6909 bound_to 6896
  145.3952  139.2356  143.3330 H   0  0  0  0  0  0  0  0  0  0  0  0  # atno 7974 bound_to 7965
  155.1885  140.3306  155.4363 H   0  0  0  0  0  0  0  0  0  0  0  0  # atno 8008 bound_to 7997
  156.2451  140.1914  156.6929 H   0  0  0  0  0  0  0  0  0  0  0  0  # atno 8009 bound_to 7997
  154.6222  140.0594  156.9615 H   0  0  0  0  0  0  0  0  0  0  0  0  # atno 8010 bound_to 7997
  140.1380  143.4303  152.1582 H   0  0  0  0  0  0  0  0  0  0  0  0  # atno 10167 bound_to 10162
  156.8775  130.5642  149.5654 H   0  0  0  0  0  0  0  0  0  0  0  0  # atno 10718 bound_to 10713
  153.8171  135.6877  153.4832 H   0  0  0  0  0  0  0  0  0  0  0  0  # atno 10763 bound_to 10752
  153.1592  135.4587  154.9746 H   0  0  0  0  0  0  0  0  0  0  0  0  # atno 10764 bound_to 10752
  154.7943  135.3313  154.7647 H   0  0  0  0  0  0  0  0  0  0  0  0  # atno 10765 bound_to 10752
  140.9262  134.1379  157.4273 H   0  0  0  0  0  0  0  0  0  0  0  0  # atno 11005 bound_to 11000
  146.2778  140.4641  142.8788 LP  0  0  0  0  0  0  0  0  0  0  0  0  # atno 17320 bound_to 7965
  144.8412  140.6860  143.6228 LP  0  0  0  0  0  0  0  0  0  0  0  0  # atno 17321 bound_to 7965
  139.5486  144.7319  151.4505 LP  0  0  0  0  0  0  0  0  0  0  0  0  # atno 17342 bound_to 10162
  140.6777  143.8152  150.7080 LP  0  0  0  0  0  0  0  0  0  0  0  0  # atno 17343 bound_to 10162
  156.0694  130.5730  150.9354 LP  0  0  0  0  0  0  0  0  0  0  0  0  # atno 17370 bound_to 10713
  157.6160  131.0933  150.8710 LP  0  0  0  0  0  0  0  0  0  0  0  0  # atno 17371 bound_to 10713
  139.8786  134.9989  156.5926 LP  0  0  0  0  0  0  0  0  0  0  0  0  # atno 17394 bound_to 11000
  140.7922  133.8573  155.8656 LP  0  0  0  0  0  0  0  0  0  0  0  0  # atno 17395 bound_to 11000

$$$$
