AV-unprocessed.smi:1992|AV-procd|sdf|8069|dock2
  -GOLD-   2272010273D 1   1.00000     0.00000
 Structure written by MMmdl.
 46 47  0  0  0  0  0  0  0  0  2 V2000
  152.4834  140.2950  158.2063 C   0  0  0  0  0  0  0  0  0  0  0  0
  152.5112  140.2495  156.7839 O   0  0  0  0  0  0  0  0  0  0  0  0
  151.8491  139.2189  156.1486 C   0  0  0  0  0  0  0  0  0  0  0  0
  151.6532  138.0113  156.8473 C   0  0  0  0  0  0  0  0  0  0  0  0
  150.9803  136.9567  156.2025 C   0  0  0  0  0  0  0  0  0  0  0  0
  150.5131  137.1411  154.8857 C   0  0  0  0  0  0  0  0  0  0  0  0
  149.8544  136.0527  154.2532 N   0  0  0  0  0  0  0  0  0  0  0  0
  149.7347  134.7854  154.6838 C   0  0  0  0  0  0  0  0  0  0  0  0
  150.2176  134.3373  155.7229 O   0  0  0  0  0  0  0  0  0  0  0  0
  149.0330  134.0446  153.8147 N   0  0  0  0  0  0  0  0  0  0  0  0
  148.7204  132.6238  153.9669 C   0  0  0  0  0  0  0  0  0  0  0  0
  147.2204  132.2847  153.6938 C   0  0  0  0  0  0  0  0  0  0  0  0
  146.9810  132.2370  152.2062 N   0  3  0  0  0  0  0  0  0  0  0  0
  147.0317  133.5626  151.5380 C   0  0  0  0  0  0  0  0  0  0  0  0
  145.8006  131.4628  151.7456 C   0  0  0  0  0  0  0  0  0  0  0  0
  146.8327  130.9808  154.4389 C   0  0  0  0  0  0  0  0  0  0  0  0
  146.6630  131.3792  155.9087 C   0  0  0  0  0  0  0  0  0  0  0  0
  146.2680  132.8623  155.8905 C   0  0  0  0  0  0  0  0  0  0  0  0
  146.3136  133.3018  154.4194 C   0  0  0  0  0  0  0  0  0  0  0  0
  150.7689  138.3882  154.2646 C   0  0  0  0  0  0  0  0  0  0  0  0
  151.4164  139.4023  154.8768 N   0  0  0  0  0  0  0  0  0  0  0  0
  153.0452  141.1632  158.5506 H   0  0  0  0  0  0  0  0  0  0  0  0
  152.9452  139.4080  158.6428 H   0  0  0  0  0  0  0  0  0  0  0  0
  151.4638  140.3905  158.5828 H   0  0  0  0  0  0  0  0  0  0  0  0
  152.0150  137.8953  157.8583 H   0  0  0  0  0  0  0  0  0  0  0  0
  150.8230  136.0203  156.7174 H   0  0  0  0  0  0  0  0  0  0  0  0
  149.4736  136.2519  153.3398 H   0  0  0  0  0  0  0  0  0  0  0  0
  148.6645  134.5055  152.9956 H   0  0  0  0  0  0  0  0  0  0  0  0
  149.3879  132.0218  153.3492 H   0  0  0  0  0  0  0  0  0  0  0  0
  148.9875  132.3538  154.9881 H   0  0  0  0  0  0  0  0  0  0  0  0
  146.1827  134.1849  151.8224 H   0  0  0  0  0  0  0  0  0  0  0  0
  147.0056  133.4437  150.4543 H   0  0  0  0  0  0  0  0  0  0  0  0
  147.9469  134.1050  151.7694 H   0  0  0  0  0  0  0  0  0  0  0  0
  144.8802  131.8135  152.2128 H   0  0  0  0  0  0  0  0  0  0  0  0
  145.9204  130.3988  151.9483 H   0  0  0  0  0  0  0  0  0  0  0  0
  145.6780  131.5511  150.6656 H   0  0  0  0  0  0  0  0  0  0  0  0
  145.8610  130.6029  154.1257 H   0  0  0  0  0  0  0  0  0  0  0  0
  147.5438  130.1672  154.3026 H   0  0  0  0  0  0  0  0  0  0  0  0
  145.9157  130.7628  156.4095 H   0  0  0  0  0  0  0  0  0  0  0  0
  147.6022  131.2481  156.4477 H   0  0  0  0  0  0  0  0  0  0  0  0
  145.2777  133.0232  156.3179 H   0  0  0  0  0  0  0  0  0  0  0  0
  146.9754  133.4417  156.4850 H   0  0  0  0  0  0  0  0  0  0  0  0
  146.6550  134.3321  154.3140 H   0  0  0  0  0  0  0  0  0  0  0  0
  145.3009  133.2607  154.0168 H   0  0  0  0  0  0  0  0  0  0  0  0
  150.4754  138.5914  153.2467 H   0  0  0  0  0  0  0  0  0  0  0  0
  147.7707  131.7251  151.8398 H   0  0  0  0  0  0  0  0  0  0  0  0
  1  2  1  0  0  0  0
  1 22  1  0  0  0  0
  1 23  1  0  0  0  0
  1 24  1  0  0  0  0
  2  3  1  0  0  0  0
  3 21  1  0  0  0  0
  3  4  2  0  0  0  0
  4  5  1  0  0  0  0
  4 25  1  0  0  0  0
  5  6  2  0  0  0  0
  5 26  1  0  0  0  0
  6  7  1  0  0  0  0
  6 20  1  0  0  0  0
  7  8  1  0  0  0  0
  7 27  1  0  0  0  0
  8  9  2  0  0  0  0
  8 10  1  0  0  0  0
 10 11  1  0  0  0  0
 10 28  1  0  0  0  0
 11 12  1  0  0  0  0
 11 29  1  0  0  0  0
 11 30  1  0  0  0  0
 12 19  1  0  0  0  0
 12 13  1  0  0  0  0
 12 16  1  0  0  0  0
 13 14  1  0  0  0  0
 13 15  1  0  0  0  0
 13 46  1  0  0  0  0
 14 31  1  0  0  0  0
 14 32  1  0  0  0  0
 14 33  1  0  0  0  0
 15 34  1  0  0  0  0
 15 35  1  0  0  0  0
 15 36  1  0  0  0  0
 16 17  1  0  0  0  0
 16 37  1  0  0  0  0
 16 38  1  0  0  0  0
 17 18  1  0  0  0  0
 17 39  1  0  0  0  0
 17 40  1  0  0  0  0
 18 19  1  0  0  0  0
 18 41  1  0  0  0  0
 18 42  1  0  0  0  0
 19 43  1  0  0  0  0
 19 44  1  0  0  0  0
 20 21  2  0  0  0  0
 20 45  1  0  0  0  0
M  CHG  1  13   1
M  END
> <s_m_source_file>
AV-unprocessed.smi

> <i_m_source_file_index>
1992

> <i_lp_mmshare_version>
43012

> <i_f3d_flags>
0

> <s_epik_input>
W0NIM11PYzFbY0hdW2NIXWMoW2NIXW4xKVtOSF1DKD1PKVtOSF1bQ0gyXUMyKE4oW0NIM10pW0NIM10pW0NIMl1bQ0gyXVtDSDJdW0NIMl0y

> <s_epik_cmdline>
J2VwaWtfcHl0aG9uJywgJy1waCcsICc3LjAnLCAnLXRuJywgJzgnLCAnLW1hJywgJzIwMCcsICctbWV0YWxfYmluZGluZycsICctaW1hZScsICc8aW5maWxlLm1hZT4nLCAnLW9tYWUnLCAnPG91dGZpbGUubWFlPic=

> <r_lp_tautomer_probability>
1

> <r_epik_Ionization_Penalty>
0.00219675

> <r_epik_Ionization_Penalty_Charging>
0.00211816

> <r_epik_Ionization_Penalty_Neutral>
7.85887e-05

> <r_epik_State_Penalty>
0.00145254

> <r_epik_Charging_Adjusted_Penalty>
0.0035707

> <i_epik_Tot_Q>
1

> <i_epik_Tot_abs_Q>
1

> <r_epik_Metal_State_Penalty>
-0

> <b_epik_Metal_Only>
0

> <s_lp_Force_Field>
OPLS_2005

> <r_lp_Energy>
46.5796

> <b_lp_Chiralities_Consistent>
1

> <s_lp_Variant>
AV-unprocessed.smi:1992-1

> <Gold.Version>
5.8.1

> <Gold.Id.Protein>
6NUR|6NUR_protein|mol2

> <Gold.PLP.Fitness>
41.5730

> <Gold.PLP.PLP>
-27.7732

> <Gold.PLP.part.hbond>
-5.9746

> <Gold.PLP.part.metal>
0.0000

> <Gold.PLP.part.buried>
-0.6733

> <Gold.PLP.part.nonpolar>
-19.5222

> <Gold.PLP.part.repulsive>
0.1517

> <Gold.PLP.ligand.clash>
0.0000

> <Gold.PLP.ligand.torsion>
1.1456

> <Gold.PLP.Chemscore.Hbond>
4.6120

> <Gold.PLP.Chemscore.CHOScore>
0.6792

> <Gold.PLP.Chemscore.Metal>
0.0000

> <Gold.Chemscore.Hbonds>
donor molecule, donor type, donor heavy atom, donor atom, acceptor molecule, acceptor atom, score
      L1  H     7    27       P1  7948  1.00
      L1  H    10    28       P1  7948  0.66
      L1  H    13    46       P1 10747  0.68
      P1  H  7989  7998       L1    21  1.00
      P1  H  7997  8010       L1     2  1.00
      L1  C    20    45       P1  7957  0.67

> <Gold.PLP.Chemscore.Internal.Correction>
0.2176

> <Gold.Rescore>
     Score         DG    S(hbond)    S(metal)    S(lipo)     H(rot)  DE(clash)    DE(int)     intcor
     13.47     -17.18       2.69        0.00      60.53       1.71       0.89       2.82       ----

> <Gold.Chemscore.Fitness>
13.4698

> <Gold.Chemscore.DG>
-17.1798

> <Gold.Chemscore.ZeroCoef>
-5.4800

> <Gold.Chemscore.Hbond>
2.6949

> <Gold.Chemscore.Metal>
0.0000

> <Gold.Chemscore.Lipo>
60.5292

> <Gold.Chemscore.Internal_Hbond>
0.0000

> <Gold.Chemscore.DEClash>
0.8894

> <Gold.Chemscore.DEInternal>
2.8206

> <Gold.Chemscore.Rot>
1.7122

> <Gold.Chemscore.Internal.Correction>
   9.000000E+99

> <Gold.Chemscore.Hbonds>
donor molecule, donor type, donor heavy atom, donor atom, acceptor molecule, acceptor atom, score
      L1  H     7    27       P1  7948  0.52
      L1  H    10    28       P1  7948  0.11
      L1  H    13    46       P1 10747  0.67
      P1  H  7989  7998       L1    21  0.57
      P1  H  7997  8010       L1     2  0.25

> <Gold.Chemscore.Hbond.Weighted>
-9.0010

> <Gold.Chemscore.Metal.Weighted>
-0.0000

> <Gold.Chemscore.Lipo.Weighted>
-7.0819

> <Gold.Chemscore.Internal_Hbond.Weighted>
0.0000

> <Gold.Chemscore.DEClash.Weighted>
0.8894

> <Gold.Chemscore.DEInternal.Weighted>
2.8206

> <Gold.Chemscore.Rot.Weighted>
4.3831

> <Gold.Chemscore.Internal.Correction.Weighted>
   9.000000E+99

> <Gold.Protein.RotatedTorsions>
[ 6907 6896 6895 6894 ] final   37.61 input  -60.11 | X-H torsion
[ 7974 7965 7964 7962 ] final   93.30 input  175.53 | X-H torsion
[ 8008 7997 7996 7995 ] final   72.92 input   59.86 | X-H torsion
[ 10167 10162 10161 10158 ] final   46.72 input  -65.29 | X-H torsion
[ 10718 10713 10712 10709 ] final   39.02 input   66.30 | X-H torsion
[ 10763 10752 10751 10750 ] final  124.21 input  -60.55 | X-H torsion
[ 11005 11000 10999 10996 ] final    5.92 input  -57.11 | X-H torsion

> <Gold.Protein.ActiveResidues>
 VAL166  LYS551  ARG553  GLY616  TRP617  ASP618  TYR619  PRO620  LYS621  CYS622 
 ASP623  PHE694  ASN695  SER759  ASP760  ASP761  ALA762  ILE779  LEU786  VAL792 
 PHE793  MET794  SER795  GLU796  ALA797  LYS798  CYS799  TRP800  GLU811  SER814 

> <Gold.Protein.RotatedAtoms>
  152.1454  134.9030  160.0551 H   0  0  0  0  0  0  0  0  0  0  0  0  # atno 6907 bound_to 6896
  152.0082  133.3846  159.4217 H   0  0  0  0  0  0  0  0  0  0  0  0  # atno 6908 bound_to 6896
  150.6869  134.3681  159.5024 H   0  0  0  0  0  0  0  0  0  0  0  0  # atno 6909 bound_to 6896
  145.4808  139.2278  143.2884 H   0  0  0  0  0  0  0  0  0  0  0  0  # atno 7974 bound_to 7965
  155.7760  140.3483  155.5272 H   0  0  0  0  0  0  0  0  0  0  0  0  # atno 8008 bound_to 7997
  155.8775  140.0996  157.1529 H   0  0  0  0  0  0  0  0  0  0  0  0  # atno 8009 bound_to 7997
  154.4022  140.1329  156.4142 H   0  0  0  0  0  0  0  0  0  0  0  0  # atno 8010 bound_to 7997
  140.3110  144.2821  150.6200 H   0  0  0  0  0  0  0  0  0  0  0  0  # atno 10167 bound_to 10162
  157.3656  130.7673  149.7080 H   0  0  0  0  0  0  0  0  0  0  0  0  # atno 10718 bound_to 10713
  153.6578  135.3351  155.3118 H   0  0  0  0  0  0  0  0  0  0  0  0  # atno 10763 bound_to 10752
  154.8522  135.4356  154.1836 H   0  0  0  0  0  0  0  0  0  0  0  0  # atno 10764 bound_to 10752
  153.2795  135.7007  153.7475 H   0  0  0  0  0  0  0  0  0  0  0  0  # atno 10765 bound_to 10752
  140.5653  134.0153  155.7987 H   0  0  0  0  0  0  0  0  0  0  0  0  # atno 11005 bound_to 11000
  146.2342  140.5594  142.8962 LP  0  0  0  0  0  0  0  0  0  0  0  0  # atno 17320 bound_to 7965
  144.7890  140.5994  143.6554 LP  0  0  0  0  0  0  0  0  0  0  0  0  # atno 17321 bound_to 7965
  140.5568  143.2198  151.7833 LP  0  0  0  0  0  0  0  0  0  0  0  0  # atno 17342 bound_to 10162
  139.4894  144.4402  151.9773 LP  0  0  0  0  0  0  0  0  0  0  0  0  # atno 17343 bound_to 10162
  155.9745  130.4101  150.3915 LP  0  0  0  0  0  0  0  0  0  0  0  0  # atno 17370 bound_to 10713
  157.1998  131.0435  151.2656 LP  0  0  0  0  0  0  0  0  0  0  0  0  # atno 17371 bound_to 10713
  141.1089  133.9648  157.2946 LP  0  0  0  0  0  0  0  0  0  0  0  0  # atno 17394 bound_to 11000
  139.9388  135.0193  156.8641 LP  0  0  0  0  0  0  0  0  0  0  0  0  # atno 17395 bound_to 11000

$$$$
