AV-unprocessed.smi:2118|AV-procd|sdf|8628|dock9
  -GOLD-   2272011373D 1   1.00000     0.00000
 Structure written by MMmdl.
 40 41  0  0  0  0  0  0  0  0  1 V2000
  153.7850  134.2657  165.0323 C   0  0  0  0  0  0  0  0  0  0  0  0
  154.6756  135.3994  164.5048 C   0  0  0  0  0  0  0  0  0  0  0  0
  153.8954  136.7174  164.3664 C   0  0  0  0  0  0  0  0  0  0  0  0
  154.7855  137.8441  163.8112 C   0  0  0  0  0  0  0  0  0  0  0  0
  155.4218  137.4532  162.5376 N   0  0  0  0  0  0  0  0  0  0  0  0
  154.6581  137.8958  161.0386 S   0  0  0  0  0  0  0  0  0  0  0  0
  155.5409  137.5217  159.9230 O   0  0  0  0  0  0  0  0  0  0  0  0
  153.2538  137.4590  161.0673 O   0  0  0  0  0  0  0  0  0  0  0  0
  154.6855  139.6107  161.1885 N   0  0  0  0  0  0  0  0  0  0  0  0
  153.4835  140.3620  160.8403 C   0  0  0  0  0  0  0  0  0  0  0  0
  153.8362  141.8325  160.5846 C   0  0  0  0  0  0  0  0  0  0  0  0
  152.9825  142.4436  159.4911 C   0  0  0  0  0  0  0  0  0  0  0  0
  153.2393  143.7458  159.0148 C   0  0  0  0  0  0  0  0  0  0  0  0
  152.4196  144.2697  157.9966 C   0  0  0  0  0  0  0  0  0  0  0  0
  151.3755  143.4661  157.4964 C   0  0  0  0  0  0  0  0  0  0  0  0
  151.1212  142.2174  157.9439 N   0  0  0  0  0  0  0  0  0  0  0  0
  151.9121  141.7226  158.9206 C   0  0  0  0  0  0  0  0  0  0  0  0
  156.1822  136.1901  162.6134 C   0  0  0  0  0  0  0  0  0  0  0  0
  155.3132  135.0390  163.1527 C   0  0  0  0  0  0  0  0  0  0  0  0
  152.9607  134.0579  164.3492 H   0  0  0  0  0  0  0  0  0  0  0  0
  153.3575  134.5218  166.0021 H   0  0  0  0  0  0  0  0  0  0  0  0
  154.3548  133.3444  165.1567 H   0  0  0  0  0  0  0  0  0  0  0  0
  155.4784  135.5555  165.2271 H   0  0  0  0  0  0  0  0  0  0  0  0
  153.0299  136.5736  163.7196 H   0  0  0  0  0  0  0  0  0  0  0  0
  153.4994  137.0163  165.3375 H   0  0  0  0  0  0  0  0  0  0  0  0
  154.2071  138.7584  163.6799 H   0  0  0  0  0  0  0  0  0  0  0  0
  155.5696  138.0778  164.5322 H   0  0  0  0  0  0  0  0  0  0  0  0
  155.0953  139.9088  162.0730 H   0  0  0  0  0  0  0  0  0  0  0  0
  153.0297  139.9181  159.9536 H   0  0  0  0  0  0  0  0  0  0  0  0
  152.7621  140.2770  161.6540 H   0  0  0  0  0  0  0  0  0  0  0  0
  153.7088  142.4132  161.4993 H   0  0  0  0  0  0  0  0  0  0  0  0
  154.8875  141.9223  160.3070 H   0  0  0  0  0  0  0  0  0  0  0  0
  154.0496  144.3338  159.4205 H   0  0  0  0  0  0  0  0  0  0  0  0
  152.5871  145.2633  157.6078 H   0  0  0  0  0  0  0  0  0  0  0  0
  150.7279  143.8357  156.7152 H   0  0  0  0  0  0  0  0  0  0  0  0
  151.6843  140.7213  159.2552 H   0  0  0  0  0  0  0  0  0  0  0  0
  156.5910  135.9356  161.6359 H   0  0  0  0  0  0  0  0  0  0  0  0
  157.0370  136.3415  163.2735 H   0  0  0  0  0  0  0  0  0  0  0  0
  155.9272  134.1444  163.2609 H   0  0  0  0  0  0  0  0  0  0  0  0
  154.5378  134.7867  162.4293 H   0  0  0  0  0  0  0  0  0  0  0  0
  1  2  1  0  0  0  0
  1 20  1  0  0  0  0
  1 21  1  0  0  0  0
  1 22  1  0  0  0  0
  2 19  1  0  0  0  0
  2  3  1  0  0  0  0
  2 23  1  0  0  0  0
  3  4  1  0  0  0  0
  3 24  1  0  0  0  0
  3 25  1  0  0  0  0
  4  5  1  0  0  0  0
  4 26  1  0  0  0  0
  4 27  1  0  0  0  0
  5  6  1  0  0  0  0
  5 18  1  0  0  0  0
  6  7  2  0  0  0  0
  6  8  2  0  0  0  0
  6  9  1  0  0  0  0
  9 10  1  0  0  0  0
  9 28  1  0  0  0  0
 10 11  1  0  0  0  0
 10 29  1  0  0  0  0
 10 30  1  0  0  0  0
 11 12  1  0  0  0  0
 11 31  1  0  0  0  0
 11 32  1  0  0  0  0
 12 17  1  0  0  0  0
 12 13  2  0  0  0  0
 13 14  1  0  0  0  0
 13 33  1  0  0  0  0
 14 15  2  0  0  0  0
 14 34  1  0  0  0  0
 15 16  1  0  0  0  0
 15 35  1  0  0  0  0
 16 17  2  0  0  0  0
 17 36  1  0  0  0  0
 18 19  1  0  0  0  0
 18 37  1  0  0  0  0
 18 38  1  0  0  0  0
 19 39  1  0  0  0  0
 19 40  1  0  0  0  0
M  END
> <s_m_source_file>
AV-unprocessed.smi

> <i_m_source_file_index>
2118

> <i_lp_mmshare_version>
43012

> <i_f3d_flags>
0

> <s_epik_input>
W0NIM11bQ0hdMVtDSDJdW0NIMl1OKFtDSDJdW0NIMl0xKVMoPU8pKD1PKVtOSF1bQ0gyXVtDSDJdYzJbY0hdW2NIXVtjSF1uW2NIXTI=

> <s_epik_cmdline>
J2VwaWtfcHl0aG9uJywgJy1waCcsICc3LjAnLCAnLXRuJywgJzgnLCAnLW1hJywgJzIwMCcsICctbWV0YWxfYmluZGluZycsICctaW1hZScsICc8aW5maWxlLm1hZT4nLCAnLW9tYWUnLCAnPG91dGZpbGUubWFlPic=

> <r_epik_Ionization_Penalty>
0.0259724

> <r_epik_Ionization_Penalty_Charging>
0

> <r_epik_Ionization_Penalty_Neutral>
0.0259724

> <r_epik_State_Penalty>
0.0167858

> <r_epik_Charging_Adjusted_Penalty>
0.0167858

> <i_epik_Tot_Q>
0

> <i_epik_Tot_abs_Q>
0

> <r_epik_Metal_State_Penalty>
0.268382

> <b_epik_Metal_Only>
0

> <s_lp_Force_Field>
OPLS_2005

> <r_lp_Energy>
6.97296

> <b_lp_Chiralities_Consistent>
1

> <s_lp_Variant>
AV-unprocessed.smi:2118-1

> <Gold.Version>
5.8.1

> <Gold.Id.Protein>
6NUR|6NUR_protein|mol2

> <Gold.PLP.Fitness>
40.1120

> <Gold.PLP.PLP>
-38.5495

> <Gold.PLP.part.hbond>
0.0000

> <Gold.PLP.part.metal>
0.0000

> <Gold.PLP.part.buried>
-4.2724

> <Gold.PLP.part.nonpolar>
-34.7974

> <Gold.PLP.part.repulsive>
0.0491

> <Gold.PLP.ligand.clash>
0.0000

> <Gold.PLP.ligand.torsion>
1.7759

> <Gold.PLP.Chemscore.Hbond>
0.0000

> <Gold.PLP.Chemscore.CHOScore>
1.0000

> <Gold.PLP.Chemscore.Metal>
0.0000

> <Gold.Chemscore.Hbonds>
donor molecule, donor type, donor heavy atom, donor atom, acceptor molecule, acceptor atom, score
      L1  C    15    35       P1  8028  1.00

> <Gold.PLP.Chemscore.Internal.Correction>
2.1143

> <Gold.Rescore>
     Score         DG    S(hbond)    S(metal)    S(lipo)     H(rot)  DE(clash)    DE(int)     intcor
     14.04     -16.00       0.00        0.00     122.15       1.47       0.11       1.85       ----

> <Gold.Chemscore.Fitness>
14.0373

> <Gold.Chemscore.DG>
-16.0018

> <Gold.Chemscore.ZeroCoef>
-5.4800

> <Gold.Chemscore.Hbond>
0.0000

> <Gold.Chemscore.Metal>
0.0000

> <Gold.Chemscore.Lipo>
122.1502

> <Gold.Chemscore.Internal_Hbond>
0.0000

> <Gold.Chemscore.DEClash>
0.1116

> <Gold.Chemscore.DEInternal>
1.8530

> <Gold.Chemscore.Rot>
1.4725

> <Gold.Chemscore.Internal.Correction>
   9.000000E+99

> <Gold.Chemscore.Hbond.Weighted>
-0.0000

> <Gold.Chemscore.Metal.Weighted>
-0.0000

> <Gold.Chemscore.Lipo.Weighted>
-14.2916

> <Gold.Chemscore.Internal_Hbond.Weighted>
0.0000

> <Gold.Chemscore.DEClash.Weighted>
0.1116

> <Gold.Chemscore.DEInternal.Weighted>
1.8530

> <Gold.Chemscore.Rot.Weighted>
3.7697

> <Gold.Chemscore.Internal.Correction.Weighted>
   9.000000E+99

> <Gold.Protein.RotatedTorsions>
[ 6907 6896 6895 6894 ] final -171.70 input  -60.11 | X-H torsion
[ 7974 7965 7964 7962 ] final  -83.25 input  175.53 | X-H torsion
[ 8008 7997 7996 7995 ] final   26.15 input   59.86 | X-H torsion
[ 10167 10162 10161 10158 ] final -132.45 input  -65.29 | X-H torsion
[ 10718 10713 10712 10709 ] final -127.85 input   66.30 | X-H torsion
[ 10763 10752 10751 10750 ] final  -92.82 input  -60.55 | X-H torsion
[ 11005 11000 10999 10996 ] final  169.72 input  -57.11 | X-H torsion

> <Gold.Protein.ActiveResidues>
 VAL166  LYS551  ARG553  GLY616  TRP617  ASP618  TYR619  PRO620  LYS621  CYS622 
 ASP623  PHE694  ASN695  SER759  ASP760  ASP761  ALA762  ILE779  LEU786  VAL792 
 PHE793  MET794  SER795  GLU796  ALA797  LYS798  CYS799  TRP800  GLU811  SER814 

> <Gold.Protein.RotatedAtoms>
  151.5281  133.3454  159.2913 H   0  0  0  0  0  0  0  0  0  0  0  0  # atno 6907 bound_to 6896
  150.8610  134.7965  159.7094 H   0  0  0  0  0  0  0  0  0  0  0  0  # atno 6908 bound_to 6896
  152.4630  134.5150  159.9817 H   0  0  0  0  0  0  0  0  0  0  0  0  # atno 6909 bound_to 6896
  145.5225  140.9530  143.1647 H   0  0  0  0  0  0  0  0  0  0  0  0  # atno 7974 bound_to 7965
  155.0228  140.3149  155.4787 H   0  0  0  0  0  0  0  0  0  0  0  0  # atno 8008 bound_to 7997
  156.2889  140.2194  156.5289 H   0  0  0  0  0  0  0  0  0  0  0  0  # atno 8009 bound_to 7997
  154.7437  140.0471  157.0821 H   0  0  0  0  0  0  0  0  0  0  0  0  # atno 8010 bound_to 7997
  139.9084  143.6523  152.2580 H   0  0  0  0  0  0  0  0  0  0  0  0  # atno 10167 bound_to 10162
  156.1896  130.6786  151.0407 H   0  0  0  0  0  0  0  0  0  0  0  0  # atno 10718 bound_to 10713
  154.6899  135.5217  153.8377 H   0  0  0  0  0  0  0  0  0  0  0  0  # atno 10763 bound_to 10752
  153.0624  135.6573  154.0441 H   0  0  0  0  0  0  0  0  0  0  0  0  # atno 10764 bound_to 10752
  154.0317  135.2985  155.3347 H   0  0  0  0  0  0  0  0  0  0  0  0  # atno 10765 bound_to 10752
  140.3008  134.7597  157.3914 H   0  0  0  0  0  0  0  0  0  0  0  0  # atno 11005 bound_to 11000
  144.7669  139.6825  143.7211 LP  0  0  0  0  0  0  0  0  0  0  0  0  # atno 17320 bound_to 7965
  146.2097  139.5445  142.9689 LP  0  0  0  0  0  0  0  0  0  0  0  0  # atno 17321 bound_to 7965
  139.6964  144.7641  151.1349 LP  0  0  0  0  0  0  0  0  0  0  0  0  # atno 17342 bound_to 10162
  140.7691  143.5518  150.9196 LP  0  0  0  0  0  0  0  0  0  0  0  0  # atno 17343 bound_to 10162
  157.6920  131.0807  150.7079 LP  0  0  0  0  0  0  0  0  0  0  0  0  # atno 17370 bound_to 10713
  156.7135  130.4659  149.5541 LP  0  0  0  0  0  0  0  0  0  0  0  0  # atno 17371 bound_to 10713
  140.1111  134.5344  155.8265 LP  0  0  0  0  0  0  0  0  0  0  0  0  # atno 17394 bound_to 11000
  141.2128  133.6725  156.6691 LP  0  0  0  0  0  0  0  0  0  0  0  0  # atno 17395 bound_to 11000

$$$$
