AV-unprocessed.smi:637|AV-procd|sdf|3141|dock5
  -GOLD-   22720 0 63D 1   1.00000     0.00000
 Structure written by MMmdl.
 38 40  0  0  0  0  0  0  0  0  1 V2000
  152.0430  145.0926  159.6025 C   0  0  0  0  0  0  0  0  0  0  0  0
  152.3389  143.6328  159.6690 C   0  0  0  0  0  0  0  0  0  0  0  0
  152.7778  142.9140  160.7544 C   0  0  0  0  0  0  0  0  0  0  0  0
  152.9685  141.5275  160.4769 C   0  0  0  0  0  0  0  0  0  0  0  0
  152.6673  141.2211  159.1712 C   0  0  0  0  0  0  0  0  0  0  0  0
  152.7950  139.8651  158.6620 C   0  0  0  0  0  0  0  0  0  0  0  0
  152.9505  138.7320  159.5582 C   0  0  0  0  0  0  0  0  0  0  0  0
  153.0560  137.4899  159.0387 C   0  0  0  0  0  0  0  0  0  0  0  0
  153.0196  137.2525  157.5972 C   0  0  0  0  0  0  0  0  0  0  0  0
  153.1119  136.1327  157.0948 O   0  0  0  0  0  0  0  0  0  0  0  0
  152.8753  138.3904  156.8563 N   0  0  0  0  0  0  0  0  0  0  0  0
  152.8158  138.3456  155.3905 C   0  0  0  0  0  0  0  0  0  0  0  0
  151.4660  137.8055  154.8703 C   0  0  2  0  0  0  0  0  0  0  0  0
  151.6689  137.2186  153.5992 O   0  0  0  0  0  0  0  0  0  0  0  0
  150.4273  138.9152  154.8098 C   0  0  0  0  0  0  0  0  0  0  0  0
  150.7187  140.1828  155.3582 C   0  0  0  0  0  0  0  0  0  0  0  0
  149.7670  141.2194  155.2960 C   0  0  0  0  0  0  0  0  0  0  0  0
  148.5197  140.9954  154.6823 C   0  0  0  0  0  0  0  0  0  0  0  0
  148.2244  139.7343  154.1301 C   0  0  0  0  0  0  0  0  0  0  0  0
  147.0264  139.5183  153.5375 F   0  0  0  0  0  0  0  0  0  0  0  0
  149.1755  138.6977  154.1921 C   0  0  0  0  0  0  0  0  0  0  0  0
  152.7640  139.6644  157.3832 N   0  0  0  0  0  0  0  0  0  0  0  0
  152.1413  142.6132  158.2646 S   0  0  0  0  0  0  0  0  0  0  0  0
  152.2841  145.5864  160.5441 H   0  0  0  0  0  0  0  0  0  0  0  0
  150.9870  145.2636  159.3929 H   0  0  0  0  0  0  0  0  0  0  0  0
  152.6262  145.5695  158.8145 H   0  0  0  0  0  0  0  0  0  0  0  0
  152.9691  143.3328  161.7315 H   0  0  0  0  0  0  0  0  0  0  0  0
  153.3122  140.8390  161.2356 H   0  0  0  0  0  0  0  0  0  0  0  0
  152.9815  138.8786  160.6273 H   0  0  0  0  0  0  0  0  0  0  0  0
  153.1709  136.6478  159.7054 H   0  0  0  0  0  0  0  0  0  0  0  0
  152.9720  139.3583  155.0135 H   0  0  0  0  0  0  0  0  0  0  0  0
  153.6431  137.7625  154.9801 H   0  0  0  0  0  0  0  0  0  0  0  0
  151.0914  137.0250  155.5339 H   0  0  0  0  0  0  0  0  0  0  0  0
  150.8259  136.9970  153.2342 H   0  0  0  0  0  0  0  0  0  0  0  0
  151.6749  140.3659  155.8264 H   0  0  0  0  0  0  0  0  0  0  0  0
  149.9945  142.1872  155.7181 H   0  0  0  0  0  0  0  0  0  0  0  0
  147.7909  141.7908  154.6333 H   0  0  0  0  0  0  0  0  0  0  0  0
  148.9420  137.7352  153.7608 H   0  0  0  0  0  0  0  0  0  0  0  0
  1  2  1  0  0  0  0
  1 24  1  0  0  0  0
  1 25  1  0  0  0  0
  1 26  1  0  0  0  0
  2 23  1  0  0  0  0
  2  3  2  0  0  0  0
  3  4  1  0  0  0  0
  3 27  1  0  0  0  0
  4  5  2  0  0  0  0
  4 28  1  0  0  0  0
  5  6  1  0  0  0  0
  5 23  1  0  0  0  0
  6 22  2  0  0  0  0
  6  7  1  0  0  0  0
  7  8  2  0  0  0  0
  7 29  1  0  0  0  0
  8  9  1  0  0  0  0
  8 30  1  0  0  0  0
  9 10  2  0  0  0  0
  9 11  1  0  0  0  0
 11 12  1  0  0  0  0
 11 22  1  0  0  0  0
 12 13  1  0  0  0  0
 12 31  1  0  0  0  0
 12 32  1  0  0  0  0
 13 14  1  0  0  0  0
 13 15  1  0  0  0  0
 13 33  1  0  0  0  0
 14 34  1  0  0  0  0
 15 21  1  0  0  0  0
 15 16  2  0  0  0  0
 16 17  1  0  0  0  0
 16 35  1  0  0  0  0
 17 18  2  0  0  0  0
 17 36  1  0  0  0  0
 18 19  1  0  0  0  0
 18 37  1  0  0  0  0
 19 20  1  0  0  0  0
 19 21  2  0  0  0  0
 21 38  1  0  0  0  0
M  END
> <s_m_source_file>
AV-unprocessed.smi

> <i_m_source_file_index>
637

> <i_lp_mmshare_version>
43012

> <i_f3d_flags>
0

> <s_epik_input>
W0NIM11jMVtjSF1bY0hdYyhzMSktYzJbY0hdW2NIXWMoPU8pbihuMilbQ0gyXVtDQEhdKFtPSF0pYzNbY0hdW2NIXVtjSF1jKEYpW2NIXTM=

> <s_epik_cmdline>
J2VwaWtfcHl0aG9uJywgJy1waCcsICc3LjAnLCAnLXRuJywgJzgnLCAnLW1hJywgJzIwMCcsICctbWV0YWxfYmluZGluZycsICctaW1hZScsICc8aW5maWxlLm1hZT4nLCAnLW9tYWUnLCAnPG91dGZpbGUubWFlPic=

> <r_lp_tautomer_probability>
1

> <r_epik_Ionization_Penalty>
2.26963e-07

> <r_epik_Ionization_Penalty_Charging>
5.89185e-08

> <r_epik_Ionization_Penalty_Neutral>
1.68044e-07

> <r_epik_State_Penalty>
-0

> <r_epik_Charging_Adjusted_Penalty>
5.89185e-08

> <i_epik_Tot_Q>
0

> <i_epik_Tot_abs_Q>
0

> <r_epik_Metal_State_Penalty>
-0

> <b_epik_Metal_Only>
0

> <s_lp_Force_Field>
OPLS_2005

> <r_lp_Energy>
28.2523

> <b_lp_Chiralities_Consistent>
1

> <s_lp_Variant>
AV-unprocessed.smi:637-1

> <Gold.Version>
5.8.1

> <Gold.Id.Protein>
6NUR|6NUR_protein|mol2

> <Gold.PLP.Fitness>
57.7846

> <Gold.PLP.PLP>
-50.7328

> <Gold.PLP.part.hbond>
-3.9074

> <Gold.PLP.part.metal>
0.0000

> <Gold.PLP.part.buried>
-1.7877

> <Gold.PLP.part.nonpolar>
-44.3917

> <Gold.PLP.part.repulsive>
0.0000

> <Gold.PLP.ligand.clash>
0.0000

> <Gold.PLP.ligand.torsion>
0.6995

> <Gold.PLP.Chemscore.Hbond>
2.8128

> <Gold.PLP.Chemscore.CHOScore>
0.0000

> <Gold.PLP.Chemscore.Metal>
0.0000

> <Gold.Chemscore.Hbonds>
donor molecule, donor type, donor heavy atom, donor atom, acceptor molecule, acceptor atom, score
      L1  H    14    34       P1  7949  0.11
      P1  H  7997  8009       L1    22  0.55
      P1  H 10752 10763       L1    14  0.86
      P1  H 10752 10764       L1    10  1.00

> <Gold.PLP.Chemscore.Internal.Correction>
0.0125

> <Gold.Rescore>
     Score         DG    S(hbond)    S(metal)    S(lipo)     H(rot)  DE(clash)    DE(int)     intcor
     21.95     -23.45       1.90        0.00     139.27       1.82       0.71       0.78       ----

> <Gold.Chemscore.Fitness>
21.9509

> <Gold.Chemscore.DG>
-23.4491

> <Gold.Chemscore.ZeroCoef>
-5.4800

> <Gold.Chemscore.Hbond>
1.8979

> <Gold.Chemscore.Metal>
0.0000

> <Gold.Chemscore.Lipo>
139.2740

> <Gold.Chemscore.Internal_Hbond>
0.0000

> <Gold.Chemscore.DEClash>
0.7144

> <Gold.Chemscore.DEInternal>
0.7838

> <Gold.Chemscore.Rot>
1.8222

> <Gold.Chemscore.Internal.Correction>
   9.000000E+99

> <Gold.Chemscore.Hbonds>
donor molecule, donor type, donor heavy atom, donor atom, acceptor molecule, acceptor atom, score
      L1  H    14    34       P1  7949  0.02
      P1  H  7997  8009       L1    22  0.01
      P1  H 10752 10763       L1    14  0.45
      P1  H 10752 10764       L1    10  0.94

> <Gold.Chemscore.Hbond.Weighted>
-6.3389

> <Gold.Chemscore.Metal.Weighted>
-0.0000

> <Gold.Chemscore.Lipo.Weighted>
-16.2951

> <Gold.Chemscore.Internal_Hbond.Weighted>
0.0000

> <Gold.Chemscore.DEClash.Weighted>
0.7144

> <Gold.Chemscore.DEInternal.Weighted>
0.7838

> <Gold.Chemscore.Rot.Weighted>
4.6649

> <Gold.Chemscore.Internal.Correction.Weighted>
   9.000000E+99

> <Gold.Protein.RotatedTorsions>
[ 6907 6896 6895 6894 ] final  -71.63 input  -60.11 | X-H torsion
[ 7974 7965 7964 7962 ] final   67.11 input  175.53 | X-H torsion
[ 8008 7997 7996 7995 ] final  163.01 input   59.86 | X-H torsion
[ 10167 10162 10161 10158 ] final -145.01 input  -65.29 | X-H torsion
[ 10718 10713 10712 10709 ] final  113.29 input   66.30 | X-H torsion
[ 10763 10752 10751 10750 ] final   16.59 input  -60.55 | X-H torsion
[ 11005 11000 10999 10996 ] final -161.32 input  -57.11 | X-H torsion

> <Gold.Protein.ActiveResidues>
 VAL166  LYS551  ARG553  GLY616  TRP617  ASP618  TYR619  PRO620  LYS621  CYS622 
 ASP623  PHE694  ASN695  SER759  ASP760  ASP761  ALA762  ILE779  LEU786  VAL792 
 PHE793  MET794  SER795  GLU796  ALA797  LYS798  CYS799  TRP800  GLU811  SER814 

> <Gold.Protein.RotatedAtoms>
  150.7204  134.5280  159.5685 H   0  0  0  0  0  0  0  0  0  0  0  0  # atno 6907 bound_to 6896
  152.2820  134.7815  160.0404 H   0  0  0  0  0  0  0  0  0  0  0  0  # atno 6908 bound_to 6896
  151.8458  133.3396  159.3694 H   0  0  0  0  0  0  0  0  0  0  0  0  # atno 6909 bound_to 6896
  145.8185  139.3072  143.1057 H   0  0  0  0  0  0  0  0  0  0  0  0  # atno 7974 bound_to 7965
  156.1989  140.1735  156.7940 H   0  0  0  0  0  0  0  0  0  0  0  0  # atno 8008 bound_to 7997
  154.5566  140.0707  156.8784 H   0  0  0  0  0  0  0  0  0  0  0  0  # atno 8009 bound_to 7997
  155.2927  140.3356  155.4254 H   0  0  0  0  0  0  0  0  0  0  0  0  # atno 8010 bound_to 7997
  139.7845  143.8053  152.2643 H   0  0  0  0  0  0  0  0  0  0  0  0  # atno 10167 bound_to 10162
  157.6346  131.0981  150.7020 H   0  0  0  0  0  0  0  0  0  0  0  0  # atno 10718 bound_to 10713
  153.1417  135.6761  153.9017 H   0  0  0  0  0  0  0  0  0  0  0  0  # atno 10763 bound_to 10752
  153.8472  135.3098  155.3431 H   0  0  0  0  0  0  0  0  0  0  0  0  # atno 10764 bound_to 10752
  154.7792  135.4897  153.9893 H   0  0  0  0  0  0  0  0  0  0  0  0  # atno 10765 bound_to 10752
  140.6217  134.4743  157.5224 H   0  0  0  0  0  0  0  0  0  0  0  0  # atno 11005 bound_to 11000
  145.9700  140.8768  143.0167 LP  0  0  0  0  0  0  0  0  0  0  0  0  # atno 17320 bound_to 7965
  144.6750  140.1932  143.7394 LP  0  0  0  0  0  0  0  0  0  0  0  0  # atno 17321 bound_to 7965
  139.8126  144.7329  150.9678 LP  0  0  0  0  0  0  0  0  0  0  0  0  # atno 17342 bound_to 10162
  140.7819  143.4236  151.0803 LP  0  0  0  0  0  0  0  0  0  0  0  0  # atno 17343 bound_to 10162
  156.7353  130.4722  149.5490 LP  0  0  0  0  0  0  0  0  0  0  0  0  # atno 17370 bound_to 10713
  156.1575  130.6352  151.0676 LP  0  0  0  0  0  0  0  0  0  0  0  0  # atno 17371 bound_to 10713
  139.9150  134.8264  156.1395 LP  0  0  0  0  0  0  0  0  0  0  0  0  # atno 17394 bound_to 11000
  141.0737  133.6785  156.2193 LP  0  0  0  0  0  0  0  0  0  0  0  0  # atno 17395 bound_to 11000

$$$$
