AV-unprocessed.smi:2086|AV-procd|sdf|8519|dock7
  -GOLD-   2272011233D 1   1.00000     0.00000
 Structure written by MMmdl.
 33 34  0  0  0  0  0  0  0  0  2 V2000
  152.0719  141.1915  158.2731 O   0  0  0  0  0  0  0  0  0  0  0  0
  151.1637  141.6862  157.5963 C   0  0  0  0  0  0  0  0  0  0  0  0
  150.5835  142.9154  157.6818 N   0  5  0  0  0  0  0  0  0  0  0  0
  150.4871  143.6878  158.9199 C   0  0  0  0  0  0  0  0  0  0  0  0
  151.8832  144.1362  159.3906 C   0  0  0  0  0  0  0  0  0  0  0  0
  151.7477  145.0419  160.3595 F   0  0  0  0  0  0  0  0  0  0  0  0
  152.5756  143.1027  159.8724 F   0  0  0  0  0  0  0  0  0  0  0  0
  152.5643  144.6908  158.3867 F   0  0  0  0  0  0  0  0  0  0  0  0
  150.6217  140.8708  156.4493 C   0  0  0  0  0  0  0  0  0  0  0  0
  149.9794  141.5512  155.3908 C   0  0  0  0  0  0  0  0  0  0  0  0
  149.4538  140.8218  154.3100 C   0  0  0  0  0  0  0  0  0  0  0  0
  149.5966  139.4243  154.3218 C   0  0  0  0  0  0  0  0  0  0  0  0
  150.2248  138.7553  155.3088 N   0  0  0  0  0  0  0  0  0  0  0  0
  150.7414  139.4492  156.3545 C   0  0  0  0  0  0  0  0  0  0  0  0
  151.4429  138.6934  157.3167 N   0  0  0  0  0  0  0  0  0  0  0  0
  150.9420  138.6988  158.6865 C   0  0  0  0  0  0  0  0  0  0  0  0
  151.9871  138.0701  159.6237 C   0  0  0  0  0  0  0  0  0  0  0  0
  152.3192  136.7624  159.1641 O   0  0  0  0  0  0  0  0  0  0  0  0
  152.8789  136.7816  157.8531 C   0  0  0  0  0  0  0  0  0  0  0  0
  151.8611  137.3732  156.8633 C   0  0  0  0  0  0  0  0  0  0  0  0
  149.8614  144.5731  158.7949 H   0  0  0  0  0  0  0  0  0  0  0  0
  150.0166  143.1047  159.7129 H   0  0  0  0  0  0  0  0  0  0  0  0
  149.8761  142.6267  155.4098 H   0  0  0  0  0  0  0  0  0  0  0  0
  148.9503  141.3216  153.4960 H   0  0  0  0  0  0  0  0  0  0  0  0
  149.2036  138.8273  153.5122 H   0  0  0  0  0  0  0  0  0  0  0  0
  150.7254  139.7211  158.9990 H   0  0  0  0  0  0  0  0  0  0  0  0
  150.0099  138.1346  158.7391 H   0  0  0  0  0  0  0  0  0  0  0  0
  152.8851  138.6880  159.6737 H   0  0  0  0  0  0  0  0  0  0  0  0
  151.5906  138.0016  160.6366 H   0  0  0  0  0  0  0  0  0  0  0  0
  153.8044  137.3600  157.8489 H   0  0  0  0  0  0  0  0  0  0  0  0
  153.1381  135.7639  157.5619 H   0  0  0  0  0  0  0  0  0  0  0  0
  150.9855  136.7267  156.7942 H   0  0  0  0  0  0  0  0  0  0  0  0
  152.2992  137.4232  155.8667 H   0  0  0  0  0  0  0  0  0  0  0  0
  1  2  2  0  0  0  0
  2  3  1  0  0  0  0
  2  9  1  0  0  0  0
  3  4  1  0  0  0  0
  4  5  1  0  0  0  0
  4 21  1  0  0  0  0
  4 22  1  0  0  0  0
  5  6  1  0  0  0  0
  5  7  1  0  0  0  0
  5  8  1  0  0  0  0
  9 14  1  0  0  0  0
  9 10  2  0  0  0  0
 10 11  1  0  0  0  0
 10 23  1  0  0  0  0
 11 12  2  0  0  0  0
 11 24  1  0  0  0  0
 12 13  1  0  0  0  0
 12 25  1  0  0  0  0
 13 14  2  0  0  0  0
 14 15  1  0  0  0  0
 15 20  1  0  0  0  0
 15 16  1  0  0  0  0
 16 17  1  0  0  0  0
 16 26  1  0  0  0  0
 16 27  1  0  0  0  0
 17 18  1  0  0  0  0
 17 28  1  0  0  0  0
 17 29  1  0  0  0  0
 18 19  1  0  0  0  0
 19 20  1  0  0  0  0
 19 30  1  0  0  0  0
 19 31  1  0  0  0  0
 20 32  1  0  0  0  0
 20 33  1  0  0  0  0
M  CHG  1   3  -1
M  END
> <s_m_source_file>
AV-unprocessed.smi

> <i_m_source_file_index>
2086

> <i_lp_mmshare_version>
43012

> <i_f3d_flags>
0

> <s_epik_input>
RkMoRikoRilbQ0gyXVtOSF1DKD1PKWMxW2NIXVtjSF1bY0hdbmMxTjJbQ0gyXVtDSDJdT1tDSDJdW0NIMl0y

> <s_epik_cmdline>
J2VwaWtfcHl0aG9uJywgJy1waCcsICc3LjAnLCAnLXRuJywgJzgnLCAnLW1hJywgJzIwMCcsICctbWV0YWxfYmluZGluZycsICctaW1hZScsICc8aW5maWxlLm1hZT4nLCAnLW9tYWUnLCAnPG91dGZpbGUubWFlPic=

> <r_lp_tautomer_probability>
1

> <r_epik_Ionization_Penalty>
6.70774

> <r_epik_Ionization_Penalty_Charging>
6.70732

> <r_epik_Ionization_Penalty_Neutral>
0.000422769

> <r_epik_State_Penalty>
6.70731

> <r_epik_Charging_Adjusted_Penalty>
13.4146

> <i_epik_Tot_Q>
-1

> <i_epik_Tot_abs_Q>
1

> <r_epik_Metal_State_Penalty>
2.62875

> <b_epik_Metal_Only>
1

> <s_lp_Force_Field>
OPLS_2005

> <r_lp_Energy>
34.3175

> <b_lp_Chiralities_Consistent>
1

> <s_lp_Variant>
AV-unprocessed.smi:2086-2

> <Gold.Version>
5.8.1

> <Gold.Id.Protein>
6NUR|6NUR_protein|mol2

> <Gold.PLP.Fitness>
41.5306

> <Gold.PLP.PLP>
-39.0645

> <Gold.PLP.part.hbond>
-1.0000

> <Gold.PLP.part.metal>
0.0000

> <Gold.PLP.part.buried>
-4.3841

> <Gold.PLP.part.nonpolar>
-34.1497

> <Gold.PLP.part.repulsive>
0.2012

> <Gold.PLP.ligand.clash>
0.5814

> <Gold.PLP.ligand.torsion>
0.7460

> <Gold.PLP.Chemscore.Hbond>
0.9760

> <Gold.PLP.Chemscore.CHOScore>
0.2423

> <Gold.PLP.Chemscore.Metal>
0.0000

> <Gold.Chemscore.Hbonds>
donor molecule, donor type, donor heavy atom, donor atom, acceptor molecule, acceptor atom, score
      P1  H  6896  6908       L1    18  0.98
      L1  C    12    25       P1  7957  0.41

> <Gold.PLP.Chemscore.Internal.Correction>
0.8846

> <Gold.Rescore>
     Score         DG    S(hbond)    S(metal)    S(lipo)     H(rot)  DE(clash)    DE(int)     intcor
      9.27     -13.50       0.95        0.00      70.21       1.32       0.08       4.15       ----

> <Gold.Chemscore.Fitness>
9.2716

> <Gold.Chemscore.DG>
-13.5050

> <Gold.Chemscore.ZeroCoef>
-5.4800

> <Gold.Chemscore.Hbond>
0.9516

> <Gold.Chemscore.Metal>
0.0000

> <Gold.Chemscore.Lipo>
70.2056

> <Gold.Chemscore.Internal_Hbond>
0.0000

> <Gold.Chemscore.DEClash>
0.0785

> <Gold.Chemscore.DEInternal>
4.1549

> <Gold.Chemscore.Rot>
1.3154

> <Gold.Chemscore.Internal.Correction>
   9.000000E+99

> <Gold.Chemscore.Hbonds>
donor molecule, donor type, donor heavy atom, donor atom, acceptor molecule, acceptor atom, score
      P1  H  6896  6908       L1    18  0.92

> <Gold.Chemscore.Hbond.Weighted>
-3.1784

> <Gold.Chemscore.Metal.Weighted>
-0.0000

> <Gold.Chemscore.Lipo.Weighted>
-8.2141

> <Gold.Chemscore.Internal_Hbond.Weighted>
0.0000

> <Gold.Chemscore.DEClash.Weighted>
0.0785

> <Gold.Chemscore.DEInternal.Weighted>
4.1549

> <Gold.Chemscore.Rot.Weighted>
3.3675

> <Gold.Chemscore.Internal.Correction.Weighted>
   9.000000E+99

> <Gold.Protein.RotatedTorsions>
[ 6907 6896 6895 6894 ] final -103.23 input  -60.11 | X-H torsion
[ 7974 7965 7964 7962 ] final   87.46 input  175.53 | X-H torsion
[ 8008 7997 7996 7995 ] final    3.30 input   59.86 | X-H torsion
[ 10167 10162 10161 10158 ] final  102.25 input  -65.29 | X-H torsion
[ 10718 10713 10712 10709 ] final   56.83 input   66.30 | X-H torsion
[ 10763 10752 10751 10750 ] final  163.75 input  -60.55 | X-H torsion
[ 11005 11000 10999 10996 ] final  -78.05 input  -57.11 | X-H torsion

> <Gold.Protein.ActiveResidues>
 VAL166  LYS551  ARG553  GLY616  TRP617  ASP618  TYR619  PRO620  LYS621  CYS622 
 ASP623  PHE694  ASN695  SER759  ASP760  ASP761  ALA762  ILE779  LEU786  VAL792 
 PHE793  MET794  SER795  GLU796  ALA797  LYS798  CYS799  TRP800  GLU811  SER814 

> <Gold.Protein.RotatedAtoms>
  150.7231  134.0461  159.3781 H   0  0  0  0  0  0  0  0  0  0  0  0  # atno 6907 bound_to 6896
  151.8436  135.0580  160.0460 H   0  0  0  0  0  0  0  0  0  0  0  0  # atno 6908 bound_to 6896
  152.2844  133.5465  159.5554 H   0  0  0  0  0  0  0  0  0  0  0  0  # atno 6909 bound_to 6896
  145.5587  139.2302  143.2472 H   0  0  0  0  0  0  0  0  0  0  0  0  # atno 7974 bound_to 7965
  154.7020  140.2675  155.6710 H   0  0  0  0  0  0  0  0  0  0  0  0  # atno 8008 bound_to 7997
  156.2768  140.2770  156.1557 H   0  0  0  0  0  0  0  0  0  0  0  0  # atno 8009 bound_to 7997
  155.0751  140.0372  157.2611 H   0  0  0  0  0  0  0  0  0  0  0  0  # atno 8010 bound_to 7997
  139.7367  144.7022  151.0638 H   0  0  0  0  0  0  0  0  0  0  0  0  # atno 10167 bound_to 10162
  157.5464  130.8734  149.8897 H   0  0  0  0  0  0  0  0  0  0  0  0  # atno 10718 bound_to 10713
  154.2984  135.2759  155.2622 H   0  0  0  0  0  0  0  0  0  0  0  0  # atno 10763 bound_to 10752
  154.5070  135.5792  153.6579 H   0  0  0  0  0  0  0  0  0  0  0  0  # atno 10764 bound_to 10752
  152.9904  135.6172  154.3153 H   0  0  0  0  0  0  0  0  0  0  0  0  # atno 10765 bound_to 10752
  141.1663  133.7047  156.7913 H   0  0  0  0  0  0  0  0  0  0  0  0  # atno 11005 bound_to 11000
  146.1866  140.6411  142.9164 LP  0  0  0  0  0  0  0  0  0  0  0  0  # atno 17320 bound_to 7965
  144.7494  140.5151  143.6813 LP  0  0  0  0  0  0  0  0  0  0  0  0  # atno 17321 bound_to 7965
  140.7780  143.4975  150.9813 LP  0  0  0  0  0  0  0  0  0  0  0  0  # atno 17342 bound_to 10162
  139.8664  143.7249  152.3170 LP  0  0  0  0  0  0  0  0  0  0  0  0  # atno 17343 bound_to 10162
  156.0539  130.3712  150.1137 LP  0  0  0  0  0  0  0  0  0  0  0  0  # atno 17370 bound_to 10713
  156.9313  130.9715  151.3532 LP  0  0  0  0  0  0  0  0  0  0  0  0  # atno 17371 bound_to 10713
  140.2323  134.8676  157.3490 LP  0  0  0  0  0  0  0  0  0  0  0  0  # atno 17394 bound_to 11000
  140.1878  134.4409  155.7733 LP  0  0  0  0  0  0  0  0  0  0  0  0  # atno 17395 bound_to 11000

$$$$
