AV-unprocessed.smi:1887|AV-procd|sdf|7656|dock4
  -GOLD-   22720 9393D 1   1.00000     0.00000
 Structure written by MMmdl.
 43 45  0  0  0  0  0  0  0  0  2 V2000
  154.9971  134.4508  158.2839 C   0  0  0  0  0  0  0  0  0  0  0  0
  154.4990  135.3773  157.3363 O   0  0  0  0  0  0  0  0  0  0  0  0
  153.6618  136.3611  157.9206 C   0  0  0  0  0  0  0  0  0  0  0  0
  153.9460  137.7256  157.2779 C   0  0  0  0  0  0  0  0  0  0  0  0
  152.8897  138.6956  157.5575 N   0  0  0  0  0  0  0  0  0  0  0  0
  152.5646  139.2562  158.7510 C   0  0  0  0  0  0  0  0  0  0  0  0
  153.2703  138.9441  159.9317 N   0  0  0  0  0  0  0  0  0  0  0  0
  153.3889  137.6603  160.3294 N   0  0  0  0  0  0  0  0  0  0  0  0
  154.0821  137.7157  161.4539 C   0  0  0  0  0  0  0  0  0  0  0  0
  154.4148  136.4363  162.1660 C   0  0  0  0  0  0  0  0  0  0  0  0
  154.4171  139.0520  161.8211 C   0  0  0  0  0  0  0  0  0  0  0  0
  155.1908  139.5027  163.0298 C   0  0  0  0  0  0  0  0  0  0  0  0
  153.8728  139.8139  160.8224 C   0  0  0  0  0  0  0  0  0  0  0  0
  153.8685  141.2979  160.6295 C   0  0  0  0  0  0  0  0  0  0  0  0
  151.5620  140.1357  158.7076 N   0  0  0  0  0  0  0  0  0  0  0  0
  151.2139  140.1320  157.3645 C   0  0  0  0  0  0  0  0  0  0  0  0
  152.0009  139.2809  156.6518 C   0  0  0  0  0  0  0  0  0  0  0  0
  151.8861  139.0792  155.1913 C   0  0  0  0  0  0  0  0  0  0  0  0
  152.6322  138.3033  154.5974 O   0  0  0  0  0  0  0  0  0  0  0  0
  150.8912  139.8451  154.6411 N   0  5  0  0  0  0  0  0  0  0  0  0
  150.0706  140.7184  155.3224 C   0  0  0  0  0  0  0  0  0  0  0  0
  149.2021  141.3763  154.7479 O   0  0  0  0  0  0  0  0  0  0  0  0
  150.2135  140.8721  156.6768 N   0  0  0  0  0  0  0  0  0  0  0  0
  149.3565  141.7950  157.4265 C   0  0  0  0  0  0  0  0  0  0  0  0
  155.6351  133.7237  157.7818 H   0  0  0  0  0  0  0  0  0  0  0  0
  154.1842  133.9080  158.7679 H   0  0  0  0  0  0  0  0  0  0  0  0
  155.5918  134.9502  159.0496 H   0  0  0  0  0  0  0  0  0  0  0  0
  152.6138  136.0917  157.7825 H   0  0  0  0  0  0  0  0  0  0  0  0
  153.8456  136.4131  158.9945 H   0  0  0  0  0  0  0  0  0  0  0  0
  154.8973  138.1239  157.6284 H   0  0  0  0  0  0  0  0  0  0  0  0
  154.0640  137.6063  156.2022 H   0  0  0  0  0  0  0  0  0  0  0  0
  154.7546  136.6223  163.1847 H   0  0  0  0  0  0  0  0  0  0  0  0
  155.2063  135.8959  161.6466 H   0  0  0  0  0  0  0  0  0  0  0  0
  153.5460  135.7801  162.2247 H   0  0  0  0  0  0  0  0  0  0  0  0
  155.0695  140.5688  163.2218 H   0  0  0  0  0  0  0  0  0  0  0  0
  156.2584  139.3166  162.9128 H   0  0  0  0  0  0  0  0  0  0  0  0
  154.8697  138.9821  163.9318 H   0  0  0  0  0  0  0  0  0  0  0  0
  154.7491  141.7532  161.0819 H   0  0  0  0  0  0  0  0  0  0  0  0
  152.9847  141.7413  161.0878 H   0  0  0  0  0  0  0  0  0  0  0  0
  153.8686  141.5657  159.5729 H   0  0  0  0  0  0  0  0  0  0  0  0
  148.3038  141.5542  157.2720 H   0  0  0  0  0  0  0  0  0  0  0  0
  149.5244  142.8209  157.0964 H   0  0  0  0  0  0  0  0  0  0  0  0
  149.5402  141.7614  158.5003 H   0  0  0  0  0  0  0  0  0  0  0  0
  1  2  1  0  0  0  0
  1 25  1  0  0  0  0
  1 26  1  0  0  0  0
  1 27  1  0  0  0  0
  2  3  1  0  0  0  0
  3  4  1  0  0  0  0
  3 28  1  0  0  0  0
  3 29  1  0  0  0  0
  4  5  1  0  0  0  0
  4 30  1  0  0  0  0
  4 31  1  0  0  0  0
  5 17  1  0  0  0  0
  5  6  1  0  0  0  0
  6  7  1  0  0  0  0
  6 15  2  0  0  0  0
  7 13  1  0  0  0  0
  7  8  1  0  0  0  0
  8  9  2  0  0  0  0
  9 10  1  0  0  0  0
  9 11  1  0  0  0  0
 10 32  1  0  0  0  0
 10 33  1  0  0  0  0
 10 34  1  0  0  0  0
 11 12  1  0  0  0  0
 11 13  2  0  0  0  0
 12 35  1  0  0  0  0
 12 36  1  0  0  0  0
 12 37  1  0  0  0  0
 13 14  1  0  0  0  0
 14 38  1  0  0  0  0
 14 39  1  0  0  0  0
 14 40  1  0  0  0  0
 15 16  1  0  0  0  0
 16 23  1  0  0  0  0
 16 17  2  0  0  0  0
 17 18  1  0  0  0  0
 18 19  2  0  0  0  0
 18 20  1  0  0  0  0
 20 21  1  0  0  0  0
 21 22  2  0  0  0  0
 21 23  1  0  0  0  0
 23 24  1  0  0  0  0
 24 41  1  0  0  0  0
 24 42  1  0  0  0  0
 24 43  1  0  0  0  0
M  CHG  1  20  -1
M  END
> <s_m_source_file>
AV-unprocessed.smi

> <i_m_source_file_index>
1887

> <i_lp_mmshare_version>
43012

> <i_f3d_flags>
0

> <s_epik_input>
W0NIM11uMWMoPU8pW25IXWMoPU8pYyhjMTIpbihbQ0gyXVtDSDJdT1tDSDNdKWMobjIpLW4zbmMoW0NIM10pYyhbQ0gzXSljM1tDSDNd

> <s_epik_cmdline>
J2VwaWtfcHl0aG9uJywgJy1waCcsICc3LjAnLCAnLXRuJywgJzgnLCAnLW1hJywgJzIwMCcsICctbWV0YWxfYmluZGluZycsICctaW1hZScsICc8aW5maWxlLm1hZT4nLCAnLW9tYWUnLCAnPG91dGZpbGUubWFlPic=

> <r_lp_tautomer_probability>
1

> <r_epik_Ionization_Penalty>
3.98818

> <r_epik_Ionization_Penalty_Charging>
0.0180637

> <r_epik_Ionization_Penalty_Neutral>
3.97012

> <r_epik_State_Penalty>
3.96767

> <r_epik_Charging_Adjusted_Penalty>
3.98573

> <i_epik_Tot_Q>
-1

> <i_epik_Tot_abs_Q>
1

> <r_epik_Metal_State_Penalty>
0.612715

> <b_epik_Metal_Only>
1

> <s_lp_Force_Field>
OPLS_2005

> <r_lp_Energy>
28.3599

> <b_lp_Chiralities_Consistent>
1

> <s_lp_Variant>
AV-unprocessed.smi:1887-2

> <Gold.Version>
5.8.1

> <Gold.Id.Protein>
6NUR|6NUR_protein|mol2

> <Gold.PLP.Fitness>
39.7794

> <Gold.PLP.PLP>
-36.0863

> <Gold.PLP.part.hbond>
-2.1123

> <Gold.PLP.part.metal>
0.0000

> <Gold.PLP.part.buried>
-5.0508

> <Gold.PLP.part.nonpolar>
-28.7730

> <Gold.PLP.part.repulsive>
0.2951

> <Gold.PLP.ligand.clash>
0.0000

> <Gold.PLP.ligand.torsion>
1.3610

> <Gold.PLP.Chemscore.Hbond>
2.0000

> <Gold.PLP.Chemscore.CHOScore>
0.0000

> <Gold.PLP.Chemscore.Metal>
0.0000

> <Gold.Chemscore.Hbonds>
donor molecule, donor type, donor heavy atom, donor atom, acceptor molecule, acceptor atom, score
      P1  H  7989  7998       L1    20  1.00
      P1  H 10752 10764       L1     2  1.00

> <Gold.PLP.Chemscore.Internal.Correction>
0.4152

> <Gold.Rescore>
     Score         DG    S(hbond)    S(metal)    S(lipo)     H(rot)  DE(clash)    DE(int)     intcor
      9.87     -13.19       1.22        0.00      63.41       1.48       0.01       3.31       ----

> <Gold.Chemscore.Fitness>
9.8707

> <Gold.Chemscore.DG>
-13.1886

> <Gold.Chemscore.ZeroCoef>
-5.4800

> <Gold.Chemscore.Hbond>
1.2235

> <Gold.Chemscore.Metal>
0.0000

> <Gold.Chemscore.Lipo>
63.4100

> <Gold.Chemscore.Internal_Hbond>
0.0000

> <Gold.Chemscore.DEClash>
0.0111

> <Gold.Chemscore.DEInternal>
3.3068

> <Gold.Chemscore.Rot>
1.4832

> <Gold.Chemscore.Internal.Correction>
   9.000000E+99

> <Gold.Chemscore.Hbonds>
donor molecule, donor type, donor heavy atom, donor atom, acceptor molecule, acceptor atom, score
      P1  H  7989  7998       L1    20  0.21
      P1  H 10752 10764       L1     2  0.64

> <Gold.Chemscore.Hbond.Weighted>
-4.0866

> <Gold.Chemscore.Metal.Weighted>
-0.0000

> <Gold.Chemscore.Lipo.Weighted>
-7.4190

> <Gold.Chemscore.Internal_Hbond.Weighted>
0.0000

> <Gold.Chemscore.DEClash.Weighted>
0.0111

> <Gold.Chemscore.DEInternal.Weighted>
3.3068

> <Gold.Chemscore.Rot.Weighted>
3.7970

> <Gold.Chemscore.Internal.Correction.Weighted>
   9.000000E+99

> <Gold.Protein.RotatedTorsions>
[ 6907 6896 6895 6894 ] final  -27.34 input  -60.11 | X-H torsion
[ 7974 7965 7964 7962 ] final  -80.71 input  175.53 | X-H torsion
[ 8008 7997 7996 7995 ] final   -1.35 input   59.86 | X-H torsion
[ 10167 10162 10161 10158 ] final    5.89 input  -65.29 | X-H torsion
[ 10718 10713 10712 10709 ] final  125.23 input   66.30 | X-H torsion
[ 10763 10752 10751 10750 ] final   29.84 input  -60.55 | X-H torsion
[ 11005 11000 10999 10996 ] final   14.32 input  -57.11 | X-H torsion

> <Gold.Protein.ActiveResidues>
 VAL166  LYS551  ARG553  GLY616  TRP617  ASP618  TYR619  PRO620  LYS621  CYS622 
 ASP623  PHE694  ASN695  SER759  ASP760  ASP761  ALA762  ILE779  LEU786  VAL792 
 PHE793  MET794  SER795  GLU796  ALA797  LYS798  CYS799  TRP800  GLU811  SER814 

> <Gold.Protein.RotatedAtoms>
  151.1483  135.0214  159.8656 H   0  0  0  0  0  0  0  0  0  0  0  0  # atno 6907 bound_to 6896
  152.5453  134.1418  159.8492 H   0  0  0  0  0  0  0  0  0  0  0  0  # atno 6908 bound_to 6896
  151.1501  133.4868  159.2628 H   0  0  0  0  0  0  0  0  0  0  0  0  # atno 6909 bound_to 6896
  145.5563  140.9489  143.1471 H   0  0  0  0  0  0  0  0  0  0  0  0  # atno 7974 bound_to 7965
  154.6478  140.2561  155.7248 H   0  0  0  0  0  0  0  0  0  0  0  0  # atno 8008 bound_to 7997
  156.2560  140.2874  156.0820 H   0  0  0  0  0  0  0  0  0  0  0  0  # atno 8009 bound_to 7997
  155.1497  140.0382  157.2808 H   0  0  0  0  0  0  0  0  0  0  0  0  # atno 8010 bound_to 7997
  140.6457  143.7667  150.7496 H   0  0  0  0  0  0  0  0  0  0  0  0  # atno 10167 bound_to 10162
  157.5520  131.1093  150.8686 H   0  0  0  0  0  0  0  0  0  0  0  0  # atno 10718 bound_to 10713
  153.0406  135.6479  154.0953 H   0  0  0  0  0  0  0  0  0  0  0  0  # atno 10763 bound_to 10752
  154.0660  135.2884  155.3318 H   0  0  0  0  0  0  0  0  0  0  0  0  # atno 10764 bound_to 10752
  154.6626  135.5386  153.8101 H   0  0  0  0  0  0  0  0  0  0  0  0  # atno 10765 bound_to 10752
  140.4709  134.1032  155.7732 H   0  0  0  0  0  0  0  0  0  0  0  0  # atno 11005 bound_to 11000
  144.7504  139.7208  143.7275 LP  0  0  0  0  0  0  0  0  0  0  0  0  # atno 17320 bound_to 7965
  146.1882  139.5108  142.9822 LP  0  0  0  0  0  0  0  0  0  0  0  0  # atno 17321 bound_to 7965
  140.1307  143.4528  152.2256 LP  0  0  0  0  0  0  0  0  0  0  0  0  # atno 17342 bound_to 10162
  139.5668  144.7440  151.4000 LP  0  0  0  0  0  0  0  0  0  0  0  0  # atno 17343 bound_to 10162
  156.9208  130.5314  149.5279 LP  0  0  0  0  0  0  0  0  0  0  0  0  # atno 17370 bound_to 10713
  156.0585  130.5642  150.9143 LP  0  0  0  0  0  0  0  0  0  0  0  0  # atno 17371 bound_to 10713
  141.1577  133.8851  157.1932 LP  0  0  0  0  0  0  0  0  0  0  0  0  # atno 17394 bound_to 11000
  139.9886  135.0073  156.9922 LP  0  0  0  0  0  0  0  0  0  0  0  0  # atno 17395 bound_to 11000

$$$$
