AV-unprocessed.smi:1534|AV-procd|sdf|6166|dock6
  -GOLD-   22720 6313D 1   1.00000     0.00000
 Structure written by MMmdl.
 36 37  0  0  0  0  0  0  0  0  1 V2000
  150.2535  133.9596  155.6449 O   0  0  0  0  0  0  0  0  0  0  0  0
  149.8147  134.5361  154.6518 C   0  0  0  0  0  0  0  0  0  0  0  0
  149.0051  133.9510  153.7542 N   0  0  0  0  0  0  0  0  0  0  0  0
  148.6035  132.5483  153.7714 C   0  0  0  0  0  0  0  0  0  0  0  0
  147.0735  132.3679  153.8502 C   0  0  0  0  0  0  0  0  0  0  0  0
  146.3990  132.2913  152.4900 C   0  0  0  0  0  0  0  0  0  0  0  0
  145.6545  131.1513  152.1169 C   0  0  0  0  0  0  0  0  0  0  0  0
  145.0661  131.1225  150.8379 C   0  0  0  0  0  0  0  0  0  0  0  0
  145.2434  132.2290  149.9854 C   0  0  0  0  0  0  0  0  0  0  0  0
  146.0018  133.3208  150.4531 C   0  0  0  0  0  0  0  0  0  0  0  0
  146.5706  133.3583  151.6776 N   0  0  0  0  0  0  0  0  0  0  0  0
  150.1240  135.8161  154.3779 N   0  0  0  0  0  0  0  0  0  0  0  0
  150.9744  136.7249  155.1490 C   0  0  2  0  0  0  0  0  0  0  0  0
  150.2907  137.2121  156.4452 C   0  0  0  0  0  0  0  0  0  0  0  0
  151.0514  138.4306  156.9796 C   0  0  0  0  0  0  0  0  0  0  0  0
  151.7451  139.2818  155.5127 S   0  0  0  0  0  0  0  0  0  0  0  0
  150.9421  140.4759  155.2094 O   0  0  0  0  0  0  0  0  0  0  0  0
  153.2059  139.3684  155.6590 O   0  0  0  0  0  0  0  0  0  0  0  0
  151.3296  137.9616  154.3119 C   0  0  0  0  0  0  0  0  0  0  0  0
  148.6824  134.5049  152.9745 H   0  0  0  0  0  0  0  0  0  0  0  0
  149.0070  132.0244  152.9037 H   0  0  0  0  0  0  0  0  0  0  0  0
  149.0656  132.0935  154.6479 H   0  0  0  0  0  0  0  0  0  0  0  0
  146.8421  131.4602  154.4090 H   0  0  0  0  0  0  0  0  0  0  0  0
  146.6353  133.1884  154.4198 H   0  0  0  0  0  0  0  0  0  0  0  0
  145.5433  130.3142  152.7906 H   0  0  0  0  0  0  0  0  0  0  0  0
  144.4928  130.2660  150.5154 H   0  0  0  0  0  0  0  0  0  0  0  0
  144.8074  132.2419  148.9976 H   0  0  0  0  0  0  0  0  0  0  0  0
  146.1576  134.1862  149.8263 H   0  0  0  0  0  0  0  0  0  0  0  0
  149.6902  136.2136  153.5574 H   0  0  0  0  0  0  0  0  0  0  0  0
  151.9083  136.2249  155.4124 H   0  0  0  0  0  0  0  0  0  0  0  0
  149.2660  137.5112  156.2199 H   0  0  0  0  0  0  0  0  0  0  0  0
  150.2327  136.4268  157.1989 H   0  0  0  0  0  0  0  0  0  0  0  0
  150.4184  139.1117  157.5484 H   0  0  0  0  0  0  0  0  0  0  0  0
  151.8836  138.1196  157.6117 H   0  0  0  0  0  0  0  0  0  0  0  0
  152.1669  137.7924  153.6343 H   0  0  0  0  0  0  0  0  0  0  0  0
  150.4746  138.3050  153.7284 H   0  0  0  0  0  0  0  0  0  0  0  0
  1  2  2  0  0  0  0
  2  3  1  0  0  0  0
  2 12  1  0  0  0  0
  3  4  1  0  0  0  0
  3 20  1  0  0  0  0
  4  5  1  0  0  0  0
  4 21  1  0  0  0  0
  4 22  1  0  0  0  0
  5  6  1  0  0  0  0
  5 23  1  0  0  0  0
  5 24  1  0  0  0  0
  6 11  1  0  0  0  0
  6  7  2  0  0  0  0
  7  8  1  0  0  0  0
  7 25  1  0  0  0  0
  8  9  2  0  0  0  0
  8 26  1  0  0  0  0
  9 10  1  0  0  0  0
  9 27  1  0  0  0  0
 10 11  2  0  0  0  0
 10 28  1  0  0  0  0
 12 13  1  0  0  0  0
 12 29  1  0  0  0  0
 13 19  1  0  0  0  0
 13 14  1  0  0  0  0
 13 30  1  0  0  0  0
 14 15  1  0  0  0  0
 14 31  1  0  0  0  0
 14 32  1  0  0  0  0
 15 16  1  0  0  0  0
 15 33  1  0  0  0  0
 15 34  1  0  0  0  0
 16 17  2  0  0  0  0
 16 18  2  0  0  0  0
 16 19  1  0  0  0  0
 19 35  1  0  0  0  0
 19 36  1  0  0  0  0
M  END
> <s_m_source_file>
AV-unprocessed.smi

> <i_m_source_file_index>
1534

> <i_lp_mmshare_version>
43012

> <i_f3d_flags>
0

> <s_epik_input>
Tz1TMSg9TylbQ0gyXVtDSDJdW0NASF0oW0NIMl0xKVtOSF1DKD1PKVtOSF1bQ0gyXVtDSDJdYzJbY0hdW2NIXVtjSF1bY0hdbjI=

> <s_epik_cmdline>
J2VwaWtfcHl0aG9uJywgJy1waCcsICc3LjAnLCAnLXRuJywgJzgnLCAnLW1hJywgJzIwMCcsICctbWV0YWxfYmluZGluZycsICctaW1hZScsICc8aW5maWxlLm1hZT4nLCAnLW9tYWUnLCAnPG91dGZpbGUubWFlPic=

> <r_epik_Ionization_Penalty>
0.0423605

> <r_epik_Ionization_Penalty_Charging>
0

> <r_epik_Ionization_Penalty_Neutral>
0.0423605

> <r_epik_State_Penalty>
0.0357408

> <r_epik_Charging_Adjusted_Penalty>
0.0357408

> <i_epik_Tot_Q>
0

> <i_epik_Tot_abs_Q>
0

> <r_epik_Metal_State_Penalty>
0.033344

> <b_epik_Metal_Only>
0

> <s_lp_Force_Field>
OPLS_2005

> <r_lp_Energy>
11.0291

> <b_lp_Chiralities_Consistent>
1

> <s_lp_Variant>
AV-unprocessed.smi:1534-1

> <Gold.Version>
5.8.1

> <Gold.Id.Protein>
6NUR|6NUR_protein|mol2

> <Gold.PLP.Fitness>
45.9178

> <Gold.PLP.PLP>
-32.1898

> <Gold.PLP.part.hbond>
-4.5407

> <Gold.PLP.part.metal>
0.0000

> <Gold.PLP.part.buried>
-5.3458

> <Gold.PLP.part.nonpolar>
-22.9313

> <Gold.PLP.part.repulsive>
0.3078

> <Gold.PLP.ligand.clash>
0.0000

> <Gold.PLP.ligand.torsion>
0.3544

> <Gold.PLP.Chemscore.Hbond>
3.8105

> <Gold.PLP.Chemscore.CHOScore>
1.0000

> <Gold.PLP.Chemscore.Metal>
0.0000

> <Gold.Chemscore.Hbonds>
donor molecule, donor type, donor heavy atom, donor atom, acceptor molecule, acceptor atom, score
      L1  H     3    20       P1  7948  0.74
      L1  H    12    29       P1  7948  1.00
      P1  H  7989  7998       L1    17  0.95
      P1  H  7997  8009       L1    18  1.00
      L1  C    10    28       P1  7921  0.91

> <Gold.PLP.Chemscore.Internal.Correction>
0.0053

> <Gold.Rescore>
     Score         DG    S(hbond)    S(metal)    S(lipo)     H(rot)  DE(clash)    DE(int)     intcor
     17.51     -18.21       2.50        0.00      75.36       1.73       0.17       0.53       ----

> <Gold.Chemscore.Fitness>
17.5109

> <Gold.Chemscore.DG>
-18.2116

> <Gold.Chemscore.ZeroCoef>
-5.4800

> <Gold.Chemscore.Hbond>
2.5017

> <Gold.Chemscore.Metal>
0.0000

> <Gold.Chemscore.Lipo>
75.3573

> <Gold.Chemscore.Internal_Hbond>
0.0000

> <Gold.Chemscore.DEClash>
0.1731

> <Gold.Chemscore.DEInternal>
0.5276

> <Gold.Chemscore.Rot>
1.7348

> <Gold.Chemscore.Internal.Correction>
   9.000000E+99

> <Gold.Chemscore.Hbonds>
donor molecule, donor type, donor heavy atom, donor atom, acceptor molecule, acceptor atom, score
      L1  H     3    20       P1  7948  0.10
      L1  H    12    29       P1  7948  0.30
      P1  H  7989  7998       L1    17  0.20
      P1  H  7997  8009       L1    18  0.88

> <Gold.Chemscore.Hbond.Weighted>
-8.3558

> <Gold.Chemscore.Metal.Weighted>
-0.0000

> <Gold.Chemscore.Lipo.Weighted>
-8.8168

> <Gold.Chemscore.Internal_Hbond.Weighted>
0.0000

> <Gold.Chemscore.DEClash.Weighted>
0.1731

> <Gold.Chemscore.DEInternal.Weighted>
0.5276

> <Gold.Chemscore.Rot.Weighted>
4.4410

> <Gold.Chemscore.Internal.Correction.Weighted>
   9.000000E+99

> <Gold.Protein.RotatedTorsions>
[ 6907 6896 6895 6894 ] final -138.63 input  -60.11 | X-H torsion
[ 7974 7965 7964 7962 ] final  -86.39 input  175.53 | X-H torsion
[ 8008 7997 7996 7995 ] final -130.73 input   59.86 | X-H torsion
[ 10167 10162 10161 10158 ] final  -43.99 input  -65.29 | X-H torsion
[ 10718 10713 10712 10709 ] final -139.54 input   66.30 | X-H torsion
[ 10763 10752 10751 10750 ] final -121.48 input  -60.55 | X-H torsion
[ 11005 11000 10999 10996 ] final -146.22 input  -57.11 | X-H torsion

> <Gold.Protein.ActiveResidues>
 VAL166  LYS551  ARG553  GLY616  TRP617  ASP618  TYR619  PRO620  LYS621  CYS622 
 ASP623  PHE694  ASN695  SER759  ASP760  ASP761  ALA762  ILE779  LEU786  VAL792 
 PHE793  MET794  SER795  GLU796  ALA797  LYS798  CYS799  TRP800  GLU811  SER814 

> <Gold.Protein.RotatedAtoms>
  151.0374  133.5736  159.2654 H   0  0  0  0  0  0  0  0  0  0  0  0  # atno 6907 bound_to 6896
  151.2795  135.0708  159.9174 H   0  0  0  0  0  0  0  0  0  0  0  0  # atno 6908 bound_to 6896
  152.5357  134.0091  159.7984 H   0  0  0  0  0  0  0  0  0  0  0  0  # atno 6909 bound_to 6896
  145.4805  140.9557  143.1867 H   0  0  0  0  0  0  0  0  0  0  0  0  # atno 7974 bound_to 7965
  155.3007  140.0452  157.3029 H   0  0  0  0  0  0  0  0  0  0  0  0  # atno 8008 bound_to 7997
  154.5488  140.2311  155.8485 H   0  0  0  0  0  0  0  0  0  0  0  0  # atno 8009 bound_to 7997
  156.1948  140.3041  155.9412 H   0  0  0  0  0  0  0  0  0  0  0  0  # atno 8010 bound_to 7997
  140.6913  143.2953  151.3431 H   0  0  0  0  0  0  0  0  0  0  0  0  # atno 10167 bound_to 10162
  156.3119  130.7486  151.1564 H   0  0  0  0  0  0  0  0  0  0  0  0  # atno 10718 bound_to 10713
  154.8669  135.4166  154.2627 H   0  0  0  0  0  0  0  0  0  0  0  0  # atno 10763 bound_to 10752
  153.3552  135.7000  153.6762 H   0  0  0  0  0  0  0  0  0  0  0  0  # atno 10764 bound_to 10752
  153.5686  135.3596  155.2801 H   0  0  0  0  0  0  0  0  0  0  0  0  # atno 10765 bound_to 10752
  140.7842  134.3044  157.5035 H   0  0  0  0  0  0  0  0  0  0  0  0  # atno 11005 bound_to 11000
  144.7891  139.6364  143.7121 LP  0  0  0  0  0  0  0  0  0  0  0  0  # atno 17320 bound_to 7965
  146.2343  139.5875  142.9534 LP  0  0  0  0  0  0  0  0  0  0  0  0  # atno 17321 bound_to 7965
  139.6320  144.0703  152.2484 LP  0  0  0  0  0  0  0  0  0  0  0  0  # atno 17342 bound_to 10162
  140.0181  144.6174  150.7590 LP  0  0  0  0  0  0  0  0  0  0  0  0  # atno 17343 bound_to 10162
  157.7393  131.0531  150.5241 LP  0  0  0  0  0  0  0  0  0  0  0  0  # atno 17370 bound_to 10713
  156.5382  130.4201  149.6167 LP  0  0  0  0  0  0  0  0  0  0  0  0  # atno 17371 bound_to 10713
  139.8739  134.9336  156.3586 LP  0  0  0  0  0  0  0  0  0  0  0  0  # atno 17394 bound_to 11000
  140.9453  133.7487  156.0200 LP  0  0  0  0  0  0  0  0  0  0  0  0  # atno 17395 bound_to 11000

$$$$
