AV-unprocessed.smi:1203|AV-procd|sdf|5033|dock6
  -GOLD-   22720 4 53D 1   1.00000     0.00000
 Structure written by MMmdl.
 39 40  0  0  0  0  0  0  0  0  1 V2000
  150.4151  134.6512  155.3164 C   0  0  0  0  0  0  0  0  0  0  0  0
  151.1107  135.6690  156.6805 S   0  0  0  0  0  0  0  0  0  0  0  0
  150.1981  135.5822  157.8304 O   0  0  0  0  0  0  0  0  0  0  0  0
  152.5353  135.3437  156.8491 O   0  0  0  0  0  0  0  0  0  0  0  0
  151.0055  137.2777  156.0503 N   0  0  0  0  0  0  0  0  0  0  0  0
  150.2222  137.5022  154.8253 C   0  0  0  0  0  0  0  0  0  0  0  0
  150.8649  138.7010  154.1301 C   0  0  0  0  0  0  0  0  0  0  0  0
  152.3180  138.6160  154.5753 C   0  0  0  0  0  0  0  0  0  0  0  0
  152.2265  138.1010  156.0224 C   0  0  1  0  0  0  0  0  0  0  0  0
  152.2101  139.2135  157.0835 C   0  0  0  0  0  0  0  0  0  0  0  0
  153.1406  139.3519  157.8786 O   0  0  0  0  0  0  0  0  0  0  0  0
  151.1337  140.0119  157.0774 N   0  0  0  0  0  0  0  0  0  0  0  0
  150.9204  141.1268  157.9916 C   0  0  0  0  0  0  0  0  0  0  0  0
  151.9273  142.2618  157.7403 C   0  0  0  0  0  0  0  0  0  0  0  0
  151.9914  143.2721  158.8729 C   0  0  0  0  0  0  0  0  0  0  0  0
  151.7329  144.6379  158.6363 C   0  0  0  0  0  0  0  0  0  0  0  0
  151.8155  145.5408  159.7136 C   0  0  0  0  0  0  0  0  0  0  0  0
  152.1521  145.0374  160.9860 C   0  0  0  0  0  0  0  0  0  0  0  0
  152.3972  143.7313  161.2256 N   0  0  0  0  0  0  0  0  0  0  0  0
  152.3156  142.8720  160.1871 C   0  0  0  0  0  0  0  0  0  0  0  0
  150.3998  133.6045  155.6187 H   0  0  0  0  0  0  0  0  0  0  0  0
  151.0322  134.7595  154.4249 H   0  0  0  0  0  0  0  0  0  0  0  0
  149.3993  134.9805  155.0984 H   0  0  0  0  0  0  0  0  0  0  0  0
  150.2860  136.6224  154.1842 H   0  0  0  0  0  0  0  0  0  0  0  0
  149.1720  137.6736  155.0629 H   0  0  0  0  0  0  0  0  0  0  0  0
  150.7515  138.6718  153.0463 H   0  0  0  0  0  0  0  0  0  0  0  0
  150.4165  139.6273  154.4915 H   0  0  0  0  0  0  0  0  0  0  0  0
  152.8488  137.8863  153.9621 H   0  0  0  0  0  0  0  0  0  0  0  0
  152.8442  139.5656  154.4693 H   0  0  0  0  0  0  0  0  0  0  0  0
  153.0965  137.4725  156.2198 H   0  0  0  0  0  0  0  0  0  0  0  0
  150.4131  139.8351  156.3918 H   0  0  0  0  0  0  0  0  0  0  0  0
  149.9029  141.4965  157.8570 H   0  0  0  0  0  0  0  0  0  0  0  0
  151.0010  140.7852  159.0248 H   0  0  0  0  0  0  0  0  0  0  0  0
  152.9225  141.8433  157.5867 H   0  0  0  0  0  0  0  0  0  0  0  0
  151.6694  142.7787  156.8150 H   0  0  0  0  0  0  0  0  0  0  0  0
  151.4801  144.9887  157.6464 H   0  0  0  0  0  0  0  0  0  0  0  0
  151.6267  146.5941  159.5685 H   0  0  0  0  0  0  0  0  0  0  0  0
  152.2253  145.7017  161.8343 H   0  0  0  0  0  0  0  0  0  0  0  0
  152.5208  141.8357  160.4123 H   0  0  0  0  0  0  0  0  0  0  0  0
  1  2  1  0  0  0  0
  1 21  1  0  0  0  0
  1 22  1  0  0  0  0
  1 23  1  0  0  0  0
  2  3  2  0  0  0  0
  2  4  2  0  0  0  0
  2  5  1  0  0  0  0
  5  9  1  0  0  0  0
  5  6  1  0  0  0  0
  6  7  1  0  0  0  0
  6 24  1  0  0  0  0
  6 25  1  0  0  0  0
  7  8  1  0  0  0  0
  7 26  1  0  0  0  0
  7 27  1  0  0  0  0
  8  9  1  0  0  0  0
  8 28  1  0  0  0  0
  8 29  1  0  0  0  0
  9 10  1  0  0  0  0
  9 30  1  0  0  0  0
 10 11  2  0  0  0  0
 10 12  1  0  0  0  0
 12 13  1  0  0  0  0
 12 31  1  0  0  0  0
 13 14  1  0  0  0  0
 13 32  1  0  0  0  0
 13 33  1  0  0  0  0
 14 15  1  0  0  0  0
 14 34  1  0  0  0  0
 14 35  1  0  0  0  0
 15 20  1  0  0  0  0
 15 16  2  0  0  0  0
 16 17  1  0  0  0  0
 16 36  1  0  0  0  0
 17 18  2  0  0  0  0
 17 37  1  0  0  0  0
 18 19  1  0  0  0  0
 18 38  1  0  0  0  0
 19 20  2  0  0  0  0
 20 39  1  0  0  0  0
M  END
> <s_m_source_file>
AV-unprocessed.smi

> <i_m_source_file_index>
1203

> <i_lp_mmshare_version>
43012

> <i_f3d_flags>
0

> <s_epik_input>
W0NIM11TKD1PKSg9TylOMVtDSDJdW0NIMl1bQ0gyXVtDQEhdMUMoPU8pW05IXVtDSDJdW0NIMl1jMltjSF1bY0hdW2NIXW5bY0hdMg==

> <s_epik_cmdline>
J2VwaWtfcHl0aG9uJywgJy1waCcsICc3LjAnLCAnLXRuJywgJzgnLCAnLW1hJywgJzIwMCcsICctbWV0YWxfYmluZGluZycsICctaW1hZScsICc8aW5maWxlLm1hZT4nLCAnLW9tYWUnLCAnPG91dGZpbGUubWFlPic=

> <r_epik_Ionization_Penalty>
0.0126915

> <r_epik_Ionization_Penalty_Charging>
0

> <r_epik_Ionization_Penalty_Neutral>
0.0126915

> <r_epik_State_Penalty>
0.0098379

> <r_epik_Charging_Adjusted_Penalty>
0.0098379

> <i_epik_Tot_Q>
0

> <i_epik_Tot_abs_Q>
0

> <r_epik_Metal_State_Penalty>
0.00962905

> <b_epik_Metal_Only>
0

> <s_lp_Force_Field>
OPLS_2005

> <r_lp_Energy>
6.50252

> <b_lp_Chiralities_Consistent>
1

> <s_lp_Variant>
AV-unprocessed.smi:1203-1

> <Gold.Version>
5.8.1

> <Gold.Id.Protein>
6NUR|6NUR_protein|mol2

> <Gold.PLP.Fitness>
46.4730

> <Gold.PLP.PLP>
-38.3821

> <Gold.PLP.part.hbond>
-3.3075

> <Gold.PLP.part.metal>
0.0000

> <Gold.PLP.part.buried>
-5.3991

> <Gold.PLP.part.nonpolar>
-29.9877

> <Gold.PLP.part.repulsive>
0.1968

> <Gold.PLP.ligand.clash>
0.0000

> <Gold.PLP.ligand.torsion>
0.4393

> <Gold.PLP.Chemscore.Hbond>
2.8160

> <Gold.PLP.Chemscore.CHOScore>
0.0000

> <Gold.PLP.Chemscore.Metal>
0.0000

> <Gold.Chemscore.Hbonds>
donor molecule, donor type, donor heavy atom, donor atom, acceptor molecule, acceptor atom, score
      P1  H  6896  6909       L1     3  0.75
      P1  H  7997  8010       L1    11  1.00
      P1  H 10752 10764       L1     4  1.00

> <Gold.PLP.Chemscore.Internal.Correction>
0.5215

> <Gold.Rescore>
     Score         DG    S(hbond)    S(metal)    S(lipo)     H(rot)  DE(clash)    DE(int)     intcor
     20.78     -21.75       2.61        0.00     106.19       1.90       0.59       0.38       ----

> <Gold.Chemscore.Fitness>
20.7797

> <Gold.Chemscore.DG>
-21.7460

> <Gold.Chemscore.ZeroCoef>
-5.4800

> <Gold.Chemscore.Hbond>
2.6056

> <Gold.Chemscore.Metal>
0.0000

> <Gold.Chemscore.Lipo>
106.1940

> <Gold.Chemscore.Internal_Hbond>
0.0000

> <Gold.Chemscore.DEClash>
0.5894

> <Gold.Chemscore.DEInternal>
0.3769

> <Gold.Chemscore.Rot>
1.8990

> <Gold.Chemscore.Internal.Correction>
   9.000000E+99

> <Gold.Chemscore.Hbonds>
donor molecule, donor type, donor heavy atom, donor atom, acceptor molecule, acceptor atom, score
      P1  H  6896  6909       L1     3  0.69
      P1  H  7997  8010       L1    11  0.82
      P1  H 10752 10764       L1     4  0.85

> <Gold.Chemscore.Hbond.Weighted>
-8.7026

> <Gold.Chemscore.Metal.Weighted>
-0.0000

> <Gold.Chemscore.Lipo.Weighted>
-12.4247

> <Gold.Chemscore.Internal_Hbond.Weighted>
0.0000

> <Gold.Chemscore.DEClash.Weighted>
0.5894

> <Gold.Chemscore.DEInternal.Weighted>
0.3769

> <Gold.Chemscore.Rot.Weighted>
4.8613

> <Gold.Chemscore.Internal.Correction.Weighted>
   9.000000E+99

> <Gold.Protein.RotatedTorsions>
[ 6907 6896 6895 6894 ] final   48.29 input  -60.11 | X-H torsion
[ 7974 7965 7964 7962 ] final  106.07 input  175.53 | X-H torsion
[ 8008 7997 7996 7995 ] final   30.08 input   59.86 | X-H torsion
[ 10167 10162 10161 10158 ] final    7.78 input  -65.29 | X-H torsion
[ 10718 10713 10712 10709 ] final   25.51 input   66.30 | X-H torsion
[ 10763 10752 10751 10750 ] final   -6.90 input  -60.55 | X-H torsion
[ 11005 11000 10999 10996 ] final  -51.35 input  -57.11 | X-H torsion

> <Gold.Protein.ActiveResidues>
 VAL166  LYS551  ARG553  GLY616  TRP617  ASP618  TYR619  PRO620  LYS621  CYS622 
 ASP623  PHE694  ASN695  SER759  ASP760  ASP761  ALA762  ILE779  LEU786  VAL792 
 PHE793  MET794  SER795  GLU796  ALA797  LYS798  CYS799  TRP800  GLU811  SER814 

> <Gold.Protein.RotatedAtoms>
  152.2778  134.7862  160.0402 H   0  0  0  0  0  0  0  0  0  0  0  0  # atno 6907 bound_to 6896
  151.8452  133.3425  159.3663 H   0  0  0  0  0  0  0  0  0  0  0  0  # atno 6908 bound_to 6896
  150.7177  134.5281  159.5731 H   0  0  0  0  0  0  0  0  0  0  0  0  # atno 6909 bound_to 6896
  145.3115  139.2539  143.3760 H   0  0  0  0  0  0  0  0  0  0  0  0  # atno 7974 bound_to 7965
  155.0847  140.3214  155.4591 H   0  0  0  0  0  0  0  0  0  0  0  0  # atno 8008 bound_to 7997
  156.2758  140.2088  156.5921 H   0  0  0  0  0  0  0  0  0  0  0  0  # atno 8009 bound_to 7997
  154.6950  140.0512  157.0389 H   0  0  0  0  0  0  0  0  0  0  0  0  # atno 8010 bound_to 7997
  140.6352  143.7903  150.7349 H   0  0  0  0  0  0  0  0  0  0  0  0  # atno 10167 bound_to 10162
  157.1944  130.6861  149.6163 H   0  0  0  0  0  0  0  0  0  0  0  0  # atno 10718 bound_to 10713
  153.4188  135.7009  153.6308 H   0  0  0  0  0  0  0  0  0  0  0  0  # atno 10763 bound_to 10752
  153.4771  135.3702  155.2423 H   0  0  0  0  0  0  0  0  0  0  0  0  # atno 10764 bound_to 10752
  154.8721  135.4057  154.3553 H   0  0  0  0  0  0  0  0  0  0  0  0  # atno 10765 bound_to 10752
  141.0866  133.6641  156.3865 H   0  0  0  0  0  0  0  0  0  0  0  0  # atno 11005 bound_to 11000
  146.3116  140.3652  142.8668 LP  0  0  0  0  0  0  0  0  0  0  0  0  # atno 17320 bound_to 7965
  144.9012  140.7645  143.5866 LP  0  0  0  0  0  0  0  0  0  0  0  0  # atno 17321 bound_to 7965
  140.1523  143.4347  152.2123 LP  0  0  0  0  0  0  0  0  0  0  0  0  # atno 17342 bound_to 10162
  139.5563  144.7375  151.4285 LP  0  0  0  0  0  0  0  0  0  0  0  0  # atno 17343 bound_to 10162
  155.9708  130.4604  150.6070 LP  0  0  0  0  0  0  0  0  0  0  0  0  # atno 17370 bound_to 10713
  157.3829  131.0783  151.1461 LP  0  0  0  0  0  0  0  0  0  0  0  0  # atno 17371 bound_to 10713
  140.5348  134.6177  157.5361 LP  0  0  0  0  0  0  0  0  0  0  0  0  # atno 17394 bound_to 11000
  139.9685  134.7332  156.0088 LP  0  0  0  0  0  0  0  0  0  0  0  0  # atno 17395 bound_to 11000

$$$$
