AV-unprocessed.smi:193|AV-procd|sdf|1496|dock3
  -GOLD-   2262019323D 1   1.00000     0.00000
 Structure written by MMmdl.
 62 66  0  0  0  0  0  0  0  0  2 V2000
  152.1900  145.0562  158.7715 C   0  0  0  0  0  0  0  0  0  0  0  0
  152.2669  143.5674  158.3965 C   0  0  2  0  0  0  0  0  0  0  0  0
  150.9814  143.1638  157.6456 C   0  0  0  0  0  0  0  0  0  0  0  0
  151.1091  141.9552  156.8331 N   0  0  0  0  0  0  0  0  0  0  0  0
  149.9859  141.5471  156.2041 C   0  0  0  0  0  0  0  0  0  0  0  0
  150.1327  140.9144  155.0139 N   0  0  0  0  0  0  0  0  0  0  0  0
  149.0551  140.4901  154.3463 C   0  0  0  0  0  0  0  0  0  0  0  0
  147.7688  140.5879  154.6891 N   0  0  0  0  0  0  0  0  0  0  0  0
  147.6214  141.2062  155.8960 C   0  0  0  0  0  0  0  0  0  0  0  0
  148.6685  141.7120  156.7163 C   0  0  0  0  0  0  0  0  0  0  0  0
  148.1380  142.2590  157.8785 N   0  0  0  0  0  0  0  0  0  0  0  0
  146.8495  142.0970  157.7468 C   0  0  0  0  0  0  0  0  0  0  0  0
  146.4521  141.4698  156.5876 N   0  0  0  0  0  0  0  0  0  0  0  0
  145.0870  141.1649  156.1877 C   0  0  0  0  0  0  0  0  0  0  0  0
  144.2839  142.3958  155.6992 C   0  0  0  0  0  0  0  0  0  0  0  0
  143.1221  141.9192  155.0415 O   0  0  0  0  0  0  0  0  0  0  0  0
  143.8452  143.2591  156.8991 C   0  0  0  0  0  0  0  0  0  0  0  0
  143.1926  144.5806  156.4565 C   0  0  0  0  0  0  0  0  0  0  0  0
  144.0752  145.2960  155.6008 O   0  0  0  0  0  0  0  0  0  0  0  0
  144.3610  144.5962  154.3959 C   0  0  0  0  0  0  0  0  0  0  0  0
  145.0816  143.2729  154.7093 C   0  0  0  0  0  0  0  0  0  0  0  0
  152.0540  140.8894  157.1524 C   0  0  0  0  0  0  0  0  0  0  0  0
  152.0483  140.5030  158.6373 C   0  0  0  0  0  0  0  0  0  0  0  0
  152.9819  141.3513  159.4164 N   0  3  2  0  0  0  0  0  0  0  0  0
  153.4002  140.6860  160.6709 C   0  0  2  0  0  0  0  0  0  0  0  0
  153.9992  141.6297  161.6882 C   0  0  0  0  0  0  0  0  0  0  0  0
  154.8960  140.7000  160.8995 C   0  0  1  0  0  0  0  0  0  0  0  0
  155.5815  139.5384  161.5845 C   0  0  0  0  0  0  0  0  0  0  0  0
  152.4713  142.7211  159.6745 C   0  0  0  0  0  0  0  0  0  0  0  0
  151.3485  145.2555  159.4362 H   0  0  0  0  0  0  0  0  0  0  0  0
  152.0690  145.6811  157.8860 H   0  0  0  0  0  0  0  0  0  0  0  0
  153.0986  145.3853  159.2767 H   0  0  0  0  0  0  0  0  0  0  0  0
  153.1298  143.4547  157.7385 H   0  0  0  0  0  0  0  0  0  0  0  0
  150.1594  143.0747  158.3548 H   0  0  0  0  0  0  0  0  0  0  0  0
  150.7013  143.9660  156.9613 H   0  0  0  0  0  0  0  0  0  0  0  0
  149.2507  140.0014  153.4032 H   0  0  0  0  0  0  0  0  0  0  0  0
  146.1473  142.4277  158.4986 H   0  0  0  0  0  0  0  0  0  0  0  0
  145.1238  140.4036  155.4072 H   0  0  0  0  0  0  0  0  0  0  0  0
  144.5820  140.7024  157.0368 H   0  0  0  0  0  0  0  0  0  0  0  0
  143.3895  141.3404  154.3439 H   0  0  0  0  0  0  0  0  0  0  0  0
  143.1636  142.7019  157.5434 H   0  0  0  0  0  0  0  0  0  0  0  0
  144.7172  143.4952  157.5104 H   0  0  0  0  0  0  0  0  0  0  0  0
  142.2424  144.4015  155.9513 H   0  0  0  0  0  0  0  0  0  0  0  0
  142.9737  145.1974  157.3283 H   0  0  0  0  0  0  0  0  0  0  0  0
  143.4407  144.4200  153.8371 H   0  0  0  0  0  0  0  0  0  0  0  0
  144.9938  145.2244  153.7685 H   0  0  0  0  0  0  0  0  0  0  0  0
  146.0563  143.5046  155.1407 H   0  0  0  0  0  0  0  0  0  0  0  0
  145.2778  142.7350  153.7811 H   0  0  0  0  0  0  0  0  0  0  0  0
  151.8048  140.0041  156.5646 H   0  0  0  0  0  0  0  0  0  0  0  0
  153.0550  141.1798  156.8318 H   0  0  0  0  0  0  0  0  0  0  0  0
  151.0448  140.5124  159.0654 H   0  0  0  0  0  0  0  0  0  0  0  0
  152.3956  139.4710  158.7027 H   0  0  0  0  0  0  0  0  0  0  0  0
  152.7950  139.8401  160.9936 H   0  0  0  0  0  0  0  0  0  0  0  0
  154.0429  142.6903  161.4474 H   0  0  0  0  0  0  0  0  0  0  0  0
  153.8350  141.4006  162.7394 H   0  0  0  0  0  0  0  0  0  0  0  0
  155.5051  141.1697  160.1287 H   0  0  0  0  0  0  0  0  0  0  0  0
  154.9346  139.1008  162.3457 H   0  0  0  0  0  0  0  0  0  0  0  0
  156.5018  139.8751  162.0621 H   0  0  0  0  0  0  0  0  0  0  0  0
  155.8297  138.7676  160.8546 H   0  0  0  0  0  0  0  0  0  0  0  0
  153.2010  143.2258  160.3092 H   0  0  0  0  0  0  0  0  0  0  0  0
  151.5497  142.6713  160.2569 H   0  0  0  0  0  0  0  0  0  0  0  0
  153.8191  141.4482  158.8599 H   0  0  0  0  0  0  0  0  0  0  0  0
  1  2  1  0  0  0  0
  1 30  1  0  0  0  0
  1 31  1  0  0  0  0
  1 32  1  0  0  0  0
  2 29  1  0  0  0  0
  2  3  1  0  0  0  0
  2 33  1  0  0  0  0
  3  4  1  0  0  0  0
  3 34  1  0  0  0  0
  3 35  1  0  0  0  0
  4  5  1  0  0  0  0
  4 22  1  0  0  0  0
  5 10  1  0  0  0  0
  5  6  2  0  0  0  0
  6  7  1  0  0  0  0
  7  8  2  0  0  0  0
  7 36  1  0  0  0  0
  8  9  1  0  0  0  0
  9 13  1  0  0  0  0
  9 10  2  0  0  0  0
 10 11  1  0  0  0  0
 11 12  2  0  0  0  0
 12 13  1  0  0  0  0
 12 37  1  0  0  0  0
 13 14  1  0  0  0  0
 14 15  1  0  0  0  0
 14 38  1  0  0  0  0
 14 39  1  0  0  0  0
 15 21  1  0  0  0  0
 15 16  1  0  0  0  0
 15 17  1  0  0  0  0
 16 40  1  0  0  0  0
 17 18  1  0  0  0  0
 17 41  1  0  0  0  0
 17 42  1  0  0  0  0
 18 19  1  0  0  0  0
 18 43  1  0  0  0  0
 18 44  1  0  0  0  0
 19 20  1  0  0  0  0
 20 21  1  0  0  0  0
 20 45  1  0  0  0  0
 20 46  1  0  0  0  0
 21 47  1  0  0  0  0
 21 48  1  0  0  0  0
 22 23  1  0  0  0  0
 22 49  1  0  0  0  0
 22 50  1  0  0  0  0
 23 24  1  0  0  0  0
 23 51  1  0  0  0  0
 23 52  1  0  0  0  0
 24 25  1  0  0  0  0
 24 29  1  0  0  0  0
 24 62  1  0  0  0  0
 25 27  1  0  0  0  0
 25 26  1  0  0  0  0
 25 53  1  0  0  0  0
 26 27  1  0  0  0  0
 26 54  1  0  0  0  0
 26 55  1  0  0  0  0
 27 28  1  0  0  0  0
 27 56  1  0  0  0  0
 28 57  1  0  0  0  0
 28 58  1  0  0  0  0
 28 59  1  0  0  0  0
 29 60  1  0  0  0  0
 29 61  1  0  0  0  0
M  CHG  1  24   1
M  END
> <s_m_source_file>
AV-unprocessed.smi

> <i_m_source_file_index>
193

> <i_lp_mmshare_version>
43012

> <i_f3d_flags>
0

> <s_epik_input>
W0NIM11bQ0BASF0xW0NIMl1bQ0BIXTFOKFtDSDJdMilbQ0gyXVtDSDJdTihbQ0gyXVtDQEhdMltDSDNdKWMobltjSF1uMyljKGMzNCluW2NIXW40W0NIMl1DNShbT0hdKVtDSDJdW0NIMl1PW0NIMl1bQ0gyXTU=

> <s_epik_cmdline>
J2VwaWtfcHl0aG9uJywgJy1waCcsICc3LjAnLCAnLXRuJywgJzgnLCAnLW1hJywgJzIwMCcsICctbWV0YWxfYmluZGluZycsICctaW1hZScsICc8aW5maWxlLm1hZT4nLCAnLW9tYWUnLCAnPG91dGZpbGUubWFlPic=

> <r_lp_tautomer_probability>
1

> <r_epik_Ionization_Penalty>
0.0540825

> <r_epik_Ionization_Penalty_Charging>
0.0538476

> <r_epik_Ionization_Penalty_Neutral>
0.000234891

> <r_epik_State_Penalty>
0.0200719

> <r_epik_Charging_Adjusted_Penalty>
0.0739194

> <i_epik_Tot_Q>
1

> <i_epik_Tot_abs_Q>
1

> <r_epik_Metal_State_Penalty>
0.0199414

> <b_epik_Metal_Only>
0

> <s_lp_Force_Field>
OPLS_2005

> <r_lp_Energy>
53.912

> <b_lp_Chiralities_Consistent>
1

> <s_lp_Variant>
AV-unprocessed.smi:193-1

> <Gold.Version>
5.8.1

> <Gold.Id.Protein>
6NUR|6NUR_protein|mol2

> <Gold.PLP.Fitness>
53.5998

> <Gold.PLP.PLP>
-48.3110

> <Gold.PLP.part.hbond>
-3.0000

> <Gold.PLP.part.metal>
0.0000

> <Gold.PLP.part.buried>
-4.2528

> <Gold.PLP.part.nonpolar>
-40.8249

> <Gold.PLP.part.repulsive>
0.5224

> <Gold.PLP.ligand.clash>
0.0000

> <Gold.PLP.ligand.torsion>
1.9691

> <Gold.PLP.Chemscore.Hbond>
1.5866

> <Gold.PLP.Chemscore.CHOScore>
1.0000

> <Gold.PLP.Chemscore.Metal>
0.0000

> <Gold.Chemscore.Hbonds>
donor molecule, donor type, donor heavy atom, donor atom, acceptor molecule, acceptor atom, score
      L1  H    16    40       P1 10175  1.00
      P1  H  7989  7998       L1     6  0.59
      L1  C     7    36       P1  7957  1.00

> <Gold.PLP.Chemscore.Internal.Correction>
1.4674

> <Gold.Rescore>
     Score         DG    S(hbond)    S(metal)    S(lipo)     H(rot)  DE(clash)    DE(int)     intcor
     14.07     -17.25       0.75        0.00     121.37       1.93       0.15       3.03       ----

> <Gold.Chemscore.Fitness>
14.0703

> <Gold.Chemscore.DG>
-17.2517

> <Gold.Chemscore.ZeroCoef>
-5.4800

> <Gold.Chemscore.Hbond>
0.7512

> <Gold.Chemscore.Metal>
0.0000

> <Gold.Chemscore.Lipo>
121.3749

> <Gold.Chemscore.Internal_Hbond>
0.0000

> <Gold.Chemscore.DEClash>
0.1491

> <Gold.Chemscore.DEInternal>
3.0323

> <Gold.Chemscore.Rot>
1.9290

> <Gold.Chemscore.Internal.Correction>
   9.000000E+99

> <Gold.Chemscore.Hbonds>
donor molecule, donor type, donor heavy atom, donor atom, acceptor molecule, acceptor atom, score
      L1  H    16    40       P1 10175  0.28
      P1  H  7989  7998       L1     6  0.20

> <Gold.Chemscore.Hbond.Weighted>
-2.5091

> <Gold.Chemscore.Metal.Weighted>
-0.0000

> <Gold.Chemscore.Lipo.Weighted>
-14.2009

> <Gold.Chemscore.Internal_Hbond.Weighted>
0.0000

> <Gold.Chemscore.DEClash.Weighted>
0.1491

> <Gold.Chemscore.DEInternal.Weighted>
3.0323

> <Gold.Chemscore.Rot.Weighted>
4.9383

> <Gold.Chemscore.Internal.Correction.Weighted>
   9.000000E+99

> <Gold.Protein.RotatedTorsions>
[ 6907 6896 6895 6894 ] final -138.14 input  -60.11 | X-H torsion
[ 7974 7965 7964 7962 ] final  170.06 input  175.53 | X-H torsion
[ 8008 7997 7996 7995 ] final   27.22 input   59.86 | X-H torsion
[ 10167 10162 10161 10158 ] final -128.20 input  -65.29 | X-H torsion
[ 10718 10713 10712 10709 ] final  140.76 input   66.30 | X-H torsion
[ 10763 10752 10751 10750 ] final  148.63 input  -60.55 | X-H torsion
[ 11005 11000 10999 10996 ] final -125.27 input  -57.11 | X-H torsion

> <Gold.Protein.ActiveResidues>
 VAL166  LYS551  ARG553  GLY616  TRP617  ASP618  TYR619  PRO620  LYS621  CYS622 
 ASP623  PHE694  ASN695  SER759  ASP760  ASP761  ALA762  ILE779  LEU786  VAL792 
 PHE793  MET794  SER795  GLU796  ALA797  LYS798  CYS799  TRP800  GLU811  SER814 

> <Gold.Protein.RotatedAtoms>
  151.0312  133.5788  159.2660 H   0  0  0  0  0  0  0  0  0  0  0  0  # atno 6907 bound_to 6896
  151.2869  135.0729  159.9200 H   0  0  0  0  0  0  0  0  0  0  0  0  # atno 6908 bound_to 6896
  152.5345  134.0017  159.7952 H   0  0  0  0  0  0  0  0  0  0  0  0  # atno 6909 bound_to 6896
  144.7335  139.9145  143.6417 H   0  0  0  0  0  0  0  0  0  0  0  0  # atno 7974 bound_to 7965
  155.0395  140.3167  155.4730 H   0  0  0  0  0  0  0  0  0  0  0  0  # atno 8008 bound_to 7997
  156.2858  140.2165  156.5461 H   0  0  0  0  0  0  0  0  0  0  0  0  # atno 8009 bound_to 7997
  154.7302  140.0482  157.0707 H   0  0  0  0  0  0  0  0  0  0  0  0  # atno 8010 bound_to 7997
  139.9528  143.6037  152.2470 H   0  0  0  0  0  0  0  0  0  0  0  0  # atno 10167 bound_to 10162
  157.3996  131.1015  151.0565 H   0  0  0  0  0  0  0  0  0  0  0  0  # atno 10718 bound_to 10713
  154.0578  135.2876  155.3330 H   0  0  0  0  0  0  0  0  0  0  0  0  # atno 10763 bound_to 10752
  154.6827  135.5257  153.8288 H   0  0  0  0  0  0  0  0  0  0  0  0  # atno 10764 bound_to 10752
  153.0534  135.6586  154.0769 H   0  0  0  0  0  0  0  0  0  0  0  0  # atno 10765 bound_to 10752
  140.9775  134.0720  157.3802 H   0  0  0  0  0  0  0  0  0  0  0  0  # atno 11005 bound_to 11000
  146.0976  139.3969  143.0367 LP  0  0  0  0  0  0  0  0  0  0  0  0  # atno 17320 bound_to 7965
  145.7624  140.9930  143.1193 LP  0  0  0  0  0  0  0  0  0  0  0  0  # atno 17321 bound_to 7965
  139.6615  144.7662  151.1954 LP  0  0  0  0  0  0  0  0  0  0  0  0  # atno 17342 bound_to 10162
  140.7577  143.6003  150.8706 LP  0  0  0  0  0  0  0  0  0  0  0  0  # atno 17343 bound_to 10162
  157.1568  130.6208  149.5599 LP  0  0  0  0  0  0  0  0  0  0  0  0  # atno 17370 bound_to 10713
  155.9820  130.4830  150.6856 LP  0  0  0  0  0  0  0  0  0  0  0  0  # atno 17371 bound_to 10713
  139.8936  135.0131  156.6909 LP  0  0  0  0  0  0  0  0  0  0  0  0  # atno 17394 bound_to 11000
  140.7237  133.9119  155.8164 LP  0  0  0  0  0  0  0  0  0  0  0  0  # atno 17395 bound_to 11000

$$$$
