AV-unprocessed.smi:740|AV-procd|sdf|3553|dock7
  -GOLD-   22720 0553D 1   1.00000     0.00000
 Structure written by MMmdl.
 45 47  0  0  0  0  0  0  0  0  2 V2000
  152.6196  144.0496  160.5028 C   0  0  0  0  0  0  0  0  0  0  0  0
  152.1388  143.0518  159.4632 C   0  0  0  0  0  0  0  0  0  0  0  0
  151.1319  143.4544  158.5573 C   0  0  0  0  0  0  0  0  0  0  0  0
  150.7133  142.5200  157.6176 C   0  0  0  0  0  0  0  0  0  0  0  0
  149.7583  142.6098  156.6027 N   0  3  0  0  0  0  0  0  0  0  0  0
  149.6979  141.4276  155.9300 C   0  0  0  0  0  0  0  0  0  0  0  0
  150.5978  140.5827  156.5024 N   0  0  0  0  0  0  0  0  0  0  0  0
  150.9248  139.1925  156.1553 C   0  0  0  0  0  0  0  0  0  0  0  0
  150.2893  138.7469  154.8238 C   0  0  1  0  0  0  0  0  0  0  0  0
  150.7807  139.5702  153.7839 O   0  0  0  0  0  0  0  0  0  0  0  0
  150.6290  137.2786  154.4966 C   0  0  0  0  0  0  0  0  0  0  0  0
  149.9928  136.3441  155.4323 N   0  0  0  0  0  0  0  0  0  0  0  0
  150.6670  135.5534  156.2782 C   0  0  0  0  0  0  0  0  0  0  0  0
  151.8905  135.4888  156.3959 O   0  0  0  0  0  0  0  0  0  0  0  0
  149.7145  134.7162  157.1202 C   0  0  0  0  0  0  0  0  0  0  0  0
  148.3278  135.1539  156.6247 C   0  0  2  0  0  0  0  0  0  0  0  0
  147.4793  134.0020  156.0614 C   0  0  0  0  0  0  0  0  0  0  0  0
  148.6669  136.1879  155.5527 C   0  0  0  0  0  0  0  0  0  0  0  0
  147.8047  136.7824  154.9052 O   0  0  0  0  0  0  0  0  0  0  0  0
  151.2573  141.2220  157.5593 C   0  0  0  0  0  0  0  0  0  0  0  0
  152.2513  140.8099  158.4442 C   0  0  0  0  0  0  0  0  0  0  0  0
  152.6931  141.7468  159.4055 C   0  0  0  0  0  0  0  0  0  0  0  0
  153.7811  141.3268  160.3791 C   0  0  0  0  0  0  0  0  0  0  0  0
  152.0739  144.9911  160.4345 H   0  0  0  0  0  0  0  0  0  0  0  0
  153.6787  144.2671  160.3628 H   0  0  0  0  0  0  0  0  0  0  0  0
  152.4761  143.6548  161.5089 H   0  0  0  0  0  0  0  0  0  0  0  0
  150.7078  144.4473  158.5926 H   0  0  0  0  0  0  0  0  0  0  0  0
  149.0539  141.2011  155.0924 H   0  0  0  0  0  0  0  0  0  0  0  0
  152.0072  139.0625  156.1460 H   0  0  0  0  0  0  0  0  0  0  0  0
  150.5509  138.5694  156.9686 H   0  0  0  0  0  0  0  0  0  0  0  0
  149.2085  138.8787  154.8915 H   0  0  0  0  0  0  0  0  0  0  0  0
  150.1794  139.5274  153.0563 H   0  0  0  0  0  0  0  0  0  0  0  0
  150.3712  137.0447  153.4619 H   0  0  0  0  0  0  0  0  0  0  0  0
  151.7091  137.1332  154.5586 H   0  0  0  0  0  0  0  0  0  0  0  0
  149.9024  133.6544  156.9553 H   0  0  0  0  0  0  0  0  0  0  0  0
  149.8526  134.9328  158.1801 H   0  0  0  0  0  0  0  0  0  0  0  0
  147.7849  135.6525  157.4287 H   0  0  0  0  0  0  0  0  0  0  0  0
  146.5048  134.3571  155.7240 H   0  0  0  0  0  0  0  0  0  0  0  0
  147.3049  133.2412  156.8226 H   0  0  0  0  0  0  0  0  0  0  0  0
  147.9697  133.5185  155.2156 H   0  0  0  0  0  0  0  0  0  0  0  0
  152.6772  139.8188  158.4002 H   0  0  0  0  0  0  0  0  0  0  0  0
  154.1217  140.3097  160.1827 H   0  0  0  0  0  0  0  0  0  0  0  0
  153.4121  141.3623  161.4043 H   0  0  0  0  0  0  0  0  0  0  0  0
  154.6447  141.9871  160.2980 H   0  0  0  0  0  0  0  0  0  0  0  0
  149.1898  143.4176  156.3818 H   0  0  0  0  0  0  0  0  0  0  0  0
  1  2  1  0  0  0  0
  1 24  1  0  0  0  0
  1 25  1  0  0  0  0
  1 26  1  0  0  0  0
  2 22  1  0  0  0  0
  2  3  2  0  0  0  0
  3  4  1  0  0  0  0
  3 27  1  0  0  0  0
  4 20  2  0  0  0  0
  4  5  1  0  0  0  0
  5  6  2  0  0  0  0
  5 45  1  0  0  0  0
  6  7  1  0  0  0  0
  6 28  1  0  0  0  0
  7  8  1  0  0  0  0
  7 20  1  0  0  0  0
  8  9  1  0  0  0  0
  8 29  1  0  0  0  0
  8 30  1  0  0  0  0
  9 10  1  0  0  0  0
  9 11  1  0  0  0  0
  9 31  1  0  0  0  0
 10 32  1  0  0  0  0
 11 12  1  0  0  0  0
 11 33  1  0  0  0  0
 11 34  1  0  0  0  0
 12 18  1  0  0  0  0
 12 13  1  0  0  0  0
 13 14  2  0  0  0  0
 13 15  1  0  0  0  0
 15 16  1  0  0  0  0
 15 35  1  0  0  0  0
 15 36  1  0  0  0  0
 16 17  1  0  0  0  0
 16 18  1  0  0  0  0
 16 37  1  0  0  0  0
 17 38  1  0  0  0  0
 17 39  1  0  0  0  0
 17 40  1  0  0  0  0
 18 19  2  0  0  0  0
 20 21  1  0  0  0  0
 21 22  2  0  0  0  0
 21 41  1  0  0  0  0
 22 23  1  0  0  0  0
 23 42  1  0  0  0  0
 23 43  1  0  0  0  0
 23 44  1  0  0  0  0
M  CHG  1   5   1
M  END
> <s_m_source_file>
AV-unprocessed.smi

> <i_m_source_file_index>
740

> <i_lp_mmshare_version>
43012

> <i_f3d_flags>
0

> <s_epik_input>
W0NIM11jKFtjSF0xKWMoW0NIM10pW2NIXWMoYzEyKW4oW2NIXW4yKVtDSDJdW0NASF0oW09IXSlbQ0gyXU4zQyg9TylbQ0gyXVtDQEBIXShbQ0gzXSlDMz1P

> <s_epik_cmdline>
J2VwaWtfcHl0aG9uJywgJy1waCcsICc3LjAnLCAnLXRuJywgJzgnLCAnLW1hJywgJzIwMCcsICctbWV0YWxfYmluZGluZycsICctaW1hZScsICc8aW5maWxlLm1hZT4nLCAnLW9tYWUnLCAnPG91dGZpbGUubWFlPic=

> <r_lp_tautomer_probability>
1

> <r_epik_Ionization_Penalty>
1.08202

> <r_epik_Ionization_Penalty_Charging>
1.08202

> <r_epik_Ionization_Penalty_Neutral>
1.16605e-06

> <r_epik_State_Penalty>
1.13754

> <r_epik_Charging_Adjusted_Penalty>
2.21956

> <i_epik_Tot_Q>
1

> <i_epik_Tot_abs_Q>
1

> <r_epik_Metal_State_Penalty>
5.13645

> <b_epik_Metal_Only>
0

> <s_lp_Force_Field>
OPLS_2005

> <r_lp_Energy>
22.4261

> <b_lp_Chiralities_Consistent>
1

> <s_lp_Variant>
AV-unprocessed.smi:740-8

> <Gold.Version>
5.8.1

> <Gold.Id.Protein>
6NUR|6NUR_protein|mol2

> <Gold.PLP.Fitness>
49.8727

> <Gold.PLP.PLP>
-35.2185

> <Gold.PLP.part.hbond>
-3.7238

> <Gold.PLP.part.metal>
0.0000

> <Gold.PLP.part.buried>
-1.7284

> <Gold.PLP.part.nonpolar>
-30.2302

> <Gold.PLP.part.repulsive>
0.1465

> <Gold.PLP.ligand.clash>
0.0000

> <Gold.PLP.ligand.torsion>
0.1471

> <Gold.PLP.Chemscore.Hbond>
4.9750

> <Gold.PLP.Chemscore.CHOScore>
0.0000

> <Gold.PLP.Chemscore.Metal>
0.0000

> <Gold.Chemscore.Hbonds>
donor molecule, donor type, donor heavy atom, donor atom, acceptor molecule, acceptor atom, score
      L1  H     5    45       P1  8028  1.95
      L1  H    10    32       P1  7957  0.99
      P1  H  7989  7998       L1    10  1.00
      P1  H 10752 10764       L1    14  1.00

> <Gold.PLP.Chemscore.Internal.Correction>
0.0234

> <Gold.Rescore>
     Score         DG    S(hbond)    S(metal)    S(lipo)     H(rot)  DE(clash)    DE(int)     intcor
     20.04     -21.59       3.33        0.00      94.45       2.37       0.55       1.00       ----

> <Gold.Chemscore.Fitness>
20.0391

> <Gold.Chemscore.DG>
-21.5887

> <Gold.Chemscore.ZeroCoef>
-5.4800

> <Gold.Chemscore.Hbond>
3.3327

> <Gold.Chemscore.Metal>
0.0000

> <Gold.Chemscore.Lipo>
94.4518

> <Gold.Chemscore.Internal_Hbond>
0.0000

> <Gold.Chemscore.DEClash>
0.5462

> <Gold.Chemscore.DEInternal>
1.0034

> <Gold.Chemscore.Rot>
2.3724

> <Gold.Chemscore.Internal.Correction>
   9.000000E+99

> <Gold.Chemscore.Hbonds>
donor molecule, donor type, donor heavy atom, donor atom, acceptor molecule, acceptor atom, score
      L1  H     5    45       P1  8028  0.89
      L1  H    10    32       P1  7957  0.86
      P1  H  7989  7998       L1    10  0.37
      P1  H 10752 10764       L1    14  1.00

> <Gold.Chemscore.Hbond.Weighted>
-11.1313

> <Gold.Chemscore.Metal.Weighted>
-0.0000

> <Gold.Chemscore.Lipo.Weighted>
-11.0509

> <Gold.Chemscore.Internal_Hbond.Weighted>
0.0000

> <Gold.Chemscore.DEClash.Weighted>
0.5462

> <Gold.Chemscore.DEInternal.Weighted>
1.0034

> <Gold.Chemscore.Rot.Weighted>
6.0734

> <Gold.Chemscore.Internal.Correction.Weighted>
   9.000000E+99

> <Gold.Protein.RotatedTorsions>
[ 6907 6896 6895 6894 ] final  105.47 input  -60.11 | X-H torsion
[ 7974 7965 7964 7962 ] final   85.69 input  175.53 | X-H torsion
[ 8008 7997 7996 7995 ] final -134.78 input   59.86 | X-H torsion
[ 10167 10162 10161 10158 ] final  -26.02 input  -65.29 | X-H torsion
[ 10718 10713 10712 10709 ] final   93.90 input   66.30 | X-H torsion
[ 10763 10752 10751 10750 ] final  -32.00 input  -60.55 | X-H torsion
[ 11005 11000 10999 10996 ] final -114.69 input  -57.11 | X-H torsion

> <Gold.Protein.ActiveResidues>
 VAL166  LYS551  ARG553  GLY616  TRP617  ASP618  TYR619  PRO620  LYS621  CYS622 
 ASP623  PHE694  ASN695  SER759  ASP760  ASP761  ALA762  ILE779  LEU786  VAL792 
 PHE793  MET794  SER795  GLU796  ALA797  LYS798  CYS799  TRP800  GLU811  SER814 

> <Gold.Protein.RotatedAtoms>
  152.5229  133.9524  159.7678 H   0  0  0  0  0  0  0  0  0  0  0  0  # atno 6907 bound_to 6896
  150.9832  133.6216  159.2726 H   0  0  0  0  0  0  0  0  0  0  0  0  # atno 6908 bound_to 6896
  151.3386  135.0864  159.9416 H   0  0  0  0  0  0  0  0  0  0  0  0  # atno 6909 bound_to 6896
  145.5822  139.2326  143.2346 H   0  0  0  0  0  0  0  0  0  0  0  0  # atno 7974 bound_to 7965
  155.3677  140.0486  157.3046 H   0  0  0  0  0  0  0  0  0  0  0  0  # atno 8008 bound_to 7997
  154.5146  140.2203  155.9054 H   0  0  0  0  0  0  0  0  0  0  0  0  # atno 8009 bound_to 7997
  156.1621  140.3114  155.8831 H   0  0  0  0  0  0  0  0  0  0  0  0  # atno 8010 bound_to 7997
  140.7284  143.4214  151.0945 H   0  0  0  0  0  0  0  0  0  0  0  0  # atno 10167 bound_to 10162
  157.6952  131.0494  150.4105 H   0  0  0  0  0  0  0  0  0  0  0  0  # atno 10718 bound_to 10713
  153.8065  135.6886  153.4847 H   0  0  0  0  0  0  0  0  0  0  0  0  # atno 10763 bound_to 10752
  153.1655  135.4563  154.9829 H   0  0  0  0  0  0  0  0  0  0  0  0  # atno 10764 bound_to 10752
  154.7985  135.3328  154.7549 H   0  0  0  0  0  0  0  0  0  0  0  0  # atno 10765 bound_to 10752
  141.0536  133.9648  157.2794 H   0  0  0  0  0  0  0  0  0  0  0  0  # atno 11005 bound_to 11000
  146.1708  140.6648  142.9234 LP  0  0  0  0  0  0  0  0  0  0  0  0  # atno 17320 bound_to 7965
  144.7389  140.4886  143.6884 LP  0  0  0  0  0  0  0  0  0  0  0  0  # atno 17321 bound_to 7965
  139.7861  143.8286  152.3145 LP  0  0  0  0  0  0  0  0  0  0  0  0  # atno 17342 bound_to 10162
  139.8253  144.7277  150.9519 LP  0  0  0  0  0  0  0  0  0  0  0  0  # atno 17343 bound_to 10162
  156.4489  130.4007  149.6649 LP  0  0  0  0  0  0  0  0  0  0  0  0  # atno 17370 bound_to 10713
  156.3805  130.7576  151.2569 LP  0  0  0  0  0  0  0  0  0  0  0  0  # atno 17371 bound_to 10713
  139.9371  135.0195  156.8590 LP  0  0  0  0  0  0  0  0  0  0  0  0  # atno 17394 bound_to 11000
  140.6008  134.0174  155.7536 LP  0  0  0  0  0  0  0  0  0  0  0  0  # atno 17395 bound_to 11000

$$$$
