AV-unprocessed.smi:3147|AV-procd|sdf|11988|dock3
  -GOLD-   2272017393D 1   1.00000     0.00000
 Structure written by MMmdl.
 37 38  0  0  0  0  0  0  0  0  2 V2000
  150.8943  144.7800  159.0172 C   0  0  0  0  0  0  0  0  0  0  0  0
  151.0703  143.3825  158.5251 C   0  0  0  0  0  0  0  0  0  0  0  0
  150.4100  142.9190  157.4176 N   0  3  0  0  0  0  0  0  0  0  0  0
  150.7315  141.6474  157.1769 C   0  0  0  0  0  0  0  0  0  0  0  0
  151.5988  141.2822  158.1272 N   0  0  0  0  0  0  0  0  0  0  0  0
  152.1798  139.9310  158.1656 C   0  0  0  0  0  0  0  0  0  0  0  0
  152.1862  139.2482  156.7926 C   0  0  0  0  0  0  0  0  0  0  0  0
  153.1649  139.3280  156.0487 O   0  0  0  0  0  0  0  0  0  0  0  0
  151.0726  138.5745  156.4693 N   0  0  0  0  0  0  0  0  0  0  0  0
  150.8563  137.8673  155.2120 C   0  0  0  0  0  0  0  0  0  0  0  0
  149.9643  138.6735  154.2527 C   0  0  1  0  0  0  0  0  0  0  0  0
  148.4750  138.3724  154.3988 C   0  0  0  0  0  0  0  0  0  0  0  0
  147.8570  139.6234  153.8174 C   0  0  0  0  0  0  0  0  0  0  0  0
  148.8143  140.7097  154.3028 C   0  0  0  0  0  0  0  0  0  0  0  0
  150.0711  140.0698  154.5156 O   0  0  0  0  0  0  0  0  0  0  0  0
  151.8366  142.3345  158.9837 C   0  0  0  0  0  0  0  0  0  0  0  0
  152.7701  142.2369  160.1473 C   0  0  0  0  0  0  0  0  0  0  0  0
  151.5106  144.9618  159.8973 H   0  0  0  0  0  0  0  0  0  0  0  0
  149.8520  144.9570  159.2834 H   0  0  0  0  0  0  0  0  0  0  0  0
  151.1823  145.4906  158.2420 H   0  0  0  0  0  0  0  0  0  0  0  0
  150.3659  141.0370  156.3705 H   0  0  0  0  0  0  0  0  0  0  0  0
  153.1983  140.0016  158.5489 H   0  0  0  0  0  0  0  0  0  0  0  0
  151.6087  139.3317  158.8765 H   0  0  0  0  0  0  0  0  0  0  0  0
  150.3137  138.5584  157.1354 H   0  0  0  0  0  0  0  0  0  0  0  0
  151.8165  137.6493  154.7415 H   0  0  0  0  0  0  0  0  0  0  0  0
  150.3951  136.9044  155.4338 H   0  0  0  0  0  0  0  0  0  0  0  0
  150.2587  138.5003  153.2164 H   0  0  0  0  0  0  0  0  0  0  0  0
  148.1715  137.4634  153.8786 H   0  0  0  0  0  0  0  0  0  0  0  0
  148.2015  138.2741  155.4503 H   0  0  0  0  0  0  0  0  0  0  0  0
  147.8685  139.5724  152.7279 H   0  0  0  0  0  0  0  0  0  0  0  0
  146.8284  139.7854  154.1405 H   0  0  0  0  0  0  0  0  0  0  0  0
  148.9021  141.5275  153.5868 H   0  0  0  0  0  0  0  0  0  0  0  0
  148.4733  141.1262  155.2511 H   0  0  0  0  0  0  0  0  0  0  0  0
  152.9485  143.2191  160.5837 H   0  0  0  0  0  0  0  0  0  0  0  0
  153.7295  141.8261  159.8322 H   0  0  0  0  0  0  0  0  0  0  0  0
  152.3473  141.5892  160.9153 H   0  0  0  0  0  0  0  0  0  0  0  0
  149.7692  143.4644  156.8548 H   0  0  0  0  0  0  0  0  0  0  0  0
  1  2  1  0  0  0  0
  1 18  1  0  0  0  0
  1 19  1  0  0  0  0
  1 20  1  0  0  0  0
  2 16  2  0  0  0  0
  2  3  1  0  0  0  0
  3  4  2  0  0  0  0
  3 37  1  0  0  0  0
  4  5  1  0  0  0  0
  4 21  1  0  0  0  0
  5  6  1  0  0  0  0
  5 16  1  0  0  0  0
  6  7  1  0  0  0  0
  6 22  1  0  0  0  0
  6 23  1  0  0  0  0
  7  8  2  0  0  0  0
  7  9  1  0  0  0  0
  9 10  1  0  0  0  0
  9 24  1  0  0  0  0
 10 11  1  0  0  0  0
 10 25  1  0  0  0  0
 10 26  1  0  0  0  0
 11 15  1  0  0  0  0
 11 12  1  0  0  0  0
 11 27  1  0  0  0  0
 12 13  1  0  0  0  0
 12 28  1  0  0  0  0
 12 29  1  0  0  0  0
 13 14  1  0  0  0  0
 13 30  1  0  0  0  0
 13 31  1  0  0  0  0
 14 15  1  0  0  0  0
 14 32  1  0  0  0  0
 14 33  1  0  0  0  0
 16 17  1  0  0  0  0
 17 34  1  0  0  0  0
 17 35  1  0  0  0  0
 17 36  1  0  0  0  0
M  CHG  1   3   1
M  END
> <s_m_source_file>
AV-unprocessed.smi

> <i_m_source_file_index>
3147

> <i_lp_mmshare_version>
43012

> <i_f3d_flags>
0

> <s_epik_input>
W0NIM11jMW5bY0hdbihjMVtDSDNdKVtDSDJdQyg9TylbTkhdW0NIMl1bQ0BASF0yW0NIMl1bQ0gyXVtDSDJdTzI=

> <s_epik_cmdline>
J2VwaWtfcHl0aG9uJywgJy1waCcsICc3LjAnLCAnLXRuJywgJzgnLCAnLW1hJywgJzIwMCcsICctbWV0YWxfYmluZGluZycsICctaW1hZScsICc8aW5maWxlLm1hZT4nLCAnLW9tYWUnLCAnPG91dGZpbGUubWFlPic=

> <r_lp_tautomer_probability>
1

> <r_epik_Ionization_Penalty>
0.131257

> <r_epik_Ionization_Penalty_Charging>
0

> <r_epik_Ionization_Penalty_Neutral>
0.131257

> <r_epik_State_Penalty>
0.12065

> <r_epik_Charging_Adjusted_Penalty>
0.12065

> <i_epik_Tot_Q>
1

> <i_epik_Tot_abs_Q>
1

> <r_epik_Metal_State_Penalty>
0.448684

> <b_epik_Metal_Only>
0

> <s_lp_Force_Field>
OPLS_2005

> <r_lp_Energy>
19.5729

> <b_lp_Chiralities_Consistent>
1

> <s_lp_Variant>
AV-unprocessed.smi:3147-2

> <Gold.Version>
5.8.1

> <Gold.Id.Protein>
6NUR|6NUR_protein|mol2

> <Gold.PLP.Fitness>
46.3462

> <Gold.PLP.PLP>
-37.3413

> <Gold.PLP.part.hbond>
-2.9491

> <Gold.PLP.part.metal>
0.0000

> <Gold.PLP.part.buried>
-4.9588

> <Gold.PLP.part.nonpolar>
-30.4760

> <Gold.PLP.part.repulsive>
0.1456

> <Gold.PLP.ligand.clash>
0.0000

> <Gold.PLP.ligand.torsion>
1.2510

> <Gold.PLP.Chemscore.Hbond>
3.8320

> <Gold.PLP.Chemscore.CHOScore>
0.0000

> <Gold.PLP.Chemscore.Metal>
0.0000

> <Gold.Chemscore.Hbonds>
donor molecule, donor type, donor heavy atom, donor atom, acceptor molecule, acceptor atom, score
      L1  H     3    37       P1  8028  2.00
      P1  H  7989  7998       L1    15  1.00
      P1  H  7997  8010       L1     8  0.81

> <Gold.PLP.Chemscore.Internal.Correction>
0.0109

> <Gold.Rescore>
     Score         DG    S(hbond)    S(metal)    S(lipo)     H(rot)  DE(clash)    DE(int)     intcor
     18.60     -19.28       2.71        0.00      78.99       1.76       0.01       0.67       ----

> <Gold.Chemscore.Fitness>
18.5989

> <Gold.Chemscore.DG>
-19.2830

> <Gold.Chemscore.ZeroCoef>
-5.4800

> <Gold.Chemscore.Hbond>
2.7128

> <Gold.Chemscore.Metal>
0.0000

> <Gold.Chemscore.Lipo>
78.9917

> <Gold.Chemscore.Internal_Hbond>
0.0000

> <Gold.Chemscore.DEClash>
0.0121

> <Gold.Chemscore.DEInternal>
0.6719

> <Gold.Chemscore.Rot>
1.7577

> <Gold.Chemscore.Internal.Correction>
   9.000000E+99

> <Gold.Chemscore.Hbonds>
donor molecule, donor type, donor heavy atom, donor atom, acceptor molecule, acceptor atom, score
      L1  H     3    37       P1  8028  0.99
      P1  H  7989  7998       L1    15  0.65
      P1  H  7997  8010       L1     8  0.80

> <Gold.Chemscore.Hbond.Weighted>
-9.0607

> <Gold.Chemscore.Metal.Weighted>
-0.0000

> <Gold.Chemscore.Lipo.Weighted>
-9.2420

> <Gold.Chemscore.Internal_Hbond.Weighted>
0.0000

> <Gold.Chemscore.DEClash.Weighted>
0.0121

> <Gold.Chemscore.DEInternal.Weighted>
0.6719

> <Gold.Chemscore.Rot.Weighted>
4.4998

> <Gold.Chemscore.Internal.Correction.Weighted>
   9.000000E+99

> <Gold.Protein.RotatedTorsions>
[ 6907 6896 6895 6894 ] final -148.88 input  -60.11 | X-H torsion
[ 7974 7965 7964 7962 ] final  128.48 input  175.53 | X-H torsion
[ 8008 7997 7996 7995 ] final   89.84 input   59.86 | X-H torsion
[ 10167 10162 10161 10158 ] final  -89.54 input  -65.29 | X-H torsion
[ 10718 10713 10712 10709 ] final -159.61 input   66.30 | X-H torsion
[ 10763 10752 10751 10750 ] final   84.56 input  -60.55 | X-H torsion
[ 11005 11000 10999 10996 ] final   -5.68 input  -57.11 | X-H torsion

> <Gold.Protein.ActiveResidues>
 VAL166  LYS551  ARG553  GLY616  TRP617  ASP618  TYR619  PRO620  LYS621  CYS622 
 ASP623  PHE694  ASN695  SER759  ASP760  ASP761  ALA762  ILE779  LEU786  VAL792 
 PHE793  MET794  SER795  GLU796  ALA797  LYS798  CYS799  TRP800  GLU811  SER814 

> <Gold.Protein.RotatedAtoms>
  151.1762  133.4753  159.2593 H   0  0  0  0  0  0  0  0  0  0  0  0  # atno 6907 bound_to 6896
  151.1305  135.0128  159.8590 H   0  0  0  0  0  0  0  0  0  0  0  0  # atno 6908 bound_to 6896
  152.5460  134.1665  159.8632 H   0  0  0  0  0  0  0  0  0  0  0  0  # atno 6909 bound_to 6896
  145.0390  139.3979  143.5111 H   0  0  0  0  0  0  0  0  0  0  0  0  # atno 7974 bound_to 7965
  156.0048  140.3356  155.6881 H   0  0  0  0  0  0  0  0  0  0  0  0  # atno 8008 bound_to 7997
  155.6240  140.0678  157.2687 H   0  0  0  0  0  0  0  0  0  0  0  0  # atno 8009 bound_to 7997
  154.4261  140.1771  156.1390 H   0  0  0  0  0  0  0  0  0  0  0  0  # atno 8010 bound_to 7997
  140.3638  143.2828  151.9583 H   0  0  0  0  0  0  0  0  0  0  0  0  # atno 10167 bound_to 10162
  156.5704  130.8686  151.2836 H   0  0  0  0  0  0  0  0  0  0  0  0  # atno 10718 bound_to 10713
  153.1393  135.4650  154.9470 H   0  0  0  0  0  0  0  0  0  0  0  0  # atno 10763 bound_to 10752
  154.7733  135.3165  154.8147 H   0  0  0  0  0  0  0  0  0  0  0  0  # atno 10764 bound_to 10752
  153.8673  135.6907  153.4831 H   0  0  0  0  0  0  0  0  0  0  0  0  # atno 10765 bound_to 10752
  140.6938  133.9048  155.8636 H   0  0  0  0  0  0  0  0  0  0  0  0  # atno 11005 bound_to 11000
  146.3507  139.9981  142.8679 LP  0  0  0  0  0  0  0  0  0  0  0  0  # atno 17320 bound_to 7965
  145.1672  140.9702  143.4343 LP  0  0  0  0  0  0  0  0  0  0  0  0  # atno 17321 bound_to 7965
  139.4811  144.5969  151.7675 LP  0  0  0  0  0  0  0  0  0  0  0  0  # atno 17342 bound_to 10162
  140.5101  144.1038  150.5993 LP  0  0  0  0  0  0  0  0  0  0  0  0  # atno 17343 bound_to 10162
  157.7349  130.9754  150.2054 LP  0  0  0  0  0  0  0  0  0  0  0  0  # atno 17370 bound_to 10713
  156.2719  130.3723  149.8023 LP  0  0  0  0  0  0  0  0  0  0  0  0  # atno 17371 bound_to 10713
  141.0220  134.0876  157.4110 LP  0  0  0  0  0  0  0  0  0  0  0  0  # atno 17394 bound_to 11000
  139.8916  135.0119  156.6799 LP  0  0  0  0  0  0  0  0  0  0  0  0  # atno 17395 bound_to 11000

$$$$
