AV-unprocessed.smi:1809|AV-procd|sdf|7327|dock8
  -GOLD-   22720 8583D 1   1.00000     0.00000
 Structure written by MMmdl.
 39 41  0  0  0  0  0  0  0  0  3 V2000
  152.7425  142.4218  161.5992 C   0  0  0  0  0  0  0  0  0  0  0  0
  152.4653  141.7937  160.2767 C   0  0  0  0  0  0  0  0  0  0  0  0
  151.3441  142.0229  159.5884 N   0  0  0  0  0  0  0  0  0  0  0  0
  151.3158  141.3265  158.3887 N   0  0  0  0  0  0  0  0  0  0  0  0
  152.4174  140.5908  158.1818 C   0  0  0  0  0  0  0  0  0  0  0  0
  152.5849  139.8378  157.0821 N   0  5  0  0  0  0  0  0  0  0  0  0
  151.6088  139.7781  156.1493 C   0  0  0  0  0  0  0  0  0  0  0  0
  151.0861  140.7343  155.5719 O   0  0  0  0  0  0  0  0  0  0  0  0
  151.2107  138.5318  155.8667 N   0  0  0  0  0  0  0  0  0  0  0  0
  150.1638  138.1864  154.9161 C   0  0  0  0  0  0  0  0  0  0  0  0
  148.8151  138.7979  155.3413 C   0  0  2  0  0  0  0  0  0  0  0  0
  147.6344  137.8109  155.1756 C   0  0  0  0  0  0  0  0  0  0  0  0
  147.3108  137.6893  153.7416 N   0  3  1  0  0  0  0  0  0  0  0  0
  146.2173  136.7840  153.3496 C   0  0  0  0  0  0  0  0  0  0  0  0
  145.7358  137.3131  151.9838 C   0  0  0  0  0  0  0  0  0  0  0  0
  146.4960  138.6320  151.7549 C   0  0  0  0  0  0  0  0  0  0  0  0
  146.9949  138.9916  153.1510 C   0  0  2  0  0  0  0  0  0  0  0  0
  148.2216  139.9046  153.2646 C   0  0  0  0  0  0  0  0  0  0  0  0
  148.5463  140.0293  154.6517 O   0  0  0  0  0  0  0  0  0  0  0  0
  153.5899  140.6957  159.4950 S   0  0  0  0  0  0  0  0  0  0  0  0
  153.1241  143.4330  161.4580 H   0  0  0  0  0  0  0  0  0  0  0  0
  153.4849  141.8396  162.1455 H   0  0  0  0  0  0  0  0  0  0  0  0
  151.8304  142.4691  162.1946 H   0  0  0  0  0  0  0  0  0  0  0  0
  151.6600  137.7730  156.3588 H   0  0  0  0  0  0  0  0  0  0  0  0
  150.4503  138.5207  153.9184 H   0  0  0  0  0  0  0  0  0  0  0  0
  150.0777  137.0998  154.8688 H   0  0  0  0  0  0  0  0  0  0  0  0
  148.8928  139.0472  156.4004 H   0  0  0  0  0  0  0  0  0  0  0  0
  147.8832  136.8327  155.5886 H   0  0  0  0  0  0  0  0  0  0  0  0
  146.7607  138.1762  155.7171 H   0  0  0  0  0  0  0  0  0  0  0  0
  146.5628  135.7512  153.3017 H   0  0  0  0  0  0  0  0  0  0  0  0
  145.4078  136.8391  154.0792 H   0  0  0  0  0  0  0  0  0  0  0  0
  145.9402  136.6030  151.1819 H   0  0  0  0  0  0  0  0  0  0  0  0
  144.6588  137.4836  152.0051 H   0  0  0  0  0  0  0  0  0  0  0  0
  147.3403  138.4618  151.0851 H   0  0  0  0  0  0  0  0  0  0  0  0
  145.8713  139.4113  151.3176 H   0  0  0  0  0  0  0  0  0  0  0  0
  146.1668  139.4360  153.7078 H   0  0  0  0  0  0  0  0  0  0  0  0
  149.0678  139.5148  152.6982 H   0  0  0  0  0  0  0  0  0  0  0  0
  147.9981  140.8931  152.8630 H   0  0  0  0  0  0  0  0  0  0  0  0
  148.1416  137.3571  153.2725 H   0  0  0  0  0  0  0  0  0  0  0  0
  1  2  1  0  0  0  0
  1 21  1  0  0  0  0
  1 22  1  0  0  0  0
  1 23  1  0  0  0  0
  2 20  1  0  0  0  0
  2  3  2  0  0  0  0
  3  4  1  0  0  0  0
  4  5  2  0  0  0  0
  5  6  1  0  0  0  0
  5 20  1  0  0  0  0
  6  7  1  0  0  0  0
  7  8  2  0  0  0  0
  7  9  1  0  0  0  0
  9 10  1  0  0  0  0
  9 24  1  0  0  0  0
 10 11  1  0  0  0  0
 10 25  1  0  0  0  0
 10 26  1  0  0  0  0
 11 19  1  0  0  0  0
 11 12  1  0  0  0  0
 11 27  1  0  0  0  0
 12 13  1  0  0  0  0
 12 28  1  0  0  0  0
 12 29  1  0  0  0  0
 13 17  1  0  0  0  0
 13 14  1  0  0  0  0
 13 39  1  0  0  0  0
 14 15  1  0  0  0  0
 14 30  1  0  0  0  0
 14 31  1  0  0  0  0
 15 16  1  0  0  0  0
 15 32  1  0  0  0  0
 15 33  1  0  0  0  0
 16 17  1  0  0  0  0
 16 34  1  0  0  0  0
 16 35  1  0  0  0  0
 17 18  1  0  0  0  0
 17 36  1  0  0  0  0
 18 19  1  0  0  0  0
 18 37  1  0  0  0  0
 18 38  1  0  0  0  0
M  CHG  1   6  -1
M  CHG  1  13   1
M  END
> <s_m_source_file>
AV-unprocessed.smi

> <i_m_source_file_index>
1809

> <i_lp_mmshare_version>
43012

> <i_f3d_flags>
0

> <s_epik_input>
W0NIM11jMW5uYyhzMSlbTkhdQyg9TylbTkhdW0NIMl1bQ0BIXShbQ0gyXTIpT1tDSDJdW0NAQEhdKE4yMylbQ0gyXVtDSDJdW0NIMl0z

> <s_epik_cmdline>
J2VwaWtfcHl0aG9uJywgJy1waCcsICc3LjAnLCAnLXRuJywgJzgnLCAnLW1hJywgJzIwMCcsICctbWV0YWxfYmluZGluZycsICctaW1hZScsICc8aW5maWxlLm1hZT4nLCAnLW9tYWUnLCAnPG91dGZpbGUubWFlPic=

> <r_lp_tautomer_probability>
1

> <r_epik_Ionization_Penalty>
3.2601

> <r_epik_Ionization_Penalty_Charging>
3.1406

> <r_epik_Ionization_Penalty_Neutral>
0.119497

> <r_epik_State_Penalty>
3.08894

> <r_epik_Charging_Adjusted_Penalty>
6.22954

> <i_epik_Tot_Q>
0

> <i_epik_Tot_abs_Q>
2

> <r_epik_Metal_State_Penalty>
0.510807

> <b_epik_Metal_Only>
1

> <s_lp_Force_Field>
OPLS_2005

> <r_lp_Energy>
31.1042

> <b_lp_Chiralities_Consistent>
1

> <s_lp_Variant>
AV-unprocessed.smi:1809-19

> <Gold.Version>
5.8.1

> <Gold.Id.Protein>
6NUR|6NUR_protein|mol2

> <Gold.PLP.Fitness>
40.9457

> <Gold.PLP.PLP>
-28.7638

> <Gold.PLP.part.hbond>
-3.2188

> <Gold.PLP.part.metal>
0.0000

> <Gold.PLP.part.buried>
2.6749

> <Gold.PLP.part.nonpolar>
-27.9094

> <Gold.PLP.part.repulsive>
0.2264

> <Gold.PLP.ligand.clash>
0.0000

> <Gold.PLP.ligand.torsion>
1.0653

> <Gold.PLP.Chemscore.Hbond>
4.7611

> <Gold.PLP.Chemscore.CHOScore>
0.0000

> <Gold.PLP.Chemscore.Metal>
0.0000

> <Gold.Chemscore.Hbonds>
donor molecule, donor type, donor heavy atom, donor atom, acceptor molecule, acceptor atom, score
      L1  H    13    39       P1  7948  1.98
      P1  H  7989  7998       L1     8  0.59
      P1  H  7997  8010       L1     6  2.00

> <Gold.PLP.Chemscore.Internal.Correction>
0.0291

> <Gold.Rescore>
     Score         DG    S(hbond)    S(metal)    S(lipo)     H(rot)  DE(clash)    DE(int)     intcor
     14.57     -18.93       2.58        0.00      70.38       1.32       1.83       2.53       ----

> <Gold.Chemscore.Fitness>
14.5690

> <Gold.Chemscore.DG>
-18.9253

> <Gold.Chemscore.ZeroCoef>
-5.4800

> <Gold.Chemscore.Hbond>
2.5755

> <Gold.Chemscore.Metal>
0.0000

> <Gold.Chemscore.Lipo>
70.3764

> <Gold.Chemscore.Internal_Hbond>
0.0000

> <Gold.Chemscore.DEClash>
1.8296

> <Gold.Chemscore.DEInternal>
2.5267

> <Gold.Chemscore.Rot>
1.3246

> <Gold.Chemscore.Internal.Correction>
   9.000000E+99

> <Gold.Chemscore.Hbonds>
donor molecule, donor type, donor heavy atom, donor atom, acceptor molecule, acceptor atom, score
      L1  H    13    39       P1  7948  0.91
      P1  H  7989  7998       L1     8  0.51
      P1  H  7997  8010       L1     6  0.62

> <Gold.Chemscore.Hbond.Weighted>
-8.6022

> <Gold.Chemscore.Metal.Weighted>
-0.0000

> <Gold.Chemscore.Lipo.Weighted>
-8.2340

> <Gold.Chemscore.Internal_Hbond.Weighted>
0.0000

> <Gold.Chemscore.DEClash.Weighted>
1.8296

> <Gold.Chemscore.DEInternal.Weighted>
2.5267

> <Gold.Chemscore.Rot.Weighted>
3.3910

> <Gold.Chemscore.Internal.Correction.Weighted>
   9.000000E+99

> <Gold.Protein.RotatedTorsions>
[ 6907 6896 6895 6894 ] final   -7.34 input  -60.11 | X-H torsion
[ 7974 7965 7964 7962 ] final   -2.17 input  175.53 | X-H torsion
[ 8008 7997 7996 7995 ] final   74.81 input   59.86 | X-H torsion
[ 10167 10162 10161 10158 ] final  -75.93 input  -65.29 | X-H torsion
[ 10718 10713 10712 10709 ] final -113.80 input   66.30 | X-H torsion
[ 10763 10752 10751 10750 ] final  144.13 input  -60.55 | X-H torsion
[ 11005 11000 10999 10996 ] final  146.26 input  -57.11 | X-H torsion

> <Gold.Protein.ActiveResidues>
 VAL166  LYS551  ARG553  GLY616  TRP617  ASP618  TYR619  PRO620  LYS621  CYS622 
 ASP623  PHE694  ASN695  SER759  ASP760  ASP761  ALA762  ILE779  LEU786  VAL792 
 PHE793  MET794  SER795  GLU796  ALA797  LYS798  CYS799  TRP800  GLU811  SER814 

> <Gold.Protein.RotatedAtoms>
  151.4511  135.1030  159.9697 H   0  0  0  0  0  0  0  0  0  0  0  0  # atno 6907 bound_to 6896
  152.4888  133.8439  159.7177 H   0  0  0  0  0  0  0  0  0  0  0  0  # atno 6908 bound_to 6896
  150.9021  133.7045  159.2903 H   0  0  0  0  0  0  0  0  0  0  0  0  # atno 6909 bound_to 6896
  146.2408  140.1530  142.8333 H   0  0  0  0  0  0  0  0  0  0  0  0  # atno 7974 bound_to 7965
  155.8038  140.3475  155.5418 H   0  0  0  0  0  0  0  0  0  0  0  0  # atno 8008 bound_to 7997
  155.8511  140.0956  157.1694 H   0  0  0  0  0  0  0  0  0  0  0  0  # atno 8009 bound_to 7997
  154.4008  140.1376  156.3832 H   0  0  0  0  0  0  0  0  0  0  0  0  # atno 8010 bound_to 7997
  140.4900  143.2382  151.7922 H   0  0  0  0  0  0  0  0  0  0  0  0  # atno 10167 bound_to 10162
  156.0789  130.5992  150.8691 H   0  0  0  0  0  0  0  0  0  0  0  0  # atno 10718 bound_to 10713
  153.9837  135.2939  155.3418 H   0  0  0  0  0  0  0  0  0  0  0  0  # atno 10763 bound_to 10752
  154.7254  135.5091  153.8881 H   0  0  0  0  0  0  0  0  0  0  0  0  # atno 10764 bound_to 10752
  153.0842  135.6688  154.0098 H   0  0  0  0  0  0  0  0  0  0  0  0  # atno 10765 bound_to 10752
  140.0779  134.9114  157.1453 H   0  0  0  0  0  0  0  0  0  0  0  0  # atno 11005 bound_to 11000
  145.0152  140.8747  143.5200 LP  0  0  0  0  0  0  0  0  0  0  0  0  # atno 17320 bound_to 7965
  145.1570  139.2481  143.5411 LP  0  0  0  0  0  0  0  0  0  0  0  0  # atno 17321 bound_to 7965
  139.4849  144.4661  151.9482 LP  0  0  0  0  0  0  0  0  0  0  0  0  # atno 17342 bound_to 10162
  140.3748  144.2810  150.5915 LP  0  0  0  0  0  0  0  0  0  0  0  0  # atno 17343 bound_to 10162
  157.5898  131.0945  150.9138 LP  0  0  0  0  0  0  0  0  0  0  0  0  # atno 17370 bound_to 10713
  156.9316  130.5352  149.5279 LP  0  0  0  0  0  0  0  0  0  0  0  0  # atno 17371 bound_to 10713
  140.3531  134.2577  155.7196 LP  0  0  0  0  0  0  0  0  0  0  0  0  # atno 17394 bound_to 11000
  141.2036  133.7908  157.0330 LP  0  0  0  0  0  0  0  0  0  0  0  0  # atno 17395 bound_to 11000

$$$$
