AV-unprocessed.smi:59|AV-procd|sdf|585|dock2
  -GOLD-   2262016483D 1   1.00000     0.00000
 Structure written by MMmdl.
 29 30  0  0  0  0  0  0  0  0  2 V2000
  153.3057  137.5669  159.8796 C   0  0  0  0  0  0  0  0  0  0  0  0
  152.3256  138.3595  159.1470 N   0  0  0  0  0  0  0  0  0  0  0  0
  151.0586  138.0003  158.9143 C   0  0  0  0  0  0  0  0  0  0  0  0
  150.5148  136.9685  159.3091 O   0  0  0  0  0  0  0  0  0  0  0  0
  150.3468  139.0510  158.0734 C   0  0  2  0  0  0  0  0  0  0  0  0
  149.5663  138.4393  157.0595 O   0  0  0  0  0  0  0  0  0  0  0  0
  151.5017  139.9789  157.6072 C   0  0  2  0  0  0  0  0  0  0  0  0
  151.9119  139.7619  156.1344 C   0  0  0  0  0  0  0  0  0  0  0  0
  151.0803  140.0492  155.2440 O   0  0  0  0  0  0  0  0  0  0  0  0
  153.0557  139.2996  155.9293 O   0  5  0  0  0  0  0  0  0  0  0  0
  152.6734  139.6558  158.5738 C   0  0  1  0  0  0  0  0  0  0  0  0
  152.8564  140.7436  159.6089 C   0  0  0  0  0  0  0  0  0  0  0  0
  153.8006  140.8198  160.6750 C   0  0  0  0  0  0  0  0  0  0  0  0
  153.6746  141.9187  161.4006 N   0  0  0  0  0  0  0  0  0  0  0  0
  152.6482  142.5804  160.8292 N   0  0  0  0  0  0  0  0  0  0  0  0
  152.2243  143.8505  161.3781 C   0  0  0  0  0  0  0  0  0  0  0  0
  152.1358  141.8965  159.7483 C   0  0  0  0  0  0  0  0  0  0  0  0
  149.6752  139.6064  158.7288 H   0  0  0  0  0  0  0  0  0  0  0  0
  151.1949  141.0219  157.7070 H   0  0  0  0  0  0  0  0  0  0  0  0
  153.6094  139.5301  158.0260 H   0  0  0  0  0  0  0  0  0  0  0  0
  152.9556  137.3665  160.8927 H   0  0  0  0  0  0  0  0  0  0  0  0
  154.2612  138.0873  159.9494 H   0  0  0  0  0  0  0  0  0  0  0  0
  153.4752  136.6135  159.3784 H   0  0  0  0  0  0  0  0  0  0  0  0
  149.1124  139.1176  156.5834 H   0  0  0  0  0  0  0  0  0  0  0  0
  154.5699  140.1104  160.9422 H   0  0  0  0  0  0  0  0  0  0  0  0
  151.3875  144.2463  160.8019 H   0  0  0  0  0  0  0  0  0  0  0  0
  153.0493  144.5626  161.3402 H   0  0  0  0  0  0  0  0  0  0  0  0
  151.9107  143.7184  162.4141 H   0  0  0  0  0  0  0  0  0  0  0  0
  151.3066  142.2792  159.1716 H   0  0  0  0  0  0  0  0  0  0  0  0
  1  2  1  0  0  0  0
  1 21  1  0  0  0  0
  1 22  1  0  0  0  0
  1 23  1  0  0  0  0
  2 11  1  0  0  0  0
  2  3  1  0  0  0  0
  3  4  2  0  0  0  0
  3  5  1  0  0  0  0
  5 18  1  0  0  0  0
  5  6  1  0  0  0  0
  5  7  1  0  0  0  0
  6 24  1  0  0  0  0
  7 19  1  0  0  0  0
  7  8  1  0  0  0  0
  7 11  1  0  0  0  0
  8  9  2  0  0  0  0
  8 10  1  0  0  0  0
 11 20  1  0  0  0  0
 11 12  1  0  0  0  0
 12 17  2  0  0  0  0
 12 13  1  0  0  0  0
 13 14  2  0  0  0  0
 13 25  1  0  0  0  0
 14 15  1  0  0  0  0
 15 16  1  0  0  0  0
 15 17  1  0  0  0  0
 16 26  1  0  0  0  0
 16 27  1  0  0  0  0
 16 28  1  0  0  0  0
 17 29  1  0  0  0  0
M  CHG  1  10  -1
M  END
> <s_m_source_file>
AV-unprocessed.smi

> <i_m_source_file_index>
59

> <i_lp_mmshare_version>
43012

> <i_f3d_flags>
0

> <s_epik_input>
W0NIM11OMUMoPU8pW0NASF0oW09IXSlbQ0BIXShDKD1PKVtPSF0pW0NASF0xYzJbY0hdbm4oW0NIM10pW2NIXTI=

> <s_epik_cmdline>
J2VwaWtfcHl0aG9uJywgJy1waCcsICc3LjAnLCAnLXRuJywgJzgnLCAnLW1hJywgJzIwMCcsICctbWV0YWxfYmluZGluZycsICctaW1hZScsICc8aW5maWxlLm1hZT4nLCAnLW9tYWUnLCAnPG91dGZpbGUubWFlPic=

> <r_lp_tautomer_probability>
1

> <r_epik_Ionization_Penalty>
0.00173515

> <r_epik_Ionization_Penalty_Charging>
0.00120567

> <r_epik_Ionization_Penalty_Neutral>
0.000529476

> <r_epik_State_Penalty>
-0

> <r_epik_Charging_Adjusted_Penalty>
0.00120567

> <i_epik_Tot_Q>
-1

> <i_epik_Tot_abs_Q>
1

> <r_epik_Metal_State_Penalty>
-0

> <b_epik_Metal_Only>
0

> <s_lp_Force_Field>
OPLS_2005

> <r_lp_Energy>
7.95478

> <b_lp_Chiralities_Consistent>
1

> <s_lp_Variant>
AV-unprocessed.smi:59-1

> <Gold.Version>
5.8.1

> <Gold.Id.Protein>
6NUR|6NUR_protein|mol2

> <Gold.PLP.Fitness>
44.8368

> <Gold.PLP.PLP>
-32.9323

> <Gold.PLP.part.hbond>
-2.8805

> <Gold.PLP.part.metal>
0.0000

> <Gold.PLP.part.buried>
-6.2458

> <Gold.PLP.part.nonpolar>
-24.5203

> <Gold.PLP.part.repulsive>
0.0342

> <Gold.PLP.ligand.clash>
0.0000

> <Gold.PLP.ligand.torsion>
0.0541

> <Gold.PLP.Chemscore.Hbond>
4.0000

> <Gold.PLP.Chemscore.CHOScore>
0.0000

> <Gold.PLP.Chemscore.Metal>
0.0000

> <Gold.Chemscore.Hbonds>
donor molecule, donor type, donor heavy atom, donor atom, acceptor molecule, acceptor atom, score
      P1  H  6896  6909       L1     4  0.91
      P1  H  7989  7998       L1     9  1.00
      P1  H  7997  8008       L1    10  2.00

> <Gold.PLP.Chemscore.Internal.Correction>
0.0126

> <Gold.Rescore>
     Score         DG    S(hbond)    S(metal)    S(lipo)     H(rot)  DE(clash)    DE(int)     intcor
     15.27     -16.64       2.93        0.00      56.87       2.06       0.00       1.37       ----

> <Gold.Chemscore.Fitness>
15.2719

> <Gold.Chemscore.DG>
-16.6384

> <Gold.Chemscore.ZeroCoef>
-5.4800

> <Gold.Chemscore.Hbond>
2.9306

> <Gold.Chemscore.Metal>
0.0000

> <Gold.Chemscore.Lipo>
56.8706

> <Gold.Chemscore.Internal_Hbond>
0.0000

> <Gold.Chemscore.DEClash>
0.0000

> <Gold.Chemscore.DEInternal>
1.3666

> <Gold.Chemscore.Rot>
2.0639

> <Gold.Chemscore.Internal.Correction>
   9.000000E+99

> <Gold.Chemscore.Hbonds>
donor molecule, donor type, donor heavy atom, donor atom, acceptor molecule, acceptor atom, score
      P1  H  6896  6909       L1     4  0.87
      P1  H  7989  7998       L1     9  0.94
      P1  H  7997  8008       L1    10  0.97

> <Gold.Chemscore.Hbond.Weighted>
-9.7882

> <Gold.Chemscore.Metal.Weighted>
-0.0000

> <Gold.Chemscore.Lipo.Weighted>
-6.6539

> <Gold.Chemscore.Internal_Hbond.Weighted>
0.0000

> <Gold.Chemscore.DEClash.Weighted>
0.0000

> <Gold.Chemscore.DEInternal.Weighted>
1.3666

> <Gold.Chemscore.Rot.Weighted>
5.2837

> <Gold.Chemscore.Internal.Correction.Weighted>
   9.000000E+99

> <Gold.Protein.RotatedTorsions>
[ 6907 6896 6895 6894 ] final   84.92 input  -60.11 | X-H torsion
[ 7974 7965 7964 7962 ] final  -83.60 input  175.53 | X-H torsion
[ 8008 7997 7996 7995 ] final  -22.79 input   59.86 | X-H torsion
[ 10167 10162 10161 10158 ] final  -27.34 input  -65.29 | X-H torsion
[ 10718 10713 10712 10709 ] final  -59.47 input   66.30 | X-H torsion
[ 10763 10752 10751 10750 ] final  -18.42 input  -60.55 | X-H torsion
[ 11005 11000 10999 10996 ] final  177.59 input  -57.11 | X-H torsion

> <Gold.Protein.ActiveResidues>
 VAL166  LYS551  ARG553  GLY616  TRP617  ASP618  TYR619  PRO620  LYS621  CYS622 
 ASP623  PHE694  ASN695  SER759  ASP760  ASP761  ALA762  ILE779  LEU786  VAL792 
 PHE793  MET794  SER795  GLU796  ALA797  LYS798  CYS799  TRP800  GLU811  SER814 

> <Gold.Protein.RotatedAtoms>
  152.5363  134.2667  159.8955 H   0  0  0  0  0  0  0  0  0  0  0  0  # atno 6907 bound_to 6896
  151.2625  133.4288  159.2624 H   0  0  0  0  0  0  0  0  0  0  0  0  # atno 6908 bound_to 6896
  151.0440  134.9641  159.8233 H   0  0  0  0  0  0  0  0  0  0  0  0  # atno 6909 bound_to 6896
  145.5178  140.9534  143.1672 H   0  0  0  0  0  0  0  0  0  0  0  0  # atno 7974 bound_to 7965
  154.4623  140.1998  156.0211 H   0  0  0  0  0  0  0  0  0  0  0  0  # atno 8008 bound_to 7997
  156.0863  140.3264  155.7730 H   0  0  0  0  0  0  0  0  0  0  0  0  # atno 8009 bound_to 7997
  155.5029  140.0555  157.2927 H   0  0  0  0  0  0  0  0  0  0  0  0  # atno 8010 bound_to 7997
  140.7278  143.4101  151.1119 H   0  0  0  0  0  0  0  0  0  0  0  0  # atno 10167 bound_to 10162
  156.1059  130.4180  150.0720 H   0  0  0  0  0  0  0  0  0  0  0  0  # atno 10718 bound_to 10713
  153.5891  135.7003  153.5431 H   0  0  0  0  0  0  0  0  0  0  0  0  # atno 10763 bound_to 10752
  153.3194  135.4078  155.1403 H   0  0  0  0  0  0  0  0  0  0  0  0  # atno 10764 bound_to 10752
  154.8604  135.3692  154.5422 H   0  0  0  0  0  0  0  0  0  0  0  0  # atno 10765 bound_to 10752
  140.3858  134.6906  157.4478 H   0  0  0  0  0  0  0  0  0  0  0  0  # atno 11005 bound_to 11000
  144.7692  139.6773  143.7202 LP  0  0  0  0  0  0  0  0  0  0  0  0  # atno 17320 bound_to 7965
  146.2125  139.5492  142.9671 LP  0  0  0  0  0  0  0  0  0  0  0  0  # atno 17321 bound_to 7965
  139.7733  143.8462  152.3124 LP  0  0  0  0  0  0  0  0  0  0  0  0  # atno 17342 bound_to 10162
  139.8388  144.7220  150.9357 LP  0  0  0  0  0  0  0  0  0  0  0  0  # atno 17343 bound_to 10162
  156.8696  130.9519  151.3610 LP  0  0  0  0  0  0  0  0  0  0  0  0  # atno 17370 bound_to 10713
  157.6236  130.8674  149.9150 LP  0  0  0  0  0  0  0  0  0  0  0  0  # atno 17371 bound_to 10713
  140.0444  134.6221  155.8940 LP  0  0  0  0  0  0  0  0  0  0  0  0  # atno 17394 bound_to 11000
  141.1908  133.6569  156.5427 LP  0  0  0  0  0  0  0  0  0  0  0  0  # atno 17395 bound_to 11000

$$$$
