AV-unprocessed.smi:36|AV-procd|sdf|282|dock4
  -GOLD-   2262016 53D 1   1.00000     0.00000
 Structure written by MMmdl.
 64 67  0  0  0  0  0  0  0  0  1 V2000
  150.5822  127.4681  164.6110 C   0  0  0  0  0  0  0  0  0  0  0  0
  150.3182  127.8413  166.0797 C   0  0  0  0  0  0  0  0  0  0  0  0
  149.0382  128.6899  166.1662 C   0  0  0  0  0  0  0  0  0  0  0  0
  150.1477  126.5640  166.9189 C   0  0  0  0  0  0  0  0  0  0  0  0
  151.8154  128.8318  166.7504 Si  0  0  0  0  0  0  0  0  0  0  0  0
  151.3908  129.6010  168.4347 C   0  0  0  0  0  0  0  0  0  0  0  0
  153.3532  127.7270  166.9179 C   0  0  0  0  0  0  0  0  0  0  0  0
  152.1674  130.1052  165.6907 O   0  0  0  0  0  0  0  0  0  0  0  0
  152.9875  131.2078  166.0206 C   0  0  0  0  0  0  0  0  0  0  0  0
  153.2338  132.0543  164.7629 C   0  0  1  0  0  0  0  0  0  0  0  0
  154.2114  133.0606  165.0037 O   0  0  0  0  0  0  0  0  0  0  0  0
  154.8777  133.3802  163.8175 C   0  0  2  0  0  0  0  0  0  0  0  0
  154.5613  134.7957  163.4664 N   0  0  0  0  0  0  0  0  0  0  0  0
  154.1299  135.8174  164.2849 C   0  0  0  0  0  0  0  0  0  0  0  0
  153.9309  136.9630  163.6890 N   0  0  0  0  0  0  0  0  0  0  0  0
  154.2456  136.7103  162.3594 C   0  0  0  0  0  0  0  0  0  0  0  0
  154.2539  137.5018  161.1811 C   0  0  0  0  0  0  0  0  0  0  0  0
  153.8920  138.8053  161.2330 N   0  0  0  0  0  0  0  0  0  0  0  0
  153.6248  139.7057  160.1249 C   0  0  0  0  0  0  0  0  0  0  0  0
  153.6524  139.3282  158.9532 O   0  0  0  0  0  0  0  0  0  0  0  0
  153.2410  141.1102  160.4913 C   0  0  0  0  0  0  0  0  0  0  0  0
  153.3661  141.5501  161.8285 C   0  0  0  0  0  0  0  0  0  0  0  0
  152.9915  142.8596  162.1872 C   0  0  0  0  0  0  0  0  0  0  0  0
  152.4820  143.7388  161.2131 C   0  0  0  0  0  0  0  0  0  0  0  0
  152.3437  143.3062  159.8809 C   0  0  0  0  0  0  0  0  0  0  0  0
  152.7176  141.9966  159.5210 C   0  0  0  0  0  0  0  0  0  0  0  0
  154.6238  136.8941  160.0228 N   0  0  0  0  0  0  0  0  0  0  0  0
  154.9664  135.6023  160.0190 C   0  0  0  0  0  0  0  0  0  0  0  0
  155.0083  134.7473  161.0433 N   0  0  0  0  0  0  0  0  0  0  0  0
  154.6376  135.3513  162.2088 C   0  0  0  0  0  0  0  0  0  0  0  0
  154.3619  132.4402  162.7219 C   0  0  0  0  0  0  0  0  0  0  0  0
  153.7493  131.3106  163.5247 C   0  0  1  0  0  0  0  0  0  0  0  0
  154.7225  130.3357  163.8478 O   0  0  0  0  0  0  0  0  0  0  0  0
  149.7516  126.8999  164.1908 H   0  0  0  0  0  0  0  0  0  0  0  0
  151.4791  126.8566  164.5095 H   0  0  0  0  0  0  0  0  0  0  0  0
  150.7177  128.3568  163.9940 H   0  0  0  0  0  0  0  0  0  0  0  0
  149.1443  129.6297  165.6241 H   0  0  0  0  0  0  0  0  0  0  0  0
  148.7821  128.9275  167.1972 H   0  0  0  0  0  0  0  0  0  0  0  0
  148.1856  128.1612  165.7383 H   0  0  0  0  0  0  0  0  0  0  0  0
  149.2986  125.9731  166.5739 H   0  0  0  0  0  0  0  0  0  0  0  0
  149.9791  126.8004  167.9699 H   0  0  0  0  0  0  0  0  0  0  0  0
  151.0328  125.9298  166.8632 H   0  0  0  0  0  0  0  0  0  0  0  0
  151.1774  128.8382  169.1832 H   0  0  0  0  0  0  0  0  0  0  0  0
  150.5168  130.2490  168.3715 H   0  0  0  0  0  0  0  0  0  0  0  0
  152.2143  130.2049  168.8148 H   0  0  0  0  0  0  0  0  0  0  0  0
  153.1774  126.8979  167.6028 H   0  0  0  0  0  0  0  0  0  0  0  0
  154.2064  128.2876  167.2994 H   0  0  0  0  0  0  0  0  0  0  0  0
  153.6496  127.2996  165.9602 H   0  0  0  0  0  0  0  0  0  0  0  0
  152.4804  131.8082  166.7762 H   0  0  0  0  0  0  0  0  0  0  0  0
  153.9258  130.8752  166.4623 H   0  0  0  0  0  0  0  0  0  0  0  0
  152.3083  132.5667  164.4950 H   0  0  0  0  0  0  0  0  0  0  0  0
  155.9578  133.3435  163.9651 H   0  0  0  0  0  0  0  0  0  0  0  0
  153.9682  135.6879  165.3449 H   0  0  0  0  0  0  0  0  0  0  0  0
  153.8285  139.2103  162.1556 H   0  0  0  0  0  0  0  0  0  0  0  0
  153.7533  140.8871  162.5888 H   0  0  0  0  0  0  0  0  0  0  0  0
  153.0939  143.1886  163.2107 H   0  0  0  0  0  0  0  0  0  0  0  0
  152.1941  144.7426  161.4885 H   0  0  0  0  0  0  0  0  0  0  0  0
  151.9476  143.9788  159.1344 H   0  0  0  0  0  0  0  0  0  0  0  0
  152.5936  141.6837  158.4945 H   0  0  0  0  0  0  0  0  0  0  0  0
  155.2475  135.1969  159.0583 H   0  0  0  0  0  0  0  0  0  0  0  0
  153.5886  132.9422  162.1378 H   0  0  0  0  0  0  0  0  0  0  0  0
  155.1643  132.1337  162.0498 H   0  0  0  0  0  0  0  0  0  0  0  0
  152.9397  130.8209  162.9827 H   0  0  0  0  0  0  0  0  0  0  0  0
  154.4862  129.9391  164.6725 H   0  0  0  0  0  0  0  0  0  0  0  0
  1  2  1  0  0  0  0
  1 34  1  0  0  0  0
  1 35  1  0  0  0  0
  1 36  1  0  0  0  0
  2  3  1  0  0  0  0
  2  4  1  0  0  0  0
  2  5  1  0  0  0  0
  3 37  1  0  0  0  0
  3 38  1  0  0  0  0
  3 39  1  0  0  0  0
  4 40  1  0  0  0  0
  4 41  1  0  0  0  0
  4 42  1  0  0  0  0
  5  6  1  0  0  0  0
  5  7  1  0  0  0  0
  5  8  1  0  0  0  0
  6 43  1  0  0  0  0
  6 44  1  0  0  0  0
  6 45  1  0  0  0  0
  7 46  1  0  0  0  0
  7 47  1  0  0  0  0
  7 48  1  0  0  0  0
  8  9  1  0  0  0  0
  9 10  1  0  0  0  0
  9 49  1  0  0  0  0
  9 50  1  0  0  0  0
 10 32  1  0  0  0  0
 10 11  1  0  0  0  0
 10 51  1  0  0  0  0
 11 12  1  0  0  0  0
 12 13  1  0  0  0  0
 12 31  1  0  0  0  0
 12 52  1  0  0  0  0
 13 30  1  0  0  0  0
 13 14  1  0  0  0  0
 14 15  2  0  0  0  0
 14 53  1  0  0  0  0
 15 16  1  0  0  0  0
 16 30  2  0  0  0  0
 16 17  1  0  0  0  0
 17 18  1  0  0  0  0
 17 27  2  0  0  0  0
 18 19  1  0  0  0  0
 18 54  1  0  0  0  0
 19 20  2  0  0  0  0
 19 21  1  0  0  0  0
 21 26  1  0  0  0  0
 21 22  2  0  0  0  0
 22 23  1  0  0  0  0
 22 55  1  0  0  0  0
 23 24  2  0  0  0  0
 23 56  1  0  0  0  0
 24 25  1  0  0  0  0
 24 57  1  0  0  0  0
 25 26  2  0  0  0  0
 25 58  1  0  0  0  0
 26 59  1  0  0  0  0
 27 28  1  0  0  0  0
 28 29  2  0  0  0  0
 28 60  1  0  0  0  0
 29 30  1  0  0  0  0
 31 32  1  0  0  0  0
 31 61  1  0  0  0  0
 31 62  1  0  0  0  0
 32 33  1  0  0  0  0
 32 63  1  0  0  0  0
 33 64  1  0  0  0  0
M  END
> <s_m_source_file>
AV-unprocessed.smi

> <i_m_source_file_index>
36

> <i_lp_mmshare_version>
43012

> <i_f3d_flags>
0

> <s_epik_input>
W0NIM11DKFtDSDNdKShbQ0gzXSlbU2ldKFtDSDNdKShbQ0gzXSlPW0NIMl1bQ0BASF0xT1tDQEhdKFtDSDJdW0NASF0xW09IXSluKFtjSF1uMiljKGMyMyluW2NIXW5jM1tOSF1DKD1PKWM0W2NIXVtjSF1bY0hdW2NIXVtjSF00

> <s_epik_cmdline>
J2VwaWtfcHl0aG9uJywgJy1waCcsICc3LjAnLCAnLXRuJywgJzgnLCAnLW1hJywgJzIwMCcsICctbWV0YWxfYmluZGluZycsICctaW1hZScsICc8aW5maWxlLm1hZT4nLCAnLW9tYWUnLCAnPG91dGZpbGUubWFlPic=

> <r_lp_tautomer_probability>
1

> <r_epik_Ionization_Penalty>
0.00150433

> <r_epik_Ionization_Penalty_Charging>
0

> <r_epik_Ionization_Penalty_Neutral>
0.00150433

> <r_epik_State_Penalty>
0.00724046

> <r_epik_Charging_Adjusted_Penalty>
0.00724046

> <i_epik_Tot_Q>
0

> <i_epik_Tot_abs_Q>
0

> <r_epik_Metal_State_Penalty>
0.323355

> <b_epik_Metal_Only>
0

> <s_epik_Chemistry_Notes>
This compound contains an acetal/aminal-like group ( X-CH(R)-Y where X, Y are N, S, or O) that may be acid/base labile, releasing an aldehyde.

> <s_lp_Force_Field>
OPLS_2005

> <r_lp_Energy>
37.9666

> <b_lp_Chiralities_Consistent>
1

> <s_lp_Variant>
AV-unprocessed.smi:36-4

> <Gold.Version>
5.8.1

> <Gold.Id.Protein>
6NUR|6NUR_protein|mol2

> <Gold.PLP.Fitness>
59.7496

> <Gold.PLP.PLP>
-58.8331

> <Gold.PLP.part.hbond>
-1.0000

> <Gold.PLP.part.metal>
0.0000

> <Gold.PLP.part.buried>
-7.5079

> <Gold.PLP.part.nonpolar>
-49.9944

> <Gold.PLP.part.repulsive>
0.2045

> <Gold.PLP.ligand.clash>
0.0000

> <Gold.PLP.ligand.torsion>
1.0970

> <Gold.PLP.Chemscore.Hbond>
1.0000

> <Gold.PLP.Chemscore.CHOScore>
0.0000

> <Gold.PLP.Chemscore.Metal>
0.0000

> <Gold.Chemscore.Hbonds>
donor molecule, donor type, donor heavy atom, donor atom, acceptor molecule, acceptor atom, score
      P1  H  7997  8009       L1    20  0.57

> <Gold.PLP.Chemscore.Internal.Correction>
0.1106

> <Gold.Rescore>
     Score         DG    S(hbond)    S(metal)    S(lipo)     H(rot)  DE(clash)    DE(int)     intcor
     12.79     -17.61       1.00        0.00     134.34       2.70       0.11       4.70       ----

> <Gold.Chemscore.Fitness>
12.7932

> <Gold.Chemscore.DG>
-17.6119

> <Gold.Chemscore.ZeroCoef>
-5.4800

> <Gold.Chemscore.Hbond>
0.9991

> <Gold.Chemscore.Metal>
0.0000

> <Gold.Chemscore.Lipo>
134.3369

> <Gold.Chemscore.Internal_Hbond>
0.0000

> <Gold.Chemscore.DEClash>
0.1140

> <Gold.Chemscore.DEInternal>
4.7047

> <Gold.Chemscore.Rot>
2.7041

> <Gold.Chemscore.Internal.Correction>
   9.000000E+99

> <Gold.Chemscore.Hbonds>
donor molecule, donor type, donor heavy atom, donor atom, acceptor molecule, acceptor atom, score
      P1  H  7997  8009       L1    20  0.58

> <Gold.Chemscore.Hbond.Weighted>
-3.3369

> <Gold.Chemscore.Metal.Weighted>
-0.0000

> <Gold.Chemscore.Lipo.Weighted>
-15.7174

> <Gold.Chemscore.Internal_Hbond.Weighted>
0.0000

> <Gold.Chemscore.DEClash.Weighted>
0.1140

> <Gold.Chemscore.DEInternal.Weighted>
4.7047

> <Gold.Chemscore.Rot.Weighted>
6.9225

> <Gold.Chemscore.Internal.Correction.Weighted>
   9.000000E+99

> <Gold.Protein.RotatedTorsions>
[ 6907 6896 6895 6894 ] final -170.62 input  -60.11 | X-H torsion
[ 7974 7965 7964 7962 ] final   67.22 input  175.53 | X-H torsion
[ 8008 7997 7996 7995 ] final  138.89 input   59.86 | X-H torsion
[ 10167 10162 10161 10158 ] final  -25.39 input  -65.29 | X-H torsion
[ 10718 10713 10712 10709 ] final   99.19 input   66.30 | X-H torsion
[ 10763 10752 10751 10750 ] final -111.01 input  -60.55 | X-H torsion
[ 11005 11000 10999 10996 ] final   33.61 input  -57.11 | X-H torsion

> <Gold.Protein.ActiveResidues>
 VAL166  LYS551  ARG553  GLY616  TRP617  ASP618  TYR619  PRO620  LYS621  CYS622 
 ASP623  PHE694  ASN695  SER759  ASP760  ASP761  ALA762  ILE779  LEU786  VAL792 
 PHE793  MET794  SER795  GLU796  ALA797  LYS798  CYS799  TRP800  GLU811  SER814 

> <Gold.Protein.RotatedAtoms>
  151.5107  133.3485  159.2884 H   0  0  0  0  0  0  0  0  0  0  0  0  # atno 6907 bound_to 6896
  150.8714  134.8091  159.7168 H   0  0  0  0  0  0  0  0  0  0  0  0  # atno 6908 bound_to 6896
  152.4701  134.4991  159.9771 H   0  0  0  0  0  0  0  0  0  0  0  0  # atno 6909 bound_to 6896
  145.8173  139.3065  143.1064 H   0  0  0  0  0  0  0  0  0  0  0  0  # atno 7974 bound_to 7965
  156.2994  140.2382  156.4148 H   0  0  0  0  0  0  0  0  0  0  0  0  # atno 8008 bound_to 7997
  154.8409  140.0428  157.1560 H   0  0  0  0  0  0  0  0  0  0  0  0  # atno 8009 bound_to 7997
  154.9104  140.2989  155.5273 H   0  0  0  0  0  0  0  0  0  0  0  0  # atno 8010 bound_to 7997
  140.7286  143.4269  151.0863 H   0  0  0  0  0  0  0  0  0  0  0  0  # atno 10167 bound_to 10162
  157.6881  131.0662  150.4911 H   0  0  0  0  0  0  0  0  0  0  0  0  # atno 10718 bound_to 10713
  154.8278  135.4543  154.0974 H   0  0  0  0  0  0  0  0  0  0  0  0  # atno 10763 bound_to 10752
  153.2273  135.6901  153.7937 H   0  0  0  0  0  0  0  0  0  0  0  0  # atno 10764 bound_to 10752
  153.7332  135.3323  155.3266 H   0  0  0  0  0  0  0  0  0  0  0  0  # atno 10765 bound_to 10752
  140.2614  134.3188  155.7857 H   0  0  0  0  0  0  0  0  0  0  0  0  # atno 11005 bound_to 11000
  145.9713  140.8758  143.0161 LP  0  0  0  0  0  0  0  0  0  0  0  0  # atno 17320 bound_to 7965
  144.6751  140.1949  143.7393 LP  0  0  0  0  0  0  0  0  0  0  0  0  # atno 17321 bound_to 7965
  139.7921  143.8203  152.3153 LP  0  0  0  0  0  0  0  0  0  0  0  0  # atno 17342 bound_to 10162
  139.8191  144.7303  150.9596 LP  0  0  0  0  0  0  0  0  0  0  0  0  # atno 17343 bound_to 10162
  156.5237  130.4168  149.6237 LP  0  0  0  0  0  0  0  0  0  0  0  0  # atno 17370 bound_to 10713
  156.3131  130.7240  151.2136 LP  0  0  0  0  0  0  0  0  0  0  0  0  # atno 17371 bound_to 10713
  141.2190  133.7411  156.9192 LP  0  0  0  0  0  0  0  0  0  0  0  0  # atno 17394 bound_to 11000
  140.1461  134.9261  157.2532 LP  0  0  0  0  0  0  0  0  0  0  0  0  # atno 17395 bound_to 11000

$$$$
