AV-unprocessed.smi:634|AV-procd|sdf|3136|dock9
  -GOLD-   22720 0 63D 1   1.00000     0.00000
 Structure written by MMmdl.
 32 33  0  0  0  0  0  0  0  0  2 V2000
  145.5675  134.7508  162.7560 C   0  0  0  0  0  0  0  0  0  0  0  0
  146.5879  135.3323  161.8382 C   0  0  0  0  0  0  0  0  0  0  0  0
  147.4692  134.7728  160.9573 C   0  0  0  0  0  0  0  0  0  0  0  0
  148.1392  135.9001  160.4080 C   0  0  0  0  0  0  0  0  0  0  0  0
  149.1191  135.8662  159.4915 N   0  5  0  0  0  0  0  0  0  0  0  0
  149.5840  137.0143  158.9470 C   0  0  0  0  0  0  0  0  0  0  0  0
  149.0205  138.1102  158.9744 O   0  0  0  0  0  0  0  0  0  0  0  0
  150.7724  136.8693  158.3357 N   0  0  0  0  0  0  0  0  0  0  0  0
  151.6015  137.8613  157.6367 C   0  0  2  0  0  0  0  0  0  0  0  0
  153.0689  137.4573  157.8876 C   0  0  0  0  0  0  0  0  0  0  0  0
  151.3714  139.3026  158.1669 C   0  0  0  0  0  0  0  0  0  0  0  0
  151.9519  140.3169  157.1702 C   0  0  0  0  0  0  0  0  0  0  0  0
  151.8519  139.5321  155.5167 S   0  0  0  0  0  0  0  0  0  0  0  0
  150.7558  140.1405  154.7475 O   0  0  0  0  0  0  0  0  0  0  0  0
  153.2072  139.4378  154.9527 O   0  0  0  0  0  0  0  0  0  0  0  0
  151.3237  137.8819  156.1153 C   0  0  0  0  0  0  0  0  0  0  0  0
  147.7143  137.0415  160.9233 N   0  0  0  0  0  0  0  0  0  0  0  0
  146.7149  136.6864  161.8372 O   0  0  0  0  0  0  0  0  0  0  0  0
  146.0474  134.2481  163.5955 H   0  0  0  0  0  0  0  0  0  0  0  0
  144.9494  134.0211  162.2327 H   0  0  0  0  0  0  0  0  0  0  0  0
  144.9107  135.5245  163.1543 H   0  0  0  0  0  0  0  0  0  0  0  0
  147.6108  133.7255  160.7365 H   0  0  0  0  0  0  0  0  0  0  0  0
  151.1577  135.9367  158.3653 H   0  0  0  0  0  0  0  0  0  0  0  0
  153.7701  138.1308  157.3950 H   0  0  0  0  0  0  0  0  0  0  0  0
  153.2714  136.4521  157.5157 H   0  0  0  0  0  0  0  0  0  0  0  0
  153.3048  137.4641  158.9526 H   0  0  0  0  0  0  0  0  0  0  0  0
  150.3062  139.5115  158.2534 H   0  0  0  0  0  0  0  0  0  0  0  0
  151.7881  139.4430  159.1647 H   0  0  0  0  0  0  0  0  0  0  0  0
  151.4111  141.2633  157.1698 H   0  0  0  0  0  0  0  0  0  0  0  0
  153.0013  140.5174  157.3853 H   0  0  0  0  0  0  0  0  0  0  0  0
  151.8506  137.0996  155.5687 H   0  0  0  0  0  0  0  0  0  0  0  0
  150.2634  137.7882  155.8852 H   0  0  0  0  0  0  0  0  0  0  0  0
  1  2  1  0  0  0  0
  1 19  1  0  0  0  0
  1 20  1  0  0  0  0
  1 21  1  0  0  0  0
  2 18  1  0  0  0  0
  2  3  2  0  0  0  0
  3  4  1  0  0  0  0
  3 22  1  0  0  0  0
  4  5  1  0  0  0  0
  4 17  2  0  0  0  0
  5  6  1  0  0  0  0
  6  7  2  0  0  0  0
  6  8  1  0  0  0  0
  8  9  1  0  0  0  0
  8 23  1  0  0  0  0
  9 16  1  0  0  0  0
  9 10  1  0  0  0  0
  9 11  1  0  0  0  0
 10 24  1  0  0  0  0
 10 25  1  0  0  0  0
 10 26  1  0  0  0  0
 11 12  1  0  0  0  0
 11 27  1  0  0  0  0
 11 28  1  0  0  0  0
 12 13  1  0  0  0  0
 12 29  1  0  0  0  0
 12 30  1  0  0  0  0
 13 14  2  0  0  0  0
 13 15  2  0  0  0  0
 13 16  1  0  0  0  0
 16 31  1  0  0  0  0
 16 32  1  0  0  0  0
 17 18  1  0  0  0  0
M  CHG  1   5  -1
M  END
> <s_m_source_file>
AV-unprocessed.smi

> <i_m_source_file_index>
634

> <i_lp_mmshare_version>
43012

> <i_f3d_flags>
0

> <s_epik_input>
W0NIM11jMVtjSF1jKG5vMSlbTkhdQyg9TylbTkhdW0NAQF0yKFtDSDNdKVtDSDJdW0NIMl1TKD1PKSg9TylbQ0gyXTI=

> <s_epik_cmdline>
J2VwaWtfcHl0aG9uJywgJy1waCcsICc3LjAnLCAnLXRuJywgJzgnLCAnLW1hJywgJzIwMCcsICctbWV0YWxfYmluZGluZycsICctaW1hZScsICc8aW5maWxlLm1hZT4nLCAnLW9tYWUnLCAnPG91dGZpbGUubWFlPic=

> <r_lp_tautomer_probability>
1

> <r_epik_Ionization_Penalty>
6.15572

> <r_epik_Ionization_Penalty_Charging>
6.1556

> <r_epik_Ionization_Penalty_Neutral>
0.000118136

> <r_epik_State_Penalty>
6.15558

> <r_epik_Charging_Adjusted_Penalty>
12.3112

> <i_epik_Tot_Q>
-1

> <i_epik_Tot_abs_Q>
1

> <r_epik_Metal_State_Penalty>
2.10569

> <b_epik_Metal_Only>
1

> <s_lp_Force_Field>
OPLS_2005

> <r_lp_Energy>
-1.68809

> <b_lp_Chiralities_Consistent>
1

> <s_lp_Variant>
AV-unprocessed.smi:634-4

> <Gold.Version>
5.8.1

> <Gold.Id.Protein>
6NUR|6NUR_protein|mol2

> <Gold.PLP.Fitness>
43.3460

> <Gold.PLP.PLP>
-27.9298

> <Gold.PLP.part.hbond>
-6.8516

> <Gold.PLP.part.metal>
0.0000

> <Gold.PLP.part.buried>
-5.4737

> <Gold.PLP.part.nonpolar>
-16.6509

> <Gold.PLP.part.repulsive>
0.2089

> <Gold.PLP.ligand.clash>
0.0000

> <Gold.PLP.ligand.torsion>
0.6206

> <Gold.PLP.Chemscore.Hbond>
5.5504

> <Gold.PLP.Chemscore.CHOScore>
0.0000

> <Gold.PLP.Chemscore.Metal>
0.0000

> <Gold.Chemscore.Hbonds>
donor molecule, donor type, donor heavy atom, donor atom, acceptor molecule, acceptor atom, score
      P1  H  6896  6908       L1     5  2.00
      P1  H  6931  6943       L1    17  0.92
      P1  H  6934  6947       L1    17  0.61
      P1  H  7989  7998       L1    14  1.00
      P1  H  7997  8008       L1    15  1.00

> <Gold.PLP.Chemscore.Internal.Correction>
0.0061

> <Gold.Rescore>
     Score         DG    S(hbond)    S(metal)    S(lipo)     H(rot)  DE(clash)    DE(int)     intcor
     14.01     -17.70       2.81        0.00      46.10       1.00       0.02       3.67       ----

> <Gold.Chemscore.Fitness>
14.0145

> <Gold.Chemscore.DG>
-17.7042

> <Gold.Chemscore.ZeroCoef>
-5.4800

> <Gold.Chemscore.Hbond>
2.8116

> <Gold.Chemscore.Metal>
0.0000

> <Gold.Chemscore.Lipo>
46.0988

> <Gold.Chemscore.Internal_Hbond>
0.0000

> <Gold.Chemscore.DEClash>
0.0183

> <Gold.Chemscore.DEInternal>
3.6713

> <Gold.Chemscore.Rot>
1.0000

> <Gold.Chemscore.Internal.Correction>
   9.000000E+99

> <Gold.Chemscore.Hbonds>
donor molecule, donor type, donor heavy atom, donor atom, acceptor molecule, acceptor atom, score
      P1  H  6896  6908       L1     5  0.29
      P1  H  6931  6943       L1    17  0.54
      P1  H  6934  6947       L1    17  0.06
      P1  H  7989  7998       L1    14  0.26
      P1  H  7997  8008       L1    15  0.82

> <Gold.Chemscore.Hbond.Weighted>
-9.3906

> <Gold.Chemscore.Metal.Weighted>
-0.0000

> <Gold.Chemscore.Lipo.Weighted>
-5.3936

> <Gold.Chemscore.Internal_Hbond.Weighted>
0.0000

> <Gold.Chemscore.DEClash.Weighted>
0.0183

> <Gold.Chemscore.DEInternal.Weighted>
3.6713

> <Gold.Chemscore.Rot.Weighted>
2.5600

> <Gold.Chemscore.Internal.Correction.Weighted>
   9.000000E+99

> <Gold.Protein.RotatedTorsions>
[ 6907 6896 6895 6894 ] final -171.07 input  -60.11 | X-H torsion
[ 7974 7965 7964 7962 ] final  -85.12 input  175.53 | X-H torsion
[ 8008 7997 7996 7995 ] final  -24.71 input   59.86 | X-H torsion
[ 10167 10162 10161 10158 ] final  115.24 input  -65.29 | X-H torsion
[ 10718 10713 10712 10709 ] final  133.54 input   66.30 | X-H torsion
[ 10763 10752 10751 10750 ] final  -77.92 input  -60.55 | X-H torsion
[ 11005 11000 10999 10996 ] final -152.26 input  -57.11 | X-H torsion

> <Gold.Protein.ActiveResidues>
 VAL166  LYS551  ARG553  GLY616  TRP617  ASP618  TYR619  PRO620  LYS621  CYS622 
 ASP623  PHE694  ASN695  SER759  ASP760  ASP761  ALA762  ILE779  LEU786  VAL792 
 PHE793  MET794  SER795  GLU796  ALA797  LYS798  CYS799  TRP800  GLU811  SER814 

> <Gold.Protein.RotatedAtoms>
  151.5180  133.3472  159.2896 H   0  0  0  0  0  0  0  0  0  0  0  0  # atno 6907 bound_to 6896
  150.8670  134.8038  159.7137 H   0  0  0  0  0  0  0  0  0  0  0  0  # atno 6908 bound_to 6896
  152.4671  134.5058  159.9790 H   0  0  0  0  0  0  0  0  0  0  0  0  # atno 6909 bound_to 6896
  145.4975  140.9549  143.1778 H   0  0  0  0  0  0  0  0  0  0  0  0  # atno 7974 bound_to 7965
  154.4514  140.1946  156.0506 H   0  0  0  0  0  0  0  0  0  0  0  0  # atno 8008 bound_to 7997
  156.0657  140.3291  155.7487 H   0  0  0  0  0  0  0  0  0  0  0  0  # atno 8009 bound_to 7997
  155.5343  140.0580  157.2873 H   0  0  0  0  0  0  0  0  0  0  0  0  # atno 8010 bound_to 7997
  139.6331  144.7117  151.2391 H   0  0  0  0  0  0  0  0  0  0  0  0  # atno 10167 bound_to 10162
  157.4762  131.1083  150.9739 H   0  0  0  0  0  0  0  0  0  0  0  0  # atno 10718 bound_to 10713
  154.5192  135.5747  153.6667 H   0  0  0  0  0  0  0  0  0  0  0  0  # atno 10763 bound_to 10752
  152.9913  135.6177  154.2777 H   0  0  0  0  0  0  0  0  0  0  0  0  # atno 10764 bound_to 10752
  154.2697  135.2854  155.2723 H   0  0  0  0  0  0  0  0  0  0  0  0  # atno 10765 bound_to 10752
  140.7208  134.3729  157.5183 H   0  0  0  0  0  0  0  0  0  0  0  0  # atno 11005 bound_to 11000
  144.7799  139.6549  143.7159 LP  0  0  0  0  0  0  0  0  0  0  0  0  # atno 17320 bound_to 7965
  146.2246  139.5699  142.9595 LP  0  0  0  0  0  0  0  0  0  0  0  0  # atno 17321 bound_to 7965
  140.7450  143.6445  150.8305 LP  0  0  0  0  0  0  0  0  0  0  0  0  # atno 17342 bound_to 10162
  140.0072  143.5681  152.2853 LP  0  0  0  0  0  0  0  0  0  0  0  0  # atno 17343 bound_to 10162
  157.0488  130.5778  149.5367 LP  0  0  0  0  0  0  0  0  0  0  0  0  # atno 17370 bound_to 10713
  156.0098  130.5189  150.7952 LP  0  0  0  0  0  0  0  0  0  0  0  0  # atno 17371 bound_to 10713
  139.8848  134.8953  156.2678 LP  0  0  0  0  0  0  0  0  0  0  0  0  # atno 17394 bound_to 11000
  141.0005  133.7154  156.0953 LP  0  0  0  0  0  0  0  0  0  0  0  0  # atno 17395 bound_to 11000

$$$$
