AV-unprocessed.smi:1041|AV-procd|sdf|4532|dock8
  -GOLD-   22720 2553D 1   1.00000     0.00000
 Structure written by MMmdl.
 52 53  0  0  0  0  0  0  0  0  1 V2000
  150.2523  145.2362  160.4186 C   0  0  0  0  0  0  0  0  0  0  0  0
  151.2504  146.0946  159.8954 O   0  0  0  0  0  0  0  0  0  0  0  0
  152.2897  145.3849  159.2412 C   0  0  0  0  0  0  0  0  0  0  0  0
  151.6800  144.4154  158.2153 C   0  0  0  0  0  0  0  0  0  0  0  0
  152.1822  143.0418  158.2718 N   0  0  0  0  0  0  0  0  0  0  0  0
  151.1397  142.0964  157.8742 C   0  0  0  0  0  0  0  0  0  0  0  0
  151.6408  140.6435  157.8396 C   0  0  0  0  0  0  0  0  0  0  0  0
  152.1999  140.2234  159.2110 C   0  0  0  0  0  0  0  0  0  0  0  0
  152.7421  138.7806  159.1737 C   0  0  0  0  0  0  0  0  0  0  0  0
  153.6457  138.5104  160.2870 N   0  0  0  0  0  0  0  0  0  0  0  0
  153.9949  137.2959  160.7390 C   0  0  0  0  0  0  0  0  0  0  0  0
  153.5772  136.2434  160.2575 O   0  0  0  0  0  0  0  0  0  0  0  0
  154.9860  137.2639  161.9037 C   0  0  0  0  0  0  0  0  0  0  0  0
  154.8699  136.0631  162.8416 C   0  0  0  0  0  0  0  0  0  0  0  0
  155.1091  134.7810  162.4385 C   0  0  0  0  0  0  0  0  0  0  0  0
  155.5105  134.4266  161.0171 C   0  0  0  0  0  0  0  0  0  0  0  0
  154.9991  133.6996  163.3238 N   0  0  0  0  0  0  0  0  0  0  0  0
  154.6624  133.9318  164.5498 C   0  0  0  0  0  0  0  0  0  0  0  0
  154.5089  132.8543  165.6023 C   0  0  0  0  0  0  0  0  0  0  0  0
  154.4020  135.2160  165.0245 N   0  0  0  0  0  0  0  0  0  0  0  0
  154.4786  136.3157  164.2422 C   0  0  0  0  0  0  0  0  0  0  0  0
  154.2212  137.4262  164.7044 O   0  0  0  0  0  0  0  0  0  0  0  0
  153.2544  141.2577  159.6572 C   0  0  0  0  0  0  0  0  0  0  0  0
  152.6872  142.6867  159.6005 C   0  0  0  0  0  0  0  0  0  0  0  0
  154.1392  135.3366  165.9918 H   0  0  0  0  0  0  0  0  0  0  0  0
  149.4786  145.8287  160.9068 H   0  0  0  0  0  0  0  0  0  0  0  0
  150.6692  144.5518  161.1585 H   0  0  0  0  0  0  0  0  0  0  0  0
  149.7801  144.6519  159.6279 H   0  0  0  0  0  0  0  0  0  0  0  0
  152.9851  146.0769  158.7655 H   0  0  0  0  0  0  0  0  0  0  0  0
  152.8633  144.8172  159.9752 H   0  0  0  0  0  0  0  0  0  0  0  0
  150.5942  144.4144  158.3212 H   0  0  0  0  0  0  0  0  0  0  0  0
  151.8819  144.8242  157.2245 H   0  0  0  0  0  0  0  0  0  0  0  0
  150.2905  142.1729  158.5552 H   0  0  0  0  0  0  0  0  0  0  0  0
  150.7646  142.3591  156.8842 H   0  0  0  0  0  0  0  0  0  0  0  0
  150.8259  139.9804  157.5473 H   0  0  0  0  0  0  0  0  0  0  0  0
  152.4129  140.5427  157.0755 H   0  0  0  0  0  0  0  0  0  0  0  0
  151.3766  140.2536  159.9272 H   0  0  0  0  0  0  0  0  0  0  0  0
  151.9134  138.0765  159.2525 H   0  0  0  0  0  0  0  0  0  0  0  0
  153.2206  138.5778  158.2140 H   0  0  0  0  0  0  0  0  0  0  0  0
  154.0504  139.3145  160.7450 H   0  0  0  0  0  0  0  0  0  0  0  0
  155.9971  137.2949  161.4967 H   0  0  0  0  0  0  0  0  0  0  0  0
  154.8890  138.1959  162.4616 H   0  0  0  0  0  0  0  0  0  0  0  0
  156.4640  134.8885  160.7610 H   0  0  0  0  0  0  0  0  0  0  0  0
  154.7561  134.7685  160.3083 H   0  0  0  0  0  0  0  0  0  0  0  0
  155.6186  133.3483  160.8931 H   0  0  0  0  0  0  0  0  0  0  0  0
  153.7627  132.1249  165.2862 H   0  0  0  0  0  0  0  0  0  0  0  0
  154.1948  133.2691  166.5612 H   0  0  0  0  0  0  0  0  0  0  0  0
  155.4563  132.3352  165.7490 H   0  0  0  0  0  0  0  0  0  0  0  0
  153.5923  141.0467  160.6717 H   0  0  0  0  0  0  0  0  0  0  0  0
  154.1349  141.1894  159.0164 H   0  0  0  0  0  0  0  0  0  0  0  0
  153.4780  143.3739  159.8982 H   0  0  0  0  0  0  0  0  0  0  0  0
  151.8915  142.7919  160.3397 H   0  0  0  0  0  0  0  0  0  0  0  0
  1  2  1  0  0  0  0
  1 26  1  0  0  0  0
  1 27  1  0  0  0  0
  1 28  1  0  0  0  0
  2  3  1  0  0  0  0
  3  4  1  0  0  0  0
  3 29  1  0  0  0  0
  3 30  1  0  0  0  0
  4  5  1  0  0  0  0
  4 31  1  0  0  0  0
  4 32  1  0  0  0  0
  5 24  1  0  0  0  0
  5  6  1  0  0  0  0
  6  7  1  0  0  0  0
  6 33  1  0  0  0  0
  6 34  1  0  0  0  0
  7  8  1  0  0  0  0
  7 35  1  0  0  0  0
  7 36  1  0  0  0  0
  8  9  1  0  0  0  0
  8 23  1  0  0  0  0
  8 37  1  0  0  0  0
  9 10  1  0  0  0  0
  9 38  1  0  0  0  0
  9 39  1  0  0  0  0
 10 11  1  0  0  0  0
 10 40  1  0  0  0  0
 11 12  2  0  0  0  0
 11 13  1  0  0  0  0
 13 14  1  0  0  0  0
 13 41  1  0  0  0  0
 13 42  1  0  0  0  0
 14 21  1  0  0  0  0
 14 15  2  0  0  0  0
 15 16  1  0  0  0  0
 15 17  1  0  0  0  0
 16 43  1  0  0  0  0
 16 44  1  0  0  0  0
 16 45  1  0  0  0  0
 17 18  2  0  0  0  0
 18 19  1  0  0  0  0
 18 20  1  0  0  0  0
 19 46  1  0  0  0  0
 19 47  1  0  0  0  0
 19 48  1  0  0  0  0
 20 25  1  0  0  0  0
 20 21  1  0  0  0  0
 21 22  2  0  0  0  0
 23 24  1  0  0  0  0
 23 49  1  0  0  0  0
 23 50  1  0  0  0  0
 24 51  1  0  0  0  0
 24 52  1  0  0  0  0
M  END
> <s_m_source_file>
AV-unprocessed.smi

> <i_m_source_file_index>
1041

> <i_lp_mmshare_version>
43012

> <i_f3d_flags>
0

> <s_epik_input>
W0NIM11PW0NIMl1bQ0gyXU4xW0NIMl1bQ0gyXVtDSF0oW0NIMl1bQ0gyXTEpW0NIMl1bTkhdQyg9TylbQ0gyXWMyYyhbQ0gzXSluYyhbQ0gzXSlbbkhdYzI9Tw==

> <s_epik_cmdline>
J2VwaWtfcHl0aG9uJywgJy1waCcsICc3LjAnLCAnLXRuJywgJzgnLCAnLW1hJywgJzIwMCcsICctbWV0YWxfYmluZGluZycsICctaW1hZScsICc8aW5maWxlLm1hZT4nLCAnLW9tYWUnLCAnPG91dGZpbGUubWFlPic=

> <r_lp_tautomer_probability>
0.839158

> <r_epik_Ionization_Penalty>
2.47116

> <r_epik_Ionization_Penalty_Charging>
0.00036358

> <r_epik_Ionization_Penalty_Neutral>
2.4708

> <r_epik_State_Penalty>
2.72392

> <r_epik_Charging_Adjusted_Penalty>
2.72428

> <i_epik_Tot_Q>
0

> <i_epik_Tot_abs_Q>
0

> <r_epik_Metal_State_Penalty>
2.89755

> <b_epik_Metal_Only>
0

> <s_lp_Force_Field>
OPLS_2005

> <r_lp_Energy>
27.3294

> <b_lp_Chiralities_Consistent>
1

> <s_lp_Variant>
AV-unprocessed.smi:1041-5

> <Gold.Version>
5.8.1

> <Gold.Id.Protein>
6NUR|6NUR_protein|mol2

> <Gold.PLP.Fitness>
48.7623

> <Gold.PLP.PLP>
-48.6235

> <Gold.PLP.part.hbond>
-4.6104

> <Gold.PLP.part.metal>
0.0000

> <Gold.PLP.part.buried>
-5.4528

> <Gold.PLP.part.nonpolar>
-38.7080

> <Gold.PLP.part.repulsive>
0.4790

> <Gold.PLP.ligand.clash>
0.0000

> <Gold.PLP.ligand.torsion>
1.5042

> <Gold.PLP.Chemscore.Hbond>
1.0000

> <Gold.PLP.Chemscore.CHOScore>
0.0000

> <Gold.PLP.Chemscore.Metal>
0.0000

> <Gold.Chemscore.Hbonds>
donor molecule, donor type, donor heavy atom, donor atom, acceptor molecule, acceptor atom, score
      P1  H  6896  6909       L1    12  1.00

> <Gold.PLP.Chemscore.Internal.Correction>
0.1470

> <Gold.Rescore>
     Score         DG    S(hbond)    S(metal)    S(lipo)     H(rot)  DE(clash)    DE(int)     intcor
     13.01     -14.51       1.00        0.00     100.25       2.36       0.25       1.25       ----

> <Gold.Chemscore.Fitness>
13.0099

> <Gold.Chemscore.DG>
-14.5078

> <Gold.Chemscore.ZeroCoef>
-5.4800

> <Gold.Chemscore.Hbond>
0.9999

> <Gold.Chemscore.Metal>
0.0000

> <Gold.Chemscore.Lipo>
100.2504

> <Gold.Chemscore.Internal_Hbond>
0.0000

> <Gold.Chemscore.DEClash>
0.2469

> <Gold.Chemscore.DEInternal>
1.2510

> <Gold.Chemscore.Rot>
2.3598

> <Gold.Chemscore.Internal.Correction>
   9.000000E+99

> <Gold.Chemscore.Hbonds>
donor molecule, donor type, donor heavy atom, donor atom, acceptor molecule, acceptor atom, score
      P1  H  6896  6909       L1    12  1.00

> <Gold.Chemscore.Hbond.Weighted>
-3.3395

> <Gold.Chemscore.Metal.Weighted>
-0.0000

> <Gold.Chemscore.Lipo.Weighted>
-11.7293

> <Gold.Chemscore.Internal_Hbond.Weighted>
0.0000

> <Gold.Chemscore.DEClash.Weighted>
0.2469

> <Gold.Chemscore.DEInternal.Weighted>
1.2510

> <Gold.Chemscore.Rot.Weighted>
6.0410

> <Gold.Chemscore.Internal.Correction.Weighted>
   9.000000E+99

> <Gold.Protein.RotatedTorsions>
[ 6907 6896 6895 6894 ] final  162.16 input  -60.11 | X-H torsion
[ 7974 7965 7964 7962 ] final  171.67 input  175.53 | X-H torsion
[ 8008 7997 7996 7995 ] final  165.49 input   59.86 | X-H torsion
[ 10167 10162 10161 10158 ] final  -90.92 input  -65.29 | X-H torsion
[ 10718 10713 10712 10709 ] final   13.16 input   66.30 | X-H torsion
[ 10763 10752 10751 10750 ] final  164.30 input  -60.55 | X-H torsion
[ 11005 11000 10999 10996 ] final   30.43 input  -57.11 | X-H torsion

> <Gold.Protein.ActiveResidues>
 VAL166  LYS551  ARG553  GLY616  TRP617  ASP618  TYR619  PRO620  LYS621  CYS622 
 ASP623  PHE694  ASN695  SER759  ASP760  ASP761  ALA762  ILE779  LEU786  VAL792 
 PHE793  MET794  SER795  GLU796  ALA797  LYS798  CYS799  TRP800  GLU811  SER814 

> <Gold.Protein.RotatedAtoms>
  151.9446  133.3648  159.3977 H   0  0  0  0  0  0  0  0  0  0  0  0  # atno 6907 bound_to 6896
  150.6992  134.4404  159.5299 H   0  0  0  0  0  0  0  0  0  0  0  0  # atno 6908 bound_to 6896
  152.2066  134.8539  160.0553 H   0  0  0  0  0  0  0  0  0  0  0  0  # atno 6909 bound_to 6896
  144.7288  139.9384  143.6427 H   0  0  0  0  0  0  0  0  0  0  0  0  # atno 7974 bound_to 7965
  156.1796  140.1668  156.8298 H   0  0  0  0  0  0  0  0  0  0  0  0  # atno 8008 bound_to 7997
  154.5345  140.0749  156.8437 H   0  0  0  0  0  0  0  0  0  0  0  0  # atno 8009 bound_to 7997
  155.3339  140.3380  155.4241 H   0  0  0  0  0  0  0  0  0  0  0  0  # atno 8010 bound_to 7997
  140.3500  143.2896  151.9736 H   0  0  0  0  0  0  0  0  0  0  0  0  # atno 10167 bound_to 10162
  157.0207  130.6153  149.5720 H   0  0  0  0  0  0  0  0  0  0  0  0  # atno 10718 bound_to 10713
  154.3067  135.2758  155.2585 H   0  0  0  0  0  0  0  0  0  0  0  0  # atno 10763 bound_to 10752
  154.4998  135.5811  153.6526 H   0  0  0  0  0  0  0  0  0  0  0  0  # atno 10764 bound_to 10752
  152.9893  135.6155  154.3242 H   0  0  0  0  0  0  0  0  0  0  0  0  # atno 10765 bound_to 10752
  140.2944  134.2827  155.7768 H   0  0  0  0  0  0  0  0  0  0  0  0  # atno 11005 bound_to 11000
  146.0804  139.3791  143.0468 LP  0  0  0  0  0  0  0  0  0  0  0  0  # atno 17320 bound_to 7965
  145.7849  140.9840  143.1080 LP  0  0  0  0  0  0  0  0  0  0  0  0  # atno 17321 bound_to 7965
  139.4827  144.6084  151.7480 LP  0  0  0  0  0  0  0  0  0  0  0  0  # atno 17342 bound_to 10162
  140.5227  144.0853  150.6028 LP  0  0  0  0  0  0  0  0  0  0  0  0  # atno 17343 bound_to 10162
  156.0103  130.5194  150.7967 LP  0  0  0  0  0  0  0  0  0  0  0  0  # atno 17370 bound_to 10713
  157.5252  131.0933  151.0027 LP  0  0  0  0  0  0  0  0  0  0  0  0  # atno 17371 bound_to 10713
  141.2140  133.7606  156.9673 LP  0  0  0  0  0  0  0  0  0  0  0  0  # atno 17394 bound_to 11000
  140.1166  134.9443  157.2143 LP  0  0  0  0  0  0  0  0  0  0  0  0  # atno 17395 bound_to 11000

$$$$
