AV-unprocessed.smi:1626|AV-procd|sdf|6509|dock4
  -GOLD-   22720 7173D 1   1.00000     0.00000
 Structure written by MMmdl.
 48 50  0  0  0  0  0  0  0  0  2 V2000
  152.6004  142.7774  160.4385 C   0  0  0  0  0  0  0  0  0  0  0  0
  152.0094  142.2652  159.1369 C   0  0  0  0  0  0  0  0  0  0  0  0
  152.6436  141.1933  158.4694 C   0  0  0  0  0  0  0  0  0  0  0  0
  152.1245  140.6859  157.2584 C   0  0  0  0  0  0  0  0  0  0  0  0
  152.5744  139.6578  156.4478 N   0  0  0  0  0  0  0  0  0  0  0  0
  151.6683  139.6668  155.4748 C   0  0  0  0  0  0  0  0  0  0  0  0
  150.6871  140.5866  155.5551 N   0  0  0  0  0  0  0  0  0  0  0  0
  149.5968  140.7914  154.6184 C   0  0  0  0  0  0  0  0  0  0  0  0
  148.7109  139.5403  154.4620 C   0  0  1  0  0  0  0  0  0  0  0  0
  148.0556  139.2755  155.6880 O   0  0  0  0  0  0  0  0  0  0  0  0
  147.6452  139.7317  153.3649 C   0  0  0  0  0  0  0  0  0  0  0  0
  147.2356  138.4492  152.7363 N   0  3  2  0  0  0  0  0  0  0  0  0
  146.4982  138.6282  151.4572 C   0  0  0  0  0  0  0  0  0  0  0  0
  146.2255  137.2743  150.7758 C   0  0  0  0  0  0  0  0  0  0  0  0
  145.4900  136.2978  151.7087 C   0  0  2  0  0  0  0  0  0  0  0  0
  144.1590  136.7277  151.9140 O   0  0  0  0  0  0  0  0  0  0  0  0
  146.2227  136.1904  153.0562 C   0  0  0  0  0  0  0  0  0  0  0  0
  146.4910  137.5730  153.6767 C   0  0  0  0  0  0  0  0  0  0  0  0
  150.9453  141.2866  156.7282 C   0  0  0  0  0  0  0  0  0  0  0  0
  150.3058  142.3544  157.3819 C   0  0  0  0  0  0  0  0  0  0  0  0
  150.8372  142.8482  158.5918 C   0  0  0  0  0  0  0  0  0  0  0  0
  150.1390  144.0005  159.2923 C   0  0  0  0  0  0  0  0  0  0  0  0
  153.4897  142.2135  160.7217 H   0  0  0  0  0  0  0  0  0  0  0  0
  151.8763  142.6877  161.2487 H   0  0  0  0  0  0  0  0  0  0  0  0
  152.8854  143.8253  160.3422 H   0  0  0  0  0  0  0  0  0  0  0  0
  153.5367  140.7492  158.8843 H   0  0  0  0  0  0  0  0  0  0  0  0
  151.7236  138.9677  154.6530 H   0  0  0  0  0  0  0  0  0  0  0  0
  149.0031  141.6426  154.9553 H   0  0  0  0  0  0  0  0  0  0  0  0
  150.0254  141.0726  153.6554 H   0  0  0  0  0  0  0  0  0  0  0  0
  149.3503  138.6895  154.2281 H   0  0  0  0  0  0  0  0  0  0  0  0
  147.2604  139.7864  155.7197 H   0  0  0  0  0  0  0  0  0  0  0  0
  146.7762  140.2162  153.8138 H   0  0  0  0  0  0  0  0  0  0  0  0
  148.0054  140.4131  152.5926 H   0  0  0  0  0  0  0  0  0  0  0  0
  145.5591  139.1500  151.6479 H   0  0  0  0  0  0  0  0  0  0  0  0
  147.0693  139.2553  150.7738 H   0  0  0  0  0  0  0  0  0  0  0  0
  145.6562  137.4228  149.8573 H   0  0  0  0  0  0  0  0  0  0  0  0
  147.1762  136.8320  150.4746 H   0  0  0  0  0  0  0  0  0  0  0  0
  145.4433  135.3129  151.2425 H   0  0  0  0  0  0  0  0  0  0  0  0
  143.8438  137.1269  151.1170 H   0  0  0  0  0  0  0  0  0  0  0  0
  145.6527  135.5706  153.7494 H   0  0  0  0  0  0  0  0  0  0  0  0
  147.1745  135.6792  152.9053 H   0  0  0  0  0  0  0  0  0  0  0  0
  147.0666  137.4419  154.5938 H   0  0  0  0  0  0  0  0  0  0  0  0
  145.5524  138.0530  153.9590 H   0  0  0  0  0  0  0  0  0  0  0  0
  149.4134  142.7888  156.9565 H   0  0  0  0  0  0  0  0  0  0  0  0
  149.2618  144.3326  158.7363 H   0  0  0  0  0  0  0  0  0  0  0  0
  150.8131  144.8512  159.3927 H   0  0  0  0  0  0  0  0  0  0  0  0
  149.8098  143.6995  160.2872 H   0  0  0  0  0  0  0  0  0  0  0  0
  148.0932  137.9610  152.5198 H   0  0  0  0  0  0  0  0  0  0  0  0
  1  2  1  0  0  0  0
  1 23  1  0  0  0  0
  1 24  1  0  0  0  0
  1 25  1  0  0  0  0
  2 21  1  0  0  0  0
  2  3  2  0  0  0  0
  3  4  1  0  0  0  0
  3 26  1  0  0  0  0
  4 19  2  0  0  0  0
  4  5  1  0  0  0  0
  5  6  2  0  0  0  0
  6  7  1  0  0  0  0
  6 27  1  0  0  0  0
  7  8  1  0  0  0  0
  7 19  1  0  0  0  0
  8  9  1  0  0  0  0
  8 28  1  0  0  0  0
  8 29  1  0  0  0  0
  9 10  1  0  0  0  0
  9 11  1  0  0  0  0
  9 30  1  0  0  0  0
 10 31  1  0  0  0  0
 11 12  1  0  0  0  0
 11 32  1  0  0  0  0
 11 33  1  0  0  0  0
 12 18  1  0  0  0  0
 12 13  1  0  0  0  0
 12 48  1  0  0  0  0
 13 14  1  0  0  0  0
 13 34  1  0  0  0  0
 13 35  1  0  0  0  0
 14 15  1  0  0  0  0
 14 36  1  0  0  0  0
 14 37  1  0  0  0  0
 15 16  1  0  0  0  0
 15 17  1  0  0  0  0
 15 38  1  0  0  0  0
 16 39  1  0  0  0  0
 17 18  1  0  0  0  0
 17 40  1  0  0  0  0
 17 41  1  0  0  0  0
 18 42  1  0  0  0  0
 18 43  1  0  0  0  0
 19 20  1  0  0  0  0
 20 21  2  0  0  0  0
 20 44  1  0  0  0  0
 21 22  1  0  0  0  0
 22 45  1  0  0  0  0
 22 46  1  0  0  0  0
 22 47  1  0  0  0  0
M  CHG  1  12   1
M  END
> <s_m_source_file>
AV-unprocessed.smi

> <i_m_source_file_index>
1626

> <i_lp_mmshare_version>
43012

> <i_f3d_flags>
0

> <s_epik_input>
W0NIM11jKFtjSF0xKWMoW0NIM10pW2NIXWMoYzEyKW4oW2NIXW4yKVtDSDJdW0NASF0oW09IXSlbQ0gyXU4zW0NIMl1bQ0gyXVtDSF0oW09IXSlbQ0gyXVtDSDJdMw==

> <s_epik_cmdline>
J2VwaWtfcHl0aG9uJywgJy1waCcsICc3LjAnLCAnLXRuJywgJzgnLCAnLW1hJywgJzIwMCcsICctbWV0YWxfYmluZGluZycsICctaW1hZScsICc8aW5maWxlLm1hZT4nLCAnLW9tYWUnLCAnPG91dGZpbGUubWFlPic=

> <r_epik_Ionization_Penalty>
0.106584

> <r_epik_Ionization_Penalty_Charging>
0.0185694

> <r_epik_Ionization_Penalty_Neutral>
0.0880147

> <r_epik_State_Penalty>
0.0908428

> <r_epik_Charging_Adjusted_Penalty>
0.109412

> <i_epik_Tot_Q>
1

> <i_epik_Tot_abs_Q>
1

> <r_epik_Metal_State_Penalty>
0.0153739

> <b_epik_Metal_Only>
0

> <s_lp_Force_Field>
OPLS_2005

> <r_lp_Energy>
22.63

> <b_lp_Chiralities_Consistent>
1

> <s_lp_Variant>
AV-unprocessed.smi:1626-4

> <Gold.Version>
5.8.1

> <Gold.Id.Protein>
6NUR|6NUR_protein|mol2

> <Gold.PLP.Fitness>
50.6416

> <Gold.PLP.PLP>
-39.6022

> <Gold.PLP.part.hbond>
-3.0782

> <Gold.PLP.part.metal>
0.0000

> <Gold.PLP.part.buried>
4.0344

> <Gold.PLP.part.nonpolar>
-40.1014

> <Gold.PLP.part.repulsive>
0.0488

> <Gold.PLP.ligand.clash>
0.0000

> <Gold.PLP.ligand.torsion>
0.4094

> <Gold.PLP.Chemscore.Hbond>
3.9340

> <Gold.PLP.Chemscore.CHOScore>
0.0000

> <Gold.PLP.Chemscore.Metal>
0.0000

> <Gold.Chemscore.Hbonds>
donor molecule, donor type, donor heavy atom, donor atom, acceptor molecule, acceptor atom, score
      L1  H    12    48       P1  7948  1.89
      L1  H    16    39       P1 10171  1.00
      P1  H  7997  8009       L1     5  0.95

> <Gold.PLP.Chemscore.Internal.Correction>
0.0563

> <Gold.Rescore>
     Score         DG    S(hbond)    S(metal)    S(lipo)     H(rot)  DE(clash)    DE(int)     intcor
     17.32     -19.53       1.88        0.00     124.77       2.67       1.57       0.63       ----

> <Gold.Chemscore.Fitness>
17.3242

> <Gold.Chemscore.DG>
-19.5291

> <Gold.Chemscore.ZeroCoef>
-5.4800

> <Gold.Chemscore.Hbond>
1.8831

> <Gold.Chemscore.Metal>
0.0000

> <Gold.Chemscore.Lipo>
124.7668

> <Gold.Chemscore.Internal_Hbond>
0.0000

> <Gold.Chemscore.DEClash>
1.5705

> <Gold.Chemscore.DEInternal>
0.6344

> <Gold.Chemscore.Rot>
2.6712

> <Gold.Chemscore.Internal.Correction>
   9.000000E+99

> <Gold.Chemscore.Hbonds>
donor molecule, donor type, donor heavy atom, donor atom, acceptor molecule, acceptor atom, score
      L1  H    12    48       P1  7948  0.86
      L1  H    16    39       P1 10171  0.95
      P1  H  7997  8009       L1     5  0.22

> <Gold.Chemscore.Hbond.Weighted>
-6.2897

> <Gold.Chemscore.Metal.Weighted>
-0.0000

> <Gold.Chemscore.Lipo.Weighted>
-14.5977

> <Gold.Chemscore.Internal_Hbond.Weighted>
0.0000

> <Gold.Chemscore.DEClash.Weighted>
1.5705

> <Gold.Chemscore.DEInternal.Weighted>
0.6344

> <Gold.Chemscore.Rot.Weighted>
6.8383

> <Gold.Chemscore.Internal.Correction.Weighted>
   9.000000E+99

> <Gold.Protein.RotatedTorsions>
[ 6907 6896 6895 6894 ] final  105.61 input  -60.11 | X-H torsion
[ 7974 7965 7964 7962 ] final   15.11 input  175.53 | X-H torsion
[ 8008 7997 7996 7995 ] final -163.81 input   59.86 | X-H torsion
[ 10167 10162 10161 10158 ] final   -5.63 input  -65.29 | X-H torsion
[ 10718 10713 10712 10709 ] final   11.03 input   66.30 | X-H torsion
[ 10763 10752 10751 10750 ] final   15.38 input  -60.55 | X-H torsion
[ 11005 11000 10999 10996 ] final  -93.65 input  -57.11 | X-H torsion

> <Gold.Protein.ActiveResidues>
 VAL166  LYS551  ARG553  GLY616  TRP617  ASP618  TYR619  PRO620  LYS621  CYS622 
 ASP623  PHE694  ASN695  SER759  ASP760  ASP761  ALA762  ILE779  LEU786  VAL792 
 PHE793  MET794  SER795  GLU796  ALA797  LYS798  CYS799  TRP800  GLU811  SER814 

> <Gold.Protein.RotatedAtoms>
  152.5224  133.9504  159.7668 H   0  0  0  0  0  0  0  0  0  0  0  0  # atno 6907 bound_to 6896
  150.9815  133.6232  159.2729 H   0  0  0  0  0  0  0  0  0  0  0  0  # atno 6908 bound_to 6896
  151.3408  135.0869  159.9423 H   0  0  0  0  0  0  0  0  0  0  0  0  # atno 6909 bound_to 6896
  146.2287  139.8942  142.8550 H   0  0  0  0  0  0  0  0  0  0  0  0  # atno 7974 bound_to 7965
  155.8266  140.0927  157.1817 H   0  0  0  0  0  0  0  0  0  0  0  0  # atno 8008 bound_to 7997
  154.3979  140.1427  156.3624 H   0  0  0  0  0  0  0  0  0  0  0  0  # atno 8009 bound_to 7997
  155.8210  140.3446  155.5517 H   0  0  0  0  0  0  0  0  0  0  0  0  # atno 8010 bound_to 7997
  140.6969  143.6287  150.8544 H   0  0  0  0  0  0  0  0  0  0  0  0  # atno 10167 bound_to 10162
  156.9896  130.6037  149.5684 H   0  0  0  0  0  0  0  0  0  0  0  0  # atno 10718 bound_to 10713
  153.1531  135.6782  153.8852 H   0  0  0  0  0  0  0  0  0  0  0  0  # atno 10763 bound_to 10752
  153.8272  135.3122  155.3417 H   0  0  0  0  0  0  0  0  0  0  0  0  # atno 10764 bound_to 10752
  154.7877  135.4852  154.0070 H   0  0  0  0  0  0  0  0  0  0  0  0  # atno 10765 bound_to 10752
  141.1491  133.7902  157.0190 H   0  0  0  0  0  0  0  0  0  0  0  0  # atno 11005 bound_to 11000
  145.2387  141.0001  143.3948 LP  0  0  0  0  0  0  0  0  0  0  0  0  # atno 17320 bound_to 7965
  144.9469  139.4125  143.6421 LP  0  0  0  0  0  0  0  0  0  0  0  0  # atno 17321 bound_to 7965
  140.0005  143.5749  152.2877 LP  0  0  0  0  0  0  0  0  0  0  0  0  # atno 17342 bound_to 10162
  139.6437  144.7656  151.2288 LP  0  0  0  0  0  0  0  0  0  0  0  0  # atno 17343 bound_to 10162
  156.0212  130.5307  150.8281 LP  0  0  0  0  0  0  0  0  0  0  0  0  # atno 17370 bound_to 10713
  157.5468  131.0942  150.9751 LP  0  0  0  0  0  0  0  0  0  0  0  0  # atno 17371 bound_to 10713
  140.0828  134.9638  157.1652 LP  0  0  0  0  0  0  0  0  0  0  0  0  # atno 17394 bound_to 11000
  140.3553  134.2554  155.7193 LP  0  0  0  0  0  0  0  0  0  0  0  0  # atno 17395 bound_to 11000

$$$$
