AV-unprocessed.smi:239|AV-procd|sdf|1822|dock1
  -GOLD-   2262020413D 1   1.00000     0.00000
 Structure written by MMmdl.
 54 58  0  0  0  0  0  0  0  0  1 V2000
  154.3094  141.2134  161.0911 C   0  0  0  0  0  0  0  0  0  0  0  0
  153.0909  141.0631  160.1745 C   0  0  2  0  0  0  0  0  0  0  0  0
  153.3971  140.1880  158.9445 C   0  0  0  0  0  0  0  0  0  0  0  0
  152.2505  140.1670  158.0390 N   0  0  0  0  0  0  0  0  0  0  0  0
  152.2510  139.2617  157.0269 C   0  0  0  0  0  0  0  0  0  0  0  0
  152.7746  139.5969  155.8167 N   0  0  0  0  0  0  0  0  0  0  0  0
  152.7704  138.7181  154.8102 C   0  0  0  0  0  0  0  0  0  0  0  0
  152.3055  137.4679  154.7965 N   0  0  0  0  0  0  0  0  0  0  0  0
  151.7898  137.1194  156.0097 C   0  0  0  0  0  0  0  0  0  0  0  0
  151.7212  137.9468  157.1665 C   0  0  0  0  0  0  0  0  0  0  0  0
  151.1364  137.2435  158.2135 N   0  0  0  0  0  0  0  0  0  0  0  0
  150.8627  136.0750  157.7013 C   0  0  0  0  0  0  0  0  0  0  0  0
  151.2344  135.9088  156.3864 N   0  0  0  0  0  0  0  0  0  0  0  0
  151.0537  134.7165  155.5727 C   0  0  0  0  0  0  0  0  0  0  0  0
  149.5916  134.4561  155.1288 C   0  0  0  0  0  0  0  0  0  0  0  0
  149.1524  135.6757  154.5578 O   0  0  0  0  0  0  0  0  0  0  0  0
  149.4705  133.3462  154.0620 C   0  0  0  0  0  0  0  0  0  0  0  0
  148.0021  133.0489  153.7083 C   0  0  0  0  0  0  0  0  0  0  0  0
  147.2767  132.7106  154.8850 O   0  0  0  0  0  0  0  0  0  0  0  0
  147.2343  133.7704  155.8336 C   0  0  0  0  0  0  0  0  0  0  0  0
  148.6586  134.1099  156.3094 C   0  0  0  0  0  0  0  0  0  0  0  0
  151.7899  141.5020  157.6722 C   0  0  0  0  0  0  0  0  0  0  0  0
  151.5182  142.3331  158.9385 C   0  0  2  0  0  0  0  0  0  0  0  0
  151.1349  143.7602  158.6046 C   0  0  0  0  0  0  0  0  0  0  0  0
  152.1757  144.7491  158.1335 C   0  0  0  0  0  0  0  0  0  0  0  0
  151.5556  144.9011  159.5016 C   0  0  0  0  0  0  0  0  0  0  0  0
  152.6973  142.3610  159.7377 O   0  0  0  0  0  0  0  0  0  0  0  0
  154.6383  140.2450  161.4687 H   0  0  0  0  0  0  0  0  0  0  0  0
  154.0754  141.8435  161.9496 H   0  0  0  0  0  0  0  0  0  0  0  0
  155.1470  141.6691  160.5620 H   0  0  0  0  0  0  0  0  0  0  0  0
  152.2765  140.6181  160.7489 H   0  0  0  0  0  0  0  0  0  0  0  0
  154.2679  140.5779  158.4151 H   0  0  0  0  0  0  0  0  0  0  0  0
  153.6375  139.1740  159.2672 H   0  0  0  0  0  0  0  0  0  0  0  0
  153.2001  139.0680  153.8832 H   0  0  0  0  0  0  0  0  0  0  0  0
  150.3866  135.2934  158.2755 H   0  0  0  0  0  0  0  0  0  0  0  0
  151.7004  134.8058  154.6984 H   0  0  0  0  0  0  0  0  0  0  0  0
  151.4300  133.8633  156.1395 H   0  0  0  0  0  0  0  0  0  0  0  0
  149.3987  135.6865  153.6454 H   0  0  0  0  0  0  0  0  0  0  0  0
  150.0287  133.6138  153.1640 H   0  0  0  0  0  0  0  0  0  0  0  0
  149.9145  132.4234  154.4353 H   0  0  0  0  0  0  0  0  0  0  0  0
  147.5348  133.9001  153.2112 H   0  0  0  0  0  0  0  0  0  0  0  0
  147.9491  132.2115  153.0124 H   0  0  0  0  0  0  0  0  0  0  0  0
  146.7435  134.6429  155.4000 H   0  0  0  0  0  0  0  0  0  0  0  0
  146.6245  133.4564  156.6809 H   0  0  0  0  0  0  0  0  0  0  0  0
  149.0444  133.2432  156.8454 H   0  0  0  0  0  0  0  0  0  0  0  0
  148.6302  134.9292  157.0289 H   0  0  0  0  0  0  0  0  0  0  0  0
  152.5568  141.9839  157.0640 H   0  0  0  0  0  0  0  0  0  0  0  0
  150.8866  141.4622  157.0655 H   0  0  0  0  0  0  0  0  0  0  0  0
  150.7052  141.8795  159.5089 H   0  0  0  0  0  0  0  0  0  0  0  0
  150.1495  143.8544  158.1517 H   0  0  0  0  0  0  0  0  0  0  0  0
  153.2099  144.4137  158.0854 H   0  0  0  0  0  0  0  0  0  0  0  0
  151.8799  145.4590  157.3640 H   0  0  0  0  0  0  0  0  0  0  0  0
  150.8472  145.7143  159.6453 H   0  0  0  0  0  0  0  0  0  0  0  0
  152.1772  144.6656  160.3635 H   0  0  0  0  0  0  0  0  0  0  0  0
  1  2  1  0  0  0  0
  1 28  1  0  0  0  0
  1 29  1  0  0  0  0
  1 30  1  0  0  0  0
  2 27  1  0  0  0  0
  2  3  1  0  0  0  0
  2 31  1  0  0  0  0
  3  4  1  0  0  0  0
  3 32  1  0  0  0  0
  3 33  1  0  0  0  0
  4  5  1  0  0  0  0
  4 22  1  0  0  0  0
  5 10  1  0  0  0  0
  5  6  2  0  0  0  0
  6  7  1  0  0  0  0
  7  8  2  0  0  0  0
  7 34  1  0  0  0  0
  8  9  1  0  0  0  0
  9 13  1  0  0  0  0
  9 10  2  0  0  0  0
 10 11  1  0  0  0  0
 11 12  2  0  0  0  0
 12 13  1  0  0  0  0
 12 35  1  0  0  0  0
 13 14  1  0  0  0  0
 14 15  1  0  0  0  0
 14 36  1  0  0  0  0
 14 37  1  0  0  0  0
 15 21  1  0  0  0  0
 15 16  1  0  0  0  0
 15 17  1  0  0  0  0
 16 38  1  0  0  0  0
 17 18  1  0  0  0  0
 17 39  1  0  0  0  0
 17 40  1  0  0  0  0
 18 19  1  0  0  0  0
 18 41  1  0  0  0  0
 18 42  1  0  0  0  0
 19 20  1  0  0  0  0
 20 21  1  0  0  0  0
 20 43  1  0  0  0  0
 20 44  1  0  0  0  0
 21 45  1  0  0  0  0
 21 46  1  0  0  0  0
 22 23  1  0  0  0  0
 22 47  1  0  0  0  0
 22 48  1  0  0  0  0
 23 24  1  0  0  0  0
 23 27  1  0  0  0  0
 23 49  1  0  0  0  0
 24 26  1  0  0  0  0
 24 25  1  0  0  0  0
 24 50  1  0  0  0  0
 25 26  1  0  0  0  0
 25 51  1  0  0  0  0
 25 52  1  0  0  0  0
 26 53  1  0  0  0  0
 26 54  1  0  0  0  0
M  END
> <s_m_source_file>
AV-unprocessed.smi

> <i_m_source_file_index>
239

> <i_lp_mmshare_version>
43012

> <i_f3d_flags>
0

> <s_epik_input>
W0NIMl0xW0NIMl1bQ0hdMVtDQEBIXShPMilbQ0gyXU4oW0NIMl1bQ0BIXTJbQ0gzXSljKG5bY0hdbjMpYyhjMzQpbltjSF1uNFtDSDJdQzUoW09IXSlbQ0gyXVtDSDJdT1tDSDJdW0NIMl01

> <s_epik_cmdline>
J2VwaWtfcHl0aG9uJywgJy1waCcsICc3LjAnLCAnLXRuJywgJzgnLCAnLW1hJywgJzIwMCcsICctbWV0YWxfYmluZGluZycsICctaW1hZScsICc8aW5maWxlLm1hZT4nLCAnLW9tYWUnLCAnPG91dGZpbGUubWFlPic=

> <r_lp_tautomer_probability>
1

> <r_epik_Ionization_Penalty>
9.13091e-05

> <r_epik_Ionization_Penalty_Charging>
0

> <r_epik_Ionization_Penalty_Neutral>
9.13091e-05

> <r_epik_State_Penalty>
-0

> <r_epik_Charging_Adjusted_Penalty>
0

> <i_epik_Tot_Q>
0

> <i_epik_Tot_abs_Q>
0

> <r_epik_Metal_State_Penalty>
-0

> <b_epik_Metal_Only>
0

> <s_lp_Force_Field>
OPLS_2005

> <r_lp_Energy>
38.8789

> <b_lp_Chiralities_Consistent>
1

> <s_lp_Variant>
AV-unprocessed.smi:239-3

> <Gold.Version>
5.8.1

> <Gold.Id.Protein>
6NUR|6NUR_protein|mol2

> <Gold.PLP.Fitness>
51.3908

> <Gold.PLP.PLP>
-44.3912

> <Gold.PLP.part.hbond>
-2.9057

> <Gold.PLP.part.metal>
0.0000

> <Gold.PLP.part.buried>
-7.0244

> <Gold.PLP.part.nonpolar>
-34.9510

> <Gold.PLP.part.repulsive>
0.1419

> <Gold.PLP.ligand.clash>
0.0000

> <Gold.PLP.ligand.torsion>
1.3183

> <Gold.PLP.Chemscore.Hbond>
2.7520

> <Gold.PLP.Chemscore.CHOScore>
0.0000

> <Gold.PLP.Chemscore.Metal>
0.0000

> <Gold.Chemscore.Hbonds>
donor molecule, donor type, donor heavy atom, donor atom, acceptor molecule, acceptor atom, score
      L1  H    16    38       P1  7948  0.98
      P1  H  7997  8009       L1     6  1.00
      P1  H 10752 10765       L1     8  0.53

> <Gold.PLP.Chemscore.Internal.Correction>
1.3801

> <Gold.Rescore>
     Score         DG    S(hbond)    S(metal)    S(lipo)     H(rot)  DE(clash)    DE(int)     intcor
     19.33     -20.55       2.55        0.00     105.07       2.24       0.02       1.20       ----

> <Gold.Chemscore.Fitness>
19.3270

> <Gold.Chemscore.DG>
-20.5494

> <Gold.Chemscore.ZeroCoef>
-5.4800

> <Gold.Chemscore.Hbond>
2.5472

> <Gold.Chemscore.Metal>
0.0000

> <Gold.Chemscore.Lipo>
105.0676

> <Gold.Chemscore.Internal_Hbond>
0.0000

> <Gold.Chemscore.DEClash>
0.0237

> <Gold.Chemscore.DEInternal>
1.1987

> <Gold.Chemscore.Rot>
2.2387

> <Gold.Chemscore.Internal.Correction>
   9.000000E+99

> <Gold.Chemscore.Hbonds>
donor molecule, donor type, donor heavy atom, donor atom, acceptor molecule, acceptor atom, score
      L1  H    16    38       P1  7948  0.37
      P1  H  7997  8009       L1     6  0.46
      P1  H 10752 10765       L1     8  0.06

> <Gold.Chemscore.Hbond.Weighted>
-8.5076

> <Gold.Chemscore.Metal.Weighted>
-0.0000

> <Gold.Chemscore.Lipo.Weighted>
-12.2929

> <Gold.Chemscore.Internal_Hbond.Weighted>
0.0000

> <Gold.Chemscore.DEClash.Weighted>
0.0237

> <Gold.Chemscore.DEInternal.Weighted>
1.1987

> <Gold.Chemscore.Rot.Weighted>
5.7311

> <Gold.Chemscore.Internal.Correction.Weighted>
   9.000000E+99

> <Gold.Protein.RotatedTorsions>
[ 6907 6896 6895 6894 ] final -154.78 input  -60.11 | X-H torsion
[ 7974 7965 7964 7962 ] final -144.79 input  175.53 | X-H torsion
[ 8008 7997 7996 7995 ] final -146.61 input   59.86 | X-H torsion
[ 10167 10162 10161 10158 ] final  149.65 input  -65.29 | X-H torsion
[ 10718 10713 10712 10709 ] final   98.17 input   66.30 | X-H torsion
[ 10763 10752 10751 10750 ] final  165.03 input  -60.55 | X-H torsion
[ 11005 11000 10999 10996 ] final  157.30 input  -57.11 | X-H torsion

> <Gold.Protein.ActiveResidues>
 VAL166  LYS551  ARG553  GLY616  TRP617  ASP618  TYR619  PRO620  LYS621  CYS622 
 ASP623  PHE694  ASN695  SER759  ASP760  ASP761  ALA762  ILE779  LEU786  VAL792 
 PHE793  MET794  SER795  GLU796  ALA797  LYS798  CYS799  TRP800  GLU811  SER814 

> <Gold.Protein.RotatedAtoms>
  151.2626  133.4294  159.2616 H   0  0  0  0  0  0  0  0  0  0  0  0  # atno 6907 bound_to 6896
  151.0516  134.9677  159.8225 H   0  0  0  0  0  0  0  0  0  0  0  0  # atno 6908 bound_to 6896
  152.5383  134.2581  159.8977 H   0  0  0  0  0  0  0  0  0  0  0  0  # atno 6909 bound_to 6896
  144.8272  140.5665  143.5539 H   0  0  0  0  0  0  0  0  0  0  0  0  # atno 7974 bound_to 7965
  155.5622  140.0626  157.2826 H   0  0  0  0  0  0  0  0  0  0  0  0  # atno 8008 bound_to 7997
  154.4387  140.1884  156.0839 H   0  0  0  0  0  0  0  0  0  0  0  0  # atno 8009 bound_to 7997
  156.0438  140.3292  155.7278 H   0  0  0  0  0  0  0  0  0  0  0  0  # atno 8010 bound_to 7997
  139.4859  144.5585  151.7274 H   0  0  0  0  0  0  0  0  0  0  0  0  # atno 10167 bound_to 10162
  157.6900  131.0632  150.4755 H   0  0  0  0  0  0  0  0  0  0  0  0  # atno 10718 bound_to 10713
  154.3179  135.2756  155.2534 H   0  0  0  0  0  0  0  0  0  0  0  0  # atno 10763 bound_to 10752
  154.4900  135.5836  153.6455 H   0  0  0  0  0  0  0  0  0  0  0  0  # atno 10764 bound_to 10752
  152.9880  135.6132  154.3362 H   0  0  0  0  0  0  0  0  0  0  0  0  # atno 10765 bound_to 10752
  140.1756  134.8512  157.2742 H   0  0  0  0  0  0  0  0  0  0  0  0  # atno 11005 bound_to 11000
  145.4974  139.1485  143.3676 LP  0  0  0  0  0  0  0  0  0  0  0  0  # atno 17320 bound_to 7965
  146.2577  140.5113  142.8866 LP  0  0  0  0  0  0  0  0  0  0  0  0  # atno 17321 bound_to 7965
  140.5151  144.0966  150.6006 LP  0  0  0  0  0  0  0  0  0  0  0  0  # atno 17342 bound_to 10162
  140.3904  143.2755  152.0066 LP  0  0  0  0  0  0  0  0  0  0  0  0  # atno 17343 bound_to 10162
  156.5090  130.4135  149.6311 LP  0  0  0  0  0  0  0  0  0  0  0  0  # atno 17370 bound_to 10713
  156.3258  130.7305  151.2225 LP  0  0  0  0  0  0  0  0  0  0  0  0  # atno 17371 bound_to 10713
  140.2326  134.3890  155.7515 LP  0  0  0  0  0  0  0  0  0  0  0  0  # atno 17394 bound_to 11000
  141.2220  133.7223  156.8665 LP  0  0  0  0  0  0  0  0  0  0  0  0  # atno 17395 bound_to 11000

$$$$
