AV-unprocessed.smi:2137|AV-procd|sdf|8707|dock6
  -GOLD-   2272011473D 1   1.00000     0.00000
 Structure written by MMmdl.
 50 51  0  0  0  0  0  0  0  0  2 V2000
  150.5659  144.9620  158.8754 C   0  0  0  0  0  0  0  0  0  0  0  0
  151.5330  144.2794  157.8923 C   0  0  1  0  0  0  0  0  0  0  0  0
  152.9833  144.2432  158.4083 C   0  0  0  0  0  0  0  0  0  0  0  0
  153.1525  143.2008  159.5225 C   0  0  0  0  0  0  0  0  0  0  0  0
  152.6419  141.8230  159.0721 C   0  0  0  0  0  0  0  0  0  0  0  0
  151.2280  141.8973  158.6223 N   0  3  2  0  0  0  0  0  0  0  0  0
  150.6575  140.5580  158.3301 C   0  0  0  0  0  0  0  0  0  0  0  0
  151.5524  139.7352  157.3882 C   0  0  0  0  0  0  0  0  0  0  0  0
  151.3156  140.0784  155.9079 C   0  0  0  0  0  0  0  0  0  0  0  0
  149.9717  139.7067  155.4816 N   0  0  0  0  0  0  0  0  0  0  0  0
  149.2446  140.3672  154.5678 C   0  0  0  0  0  0  0  0  0  0  0  0
  149.6589  141.3582  153.9648 O   0  0  0  0  0  0  0  0  0  0  0  0
  147.8419  139.8104  154.2889 C   0  0  0  0  0  0  0  0  0  0  0  0
  146.7784  140.7979  154.5155 N   0  0  0  0  0  0  0  0  0  0  0  0
  146.7949  141.9946  153.8219 C   0  0  0  0  0  0  0  0  0  0  0  0
  145.8647  142.9611  153.9817 C   0  0  0  0  0  0  0  0  0  0  0  0
  144.7605  142.7886  154.9176 C   0  0  0  0  0  0  0  0  0  0  0  0
  143.9026  143.6502  155.1142 O   0  0  0  0  0  0  0  0  0  0  0  0
  144.7564  141.5497  155.6008 N   0  0  0  0  0  0  0  0  0  0  0  0
  143.6978  141.3196  156.5623 C   0  0  0  0  0  0  0  0  0  0  0  0
  145.7432  140.5494  155.4434 C   0  0  0  0  0  0  0  0  0  0  0  0
  145.7228  139.4987  156.0893 O   0  0  0  0  0  0  0  0  0  0  0  0
  151.0621  142.8632  157.5017 C   0  0  0  0  0  0  0  0  0  0  0  0
  150.4790  144.4111  159.8118 H   0  0  0  0  0  0  0  0  0  0  0  0
  149.5662  145.0407  158.4473 H   0  0  0  0  0  0  0  0  0  0  0  0
  150.8989  145.9724  159.1144 H   0  0  0  0  0  0  0  0  0  0  0  0
  151.5273  144.8867  156.9863 H   0  0  0  0  0  0  0  0  0  0  0  0
  153.6511  143.9922  157.5831 H   0  0  0  0  0  0  0  0  0  0  0  0
  153.2910  145.2287  158.7601 H   0  0  0  0  0  0  0  0  0  0  0  0
  154.2026  143.1319  159.8080 H   0  0  0  0  0  0  0  0  0  0  0  0
  152.6144  143.5191  160.4160 H   0  0  0  0  0  0  0  0  0  0  0  0
  153.2627  141.4354  158.2624 H   0  0  0  0  0  0  0  0  0  0  0  0
  152.7312  141.1230  159.9039 H   0  0  0  0  0  0  0  0  0  0  0  0
  150.4734  140.0206  159.2615 H   0  0  0  0  0  0  0  0  0  0  0  0
  149.6863  140.6777  157.8477 H   0  0  0  0  0  0  0  0  0  0  0  0
  152.5998  139.9112  157.6372 H   0  0  0  0  0  0  0  0  0  0  0  0
  151.3758  138.6708  157.5387 H   0  0  0  0  0  0  0  0  0  0  0  0
  151.4821  141.1421  155.7293 H   0  0  0  0  0  0  0  0  0  0  0  0
  152.0293  139.5425  155.2816 H   0  0  0  0  0  0  0  0  0  0  0  0
  149.5582  138.8973  155.9222 H   0  0  0  0  0  0  0  0  0  0  0  0
  147.8151  139.4607  153.2562 H   0  0  0  0  0  0  0  0  0  0  0  0
  147.6624  138.9268  154.9045 H   0  0  0  0  0  0  0  0  0  0  0  0
  147.5960  142.1724  153.1192 H   0  0  0  0  0  0  0  0  0  0  0  0
  145.9406  143.8759  153.4121 H   0  0  0  0  0  0  0  0  0  0  0  0
  143.5182  140.2492  156.6700 H   0  0  0  0  0  0  0  0  0  0  0  0
  142.7774  141.7789  156.1985 H   0  0  0  0  0  0  0  0  0  0  0  0
  144.0228  141.7658  157.5031 H   0  0  0  0  0  0  0  0  0  0  0  0
  150.0221  142.9075  157.1805 H   0  0  0  0  0  0  0  0  0  0  0  0
  151.6337  142.5098  156.6420 H   0  0  0  0  0  0  0  0  0  0  0  0
  150.7051  142.2639  159.4050 H   0  0  0  0  0  0  0  0  0  0  0  0
  1  2  1  0  0  0  0
  1 24  1  0  0  0  0
  1 25  1  0  0  0  0
  1 26  1  0  0  0  0
  2 23  1  0  0  0  0
  2  3  1  0  0  0  0
  2 27  1  0  0  0  0
  3  4  1  0  0  0  0
  3 28  1  0  0  0  0
  3 29  1  0  0  0  0
  4  5  1  0  0  0  0
  4 30  1  0  0  0  0
  4 31  1  0  0  0  0
  5  6  1  0  0  0  0
  5 32  1  0  0  0  0
  5 33  1  0  0  0  0
  6  7  1  0  0  0  0
  6 23  1  0  0  0  0
  6 50  1  0  0  0  0
  7  8  1  0  0  0  0
  7 34  1  0  0  0  0
  7 35  1  0  0  0  0
  8  9  1  0  0  0  0
  8 36  1  0  0  0  0
  8 37  1  0  0  0  0
  9 10  1  0  0  0  0
  9 38  1  0  0  0  0
  9 39  1  0  0  0  0
 10 11  1  0  0  0  0
 10 40  1  0  0  0  0
 11 12  2  0  0  0  0
 11 13  1  0  0  0  0
 13 14  1  0  0  0  0
 13 41  1  0  0  0  0
 13 42  1  0  0  0  0
 14 21  1  0  0  0  0
 14 15  1  0  0  0  0
 15 16  2  0  0  0  0
 15 43  1  0  0  0  0
 16 17  1  0  0  0  0
 16 44  1  0  0  0  0
 17 18  2  0  0  0  0
 17 19  1  0  0  0  0
 19 20  1  0  0  0  0
 19 21  1  0  0  0  0
 20 45  1  0  0  0  0
 20 46  1  0  0  0  0
 20 47  1  0  0  0  0
 21 22  2  0  0  0  0
 23 48  1  0  0  0  0
 23 49  1  0  0  0  0
M  CHG  1   6   1
M  END
> <s_m_source_file>
AV-unprocessed.smi

> <i_m_source_file_index>
2137

> <i_lp_mmshare_version>
43012

> <i_f3d_flags>
0

> <s_epik_input>
W0NIM11bQ0BASF0xW0NIMl1bQ0gyXVtDSDJdTihbQ0gyXTEpW0NIMl1bQ0gyXVtDSDJdW05IXUMoPU8pW0NIMl1uMltjSF1bY0hdYyg9TyluKFtDSDNdKWMyPU8=

> <s_epik_cmdline>
J2VwaWtfcHl0aG9uJywgJy1waCcsICc3LjAnLCAnLXRuJywgJzgnLCAnLW1hJywgJzIwMCcsICctbWV0YWxfYmluZGluZycsICctaW1hZScsICc8aW5maWxlLm1hZT4nLCAnLW9tYWUnLCAnPG91dGZpbGUubWFlPic=

> <r_lp_tautomer_probability>
1

> <r_epik_Ionization_Penalty>
0.000384839

> <r_epik_Ionization_Penalty_Charging>
0.000384812

> <r_epik_Ionization_Penalty_Neutral>
2.6907e-08

> <r_epik_State_Penalty>
0.000235226

> <r_epik_Charging_Adjusted_Penalty>
0.000620038

> <i_epik_Tot_Q>
1

> <i_epik_Tot_abs_Q>
1

> <r_epik_Metal_State_Penalty>
-0

> <b_epik_Metal_Only>
0

> <s_lp_Force_Field>
OPLS_2005

> <r_lp_Energy>
27.4749

> <b_lp_Chiralities_Consistent>
1

> <s_lp_Variant>
AV-unprocessed.smi:2137-2

> <Gold.Version>
5.8.1

> <Gold.Id.Protein>
6NUR|6NUR_protein|mol2

> <Gold.PLP.Fitness>
44.8053

> <Gold.PLP.PLP>
-42.4738

> <Gold.PLP.part.hbond>
-2.0000

> <Gold.PLP.part.metal>
0.0000

> <Gold.PLP.part.buried>
-5.4404

> <Gold.PLP.part.nonpolar>
-36.6694

> <Gold.PLP.part.repulsive>
0.5529

> <Gold.PLP.ligand.clash>
0.0000

> <Gold.PLP.ligand.torsion>
0.4104

> <Gold.PLP.Chemscore.Hbond>
1.0240

> <Gold.PLP.Chemscore.CHOScore>
0.0000

> <Gold.PLP.Chemscore.Metal>
0.0000

> <Gold.Chemscore.Hbonds>
donor molecule, donor type, donor heavy atom, donor atom, acceptor molecule, acceptor atom, score
      P1  H  7989  7998       L1    12  0.26
      P1  H  8011  8017       L1    12  0.74

> <Gold.PLP.Chemscore.Internal.Correction>
0.0802

> <Gold.Rescore>
     Score         DG    S(hbond)    S(metal)    S(lipo)     H(rot)  DE(clash)    DE(int)     intcor
     14.27     -15.24       1.03        0.00     103.85       2.27       0.47       0.50       ----

> <Gold.Chemscore.Fitness>
14.2729

> <Gold.Chemscore.DG>
-15.2411

> <Gold.Chemscore.ZeroCoef>
-5.4800

> <Gold.Chemscore.Hbond>
1.0282

> <Gold.Chemscore.Metal>
0.0000

> <Gold.Chemscore.Lipo>
103.8495

> <Gold.Chemscore.Internal_Hbond>
0.0000

> <Gold.Chemscore.DEClash>
0.4653

> <Gold.Chemscore.DEInternal>
0.5030

> <Gold.Chemscore.Rot>
2.2748

> <Gold.Chemscore.Internal.Correction>
   9.000000E+99

> <Gold.Chemscore.Hbonds>
donor molecule, donor type, donor heavy atom, donor atom, acceptor molecule, acceptor atom, score
      P1  H  7989  7998       L1    12  0.13
      P1  H  8011  8017       L1    12  0.73

> <Gold.Chemscore.Hbond.Weighted>
-3.4341

> <Gold.Chemscore.Metal.Weighted>
-0.0000

> <Gold.Chemscore.Lipo.Weighted>
-12.1504

> <Gold.Chemscore.Internal_Hbond.Weighted>
0.0000

> <Gold.Chemscore.DEClash.Weighted>
0.4653

> <Gold.Chemscore.DEInternal.Weighted>
0.5030

> <Gold.Chemscore.Rot.Weighted>
5.8234

> <Gold.Chemscore.Internal.Correction.Weighted>
   9.000000E+99

> <Gold.Protein.RotatedTorsions>
[ 6907 6896 6895 6894 ] final  -20.48 input  -60.11 | X-H torsion
[ 7974 7965 7964 7962 ] final   98.13 input  175.53 | X-H torsion
[ 8008 7997 7996 7995 ] final  -83.46 input   59.86 | X-H torsion
[ 10167 10162 10161 10158 ] final  164.17 input  -65.29 | X-H torsion
[ 10718 10713 10712 10709 ] final   70.21 input   66.30 | X-H torsion
[ 10763 10752 10751 10750 ] final -113.48 input  -60.55 | X-H torsion
[ 11005 11000 10999 10996 ] final   64.94 input  -57.11 | X-H torsion

> <Gold.Protein.ActiveResidues>
 VAL166  LYS551  ARG553  GLY616  TRP617  ASP618  TYR619  PRO620  LYS621  CYS622 
 ASP623  PHE694  ASN695  SER759  ASP760  ASP761  ALA762  ILE779  LEU786  VAL792 
 PHE793  MET794  SER795  GLU796  ALA797  LYS798  CYS799  TRP800  GLU811  SER814 

> <Gold.Protein.RotatedAtoms>
  151.2476  135.0611  159.9048 H   0  0  0  0  0  0  0  0  0  0  0  0  # atno 6907 bound_to 6896
  152.5384  134.0367  159.8059 H   0  0  0  0  0  0  0  0  0  0  0  0  # atno 6908 bound_to 6896
  151.0570  133.5526  159.2668 H   0  0  0  0  0  0  0  0  0  0  0  0  # atno 6909 bound_to 6896
  145.4163  139.2327  143.3221 H   0  0  0  0  0  0  0  0  0  0  0  0  # atno 7974 bound_to 7965
  154.6193  140.0618  156.9595 H   0  0  0  0  0  0  0  0  0  0  0  0  # atno 8008 bound_to 7997
  155.1843  140.3302  155.4351 H   0  0  0  0  0  0  0  0  0  0  0  0  # atno 8009 bound_to 7997
  156.2422  140.1892  156.6937 H   0  0  0  0  0  0  0  0  0  0  0  0  # atno 8010 bound_to 7997
  139.4885  144.4263  151.9126 H   0  0  0  0  0  0  0  0  0  0  0  0  # atno 10167 bound_to 10162
  157.6388  130.9466  150.0620 H   0  0  0  0  0  0  0  0  0  0  0  0  # atno 10718 bound_to 10713
  154.8398  135.4453  154.1355 H   0  0  0  0  0  0  0  0  0  0  0  0  # atno 10763 bound_to 10752
  153.2554  135.6931  153.7640 H   0  0  0  0  0  0  0  0  0  0  0  0  # atno 10764 bound_to 10752
  153.6937  135.3383  155.3184 H   0  0  0  0  0  0  0  0  0  0  0  0  # atno 10765 bound_to 10752
  139.9926  134.6567  156.0064 H   0  0  0  0  0  0  0  0  0  0  0  0  # atno 11005 bound_to 11000
  146.2679  140.4881  142.8826 LP  0  0  0  0  0  0  0  0  0  0  0  0  # atno 17320 bound_to 7965
  144.8275  140.6653  143.6312 LP  0  0  0  0  0  0  0  0  0  0  0  0  # atno 17321 bound_to 7965
  140.3708  144.2857  150.5920 LP  0  0  0  0  0  0  0  0  0  0  0  0  # atno 17342 bound_to 10162
  140.5320  143.2241  151.8223 LP  0  0  0  0  0  0  0  0  0  0  0  0  # atno 17343 bound_to 10162
  156.1650  130.3645  149.9245 LP  0  0  0  0  0  0  0  0  0  0  0  0  # atno 17370 bound_to 10713
  156.7235  130.9016  151.3620 LP  0  0  0  0  0  0  0  0  0  0  0  0  # atno 17371 bound_to 10713
  141.1578  133.6541  156.4220 LP  0  0  0  0  0  0  0  0  0  0  0  0  # atno 17394 bound_to 11000
  140.4879  134.6603  157.5198 LP  0  0  0  0  0  0  0  0  0  0  0  0  # atno 17395 bound_to 11000

$$$$
