AV-unprocessed.smi:2451|AV-procd|sdf|9681|dock5
  -GOLD-   2272013323D 1   1.00000     0.00000
 Structure written by MMmdl.
 37 38  0  0  0  0  0  0  0  0  2 V2000
  152.6912  144.4076  158.6456 C   0  0  0  0  0  0  0  0  0  0  0  0
  151.8685  143.4030  159.4867 C   0  0  2  0  0  0  0  0  0  0  0  0
  152.6208  143.0035  160.7796 C   0  0  0  0  0  0  0  0  0  0  0  0
  153.7325  141.9815  160.4665 C   0  0  0  0  0  0  0  0  0  0  0  0
  153.1936  140.7380  159.7217 C   0  0  0  0  0  0  0  0  0  0  0  0
  152.4381  141.0771  158.4139 C   0  0  1  0  0  0  0  0  0  0  0  0
  151.8412  139.8607  157.8791 N   0  5  0  0  0  0  0  0  0  0  0  0
  152.7997  138.6384  157.4162 S   0  0  0  0  0  0  0  0  0  0  0  0
  154.1628  138.7468  157.9619 O   0  0  0  0  0  0  0  0  0  0  0  0
  152.1373  137.3287  157.5313 O   0  0  0  0  0  0  0  0  0  0  0  0
  152.9428  138.9863  155.6116 C   0  0  0  0  0  0  0  0  0  0  0  0
  151.5815  138.9837  154.9752 C   0  0  0  0  0  0  0  0  0  0  0  0
  150.7829  137.8681  154.5990 C   0  0  0  0  0  0  0  0  0  0  0  0
  149.6590  138.4411  154.0782 C   0  0  0  0  0  0  0  0  0  0  0  0
  149.7448  139.7939  154.1350 O   0  0  0  0  0  0  0  0  0  0  0  0
  150.9742  140.1310  154.7124 N   0  0  0  0  0  0  0  0  0  0  0  0
  151.3387  142.1529  158.7014 C   0  0  2  0  0  0  0  0  0  0  0  0
  150.5390  142.5740  157.4444 C   0  0  0  0  0  0  0  0  0  0  0  0
  153.5921  143.9584  158.2283 H   0  0  0  0  0  0  0  0  0  0  0  0
  153.0037  145.2567  159.2535 H   0  0  0  0  0  0  0  0  0  0  0  0
  152.1087  144.8114  157.8181 H   0  0  0  0  0  0  0  0  0  0  0  0
  150.9879  143.9580  159.8131 H   0  0  0  0  0  0  0  0  0  0  0  0
  153.0362  143.8811  161.2759 H   0  0  0  0  0  0  0  0  0  0  0  0
  151.9164  142.5584  161.4836 H   0  0  0  0  0  0  0  0  0  0  0  0
  154.5241  142.4582  159.8856 H   0  0  0  0  0  0  0  0  0  0  0  0
  154.2023  141.6658  161.3982 H   0  0  0  0  0  0  0  0  0  0  0  0
  154.0209  140.0615  159.5032 H   0  0  0  0  0  0  0  0  0  0  0  0
  152.5290  140.1947  160.3955 H   0  0  0  0  0  0  0  0  0  0  0  0
  153.1568  141.5138  157.7194 H   0  0  0  0  0  0  0  0  0  0  0  0
  153.4305  139.9527  155.4880 H   0  0  0  0  0  0  0  0  0  0  0  0
  153.5903  138.2281  155.1704 H   0  0  0  0  0  0  0  0  0  0  0  0
  151.0059  136.8155  154.6907 H   0  0  0  0  0  0  0  0  0  0  0  0
  148.7523  138.0406  153.6497 H   0  0  0  0  0  0  0  0  0  0  0  0
  150.6150  141.6796  159.3679 H   0  0  0  0  0  0  0  0  0  0  0  0
  151.1776  142.9823  156.6592 H   0  0  0  0  0  0  0  0  0  0  0  0
  149.8033  143.3384  157.6949 H   0  0  0  0  0  0  0  0  0  0  0  0
  149.9836  141.7406  157.0108 H   0  0  0  0  0  0  0  0  0  0  0  0
  1  2  1  0  0  0  0
  1 19  1  0  0  0  0
  1 20  1  0  0  0  0
  1 21  1  0  0  0  0
  2 17  1  0  0  0  0
  2  3  1  0  0  0  0
  2 22  1  0  0  0  0
  3  4  1  0  0  0  0
  3 23  1  0  0  0  0
  3 24  1  0  0  0  0
  4  5  1  0  0  0  0
  4 25  1  0  0  0  0
  4 26  1  0  0  0  0
  5  6  1  0  0  0  0
  5 27  1  0  0  0  0
  5 28  1  0  0  0  0
  6  7  1  0  0  0  0
  6 17  1  0  0  0  0
  6 29  1  0  0  0  0
  7  8  1  0  0  0  0
  8  9  2  0  0  0  0
  8 10  2  0  0  0  0
  8 11  1  0  0  0  0
 11 12  1  0  0  0  0
 11 30  1  0  0  0  0
 11 31  1  0  0  0  0
 12 16  2  0  0  0  0
 12 13  1  0  0  0  0
 13 14  2  0  0  0  0
 13 32  1  0  0  0  0
 14 15  1  0  0  0  0
 14 33  1  0  0  0  0
 15 16  1  0  0  0  0
 17 18  1  0  0  0  0
 17 34  1  0  0  0  0
 18 35  1  0  0  0  0
 18 36  1  0  0  0  0
 18 37  1  0  0  0  0
M  CHG  1   7  -1
M  END
> <s_m_source_file>
AV-unprocessed.smi

> <i_m_source_file_index>
2451

> <i_lp_mmshare_version>
43012

> <i_f3d_flags>
0

> <s_epik_input>
W0NIM11bQ0BASF0xW0NIMl1bQ0gyXVtDSDJdW0NASF0oW0NASF0xW0NIM10pW05IXVMoPU8pKD1PKVtDSDJdYzJbY0hdW2NIXW9uMg==

> <s_epik_cmdline>
J2VwaWtfcHl0aG9uJywgJy1waCcsICc3LjAnLCAnLXRuJywgJzgnLCAnLW1hJywgJzIwMCcsICctbWV0YWxfYmluZGluZycsICctaW1hZScsICc8aW5maWxlLm1hZT4nLCAnLW9tYWUnLCAnPG91dGZpbGUubWFlPic=

> <r_lp_tautomer_probability>
1

> <r_epik_Ionization_Penalty>
5.22693

> <r_epik_Ionization_Penalty_Charging>
5.22693

> <r_epik_Ionization_Penalty_Neutral>
2.67702e-10

> <r_epik_State_Penalty>
5.22685

> <r_epik_Charging_Adjusted_Penalty>
10.4538

> <i_epik_Tot_Q>
-1

> <i_epik_Tot_abs_Q>
1

> <r_epik_Metal_State_Penalty>
1.28716

> <b_epik_Metal_Only>
1

> <s_lp_Force_Field>
OPLS_2005

> <r_lp_Energy>
14.4343

> <b_lp_Chiralities_Consistent>
1

> <s_lp_Variant>
AV-unprocessed.smi:2451-13

> <Gold.Version>
5.8.1

> <Gold.Id.Protein>
6NUR|6NUR_protein|mol2

> <Gold.PLP.Fitness>
44.6401

> <Gold.PLP.PLP>
-36.9512

> <Gold.PLP.part.hbond>
-2.6114

> <Gold.PLP.part.metal>
0.0000

> <Gold.PLP.part.buried>
-1.3317

> <Gold.PLP.part.nonpolar>
-33.6496

> <Gold.PLP.part.repulsive>
1.1179

> <Gold.PLP.ligand.clash>
0.0000

> <Gold.PLP.ligand.torsion>
0.7702

> <Gold.PLP.Chemscore.Hbond>
2.0000

> <Gold.PLP.Chemscore.CHOScore>
0.7442

> <Gold.PLP.Chemscore.Metal>
0.0000

> <Gold.Chemscore.Hbonds>
donor molecule, donor type, donor heavy atom, donor atom, acceptor molecule, acceptor atom, score
      P1  H  7989  7998       L1    16  1.00
      P1  H  7997  8008       L1     9  1.00
      L1  C    14    33       P1  7948  0.74

> <Gold.PLP.Chemscore.Internal.Correction>
0.9965

> <Gold.Rescore>
     Score         DG    S(hbond)    S(metal)    S(lipo)     H(rot)  DE(clash)    DE(int)     intcor
     17.90     -20.28       1.72        0.00     108.07       1.40       0.36       2.02       ----

> <Gold.Chemscore.Fitness>
17.9000

> <Gold.Chemscore.DG>
-20.2820

> <Gold.Chemscore.ZeroCoef>
-5.4800

> <Gold.Chemscore.Hbond>
1.7182

> <Gold.Chemscore.Metal>
0.0000

> <Gold.Chemscore.Lipo>
108.0650

> <Gold.Chemscore.Internal_Hbond>
0.0000

> <Gold.Chemscore.DEClash>
0.3599

> <Gold.Chemscore.DEInternal>
2.0221

> <Gold.Chemscore.Rot>
1.3986

> <Gold.Chemscore.Internal.Correction>
   9.000000E+99

> <Gold.Chemscore.Hbonds>
donor molecule, donor type, donor heavy atom, donor atom, acceptor molecule, acceptor atom, score
      P1  H  7989  7998       L1    16  0.20
      P1  H  7997  8008       L1     9  0.71

> <Gold.Chemscore.Hbond.Weighted>
-5.7388

> <Gold.Chemscore.Metal.Weighted>
-0.0000

> <Gold.Chemscore.Lipo.Weighted>
-12.6436

> <Gold.Chemscore.Internal_Hbond.Weighted>
0.0000

> <Gold.Chemscore.DEClash.Weighted>
0.3599

> <Gold.Chemscore.DEInternal.Weighted>
2.0221

> <Gold.Chemscore.Rot.Weighted>
3.5804

> <Gold.Chemscore.Internal.Correction.Weighted>
   9.000000E+99

> <Gold.Protein.RotatedTorsions>
[ 6907 6896 6895 6894 ] final   73.70 input  -60.11 | X-H torsion
[ 7974 7965 7964 7962 ] final  176.32 input  175.53 | X-H torsion
[ 8008 7997 7996 7995 ] final -110.70 input   59.86 | X-H torsion
[ 10167 10162 10161 10158 ] final    7.62 input  -65.29 | X-H torsion
[ 10718 10713 10712 10709 ] final  168.88 input   66.30 | X-H torsion
[ 10763 10752 10751 10750 ] final  -70.59 input  -60.55 | X-H torsion
[ 11005 11000 10999 10996 ] final  151.98 input  -57.11 | X-H torsion

> <Gold.Protein.ActiveResidues>
 VAL166  LYS551  ARG553  GLY616  TRP617  ASP618  TYR619  PRO620  LYS621  CYS622 
 ASP623  PHE694  ASN695  SER759  ASP760  ASP761  ALA762  ILE779  LEU786  VAL792 
 PHE793  MET794  SER795  GLU796  ALA797  LYS798  CYS799  TRP800  GLU811  SER814 

> <Gold.Protein.RotatedAtoms>
  152.4937  134.4383  159.9534 H   0  0  0  0  0  0  0  0  0  0  0  0  # atno 6907 bound_to 6896
  151.4365  133.3649  159.2783 H   0  0  0  0  0  0  0  0  0  0  0  0  # atno 6908 bound_to 6896
  150.9118  134.8558  159.7490 H   0  0  0  0  0  0  0  0  0  0  0  0  # atno 6909 bound_to 6896
  144.7186  140.0078  143.6440 H   0  0  0  0  0  0  0  0  0  0  0  0  # atno 7974 bound_to 7965
  154.9786  140.0396  157.2267 H   0  0  0  0  0  0  0  0  0  0  0  0  # atno 8008 bound_to 7997
  154.7735  140.2806  155.6097 H   0  0  0  0  0  0  0  0  0  0  0  0  # atno 8009 bound_to 7997
  156.2925  140.2605  156.2543 H   0  0  0  0  0  0  0  0  0  0  0  0  # atno 8010 bound_to 7997
  140.6361  143.7883  150.7361 H   0  0  0  0  0  0  0  0  0  0  0  0  # atno 10167 bound_to 10162
  157.0307  131.0258  151.2745 H   0  0  0  0  0  0  0  0  0  0  0  0  # atno 10718 bound_to 10713
  154.4199  135.5989  153.6003 H   0  0  0  0  0  0  0  0  0  0  0  0  # atno 10763 bound_to 10752
  152.9793  135.5949  154.3968 H   0  0  0  0  0  0  0  0  0  0  0  0  # atno 10764 bound_to 10752
  154.3792  135.2841  155.2200 H   0  0  0  0  0  0  0  0  0  0  0  0  # atno 10765 bound_to 10752
  140.1267  134.8829  157.2147 H   0  0  0  0  0  0  0  0  0  0  0  0  # atno 11005 bound_to 11000
  146.0283  139.3312  143.0771 LP  0  0  0  0  0  0  0  0  0  0  0  0  # atno 17320 bound_to 7965
  145.8484  140.9542  143.0762 LP  0  0  0  0  0  0  0  0  0  0  0  0  # atno 17321 bound_to 7965
  140.1504  143.4362  152.2135 LP  0  0  0  0  0  0  0  0  0  0  0  0  # atno 17342 bound_to 10162
  139.5571  144.7380  151.4261 LP  0  0  0  0  0  0  0  0  0  0  0  0  # atno 17343 bound_to 10162
  157.5180  130.7980  149.7777 LP  0  0  0  0  0  0  0  0  0  0  0  0  # atno 17370 bound_to 10713
  156.0071  130.3850  150.2394 LP  0  0  0  0  0  0  0  0  0  0  0  0  # atno 17371 bound_to 10713
  140.2895  134.3256  155.7319 LP  0  0  0  0  0  0  0  0  0  0  0  0  # atno 17394 bound_to 11000
  141.2162  133.7526  156.9482 LP  0  0  0  0  0  0  0  0  0  0  0  0  # atno 17395 bound_to 11000

$$$$
