AV-unprocessed.smi:155|AV-procd|sdf|1285|dock6
  -GOLD-   2262018563D 1   1.00000     0.00000
 Structure written by MMmdl.
 64 67  0  0  0  0  0  0  0  0  3 V2000
  144.2261  134.1085  151.2571 C   0  0  0  0  0  0  0  0  0  0  0  0
  145.5161  133.3942  151.3979 N   0  3  0  0  0  0  0  0  0  0  0  0
  145.7682  132.4980  150.2475 C   0  0  0  0  0  0  0  0  0  0  0  0
  146.6641  134.2991  151.6613 C   0  0  0  0  0  0  0  0  0  0  0  0
  146.4728  135.1520  152.9339 C   0  0  0  0  0  0  0  0  0  0  0  0
  147.6973  135.2268  153.7754 N   0  3  2  0  0  0  0  0  0  0  0  0
  148.2932  133.8899  154.0387 C   0  0  0  0  0  0  0  0  0  0  0  0
  149.8247  133.9481  153.9135 C   0  0  0  0  0  0  0  0  0  0  0  0
  150.5407  134.6392  155.0838 C   0  0  0  0  0  0  0  0  0  0  0  0
  150.0039  135.9742  155.3551 N   0  0  0  0  0  0  0  0  0  0  0  0
  150.8440  137.0228  155.5575 C   0  0  0  0  0  0  0  0  0  0  0  0
  151.7750  137.3307  154.6159 N   0  0  0  0  0  0  0  0  0  0  0  0
  152.6180  138.3504  154.8034 C   0  0  0  0  0  0  0  0  0  0  0  0
  152.7033  139.1811  155.8435 N   0  0  0  0  0  0  0  0  0  0  0  0
  151.7692  138.8824  156.7906 C   0  0  0  0  0  0  0  0  0  0  0  0
  150.8103  137.8316  156.7301 C   0  0  0  0  0  0  0  0  0  0  0  0
  150.0215  137.8485  157.8756 N   0  0  0  0  0  0  0  0  0  0  0  0
  150.4944  138.8436  158.5759 C   0  0  0  0  0  0  0  0  0  0  0  0
  151.5431  139.5199  157.9965 N   0  0  0  0  0  0  0  0  0  0  0  0
  152.2550  140.6625  158.5413 C   0  0  0  0  0  0  0  0  0  0  0  0
  151.8447  141.9876  157.8635 C   0  0  1  0  0  0  0  0  0  0  0  0
  150.4327  142.0118  157.7693 O   0  0  0  0  0  0  0  0  0  0  0  0
  152.2877  143.2344  158.6547 C   0  0  1  0  0  0  0  0  0  0  0  0
  151.8469  144.5689  158.0470 C   0  0  0  0  0  0  0  0  0  0  0  0
  151.7915  145.5132  159.2375 C   0  0  0  0  0  0  0  0  0  0  0  0
  151.8038  144.5789  160.4488 C   0  0  0  0  0  0  0  0  0  0  0  0
  151.6224  143.2783  159.9084 O   0  0  0  0  0  0  0  0  0  0  0  0
  148.6899  136.0438  155.9922 C   0  0  0  0  0  0  0  0  0  0  0  0
  147.5078  136.0531  155.0006 C   0  0  0  0  0  0  0  0  0  0  0  0
  144.2551  134.8100  150.4223 H   0  0  0  0  0  0  0  0  0  0  0  0
  143.9765  134.6615  152.1621 H   0  0  0  0  0  0  0  0  0  0  0  0
  143.4142  133.4025  151.0778 H   0  0  0  0  0  0  0  0  0  0  0  0
  145.8854  133.0689  149.3253 H   0  0  0  0  0  0  0  0  0  0  0  0
  144.9415  131.7990  150.1139 H   0  0  0  0  0  0  0  0  0  0  0  0
  146.6732  131.9097  150.4036 H   0  0  0  0  0  0  0  0  0  0  0  0
  147.5579  133.6863  151.7910 H   0  0  0  0  0  0  0  0  0  0  0  0
  146.8397  134.9279  150.7873 H   0  0  0  0  0  0  0  0  0  0  0  0
  146.1400  136.1606  152.6855 H   0  0  0  0  0  0  0  0  0  0  0  0
  145.6777  134.6935  153.5239 H   0  0  0  0  0  0  0  0  0  0  0  0
  147.9782  133.4957  155.0060 H   0  0  0  0  0  0  0  0  0  0  0  0
  147.9385  133.1702  153.3000 H   0  0  0  0  0  0  0  0  0  0  0  0
  150.2106  132.9311  153.8351 H   0  0  0  0  0  0  0  0  0  0  0  0
  150.0948  134.4400  152.9780 H   0  0  0  0  0  0  0  0  0  0  0  0
  150.4463  134.0331  155.9855 H   0  0  0  0  0  0  0  0  0  0  0  0
  151.6048  134.6713  154.8492 H   0  0  0  0  0  0  0  0  0  0  0  0
  153.3263  138.5249  154.0065 H   0  0  0  0  0  0  0  0  0  0  0  0
  150.0853  139.1182  159.5375 H   0  0  0  0  0  0  0  0  0  0  0  0
  152.0740  140.7096  159.6162 H   0  0  0  0  0  0  0  0  0  0  0  0
  153.3218  140.4769  158.4138 H   0  0  0  0  0  0  0  0  0  0  0  0
  152.2654  142.0235  156.8575 H   0  0  0  0  0  0  0  0  0  0  0  0
  150.1654  141.3857  157.1142 H   0  0  0  0  0  0  0  0  0  0  0  0
  153.3690  143.2390  158.8093 H   0  0  0  0  0  0  0  0  0  0  0  0
  152.5196  144.9185  157.2634 H   0  0  0  0  0  0  0  0  0  0  0  0
  150.8493  144.4733  157.6157 H   0  0  0  0  0  0  0  0  0  0  0  0
  152.6525  146.1822  159.2600 H   0  0  0  0  0  0  0  0  0  0  0  0
  150.8894  146.1249  159.2076 H   0  0  0  0  0  0  0  0  0  0  0  0
  152.7667  144.6251  160.9596 H   0  0  0  0  0  0  0  0  0  0  0  0
  151.0226  144.8164  161.1710 H   0  0  0  0  0  0  0  0  0  0  0  0
  148.5922  135.1738  156.6425 H   0  0  0  0  0  0  0  0  0  0  0  0
  148.6176  136.9012  156.6628 H   0  0  0  0  0  0  0  0  0  0  0  0
  147.3376  137.0827  154.6895 H   0  0  0  0  0  0  0  0  0  0  0  0
  146.6039  135.7387  155.5241 H   0  0  0  0  0  0  0  0  0  0  0  0
  145.4283  132.7920  152.2044 H   0  0  0  0  0  0  0  0  0  0  0  0
  148.3853  135.7100  153.2153 H   0  0  0  0  0  0  0  0  0  0  0  0
  1  2  1  0  0  0  0
  1 30  1  0  0  0  0
  1 31  1  0  0  0  0
  1 32  1  0  0  0  0
  2  3  1  0  0  0  0
  2  4  1  0  0  0  0
  2 63  1  0  0  0  0
  3 33  1  0  0  0  0
  3 34  1  0  0  0  0
  3 35  1  0  0  0  0
  4  5  1  0  0  0  0
  4 36  1  0  0  0  0
  4 37  1  0  0  0  0
  5  6  1  0  0  0  0
  5 38  1  0  0  0  0
  5 39  1  0  0  0  0
  6 29  1  0  0  0  0
  6  7  1  0  0  0  0
  6 64  1  0  0  0  0
  7  8  1  0  0  0  0
  7 40  1  0  0  0  0
  7 41  1  0  0  0  0
  8  9  1  0  0  0  0
  8 42  1  0  0  0  0
  8 43  1  0  0  0  0
  9 10  1  0  0  0  0
  9 44  1  0  0  0  0
  9 45  1  0  0  0  0
 10 11  1  0  0  0  0
 10 28  1  0  0  0  0
 11 16  1  0  0  0  0
 11 12  2  0  0  0  0
 12 13  1  0  0  0  0
 13 14  2  0  0  0  0
 13 46  1  0  0  0  0
 14 15  1  0  0  0  0
 15 19  1  0  0  0  0
 15 16  2  0  0  0  0
 16 17  1  0  0  0  0
 17 18  2  0  0  0  0
 18 19  1  0  0  0  0
 18 47  1  0  0  0  0
 19 20  1  0  0  0  0
 20 21  1  0  0  0  0
 20 48  1  0  0  0  0
 20 49  1  0  0  0  0
 21 22  1  0  0  0  0
 21 23  1  0  0  0  0
 21 50  1  0  0  0  0
 22 51  1  0  0  0  0
 23 27  1  0  0  0  0
 23 24  1  0  0  0  0
 23 52  1  0  0  0  0
 24 25  1  0  0  0  0
 24 53  1  0  0  0  0
 24 54  1  0  0  0  0
 25 26  1  0  0  0  0
 25 55  1  0  0  0  0
 25 56  1  0  0  0  0
 26 27  1  0  0  0  0
 26 57  1  0  0  0  0
 26 58  1  0  0  0  0
 28 29  1  0  0  0  0
 28 59  1  0  0  0  0
 28 60  1  0  0  0  0
 29 61  1  0  0  0  0
 29 62  1  0  0  0  0
M  CHG  1   2   1
M  CHG  1   6   1
M  END
> <s_m_source_file>
AV-unprocessed.smi

> <i_m_source_file_index>
155

> <i_lp_mmshare_version>
43012

> <i_f3d_flags>
0

> <s_epik_input>
W0NIM11OKFtDSDNdKVtDSDJdW0NIMl1OMVtDSDJdW0NIMl1bQ0gyXU4oW0NIMl1bQ0gyXTEpYyhuW2NIXW4yKWMoYzIzKW5bY0hdbjNbQ0gyXVtDQEhdKFtPSF0pW0NAQEhdNFtDSDJdW0NIMl1bQ0gyXU80

> <s_epik_cmdline>
J2VwaWtfcHl0aG9uJywgJy1waCcsICc3LjAnLCAnLXRuJywgJzgnLCAnLW1hJywgJzIwMCcsICctbWV0YWxfYmluZGluZycsICctaW1hZScsICc8aW5maWxlLm1hZT4nLCAnLW9tYWUnLCAnPG91dGZpbGUubWFlPic=

> <r_lp_tautomer_probability>
1

> <r_epik_Ionization_Penalty>
3.0333

> <r_epik_Ionization_Penalty_Charging>
3.03317

> <r_epik_Ionization_Penalty_Neutral>
0.000131872

> <r_epik_State_Penalty>
1.99939

> <r_epik_Charging_Adjusted_Penalty>
5.03256

> <i_epik_Tot_Q>
2

> <i_epik_Tot_abs_Q>
2

> <r_epik_Metal_State_Penalty>
2.00021

> <b_epik_Metal_Only>
0

> <s_lp_Force_Field>
OPLS_2005

> <r_lp_Energy>
63.1179

> <b_lp_Chiralities_Consistent>
1

> <s_lp_Variant>
AV-unprocessed.smi:155-19

> <Gold.Version>
5.8.1

> <Gold.Id.Protein>
6NUR|6NUR_protein|mol2

> <Gold.PLP.Fitness>
57.5763

> <Gold.PLP.PLP>
-48.0016

> <Gold.PLP.part.hbond>
-3.0000

> <Gold.PLP.part.metal>
0.0000

> <Gold.PLP.part.buried>
-7.9246

> <Gold.PLP.part.nonpolar>
-37.6486

> <Gold.PLP.part.repulsive>
0.1503

> <Gold.PLP.ligand.clash>
0.0000

> <Gold.PLP.ligand.torsion>
1.3646

> <Gold.PLP.Chemscore.Hbond>
3.9913

> <Gold.PLP.Chemscore.CHOScore>
0.0000

> <Gold.PLP.Chemscore.Metal>
0.0000

> <Gold.Chemscore.Hbonds>
donor molecule, donor type, donor heavy atom, donor atom, acceptor molecule, acceptor atom, score
      L1  H     6    64       P1  7948  2.00
      P1  H  7997  8010       L1    14  1.00
      P1  H 10752 10763       L1    12  0.87

> <Gold.PLP.Chemscore.Internal.Correction>
0.3302

> <Gold.Rescore>
     Score         DG    S(hbond)    S(metal)    S(lipo)     H(rot)  DE(clash)    DE(int)     intcor
     16.07     -18.79       2.21        0.00     110.94       2.75       0.18       2.54       ----

> <Gold.Chemscore.Fitness>
16.0722

> <Gold.Chemscore.DG>
-18.7868

> <Gold.Chemscore.ZeroCoef>
-5.4800

> <Gold.Chemscore.Hbond>
2.2051

> <Gold.Chemscore.Metal>
0.0000

> <Gold.Chemscore.Lipo>
110.9415

> <Gold.Chemscore.Internal_Hbond>
0.0000

> <Gold.Chemscore.DEClash>
0.1786

> <Gold.Chemscore.DEInternal>
2.5360

> <Gold.Chemscore.Rot>
2.7493

> <Gold.Chemscore.Internal.Correction>
   9.000000E+99

> <Gold.Chemscore.Hbonds>
donor molecule, donor type, donor heavy atom, donor atom, acceptor molecule, acceptor atom, score
      L1  H     6    64       P1  7948  0.92
      P1  H  7997  8010       L1    14  0.92
      P1  H 10752 10763       L1    12  0.18

> <Gold.Chemscore.Hbond.Weighted>
-7.3649

> <Gold.Chemscore.Metal.Weighted>
-0.0000

> <Gold.Chemscore.Lipo.Weighted>
-12.9802

> <Gold.Chemscore.Internal_Hbond.Weighted>
0.0000

> <Gold.Chemscore.DEClash.Weighted>
0.1786

> <Gold.Chemscore.DEInternal.Weighted>
2.5360

> <Gold.Chemscore.Rot.Weighted>
7.0383

> <Gold.Chemscore.Internal.Correction.Weighted>
   9.000000E+99

> <Gold.Protein.RotatedTorsions>
[ 6907 6896 6895 6894 ] final  -51.07 input  -60.11 | X-H torsion
[ 7974 7965 7964 7962 ] final -124.59 input  175.53 | X-H torsion
[ 8008 7997 7996 7995 ] final   69.88 input   59.86 | X-H torsion
[ 10167 10162 10161 10158 ] final   63.26 input  -65.29 | X-H torsion
[ 10718 10713 10712 10709 ] final  151.74 input   66.30 | X-H torsion
[ 10763 10752 10751 10750 ] final   56.37 input  -60.55 | X-H torsion
[ 11005 11000 10999 10996 ] final   57.15 input  -57.11 | X-H torsion

> <Gold.Protein.ActiveResidues>
 VAL166  LYS551  ARG553  GLY616  TRP617  ASP618  TYR619  PRO620  LYS621  CYS622 
 ASP623  PHE694  ASN695  SER759  ASP760  ASP761  ALA762  ILE779  LEU786  VAL792 
 PHE793  MET794  SER795  GLU796  ALA797  LYS798  CYS799  TRP800  GLU811  SER814 

> <Gold.Protein.RotatedAtoms>
  150.8646  134.8006  159.7108 H   0  0  0  0  0  0  0  0  0  0  0  0  # atno 6907 bound_to 6896
  152.4672  134.5045  159.9744 H   0  0  0  0  0  0  0  0  0  0  0  0  # atno 6908 bound_to 6896
  151.5143  133.3440  159.2926 H   0  0  0  0  0  0  0  0  0  0  0  0  # atno 6909 bound_to 6896
  145.0065  140.7867  143.4464 H   0  0  0  0  0  0  0  0  0  0  0  0  # atno 7974 bound_to 7965
  155.7304  140.3492  155.5057 H   0  0  0  0  0  0  0  0  0  0  0  0  # atno 8008 bound_to 7997
  155.9188  140.1063  157.1245 H   0  0  0  0  0  0  0  0  0  0  0  0  # atno 8009 bound_to 7997
  154.4066  140.1253  156.4639 H   0  0  0  0  0  0  0  0  0  0  0  0  # atno 8010 bound_to 7997
  140.1350  144.4608  150.6843 H   0  0  0  0  0  0  0  0  0  0  0  0  # atno 10167 bound_to 10162
  157.2668  131.0809  151.1627 H   0  0  0  0  0  0  0  0  0  0  0  0  # atno 10718 bound_to 10713
  152.9831  135.5679  154.5217 H   0  0  0  0  0  0  0  0  0  0  0  0  # atno 10763 bound_to 10752
  154.4704  135.2784  155.1649 H   0  0  0  0  0  0  0  0  0  0  0  0  # atno 10764 bound_to 10752
  154.3199  135.6271  153.5556 H   0  0  0  0  0  0  0  0  0  0  0  0  # atno 10765 bound_to 10752
  140.0474  134.5786  155.9305 H   0  0  0  0  0  0  0  0  0  0  0  0  # atno 11005 bound_to 11000
  145.2081  139.2218  143.5157 LP  0  0  0  0  0  0  0  0  0  0  0  0  # atno 17320 bound_to 7965
  146.3462  140.1914  142.8589 LP  0  0  0  0  0  0  0  0  0  0  0  0  # atno 17321 bound_to 7965
  140.6795  143.2320  151.5422 LP  0  0  0  0  0  0  0  0  0  0  0  0  # atno 17342 bound_to 10162
  139.5501  144.2419  152.1514 LP  0  0  0  0  0  0  0  0  0  0  0  0  # atno 17343 bound_to 10162
  157.3115  130.6892  149.6218 LP  0  0  0  0  0  0  0  0  0  0  0  0  # atno 17370 bound_to 10713
  155.9663  130.4362  150.5124 LP  0  0  0  0  0  0  0  0  0  0  0  0  # atno 17371 bound_to 10713
  141.1914  133.6571  156.5453 LP  0  0  0  0  0  0  0  0  0  0  0  0  # atno 17394 bound_to 11000
  140.3971  134.7389  157.4757 LP  0  0  0  0  0  0  0  0  0  0  0  0  # atno 17395 bound_to 11000

$$$$
