AV-unprocessed.smi:2990|AV-procd|sdf|11394|dock3
  -GOLD-   2272016313D 1   1.00000     0.00000
 Structure written by MMmdl.
 39 41  0  0  0  0  0  0  0  0  1 V2000
  151.5629  139.0858  154.7824 C   0  0  0  0  0  0  0  0  0  0  0  0
  151.6609  139.9909  155.9692 C   0  0  0  0  0  0  0  0  0  0  0  0
  152.5085  139.7574  156.9718 N   0  0  0  0  0  0  0  0  0  0  0  0
  152.2643  140.8146  157.8271 C   0  0  0  0  0  0  0  0  0  0  0  0
  152.8446  141.1410  159.0738 C   0  0  0  0  0  0  0  0  0  0  0  0
  152.4270  142.2903  159.7765 C   0  0  0  0  0  0  0  0  0  0  0  0
  151.4250  143.1277  159.2447 C   0  0  0  0  0  0  0  0  0  0  0  0
  150.8338  142.8209  158.0040 C   0  0  0  0  0  0  0  0  0  0  0  0
  151.2548  141.6730  157.3064 C   0  0  0  0  0  0  0  0  0  0  0  0
  150.8900  141.0996  156.0928 N   0  0  0  0  0  0  0  0  0  0  0  0
  149.8831  141.6074  155.1713 C   0  0  0  0  0  0  0  0  0  0  0  0
  148.5505  140.8374  155.2721 C   0  0  1  0  0  0  0  0  0  0  0  0
  148.1960  140.5817  156.6167 O   0  0  0  0  0  0  0  0  0  0  0  0
  147.3802  141.5360  154.5601 C   0  0  0  0  0  0  0  0  0  0  0  0
  146.6339  142.3064  155.4944 O   0  0  0  0  0  0  0  0  0  0  0  0
  145.7712  143.2664  155.0116 C   0  0  0  0  0  0  0  0  0  0  0  0
  144.8063  143.7677  155.9100 C   0  0  0  0  0  0  0  0  0  0  0  0
  143.8859  144.7530  155.5041 C   0  0  0  0  0  0  0  0  0  0  0  0
  143.9209  145.2480  154.1876 C   0  0  0  0  0  0  0  0  0  0  0  0
  144.8770  144.7556  153.2798 C   0  0  0  0  0  0  0  0  0  0  0  0
  145.7986  143.7708  153.6864 C   0  0  0  0  0  0  0  0  0  0  0  0
  152.3266  138.3089  154.8294 H   0  0  0  0  0  0  0  0  0  0  0  0
  151.7054  139.6494  153.8600 H   0  0  0  0  0  0  0  0  0  0  0  0
  150.5848  138.6052  154.7561 H   0  0  0  0  0  0  0  0  0  0  0  0
  153.6122  140.5056  159.4899 H   0  0  0  0  0  0  0  0  0  0  0  0
  152.8778  142.5305  160.7282 H   0  0  0  0  0  0  0  0  0  0  0  0
  151.1111  144.0057  159.7898 H   0  0  0  0  0  0  0  0  0  0  0  0
  150.0667  143.4601  157.5927 H   0  0  0  0  0  0  0  0  0  0  0  0
  149.7309  142.6715  155.3512 H   0  0  0  0  0  0  0  0  0  0  0  0
  150.2810  141.5263  154.1591 H   0  0  0  0  0  0  0  0  0  0  0  0
  148.6800  139.8598  154.8065 H   0  0  0  0  0  0  0  0  0  0  0  0
  148.7027  139.8467  156.9266 H   0  0  0  0  0  0  0  0  0  0  0  0
  147.7856  142.2000  153.7948 H   0  0  0  0  0  0  0  0  0  0  0  0
  146.7458  140.8017  154.0603 H   0  0  0  0  0  0  0  0  0  0  0  0
  144.7720  143.3928  156.9226 H   0  0  0  0  0  0  0  0  0  0  0  0
  143.1534  145.1285  156.2036 H   0  0  0  0  0  0  0  0  0  0  0  0
  143.2154  146.0036  153.8746 H   0  0  0  0  0  0  0  0  0  0  0  0
  144.9043  145.1345  152.2688 H   0  0  0  0  0  0  0  0  0  0  0  0
  146.5167  143.4182  152.9618 H   0  0  0  0  0  0  0  0  0  0  0  0
  1  2  1  0  0  0  0
  1 22  1  0  0  0  0
  1 23  1  0  0  0  0
  1 24  1  0  0  0  0
  2 10  1  0  0  0  0
  2  3  2  0  0  0  0
  3  4  1  0  0  0  0
  4  9  2  0  0  0  0
  4  5  1  0  0  0  0
  5  6  2  0  0  0  0
  5 25  1  0  0  0  0
  6  7  1  0  0  0  0
  6 26  1  0  0  0  0
  7  8  2  0  0  0  0
  7 27  1  0  0  0  0
  8  9  1  0  0  0  0
  8 28  1  0  0  0  0
  9 10  1  0  0  0  0
 10 11  1  0  0  0  0
 11 12  1  0  0  0  0
 11 29  1  0  0  0  0
 11 30  1  0  0  0  0
 12 13  1  0  0  0  0
 12 14  1  0  0  0  0
 12 31  1  0  0  0  0
 13 32  1  0  0  0  0
 14 15  1  0  0  0  0
 14 33  1  0  0  0  0
 14 34  1  0  0  0  0
 15 16  1  0  0  0  0
 16 21  1  0  0  0  0
 16 17  2  0  0  0  0
 17 18  1  0  0  0  0
 17 35  1  0  0  0  0
 18 19  2  0  0  0  0
 18 36  1  0  0  0  0
 19 20  1  0  0  0  0
 19 37  1  0  0  0  0
 20 21  2  0  0  0  0
 20 38  1  0  0  0  0
 21 39  1  0  0  0  0
M  END
> <s_m_source_file>
AV-unprocessed.smi

> <i_m_source_file_index>
2990

> <i_lp_mmshare_version>
43012

> <i_f3d_flags>
0

> <s_epik_input>
W2NIXTFbY0hdW2NIXVtjSF1jKGMxMiluKGMobjIpW0NIM10pW0NIMl1bQ0BIXShbT0hdKVtDSDJdT2MzW2NIXVtjSF1bY0hdW2NIXVtjSF0z

> <s_epik_cmdline>
J2VwaWtfcHl0aG9uJywgJy1waCcsICc3LjAnLCAnLXRuJywgJzgnLCAnLW1hJywgJzIwMCcsICctbWV0YWxfYmluZGluZycsICctaW1hZScsICc8aW5maWxlLm1hZT4nLCAnLW9tYWUnLCAnPG91dGZpbGUubWFlPic=

> <r_lp_tautomer_probability>
1

> <r_epik_Ionization_Penalty>
0.119634

> <r_epik_Ionization_Penalty_Charging>
0

> <r_epik_Ionization_Penalty_Neutral>
0.119634

> <r_epik_State_Penalty>
0.10919

> <r_epik_Charging_Adjusted_Penalty>
0.10919

> <i_epik_Tot_Q>
0

> <i_epik_Tot_abs_Q>
0

> <r_epik_Metal_State_Penalty>
0.000119887

> <b_epik_Metal_Only>
0

> <s_lp_Force_Field>
OPLS_2005

> <r_lp_Energy>
16.8637

> <b_lp_Chiralities_Consistent>
1

> <s_lp_Variant>
AV-unprocessed.smi:2990-2

> <Gold.Version>
5.8.1

> <Gold.Id.Protein>
6NUR|6NUR_protein|mol2

> <Gold.PLP.Fitness>
46.3815

> <Gold.PLP.PLP>
-45.4671

> <Gold.PLP.part.hbond>
-1.0000

> <Gold.PLP.part.metal>
0.0000

> <Gold.PLP.part.buried>
-5.3865

> <Gold.PLP.part.nonpolar>
-39.3327

> <Gold.PLP.part.repulsive>
0.1615

> <Gold.PLP.ligand.clash>
0.0000

> <Gold.PLP.ligand.torsion>
1.0745

> <Gold.PLP.Chemscore.Hbond>
1.0000

> <Gold.PLP.Chemscore.CHOScore>
0.0000

> <Gold.PLP.Chemscore.Metal>
0.0000

> <Gold.Chemscore.Hbonds>
donor molecule, donor type, donor heavy atom, donor atom, acceptor molecule, acceptor atom, score
      P1  H  7997  8008       L1     3  1.00

> <Gold.PLP.Chemscore.Internal.Correction>
0.0634

> <Gold.Rescore>
     Score         DG    S(hbond)    S(metal)    S(lipo)     H(rot)  DE(clash)    DE(int)     intcor
     15.62     -16.96       0.66        0.00     123.84       2.04       0.35       0.99       ----

> <Gold.Chemscore.Fitness>
15.6201

> <Gold.Chemscore.DG>
-16.9602

> <Gold.Chemscore.ZeroCoef>
-5.4800

> <Gold.Chemscore.Hbond>
0.6596

> <Gold.Chemscore.Metal>
0.0000

> <Gold.Chemscore.Lipo>
123.8428

> <Gold.Chemscore.Internal_Hbond>
0.0000

> <Gold.Chemscore.DEClash>
0.3459

> <Gold.Chemscore.DEInternal>
0.9942

> <Gold.Chemscore.Rot>
2.0361

> <Gold.Chemscore.Internal.Correction>
   9.000000E+99

> <Gold.Chemscore.Hbonds>
donor molecule, donor type, donor heavy atom, donor atom, acceptor molecule, acceptor atom, score
      P1  H  7997  8008       L1     3  0.21

> <Gold.Chemscore.Hbond.Weighted>
-2.2030

> <Gold.Chemscore.Metal.Weighted>
-0.0000

> <Gold.Chemscore.Lipo.Weighted>
-14.4896

> <Gold.Chemscore.Internal_Hbond.Weighted>
0.0000

> <Gold.Chemscore.DEClash.Weighted>
0.3459

> <Gold.Chemscore.DEInternal.Weighted>
0.9942

> <Gold.Chemscore.Rot.Weighted>
5.2124

> <Gold.Chemscore.Internal.Correction.Weighted>
   9.000000E+99

> <Gold.Protein.RotatedTorsions>
[ 6907 6896 6895 6894 ] final -126.38 input  -60.11 | X-H torsion
[ 7974 7965 7964 7962 ] final  132.98 input  175.53 | X-H torsion
[ 8008 7997 7996 7995 ] final  -50.62 input   59.86 | X-H torsion
[ 10167 10162 10161 10158 ] final  -68.89 input  -65.29 | X-H torsion
[ 10718 10713 10712 10709 ] final  -61.55 input   66.30 | X-H torsion
[ 10763 10752 10751 10750 ] final -112.00 input  -60.55 | X-H torsion
[ 11005 11000 10999 10996 ] final -138.64 input  -57.11 | X-H torsion

> <Gold.Protein.ActiveResidues>
 VAL166  LYS551  ARG553  GLY616  TRP617  ASP618  TYR619  PRO620  LYS621  CYS622 
 ASP623  PHE694  ASN695  SER759  ASP760  ASP761  ALA762  ILE779  LEU786  VAL792 
 PHE793  MET794  SER795  GLU796  ALA797  LYS798  CYS799  TRP800  GLU811  SER814 

> <Gold.Protein.RotatedAtoms>
  150.8964  133.7176  159.2890 H   0  0  0  0  0  0  0  0  0  0  0  0  # atno 6907 bound_to 6896
  151.4709  135.1044  159.9761 H   0  0  0  0  0  0  0  0  0  0  0  0  # atno 6908 bound_to 6896
  152.4851  133.8304  159.7155 H   0  0  0  0  0  0  0  0  0  0  0  0  # atno 6909 bound_to 6896
  144.9913  139.4404  143.5338 H   0  0  0  0  0  0  0  0  0  0  0  0  # atno 7974 bound_to 7965
  154.4066  140.1268  156.4695 H   0  0  0  0  0  0  0  0  0  0  0  0  # atno 8008 bound_to 7997
  155.7193  140.3493  155.4989 H   0  0  0  0  0  0  0  0  0  0  0  0  # atno 8009 bound_to 7997
  155.9229  140.1056  157.1183 H   0  0  0  0  0  0  0  0  0  0  0  0  # atno 8010 bound_to 7997
  140.5472  143.2312  151.6979 H   0  0  0  0  0  0  0  0  0  0  0  0  # atno 10167 bound_to 10162
  156.0914  130.4199  150.1009 H   0  0  0  0  0  0  0  0  0  0  0  0  # atno 10718 bound_to 10713
  154.8328  135.4506  154.1127 H   0  0  0  0  0  0  0  0  0  0  0  0  # atno 10763 bound_to 10752
  153.2385  135.6913  153.7816 H   0  0  0  0  0  0  0  0  0  0  0  0  # atno 10764 bound_to 10752
  153.7173  135.3347  155.3235 H   0  0  0  0  0  0  0  0  0  0  0  0  # atno 10765 bound_to 10752
  140.8596  134.2185  157.4715 H   0  0  0  0  0  0  0  0  0  0  0  0  # atno 11005 bound_to 11000
  146.3432  139.9246  142.8762 LP  0  0  0  0  0  0  0  0  0  0  0  0  # atno 17320 bound_to 7965
  145.2282  140.9962  143.4006 LP  0  0  0  0  0  0  0  0  0  0  0  0  # atno 17321 bound_to 7965
  139.5012  144.3875  152.0314 LP  0  0  0  0  0  0  0  0  0  0  0  0  # atno 17342 bound_to 10162
  140.2989  144.3669  150.6066 LP  0  0  0  0  0  0  0  0  0  0  0  0  # atno 17343 bound_to 10162
  156.9018  130.9623  151.3575 LP  0  0  0  0  0  0  0  0  0  0  0  0  # atno 17370 bound_to 10713
  157.6065  130.8551  149.8883 LP  0  0  0  0  0  0  0  0  0  0  0  0  # atno 17371 bound_to 10713
  139.8706  134.9723  156.4768 LP  0  0  0  0  0  0  0  0  0  0  0  0  # atno 17394 bound_to 11000
  140.8698  133.7997  155.9352 LP  0  0  0  0  0  0  0  0  0  0  0  0  # atno 17395 bound_to 11000

$$$$
