AV-unprocessed.smi:2594|AV-procd|sdf|10167|dock8
  -GOLD-   2272014183D 1   1.00000     0.00000
 Structure written by MMmdl.
 29 30  0  0  0  0  0  0  0  0  1 V2000
  151.8704  141.6776  157.3349 O   0  0  0  0  0  0  0  0  0  0  0  0
  150.9823  142.2461  156.6973 C   0  0  0  0  0  0  0  0  0  0  0  0
  150.2165  141.5154  155.5861 C   0  0  0  0  0  0  0  0  0  0  0  0
  150.6308  140.1217  155.4177 N   0  0  0  0  0  0  0  0  0  0  0  0
  151.4420  139.8139  154.3701 N   0  0  0  0  0  0  0  0  0  0  0  0
  151.7147  138.5622  154.3398 C   0  0  0  0  0  0  0  0  0  0  0  0
  151.0007  137.5766  155.6227 S   0  0  0  0  0  0  0  0  0  0  0  0
  150.2551  139.0720  156.2513 C   0  0  0  0  0  0  0  0  0  0  0  0
  149.5418  139.1062  157.2523 O   0  0  0  0  0  0  0  0  0  0  0  0
  150.6069  143.5123  156.9320 N   0  0  0  0  0  0  0  0  0  0  0  0
  151.1825  144.3832  157.9503 C   0  0  0  0  0  0  0  0  0  0  0  0
  151.0238  143.7884  159.3592 C   0  0  1  0  0  0  0  0  0  0  0  0
  152.2963  143.1421  159.9011 C   0  0  0  0  0  0  0  0  0  0  0  0
  152.0431  143.1845  161.3908 C   0  0  0  0  0  0  0  0  0  0  0  0
  151.3391  144.5295  161.5560 C   0  0  0  0  0  0  0  0  0  0  0  0
  150.7128  144.8081  160.3053 O   0  0  0  0  0  0  0  0  0  0  0  0
  149.1496  141.5659  155.8097 H   0  0  0  0  0  0  0  0  0  0  0  0
  150.3574  142.0432  154.6413 H   0  0  0  0  0  0  0  0  0  0  0  0
  152.3397  138.0576  153.6033 H   0  0  0  0  0  0  0  0  0  0  0  0
  149.8621  143.8991  156.3704 H   0  0  0  0  0  0  0  0  0  0  0  0
  152.2368  144.5612  157.7316 H   0  0  0  0  0  0  0  0  0  0  0  0
  150.6870  145.3530  157.8943 H   0  0  0  0  0  0  0  0  0  0  0  0
  150.2193  143.0511  159.3771 H   0  0  0  0  0  0  0  0  0  0  0  0
  152.4549  142.1322  159.5223 H   0  0  0  0  0  0  0  0  0  0  0  0
  153.1722  143.7440  159.6538 H   0  0  0  0  0  0  0  0  0  0  0  0
  151.3734  142.3726  161.6771 H   0  0  0  0  0  0  0  0  0  0  0  0
  152.9534  143.1021  161.9853 H   0  0  0  0  0  0  0  0  0  0  0  0
  150.6123  144.5159  162.3686 H   0  0  0  0  0  0  0  0  0  0  0  0
  152.0626  145.3191  161.7627 H   0  0  0  0  0  0  0  0  0  0  0  0
  1  2  2  0  0  0  0
  2  3  1  0  0  0  0
  2 10  1  0  0  0  0
  3  4  1  0  0  0  0
  3 17  1  0  0  0  0
  3 18  1  0  0  0  0
  4  8  1  0  0  0  0
  4  5  1  0  0  0  0
  5  6  2  0  0  0  0
  6  7  1  0  0  0  0
  6 19  1  0  0  0  0
  7  8  1  0  0  0  0
  8  9  2  0  0  0  0
 10 11  1  0  0  0  0
 10 20  1  0  0  0  0
 11 12  1  0  0  0  0
 11 21  1  0  0  0  0
 11 22  1  0  0  0  0
 12 16  1  0  0  0  0
 12 13  1  0  0  0  0
 12 23  1  0  0  0  0
 13 14  1  0  0  0  0
 13 24  1  0  0  0  0
 13 25  1  0  0  0  0
 14 15  1  0  0  0  0
 14 26  1  0  0  0  0
 14 27  1  0  0  0  0
 15 16  1  0  0  0  0
 15 28  1  0  0  0  0
 15 29  1  0  0  0  0
M  END
> <s_m_source_file>
AV-unprocessed.smi

> <i_m_source_file_index>
2594

> <i_lp_mmshare_version>
43012

> <i_f3d_flags>
0

> <s_epik_input>
TzFbQ0gyXVtDSDJdW0NIMl1bQ0BIXTFbQ0gyXVtOSF1DKD1PKVtDSDJdbjJuW2NIXXNjMj1P

> <s_epik_cmdline>
J2VwaWtfcHl0aG9uJywgJy1waCcsICc3LjAnLCAnLXRuJywgJzgnLCAnLW1hJywgJzIwMCcsICctbWV0YWxfYmluZGluZycsICctaW1hZScsICc8aW5maWxlLm1hZT4nLCAnLW9tYWUnLCAnPG91dGZpbGUubWFlPic=

> <r_lp_tautomer_probability>
1

> <r_epik_Ionization_Penalty>
2.49222e-07

> <r_epik_Ionization_Penalty_Charging>
1.4085e-08

> <r_epik_Ionization_Penalty_Neutral>
2.35137e-07

> <r_epik_State_Penalty>
-0

> <r_epik_Charging_Adjusted_Penalty>
1.4085e-08

> <i_epik_Tot_Q>
0

> <i_epik_Tot_abs_Q>
0

> <r_epik_Metal_State_Penalty>
-0

> <b_epik_Metal_Only>
0

> <s_lp_Force_Field>
OPLS_2005

> <r_lp_Energy>
18.288

> <b_lp_Chiralities_Consistent>
1

> <s_lp_Variant>
AV-unprocessed.smi:2594-2

> <Gold.Version>
5.8.1

> <Gold.Id.Protein>
6NUR|6NUR_protein|mol2

> <Gold.PLP.Fitness>
40.4724

> <Gold.PLP.PLP>
-33.0668

> <Gold.PLP.part.hbond>
-2.0000

> <Gold.PLP.part.metal>
0.0000

> <Gold.PLP.part.buried>
-3.5937

> <Gold.PLP.part.nonpolar>
-27.3136

> <Gold.PLP.part.repulsive>
0.2805

> <Gold.PLP.ligand.clash>
0.0000

> <Gold.PLP.ligand.torsion>
0.8018

> <Gold.PLP.Chemscore.Hbond>
2.0000

> <Gold.PLP.Chemscore.CHOScore>
1.0000

> <Gold.PLP.Chemscore.Metal>
0.0000

> <Gold.Chemscore.Hbonds>
donor molecule, donor type, donor heavy atom, donor atom, acceptor molecule, acceptor atom, score
      L1  H    10    20       P1  8028  0.80
      P1  H  7989  7998       L1     5  0.62

> <Gold.PLP.Chemscore.Internal.Correction>
0.0092

> <Gold.Rescore>
     Score         DG    S(hbond)    S(metal)    S(lipo)     H(rot)  DE(clash)    DE(int)     intcor
     14.31     -16.10       1.92        0.00      79.50       2.00       0.79       0.99       ----

> <Gold.Chemscore.Fitness>
14.3126

> <Gold.Chemscore.DG>
-16.0962

> <Gold.Chemscore.ZeroCoef>
-5.4800

> <Gold.Chemscore.Hbond>
1.9228

> <Gold.Chemscore.Metal>
0.0000

> <Gold.Chemscore.Lipo>
79.5020

> <Gold.Chemscore.Internal_Hbond>
0.0000

> <Gold.Chemscore.DEClash>
0.7886

> <Gold.Chemscore.DEInternal>
0.9950

> <Gold.Chemscore.Rot>
1.9952

> <Gold.Chemscore.Internal.Correction>
   9.000000E+99

> <Gold.Chemscore.Hbonds>
donor molecule, donor type, donor heavy atom, donor atom, acceptor molecule, acceptor atom, score
      L1  H    10    20       P1  8028  0.79
      P1  H  7989  7998       L1     5  0.53

> <Gold.Chemscore.Hbond.Weighted>
-6.4222

> <Gold.Chemscore.Metal.Weighted>
-0.0000

> <Gold.Chemscore.Lipo.Weighted>
-9.3017

> <Gold.Chemscore.Internal_Hbond.Weighted>
0.0000

> <Gold.Chemscore.DEClash.Weighted>
0.7886

> <Gold.Chemscore.DEInternal.Weighted>
0.9950

> <Gold.Chemscore.Rot.Weighted>
5.1077

> <Gold.Chemscore.Internal.Correction.Weighted>
   9.000000E+99

> <Gold.Protein.RotatedTorsions>
[ 6907 6896 6895 6894 ] final -167.31 input  -60.11 | X-H torsion
[ 7974 7965 7964 7962 ] final  -88.13 input  175.53 | X-H torsion
[ 8008 7997 7996 7995 ] final   36.14 input   59.86 | X-H torsion
[ 10167 10162 10161 10158 ] final  143.19 input  -65.29 | X-H torsion
[ 10718 10713 10712 10709 ] final  137.36 input   66.30 | X-H torsion
[ 10763 10752 10751 10750 ] final  117.70 input  -60.55 | X-H torsion
[ 11005 11000 10999 10996 ] final -133.50 input  -57.11 | X-H torsion

> <Gold.Protein.ActiveResidues>
 VAL166  LYS551  ARG553  GLY616  TRP617  ASP618  TYR619  PRO620  LYS621  CYS622 
 ASP623  PHE694  ASN695  SER759  ASP760  ASP761  ALA762  ILE779  LEU786  VAL792 
 PHE793  MET794  SER795  GLU796  ALA797  LYS798  CYS799  TRP800  GLU811  SER814 

> <Gold.Protein.RotatedAtoms>
  151.4576  133.3601  159.2804 H   0  0  0  0  0  0  0  0  0  0  0  0  # atno 6907 bound_to 6896
  150.9048  134.8464  159.7395 H   0  0  0  0  0  0  0  0  0  0  0  0  # atno 6908 bound_to 6896
  152.4900  134.4500  159.9623 H   0  0  0  0  0  0  0  0  0  0  0  0  # atno 6909 bound_to 6896
  145.4572  140.9561  143.1989 H   0  0  0  0  0  0  0  0  0  0  0  0  # atno 7974 bound_to 7965
  155.1826  140.3301  155.4372 H   0  0  0  0  0  0  0  0  0  0  0  0  # atno 8008 bound_to 7997
  156.2471  140.1924  156.6874 H   0  0  0  0  0  0  0  0  0  0  0  0  # atno 8009 bound_to 7997
  154.6261  140.0589  156.9660 H   0  0  0  0  0  0  0  0  0  0  0  0  # atno 8010 bound_to 7997
  139.4975  144.6057  151.6384 H   0  0  0  0  0  0  0  0  0  0  0  0  # atno 10167 bound_to 10162
  157.4369  131.1054  151.0188 H   0  0  0  0  0  0  0  0  0  0  0  0  # atno 10718 bound_to 10713
  153.5564  135.3529  155.2781 H   0  0  0  0  0  0  0  0  0  0  0  0  # atno 10763 bound_to 10752
  154.8700  135.4126  154.2879 H   0  0  0  0  0  0  0  0  0  0  0  0  # atno 10764 bound_to 10752
  153.3616  135.7060  153.6777 H   0  0  0  0  0  0  0  0  0  0  0  0  # atno 10765 bound_to 10752
  140.9075  134.1611  157.4414 H   0  0  0  0  0  0  0  0  0  0  0  0  # atno 11005 bound_to 11000
  144.8025  139.6114  143.7065 LP  0  0  0  0  0  0  0  0  0  0  0  0  # atno 17320 bound_to 7965
  146.2471  139.6121  142.9452 LP  0  0  0  0  0  0  0  0  0  0  0  0  # atno 17321 bound_to 7965
  140.5718  144.0096  150.6221 LP  0  0  0  0  0  0  0  0  0  0  0  0  # atno 17342 bound_to 10162
  140.3216  143.3134  152.0778 LP  0  0  0  0  0  0  0  0  0  0  0  0  # atno 17343 bound_to 10162
  157.1065  130.6003  149.5472 LP  0  0  0  0  0  0  0  0  0  0  0  0  # atno 17370 bound_to 10713
  155.9934  130.4994  150.7377 LP  0  0  0  0  0  0  0  0  0  0  0  0  # atno 17371 bound_to 10713
  139.8752  134.9923  156.5588 LP  0  0  0  0  0  0  0  0  0  0  0  0  # atno 17394 bound_to 11000
  140.8152  133.8397  155.8846 LP  0  0  0  0  0  0  0  0  0  0  0  0  # atno 17395 bound_to 11000

$$$$
