AV-unprocessed.smi:654|AV-procd|sdf|3212|dock6
  -GOLD-   22720 0153D 1   1.00000     0.00000
 Structure written by MMmdl.
 47 49  0  0  0  0  0  0  0  0  1 V2000
  150.7591  137.1384  159.4148 O   0  0  0  0  0  0  0  0  0  0  0  0
  149.8297  137.6892  158.8232 C   0  0  0  0  0  0  0  0  0  0  0  0
  149.8863  138.9795  158.4535 N   0  0  0  0  0  0  0  0  0  0  0  0
  151.0426  139.8546  158.6162 C   0  0  0  0  0  0  0  0  0  0  0  0
  150.9313  141.1362  157.7676 C   0  0  0  0  0  0  0  0  0  0  0  0
  151.4002  142.3824  158.4995 C   0  0  0  0  0  0  0  0  0  0  0  0
  151.2588  143.6584  157.9169 C   0  0  0  0  0  0  0  0  0  0  0  0
  151.7252  144.7827  158.6251 C   0  0  0  0  0  0  0  0  0  0  0  0
  152.3135  144.5820  159.8900 C   0  0  0  0  0  0  0  0  0  0  0  0
  152.4534  143.3651  160.4583 N   0  0  0  0  0  0  0  0  0  0  0  0
  152.0025  142.2926  159.7732 C   0  0  0  0  0  0  0  0  0  0  0  0
  148.6699  137.0583  158.5066 N   0  0  0  0  0  0  0  0  0  0  0  0
  147.5147  137.6584  157.8214 C   0  0  0  0  0  0  0  0  0  0  0  0
  146.4062  137.9156  158.8497 C   0  0  0  0  0  0  0  0  0  0  0  0
  145.8317  136.3538  159.5852 S   0  0  0  0  0  0  0  0  0  0  0  0
  147.4156  135.5728  160.0809 C   0  0  0  0  0  0  0  0  0  0  0  0
  147.9914  136.2609  161.3486 C   0  0  0  0  0  0  0  0  0  0  0  0
  147.1447  136.0233  162.6117 C   0  0  0  0  0  0  0  0  0  0  0  0
  146.9410  134.5258  162.8749 C   0  0  0  0  0  0  0  0  0  0  0  0
  146.3215  133.8363  161.6526 C   0  0  0  0  0  0  0  0  0  0  0  0
  147.1695  134.0743  160.3899 C   0  0  0  0  0  0  0  0  0  0  0  0
  148.4081  135.6633  158.8897 C   0  0  0  0  0  0  0  0  0  0  0  0
  149.0827  139.3705  157.9841 H   0  0  0  0  0  0  0  0  0  0  0  0
  151.1004  140.1219  159.6717 H   0  0  0  0  0  0  0  0  0  0  0  0
  151.9645  139.3196  158.3836 H   0  0  0  0  0  0  0  0  0  0  0  0
  151.5109  141.0228  156.8509 H   0  0  0  0  0  0  0  0  0  0  0  0
  149.8966  141.2794  157.4530 H   0  0  0  0  0  0  0  0  0  0  0  0
  150.8063  143.7741  156.9429 H   0  0  0  0  0  0  0  0  0  0  0  0
  151.6358  145.7751  158.2085 H   0  0  0  0  0  0  0  0  0  0  0  0
  152.6824  145.4218  160.4603 H   0  0  0  0  0  0  0  0  0  0  0  0
  152.1365  141.3334  160.2517 H   0  0  0  0  0  0  0  0  0  0  0  0
  147.7550  138.5821  157.2946 H   0  0  0  0  0  0  0  0  0  0  0  0
  147.1521  136.9830  157.0452 H   0  0  0  0  0  0  0  0  0  0  0  0
  146.7601  138.5806  159.6380 H   0  0  0  0  0  0  0  0  0  0  0  0
  145.5571  138.4086  158.3763 H   0  0  0  0  0  0  0  0  0  0  0  0
  148.9992  135.8859  161.5324 H   0  0  0  0  0  0  0  0  0  0  0  0
  148.0979  137.3342  161.1944 H   0  0  0  0  0  0  0  0  0  0  0  0
  147.6309  136.4852  163.4712 H   0  0  0  0  0  0  0  0  0  0  0  0
  146.1761  136.5137  162.5099 H   0  0  0  0  0  0  0  0  0  0  0  0
  147.8993  134.0614  163.1111 H   0  0  0  0  0  0  0  0  0  0  0  0
  146.3033  134.3831  163.7478 H   0  0  0  0  0  0  0  0  0  0  0  0
  146.2327  132.7657  161.8396 H   0  0  0  0  0  0  0  0  0  0  0  0
  145.3059  134.2025  161.4989 H   0  0  0  0  0  0  0  0  0  0  0  0
  146.6934  133.5899  159.5367 H   0  0  0  0  0  0  0  0  0  0  0  0
  148.1283  133.5705  160.5224 H   0  0  0  0  0  0  0  0  0  0  0  0
  148.0059  135.1256  158.0295 H   0  0  0  0  0  0  0  0  0  0  0  0
  149.3315  135.1365  159.1359 H   0  0  0  0  0  0  0  0  0  0  0  0
  1  2  2  0  0  0  0
  2  3  1  0  0  0  0
  2 12  1  0  0  0  0
  3  4  1  0  0  0  0
  3 23  1  0  0  0  0
  4  5  1  0  0  0  0
  4 24  1  0  0  0  0
  4 25  1  0  0  0  0
  5  6  1  0  0  0  0
  5 26  1  0  0  0  0
  5 27  1  0  0  0  0
  6 11  1  0  0  0  0
  6  7  2  0  0  0  0
  7  8  1  0  0  0  0
  7 28  1  0  0  0  0
  8  9  2  0  0  0  0
  8 29  1  0  0  0  0
  9 10  1  0  0  0  0
  9 30  1  0  0  0  0
 10 11  2  0  0  0  0
 11 31  1  0  0  0  0
 12 22  1  0  0  0  0
 12 13  1  0  0  0  0
 13 14  1  0  0  0  0
 13 32  1  0  0  0  0
 13 33  1  0  0  0  0
 14 15  1  0  0  0  0
 14 34  1  0  0  0  0
 14 35  1  0  0  0  0
 15 16  1  0  0  0  0
 16 21  1  0  0  0  0
 16 17  1  0  0  0  0
 16 22  1  0  0  0  0
 17 18  1  0  0  0  0
 17 36  1  0  0  0  0
 17 37  1  0  0  0  0
 18 19  1  0  0  0  0
 18 38  1  0  0  0  0
 18 39  1  0  0  0  0
 19 20  1  0  0  0  0
 19 40  1  0  0  0  0
 19 41  1  0  0  0  0
 20 21  1  0  0  0  0
 20 42  1  0  0  0  0
 20 43  1  0  0  0  0
 21 44  1  0  0  0  0
 21 45  1  0  0  0  0
 22 46  1  0  0  0  0
 22 47  1  0  0  0  0
M  END
> <s_m_source_file>
AV-unprocessed.smi

> <i_m_source_file_index>
654

> <i_lp_mmshare_version>
43012

> <i_f3d_flags>
0

> <s_epik_input>
W2NIXTFuW2NIXVtjSF1bY0hdYzFbQ0gyXVtDSDJdW05IXUMoPU8pTihbQ0gyXTIpW0NIMl1bQ0gyXVNDMjNbQ0gyXVtDSDJdW0NIMl1bQ0gyXVtDSDJdMw==

> <s_epik_cmdline>
J2VwaWtfcHl0aG9uJywgJy1waCcsICc3LjAnLCAnLXRuJywgJzgnLCAnLW1hJywgJzIwMCcsICctbWV0YWxfYmluZGluZycsICctaW1hZScsICc8aW5maWxlLm1hZT4nLCAnLW9tYWUnLCAnPG91dGZpbGUubWFlPic=

> <r_epik_Ionization_Penalty>
0.0144586

> <r_epik_Ionization_Penalty_Charging>
0

> <r_epik_Ionization_Penalty_Neutral>
0.0144586

> <r_epik_State_Penalty>
0.0112665

> <r_epik_Charging_Adjusted_Penalty>
0.0112665

> <i_epik_Tot_Q>
0

> <i_epik_Tot_abs_Q>
0

> <r_epik_Metal_State_Penalty>
0.0109983

> <b_epik_Metal_Only>
0

> <s_lp_Force_Field>
OPLS_2005

> <r_lp_Energy>
31.4252

> <b_lp_Chiralities_Consistent>
1

> <s_lp_Variant>
AV-unprocessed.smi:654-1

> <Gold.Version>
5.8.1

> <Gold.Id.Protein>
6NUR|6NUR_protein|mol2

> <Gold.PLP.Fitness>
44.8616

> <Gold.PLP.PLP>
-42.7094

> <Gold.PLP.part.hbond>
-1.0000

> <Gold.PLP.part.metal>
0.0000

> <Gold.PLP.part.buried>
-5.8129

> <Gold.PLP.part.nonpolar>
-36.2987

> <Gold.PLP.part.repulsive>
0.1638

> <Gold.PLP.ligand.clash>
0.0000

> <Gold.PLP.ligand.torsion>
0.4260

> <Gold.PLP.Chemscore.Hbond>
1.0000

> <Gold.PLP.Chemscore.CHOScore>
0.0000

> <Gold.PLP.Chemscore.Metal>
0.0000

> <Gold.Chemscore.Hbonds>
donor molecule, donor type, donor heavy atom, donor atom, acceptor molecule, acceptor atom, score
      P1  H  6896  6908       L1     1  0.76

> <Gold.PLP.Chemscore.Internal.Correction>
0.0042

> <Gold.Rescore>
     Score         DG    S(hbond)    S(metal)    S(lipo)     H(rot)  DE(clash)    DE(int)     intcor
     19.29     -19.85       0.98        0.00     121.80       1.23       0.12       0.44       ----

> <Gold.Chemscore.Fitness>
19.2887

> <Gold.Chemscore.DG>
-19.8470

> <Gold.Chemscore.ZeroCoef>
-5.4800

> <Gold.Chemscore.Hbond>
0.9756

> <Gold.Chemscore.Metal>
0.0000

> <Gold.Chemscore.Lipo>
121.8043

> <Gold.Chemscore.Internal_Hbond>
0.0000

> <Gold.Chemscore.DEClash>
0.1225

> <Gold.Chemscore.DEInternal>
0.4357

> <Gold.Chemscore.Rot>
1.2276

> <Gold.Chemscore.Internal.Correction>
   9.000000E+99

> <Gold.Chemscore.Hbonds>
donor molecule, donor type, donor heavy atom, donor atom, acceptor molecule, acceptor atom, score
      P1  H  6896  6908       L1     1  0.77

> <Gold.Chemscore.Hbond.Weighted>
-3.2586

> <Gold.Chemscore.Metal.Weighted>
-0.0000

> <Gold.Chemscore.Lipo.Weighted>
-14.2511

> <Gold.Chemscore.Internal_Hbond.Weighted>
0.0000

> <Gold.Chemscore.DEClash.Weighted>
0.1225

> <Gold.Chemscore.DEInternal.Weighted>
0.4357

> <Gold.Chemscore.Rot.Weighted>
3.1427

> <Gold.Chemscore.Internal.Correction.Weighted>
   9.000000E+99

> <Gold.Protein.RotatedTorsions>
[ 6907 6896 6895 6894 ] final -137.25 input  -60.11 | X-H torsion
[ 7974 7965 7964 7962 ] final -151.94 input  175.53 | X-H torsion
[ 8008 7997 7996 7995 ] final   19.73 input   59.86 | X-H torsion
[ 10167 10162 10161 10158 ] final  176.42 input  -65.29 | X-H torsion
[ 10718 10713 10712 10709 ] final  129.13 input   66.30 | X-H torsion
[ 10763 10752 10751 10750 ] final   32.14 input  -60.55 | X-H torsion
[ 11005 11000 10999 10996 ] final  163.82 input  -57.11 | X-H torsion

> <Gold.Protein.ActiveResidues>
 VAL166  LYS551  ARG553  GLY616  TRP617  ASP618  TYR619  PRO620  LYS621  CYS622 
 ASP623  PHE694  ASN695  SER759  ASP760  ASP761  ALA762  ILE779  LEU786  VAL792 
 PHE793  MET794  SER795  GLU796  ALA797  LYS798  CYS799  TRP800  GLU811  SER814 

> <Gold.Protein.RotatedAtoms>
  151.0202  133.5884  159.2672 H   0  0  0  0  0  0  0  0  0  0  0  0  # atno 6907 bound_to 6896
  151.3004  135.0766  159.9246 H   0  0  0  0  0  0  0  0  0  0  0  0  # atno 6908 bound_to 6896
  152.5321  133.9884  159.7893 H   0  0  0  0  0  0  0  0  0  0  0  0  # atno 6909 bound_to 6896
  144.7822  140.4730  143.5831 H   0  0  0  0  0  0  0  0  0  0  0  0  # atno 7974 bound_to 7965
  154.9251  140.3032  155.5196 H   0  0  0  0  0  0  0  0  0  0  0  0  # atno 8008 bound_to 7997
  156.3007  140.2364  156.4241 H   0  0  0  0  0  0  0  0  0  0  0  0  # atno 8009 bound_to 7997
  154.8293  140.0419  157.1454 H   0  0  0  0  0  0  0  0  0  0  0  0  # atno 8010 bound_to 7997
  139.5213  144.2918  152.0457 H   0  0  0  0  0  0  0  0  0  0  0  0  # atno 10167 bound_to 10162
  157.5182  131.1098  150.9193 H   0  0  0  0  0  0  0  0  0  0  0  0  # atno 10718 bound_to 10713
  153.0278  135.6421  154.1309 H   0  0  0  0  0  0  0  0  0  0  0  0  # atno 10763 bound_to 10752
  154.1035  135.2858  155.3248 H   0  0  0  0  0  0  0  0  0  0  0  0  # atno 10764 bound_to 10752
  154.6382  135.5469  153.7821 H   0  0  0  0  0  0  0  0  0  0  0  0  # atno 10765 bound_to 10752
  140.2396  134.8061  157.3398 H   0  0  0  0  0  0  0  0  0  0  0  0  # atno 11005 bound_to 11000
  145.6020  139.1504  143.3124 LP  0  0  0  0  0  0  0  0  0  0  0  0  # atno 17320 bound_to 7965
  146.2036  140.6140  142.9091 LP  0  0  0  0  0  0  0  0  0  0  0  0  # atno 17321 bound_to 7965
  140.2369  144.4310  150.6276 LP  0  0  0  0  0  0  0  0  0  0  0  0  # atno 17342 bound_to 10162
  140.6317  143.2188  151.6481 LP  0  0  0  0  0  0  0  0  0  0  0  0  # atno 17343 bound_to 10162
  156.9812  130.5527  149.5296 LP  0  0  0  0  0  0  0  0  0  0  0  0  # atno 17370 bound_to 10713
  156.0335  130.5424  150.8594 LP  0  0  0  0  0  0  0  0  0  0  0  0  # atno 17371 bound_to 10713
  140.1667  134.4660  155.7858 LP  0  0  0  0  0  0  0  0  0  0  0  0  # atno 17394 bound_to 11000
  141.2211  133.6924  156.7637 LP  0  0  0  0  0  0  0  0  0  0  0  0  # atno 17395 bound_to 11000

$$$$
