AV-unprocessed.smi:3081|AV-procd|sdf|11741|dock7
  -GOLD-   2272017133D 1   1.00000     0.00000
 Structure written by MMmdl.
 26 27  0  0  0  0  0  0  0  0  2 V2000
  151.1081  137.8854  154.5634 C   0  0  0  0  0  0  0  0  0  0  0  0
  150.6110  138.9653  155.3214 C   0  0  0  0  0  0  0  0  0  0  0  0
  151.4930  139.5200  156.2738 C   0  0  0  0  0  0  0  0  0  0  0  0
  151.0747  140.6916  157.1511 C   0  0  1  0  0  0  0  0  0  0  0  0
  152.1367  141.0339  158.2150 C   0  0  0  0  0  0  0  0  0  0  0  0
  151.6750  142.2232  159.0714 C   0  0  0  0  0  0  0  0  0  0  0  0
  151.3095  143.4279  158.1881 C   0  0  0  0  0  0  0  0  0  0  0  0
  150.2804  143.0537  157.1937 N   0  3  0  0  0  0  0  0  0  0  0  0
  150.7000  141.9364  156.3188 C   0  0  0  0  0  0  0  0  0  0  0  0
  152.7454  139.0364  156.4427 N   0  0  0  0  0  0  0  0  0  0  0  0
  153.1074  138.0095  155.6684 C   0  0  0  0  0  0  0  0  0  0  0  0
  152.3597  137.4097  154.7392 N   0  0  0  0  0  0  0  0  0  0  0  0
  150.4996  137.4027  153.8131 H   0  0  0  0  0  0  0  0  0  0  0  0
  149.6088  139.3407  155.1752 H   0  0  0  0  0  0  0  0  0  0  0  0
  150.1753  140.3800  157.6850 H   0  0  0  0  0  0  0  0  0  0  0  0
  152.3268  140.1688  158.8515 H   0  0  0  0  0  0  0  0  0  0  0  0
  153.0845  141.2822  157.7353 H   0  0  0  0  0  0  0  0  0  0  0  0
  150.8108  141.9312  159.6696 H   0  0  0  0  0  0  0  0  0  0  0  0
  152.4588  142.5012  159.7766 H   0  0  0  0  0  0  0  0  0  0  0  0
  150.9310  144.2455  158.8015 H   0  0  0  0  0  0  0  0  0  0  0  0
  152.1932  143.8009  157.6686 H   0  0  0  0  0  0  0  0  0  0  0  0
  149.4423  142.7795  157.6864 H   0  0  0  0  0  0  0  0  0  0  0  0
  151.5454  142.2645  155.7123 H   0  0  0  0  0  0  0  0  0  0  0  0
  149.8864  141.7026  155.6317 H   0  0  0  0  0  0  0  0  0  0  0  0
  154.1076  137.6270  155.8073 H   0  0  0  0  0  0  0  0  0  0  0  0
  150.0716  143.8579  156.6191 H   0  0  0  0  0  0  0  0  0  0  0  0
  1 12  1  0  0  0  0
  1  2  2  0  0  0  0
  1 13  1  0  0  0  0
  2  3  1  0  0  0  0
  2 14  1  0  0  0  0
  3  4  1  0  0  0  0
  3 10  2  0  0  0  0
  4  9  1  0  0  0  0
  4  5  1  0  0  0  0
  4 15  1  0  0  0  0
  5  6  1  0  0  0  0
  5 16  1  0  0  0  0
  5 17  1  0  0  0  0
  6  7  1  0  0  0  0
  6 18  1  0  0  0  0
  6 19  1  0  0  0  0
  7  8  1  0  0  0  0
  7 20  1  0  0  0  0
  7 21  1  0  0  0  0
  8  9  1  0  0  0  0
  8 22  1  0  0  0  0
  8 26  1  0  0  0  0
  9 23  1  0  0  0  0
  9 24  1  0  0  0  0
 10 11  1  0  0  0  0
 11 12  2  0  0  0  0
 11 25  1  0  0  0  0
M  CHG  1   8   1
M  END
> <s_m_source_file>
AV-unprocessed.smi

> <i_m_source_file_index>
3081

> <i_lp_mmshare_version>
43012

> <i_f3d_flags>
0

> <s_epik_input>
bjFbY0hdbltjSF1bY0hdYzFbQ0BASF0yW0NIMl1bQ0gyXVtDSDJdW05IXVtDSDJdMg==

> <s_epik_cmdline>
J2VwaWtfcHl0aG9uJywgJy1waCcsICc3LjAnLCAnLXRuJywgJzgnLCAnLW1hJywgJzIwMCcsICctbWV0YWxfYmluZGluZycsICctaW1hZScsICc8aW5maWxlLm1hZT4nLCAnLW9tYWUnLCAnPG91dGZpbGUubWFlPic=

> <r_lp_tautomer_probability>
1

> <r_epik_Ionization_Penalty>
0.000373217

> <r_epik_Ionization_Penalty_Charging>
0.000372054

> <r_epik_Ionization_Penalty_Neutral>
1.16293e-06

> <r_epik_State_Penalty>
0.00022692

> <r_epik_Charging_Adjusted_Penalty>
0.000598973

> <i_epik_Tot_Q>
1

> <i_epik_Tot_abs_Q>
1

> <r_epik_Metal_State_Penalty>
-0

> <b_epik_Metal_Only>
0

> <s_epik_Chemistry_Notes>
This compound contains an electron-poor aromatic ring that is susceptible to covalent hydrolysis at low pH, typically resulting in measured values for nitrogen ring protonation that are around two units higher than predicted values.

> <s_lp_Force_Field>
OPLS_2005

> <r_lp_Energy>
7.17513

> <b_lp_Chiralities_Consistent>
1

> <s_lp_Variant>
AV-unprocessed.smi:3081-2

> <Gold.Version>
5.8.1

> <Gold.Id.Protein>
6NUR|6NUR_protein|mol2

> <Gold.PLP.Fitness>
39.6436

> <Gold.PLP.PLP>
-25.1545

> <Gold.PLP.part.hbond>
-3.0000

> <Gold.PLP.part.metal>
0.0000

> <Gold.PLP.part.buried>
-3.5642

> <Gold.PLP.part.nonpolar>
-19.0348

> <Gold.PLP.part.repulsive>
0.1307

> <Gold.PLP.ligand.clash>
0.0000

> <Gold.PLP.ligand.torsion>
0.0370

> <Gold.PLP.Chemscore.Hbond>
3.6880

> <Gold.PLP.Chemscore.CHOScore>
1.1544

> <Gold.PLP.Chemscore.Metal>
0.0000

> <Gold.Chemscore.Hbonds>
donor molecule, donor type, donor heavy atom, donor atom, acceptor molecule, acceptor atom, score
      L1  H     8    26       P1  8028  1.95
      P1  H  7997  8008       L1    10  1.00
      P1  H 10752 10764       L1    12  0.61
      L1  C     1    13       P1  7948  0.47
      L1  C     1    13       P1  7949  0.20

> <Gold.PLP.Chemscore.Internal.Correction>
0.0360

> <Gold.Rescore>
     Score         DG    S(hbond)    S(metal)    S(lipo)     H(rot)  DE(clash)    DE(int)     intcor
     17.13     -17.62       2.32        0.00      59.27       1.00       0.47       0.02       ----

> <Gold.Chemscore.Fitness>
17.1326

> <Gold.Chemscore.DG>
-17.6172

> <Gold.Chemscore.ZeroCoef>
-5.4800

> <Gold.Chemscore.Hbond>
2.3241

> <Gold.Chemscore.Metal>
0.0000

> <Gold.Chemscore.Lipo>
59.2710

> <Gold.Chemscore.Internal_Hbond>
0.0000

> <Gold.Chemscore.DEClash>
0.4660

> <Gold.Chemscore.DEInternal>
0.0186

> <Gold.Chemscore.Rot>
1.0000

> <Gold.Chemscore.Internal.Correction>
   9.000000E+99

> <Gold.Chemscore.Hbonds>
donor molecule, donor type, donor heavy atom, donor atom, acceptor molecule, acceptor atom, score
      L1  H     8    26       P1  8028  0.93
      P1  H  7997  8008       L1    10  0.30
      P1  H 10752 10764       L1    12  0.54

> <Gold.Chemscore.Hbond.Weighted>
-7.7624

> <Gold.Chemscore.Metal.Weighted>
-0.0000

> <Gold.Chemscore.Lipo.Weighted>
-6.9347

> <Gold.Chemscore.Internal_Hbond.Weighted>
0.0000

> <Gold.Chemscore.DEClash.Weighted>
0.4660

> <Gold.Chemscore.DEInternal.Weighted>
0.0186

> <Gold.Chemscore.Rot.Weighted>
2.5600

> <Gold.Chemscore.Internal.Correction.Weighted>
   9.000000E+99

> <Gold.Protein.RotatedTorsions>
[ 6907 6896 6895 6894 ] final  116.34 input  -60.11 | X-H torsion
[ 7974 7965 7964 7962 ] final  -65.66 input  175.53 | X-H torsion
[ 8008 7997 7996 7995 ] final  -47.79 input   59.86 | X-H torsion
[ 10167 10162 10161 10158 ] final   63.62 input  -65.29 | X-H torsion
[ 10718 10713 10712 10709 ] final   83.84 input   66.30 | X-H torsion
[ 10763 10752 10751 10750 ] final  -87.56 input  -60.55 | X-H torsion
[ 11005 11000 10999 10996 ] final   -6.61 input  -57.11 | X-H torsion

> <Gold.Protein.ActiveResidues>
 VAL166  LYS551  ARG553  GLY616  TRP617  ASP618  TYR619  PRO620  LYS621  CYS622 
 ASP623  PHE694  ASN695  SER759  ASP760  ASP761  ALA762  ILE779  LEU786  VAL792 
 PHE793  MET794  SER795  GLU796  ALA797  LYS798  CYS799  TRP800  GLU811  SER814 

> <Gold.Protein.RotatedAtoms>
  152.4684  133.7974  159.6934 H   0  0  0  0  0  0  0  0  0  0  0  0  # atno 6907 bound_to 6896
  150.8660  133.7564  159.2983 H   0  0  0  0  0  0  0  0  0  0  0  0  # atno 6908 bound_to 6896
  151.5114  135.1068  159.9907 H   0  0  0  0  0  0  0  0  0  0  0  0  # atno 6909 bound_to 6896
  145.7515  140.8906  143.0477 H   0  0  0  0  0  0  0  0  0  0  0  0  # atno 7974 bound_to 7965
  154.4021  140.1338  156.4232 H   0  0  0  0  0  0  0  0  0  0  0  0  # atno 8008 bound_to 7997
  155.7622  140.3486  155.5184 H   0  0  0  0  0  0  0  0  0  0  0  0  # atno 8009 bound_to 7997
  155.8848  140.0993  157.1450 H   0  0  0  0  0  0  0  0  0  0  0  0  # atno 8010 bound_to 7997
  140.1311  144.4642  150.6864 H   0  0  0  0  0  0  0  0  0  0  0  0  # atno 10167 bound_to 10162
  157.6887  131.0108  150.2583 H   0  0  0  0  0  0  0  0  0  0  0  0  # atno 10718 bound_to 10713
  154.6350  135.5409  153.7723 H   0  0  0  0  0  0  0  0  0  0  0  0  # atno 10763 bound_to 10752
  153.0303  135.6445  154.1245 H   0  0  0  0  0  0  0  0  0  0  0  0  # atno 10764 bound_to 10752
  154.1173  135.2922  155.3196 H   0  0  0  0  0  0  0  0  0  0  0  0  # atno 10765 bound_to 10752
  140.7038  133.8966  155.8702 H   0  0  0  0  0  0  0  0  0  0  0  0  # atno 11005 bound_to 11000
  144.6849  139.9598  143.7480 LP  0  0  0  0  0  0  0  0  0  0  0  0  # atno 17320 bound_to 7965
  146.0352  139.3371  143.0731 LP  0  0  0  0  0  0  0  0  0  0  0  0  # atno 17321 bound_to 7965
  140.6816  143.2329  151.5368 LP  0  0  0  0  0  0  0  0  0  0  0  0  # atno 17342 bound_to 10162
  139.5519  144.2373  152.1545 LP  0  0  0  0  0  0  0  0  0  0  0  0  # atno 17343 bound_to 10162
  156.3167  130.3780  149.7612 LP  0  0  0  0  0  0  0  0  0  0  0  0  # atno 17370 bound_to 10713
  156.5195  130.8209  151.3198 LP  0  0  0  0  0  0  0  0  0  0  0  0  # atno 17371 bound_to 10713
  141.0141  134.0980  157.4190 LP  0  0  0  0  0  0  0  0  0  0  0  0  # atno 17394 bound_to 11000
  139.8889  135.0101  156.6650 LP  0  0  0  0  0  0  0  0  0  0  0  0  # atno 17395 bound_to 11000

$$$$
