AV-unprocessed.smi:12|AV-procd|sdf|62|dock8
  -GOLD-   2262015183D 1   1.00000     0.00000
 Structure written by MMmdl.
 41 44  0  0  0  0  0  0  0  0  1 V2000
  144.8377  143.5670  155.8830 C   0  0  0  0  0  0  0  0  0  0  0  0
  145.4450  142.2629  155.3977 C   0  0  0  0  0  0  0  0  0  0  0  0
  146.6273  142.2294  154.7386 C   0  0  0  0  0  0  0  0  0  0  0  0
  147.1327  141.0275  154.3282 N   0  0  0  0  0  0  0  0  0  0  0  0
  146.4139  139.8428  154.5850 C   0  0  0  0  0  0  0  0  0  0  0  0
  145.2785  139.7898  155.2095 N   0  0  0  0  0  0  0  0  0  0  0  0
  144.7144  140.9979  155.6623 C   0  0  0  0  0  0  0  0  0  0  0  0
  143.6397  140.9993  156.2611 O   0  0  0  0  0  0  0  0  0  0  0  0
  147.1052  138.7925  154.0666 O   0  0  0  0  0  0  0  0  0  0  0  0
  148.2800  139.2578  153.3789 C   0  0  2  0  0  0  0  0  0  0  0  0
  149.5652  138.7611  154.0270 C   0  0  2  0  0  0  0  0  0  0  0  0
  149.4657  137.4139  154.4430 O   0  0  0  0  0  0  0  0  0  0  0  0
  149.7907  139.7724  155.1506 C   0  0  1  0  0  0  0  0  0  0  0  0
  151.2351  139.8483  155.6615 C   0  0  0  0  0  0  0  0  0  0  0  0
  151.3449  140.8906  156.6173 O   0  0  0  0  0  0  0  0  0  0  0  0
  152.1669  140.7540  157.6757 C   0  0  0  0  0  0  0  0  0  0  0  0
  152.8777  139.7648  157.8644 O   0  0  0  0  0  0  0  0  0  0  0  0
  152.1258  141.9271  158.5963 C   0  0  0  0  0  0  0  0  0  0  0  0
  151.4975  143.1208  158.1700 C   0  0  0  0  0  0  0  0  0  0  0  0
  151.4431  144.2449  159.0168 C   0  0  0  0  0  0  0  0  0  0  0  0
  152.0170  144.1894  160.3001 C   0  0  0  0  0  0  0  0  0  0  0  0
  152.6452  143.0083  160.7360 C   0  0  0  0  0  0  0  0  0  0  0  0
  152.7004  141.8827  159.8909 C   0  0  0  0  0  0  0  0  0  0  0  0
  149.4480  140.9934  154.5009 O   0  0  0  0  0  0  0  0  0  0  0  0
  148.3870  140.7813  153.6124 C   0  0  2  0  0  0  0  0  0  0  0  0
  145.4678  144.4187  155.6253 H   0  0  0  0  0  0  0  0  0  0  0  0
  144.7186  143.5507  156.9669 H   0  0  0  0  0  0  0  0  0  0  0  0
  143.8582  143.7234  155.4303 H   0  0  0  0  0  0  0  0  0  0  0  0
  147.1788  143.1362  154.5371 H   0  0  0  0  0  0  0  0  0  0  0  0
  148.2222  139.0279  152.3144 H   0  0  0  0  0  0  0  0  0  0  0  0
  150.3793  138.8403  153.3047 H   0  0  0  0  0  0  0  0  0  0  0  0
  149.4594  136.8620  153.6757 H   0  0  0  0  0  0  0  0  0  0  0  0
  149.0977  139.6030  155.9768 H   0  0  0  0  0  0  0  0  0  0  0  0
  151.5331  138.8958  156.1020 H   0  0  0  0  0  0  0  0  0  0  0  0
  151.9116  140.0513  154.8302 H   0  0  0  0  0  0  0  0  0  0  0  0
  151.0497  143.1873  157.1890 H   0  0  0  0  0  0  0  0  0  0  0  0
  150.9602  145.1506  158.6807 H   0  0  0  0  0  0  0  0  0  0  0  0
  151.9753  145.0519  160.9490 H   0  0  0  0  0  0  0  0  0  0  0  0
  153.0861  142.9648  161.7210 H   0  0  0  0  0  0  0  0  0  0  0  0
  153.1904  140.9925  160.2576 H   0  0  0  0  0  0  0  0  0  0  0  0
  148.3711  141.4197  152.7286 H   0  0  0  0  0  0  0  0  0  0  0  0
  1  2  1  0  0  0  0
  1 26  1  0  0  0  0
  1 27  1  0  0  0  0
  1 28  1  0  0  0  0
  2  7  1  0  0  0  0
  2  3  2  0  0  0  0
  3  4  1  0  0  0  0
  3 29  1  0  0  0  0
  4 25  1  0  0  0  0
  4  5  1  0  0  0  0
  5  6  2  0  0  0  0
  5  9  1  0  0  0  0
  6  7  1  0  0  0  0
  7  8  2  0  0  0  0
  9 10  1  0  0  0  0
 10 25  1  0  0  0  0
 10 11  1  0  0  0  0
 10 30  1  0  0  0  0
 11 12  1  0  0  0  0
 11 13  1  0  0  0  0
 11 31  1  0  0  0  0
 12 32  1  0  0  0  0
 13 14  1  0  0  0  0
 13 24  1  0  0  0  0
 13 33  1  0  0  0  0
 14 15  1  0  0  0  0
 14 34  1  0  0  0  0
 14 35  1  0  0  0  0
 15 16  1  0  0  0  0
 16 17  2  0  0  0  0
 16 18  1  0  0  0  0
 18 23  1  0  0  0  0
 18 19  2  0  0  0  0
 19 20  1  0  0  0  0
 19 36  1  0  0  0  0
 20 21  2  0  0  0  0
 20 37  1  0  0  0  0
 21 22  1  0  0  0  0
 21 38  1  0  0  0  0
 22 23  2  0  0  0  0
 22 39  1  0  0  0  0
 23 40  1  0  0  0  0
 24 25  1  0  0  0  0
 25 41  1  0  0  0  0
M  END
> <s_m_source_file>
AV-unprocessed.smi

> <i_m_source_file_index>
12

> <i_lp_mmshare_version>
43012

> <i_f3d_flags>
0

> <s_epik_input>
W0NIM11jKFtjSF0xKWMoPU8pbmMobjEyKU9bQ0BIXTNbQ0BASF0yT1tDQEBIXShbQ0BASF0zW09IXSlbQ0gyXU9DKD1PKWM0W2NIXVtjSF1bY0hdW2NIXVtjSF00

> <s_epik_cmdline>
J2VwaWtfcHl0aG9uJywgJy1waCcsICc3LjAnLCAnLXRuJywgJzgnLCAnLW1hJywgJzIwMCcsICctbWV0YWxfYmluZGluZycsICctaW1hZScsICc8aW5maWxlLm1hZT4nLCAnLW9tYWUnLCAnPG91dGZpbGUubWFlPic=

> <r_lp_tautomer_probability>
0.933681

> <r_epik_Ionization_Penalty>
0.00399549

> <r_epik_Ionization_Penalty_Charging>
3.09373e-09

> <r_epik_Ionization_Penalty_Neutral>
0.00399549

> <r_epik_State_Penalty>
0.00284953

> <r_epik_Charging_Adjusted_Penalty>
0.00284953

> <i_epik_Tot_Q>
0

> <i_epik_Tot_abs_Q>
0

> <r_epik_Metal_State_Penalty>
-0

> <b_epik_Metal_Only>
0

> <s_epik_Chemistry_Notes>
This compound has an ester and may undergo hydrolysis at high or low pH. This compound contains an acetal/aminal-like group ( X-CH(R)-Y where X, Y are N, S, or O) that may be acid/base labile, releasing an aldehyde.

> <s_lp_Force_Field>
OPLS_2005

> <r_lp_Energy>
46.3609

> <b_lp_Chiralities_Consistent>
1

> <s_lp_Variant>
AV-unprocessed.smi:12-2

> <Gold.Version>
5.8.1

> <Gold.Id.Protein>
6NUR|6NUR_protein|mol2

> <Gold.PLP.Fitness>
50.4697

> <Gold.PLP.PLP>
-42.7794

> <Gold.PLP.part.hbond>
-2.6546

> <Gold.PLP.part.metal>
0.0000

> <Gold.PLP.part.buried>
-1.6000

> <Gold.PLP.part.nonpolar>
-39.0505

> <Gold.PLP.part.repulsive>
0.5149

> <Gold.PLP.ligand.clash>
0.0000

> <Gold.PLP.ligand.torsion>
0.3245

> <Gold.PLP.Chemscore.Hbond>
1.9263

> <Gold.PLP.Chemscore.CHOScore>
0.8477

> <Gold.PLP.Chemscore.Metal>
0.0000

> <Gold.Chemscore.Hbonds>
donor molecule, donor type, donor heavy atom, donor atom, acceptor molecule, acceptor atom, score
      L1  H    12    32       P1  7948  1.00
      P1  H  7989  7998       L1    24  0.02
      P1  H  7997  8010       L1    17  1.00
      L1  C     3    29       P1  8028  0.95

> <Gold.PLP.Chemscore.Internal.Correction>
0.0176

> <Gold.Rescore>
     Score         DG    S(hbond)    S(metal)    S(lipo)     H(rot)  DE(clash)    DE(int)     intcor
     16.52     -18.16       1.89        0.00     102.15       2.18       1.38       0.26       ----

> <Gold.Chemscore.Fitness>
16.5209

> <Gold.Chemscore.DG>
-18.1618

> <Gold.Chemscore.ZeroCoef>
-5.4800

> <Gold.Chemscore.Hbond>
1.8897

> <Gold.Chemscore.Metal>
0.0000

> <Gold.Chemscore.Lipo>
102.1459

> <Gold.Chemscore.Internal_Hbond>
0.0000

> <Gold.Chemscore.DEClash>
1.3811

> <Gold.Chemscore.DEInternal>
0.2598

> <Gold.Chemscore.Rot>
2.1800

> <Gold.Chemscore.Internal.Correction>
   9.000000E+99

> <Gold.Chemscore.Hbonds>
donor molecule, donor type, donor heavy atom, donor atom, acceptor molecule, acceptor atom, score
      L1  H    12    32       P1  7948  0.89
      P1  H  7997  8010       L1    17  0.55

> <Gold.Chemscore.Hbond.Weighted>
-6.3115

> <Gold.Chemscore.Metal.Weighted>
-0.0000

> <Gold.Chemscore.Lipo.Weighted>
-11.9511

> <Gold.Chemscore.Internal_Hbond.Weighted>
0.0000

> <Gold.Chemscore.DEClash.Weighted>
1.3811

> <Gold.Chemscore.DEInternal.Weighted>
0.2598

> <Gold.Chemscore.Rot.Weighted>
5.5807

> <Gold.Chemscore.Internal.Correction.Weighted>
   9.000000E+99

> <Gold.Protein.RotatedTorsions>
[ 6907 6896 6895 6894 ] final  115.10 input  -60.11 | X-H torsion
[ 7974 7965 7964 7962 ] final -137.95 input  175.53 | X-H torsion
[ 8008 7997 7996 7995 ] final   44.71 input   59.86 | X-H torsion
[ 10167 10162 10161 10158 ] final  102.33 input  -65.29 | X-H torsion
[ 10718 10713 10712 10709 ] final   25.21 input   66.30 | X-H torsion
[ 10763 10752 10751 10750 ] final -116.63 input  -60.55 | X-H torsion
[ 11005 11000 10999 10996 ] final  -68.66 input  -57.11 | X-H torsion

> <Gold.Protein.ActiveResidues>
 VAL166  LYS551  ARG553  GLY616  TRP617  ASP618  TYR619  PRO620  LYS621  CYS622 
 ASP623  PHE694  ASN695  SER759  ASP760  ASP761  ALA762  ILE779  LEU786  VAL792 
 PHE793  MET794  SER795  GLU796  ALA797  LYS798  CYS799  TRP800  GLU811  SER814 

> <Gold.Protein.RotatedAtoms>
  152.4762  133.8144  159.7020 H   0  0  0  0  0  0  0  0  0  0  0  0  # atno 6907 bound_to 6896
  150.8781  133.7401  159.2947 H   0  0  0  0  0  0  0  0  0  0  0  0  # atno 6908 bound_to 6896
  151.4914  135.1061  159.9856 H   0  0  0  0  0  0  0  0  0  0  0  0  # atno 6909 bound_to 6896
  144.8799  140.6492  143.5212 H   0  0  0  0  0  0  0  0  0  0  0  0  # atno 7974 bound_to 7965
  155.3238  140.3398  155.4240 H   0  0  0  0  0  0  0  0  0  0  0  0  # atno 8008 bound_to 7997
  156.1896  140.1693  156.8156 H   0  0  0  0  0  0  0  0  0  0  0  0  # atno 8009 bound_to 7997
  154.5426  140.0722  156.8519 H   0  0  0  0  0  0  0  0  0  0  0  0  # atno 8010 bound_to 7997
  139.7359  144.7024  151.0649 H   0  0  0  0  0  0  0  0  0  0  0  0  # atno 10167 bound_to 10162
  157.1903  130.6843  149.6147 H   0  0  0  0  0  0  0  0  0  0  0  0  # atno 10718 bound_to 10713
  154.8526  135.4339  154.1851 H   0  0  0  0  0  0  0  0  0  0  0  0  # atno 10763 bound_to 10752
  153.2933  135.6963  153.7278 H   0  0  0  0  0  0  0  0  0  0  0  0  # atno 10764 bound_to 10752
  153.6437  135.3463  155.3054 H   0  0  0  0  0  0  0  0  0  0  0  0  # atno 10765 bound_to 10752
  141.1537  133.6746  156.6481 H   0  0  0  0  0  0  0  0  0  0  0  0  # atno 11005 bound_to 11000
  145.3973  139.1604  143.4196 LP  0  0  0  0  0  0  0  0  0  0  0  0  # atno 17320 bound_to 7965
  146.2988  140.4067  142.8712 LP  0  0  0  0  0  0  0  0  0  0  0  0  # atno 17321 bound_to 7965
  140.7779  143.4984  150.9803 LP  0  0  0  0  0  0  0  0  0  0  0  0  # atno 17342 bound_to 10162
  139.8672  143.7238  152.3169 LP  0  0  0  0  0  0  0  0  0  0  0  0  # atno 17343 bound_to 10162
  155.9712  130.4617  150.6118 LP  0  0  0  0  0  0  0  0  0  0  0  0  # atno 17370 bound_to 10713
  157.3867  131.0789  151.1430 LP  0  0  0  0  0  0  0  0  0  0  0  0  # atno 17371 bound_to 10713
  140.3342  134.7903  157.4349 LP  0  0  0  0  0  0  0  0  0  0  0  0  # atno 17394 bound_to 11000
  140.0992  134.5496  155.8369 LP  0  0  0  0  0  0  0  0  0  0  0  0  # atno 17395 bound_to 11000

$$$$
