AV-unprocessed.smi:3327|AV-procd|sdf|12788|dock3
  -GOLD-   2272019133D 1   1.00000     0.00000
 Structure written by MMmdl.
 41 42  0  0  0  0  0  0  0  0  2 V2000
  154.6272  140.5269  161.4653 C   0  0  0  0  0  0  0  0  0  0  0  0
  153.4446  141.4466  161.1320 C   0  0  1  0  0  0  0  0  0  0  0  0
  153.3281  142.6084  162.1427 C   0  0  0  0  0  0  0  0  0  0  0  0
  152.2219  143.6055  161.7500 C   0  0  0  0  0  0  0  0  0  0  0  0
  152.3790  144.0498  160.2855 C   0  0  0  0  0  0  0  0  0  0  0  0
  152.3772  142.8564  159.4285 N   0  0  0  0  0  0  0  0  0  0  0  0
  151.3881  142.5041  158.5714 C   0  0  0  0  0  0  0  0  0  0  0  0
  150.3907  143.2056  158.3933 O   0  0  0  0  0  0  0  0  0  0  0  0
  151.5135  141.1870  157.7899 C   0  0  0  0  0  0  0  0  0  0  0  0
  150.3755  140.9620  156.8752 N   0  3  0  0  0  0  0  0  0  0  0  0
  150.3331  139.6112  156.2798 C   0  0  0  0  0  0  0  0  0  0  0  0
  150.1558  139.6685  154.7539 C   0  0  0  0  0  0  0  0  0  0  0  0
  148.9418  140.3646  154.3674 N   0  0  0  0  0  0  0  0  0  0  0  0
  148.6398  141.7029  154.5068 C   0  0  0  0  0  0  0  0  0  0  0  0
  147.3889  141.8923  153.9931 C   0  0  0  0  0  0  0  0  0  0  0  0
  147.0006  140.5939  153.5597 C   0  0  0  0  0  0  0  0  0  0  0  0
  147.9338  139.6820  153.7821 N   0  0  0  0  0  0  0  0  0  0  0  0
  153.5405  141.9989  159.6938 C   0  0  0  0  0  0  0  0  0  0  0  0
  155.5750  141.0631  161.4097 H   0  0  0  0  0  0  0  0  0  0  0  0
  154.6788  139.6872  160.7718 H   0  0  0  0  0  0  0  0  0  0  0  0
  154.5345  140.1174  162.4716 H   0  0  0  0  0  0  0  0  0  0  0  0
  152.5344  140.8487  161.2007 H   0  0  0  0  0  0  0  0  0  0  0  0
  153.1405  142.2209  163.1447 H   0  0  0  0  0  0  0  0  0  0  0  0
  154.2797  143.1395  162.1924 H   0  0  0  0  0  0  0  0  0  0  0  0
  151.2443  143.1418  161.8884 H   0  0  0  0  0  0  0  0  0  0  0  0
  152.2505  144.4724  162.4105 H   0  0  0  0  0  0  0  0  0  0  0  0
  151.6063  144.7748  160.0358 H   0  0  0  0  0  0  0  0  0  0  0  0
  153.3244  144.5793  160.1576 H   0  0  0  0  0  0  0  0  0  0  0  0
  152.4361  141.1977  157.2080 H   0  0  0  0  0  0  0  0  0  0  0  0
  151.5654  140.3554  158.4939 H   0  0  0  0  0  0  0  0  0  0  0  0
  149.5192  141.1115  157.3908 H   0  0  0  0  0  0  0  0  0  0  0  0
  151.2624  139.0937  156.5208 H   0  0  0  0  0  0  0  0  0  0  0  0
  149.5216  139.0363  156.7285 H   0  0  0  0  0  0  0  0  0  0  0  0
  151.0123  140.1514  154.2805 H   0  0  0  0  0  0  0  0  0  0  0  0
  150.1079  138.6560  154.3511 H   0  0  0  0  0  0  0  0  0  0  0  0
  149.3321  142.4017  154.9539 H   0  0  0  0  0  0  0  0  0  0  0  0
  146.8343  142.8173  153.9373 H   0  0  0  0  0  0  0  0  0  0  0  0
  146.0759  140.2892  153.0919 H   0  0  0  0  0  0  0  0  0  0  0  0
  154.4537  142.5839  159.5732 H   0  0  0  0  0  0  0  0  0  0  0  0
  153.6246  141.1747  158.9839 H   0  0  0  0  0  0  0  0  0  0  0  0
  150.4202  141.6447  156.1320 H   0  0  0  0  0  0  0  0  0  0  0  0
  1  2  1  0  0  0  0
  1 19  1  0  0  0  0
  1 20  1  0  0  0  0
  1 21  1  0  0  0  0
  2 18  1  0  0  0  0
  2  3  1  0  0  0  0
  2 22  1  0  0  0  0
  3  4  1  0  0  0  0
  3 23  1  0  0  0  0
  3 24  1  0  0  0  0
  4  5  1  0  0  0  0
  4 25  1  0  0  0  0
  4 26  1  0  0  0  0
  5  6  1  0  0  0  0
  5 27  1  0  0  0  0
  5 28  1  0  0  0  0
  6  7  1  0  0  0  0
  6 18  1  0  0  0  0
  7  8  2  0  0  0  0
  7  9  1  0  0  0  0
  9 10  1  0  0  0  0
  9 29  1  0  0  0  0
  9 30  1  0  0  0  0
 10 11  1  0  0  0  0
 10 31  1  0  0  0  0
 10 41  1  0  0  0  0
 11 12  1  0  0  0  0
 11 32  1  0  0  0  0
 11 33  1  0  0  0  0
 12 13  1  0  0  0  0
 12 34  1  0  0  0  0
 12 35  1  0  0  0  0
 13 17  1  0  0  0  0
 13 14  1  0  0  0  0
 14 15  2  0  0  0  0
 14 36  1  0  0  0  0
 15 16  1  0  0  0  0
 15 37  1  0  0  0  0
 16 17  2  0  0  0  0
 16 38  1  0  0  0  0
 18 39  1  0  0  0  0
 18 40  1  0  0  0  0
M  CHG  1  10   1
M  END
> <s_m_source_file>
AV-unprocessed.smi

> <i_m_source_file_index>
3327

> <i_lp_mmshare_version>
43012

> <i_f3d_flags>
0

> <s_epik_input>
W0NIM11bQ0BASF0xW0NIMl1bQ0gyXVtDSDJdTihbQ0gyXTEpQyg9TylbQ0gyXVtOSF1bQ0gyXVtDSDJdbjJbY0hdW2NIXVtjSF1uMg==

> <s_epik_cmdline>
J2VwaWtfcHl0aG9uJywgJy1waCcsICc3LjAnLCAnLXRuJywgJzgnLCAnLW1hJywgJzIwMCcsICctbWV0YWxfYmluZGluZycsICctaW1hZScsICc8aW5maWxlLm1hZT4nLCAnLW9tYWUnLCAnPG91dGZpbGUubWFlPic=

> <r_lp_tautomer_probability>
1

> <r_epik_Ionization_Penalty>
0.195801

> <r_epik_Ionization_Penalty_Charging>
0.195799

> <r_epik_Ionization_Penalty_Neutral>
2.33113e-06

> <r_epik_State_Penalty>
0.185548

> <r_epik_Charging_Adjusted_Penalty>
0.381347

> <i_epik_Tot_Q>
1

> <i_epik_Tot_abs_Q>
1

> <r_epik_Metal_State_Penalty>
0.186014

> <b_epik_Metal_Only>
0

> <s_lp_Force_Field>
OPLS_2005

> <r_lp_Energy>
21.4811

> <b_lp_Chiralities_Consistent>
1

> <s_lp_Variant>
AV-unprocessed.smi:3327-2

> <Gold.Version>
5.8.1

> <Gold.Id.Protein>
6NUR|6NUR_protein|mol2

> <Gold.PLP.Fitness>
49.0384

> <Gold.PLP.PLP>
-44.0476

> <Gold.PLP.part.hbond>
0.0000

> <Gold.PLP.part.metal>
0.0000

> <Gold.PLP.part.buried>
-3.9622

> <Gold.PLP.part.nonpolar>
-40.4393

> <Gold.PLP.part.repulsive>
0.8213

> <Gold.PLP.ligand.clash>
0.0000

> <Gold.PLP.ligand.torsion>
0.4346

> <Gold.PLP.Chemscore.Hbond>
0.0000

> <Gold.PLP.Chemscore.CHOScore>
1.9338

> <Gold.PLP.Chemscore.Metal>
0.0000

> <Gold.Chemscore.Hbonds>
donor molecule, donor type, donor heavy atom, donor atom, acceptor molecule, acceptor atom, score
      L1  C    14    36       P1  8028  0.94
      L1  C    16    38       P1 10175  1.00

> <Gold.PLP.Chemscore.Internal.Correction>
0.0585

> <Gold.Rescore>
     Score         DG    S(hbond)    S(metal)    S(lipo)     H(rot)  DE(clash)    DE(int)     intcor
     12.96     -13.53       0.00        0.00     108.12       1.80       0.06       0.51       ----

> <Gold.Chemscore.Fitness>
12.9572

> <Gold.Chemscore.DG>
-13.5316

> <Gold.Chemscore.ZeroCoef>
-5.4800

> <Gold.Chemscore.Hbond>
0.0000

> <Gold.Chemscore.Metal>
0.0000

> <Gold.Chemscore.Lipo>
108.1199

> <Gold.Chemscore.Internal_Hbond>
0.0000

> <Gold.Chemscore.DEClash>
0.0646

> <Gold.Chemscore.DEInternal>
0.5098

> <Gold.Chemscore.Rot>
1.7963

> <Gold.Chemscore.Internal.Correction>
   9.000000E+99

> <Gold.Chemscore.Hbond.Weighted>
-0.0000

> <Gold.Chemscore.Metal.Weighted>
-0.0000

> <Gold.Chemscore.Lipo.Weighted>
-12.6500

> <Gold.Chemscore.Internal_Hbond.Weighted>
0.0000

> <Gold.Chemscore.DEClash.Weighted>
0.0646

> <Gold.Chemscore.DEInternal.Weighted>
0.5098

> <Gold.Chemscore.Rot.Weighted>
4.5985

> <Gold.Chemscore.Internal.Correction.Weighted>
   9.000000E+99

> <Gold.Protein.RotatedTorsions>
[ 6907 6896 6895 6894 ] final    6.69 input  -60.11 | X-H torsion
[ 7974 7965 7964 7962 ] final  -41.50 input  175.53 | X-H torsion
[ 8008 7997 7996 7995 ] final  -57.48 input   59.86 | X-H torsion
[ 10167 10162 10161 10158 ] final  -50.02 input  -65.29 | X-H torsion
[ 10718 10713 10712 10709 ] final  160.46 input   66.30 | X-H torsion
[ 10763 10752 10751 10750 ] final  158.11 input  -60.55 | X-H torsion
[ 11005 11000 10999 10996 ] final   27.52 input  -57.11 | X-H torsion

> <Gold.Protein.ActiveResidues>
 VAL166  LYS551  ARG553  GLY616  TRP617  ASP618  TYR619  PRO620  LYS621  CYS622 
 ASP623  PHE694  ASN695  SER759  ASP760  ASP761  ALA762  ILE779  LEU786  VAL792 
 PHE793  MET794  SER795  GLU796  ALA797  LYS798  CYS799  TRP800  GLU811  SER814 

> <Gold.Protein.RotatedAtoms>
  151.6778  135.0966  160.0209 H   0  0  0  0  0  0  0  0  0  0  0  0  # atno 6907 bound_to 6896
  152.3854  133.6599  159.6203 H   0  0  0  0  0  0  0  0  0  0  0  0  # atno 6908 bound_to 6896
  150.7781  133.8961  159.3369 H   0  0  0  0  0  0  0  0  0  0  0  0  # atno 6909 bound_to 6896
  146.0205  140.6855  142.9180 H   0  0  0  0  0  0  0  0  0  0  0  0  # atno 7974 bound_to 7965
  154.4270  140.1106  156.5804 H   0  0  0  0  0  0  0  0  0  0  0  0  # atno 8008 bound_to 7997
  155.6118  140.3494  155.4606 H   0  0  0  0  0  0  0  0  0  0  0  0  # atno 8009 bound_to 7997
  156.0093  140.1216  157.0459 H   0  0  0  0  0  0  0  0  0  0  0  0  # atno 8010 bound_to 7997
  140.6658  143.2674  151.4299 H   0  0  0  0  0  0  0  0  0  0  0  0  # atno 10167 bound_to 10162
  157.1501  131.0562  151.2284 H   0  0  0  0  0  0  0  0  0  0  0  0  # atno 10718 bound_to 10713
  154.2108  135.2786  155.2959 H   0  0  0  0  0  0  0  0  0  0  0  0  # atno 10763 bound_to 10752
  154.5780  135.5598  153.7161 H   0  0  0  0  0  0  0  0  0  0  0  0  # atno 10764 bound_to 10752
  153.0064  135.6337  154.2247 H   0  0  0  0  0  0  0  0  0  0  0  0  # atno 10765 bound_to 10752
  140.3254  134.2497  155.7710 H   0  0  0  0  0  0  0  0  0  0  0  0  # atno 11005 bound_to 11000
  144.6988  140.3558  143.7173 LP  0  0  0  0  0  0  0  0  0  0  0  0  # atno 17320 bound_to 7965
  145.7200  139.1707  143.2490 LP  0  0  0  0  0  0  0  0  0  0  0  0  # atno 17321 bound_to 7965
  139.5906  144.1508  152.2083 LP  0  0  0  0  0  0  0  0  0  0  0  0  # atno 17342 bound_to 10162
  140.0861  144.5660  150.7087 LP  0  0  0  0  0  0  0  0  0  0  0  0  # atno 17343 bound_to 10162
  157.4228  130.7447  149.6927 LP  0  0  0  0  0  0  0  0  0  0  0  0  # atno 17370 bound_to 10713
  155.9772  130.4066  150.3728 LP  0  0  0  0  0  0  0  0  0  0  0  0  # atno 17371 bound_to 10713
  141.2076  133.7800  157.0106 LP  0  0  0  0  0  0  0  0  0  0  0  0  # atno 17394 bound_to 11000
  140.0906  134.9594  157.1770 LP  0  0  0  0  0  0  0  0  0  0  0  0  # atno 17395 bound_to 11000

$$$$
