AV-unprocessed.smi:65|AV-procd|sdf|612|dock2
  -GOLD-   2262016503D 1   1.00000     0.00000
 Structure written by MMmdl.
 26 27  0  0  0  0  0  0  0  0  2 V2000
  148.8553  138.9136  153.0723 N   0  0  0  0  0  0  0  0  0  0  0  0
  149.8678  138.7185  153.9811 C   0  0  0  0  0  0  0  0  0  0  0  0
  150.3671  137.4828  154.1306 N   0  3  0  0  0  0  0  0  0  0  0  0
  151.3665  137.2692  155.0213 C   0  0  0  0  0  0  0  0  0  0  0  0
  151.8798  138.3356  155.7823 C   0  0  0  0  0  0  0  0  0  0  0  0
  151.3107  139.6031  155.5684 C   0  0  0  0  0  0  0  0  0  0  0  0
  151.7700  140.7050  156.3058 N   0  0  0  0  0  0  0  0  0  0  0  0
  152.0065  140.4204  157.7192 C   0  0  0  0  0  0  0  0  0  0  0  0
  151.1167  141.3795  158.5123 C   0  0  0  0  0  0  0  0  0  0  0  0
  151.0099  142.5762  157.5756 C   0  0  2  0  0  0  0  0  0  0  0  0
  149.8692  143.3663  157.8336 O   0  0  0  0  0  0  0  0  0  0  0  0
  150.9550  141.9136  156.1994 C   0  0  0  0  0  0  0  0  0  0  0  0
  150.3084  139.7735  154.6752 N   0  0  0  0  0  0  0  0  0  0  0  0
  148.4599  139.8333  152.9386 H   0  0  0  0  0  0  0  0  0  0  0  0
  148.5269  138.1521  152.4961 H   0  0  0  0  0  0  0  0  0  0  0  0
  151.7221  136.2518  155.0963 H   0  0  0  0  0  0  0  0  0  0  0  0
  152.6749  138.1847  156.4981 H   0  0  0  0  0  0  0  0  0  0  0  0
  151.8103  139.3808  157.9866 H   0  0  0  0  0  0  0  0  0  0  0  0
  153.0574  140.6191  157.9319 H   0  0  0  0  0  0  0  0  0  0  0  0
  150.1352  140.9266  158.6619 H   0  0  0  0  0  0  0  0  0  0  0  0
  151.5277  141.6330  159.4900 H   0  0  0  0  0  0  0  0  0  0  0  0
  151.9079  143.1909  157.6563 H   0  0  0  0  0  0  0  0  0  0  0  0
  149.6257  143.8130  157.0369 H   0  0  0  0  0  0  0  0  0  0  0  0
  151.3425  142.5758  155.4250 H   0  0  0  0  0  0  0  0  0  0  0  0
  149.9237  141.6730  155.9376 H   0  0  0  0  0  0  0  0  0  0  0  0
  150.0051  136.7005  153.5844 H   0  0  0  0  0  0  0  0  0  0  0  0
  1  2  1  0  0  0  0
  1 14  1  0  0  0  0
  1 15  1  0  0  0  0
  2 13  1  0  0  0  0
  2  3  2  0  0  0  0
  3  4  1  0  0  0  0
  3 26  1  0  0  0  0
  4  5  2  0  0  0  0
  4 16  1  0  0  0  0
  5  6  1  0  0  0  0
  5 17  1  0  0  0  0
  6  7  1  0  0  0  0
  6 13  2  0  0  0  0
  7 12  1  0  0  0  0
  7  8  1  0  0  0  0
  8  9  1  0  0  0  0
  8 18  1  0  0  0  0
  8 19  1  0  0  0  0
  9 10  1  0  0  0  0
  9 20  1  0  0  0  0
  9 21  1  0  0  0  0
 10 11  1  0  0  0  0
 10 12  1  0  0  0  0
 10 22  1  0  0  0  0
 11 23  1  0  0  0  0
 12 24  1  0  0  0  0
 12 25  1  0  0  0  0
M  CHG  1   3   1
M  END
> <s_m_source_file>
AV-unprocessed.smi

> <i_m_source_file_index>
65

> <i_lp_mmshare_version>
43012

> <i_f3d_flags>
0

> <s_epik_input>
W05IMl1jMW5bY0hdW2NIXWMobjEpTjJbQ0gyXVtDSDJdW0NAQEhdKFtPSF0pW0NIMl0y

> <s_epik_cmdline>
J2VwaWtfcHl0aG9uJywgJy1waCcsICc3LjAnLCAnLXRuJywgJzgnLCAnLW1hJywgJzIwMCcsICctbWV0YWxfYmluZGluZycsICctaW1hZScsICc8aW5maWxlLm1hZT4nLCAnLW9tYWUnLCAnPG91dGZpbGUubWFlPic=

> <r_lp_tautomer_probability>
0.575011

> <r_epik_Ionization_Penalty>
0.212468

> <r_epik_Ionization_Penalty_Charging>
0.212464

> <r_epik_Ionization_Penalty_Neutral>
4.40197e-06

> <r_epik_State_Penalty>
0.43682

> <r_epik_Charging_Adjusted_Penalty>
0.649284

> <i_epik_Tot_Q>
1

> <i_epik_Tot_abs_Q>
1

> <r_epik_Metal_State_Penalty>
0.733762

> <b_epik_Metal_Only>
0

> <s_lp_Force_Field>
OPLS_2005

> <r_lp_Energy>
27.6482

> <b_lp_Chiralities_Consistent>
1

> <s_lp_Variant>
AV-unprocessed.smi:65-2

> <Gold.Version>
5.8.1

> <Gold.Id.Protein>
6NUR|6NUR_protein|mol2

> <Gold.PLP.Fitness>
36.9436

> <Gold.PLP.PLP>
-23.2362

> <Gold.PLP.part.hbond>
-5.0551

> <Gold.PLP.part.metal>
0.0000

> <Gold.PLP.part.buried>
-2.2568

> <Gold.PLP.part.nonpolar>
-15.9019

> <Gold.PLP.part.repulsive>
0.2573

> <Gold.PLP.ligand.clash>
0.0000

> <Gold.PLP.ligand.torsion>
0.3437

> <Gold.PLP.Chemscore.Hbond>
4.7811

> <Gold.PLP.Chemscore.CHOScore>
0.0000

> <Gold.PLP.Chemscore.Metal>
0.0000

> <Gold.Chemscore.Hbonds>
donor molecule, donor type, donor heavy atom, donor atom, acceptor molecule, acceptor atom, score
      L1  H     1    15       P1  7948  1.72
      L1  H     3    26       P1  7948  1.64
      L1  H    11    23       P1  8028  1.00
      P1  H  7989  7998       L1    13  0.39

> <Gold.PLP.Chemscore.Internal.Correction>
0.0516

> <Gold.Rescore>
     Score         DG    S(hbond)    S(metal)    S(lipo)     H(rot)  DE(clash)    DE(int)     intcor
     12.93     -13.31       2.15        0.00      39.88       1.56       0.07       0.31       ----

> <Gold.Chemscore.Fitness>
12.9323

> <Gold.Chemscore.DG>
-13.3128

> <Gold.Chemscore.ZeroCoef>
-5.4800

> <Gold.Chemscore.Hbond>
2.1470

> <Gold.Chemscore.Metal>
0.0000

> <Gold.Chemscore.Lipo>
39.8772

> <Gold.Chemscore.Internal_Hbond>
0.0000

> <Gold.Chemscore.DEClash>
0.0693

> <Gold.Chemscore.DEInternal>
0.3111

> <Gold.Chemscore.Rot>
1.5640

> <Gold.Chemscore.Internal.Correction>
   9.000000E+99

> <Gold.Chemscore.Hbonds>
donor molecule, donor type, donor heavy atom, donor atom, acceptor molecule, acceptor atom, score
      L1  H     1    15       P1  7948  0.80
      L1  H     3    26       P1  7948  0.17
      L1  H    11    23       P1  8028  0.85
      P1  H  7989  7998       L1    13  0.01

> <Gold.Chemscore.Hbond.Weighted>
-7.1710

> <Gold.Chemscore.Metal.Weighted>
-0.0000

> <Gold.Chemscore.Lipo.Weighted>
-4.6656

> <Gold.Chemscore.Internal_Hbond.Weighted>
0.0000

> <Gold.Chemscore.DEClash.Weighted>
0.0693

> <Gold.Chemscore.DEInternal.Weighted>
0.3111

> <Gold.Chemscore.Rot.Weighted>
4.0038

> <Gold.Chemscore.Internal.Correction.Weighted>
   9.000000E+99

> <Gold.Protein.RotatedTorsions>
[ 6907 6896 6895 6894 ] final  112.43 input  -60.11 | X-H torsion
[ 7974 7965 7964 7962 ] final -174.11 input  175.53 | X-H torsion
[ 8008 7997 7996 7995 ] final  -17.13 input   59.86 | X-H torsion
[ 10167 10162 10161 10158 ] final -108.82 input  -65.29 | X-H torsion
[ 10718 10713 10712 10709 ] final  -77.37 input   66.30 | X-H torsion
[ 10763 10752 10751 10750 ] final    0.58 input  -60.55 | X-H torsion
[ 11005 11000 10999 10996 ] final  105.57 input  -57.11 | X-H torsion

> <Gold.Protein.ActiveResidues>
 VAL166  LYS551  ARG553  GLY616  TRP617  ASP618  TYR619  PRO620  LYS621  CYS622 
 ASP623  PHE694  ASN695  SER759  ASP760  ASP761  ALA762  ILE779  LEU786  VAL792 
 PHE793  MET794  SER795  GLU796  ALA797  LYS798  CYS799  TRP800  GLU811  SER814 

> <Gold.Protein.RotatedAtoms>
  152.4916  133.8517  159.7204 H   0  0  0  0  0  0  0  0  0  0  0  0  # atno 6907 bound_to 6896
  150.9052  133.7058  159.2875 H   0  0  0  0  0  0  0  0  0  0  0  0  # atno 6908 bound_to 6896
  151.4486  135.1031  159.9743 H   0  0  0  0  0  0  0  0  0  0  0  0  # atno 6909 bound_to 6896
  144.7133  140.1520  143.6383 H   0  0  0  0  0  0  0  0  0  0  0  0  # atno 7974 bound_to 7965
  154.5001  140.2151  155.9365 H   0  0  0  0  0  0  0  0  0  0  0  0  # atno 8008 bound_to 7997
  156.1422  140.3177  155.8481 H   0  0  0  0  0  0  0  0  0  0  0  0  # atno 8009 bound_to 7997
  155.4099  140.0490  157.3023 H   0  0  0  0  0  0  0  0  0  0  0  0  # atno 8010 bound_to 7997
  140.1620  143.4112  152.1418 H   0  0  0  0  0  0  0  0  0  0  0  0  # atno 10167 bound_to 10162
  156.0147  130.4489  150.3335 H   0  0  0  0  0  0  0  0  0  0  0  0  # atno 10718 bound_to 10713
  153.3189  135.6968  153.7048 H   0  0  0  0  0  0  0  0  0  0  0  0  # atno 10763 bound_to 10752
  153.5896  135.3482  155.2906 H   0  0  0  0  0  0  0  0  0  0  0  0  # atno 10764 bound_to 10752
  154.8593  135.4314  154.2348 H   0  0  0  0  0  0  0  0  0  0  0  0  # atno 10765 bound_to 10752
  139.8803  134.9340  156.5533 H   0  0  0  0  0  0  0  0  0  0  0  0  # atno 11005 bound_to 11000
  145.9107  139.2485  143.1439 LP  0  0  0  0  0  0  0  0  0  0  0  0  # atno 17320 bound_to 7965
  145.9719  140.8753  143.0158 LP  0  0  0  0  0  0  0  0  0  0  0  0  # atno 17321 bound_to 7965
  139.5377  144.7226  151.4839 LP  0  0  0  0  0  0  0  0  0  0  0  0  # atno 17342 bound_to 10162
  140.6637  143.8444  150.6917 LP  0  0  0  0  0  0  0  0  0  0  0  0  # atno 17343 bound_to 10162
  157.1432  131.0302  151.2918 LP  0  0  0  0  0  0  0  0  0  0  0  0  # atno 17370 bound_to 10713
  157.4454  130.7568  149.7105 LP  0  0  0  0  0  0  0  0  0  0  0  0  # atno 17371 bound_to 10713
  140.8223  133.8343  155.8907 LP  0  0  0  0  0  0  0  0  0  0  0  0  # atno 17394 bound_to 11000
  140.9406  134.1905  157.4800 LP  0  0  0  0  0  0  0  0  0  0  0  0  # atno 17395 bound_to 11000

$$$$
