AV-unprocessed.smi:607|AV-procd|sdf|3042|dock8
  -GOLD-   2262023563D 1   1.00000     0.00000
 Structure written by MMmdl.
 42 43  0  0  0  0  0  0  0  0  1 V2000
  153.3853  140.4329  158.6604 C   0  0  0  0  0  0  0  0  0  0  0  0
  153.1057  141.5792  159.5898 C   0  0  0  0  0  0  0  0  0  0  0  0
  153.5677  141.5340  160.8275 N   0  0  0  0  0  0  0  0  0  0  0  0
  153.1534  142.6850  161.3911 N   0  0  0  0  0  0  0  0  0  0  0  0
  153.4913  142.9569  162.7748 C   0  0  0  0  0  0  0  0  0  0  0  0
  152.4325  143.4636  160.5062 C   0  0  0  0  0  0  0  0  0  0  0  0
  151.8659  144.7899  160.9071 C   0  0  0  0  0  0  0  0  0  0  0  0
  152.3701  142.7716  159.3215 C   0  0  0  0  0  0  0  0  0  0  0  0
  151.6950  143.1355  158.0132 C   0  0  2  0  0  0  0  0  0  0  0  0
  151.0922  144.5517  158.0656 C   0  0  0  0  0  0  0  0  0  0  0  0
  150.6737  142.0538  157.6228 C   0  0  0  0  0  0  0  0  0  0  0  0
  150.6779  140.9522  158.1727 O   0  0  0  0  0  0  0  0  0  0  0  0
  149.8030  142.3838  156.6545 N   0  0  0  0  0  0  0  0  0  0  0  0
  148.8059  141.4971  156.0573 C   0  0  0  0  0  0  0  0  0  0  0  0
  147.8686  140.9694  157.0680 C   0  0  0  0  0  0  0  0  0  0  0  0
  147.1345  140.5565  157.8615 N   0  0  0  0  0  0  0  0  0  0  0  0
  148.0492  142.1778  154.9003 C   0  0  0  0  0  0  0  0  0  0  0  0
  147.7043  141.0745  153.8895 C   0  0  0  0  0  0  0  0  0  0  0  0
  148.5190  139.8422  154.2979 C   0  0  0  0  0  0  0  0  0  0  0  0
  149.5152  140.3369  155.3472 C   0  0  0  0  0  0  0  0  0  0  0  0
  152.4657  139.9058  158.4059 H   0  0  0  0  0  0  0  0  0  0  0  0
  154.0706  139.7093  159.1032 H   0  0  0  0  0  0  0  0  0  0  0  0
  153.8345  140.7858  157.7319 H   0  0  0  0  0  0  0  0  0  0  0  0
  152.6027  143.2871  163.3133 H   0  0  0  0  0  0  0  0  0  0  0  0
  154.2477  143.7408  162.8190 H   0  0  0  0  0  0  0  0  0  0  0  0
  153.8805  142.0603  163.2597 H   0  0  0  0  0  0  0  0  0  0  0  0
  151.6289  145.4023  160.0387 H   0  0  0  0  0  0  0  0  0  0  0  0
  152.5720  145.3513  161.5188 H   0  0  0  0  0  0  0  0  0  0  0  0
  150.9494  144.6574  161.4822 H   0  0  0  0  0  0  0  0  0  0  0  0
  152.4314  143.1420  157.2090 H   0  0  0  0  0  0  0  0  0  0  0  0
  150.3416  144.6478  158.8500 H   0  0  0  0  0  0  0  0  0  0  0  0
  150.6207  144.8183  157.1189 H   0  0  0  0  0  0  0  0  0  0  0  0
  151.8673  145.2931  158.2613 H   0  0  0  0  0  0  0  0  0  0  0  0
  149.8731  143.3112  156.2617 H   0  0  0  0  0  0  0  0  0  0  0  0
  147.1617  142.7121  155.2419 H   0  0  0  0  0  0  0  0  0  0  0  0
  148.6928  142.9103  154.4100 H   0  0  0  0  0  0  0  0  0  0  0  0
  146.6380  140.8466  153.9077 H   0  0  0  0  0  0  0  0  0  0  0  0
  147.9518  141.3935  152.8765 H   0  0  0  0  0  0  0  0  0  0  0  0
  147.8569  139.1001  154.7454 H   0  0  0  0  0  0  0  0  0  0  0  0
  149.0148  139.3701  153.4493 H   0  0  0  0  0  0  0  0  0  0  0  0
  150.4125  140.6964  154.8402 H   0  0  0  0  0  0  0  0  0  0  0  0
  149.8235  139.5469  156.0332 H   0  0  0  0  0  0  0  0  0  0  0  0
  1  2  1  0  0  0  0
  1 21  1  0  0  0  0
  1 22  1  0  0  0  0
  1 23  1  0  0  0  0
  2  8  1  0  0  0  0
  2  3  2  0  0  0  0
  3  4  1  0  0  0  0
  4  5  1  0  0  0  0
  4  6  1  0  0  0  0
  5 24  1  0  0  0  0
  5 25  1  0  0  0  0
  5 26  1  0  0  0  0
  6  7  1  0  0  0  0
  6  8  2  0  0  0  0
  7 27  1  0  0  0  0
  7 28  1  0  0  0  0
  7 29  1  0  0  0  0
  8  9  1  0  0  0  0
  9 10  1  0  0  0  0
  9 11  1  0  0  0  0
  9 30  1  0  0  0  0
 10 31  1  0  0  0  0
 10 32  1  0  0  0  0
 10 33  1  0  0  0  0
 11 12  2  0  0  0  0
 11 13  1  0  0  0  0
 13 14  1  0  0  0  0
 13 34  1  0  0  0  0
 14 20  1  0  0  0  0
 14 15  1  0  0  0  0
 14 17  1  0  0  0  0
 15 16  3  0  0  0  0
 17 18  1  0  0  0  0
 17 35  1  0  0  0  0
 17 36  1  0  0  0  0
 18 19  1  0  0  0  0
 18 37  1  0  0  0  0
 18 38  1  0  0  0  0
 19 20  1  0  0  0  0
 19 39  1  0  0  0  0
 19 40  1  0  0  0  0
 20 41  1  0  0  0  0
 20 42  1  0  0  0  0
M  END
> <s_m_source_file>
AV-unprocessed.smi

> <i_m_source_file_index>
607

> <i_lp_mmshare_version>
43012

> <i_f3d_flags>
0

> <s_epik_input>
W0NIM11jMW5uKFtDSDNdKWMoW0NIM10pYzFbQ0BIXShbQ0gzXSlDKD1PKVtOSF1DMihDI04pW0NIMl1bQ0gyXVtDSDJdW0NIMl0y

> <s_epik_cmdline>
J2VwaWtfcHl0aG9uJywgJy1waCcsICc3LjAnLCAnLXRuJywgJzgnLCAnLW1hJywgJzIwMCcsICctbWV0YWxfYmluZGluZycsICctaW1hZScsICc8aW5maWxlLm1hZT4nLCAnLW9tYWUnLCAnPG91dGZpbGUubWFlPic=

> <r_lp_tautomer_probability>
1

> <r_epik_Ionization_Penalty>
0.00342632

> <r_epik_Ionization_Penalty_Charging>
0

> <r_epik_Ionization_Penalty_Neutral>
0.00342632

> <r_epik_State_Penalty>
0.00242724

> <r_epik_Charging_Adjusted_Penalty>
0.00242724

> <i_epik_Tot_Q>
0

> <i_epik_Tot_abs_Q>
0

> <r_epik_Metal_State_Penalty>
-0

> <b_epik_Metal_Only>
0

> <s_lp_Force_Field>
OPLS_2005

> <r_lp_Energy>
13.4407

> <b_lp_Chiralities_Consistent>
1

> <s_lp_Variant>
AV-unprocessed.smi:607-1

> <Gold.Version>
5.8.1

> <Gold.Id.Protein>
6NUR|6NUR_protein|mol2

> <Gold.PLP.Fitness>
42.7386

> <Gold.PLP.PLP>
-43.2125

> <Gold.PLP.part.hbond>
-1.0000

> <Gold.PLP.part.metal>
0.0000

> <Gold.PLP.part.buried>
-3.2283

> <Gold.PLP.part.nonpolar>
-39.2601

> <Gold.PLP.part.repulsive>
0.0536

> <Gold.PLP.ligand.clash>
1.5002

> <Gold.PLP.ligand.torsion>
0.4972

> <Gold.PLP.Chemscore.Hbond>
0.6373

> <Gold.PLP.Chemscore.CHOScore>
0.0000

> <Gold.PLP.Chemscore.Metal>
0.0000

> <Gold.Chemscore.Hbonds>
donor molecule, donor type, donor heavy atom, donor atom, acceptor molecule, acceptor atom, score
      L1  H    13    34       P1  8028  0.88

> <Gold.PLP.Chemscore.Internal.Correction>
0.1089

> <Gold.Rescore>
     Score         DG    S(hbond)    S(metal)    S(lipo)     H(rot)  DE(clash)    DE(int)     intcor
     11.94     -18.57       0.83        0.00     118.18       1.37       1.28       5.35       ----

> <Gold.Chemscore.Fitness>
11.9442

> <Gold.Chemscore.DG>
-18.5715

> <Gold.Chemscore.ZeroCoef>
-5.4800

> <Gold.Chemscore.Hbond>
0.8314

> <Gold.Chemscore.Metal>
0.0000

> <Gold.Chemscore.Lipo>
118.1771

> <Gold.Chemscore.Internal_Hbond>
0.0000

> <Gold.Chemscore.DEClash>
1.2821

> <Gold.Chemscore.DEInternal>
5.3451

> <Gold.Chemscore.Rot>
1.3720

> <Gold.Chemscore.Internal.Correction>
   9.000000E+99

> <Gold.Chemscore.Hbonds>
donor molecule, donor type, donor heavy atom, donor atom, acceptor molecule, acceptor atom, score
      L1  H    13    34       P1  8028  0.87

> <Gold.Chemscore.Hbond.Weighted>
-2.7770

> <Gold.Chemscore.Metal.Weighted>
-0.0000

> <Gold.Chemscore.Lipo.Weighted>
-13.8267

> <Gold.Chemscore.Internal_Hbond.Weighted>
0.0000

> <Gold.Chemscore.DEClash.Weighted>
1.2821

> <Gold.Chemscore.DEInternal.Weighted>
5.3451

> <Gold.Chemscore.Rot.Weighted>
3.5123

> <Gold.Chemscore.Internal.Correction.Weighted>
   9.000000E+99

> <Gold.Protein.RotatedTorsions>
[ 6907 6896 6895 6894 ] final  -34.11 input  -60.11 | X-H torsion
[ 7974 7965 7964 7962 ] final   18.78 input  175.53 | X-H torsion
[ 8008 7997 7996 7995 ] final -158.35 input   59.86 | X-H torsion
[ 10167 10162 10161 10158 ] final   84.95 input  -65.29 | X-H torsion
[ 10718 10713 10712 10709 ] final  130.02 input   66.30 | X-H torsion
[ 10763 10752 10751 10750 ] final  -14.90 input  -60.55 | X-H torsion
[ 11005 11000 10999 10996 ] final  116.44 input  -57.11 | X-H torsion

> <Gold.Protein.ActiveResidues>
 VAL166  LYS551  ARG553  GLY616  TRP617  ASP618  TYR619  PRO620  LYS621  CYS622 
 ASP623  PHE694  ASN695  SER759  ASP760  ASP761  ALA762  ILE779  LEU786  VAL792 
 PHE793  MET794  SER795  GLU796  ALA797  LYS798  CYS799  TRP800  GLU811  SER814 

> <Gold.Protein.RotatedAtoms>
  151.0569  134.9711  159.8240 H   0  0  0  0  0  0  0  0  0  0  0  0  # atno 6907 bound_to 6896
  152.5389  134.2466  159.8893 H   0  0  0  0  0  0  0  0  0  0  0  0  # atno 6908 bound_to 6896
  151.2484  133.4319  159.2644 H   0  0  0  0  0  0  0  0  0  0  0  0  # atno 6909 bound_to 6896
  146.2173  139.8408  142.8641 H   0  0  0  0  0  0  0  0  0  0  0  0  # atno 7974 bound_to 7965
  155.7462  140.0820  157.2223 H   0  0  0  0  0  0  0  0  0  0  0  0  # atno 8008 bound_to 7997
  154.4017  140.1569  156.2728 H   0  0  0  0  0  0  0  0  0  0  0  0  # atno 8009 bound_to 7997
  155.8974  140.3412  155.6003 H   0  0  0  0  0  0  0  0  0  0  0  0  # atno 8010 bound_to 7997
  139.9028  144.6319  150.8619 H   0  0  0  0  0  0  0  0  0  0  0  0  # atno 10167 bound_to 10162
  157.5100  131.1096  150.9306 H   0  0  0  0  0  0  0  0  0  0  0  0  # atno 10718 bound_to 10713
  153.5352  135.7014  153.5663 H   0  0  0  0  0  0  0  0  0  0  0  0  # atno 10763 bound_to 10752
  153.3653  135.3959  155.1748 H   0  0  0  0  0  0  0  0  0  0  0  0  # atno 10764 bound_to 10752
  154.8680  135.3798  154.4853 H   0  0  0  0  0  0  0  0  0  0  0  0  # atno 10765 bound_to 10752
  139.9041  134.9598  156.7198 H   0  0  0  0  0  0  0  0  0  0  0  0  # atno 11005 bound_to 11000
  145.2901  141.0164  143.3668 LP  0  0  0  0  0  0  0  0  0  0  0  0  # atno 17320 bound_to 7965
  144.9084  139.4560  143.6599 LP  0  0  0  0  0  0  0  0  0  0  0  0  # atno 17321 bound_to 7965
  140.7703  143.3424  151.2181 LP  0  0  0  0  0  0  0  0  0  0  0  0  # atno 17342 bound_to 10162
  139.7010  143.9533  152.2905 LP  0  0  0  0  0  0  0  0  0  0  0  0  # atno 17343 bound_to 10162
  156.9949  130.5577  149.5306 LP  0  0  0  0  0  0  0  0  0  0  0  0  # atno 17370 bound_to 10713
  156.0283  130.5376  150.8466 LP  0  0  0  0  0  0  0  0  0  0  0  0  # atno 17371 bound_to 10713
  140.7009  133.9307  155.8024 LP  0  0  0  0  0  0  0  0  0  0  0  0  # atno 17394 bound_to 11000
  141.0372  134.0673  157.3945 LP  0  0  0  0  0  0  0  0  0  0  0  0  # atno 17395 bound_to 11000

$$$$
