AV-unprocessed.smi:2792|AV-procd|sdf|10772|dock5
  -GOLD-   2272015213D 1   1.00000     0.00000
 Structure written by MMmdl.
 44 46  0  0  0  0  0  0  0  0  1 V2000
  148.6693  135.6884  155.9004 C   0  0  0  0  0  0  0  0  0  0  0  0
  149.4168  136.7864  155.1247 C   0  0  0  0  0  0  0  0  0  0  0  0
  150.8709  136.4509  154.7111 C   0  0  1  0  0  0  0  0  0  0  0  0
  151.7281  135.9953  155.9113 C   0  0  0  0  0  0  0  0  0  0  0  0
  150.8245  135.3763  153.7915 O   0  0  0  0  0  0  0  0  0  0  0  0
  151.4881  137.6744  153.9837 C   0  0  0  0  0  0  0  0  0  0  0  0
  151.4677  138.9092  154.7544 N   0  0  0  0  0  0  0  0  0  0  0  0
  152.4241  139.3356  155.6496 C   0  0  0  0  0  0  0  0  0  0  0  0
  152.1815  140.4835  156.2217 N   0  0  0  0  0  0  0  0  0  0  0  0
  150.9591  140.8715  155.6887 C   0  0  0  0  0  0  0  0  0  0  0  0
  150.1218  142.0024  155.8695 C   0  0  0  0  0  0  0  0  0  0  0  0
  150.4641  142.9981  156.7167 N   0  0  0  0  0  0  0  0  0  0  0  0
  151.8361  143.1174  157.2000 C   0  0  0  0  0  0  0  0  0  0  0  0
  151.9703  143.3683  158.6938 C   0  0  0  0  0  0  0  0  0  0  0  0
  151.5142  144.5784  159.2601 C   0  0  0  0  0  0  0  0  0  0  0  0
  151.6369  144.8029  160.6451 C   0  0  0  0  0  0  0  0  0  0  0  0
  152.2183  143.8201  161.4694 C   0  0  0  0  0  0  0  0  0  0  0  0
  152.6792  142.6138  160.9077 C   0  0  0  0  0  0  0  0  0  0  0  0
  152.5572  142.3891  159.5225 C   0  0  0  0  0  0  0  0  0  0  0  0
  148.9583  142.0464  155.1683 N   0  0  0  0  0  0  0  0  0  0  0  0
  148.6398  141.0507  154.3354 C   0  0  0  0  0  0  0  0  0  0  0  0
  149.3264  139.9386  154.0628 N   0  0  0  0  0  0  0  0  0  0  0  0
  150.4924  139.8912  154.7688 C   0  0  0  0  0  0  0  0  0  0  0  0
  147.6376  135.9884  156.0850 H   0  0  0  0  0  0  0  0  0  0  0  0
  149.1253  135.4953  156.8709 H   0  0  0  0  0  0  0  0  0  0  0  0
  148.6419  134.7503  155.3458 H   0  0  0  0  0  0  0  0  0  0  0  0
  148.8384  137.0259  154.2311 H   0  0  0  0  0  0  0  0  0  0  0  0
  149.4158  137.6950  155.7282 H   0  0  0  0  0  0  0  0  0  0  0  0
  151.8085  136.7857  156.6580 H   0  0  0  0  0  0  0  0  0  0  0  0
  152.7392  135.7216  155.6097 H   0  0  0  0  0  0  0  0  0  0  0  0
  151.3086  135.1175  156.4020 H   0  0  0  0  0  0  0  0  0  0  0  0
  151.2725  135.6369  153.0011 H   0  0  0  0  0  0  0  0  0  0  0  0
  152.5210  137.4678  153.6989 H   0  0  0  0  0  0  0  0  0  0  0  0
  150.9513  137.8572  153.0518 H   0  0  0  0  0  0  0  0  0  0  0  0
  153.3184  138.7669  155.8598 H   0  0  0  0  0  0  0  0  0  0  0  0
  149.7806  143.5659  157.1963 H   0  0  0  0  0  0  0  0  0  0  0  0
  152.3959  142.2241  156.9195 H   0  0  0  0  0  0  0  0  0  0  0  0
  152.3070  143.9484  156.6745 H   0  0  0  0  0  0  0  0  0  0  0  0
  151.0665  145.3365  158.6343 H   0  0  0  0  0  0  0  0  0  0  0  0
  151.2847  145.7291  161.0751 H   0  0  0  0  0  0  0  0  0  0  0  0
  152.3117  143.9915  162.5317 H   0  0  0  0  0  0  0  0  0  0  0  0
  153.1255  141.8598  161.5393 H   0  0  0  0  0  0  0  0  0  0  0  0
  152.9102  141.4599  159.0994 H   0  0  0  0  0  0  0  0  0  0  0  0
  147.7012  141.1612  153.8128 H   0  0  0  0  0  0  0  0  0  0  0  0
  1  2  1  0  0  0  0
  1 24  1  0  0  0  0
  1 25  1  0  0  0  0
  1 26  1  0  0  0  0
  2  3  1  0  0  0  0
  2 27  1  0  0  0  0
  2 28  1  0  0  0  0
  3  4  1  0  0  0  0
  3  5  1  0  0  0  0
  3  6  1  0  0  0  0
  4 29  1  0  0  0  0
  4 30  1  0  0  0  0
  4 31  1  0  0  0  0
  5 32  1  0  0  0  0
  6  7  1  0  0  0  0
  6 33  1  0  0  0  0
  6 34  1  0  0  0  0
  7 23  1  0  0  0  0
  7  8  1  0  0  0  0
  8  9  2  0  0  0  0
  8 35  1  0  0  0  0
  9 10  1  0  0  0  0
 10 23  2  0  0  0  0
 10 11  1  0  0  0  0
 11 12  1  0  0  0  0
 11 20  2  0  0  0  0
 12 13  1  0  0  0  0
 12 36  1  0  0  0  0
 13 14  1  0  0  0  0
 13 37  1  0  0  0  0
 13 38  1  0  0  0  0
 14 19  1  0  0  0  0
 14 15  2  0  0  0  0
 15 16  1  0  0  0  0
 15 39  1  0  0  0  0
 16 17  2  0  0  0  0
 16 40  1  0  0  0  0
 17 18  1  0  0  0  0
 17 41  1  0  0  0  0
 18 19  2  0  0  0  0
 18 42  1  0  0  0  0
 19 43  1  0  0  0  0
 20 21  1  0  0  0  0
 21 22  2  0  0  0  0
 21 44  1  0  0  0  0
 22 23  1  0  0  0  0
M  END
> <s_m_source_file>
AV-unprocessed.smi

> <i_m_source_file_index>
2792

> <i_lp_mmshare_version>
43012

> <i_f3d_flags>
0

> <s_epik_input>
W0NIM11bQ0gyXVtDQEBdKFtDSDNdKShbT0hdKVtDSDJdbihbY0hdbjEpYyhjMTIpbltjSF1uYzJbTkhdW0NIMl1jM1tjSF1bY0hdW2NIXVtjSF1bY0hdMw==

> <s_epik_cmdline>
J2VwaWtfcHl0aG9uJywgJy1waCcsICc3LjAnLCAnLXRuJywgJzgnLCAnLW1hJywgJzIwMCcsICctbWV0YWxfYmluZGluZycsICctaW1hZScsICc8aW5maWxlLm1hZT4nLCAnLW9tYWUnLCAnPG91dGZpbGUubWFlPic=

> <r_lp_tautomer_probability>
1

> <r_epik_Ionization_Penalty>
0.00163025

> <r_epik_Ionization_Penalty_Charging>
0

> <r_epik_Ionization_Penalty_Neutral>
0.00163025

> <r_epik_State_Penalty>
-0

> <r_epik_Charging_Adjusted_Penalty>
0

> <i_epik_Tot_Q>
0

> <i_epik_Tot_abs_Q>
0

> <r_epik_Metal_State_Penalty>
-0

> <b_epik_Metal_Only>
0

> <s_lp_Force_Field>
OPLS_2005

> <r_lp_Energy>
13.0485

> <b_lp_Chiralities_Consistent>
1

> <s_lp_Variant>
AV-unprocessed.smi:2792-1

> <Gold.Version>
5.8.1

> <Gold.Id.Protein>
6NUR|6NUR_protein|mol2

> <Gold.PLP.Fitness>
46.5237

> <Gold.PLP.PLP>
-45.4498

> <Gold.PLP.part.hbond>
-3.4579

> <Gold.PLP.part.metal>
0.0000

> <Gold.PLP.part.buried>
-3.0534

> <Gold.PLP.part.nonpolar>
-42.1882

> <Gold.PLP.part.repulsive>
3.5564

> <Gold.PLP.ligand.clash>
0.0000

> <Gold.PLP.ligand.torsion>
0.6009

> <Gold.PLP.Chemscore.Hbond>
0.7102

> <Gold.PLP.Chemscore.CHOScore>
0.0000

> <Gold.PLP.Chemscore.Metal>
0.0000

> <Gold.Chemscore.Hbonds>
donor molecule, donor type, donor heavy atom, donor atom, acceptor molecule, acceptor atom, score
      L1  H     5    32       P1  7949  0.94
      L1  H    12    36       P1  8028  0.08

> <Gold.PLP.Chemscore.Internal.Correction>
0.1451

> <Gold.Rescore>
     Score         DG    S(hbond)    S(metal)    S(lipo)     H(rot)  DE(clash)    DE(int)     intcor
      9.10     -10.90       0.00        0.00     101.60       2.52       0.17       1.63       ----

> <Gold.Chemscore.Fitness>
9.1025

> <Gold.Chemscore.DG>
-10.9042

> <Gold.Chemscore.ZeroCoef>
-5.4800

> <Gold.Chemscore.Hbond>
0.0001

> <Gold.Chemscore.Metal>
0.0000

> <Gold.Chemscore.Lipo>
101.6048

> <Gold.Chemscore.Internal_Hbond>
0.0000

> <Gold.Chemscore.DEClash>
0.1725

> <Gold.Chemscore.DEInternal>
1.6292

> <Gold.Chemscore.Rot>
2.5250

> <Gold.Chemscore.Internal.Correction>
   9.000000E+99

> <Gold.Chemscore.Hbonds>
donor molecule, donor type, donor heavy atom, donor atom, acceptor molecule, acceptor atom, score
      L1  H     5    32       P1  7949  0.38
      L1  H    12    36       P1  8028  0.09

> <Gold.Chemscore.Hbond.Weighted>
-0.0004

> <Gold.Chemscore.Metal.Weighted>
-0.0000

> <Gold.Chemscore.Lipo.Weighted>
-11.8878

> <Gold.Chemscore.Internal_Hbond.Weighted>
0.0000

> <Gold.Chemscore.DEClash.Weighted>
0.1725

> <Gold.Chemscore.DEInternal.Weighted>
1.6292

> <Gold.Chemscore.Rot.Weighted>
6.4639

> <Gold.Chemscore.Internal.Correction.Weighted>
   9.000000E+99

> <Gold.Protein.RotatedTorsions>
[ 6907 6896 6895 6894 ] final  142.32 input  -60.11 | X-H torsion
[ 7974 7965 7964 7962 ] final   66.71 input  175.53 | X-H torsion
[ 8008 7997 7996 7995 ] final  -37.17 input   59.86 | X-H torsion
[ 10167 10162 10161 10158 ] final  138.26 input  -65.29 | X-H torsion
[ 10718 10713 10712 10709 ] final   28.20 input   66.30 | X-H torsion
[ 10763 10752 10751 10750 ] final  -49.35 input  -60.55 | X-H torsion
[ 11005 11000 10999 10996 ] final  166.44 input  -57.11 | X-H torsion

> <Gold.Protein.ActiveResidues>
 VAL166  LYS551  ARG553  GLY616  TRP617  ASP618  TYR619  PRO620  LYS621  CYS622 
 ASP623  PHE694  ASN695  SER759  ASP760  ASP761  ALA762  ILE779  LEU786  VAL792 
 PHE793  MET794  SER795  GLU796  ALA797  LYS798  CYS799  TRP800  GLU811  SER814 

> <Gold.Protein.RotatedAtoms>
  152.2201  133.4977  159.5157 H   0  0  0  0  0  0  0  0  0  0  0  0  # atno 6907 bound_to 6896
  150.7011  134.1353  159.4094 H   0  0  0  0  0  0  0  0  0  0  0  0  # atno 6908 bound_to 6896
  151.9274  135.0271  160.0577 H   0  0  0  0  0  0  0  0  0  0  0  0  # atno 6909 bound_to 6896
  145.8233  139.3097  143.1030 H   0  0  0  0  0  0  0  0  0  0  0  0  # atno 7974 bound_to 7965
  154.4058  140.1611  156.2494 H   0  0  0  0  0  0  0  0  0  0  0  0  # atno 8008 bound_to 7997
  155.9132  140.3426  155.6092 H   0  0  0  0  0  0  0  0  0  0  0  0  # atno 8009 bound_to 7997
  155.7310  140.0780  157.2279 H   0  0  0  0  0  0  0  0  0  0  0  0  # atno 8010 bound_to 7997
  139.5117  144.6363  151.5686 H   0  0  0  0  0  0  0  0  0  0  0  0  # atno 10167 bound_to 10162
  157.2304  130.7021  149.6310 H   0  0  0  0  0  0  0  0  0  0  0  0  # atno 10718 bound_to 10713
  154.0926  135.6575  153.4855 H   0  0  0  0  0  0  0  0  0  0  0  0  # atno 10763 bound_to 10752
  153.0316  135.5206  154.7365 H   0  0  0  0  0  0  0  0  0  0  0  0  # atno 10764 bound_to 10752
  154.6493  135.2999  154.9975 H   0  0  0  0  0  0  0  0  0  0  0  0  # atno 10765 bound_to 10752
  140.2664  134.7861  157.3637 H   0  0  0  0  0  0  0  0  0  0  0  0  # atno 11005 bound_to 11000
  145.9651  140.8805  143.0191 LP  0  0  0  0  0  0  0  0  0  0  0  0  # atno 17320 bound_to 7965
  144.6746  140.1867  143.7400 LP  0  0  0  0  0  0  0  0  0  0  0  0  # atno 17321 bound_to 7965
  140.6114  143.9429  150.6456 LP  0  0  0  0  0  0  0  0  0  0  0  0  # atno 17342 bound_to 10162
  140.2673  143.3481  152.1269 LP  0  0  0  0  0  0  0  0  0  0  0  0  # atno 17343 bound_to 10162
  155.9676  130.4491  150.5644 LP  0  0  0  0  0  0  0  0  0  0  0  0  # atno 17370 bound_to 10713
  157.3484  131.0729  151.1732 LP  0  0  0  0  0  0  0  0  0  0  0  0  # atno 17371 bound_to 10713
  140.1415  134.4966  155.8028 LP  0  0  0  0  0  0  0  0  0  0  0  0  # atno 17394 bound_to 11000
  141.2183  133.6827  156.7218 LP  0  0  0  0  0  0  0  0  0  0  0  0  # atno 17395 bound_to 11000

$$$$
