AV-unprocessed.smi:456|AV-procd|sdf|2618|dock4
  -GOLD-   2262023 23D 1   1.00000     0.00000
 Structure written by MMmdl.
 33 35  0  0  0  0  0  0  0  0  2 V2000
  146.7382  137.8248  151.0504 O   0  0  0  0  0  0  0  0  0  0  0  0
  146.1086  138.1965  152.2618 C   0  0  1  0  0  0  0  0  0  0  0  0
  145.8312  136.9389  153.1084 C   0  0  0  0  0  0  0  0  0  0  0  0
  145.0821  135.9107  152.3743 N   0  0  0  0  0  0  0  0  0  0  0  0
  143.9715  136.0252  151.5966 C   0  0  0  0  0  0  0  0  0  0  0  0
  143.6601  134.7802  151.1400 N   0  3  0  0  0  0  0  0  0  0  0  0
  144.5848  133.8573  151.6348 C   0  0  0  0  0  0  0  0  0  0  0  0
  144.6883  132.4820  151.4537 C   0  0  0  0  0  0  0  0  0  0  0  0
  145.7585  131.8342  152.1057 C   0  0  0  0  0  0  0  0  0  0  0  0
  145.9065  130.4961  151.9623 F   0  0  0  0  0  0  0  0  0  0  0  0
  146.6756  132.5524  152.9026 C   0  0  0  0  0  0  0  0  0  0  0  0
  147.6888  131.8917  153.5112 F   0  0  0  0  0  0  0  0  0  0  0  0
  146.5599  133.9470  153.0795 C   0  0  0  0  0  0  0  0  0  0  0  0
  145.5004  134.5779  152.4297 C   0  0  0  0  0  0  0  0  0  0  0  0
  146.9174  139.2193  153.0435 C   0  0  0  0  0  0  0  0  0  0  0  0
  147.9691  138.7914  153.8824 C   0  0  0  0  0  0  0  0  0  0  0  0
  148.7302  139.7321  154.6031 C   0  0  0  0  0  0  0  0  0  0  0  0
  148.4466  141.1064  154.4865 C   0  0  0  0  0  0  0  0  0  0  0  0
  147.4017  141.5398  153.6480 C   0  0  0  0  0  0  0  0  0  0  0  0
  146.6395  140.5995  152.9278 C   0  0  0  0  0  0  0  0  0  0  0  0
  147.4308  137.2131  151.2492 H   0  0  0  0  0  0  0  0  0  0  0  0
  145.1578  138.6549  151.9871 H   0  0  0  0  0  0  0  0  0  0  0  0
  146.7678  136.4880  153.4397 H   0  0  0  0  0  0  0  0  0  0  0  0
  145.2741  137.1917  154.0116 H   0  0  0  0  0  0  0  0  0  0  0  0
  143.4336  136.9380  151.3840 H   0  0  0  0  0  0  0  0  0  0  0  0
  143.9884  131.9281  150.8454 H   0  0  0  0  0  0  0  0  0  0  0  0
  147.2658  134.4875  153.6923 H   0  0  0  0  0  0  0  0  0  0  0  0
  148.1974  137.7397  153.9760 H   0  0  0  0  0  0  0  0  0  0  0  0
  149.5329  139.3990  155.2445 H   0  0  0  0  0  0  0  0  0  0  0  0
  149.0311  141.8276  155.0384 H   0  0  0  0  0  0  0  0  0  0  0  0
  147.1854  142.5940  153.5559 H   0  0  0  0  0  0  0  0  0  0  0  0
  145.8426  140.9423  152.2842 H   0  0  0  0  0  0  0  0  0  0  0  0
  142.8728  134.5790  150.5367 H   0  0  0  0  0  0  0  0  0  0  0  0
  1  2  1  0  0  0  0
  1 21  1  0  0  0  0
  2  3  1  0  0  0  0
  2 15  1  0  0  0  0
  2 22  1  0  0  0  0
  3  4  1  0  0  0  0
  3 23  1  0  0  0  0
  3 24  1  0  0  0  0
  4 14  1  0  0  0  0
  4  5  1  0  0  0  0
  5  6  2  0  0  0  0
  5 25  1  0  0  0  0
  6  7  1  0  0  0  0
  6 33  1  0  0  0  0
  7 14  2  0  0  0  0
  7  8  1  0  0  0  0
  8  9  2  0  0  0  0
  8 26  1  0  0  0  0
  9 10  1  0  0  0  0
  9 11  1  0  0  0  0
 11 12  1  0  0  0  0
 11 13  2  0  0  0  0
 13 14  1  0  0  0  0
 13 27  1  0  0  0  0
 15 20  1  0  0  0  0
 15 16  2  0  0  0  0
 16 17  1  0  0  0  0
 16 28  1  0  0  0  0
 17 18  2  0  0  0  0
 17 29  1  0  0  0  0
 18 19  1  0  0  0  0
 18 30  1  0  0  0  0
 19 20  2  0  0  0  0
 19 31  1  0  0  0  0
 20 32  1  0  0  0  0
M  CHG  1   6   1
M  END
> <s_m_source_file>
AV-unprocessed.smi

> <i_m_source_file_index>
456

> <i_lp_mmshare_version>
43012

> <i_f3d_flags>
0

> <s_epik_input>
W2NIXTFbY0hdW2NIXVtjSF1bY0hdYzFbQ0BIXShbT0hdKVtDSDJdbihbY0hdbjIpYyhjMjMpW2NIXWMoRiljKEYpW2NIXTM=

> <s_epik_cmdline>
J2VwaWtfcHl0aG9uJywgJy1waCcsICc3LjAnLCAnLXRuJywgJzgnLCAnLW1hJywgJzIwMCcsICctbWV0YWxfYmluZGluZycsICctaW1hZScsICc8aW5maWxlLm1hZT4nLCAnLW9tYWUnLCAnPG91dGZpbGUubWFlPic=

> <r_epik_Ionization_Penalty>
2.16139

> <r_epik_Ionization_Penalty_Charging>
2.16138

> <r_epik_Ionization_Penalty_Neutral>
1.34362e-06

> <r_epik_State_Penalty>
2.30198

> <r_epik_Charging_Adjusted_Penalty>
4.46337

> <i_epik_Tot_Q>
1

> <i_epik_Tot_abs_Q>
1

> <r_epik_Metal_State_Penalty>
6.38245

> <b_epik_Metal_Only>
0

> <s_lp_Force_Field>
OPLS_2005

> <r_lp_Energy>
14.9755

> <b_lp_Chiralities_Consistent>
1

> <s_lp_Variant>
AV-unprocessed.smi:456-4

> <Gold.Version>
5.8.1

> <Gold.Id.Protein>
6NUR|6NUR_protein|mol2

> <Gold.PLP.Fitness>
48.9450

> <Gold.PLP.PLP>
-38.5189

> <Gold.PLP.part.hbond>
-3.4537

> <Gold.PLP.part.metal>
0.0000

> <Gold.PLP.part.buried>
-2.1003

> <Gold.PLP.part.nonpolar>
-33.7240

> <Gold.PLP.part.repulsive>
0.0075

> <Gold.PLP.ligand.clash>
0.0000

> <Gold.PLP.ligand.torsion>
0.7966

> <Gold.PLP.Chemscore.Hbond>
3.0000

> <Gold.PLP.Chemscore.CHOScore>
1.0000

> <Gold.PLP.Chemscore.Metal>
0.0000

> <Gold.Chemscore.Hbonds>
donor molecule, donor type, donor heavy atom, donor atom, acceptor molecule, acceptor atom, score
      L1  H     1    21       P1  7948  1.00
      L1  H     6    33       P1 10186  1.62
      L1  C     5    25       P1 10171  1.00

> <Gold.PLP.Chemscore.Internal.Correction>
0.0192

> <Gold.Rescore>
     Score         DG    S(hbond)    S(metal)    S(lipo)     H(rot)  DE(clash)    DE(int)     intcor
     13.93     -14.76       1.33        0.00      85.82       2.03       0.16       0.68       ----

> <Gold.Chemscore.Fitness>
13.9289

> <Gold.Chemscore.DG>
-14.7647

> <Gold.Chemscore.ZeroCoef>
-5.4800

> <Gold.Chemscore.Hbond>
1.3262

> <Gold.Chemscore.Metal>
0.0000

> <Gold.Chemscore.Lipo>
85.8187

> <Gold.Chemscore.Internal_Hbond>
0.0000

> <Gold.Chemscore.DEClash>
0.1577

> <Gold.Chemscore.DEInternal>
0.6781

> <Gold.Chemscore.Rot>
2.0256

> <Gold.Chemscore.Internal.Correction>
   9.000000E+99

> <Gold.Chemscore.Hbonds>
donor molecule, donor type, donor heavy atom, donor atom, acceptor molecule, acceptor atom, score
      L1  H     1    21       P1  7948  1.00
      L1  H     6    33       P1 10186  0.32

> <Gold.Chemscore.Hbond.Weighted>
-4.4294

> <Gold.Chemscore.Metal.Weighted>
-0.0000

> <Gold.Chemscore.Lipo.Weighted>
-10.0408

> <Gold.Chemscore.Internal_Hbond.Weighted>
0.0000

> <Gold.Chemscore.DEClash.Weighted>
0.1577

> <Gold.Chemscore.DEInternal.Weighted>
0.6781

> <Gold.Chemscore.Rot.Weighted>
5.1855

> <Gold.Chemscore.Internal.Correction.Weighted>
   9.000000E+99

> <Gold.Protein.RotatedTorsions>
[ 6907 6896 6895 6894 ] final -116.90 input  -60.11 | X-H torsion
[ 7974 7965 7964 7962 ] final  127.62 input  175.53 | X-H torsion
[ 8008 7997 7996 7995 ] final  -63.28 input   59.86 | X-H torsion
[ 10167 10162 10161 10158 ] final  -99.21 input  -65.29 | X-H torsion
[ 10718 10713 10712 10709 ] final  152.48 input   66.30 | X-H torsion
[ 10763 10752 10751 10750 ] final -175.32 input  -60.55 | X-H torsion
[ 11005 11000 10999 10996 ] final  -21.52 input  -57.11 | X-H torsion

> <Gold.Protein.ActiveResidues>
 VAL166  LYS551  ARG553  GLY616  TRP617  ASP618  TYR619  PRO620  LYS621  CYS622 
 ASP623  PHE694  ASN695  SER759  ASP760  ASP761  ALA762  ILE779  LEU786  VAL792 
 PHE793  MET794  SER795  GLU796  ALA797  LYS798  CYS799  TRP800  GLU811  SER814 

> <Gold.Protein.RotatedAtoms>
  150.8093  133.8451  159.3189 H   0  0  0  0  0  0  0  0  0  0  0  0  # atno 6907 bound_to 6896
  151.6241  135.1027  160.0117 H   0  0  0  0  0  0  0  0  0  0  0  0  # atno 6908 bound_to 6896
  152.4185  133.7037  159.6495 H   0  0  0  0  0  0  0  0  0  0  0  0  # atno 6909 bound_to 6896
  145.0485  139.3903  143.5066 H   0  0  0  0  0  0  0  0  0  0  0  0  # atno 7974 bound_to 7965
  154.4545  140.0978  156.6718 H   0  0  0  0  0  0  0  0  0  0  0  0  # atno 8008 bound_to 7997
  155.5180  140.3478  155.4383 H   0  0  0  0  0  0  0  0  0  0  0  0  # atno 8009 bound_to 7997
  156.0750  140.1359  156.9771 H   0  0  0  0  0  0  0  0  0  0  0  0  # atno 8010 bound_to 7997
  140.2648  143.3383  152.0591 H   0  0  0  0  0  0  0  0  0  0  0  0  # atno 10167 bound_to 10162
  157.2572  131.0791  151.1690 H   0  0  0  0  0  0  0  0  0  0  0  0  # atno 10718 bound_to 10713
  154.5857  135.2840  155.0687 H   0  0  0  0  0  0  0  0  0  0  0  0  # atno 10763 bound_to 10752
  154.2006  135.6425  153.5090 H   0  0  0  0  0  0  0  0  0  0  0  0  # atno 10764 bound_to 10752
  153.0103  135.5468  154.6526 H   0  0  0  0  0  0  0  0  0  0  0  0  # atno 10765 bound_to 10752
  140.8569  133.7816  156.0030 H   0  0  0  0  0  0  0  0  0  0  0  0  # atno 11005 bound_to 11000
  146.3516  140.0123  142.8666 LP  0  0  0  0  0  0  0  0  0  0  0  0  # atno 17320 bound_to 7965
  145.1557  140.9646  143.4407 LP  0  0  0  0  0  0  0  0  0  0  0  0  # atno 17321 bound_to 7965
  139.5006  144.6695  151.6276 LP  0  0  0  0  0  0  0  0  0  0  0  0  # atno 17342 bound_to 10162
  140.5937  143.9734  150.6341 LP  0  0  0  0  0  0  0  0  0  0  0  0  # atno 17343 bound_to 10162
  157.3215  130.6939  149.6272 LP  0  0  0  0  0  0  0  0  0  0  0  0  # atno 17370 bound_to 10713
  155.9664  130.4334  150.5005 LP  0  0  0  0  0  0  0  0  0  0  0  0  # atno 17371 bound_to 10713
  140.8727  134.2707  157.5183 LP  0  0  0  0  0  0  0  0  0  0  0  0  # atno 17394 bound_to 11000
  139.8705  134.9575  156.4271 LP  0  0  0  0  0  0  0  0  0  0  0  0  # atno 17395 bound_to 11000

$$$$
