AV-unprocessed.smi:3195|AV-procd|sdf|12219|dock3
  -GOLD-   2272018 53D 1   1.00000     0.00000
 Structure written by MMmdl.
 29 30  0  0  0  0  0  0  0  0  2 V2000
  149.3630  140.9049  154.5686 C   0  0  0  0  0  0  0  0  0  0  0  0
  150.3487  140.0201  155.3512 C   0  0  1  0  0  0  0  0  0  0  0  0
  150.5138  140.5450  156.7945 C   0  0  0  0  0  0  0  0  0  0  0  0
  149.5347  140.5543  157.5423 O   0  0  0  0  0  0  0  0  0  0  0  0
  151.7407  140.9742  157.1480 N   0  0  0  0  0  0  0  0  0  0  0  0
  152.1829  141.4880  158.3982 C   0  0  0  0  0  0  0  0  0  0  0  0
  151.7046  142.6407  158.9315 N   0  0  0  0  0  0  0  0  0  0  0  0
  152.1758  143.0641  160.1223 C   0  0  0  0  0  0  0  0  0  0  0  0
  153.1517  142.3679  160.8566 C   0  0  0  0  0  0  0  0  0  0  0  0
  153.6560  141.1715  160.3182 C   0  0  0  0  0  0  0  0  0  0  0  0
  153.1683  140.7215  159.0750 C   0  0  0  0  0  0  0  0  0  0  0  0
  153.6586  139.5551  158.5529 O   0  5  0  0  0  0  0  0  0  0  0  0
  149.9378  138.5283  155.3276 C   0  0  0  0  0  0  0  0  0  0  0  0
  151.0431  137.8393  154.5459 C   0  0  0  0  0  0  0  0  0  0  0  0
  152.2205  138.7824  154.7320 C   0  0  0  0  0  0  0  0  0  0  0  0
  151.6044  140.0593  154.6646 O   0  0  0  0  0  0  0  0  0  0  0  0
  148.3652  140.8797  155.0084 H   0  0  0  0  0  0  0  0  0  0  0  0
  149.2760  140.5720  153.5339 H   0  0  0  0  0  0  0  0  0  0  0  0
  149.6932  141.9442  154.5507 H   0  0  0  0  0  0  0  0  0  0  0  0
  152.4554  140.9203  156.4362 H   0  0  0  0  0  0  0  0  0  0  0  0
  151.7613  143.9866  160.5008 H   0  0  0  0  0  0  0  0  0  0  0  0
  153.5033  142.7410  161.8067 H   0  0  0  0  0  0  0  0  0  0  0  0
  154.4062  140.6082  160.8538 H   0  0  0  0  0  0  0  0  0  0  0  0
  149.8874  138.1040  156.3320 H   0  0  0  0  0  0  0  0  0  0  0  0
  148.9639  138.3647  154.8654 H   0  0  0  0  0  0  0  0  0  0  0  0
  151.2489  136.8271  154.8948 H   0  0  0  0  0  0  0  0  0  0  0  0
  150.7746  137.7888  153.4899 H   0  0  0  0  0  0  0  0  0  0  0  0
  152.6838  138.6430  155.7099 H   0  0  0  0  0  0  0  0  0  0  0  0
  152.9859  138.6629  153.9653 H   0  0  0  0  0  0  0  0  0  0  0  0
  1  2  1  0  0  0  0
  1 17  1  0  0  0  0
  1 18  1  0  0  0  0
  1 19  1  0  0  0  0
  2 16  1  0  0  0  0
  2  3  1  0  0  0  0
  2 13  1  0  0  0  0
  3  4  2  0  0  0  0
  3  5  1  0  0  0  0
  5 20  1  0  0  0  0
  5  6  1  0  0  0  0
  6 11  2  0  0  0  0
  6  7  1  0  0  0  0
  7  8  2  0  0  0  0
  8 21  1  0  0  0  0
  8  9  1  0  0  0  0
  9 22  1  0  0  0  0
  9 10  2  0  0  0  0
 10 11  1  0  0  0  0
 10 23  1  0  0  0  0
 11 12  1  0  0  0  0
 13 14  1  0  0  0  0
 13 24  1  0  0  0  0
 13 25  1  0  0  0  0
 14 15  1  0  0  0  0
 14 26  1  0  0  0  0
 14 27  1  0  0  0  0
 15 16  1  0  0  0  0
 15 28  1  0  0  0  0
 15 29  1  0  0  0  0
M  CHG  1  12  -1
M  END
> <s_m_source_file>
AV-unprocessed.smi

> <i_m_source_file_index>
3195

> <i_lp_mmshare_version>
43012

> <i_f3d_flags>
0

> <s_epik_input>
TzFbQ0gyXVtDSDJdW0NIMl1bQ0BAXTEoW0NIM10pQyg9TylbTkhdYzJuW2NIXVtjSF1bY0hdYzJbT0hd

> <s_epik_cmdline>
J2VwaWtfcHl0aG9uJywgJy1waCcsICc3LjAnLCAnLXRuJywgJzgnLCAnLW1hJywgJzIwMCcsICctbWV0YWxfYmluZGluZycsICctaW1hZScsICc8aW5maWxlLm1hZT4nLCAnLW9tYWUnLCAnPG91dGZpbGUubWFlPic=

> <r_epik_Ionization_Penalty>
4.16712

> <r_epik_Ionization_Penalty_Charging>
2.09898

> <r_epik_Ionization_Penalty_Neutral>
2.06814

> <r_epik_State_Penalty>
2.6848

> <r_epik_Charging_Adjusted_Penalty>
4.78378

> <i_epik_Tot_Q>
-1

> <i_epik_Tot_abs_Q>
1

> <r_epik_Metal_State_Penalty>
0.595229

> <b_epik_Metal_Only>
0

> <s_lp_Force_Field>
OPLS_2005

> <r_lp_Energy>
19.5688

> <b_lp_Chiralities_Consistent>
1

> <s_lp_Variant>
AV-unprocessed.smi:3195-7

> <Gold.Version>
5.8.1

> <Gold.Id.Protein>
6NUR|6NUR_protein|mol2

> <Gold.PLP.Fitness>
40.1343

> <Gold.PLP.PLP>
-32.3460

> <Gold.PLP.part.hbond>
-1.7934

> <Gold.PLP.part.metal>
0.0000

> <Gold.PLP.part.buried>
-3.3766

> <Gold.PLP.part.nonpolar>
-26.7106

> <Gold.PLP.part.repulsive>
0.1873

> <Gold.PLP.ligand.clash>
0.0000

> <Gold.PLP.ligand.torsion>
0.6229

> <Gold.PLP.Chemscore.Hbond>
3.0000

> <Gold.PLP.Chemscore.CHOScore>
0.0000

> <Gold.PLP.Chemscore.Metal>
0.0000

> <Gold.Chemscore.Hbonds>
donor molecule, donor type, donor heavy atom, donor atom, acceptor molecule, acceptor atom, score
      P1  H  7989  7998       L1    16  0.71
      P1  H  7997  8010       L1    12  2.00

> <Gold.PLP.Chemscore.Internal.Correction>
0.0341

> <Gold.Rescore>
     Score         DG    S(hbond)    S(metal)    S(lipo)     H(rot)  DE(clash)    DE(int)     intcor
     17.26     -18.02       1.91        0.00      74.51       1.00       0.00       0.75       ----

> <Gold.Chemscore.Fitness>
17.2648

> <Gold.Chemscore.DG>
-18.0241

> <Gold.Chemscore.ZeroCoef>
-5.4800

> <Gold.Chemscore.Hbond>
1.9122

> <Gold.Chemscore.Metal>
0.0000

> <Gold.Chemscore.Lipo>
74.5066

> <Gold.Chemscore.Internal_Hbond>
0.0000

> <Gold.Chemscore.DEClash>
0.0048

> <Gold.Chemscore.DEInternal>
0.7545

> <Gold.Chemscore.Rot>
1.0000

> <Gold.Chemscore.Internal.Correction>
   9.000000E+99

> <Gold.Chemscore.Hbonds>
donor molecule, donor type, donor heavy atom, donor atom, acceptor molecule, acceptor atom, score
      P1  H  7989  7998       L1    16  0.64
      P1  H  7997  8010       L1    12  0.55

> <Gold.Chemscore.Hbond.Weighted>
-6.3868

> <Gold.Chemscore.Metal.Weighted>
-0.0000

> <Gold.Chemscore.Lipo.Weighted>
-8.7173

> <Gold.Chemscore.Internal_Hbond.Weighted>
0.0000

> <Gold.Chemscore.DEClash.Weighted>
0.0048

> <Gold.Chemscore.DEInternal.Weighted>
0.7545

> <Gold.Chemscore.Rot.Weighted>
2.5600

> <Gold.Chemscore.Internal.Correction.Weighted>
   9.000000E+99

> <Gold.Protein.RotatedTorsions>
[ 6907 6896 6895 6894 ] final   54.99 input  -60.11 | X-H torsion
[ 7974 7965 7964 7962 ] final   58.63 input  175.53 | X-H torsion
[ 8008 7997 7996 7995 ] final   31.07 input   59.86 | X-H torsion
[ 10167 10162 10161 10158 ] final -121.48 input  -65.29 | X-H torsion
[ 10718 10713 10712 10709 ] final -127.94 input   66.30 | X-H torsion
[ 10763 10752 10751 10750 ] final  157.89 input  -60.55 | X-H torsion
[ 11005 11000 10999 10996 ] final   89.87 input  -57.11 | X-H torsion

> <Gold.Protein.ActiveResidues>
 VAL166  LYS551  ARG553  GLY616  TRP617  ASP618  TYR619  PRO620  LYS621  CYS622 
 ASP623  PHE694  ASN695  SER759  ASP760  ASP761  ALA762  ILE779  LEU786  VAL792 
 PHE793  MET794  SER795  GLU796  ALA797  LYS798  CYS799  TRP800  GLU811  SER814 

> <Gold.Protein.RotatedAtoms>
  152.3494  134.7026  160.0240 H   0  0  0  0  0  0  0  0  0  0  0  0  # atno 6907 bound_to 6896
  151.7385  133.3315  159.3367 H   0  0  0  0  0  0  0  0  0  0  0  0  # atno 6908 bound_to 6896
  150.7530  134.6232  159.6192 H   0  0  0  0  0  0  0  0  0  0  0  0  # atno 6909 bound_to 6896
  145.9161  139.3692  143.0506 H   0  0  0  0  0  0  0  0  0  0  0  0  # atno 7974 bound_to 7965
  155.1006  140.3229  155.4548 H   0  0  0  0  0  0  0  0  0  0  0  0  # atno 8008 bound_to 7997
  156.2718  140.2061  156.6079 H   0  0  0  0  0  0  0  0  0  0  0  0  # atno 8009 bound_to 7997
  154.6832  140.0524  157.0275 H   0  0  0  0  0  0  0  0  0  0  0  0  # atno 8010 bound_to 7997
  140.0246  143.5309  152.2205 H   0  0  0  0  0  0  0  0  0  0  0  0  # atno 10167 bound_to 10162
  156.1904  130.6791  151.0417 H   0  0  0  0  0  0  0  0  0  0  0  0  # atno 10718 bound_to 10713
  154.2073  135.2787  155.2970 H   0  0  0  0  0  0  0  0  0  0  0  0  # atno 10763 bound_to 10752
  154.5806  135.5590  153.7185 H   0  0  0  0  0  0  0  0  0  0  0  0  # atno 10764 bound_to 10752
  153.0073  135.6344  154.2212 H   0  0  0  0  0  0  0  0  0  0  0  0  # atno 10765 bound_to 10752
  139.8867  134.8579  156.3204 H   0  0  0  0  0  0  0  0  0  0  0  0  # atno 11005 bound_to 11000
  145.8610  140.9475  143.0700 LP  0  0  0  0  0  0  0  0  0  0  0  0  # atno 17320 bound_to 7965
  144.6748  140.0530  143.7478 LP  0  0  0  0  0  0  0  0  0  0  0  0  # atno 17321 bound_to 7965
  139.6117  144.7610  151.2938 LP  0  0  0  0  0  0  0  0  0  0  0  0  # atno 17342 bound_to 10162
  140.7328  143.6813  150.7998 LP  0  0  0  0  0  0  0  0  0  0  0  0  # atno 17343 bound_to 10162
  157.6925  131.0805  150.7064 LP  0  0  0  0  0  0  0  0  0  0  0  0  # atno 17370 bound_to 10713
  156.7121  130.4655  149.5544 LP  0  0  0  0  0  0  0  0  0  0  0  0  # atno 17371 bound_to 10713
  140.9791  133.7279  156.0645 LP  0  0  0  0  0  0  0  0  0  0  0  0  # atno 17394 bound_to 11000
  140.7773  134.3765  157.5495 LP  0  0  0  0  0  0  0  0  0  0  0  0  # atno 17395 bound_to 11000

$$$$
