AV-unprocessed.smi:828|AV-procd|sdf|3863|dock7
  -GOLD-   22720 1313D 1   1.00000     0.00000
 Structure written by MMmdl.
 34 35  0  0  0  0  0  0  0  0  3 V2000
  152.4168  140.1897  158.4022 C   0  0  0  0  0  0  0  0  0  0  0  0
  152.3024  139.3058  157.2079 C   0  0  0  0  0  0  0  0  0  0  0  0
  152.9583  139.5429  156.0693 N   0  0  0  0  0  0  0  0  0  0  0  0
  152.6949  138.5815  155.1044 N   0  0  0  0  0  0  0  0  0  0  0  0
  151.8401  137.6374  155.5221 C   0  0  0  0  0  0  0  0  0  0  0  0
  151.4593  136.6142  154.7393 N   0  5  0  0  0  0  0  0  0  0  0  0
  150.7460  135.5926  155.2620 C   0  0  0  0  0  0  0  0  0  0  0  0
  150.8045  135.1748  156.4205 O   0  0  0  0  0  0  0  0  0  0  0  0
  149.9228  135.0089  154.3806 N   0  0  0  0  0  0  0  0  0  0  0  0
  149.0726  133.8491  154.6351 C   0  0  0  0  0  0  0  0  0  0  0  0
  148.4088  133.3082  153.3472 C   0  0  1  0  0  0  0  0  0  0  0  0
  147.6641  131.9840  153.5104 C   0  0  0  0  0  0  0  0  0  0  0  0
  146.7577  131.9189  152.2773 C   0  0  0  0  0  0  0  0  0  0  0  0
  146.7109  133.3517  151.7183 C   0  0  0  0  0  0  0  0  0  0  0  0
  147.4425  134.2123  152.6751 N   0  3  1  0  0  0  0  0  0  0  0  0
  146.5213  134.9521  153.5737 C   0  0  0  0  0  0  0  0  0  0  0  0
  151.3005  137.8641  157.1858 S   0  0  0  0  0  0  0  0  0  0  0  0
  152.3144  141.2347  158.1086 H   0  0  0  0  0  0  0  0  0  0  0  0
  153.3882  140.0503  158.8766 H   0  0  0  0  0  0  0  0  0  0  0  0
  151.6362  139.9529  159.1250 H   0  0  0  0  0  0  0  0  0  0  0  0
  149.8951  135.3997  153.4500 H   0  0  0  0  0  0  0  0  0  0  0  0
  149.6611  133.0633  155.1112 H   0  0  0  0  0  0  0  0  0  0  0  0
  148.3149  134.1386  155.3635 H   0  0  0  0  0  0  0  0  0  0  0  0
  149.1988  133.1330  152.6148 H   0  0  0  0  0  0  0  0  0  0  0  0
  148.3397  131.1309  153.5803 H   0  0  0  0  0  0  0  0  0  0  0  0
  147.0561  132.0018  154.4158 H   0  0  0  0  0  0  0  0  0  0  0  0
  147.1643  131.2360  151.5305 H   0  0  0  0  0  0  0  0  0  0  0  0
  145.7637  131.5590  152.5446 H   0  0  0  0  0  0  0  0  0  0  0  0
  147.2376  133.3864  150.7636 H   0  0  0  0  0  0  0  0  0  0  0  0
  145.6911  133.6925  151.5337 H   0  0  0  0  0  0  0  0  0  0  0  0
  145.9455  134.2710  154.2010 H   0  0  0  0  0  0  0  0  0  0  0  0
  145.8196  135.5470  152.9882 H   0  0  0  0  0  0  0  0  0  0  0  0
  147.0567  135.6462  154.2203 H   0  0  0  0  0  0  0  0  0  0  0  0
  147.9643  134.9064  152.1584 H   0  0  0  0  0  0  0  0  0  0  0  0
  1  2  1  0  0  0  0
  1 18  1  0  0  0  0
  1 19  1  0  0  0  0
  1 20  1  0  0  0  0
  2 17  1  0  0  0  0
  2  3  2  0  0  0  0
  3  4  1  0  0  0  0
  4  5  2  0  0  0  0
  5  6  1  0  0  0  0
  5 17  1  0  0  0  0
  6  7  1  0  0  0  0
  7  8  2  0  0  0  0
  7  9  1  0  0  0  0
  9 10  1  0  0  0  0
  9 21  1  0  0  0  0
 10 11  1  0  0  0  0
 10 22  1  0  0  0  0
 10 23  1  0  0  0  0
 11 15  1  0  0  0  0
 11 12  1  0  0  0  0
 11 24  1  0  0  0  0
 12 13  1  0  0  0  0
 12 25  1  0  0  0  0
 12 26  1  0  0  0  0
 13 14  1  0  0  0  0
 13 27  1  0  0  0  0
 13 28  1  0  0  0  0
 14 15  1  0  0  0  0
 14 29  1  0  0  0  0
 14 30  1  0  0  0  0
 15 16  1  0  0  0  0
 15 34  1  0  0  0  0
 16 31  1  0  0  0  0
 16 32  1  0  0  0  0
 16 33  1  0  0  0  0
M  CHG  1   6  -1
M  CHG  1  15   1
M  END
> <s_m_source_file>
AV-unprocessed.smi

> <i_m_source_file_index>
828

> <i_lp_mmshare_version>
43012

> <i_f3d_flags>
0

> <s_epik_input>
W0NIM11jMW5uYyhzMSlbTkhdQyg9TylbTkhdW0NIMl1bQ0BASF0yW0NIMl1bQ0gyXVtDSDJdTjJbQ0gzXQ==

> <s_epik_cmdline>
J2VwaWtfcHl0aG9uJywgJy1waCcsICc3LjAnLCAnLXRuJywgJzgnLCAnLW1hJywgJzIwMCcsICctbWV0YWxfYmluZGluZycsICctaW1hZScsICc8aW5maWxlLm1hZT4nLCAnLW9tYWUnLCAnPG91dGZpbGUubWFlPic=

> <r_lp_tautomer_probability>
1

> <r_epik_Ionization_Penalty>
3.94379

> <r_epik_Ionization_Penalty_Charging>
3.83377

> <r_epik_Ionization_Penalty_Neutral>
0.110023

> <r_epik_State_Penalty>
3.83036

> <r_epik_Charging_Adjusted_Penalty>
7.66413

> <i_epik_Tot_Q>
0

> <i_epik_Tot_abs_Q>
2

> <r_epik_Metal_State_Penalty>
0.575095

> <b_epik_Metal_Only>
1

> <s_lp_Force_Field>
OPLS_2005

> <r_lp_Energy>
27.8836

> <b_lp_Chiralities_Consistent>
1

> <s_lp_Variant>
AV-unprocessed.smi:828-6

> <Gold.Version>
5.8.1

> <Gold.Id.Protein>
6NUR|6NUR_protein|mol2

> <Gold.PLP.Fitness>
39.6505

> <Gold.PLP.PLP>
-23.9682

> <Gold.PLP.part.hbond>
-4.0418

> <Gold.PLP.part.metal>
0.0000

> <Gold.PLP.part.buried>
-2.8155

> <Gold.PLP.part.nonpolar>
-16.4795

> <Gold.PLP.part.repulsive>
0.2275

> <Gold.PLP.ligand.clash>
0.0000

> <Gold.PLP.ligand.torsion>
0.2616

> <Gold.PLP.Chemscore.Hbond>
5.4000

> <Gold.PLP.Chemscore.CHOScore>
0.0000

> <Gold.PLP.Chemscore.Metal>
0.0000

> <Gold.Chemscore.Hbonds>
donor molecule, donor type, donor heavy atom, donor atom, acceptor molecule, acceptor atom, score
      L1  H     9    21       P1  7948  0.30
      L1  H    15    34       P1  7948  2.00
      P1  H  7997  8010       L1     3  0.99
      P1  H 10752 10765       L1     6  1.90

> <Gold.PLP.Chemscore.Internal.Correction>
0.0056

> <Gold.Rescore>
     Score         DG    S(hbond)    S(metal)    S(lipo)     H(rot)  DE(clash)    DE(int)     intcor
     15.39     -15.98       2.79        0.00      38.93       1.31       0.00       0.59       ----

> <Gold.Chemscore.Fitness>
15.3930

> <Gold.Chemscore.DG>
-15.9794

> <Gold.Chemscore.ZeroCoef>
-5.4800

> <Gold.Chemscore.Hbond>
2.7875

> <Gold.Chemscore.Metal>
0.0000

> <Gold.Chemscore.Lipo>
38.9339

> <Gold.Chemscore.Internal_Hbond>
0.0000

> <Gold.Chemscore.DEClash>
0.0000

> <Gold.Chemscore.DEInternal>
0.5864

> <Gold.Chemscore.Rot>
1.3149

> <Gold.Chemscore.Internal.Correction>
   9.000000E+99

> <Gold.Chemscore.Hbonds>
donor molecule, donor type, donor heavy atom, donor atom, acceptor molecule, acceptor atom, score
      L1  H    15    34       P1  7948  0.60
      P1  H  7997  8010       L1     3  0.86
      P1  H 10752 10765       L1     6  0.15

> <Gold.Chemscore.Hbond.Weighted>
-9.3103

> <Gold.Chemscore.Metal.Weighted>
-0.0000

> <Gold.Chemscore.Lipo.Weighted>
-4.5553

> <Gold.Chemscore.Internal_Hbond.Weighted>
0.0000

> <Gold.Chemscore.DEClash.Weighted>
0.0000

> <Gold.Chemscore.DEInternal.Weighted>
0.5864

> <Gold.Chemscore.Rot.Weighted>
3.3662

> <Gold.Chemscore.Internal.Correction.Weighted>
   9.000000E+99

> <Gold.Protein.RotatedTorsions>
[ 6907 6896 6895 6894 ] final  171.09 input  -60.11 | X-H torsion
[ 7974 7965 7964 7962 ] final -136.72 input  175.53 | X-H torsion
[ 8008 7997 7996 7995 ] final   88.83 input   59.86 | X-H torsion
[ 10167 10162 10161 10158 ] final  -74.92 input  -65.29 | X-H torsion
[ 10718 10713 10712 10709 ] final -152.77 input   66.30 | X-H torsion
[ 10763 10752 10751 10750 ] final  157.21 input  -60.55 | X-H torsion
[ 11005 11000 10999 10996 ] final  169.17 input  -57.11 | X-H torsion

> <Gold.Protein.ActiveResidues>
 VAL166  LYS551  ARG553  GLY616  TRP617  ASP618  TYR619  PRO620  LYS621  CYS622 
 ASP623  PHE694  ASN695  SER759  ASP760  ASP761  ALA762  ILE779  LEU786  VAL792 
 PHE793  MET794  SER795  GLU796  ALA797  LYS798  CYS799  TRP800  GLU811  SER814 

> <Gold.Protein.RotatedAtoms>
  151.8058  133.3375  159.3540 H   0  0  0  0  0  0  0  0  0  0  0  0  # atno 6907 bound_to 6896
  150.7343  134.5710  159.5900 H   0  0  0  0  0  0  0  0  0  0  0  0  # atno 6908 bound_to 6896
  152.3110  134.7498  160.0387 H   0  0  0  0  0  0  0  0  0  0  0  0  # atno 6909 bound_to 6896
  144.8903  140.6632  143.5149 H   0  0  0  0  0  0  0  0  0  0  0  0  # atno 7974 bound_to 7965
  155.9926  140.3367  155.6767 H   0  0  0  0  0  0  0  0  0  0  0  0  # atno 8008 bound_to 7997
  155.6400  140.0694  157.2639 H   0  0  0  0  0  0  0  0  0  0  0  0  # atno 8009 bound_to 7997
  154.4224  140.1744  156.1550 H   0  0  0  0  0  0  0  0  0  0  0  0  # atno 8010 bound_to 7997
  140.4986  143.2365  151.7789 H   0  0  0  0  0  0  0  0  0  0  0  0  # atno 10167 bound_to 10162
  156.4769  130.8285  151.2513 H   0  0  0  0  0  0  0  0  0  0  0  0  # atno 10718 bound_to 10713
  154.1965  135.2792  155.3005 H   0  0  0  0  0  0  0  0  0  0  0  0  # atno 10763 bound_to 10752
  154.5887  135.5566  153.7260 H   0  0  0  0  0  0  0  0  0  0  0  0  # atno 10764 bound_to 10752
  153.0098  135.6363  154.2104 H   0  0  0  0  0  0  0  0  0  0  0  0  # atno 10765 bound_to 10752
  140.2949  134.7643  157.3869 H   0  0  0  0  0  0  0  0  0  0  0  0  # atno 11005 bound_to 11000
  145.3795  139.1640  143.4288 LP  0  0  0  0  0  0  0  0  0  0  0  0  # atno 17320 bound_to 7965
  146.3049  140.3875  142.8690 LP  0  0  0  0  0  0  0  0  0  0  0  0  # atno 17321 bound_to 7965
  139.4867  144.4552  151.9607 LP  0  0  0  0  0  0  0  0  0  0  0  0  # atno 17342 bound_to 10162
  140.3640  144.2937  150.5929 LP  0  0  0  0  0  0  0  0  0  0  0  0  # atno 17343 bound_to 10162
  157.7487  131.0058  150.3127 LP  0  0  0  0  0  0  0  0  0  0  0  0  # atno 17370 bound_to 10713
  156.3561  130.3839  149.7289 LP  0  0  0  0  0  0  0  0  0  0  0  0  # atno 17371 bound_to 10713
  140.1161  134.5281  155.8223 LP  0  0  0  0  0  0  0  0  0  0  0  0  # atno 17394 bound_to 11000
  141.2139  133.6740  156.6780 LP  0  0  0  0  0  0  0  0  0  0  0  0  # atno 17395 bound_to 11000

$$$$
