AV-unprocessed.smi:43|AV-procd|sdf|394|dock1
  -GOLD-   2262016253D 1   1.00000     0.00000
 Structure written by MMmdl.
 25 26  0  0  0  0  0  0  0  0  2 V2000
  152.2602  137.4214  158.3376 C   0  0  0  0  0  0  0  0  0  0  0  0
  150.8228  137.4787  158.5333 N   0  0  0  0  0  0  0  0  0  0  0  0
  150.1592  136.3552  158.9060 N   0  0  0  0  0  0  0  0  0  0  0  0
  148.9023  136.6718  159.0100 N   0  0  0  0  0  0  0  0  0  0  0  0
  148.6957  138.0025  158.7122 N   0  0  0  0  0  0  0  0  0  0  0  0
  149.9090  138.4626  158.4270 C   0  0  0  0  0  0  0  0  0  0  0  0
  150.2033  139.7823  158.0544 N   0  0  0  0  0  0  0  0  0  0  0  0
  149.3291  140.9582  158.0535 C   0  0  0  0  0  0  0  0  0  0  0  0
  150.0872  142.1248  157.4193 C   0  0  1  0  0  0  0  0  0  0  0  0
  149.6920  143.3760  157.9421 O   0  0  0  0  0  0  0  0  0  0  0  0
  151.5286  141.7842  157.7403 C   0  0  0  0  0  0  0  0  0  0  0  0
  151.5298  140.2552  157.6378 C   0  0  2  0  0  0  0  0  0  0  0  0
  151.8963  139.7641  156.2257 C   0  0  0  0  0  0  0  0  0  0  0  0
  151.1714  140.1606  155.2876 O   0  0  0  0  0  0  0  0  0  0  0  0
  152.8825  139.0029  156.1042 O   0  5  0  0  0  0  0  0  0  0  0  0
  149.9380  142.1252  156.3387 H   0  0  0  0  0  0  0  0  0  0  0  0
  152.2744  139.8590  158.3297 H   0  0  0  0  0  0  0  0  0  0  0  0
  152.7593  138.0434  159.0802 H   0  0  0  0  0  0  0  0  0  0  0  0
  152.5151  137.7640  157.3354 H   0  0  0  0  0  0  0  0  0  0  0  0
  152.6193  136.3976  158.4504 H   0  0  0  0  0  0  0  0  0  0  0  0
  148.4077  140.7733  157.5033 H   0  0  0  0  0  0  0  0  0  0  0  0
  149.0695  141.1867  159.0879 H   0  0  0  0  0  0  0  0  0  0  0  0
  149.1551  143.8119  157.2986 H   0  0  0  0  0  0  0  0  0  0  0  0
  152.2389  142.2728  157.0716 H   0  0  0  0  0  0  0  0  0  0  0  0
  151.7737  142.0803  158.7613 H   0  0  0  0  0  0  0  0  0  0  0  0
  1  2  1  0  0  0  0
  1 18  1  0  0  0  0
  1 19  1  0  0  0  0
  1 20  1  0  0  0  0
  2  6  1  0  0  0  0
  2  3  1  0  0  0  0
  3  4  2  0  0  0  0
  4  5  1  0  0  0  0
  5  6  2  0  0  0  0
  6  7  1  0  0  0  0
  7 12  1  0  0  0  0
  7  8  1  0  0  0  0
  8  9  1  0  0  0  0
  8 21  1  0  0  0  0
  8 22  1  0  0  0  0
  9 16  1  0  0  0  0
  9 10  1  0  0  0  0
  9 11  1  0  0  0  0
 10 23  1  0  0  0  0
 11 12  1  0  0  0  0
 11 24  1  0  0  0  0
 11 25  1  0  0  0  0
 12 17  1  0  0  0  0
 12 13  1  0  0  0  0
 13 14  2  0  0  0  0
 13 15  1  0  0  0  0
M  CHG  1  15  -1
M  END
> <s_m_source_file>
AV-unprocessed.smi

> <i_m_source_file_index>
43

> <i_lp_mmshare_version>
43012

> <i_f3d_flags>
0

> <s_epik_input>
W0NIM11uMW5ubmMxTjJbQ0gyXVtDQEhdKFtPSF0pW0NIMl1bQ0BIXTJDKD1PKVtPSF0=

> <s_epik_cmdline>
J2VwaWtfcHl0aG9uJywgJy1waCcsICc3LjAnLCAnLXRuJywgJzgnLCAnLW1hJywgJzIwMCcsICctbWV0YWxfYmluZGluZycsICctaW1hZScsICc8aW5maWxlLm1hZT4nLCAnLW9tYWUnLCAnPG91dGZpbGUubWFlPic=

> <r_lp_tautomer_probability>
1

> <r_epik_Ionization_Penalty>
0.000193127

> <r_epik_Ionization_Penalty_Charging>
0.000192933

> <r_epik_Ionization_Penalty_Neutral>
1.93728e-07

> <r_epik_State_Penalty>
-0

> <r_epik_Charging_Adjusted_Penalty>
0.000192933

> <i_epik_Tot_Q>
-1

> <i_epik_Tot_abs_Q>
1

> <r_epik_Metal_State_Penalty>
-0

> <b_epik_Metal_Only>
0

> <s_lp_Force_Field>
OPLS_2005

> <r_lp_Energy>
20.0951

> <b_lp_Chiralities_Consistent>
1

> <s_lp_Variant>
AV-unprocessed.smi:43-4

> <Gold.Version>
5.8.1

> <Gold.Id.Protein>
6NUR|6NUR_protein|mol2

> <Gold.PLP.Fitness>
35.9113

> <Gold.PLP.PLP>
-20.9759

> <Gold.PLP.part.hbond>
-5.4489

> <Gold.PLP.part.metal>
0.0000

> <Gold.PLP.part.buried>
-4.9038

> <Gold.PLP.part.nonpolar>
-10.7412

> <Gold.PLP.part.repulsive>
0.0294

> <Gold.PLP.ligand.clash>
0.0000

> <Gold.PLP.ligand.torsion>
0.0343

> <Gold.PLP.Chemscore.Hbond>
5.0000

> <Gold.PLP.Chemscore.CHOScore>
0.0000

> <Gold.PLP.Chemscore.Metal>
0.0000

> <Gold.Chemscore.Hbonds>
donor molecule, donor type, donor heavy atom, donor atom, acceptor molecule, acceptor atom, score
      L1  H    10    23       P1  8028  1.00
      P1  H  6896  6909       L1     3  1.00
      P1  H  7989  7998       L1    14  1.00
      P1  H  7997  8008       L1    15  2.00

> <Gold.PLP.Chemscore.Internal.Correction>
0.0041

> <Gold.Rescore>
     Score         DG    S(hbond)    S(metal)    S(lipo)     H(rot)  DE(clash)    DE(int)     intcor
     14.35     -15.45       3.34        0.00      26.76       1.69       0.03       1.07       ----

> <Gold.Chemscore.Fitness>
14.3546

> <Gold.Chemscore.DG>
-15.4536

> <Gold.Chemscore.ZeroCoef>
-5.4800

> <Gold.Chemscore.Hbond>
3.3431

> <Gold.Chemscore.Metal>
0.0000

> <Gold.Chemscore.Lipo>
26.7583

> <Gold.Chemscore.Internal_Hbond>
0.0000

> <Gold.Chemscore.DEClash>
0.0255

> <Gold.Chemscore.DEInternal>
1.0735

> <Gold.Chemscore.Rot>
1.6887

> <Gold.Chemscore.Internal.Correction>
   9.000000E+99

> <Gold.Chemscore.Hbonds>
donor molecule, donor type, donor heavy atom, donor atom, acceptor molecule, acceptor atom, score
      L1  H    10    23       P1  8028  0.29
      P1  H  6896  6909       L1     3  0.97
      P1  H  7989  7998       L1    14  0.96
      P1  H  7997  8008       L1    15  0.50

> <Gold.Chemscore.Hbond.Weighted>
-11.1660

> <Gold.Chemscore.Metal.Weighted>
-0.0000

> <Gold.Chemscore.Lipo.Weighted>
-3.1307

> <Gold.Chemscore.Internal_Hbond.Weighted>
0.0000

> <Gold.Chemscore.DEClash.Weighted>
0.0255

> <Gold.Chemscore.DEInternal.Weighted>
1.0735

> <Gold.Chemscore.Rot.Weighted>
4.3232

> <Gold.Chemscore.Internal.Correction.Weighted>
   9.000000E+99

> <Gold.Protein.RotatedTorsions>
[ 6907 6896 6895 6894 ] final   66.27 input  -60.11 | X-H torsion
[ 7974 7965 7964 7962 ] final  119.77 input  175.53 | X-H torsion
[ 8008 7997 7996 7995 ] final  -32.90 input   59.86 | X-H torsion
[ 10167 10162 10161 10158 ] final  133.97 input  -65.29 | X-H torsion
[ 10718 10713 10712 10709 ] final  179.16 input   66.30 | X-H torsion
[ 10763 10752 10751 10750 ] final  -92.85 input  -60.55 | X-H torsion
[ 11005 11000 10999 10996 ] final  162.76 input  -57.11 | X-H torsion

> <Gold.Protein.ActiveResidues>
 VAL166  LYS551  ARG553  GLY616  TRP617  ASP618  TYR619  PRO620  LYS621  CYS622 
 ASP623  PHE694  ASN695  SER759  ASP760  ASP761  ALA762  ILE779  LEU786  VAL792 
 PHE793  MET794  SER795  GLU796  ALA797  LYS798  CYS799  TRP800  GLU811  SER814 

> <Gold.Protein.RotatedAtoms>
  152.4469  134.5476  159.9857 H   0  0  0  0  0  0  0  0  0  0  0  0  # atno 6907 bound_to 6896
  151.5559  133.3404  159.2970 H   0  0  0  0  0  0  0  0  0  0  0  0  # atno 6908 bound_to 6896
  150.8387  134.7703  159.6978 H   0  0  0  0  0  0  0  0  0  0  0  0  # atno 6909 bound_to 6896
  145.1391  139.3279  143.4625 H   0  0  0  0  0  0  0  0  0  0  0  0  # atno 7974 bound_to 7965
  154.4165  140.1725  156.1801 H   0  0  0  0  0  0  0  0  0  0  0  0  # atno 8008 bound_to 7997
  155.9689  140.3387  155.6534 H   0  0  0  0  0  0  0  0  0  0  0  0  # atno 8009 bound_to 7997
  155.6651  140.0705  157.2531 H   0  0  0  0  0  0  0  0  0  0  0  0  # atno 8010 bound_to 7997
  139.5275  144.6590  151.5072 H   0  0  0  0  0  0  0  0  0  0  0  0  # atno 10167 bound_to 10162
  156.8798  130.9812  151.3063 H   0  0  0  0  0  0  0  0  0  0  0  0  # atno 10718 bound_to 10713
  154.6902  135.5216  153.8381 H   0  0  0  0  0  0  0  0  0  0  0  0  # atno 10763 bound_to 10752
  153.0626  135.6574  154.0436 H   0  0  0  0  0  0  0  0  0  0  0  0  # atno 10764 bound_to 10752
  154.0311  135.2985  155.3348 H   0  0  0  0  0  0  0  0  0  0  0  0  # atno 10765 bound_to 10752
  140.2290  134.8139  157.3297 H   0  0  0  0  0  0  0  0  0  0  0  0  # atno 11005 bound_to 11000
  146.3507  140.1421  142.8594 LP  0  0  0  0  0  0  0  0  0  0  0  0  # atno 17320 bound_to 7965
  145.0552  140.9047  143.4972 LP  0  0  0  0  0  0  0  0  0  0  0  0  # atno 17321 bound_to 7965
  140.6429  143.8852  150.6709 LP  0  0  0  0  0  0  0  0  0  0  0  0  # atno 17342 bound_to 10162
  140.2193  143.3822  152.1656 LP  0  0  0  0  0  0  0  0  0  0  0  0  # atno 17343 bound_to 10162
  157.6147  130.8609  149.9009 LP  0  0  0  0  0  0  0  0  0  0  0  0  # atno 17370 bound_to 10713
  156.0683  130.3689  150.0830 LP  0  0  0  0  0  0  0  0  0  0  0  0  # atno 17371 bound_to 10713
  140.1770  134.4536  155.7795 LP  0  0  0  0  0  0  0  0  0  0  0  0  # atno 17394 bound_to 11000
  141.2219  133.6967  156.7805 LP  0  0  0  0  0  0  0  0  0  0  0  0  # atno 17395 bound_to 11000

$$$$
