AV-unprocessed.smi:256|AV-procd|sdf|1958|dock9
  -GOLD-   2262021103D 1   1.00000     0.00000
 Structure written by MMmdl.
 62 65  0  0  0  0  0  0  0  0  2 V2000
  150.7039  138.6375  154.3918 C   0  0  0  0  0  0  0  0  0  0  0  0
  150.4400  139.6282  155.5352 C   0  0  0  0  0  0  0  0  0  0  0  0
  149.8135  140.9758  155.0839 C   0  0  1  0  0  0  0  0  0  0  0  0
  148.5000  140.8173  154.2785 C   0  0  0  0  0  0  0  0  0  0  0  0
  147.3713  140.4580  155.1351 N   0  0  0  0  0  0  0  0  0  0  0  0
  147.1300  139.1309  155.3134 C   0  0  0  0  0  0  0  0  0  0  0  0
  147.6226  138.4991  156.4127 N   0  0  0  0  0  0  0  0  0  0  0  0
  147.4341  137.1881  156.5841 C   0  0  0  0  0  0  0  0  0  0  0  0
  146.7911  136.3291  155.7928 N   0  0  0  0  0  0  0  0  0  0  0  0
  146.2755  136.9558  154.6976 C   0  0  0  0  0  0  0  0  0  0  0  0
  146.3883  138.3411  154.3879 C   0  0  0  0  0  0  0  0  0  0  0  0
  145.7159  138.6123  153.2018 N   0  0  0  0  0  0  0  0  0  0  0  0
  145.2502  137.4535  152.8239 C   0  0  0  0  0  0  0  0  0  0  0  0
  145.5533  136.4002  153.6560 N   0  0  0  0  0  0  0  0  0  0  0  0
  145.1746  135.0070  153.4721 C   0  0  0  0  0  0  0  0  0  0  0  0
  146.0060  134.2651  152.3896 C   0  0  0  0  0  0  0  0  0  0  0  0
  147.3461  134.2124  152.8434 O   0  0  0  0  0  0  0  0  0  0  0  0
  145.5487  132.8134  152.1269 C   0  0  0  0  0  0  0  0  0  0  0  0
  144.2293  132.7763  151.3365 C   0  0  0  0  0  0  0  0  0  0  0  0
  144.3784  133.4883  150.1131 O   0  0  0  0  0  0  0  0  0  0  0  0
  144.6698  134.8686  150.3040 C   0  0  0  0  0  0  0  0  0  0  0  0
  146.0079  135.0266  151.0491 C   0  0  0  0  0  0  0  0  0  0  0  0
  147.1560  141.3833  156.2452 C   0  0  0  0  0  0  0  0  0  0  0  0
  148.4386  141.5681  157.0762 C   0  0  0  0  0  0  0  0  0  0  0  0
  149.5931  141.9349  156.2138 N   0  3  1  0  0  0  0  0  0  0  0  0
  150.7929  142.3074  157.0123 C   0  0  0  0  0  0  0  0  0  0  0  0
  150.4793  143.2467  158.1937 C   0  0  0  0  0  0  0  0  0  0  0  0
  151.6494  143.6077  158.9162 O   0  0  0  0  0  0  0  0  0  0  0  0
  152.3246  144.7468  158.4058 C   0  0  0  0  0  0  0  0  0  0  0  0
  151.2358  137.7603  154.7606 H   0  0  0  0  0  0  0  0  0  0  0  0
  151.3143  139.0891  153.6095 H   0  0  0  0  0  0  0  0  0  0  0  0
  149.7799  138.2821  153.9376 H   0  0  0  0  0  0  0  0  0  0  0  0
  149.8201  139.1436  156.2879 H   0  0  0  0  0  0  0  0  0  0  0  0
  151.3990  139.8132  156.0169 H   0  0  0  0  0  0  0  0  0  0  0  0
  150.5214  141.4392  154.3975 H   0  0  0  0  0  0  0  0  0  0  0  0
  148.2564  141.7721  153.8107 H   0  0  0  0  0  0  0  0  0  0  0  0
  148.6359  140.1251  153.4511 H   0  0  0  0  0  0  0  0  0  0  0  0
  147.8643  136.7659  157.4806 H   0  0  0  0  0  0  0  0  0  0  0  0
  144.6755  137.3324  151.9170 H   0  0  0  0  0  0  0  0  0  0  0  0
  145.2617  134.5062  154.4359 H   0  0  0  0  0  0  0  0  0  0  0  0
  144.1142  134.9773  153.2178 H   0  0  0  0  0  0  0  0  0  0  0  0
  147.7985  134.9821  152.5333 H   0  0  0  0  0  0  0  0  0  0  0  0
  146.3077  132.2933  151.5403 H   0  0  0  0  0  0  0  0  0  0  0  0
  145.4530  132.2488  153.0544 H   0  0  0  0  0  0  0  0  0  0  0  0
  143.9600  131.7444  151.1105 H   0  0  0  0  0  0  0  0  0  0  0  0
  143.4058  133.1968  151.9139 H   0  0  0  0  0  0  0  0  0  0  0  0
  144.7299  135.3498  149.3279 H   0  0  0  0  0  0  0  0  0  0  0  0
  143.8537  135.3538  150.8404 H   0  0  0  0  0  0  0  0  0  0  0  0
  146.2311  136.0826  151.2059 H   0  0  0  0  0  0  0  0  0  0  0  0
  146.8007  134.6387  150.4074 H   0  0  0  0  0  0  0  0  0  0  0  0
  146.8540  142.3439  155.8259 H   0  0  0  0  0  0  0  0  0  0  0  0
  146.3276  141.0595  156.8765 H   0  0  0  0  0  0  0  0  0  0  0  0
  148.2695  142.3494  157.8180 H   0  0  0  0  0  0  0  0  0  0  0  0
  148.6695  140.6590  157.6321 H   0  0  0  0  0  0  0  0  0  0  0  0
  151.2484  141.3961  157.3998 H   0  0  0  0  0  0  0  0  0  0  0  0
  151.5515  142.7534  156.3695 H   0  0  0  0  0  0  0  0  0  0  0  0
  149.9623  144.1405  157.8413 H   0  0  0  0  0  0  0  0  0  0  0  0
  149.7881  142.7636  158.8839 H   0  0  0  0  0  0  0  0  0  0  0  0
  153.1675  144.9868  159.0536 H   0  0  0  0  0  0  0  0  0  0  0  0
  151.6678  145.6171  158.3770 H   0  0  0  0  0  0  0  0  0  0  0  0
  152.7189  144.5707  157.4051 H   0  0  0  0  0  0  0  0  0  0  0  0
  149.3101  142.7935  155.7632 H   0  0  0  0  0  0  0  0  0  0  0  0
  1  2  1  0  0  0  0
  1 30  1  0  0  0  0
  1 31  1  0  0  0  0
  1 32  1  0  0  0  0
  2  3  1  0  0  0  0
  2 33  1  0  0  0  0
  2 34  1  0  0  0  0
  3 25  1  0  0  0  0
  3  4  1  0  0  0  0
  3 35  1  0  0  0  0
  4  5  1  0  0  0  0
  4 36  1  0  0  0  0
  4 37  1  0  0  0  0
  5  6  1  0  0  0  0
  5 23  1  0  0  0  0
  6 11  1  0  0  0  0
  6  7  2  0  0  0  0
  7  8  1  0  0  0  0
  8  9  2  0  0  0  0
  8 38  1  0  0  0  0
  9 10  1  0  0  0  0
 10 14  1  0  0  0  0
 10 11  2  0  0  0  0
 11 12  1  0  0  0  0
 12 13  2  0  0  0  0
 13 14  1  0  0  0  0
 13 39  1  0  0  0  0
 14 15  1  0  0  0  0
 15 16  1  0  0  0  0
 15 40  1  0  0  0  0
 15 41  1  0  0  0  0
 16 22  1  0  0  0  0
 16 17  1  0  0  0  0
 16 18  1  0  0  0  0
 17 42  1  0  0  0  0
 18 19  1  0  0  0  0
 18 43  1  0  0  0  0
 18 44  1  0  0  0  0
 19 20  1  0  0  0  0
 19 45  1  0  0  0  0
 19 46  1  0  0  0  0
 20 21  1  0  0  0  0
 21 22  1  0  0  0  0
 21 47  1  0  0  0  0
 21 48  1  0  0  0  0
 22 49  1  0  0  0  0
 22 50  1  0  0  0  0
 23 24  1  0  0  0  0
 23 51  1  0  0  0  0
 23 52  1  0  0  0  0
 24 25  1  0  0  0  0
 24 53  1  0  0  0  0
 24 54  1  0  0  0  0
 25 26  1  0  0  0  0
 25 62  1  0  0  0  0
 26 27  1  0  0  0  0
 26 55  1  0  0  0  0
 26 56  1  0  0  0  0
 27 28  1  0  0  0  0
 27 57  1  0  0  0  0
 27 58  1  0  0  0  0
 28 29  1  0  0  0  0
 29 59  1  0  0  0  0
 29 60  1  0  0  0  0
 29 61  1  0  0  0  0
M  CHG  1  25   1
M  END
> <s_m_source_file>
AV-unprocessed.smi

> <i_m_source_file_index>
256

> <i_lp_mmshare_version>
43012

> <i_f3d_flags>
0

> <s_epik_input>
W0NIM11PW0NIMl1bQ0gyXU4xW0NIMl1bQ0gyXU4oW0NIMl1bQ0BIXTFbQ0gyXVtDSDNdKWMobltjSF1uMiljKGMyMyluW2NIXW4zW0NIMl1DNChbT0hdKVtDSDJdW0NIMl1PW0NIMl1bQ0gyXTQ=

> <s_epik_cmdline>
J2VwaWtfcHl0aG9uJywgJy1waCcsICc3LjAnLCAnLXRuJywgJzgnLCAnLW1hJywgJzIwMCcsICctbWV0YWxfYmluZGluZycsICctaW1hZScsICc8aW5maWxlLm1hZT4nLCAnLW9tYWUnLCAnPG91dGZpbGUubWFlPic=

> <r_lp_tautomer_probability>
1

> <r_epik_Ionization_Penalty>
0.233023

> <r_epik_Ionization_Penalty_Charging>
0.23295

> <r_epik_Ionization_Penalty_Neutral>
7.2493e-05

> <r_epik_State_Penalty>
0.223667

> <r_epik_Charging_Adjusted_Penalty>
0.456618

> <i_epik_Tot_Q>
1

> <i_epik_Tot_abs_Q>
1

> <r_epik_Metal_State_Penalty>
0.226879

> <b_epik_Metal_Only>
0

> <s_lp_Force_Field>
OPLS_2005

> <r_lp_Energy>
45.4801

> <b_lp_Chiralities_Consistent>
1

> <s_lp_Variant>
AV-unprocessed.smi:256-2

> <Gold.Version>
5.8.1

> <Gold.Id.Protein>
6NUR|6NUR_protein|mol2

> <Gold.PLP.Fitness>
47.0307

> <Gold.PLP.PLP>
-37.7004

> <Gold.PLP.part.hbond>
-2.0000

> <Gold.PLP.part.metal>
0.0000

> <Gold.PLP.part.buried>
-6.7279

> <Gold.PLP.part.nonpolar>
-32.2435

> <Gold.PLP.part.repulsive>
3.0395

> <Gold.PLP.ligand.clash>
0.0000

> <Gold.PLP.ligand.torsion>
1.5830

> <Gold.PLP.Chemscore.Hbond>
3.0000

> <Gold.PLP.Chemscore.CHOScore>
1.0000

> <Gold.PLP.Chemscore.Metal>
0.0000

> <Gold.Chemscore.Hbonds>
donor molecule, donor type, donor heavy atom, donor atom, acceptor molecule, acceptor atom, score
      L1  H    17    42       P1  7948  1.00
      L1  H    25    62       P1  8028  2.00
      L1  C    13    39       P1 10171  0.88

> <Gold.PLP.Chemscore.Internal.Correction>
0.4963

> <Gold.Rescore>
     Score         DG    S(hbond)    S(metal)    S(lipo)     H(rot)  DE(clash)    DE(int)     intcor
     14.00     -16.98       1.97        0.00      99.89       2.65       1.33       1.65       ----

> <Gold.Chemscore.Fitness>
13.9984

> <Gold.Chemscore.DG>
-16.9811

> <Gold.Chemscore.ZeroCoef>
-5.4800

> <Gold.Chemscore.Hbond>
1.9726

> <Gold.Chemscore.Metal>
0.0000

> <Gold.Chemscore.Lipo>
99.8857

> <Gold.Chemscore.Internal_Hbond>
0.0000

> <Gold.Chemscore.DEClash>
1.3296

> <Gold.Chemscore.DEInternal>
1.6531

> <Gold.Chemscore.Rot>
2.6462

> <Gold.Chemscore.Internal.Correction>
   9.000000E+99

> <Gold.Chemscore.Hbonds>
donor molecule, donor type, donor heavy atom, donor atom, acceptor molecule, acceptor atom, score
      L1  H    17    42       P1  7948  0.94
      L1  H    25    62       P1  8028  0.96

> <Gold.Chemscore.Hbond.Weighted>
-6.5886

> <Gold.Chemscore.Metal.Weighted>
-0.0000

> <Gold.Chemscore.Lipo.Weighted>
-11.6866

> <Gold.Chemscore.Internal_Hbond.Weighted>
0.0000

> <Gold.Chemscore.DEClash.Weighted>
1.3296

> <Gold.Chemscore.DEInternal.Weighted>
1.6531

> <Gold.Chemscore.Rot.Weighted>
6.7742

> <Gold.Chemscore.Internal.Correction.Weighted>
   9.000000E+99

> <Gold.Protein.RotatedTorsions>
[ 6907 6896 6895 6894 ] final  -82.42 input  -60.11 | X-H torsion
[ 7974 7965 7964 7962 ] final  -14.42 input  175.53 | X-H torsion
[ 8008 7997 7996 7995 ] final -121.78 input   59.86 | X-H torsion
[ 10167 10162 10161 10158 ] final    5.88 input  -65.29 | X-H torsion
[ 10718 10713 10712 10709 ] final  122.11 input   66.30 | X-H torsion
[ 10763 10752 10751 10750 ] final   79.69 input  -60.55 | X-H torsion
[ 11005 11000 10999 10996 ] final  -81.65 input  -57.11 | X-H torsion

> <Gold.Protein.ActiveResidues>
 VAL166  LYS551  ARG553  GLY616  TRP617  ASP618  TYR619  PRO620  LYS621  CYS622 
 ASP623  PHE694  ASN695  SER759  ASP760  ASP761  ALA762  ILE779  LEU786  VAL792 
 PHE793  MET794  SER795  GLU796  ALA797  LYS798  CYS799  TRP800  GLU811  SER814 

> <Gold.Protein.RotatedAtoms>
  150.6898  134.3668  159.4974 H   0  0  0  0  0  0  0  0  0  0  0  0  # atno 6907 bound_to 6896
  152.1489  134.9001  160.0558 H   0  0  0  0  0  0  0  0  0  0  0  0  # atno 6908 bound_to 6896
  152.0106  133.3825  159.4255 H   0  0  0  0  0  0  0  0  0  0  0  0  # atno 6909 bound_to 6896
  146.2075  140.3346  142.8402 H   0  0  0  0  0  0  0  0  0  0  0  0  # atno 7974 bound_to 7965
  155.1536  140.0404  157.2826 H   0  0  0  0  0  0  0  0  0  0  0  0  # atno 8008 bound_to 7997
  154.6387  140.2541  155.7321 H   0  0  0  0  0  0  0  0  0  0  0  0  # atno 8009 bound_to 7997
  156.2521  140.2860  156.0770 H   0  0  0  0  0  0  0  0  0  0  0  0  # atno 8010 bound_to 7997
  140.6458  143.7665  150.7497 H   0  0  0  0  0  0  0  0  0  0  0  0  # atno 10167 bound_to 10162
  157.5767  131.1078  150.8266 H   0  0  0  0  0  0  0  0  0  0  0  0  # atno 10718 bound_to 10713
  153.0972  135.4830  154.8801 H   0  0  0  0  0  0  0  0  0  0  0  0  # atno 10763 bound_to 10752
  154.7338  135.3066  154.8848 H   0  0  0  0  0  0  0  0  0  0  0  0  # atno 10764 bound_to 10752
  153.9476  135.6827  153.4797 H   0  0  0  0  0  0  0  0  0  0  0  0  # atno 10765 bound_to 10752
  141.1666  133.7206  156.8454 H   0  0  0  0  0  0  0  0  0  0  0  0  # atno 11005 bound_to 11000
  144.8828  140.7423  143.5976 LP  0  0  0  0  0  0  0  0  0  0  0  0  # atno 17320 bound_to 7965
  145.3267  139.1772  143.4559 LP  0  0  0  0  0  0  0  0  0  0  0  0  # atno 17321 bound_to 7965
  140.1306  143.4529  152.2256 LP  0  0  0  0  0  0  0  0  0  0  0  0  # atno 17342 bound_to 10162
  139.5669  144.7440  151.3999 LP  0  0  0  0  0  0  0  0  0  0  0  0  # atno 17343 bound_to 10162
  156.8723  130.5150  149.5296 LP  0  0  0  0  0  0  0  0  0  0  0  0  # atno 17370 bound_to 10713
  156.0812  130.5822  150.9566 LP  0  0  0  0  0  0  0  0  0  0  0  0  # atno 17371 bound_to 10713
  140.1953  134.8936  157.3107 LP  0  0  0  0  0  0  0  0  0  0  0  0  # atno 17394 bound_to 11000
  140.2245  134.3983  155.7550 LP  0  0  0  0  0  0  0  0  0  0  0  0  # atno 17395 bound_to 11000

$$$$
