AV-unprocessed.smi:245|AV-procd|sdf|1879|dock3
  -GOLD-   2262020523D 1   1.00000     0.00000
 Structure written by MMmdl.
 54 58  0  0  0  0  0  0  0  0  1 V2000
  146.5299  142.2757  156.6898 O   0  0  0  0  0  0  0  0  0  0  0  0
  147.4301  141.5874  156.2146 C   0  0  0  0  0  0  0  0  0  0  0  0
  147.2240  140.0703  156.0675 C   0  0  0  0  0  0  0  0  0  0  0  0
  148.3616  139.3390  155.4902 N   0  0  0  0  0  0  0  0  0  0  0  0
  148.0074  138.0811  155.1405 C   0  0  0  0  0  0  0  0  0  0  0  0
  148.6305  137.0151  155.7082 N   0  0  0  0  0  0  0  0  0  0  0  0
  148.2844  135.7742  155.3520 C   0  0  0  0  0  0  0  0  0  0  0  0
  147.3626  135.3855  154.4679 N   0  0  0  0  0  0  0  0  0  0  0  0
  146.7424  136.4566  153.8937 C   0  0  0  0  0  0  0  0  0  0  0  0
  147.0103  137.8269  154.1636 C   0  0  0  0  0  0  0  0  0  0  0  0
  146.1996  138.6375  153.3800 N   0  0  0  0  0  0  0  0  0  0  0  0
  145.4922  137.7917  152.6811 C   0  0  0  0  0  0  0  0  0  0  0  0
  145.7311  136.4619  152.9495 N   0  0  0  0  0  0  0  0  0  0  0  0
  145.1219  135.3325  152.3115 C   0  0  0  0  0  0  0  0  0  0  0  0
  145.6626  133.9167  152.5201 C   0  0  0  0  0  0  0  0  0  0  0  0
  145.2434  133.5515  151.0775 C   0  0  0  0  0  0  0  0  0  0  0  0
  146.2501  132.7174  150.2666 C   0  0  0  0  0  0  0  0  0  0  0  0
  146.3183  131.3819  150.7226 O   0  0  0  0  0  0  0  0  0  0  0  0
  143.8309  132.9569  150.8993 C   0  0  0  0  0  0  0  0  0  0  0  0
  143.4584  132.8778  149.5391 O   0  0  0  0  0  0  0  0  0  0  0  0
  145.3193  135.0723  150.8163 C   0  0  0  0  0  0  0  0  0  0  0  0
  149.2758  140.0681  154.6009 C   0  0  2  0  0  0  0  0  0  0  0  0
  150.5165  139.2511  154.1536 C   0  0  0  0  0  0  0  0  0  0  0  0
  151.4905  138.9833  155.3112 C   0  0  0  0  0  0  0  0  0  0  0  0
  151.9404  140.2992  155.9592 C   0  0  0  0  0  0  0  0  0  0  0  0
  150.7324  141.1198  156.4317 C   0  0  0  0  0  0  0  0  0  0  0  0
  149.7276  141.3809  155.2875 C   0  0  2  0  0  0  0  0  0  0  0  0
  148.5869  142.1312  155.8034 N   0  0  0  0  0  0  0  0  0  0  0  0
  147.0081  139.6614  157.0556 H   0  0  0  0  0  0  0  0  0  0  0  0
  146.3309  139.9148  155.4590 H   0  0  0  0  0  0  0  0  0  0  0  0
  148.8220  134.9789  155.8468 H   0  0  0  0  0  0  0  0  0  0  0  0
  144.7645  138.1192  151.9527 H   0  0  0  0  0  0  0  0  0  0  0  0
  144.0602  135.3810  152.5602 H   0  0  0  0  0  0  0  0  0  0  0  0
  146.7451  133.8983  152.6611 H   0  0  0  0  0  0  0  0  0  0  0  0
  145.1590  133.3551  153.3075 H   0  0  0  0  0  0  0  0  0  0  0  0
  146.0008  132.7171  149.2051 H   0  0  0  0  0  0  0  0  0  0  0  0
  147.2526  133.1391  150.3451 H   0  0  0  0  0  0  0  0  0  0  0  0
  147.2253  131.1619  150.8722 H   0  0  0  0  0  0  0  0  0  0  0  0
  143.7697  131.9509  151.3146 H   0  0  0  0  0  0  0  0  0  0  0  0
  143.0856  133.5485  151.4319 H   0  0  0  0  0  0  0  0  0  0  0  0
  142.5543  133.1438  149.4632 H   0  0  0  0  0  0  0  0  0  0  0  0
  144.5273  135.4710  150.1815 H   0  0  0  0  0  0  0  0  0  0  0  0
  146.2995  135.4016  150.4659 H   0  0  0  0  0  0  0  0  0  0  0  0
  148.7082  140.3322  153.7066 H   0  0  0  0  0  0  0  0  0  0  0  0
  150.2341  138.3107  153.6815 H   0  0  0  0  0  0  0  0  0  0  0  0
  151.0425  139.8121  153.3801 H   0  0  0  0  0  0  0  0  0  0  0  0
  151.0138  138.3467  156.0579 H   0  0  0  0  0  0  0  0  0  0  0  0
  152.3588  138.4338  154.9463 H   0  0  0  0  0  0  0  0  0  0  0  0
  152.6021  140.0921  156.8008 H   0  0  0  0  0  0  0  0  0  0  0  0
  152.5220  140.8810  155.2430 H   0  0  0  0  0  0  0  0  0  0  0  0
  150.2387  140.5893  157.2474 H   0  0  0  0  0  0  0  0  0  0  0  0
  151.0768  142.0671  156.8481 H   0  0  0  0  0  0  0  0  0  0  0  0
  150.2148  142.0098  154.5413 H   0  0  0  0  0  0  0  0  0  0  0  0
  148.6976  143.1310  155.8914 H   0  0  0  0  0  0  0  0  0  0  0  0
  1  2  2  0  0  0  0
  2 28  1  0  0  0  0
  2  3  1  0  0  0  0
  3  4  1  0  0  0  0
  3 29  1  0  0  0  0
  3 30  1  0  0  0  0
  4  5  1  0  0  0  0
  4 22  1  0  0  0  0
  5 10  1  0  0  0  0
  5  6  2  0  0  0  0
  6  7  1  0  0  0  0
  7  8  2  0  0  0  0
  7 31  1  0  0  0  0
  8  9  1  0  0  0  0
  9 13  1  0  0  0  0
  9 10  2  0  0  0  0
 10 11  1  0  0  0  0
 11 12  2  0  0  0  0
 12 13  1  0  0  0  0
 12 32  1  0  0  0  0
 13 14  1  0  0  0  0
 14 21  1  0  0  0  0
 14 15  1  0  0  0  0
 14 33  1  0  0  0  0
 15 16  1  0  0  0  0
 15 34  1  0  0  0  0
 15 35  1  0  0  0  0
 16 17  1  0  0  0  0
 16 19  1  0  0  0  0
 16 21  1  0  0  0  0
 17 18  1  0  0  0  0
 17 36  1  0  0  0  0
 17 37  1  0  0  0  0
 18 38  1  0  0  0  0
 19 20  1  0  0  0  0
 19 39  1  0  0  0  0
 19 40  1  0  0  0  0
 20 41  1  0  0  0  0
 21 42  1  0  0  0  0
 21 43  1  0  0  0  0
 22 27  1  0  0  0  0
 22 23  1  0  0  0  0
 22 44  1  0  0  0  0
 23 24  1  0  0  0  0
 23 45  1  0  0  0  0
 23 46  1  0  0  0  0
 24 25  1  0  0  0  0
 24 47  1  0  0  0  0
 24 48  1  0  0  0  0
 25 26  1  0  0  0  0
 25 49  1  0  0  0  0
 25 50  1  0  0  0  0
 26 27  1  0  0  0  0
 26 51  1  0  0  0  0
 26 52  1  0  0  0  0
 27 28  1  0  0  0  0
 27 53  1  0  0  0  0
 28 54  1  0  0  0  0
M  END
> <s_m_source_file>
AV-unprocessed.smi

> <i_m_source_file_index>
245

> <i_lp_mmshare_version>
43012

> <i_f3d_flags>
0

> <s_epik_input>
W0NIMl0xW0NIMl1bQ0gyXVtDSDJdW0NASF0oW0NASF0xMilbTkhdQyg9TylbQ0gyXU4yYyhuW2NIXW4zKWMoYzM0KW5bY0hdbjRbQ0hdKFtDSDJdNSlbQ0gyXUM1KFtDSDJdW09IXSlbQ0gyXVtPSF0=

> <s_epik_cmdline>
J2VwaWtfcHl0aG9uJywgJy1waCcsICc3LjAnLCAnLXRuJywgJzgnLCAnLW1hJywgJzIwMCcsICctbWV0YWxfYmluZGluZycsICctaW1hZScsICc8aW5maWxlLm1hZT4nLCAnLW9tYWUnLCAnPG91dGZpbGUubWFlPic=

> <r_lp_tautomer_probability>
1

> <r_epik_Ionization_Penalty>
0.000702616

> <r_epik_Ionization_Penalty_Charging>
0

> <r_epik_Ionization_Penalty_Neutral>
0.000702616

> <r_epik_State_Penalty>
0.000343985

> <r_epik_Charging_Adjusted_Penalty>
0.000343985

> <i_epik_Tot_Q>
0

> <i_epik_Tot_abs_Q>
0

> <r_epik_Metal_State_Penalty>
-0

> <b_epik_Metal_Only>
0

> <s_lp_Force_Field>
OPLS_2005

> <r_lp_Energy>
48.2331

> <b_lp_Chiralities_Consistent>
1

> <s_lp_Variant>
AV-unprocessed.smi:245-4

> <Gold.Version>
5.8.1

> <Gold.Id.Protein>
6NUR|6NUR_protein|mol2

> <Gold.PLP.Fitness>
50.3965

> <Gold.PLP.PLP>
-36.8703

> <Gold.PLP.part.hbond>
-3.0000

> <Gold.PLP.part.metal>
0.0000

> <Gold.PLP.part.buried>
-3.4487

> <Gold.PLP.part.nonpolar>
-30.2237

> <Gold.PLP.part.repulsive>
0.6464

> <Gold.PLP.ligand.clash>
0.0000

> <Gold.PLP.ligand.torsion>
0.5431

> <Gold.PLP.Chemscore.Hbond>
3.0000

> <Gold.PLP.Chemscore.CHOScore>
1.5600

> <Gold.PLP.Chemscore.Metal>
0.0000

> <Gold.Chemscore.Hbonds>
donor molecule, donor type, donor heavy atom, donor atom, acceptor molecule, acceptor atom, score
      L1  H    18    38       P1 10747  1.00
      L1  H    20    41       P1 10186  1.00
      L1  H    28    54       P1  8028  1.00
      L1  C    12    32       P1 10171  1.00
      L1  C    12    32       P1 10175  0.56

> <Gold.PLP.Chemscore.Internal.Correction>
0.9324

> <Gold.Rescore>
     Score         DG    S(hbond)    S(metal)    S(lipo)     H(rot)  DE(clash)    DE(int)     intcor
     14.86     -16.63       2.98        0.00      81.94       3.28       0.03       1.74       ----

> <Gold.Chemscore.Fitness>
14.8640

> <Gold.Chemscore.DG>
-16.6327

> <Gold.Chemscore.ZeroCoef>
-5.4800

> <Gold.Chemscore.Hbond>
2.9794

> <Gold.Chemscore.Metal>
0.0000

> <Gold.Chemscore.Lipo>
81.9433

> <Gold.Chemscore.Internal_Hbond>
0.0000

> <Gold.Chemscore.DEClash>
0.0300

> <Gold.Chemscore.DEInternal>
1.7387

> <Gold.Chemscore.Rot>
3.2758

> <Gold.Chemscore.Internal.Correction>
   9.000000E+99

> <Gold.Chemscore.Hbonds>
donor molecule, donor type, donor heavy atom, donor atom, acceptor molecule, acceptor atom, score
      L1  H    18    38       P1 10747  0.96
      L1  H    20    41       P1 10186  0.95
      L1  H    28    54       P1  8028  0.99

> <Gold.Chemscore.Hbond.Weighted>
-9.9512

> <Gold.Chemscore.Metal.Weighted>
-0.0000

> <Gold.Chemscore.Lipo.Weighted>
-9.5874

> <Gold.Chemscore.Internal_Hbond.Weighted>
0.0000

> <Gold.Chemscore.DEClash.Weighted>
0.0300

> <Gold.Chemscore.DEInternal.Weighted>
1.7387

> <Gold.Chemscore.Rot.Weighted>
8.3859

> <Gold.Chemscore.Internal.Correction.Weighted>
   9.000000E+99

> <Gold.Protein.RotatedTorsions>
[ 6907 6896 6895 6894 ] final   58.78 input  -60.11 | X-H torsion
[ 7974 7965 7964 7962 ] final -105.77 input  175.53 | X-H torsion
[ 8008 7997 7996 7995 ] final  -97.12 input   59.86 | X-H torsion
[ 10167 10162 10161 10158 ] final  140.42 input  -65.29 | X-H torsion
[ 10718 10713 10712 10709 ] final   85.89 input   66.30 | X-H torsion
[ 10763 10752 10751 10750 ] final   37.75 input  -60.55 | X-H torsion
[ 11005 11000 10999 10996 ] final  162.86 input  -57.11 | X-H torsion

> <Gold.Protein.ActiveResidues>
 VAL166  LYS551  ARG553  GLY616  TRP617  ASP618  TYR619  PRO620  LYS621  CYS622 
 ASP623  PHE694  ASN695  SER759  ASP760  ASP761  ALA762  ILE779  LEU786  VAL792 
 PHE793  MET794  SER795  GLU796  ALA797  LYS798  CYS799  TRP800  GLU811  SER814 

> <Gold.Protein.RotatedAtoms>
  152.3855  134.6523  160.0126 H   0  0  0  0  0  0  0  0  0  0  0  0  # atno 6907 bound_to 6896
  151.6773  133.3307  159.3219 H   0  0  0  0  0  0  0  0  0  0  0  0  # atno 6908 bound_to 6896
  150.7782  134.6747  159.6456 H   0  0  0  0  0  0  0  0  0  0  0  0  # atno 6909 bound_to 6896
  145.2263  140.9153  143.3231 H   0  0  0  0  0  0  0  0  0  0  0  0  # atno 7974 bound_to 7965
  154.7835  140.0465  157.1145 H   0  0  0  0  0  0  0  0  0  0  0  0  # atno 8008 bound_to 7997
  154.9677  140.3085  155.4982 H   0  0  0  0  0  0  0  0  0  0  0  0  # atno 8009 bound_to 7997
  156.2940  140.2259  156.4767 H   0  0  0  0  0  0  0  0  0  0  0  0  # atno 8010 bound_to 7997
  139.5049  144.6235  151.5994 H   0  0  0  0  0  0  0  0  0  0  0  0  # atno 10167 bound_to 10162
  157.6921  131.0193  150.2890 H   0  0  0  0  0  0  0  0  0  0  0  0  # atno 10718 bound_to 10713
  153.0026  135.6269  154.2195 H   0  0  0  0  0  0  0  0  0  0  0  0  # atno 10763 bound_to 10752
  154.1938  135.2807  155.3015 H   0  0  0  0  0  0  0  0  0  0  0  0  # atno 10764 bound_to 10752
  154.5738  135.5668  153.7179 H   0  0  0  0  0  0  0  0  0  0  0  0  # atno 10765 bound_to 10752
  140.2299  134.8131  157.3307 H   0  0  0  0  0  0  0  0  0  0  0  0  # atno 11005 bound_to 11000
  144.9718  139.3872  143.6305 LP  0  0  0  0  0  0  0  0  0  0  0  0  # atno 17320 bound_to 7965
  146.3364  139.8820  142.8823 LP  0  0  0  0  0  0  0  0  0  0  0  0  # atno 17321 bound_to 7965
  140.5944  143.9722  150.6345 LP  0  0  0  0  0  0  0  0  0  0  0  0  # atno 17342 bound_to 10162
  140.2913  143.3322  152.1060 LP  0  0  0  0  0  0  0  0  0  0  0  0  # atno 17343 bound_to 10162
  156.3424  130.3817  149.7398 LP  0  0  0  0  0  0  0  0  0  0  0  0  # atno 17370 bound_to 10713
  156.4902  130.8081  151.3091 LP  0  0  0  0  0  0  0  0  0  0  0  0  # atno 17371 bound_to 10713
  140.1761  134.4548  155.7801 LP  0  0  0  0  0  0  0  0  0  0  0  0  # atno 17394 bound_to 11000
  141.2218  133.6963  156.7789 LP  0  0  0  0  0  0  0  0  0  0  0  0  # atno 17395 bound_to 11000

$$$$
