AV-unprocessed.smi:685|AV-procd|sdf|3335|dock1
  -GOLD-   22720 0303D 1   1.00000     0.00000
 Structure written by MMmdl.
 51 52  0  0  0  0  0  0  0  0  2 V2000
  150.6543  141.4492  155.8957 C   0  0  0  0  0  0  0  0  0  0  0  0
  149.4292  141.2956  155.0579 C   0  0  0  0  0  0  0  0  0  0  0  0
  148.4804  142.2571  154.9009 N   0  3  0  0  0  0  0  0  0  0  0  0
  147.5048  141.8180  154.0924 N   0  0  0  0  0  0  0  0  0  0  0  0
  146.3801  142.7044  153.7918 C   0  0  0  0  0  0  0  0  0  0  0  0
  147.7730  140.5470  153.6773 C   0  0  0  0  0  0  0  0  0  0  0  0
  146.9000  139.7465  152.7665 C   0  0  0  0  0  0  0  0  0  0  0  0
  148.9900  140.2138  154.2861 C   0  0  0  0  0  0  0  0  0  0  0  0
  149.7186  138.9069  154.1443 C   0  0  0  0  0  0  0  0  0  0  0  0
  149.4758  137.9469  155.3291 C   0  0  2  0  0  0  0  0  0  0  0  0
  147.9864  137.6449  155.5562 C   0  0  0  0  0  0  0  0  0  0  0  0
  150.0431  138.5011  156.5549 N   0  0  0  0  0  0  0  0  0  0  0  0
  150.7710  137.8142  157.4497 C   0  0  0  0  0  0  0  0  0  0  0  0
  151.0575  136.6240  157.3125 O   0  0  0  0  0  0  0  0  0  0  0  0
  151.2499  138.5983  158.6754 C   0  0  0  0  0  0  0  0  0  0  0  0
  151.6889  140.0371  158.3412 C   0  0  0  0  0  0  0  0  0  0  0  0
  152.0795  140.8557  159.5847 C   0  0  0  0  0  0  0  0  0  0  0  0
  152.2017  142.3565  159.3107 C   0  0  0  0  0  0  0  0  0  0  0  0
  153.0354  142.9064  160.4724 C   0  0  0  0  0  0  0  0  0  0  0  0
  153.8505  141.7222  161.0140 C   0  0  0  0  0  0  0  0  0  0  0  0
  153.4480  140.5028  160.1764 C   0  0  0  0  0  0  0  0  0  0  0  0
  150.8065  140.5615  156.5098 H   0  0  0  0  0  0  0  0  0  0  0  0
  150.5636  142.3134  156.5543 H   0  0  0  0  0  0  0  0  0  0  0  0
  151.5293  141.5866  155.2604 H   0  0  0  0  0  0  0  0  0  0  0  0
  145.4553  142.1270  153.7994 H   0  0  0  0  0  0  0  0  0  0  0  0
  146.5288  143.1440  152.8053 H   0  0  0  0  0  0  0  0  0  0  0  0
  146.3154  143.4955  154.5399 H   0  0  0  0  0  0  0  0  0  0  0  0
  147.4994  139.0724  152.1554 H   0  0  0  0  0  0  0  0  0  0  0  0
  146.3380  140.3989  152.0982 H   0  0  0  0  0  0  0  0  0  0  0  0
  146.1956  139.1536  153.3496 H   0  0  0  0  0  0  0  0  0  0  0  0
  149.4027  138.4278  153.2168 H   0  0  0  0  0  0  0  0  0  0  0  0
  150.7891  139.0770  154.0257 H   0  0  0  0  0  0  0  0  0  0  0  0
  149.9749  136.9981  155.1244 H   0  0  0  0  0  0  0  0  0  0  0  0
  147.5412  137.1582  154.6882 H   0  0  0  0  0  0  0  0  0  0  0  0
  147.4218  138.5566  155.7541 H   0  0  0  0  0  0  0  0  0  0  0  0
  147.8478  136.9772  156.4074 H   0  0  0  0  0  0  0  0  0  0  0  0
  149.8592  139.4762  156.7435 H   0  0  0  0  0  0  0  0  0  0  0  0
  150.4416  138.6162  159.4071 H   0  0  0  0  0  0  0  0  0  0  0  0
  152.0782  138.0586  159.1361 H   0  0  0  0  0  0  0  0  0  0  0  0
  152.5233  140.0164  157.6386 H   0  0  0  0  0  0  0  0  0  0  0  0
  150.8742  140.5536  157.8314 H   0  0  0  0  0  0  0  0  0  0  0  0
  151.3215  140.7150  160.3573 H   0  0  0  0  0  0  0  0  0  0  0  0
  152.7355  142.5204  158.3733 H   0  0  0  0  0  0  0  0  0  0  0  0
  151.2314  142.8470  159.2268 H   0  0  0  0  0  0  0  0  0  0  0  0
  153.6740  143.7296  160.1501 H   0  0  0  0  0  0  0  0  0  0  0  0
  152.3794  143.2899  161.2549 H   0  0  0  0  0  0  0  0  0  0  0  0
  154.9237  141.9061  160.9551 H   0  0  0  0  0  0  0  0  0  0  0  0
  153.6060  141.5556  162.0640 H   0  0  0  0  0  0  0  0  0  0  0  0
  153.4259  139.5868  160.7677 H   0  0  0  0  0  0  0  0  0  0  0  0
  154.1737  140.3595  159.3746 H   0  0  0  0  0  0  0  0  0  0  0  0
  148.4482  143.1850  155.3040 H   0  0  0  0  0  0  0  0  0  0  0  0
  1  2  1  0  0  0  0
  1 22  1  0  0  0  0
  1 23  1  0  0  0  0
  1 24  1  0  0  0  0
  2  8  1  0  0  0  0
  2  3  2  0  0  0  0
  3  4  1  0  0  0  0
  3 51  1  0  0  0  0
  4  5  1  0  0  0  0
  4  6  1  0  0  0  0
  5 25  1  0  0  0  0
  5 26  1  0  0  0  0
  5 27  1  0  0  0  0
  6  7  1  0  0  0  0
  6  8  2  0  0  0  0
  7 28  1  0  0  0  0
  7 29  1  0  0  0  0
  7 30  1  0  0  0  0
  8  9  1  0  0  0  0
  9 10  1  0  0  0  0
  9 31  1  0  0  0  0
  9 32  1  0  0  0  0
 10 11  1  0  0  0  0
 10 12  1  0  0  0  0
 10 33  1  0  0  0  0
 11 34  1  0  0  0  0
 11 35  1  0  0  0  0
 11 36  1  0  0  0  0
 12 13  1  0  0  0  0
 12 37  1  0  0  0  0
 13 14  2  0  0  0  0
 13 15  1  0  0  0  0
 15 16  1  0  0  0  0
 15 38  1  0  0  0  0
 15 39  1  0  0  0  0
 16 17  1  0  0  0  0
 16 40  1  0  0  0  0
 16 41  1  0  0  0  0
 17 21  1  0  0  0  0
 17 18  1  0  0  0  0
 17 42  1  0  0  0  0
 18 19  1  0  0  0  0
 18 43  1  0  0  0  0
 18 44  1  0  0  0  0
 19 20  1  0  0  0  0
 19 45  1  0  0  0  0
 19 46  1  0  0  0  0
 20 21  1  0  0  0  0
 20 47  1  0  0  0  0
 20 48  1  0  0  0  0
 21 49  1  0  0  0  0
 21 50  1  0  0  0  0
M  CHG  1   3   1
M  END
> <s_m_source_file>
AV-unprocessed.smi

> <i_m_source_file_index>
685

> <i_lp_mmshare_version>
43012

> <i_f3d_flags>
0

> <s_epik_input>
W0NIM11jMW5uKFtDSDNdKWMoW0NIM10pYzFbQ0gyXVtDQEhdKFtDSDNdKVtOSF1DKD1PKVtDSDJdW0NIMl1bQ0hdMltDSDJdW0NIMl1bQ0gyXVtDSDJdMg==

> <s_epik_cmdline>
J2VwaWtfcHl0aG9uJywgJy1waCcsICc3LjAnLCAnLXRuJywgJzgnLCAnLW1hJywgJzIwMCcsICctbWV0YWxfYmluZGluZycsICctaW1hZScsICc8aW5maWxlLm1hZT4nLCAnLW9tYWUnLCAnPG91dGZpbGUubWFlPic=

> <r_lp_tautomer_probability>
1

> <r_epik_Ionization_Penalty>
2.26429

> <r_epik_Ionization_Penalty_Charging>
2.26429

> <r_epik_Ionization_Penalty_Neutral>
2.3289e-07

> <r_epik_State_Penalty>
2.41237

> <r_epik_Charging_Adjusted_Penalty>
4.67666

> <i_epik_Tot_Q>
1

> <i_epik_Tot_abs_Q>
1

> <r_epik_Metal_State_Penalty>
2.42525

> <b_epik_Metal_Only>
0

> <s_lp_Force_Field>
OPLS_2005

> <r_lp_Energy>
28.552

> <b_lp_Chiralities_Consistent>
1

> <s_lp_Variant>
AV-unprocessed.smi:685-3

> <Gold.Version>
5.8.1

> <Gold.Id.Protein>
6NUR|6NUR_protein|mol2

> <Gold.PLP.Fitness>
47.2882

> <Gold.PLP.PLP>
-42.9924

> <Gold.PLP.part.hbond>
-1.0000

> <Gold.PLP.part.metal>
0.0000

> <Gold.PLP.part.buried>
-3.6195

> <Gold.PLP.part.nonpolar>
-38.3752

> <Gold.PLP.part.repulsive>
0.1946

> <Gold.PLP.ligand.clash>
0.0000

> <Gold.PLP.ligand.torsion>
0.9434

> <Gold.PLP.Chemscore.Hbond>
2.0000

> <Gold.PLP.Chemscore.CHOScore>
0.0000

> <Gold.PLP.Chemscore.Metal>
0.0000

> <Gold.Chemscore.Hbonds>
donor molecule, donor type, donor heavy atom, donor atom, acceptor molecule, acceptor atom, score
      L1  H     3    51       P1  8028  2.00

> <Gold.PLP.Chemscore.Internal.Correction>
0.1826

> <Gold.Rescore>
     Score         DG    S(hbond)    S(metal)    S(lipo)     H(rot)  DE(clash)    DE(int)     intcor
     16.97     -17.86       0.98        0.00     113.09       1.61       0.03       0.86       ----

> <Gold.Chemscore.Fitness>
16.9659

> <Gold.Chemscore.DG>
-17.8582

> <Gold.Chemscore.ZeroCoef>
-5.4800

> <Gold.Chemscore.Hbond>
0.9783

> <Gold.Chemscore.Metal>
0.0000

> <Gold.Chemscore.Lipo>
113.0855

> <Gold.Chemscore.Internal_Hbond>
0.0000

> <Gold.Chemscore.DEClash>
0.0335

> <Gold.Chemscore.DEInternal>
0.8588

> <Gold.Chemscore.Rot>
1.6095

> <Gold.Chemscore.Internal.Correction>
   9.000000E+99

> <Gold.Chemscore.Hbonds>
donor molecule, donor type, donor heavy atom, donor atom, acceptor molecule, acceptor atom, score
      L1  H     3    51       P1  8028  0.98

> <Gold.Chemscore.Hbond.Weighted>
-3.2675

> <Gold.Chemscore.Metal.Weighted>
-0.0000

> <Gold.Chemscore.Lipo.Weighted>
-13.2310

> <Gold.Chemscore.Internal_Hbond.Weighted>
0.0000

> <Gold.Chemscore.DEClash.Weighted>
0.0335

> <Gold.Chemscore.DEInternal.Weighted>
0.8588

> <Gold.Chemscore.Rot.Weighted>
4.1202

> <Gold.Chemscore.Internal.Correction.Weighted>
   9.000000E+99

> <Gold.Protein.RotatedTorsions>
[ 6907 6896 6895 6894 ] final  131.87 input  -60.11 | X-H torsion
[ 7974 7965 7964 7962 ] final  -10.62 input  175.53 | X-H torsion
[ 8008 7997 7996 7995 ] final -127.64 input   59.86 | X-H torsion
[ 10167 10162 10161 10158 ] final  -96.36 input  -65.29 | X-H torsion
[ 10718 10713 10712 10709 ] final  134.62 input   66.30 | X-H torsion
[ 10763 10752 10751 10750 ] final  106.26 input  -60.55 | X-H torsion
[ 11005 11000 10999 10996 ] final   10.02 input  -57.11 | X-H torsion

> <Gold.Protein.ActiveResidues>
 VAL166  LYS551  ARG553  GLY616  TRP617  ASP618  TYR619  PRO620  LYS621  CYS622 
 ASP623  PHE694  ASN695  SER759  ASP760  ASP761  ALA762  ILE779  LEU786  VAL792 
 PHE793  MET794  SER795  GLU796  ALA797  LYS798  CYS799  TRP800  GLU811  SER814 

> <Gold.Protein.RotatedAtoms>
  152.3382  133.6036  159.5857 H   0  0  0  0  0  0  0  0  0  0  0  0  # atno 6907 bound_to 6896
  150.7463  133.9763  159.3571 H   0  0  0  0  0  0  0  0  0  0  0  0  # atno 6908 bound_to 6896
  151.7630  135.0806  160.0399 H   0  0  0  0  0  0  0  0  0  0  0  0  # atno 6909 bound_to 6896
  146.2214  140.2791  142.8361 H   0  0  0  0  0  0  0  0  0  0  0  0  # atno 7974 bound_to 7965
  155.2495  140.0432  157.2985 H   0  0  0  0  0  0  0  0  0  0  0  0  # atno 8008 bound_to 7997
  154.5778  140.2392  155.8067 H   0  0  0  0  0  0  0  0  0  0  0  0  # atno 8009 bound_to 7997
  156.2170  140.2981  155.9872 H   0  0  0  0  0  0  0  0  0  0  0  0  # atno 8010 bound_to 7997
  140.2946  143.3200  152.0310 H   0  0  0  0  0  0  0  0  0  0  0  0  # atno 10167 bound_to 10162
  157.4654  131.1076  150.9869 H   0  0  0  0  0  0  0  0  0  0  0  0  # atno 10718 bound_to 10713
  153.3905  135.3883  155.1920 H   0  0  0  0  0  0  0  0  0  0  0  0  # atno 10763 bound_to 10752
  154.8719  135.3747  154.4743 H   0  0  0  0  0  0  0  0  0  0  0  0  # atno 10764 bound_to 10752
  153.5229  135.7086  153.5783 H   0  0  0  0  0  0  0  0  0  0  0  0  # atno 10765 bound_to 10752
  140.5192  134.0576  155.7840 H   0  0  0  0  0  0  0  0  0  0  0  0  # atno 11005 bound_to 11000
  144.9210  140.7868  143.5748 LP  0  0  0  0  0  0  0  0  0  0  0  0  # atno 17320 bound_to 7965
  145.2728  139.1948  143.4832 LP  0  0  0  0  0  0  0  0  0  0  0  0  # atno 17321 bound_to 7965
  139.4929  144.6500  151.6696 LP  0  0  0  0  0  0  0  0  0  0  0  0  # atno 17342 bound_to 10162
  140.5703  144.0121  150.6213 LP  0  0  0  0  0  0  0  0  0  0  0  0  # atno 17343 bound_to 10162
  157.0652  130.5842  149.5393 LP  0  0  0  0  0  0  0  0  0  0  0  0  # atno 17370 bound_to 10713
  156.0048  130.5133  150.7790 LP  0  0  0  0  0  0  0  0  0  0  0  0  # atno 17371 bound_to 10713
  141.1343  133.9248  157.2467 LP  0  0  0  0  0  0  0  0  0  0  0  0  # atno 17394 bound_to 11000
  139.9615  135.0153  156.9274 LP  0  0  0  0  0  0  0  0  0  0  0  0  # atno 17395 bound_to 11000

$$$$
