AV-unprocessed.smi:1233|AV-procd|sdf|5171|dock4
  -GOLD-   22720 4243D 1   1.00000     0.00000
 Structure written by MMmdl.
 38 39  0  0  0  0  0  0  0  0  1 V2000
  146.6493  132.2236  152.1047 C   0  0  0  0  0  0  0  0  0  0  0  0
  147.5309  133.0433  152.8642 O   0  0  0  0  0  0  0  0  0  0  0  0
  148.4638  132.4305  153.6791 C   0  0  0  0  0  0  0  0  0  0  0  0
  148.4467  131.0770  153.7753 N   0  0  0  0  0  0  0  0  0  0  0  0
  149.3543  130.4778  154.5732 C   0  0  0  0  0  0  0  0  0  0  0  0
  150.3130  131.1884  155.3186 C   0  0  0  0  0  0  0  0  0  0  0  0
  150.3329  132.5921  155.2204 C   0  0  0  0  0  0  0  0  0  0  0  0
  149.3978  133.2344  154.3734 C   0  0  0  0  0  0  0  0  0  0  0  0
  149.3198  134.6455  154.2164 N   0  0  0  0  0  0  0  0  0  0  0  0
  149.8336  135.6033  155.0064 C   0  0  0  0  0  0  0  0  0  0  0  0
  150.4726  135.4071  156.0402 O   0  0  0  0  0  0  0  0  0  0  0  0
  149.5824  136.8244  154.5110 N   0  0  0  0  0  0  0  0  0  0  0  0
  150.0598  138.0869  155.0785 C   0  0  2  0  0  0  0  0  0  0  0  0
  149.3283  139.2454  154.3540 C   0  0  0  0  0  0  0  0  0  0  0  0
  149.9537  140.6514  154.4968 C   0  0  0  0  0  0  0  0  0  0  0  0
  150.4182  141.0217  155.9201 C   0  0  0  0  0  0  0  0  0  0  0  0
  151.5206  140.1294  156.5475 C   0  0  0  0  0  0  0  0  0  0  0  0
  152.1878  139.2247  155.6111 N   0  0  0  0  0  0  0  0  0  0  0  0
  151.5876  138.2470  154.9112 C   0  0  0  0  0  0  0  0  0  0  0  0
  152.2238  137.5240  154.1449 O   0  0  0  0  0  0  0  0  0  0  0  0
  145.9865  132.8574  151.5154 H   0  0  0  0  0  0  0  0  0  0  0  0
  146.0264  131.6039  152.7511 H   0  0  0  0  0  0  0  0  0  0  0  0
  147.1961  131.5829  151.4114 H   0  0  0  0  0  0  0  0  0  0  0  0
  149.3102  129.4000  154.6242 H   0  0  0  0  0  0  0  0  0  0  0  0
  151.0145  130.6692  155.9547 H   0  0  0  0  0  0  0  0  0  0  0  0
  151.0510  133.1466  155.8044 H   0  0  0  0  0  0  0  0  0  0  0  0
  148.8992  134.9599  153.3541 H   0  0  0  0  0  0  0  0  0  0  0  0
  149.0551  136.8870  153.6527 H   0  0  0  0  0  0  0  0  0  0  0  0
  149.8060  138.1064  156.1393 H   0  0  0  0  0  0  0  0  0  0  0  0
  149.2461  139.0253  153.2882 H   0  0  0  0  0  0  0  0  0  0  0  0
  148.3031  139.2815  154.7247 H   0  0  0  0  0  0  0  0  0  0  0  0
  150.7947  140.7502  153.8090 H   0  0  0  0  0  0  0  0  0  0  0  0
  149.2265  141.3900  154.1586 H   0  0  0  0  0  0  0  0  0  0  0  0
  150.7877  142.0473  155.8902 H   0  0  0  0  0  0  0  0  0  0  0  0
  149.5564  141.0456  156.5877 H   0  0  0  0  0  0  0  0  0  0  0  0
  152.2808  140.7607  157.0082 H   0  0  0  0  0  0  0  0  0  0  0  0
  151.1019  139.5395  157.3641 H   0  0  0  0  0  0  0  0  0  0  0  0
  153.1840  139.3418  155.4950 H   0  0  0  0  0  0  0  0  0  0  0  0
  1  2  1  0  0  0  0
  1 21  1  0  0  0  0
  1 22  1  0  0  0  0
  1 23  1  0  0  0  0
  2  3  1  0  0  0  0
  3  8  1  0  0  0  0
  3  4  2  0  0  0  0
  4  5  1  0  0  0  0
  5  6  2  0  0  0  0
  5 24  1  0  0  0  0
  6  7  1  0  0  0  0
  6 25  1  0  0  0  0
  7  8  2  0  0  0  0
  7 26  1  0  0  0  0
  8  9  1  0  0  0  0
  9 10  1  0  0  0  0
  9 27  1  0  0  0  0
 10 11  2  0  0  0  0
 10 12  1  0  0  0  0
 12 13  1  0  0  0  0
 12 28  1  0  0  0  0
 13 19  1  0  0  0  0
 13 14  1  0  0  0  0
 13 29  1  0  0  0  0
 14 15  1  0  0  0  0
 14 30  1  0  0  0  0
 14 31  1  0  0  0  0
 15 16  1  0  0  0  0
 15 32  1  0  0  0  0
 15 33  1  0  0  0  0
 16 17  1  0  0  0  0
 16 34  1  0  0  0  0
 16 35  1  0  0  0  0
 17 18  1  0  0  0  0
 17 36  1  0  0  0  0
 17 37  1  0  0  0  0
 18 19  1  0  0  0  0
 18 38  1  0  0  0  0
 19 20  2  0  0  0  0
M  END
> <s_m_source_file>
AV-unprocessed.smi

> <i_m_source_file_index>
1233

> <i_lp_mmshare_version>
43012

> <i_f3d_flags>
0

> <s_epik_input>
W0NIM11PYzFuW2NIXVtjSF1bY0hdYzFbTkhdQyg9TylbTkhdW0NAQEhdMltDSDJdW0NIMl1bQ0gyXVtDSDJdW05IXUMyPU8=

> <s_epik_cmdline>
J2VwaWtfcHl0aG9uJywgJy1waCcsICc3LjAnLCAnLXRuJywgJzgnLCAnLW1hJywgJzIwMCcsICctbWV0YWxfYmluZGluZycsICctaW1hZScsICc8aW5maWxlLm1hZT4nLCAnLW9tYWUnLCAnPG91dGZpbGUubWFlPic=

> <r_lp_tautomer_probability>
1

> <r_epik_Ionization_Penalty>
8.308e-05

> <r_epik_Ionization_Penalty_Charging>
0

> <r_epik_Ionization_Penalty_Neutral>
8.308e-05

> <r_epik_State_Penalty>
-0

> <r_epik_Charging_Adjusted_Penalty>
0

> <i_epik_Tot_Q>
0

> <i_epik_Tot_abs_Q>
0

> <r_epik_Metal_State_Penalty>
-0

> <b_epik_Metal_Only>
0

> <s_lp_Force_Field>
OPLS_2005

> <r_lp_Energy>
19.4298

> <b_lp_Chiralities_Consistent>
1

> <s_lp_Variant>
AV-unprocessed.smi:1233-1

> <Gold.Version>
5.8.1

> <Gold.Id.Protein>
6NUR|6NUR_protein|mol2

> <Gold.PLP.Fitness>
40.2639

> <Gold.PLP.PLP>
-32.8866

> <Gold.PLP.part.hbond>
-3.0000

> <Gold.PLP.part.metal>
0.0000

> <Gold.PLP.part.buried>
-3.0756

> <Gold.PLP.part.nonpolar>
-27.9667

> <Gold.PLP.part.repulsive>
0.6638

> <Gold.PLP.ligand.clash>
0.0000

> <Gold.PLP.ligand.torsion>
0.1761

> <Gold.PLP.Chemscore.Hbond>
2.5760

> <Gold.PLP.Chemscore.CHOScore>
0.0000

> <Gold.PLP.Chemscore.Metal>
0.0000

> <Gold.Chemscore.Hbonds>
donor molecule, donor type, donor heavy atom, donor atom, acceptor molecule, acceptor atom, score
      L1  H     9    27       P1  7948  0.94
      L1  H    12    28       P1  7948  0.85
      P1  H 10752 10764       L1    20  0.80

> <Gold.PLP.Chemscore.Internal.Correction>
0.0014

> <Gold.Rescore>
     Score         DG    S(hbond)    S(metal)    S(lipo)     H(rot)  DE(clash)    DE(int)     intcor
     14.19     -15.61       2.13        0.00      54.35       1.31       0.02       1.40       ----

> <Gold.Chemscore.Fitness>
14.1855

> <Gold.Chemscore.DG>
-15.6052

> <Gold.Chemscore.ZeroCoef>
-5.4800

> <Gold.Chemscore.Hbond>
2.1309

> <Gold.Chemscore.Metal>
0.0000

> <Gold.Chemscore.Lipo>
54.3512

> <Gold.Chemscore.Internal_Hbond>
0.0000

> <Gold.Chemscore.DEClash>
0.0234

> <Gold.Chemscore.DEInternal>
1.3963

> <Gold.Chemscore.Rot>
1.3090

> <Gold.Chemscore.Internal.Correction>
   9.000000E+99

> <Gold.Chemscore.Hbonds>
donor molecule, donor type, donor heavy atom, donor atom, acceptor molecule, acceptor atom, score
      L1  H     9    27       P1  7948  0.31
      L1  H    12    28       P1  7948  0.83
      P1  H 10752 10764       L1    20  0.78

> <Gold.Chemscore.Hbond.Weighted>
-7.1171

> <Gold.Chemscore.Metal.Weighted>
-0.0000

> <Gold.Chemscore.Lipo.Weighted>
-6.3591

> <Gold.Chemscore.Internal_Hbond.Weighted>
0.0000

> <Gold.Chemscore.DEClash.Weighted>
0.0234

> <Gold.Chemscore.DEInternal.Weighted>
1.3963

> <Gold.Chemscore.Rot.Weighted>
3.3509

> <Gold.Chemscore.Internal.Correction.Weighted>
   9.000000E+99

> <Gold.Protein.RotatedTorsions>
[ 6907 6896 6895 6894 ] final  177.65 input  -60.11 | X-H torsion
[ 7974 7965 7964 7962 ] final -117.01 input  175.53 | X-H torsion
[ 8008 7997 7996 7995 ] final -133.13 input   59.86 | X-H torsion
[ 10167 10162 10161 10158 ] final -164.66 input  -65.29 | X-H torsion
[ 10718 10713 10712 10709 ] final   30.98 input   66.30 | X-H torsion
[ 10763 10752 10751 10750 ] final  -85.60 input  -60.55 | X-H torsion
[ 11005 11000 10999 10996 ] final -157.84 input  -57.11 | X-H torsion

> <Gold.Protein.ActiveResidues>
 VAL166  LYS551  ARG553  GLY616  TRP617  ASP618  TYR619  PRO620  LYS621  CYS622 
 ASP623  PHE694  ASN695  SER759  ASP760  ASP761  ALA762  ILE779  LEU786  VAL792 
 PHE793  MET794  SER795  GLU796  ALA797  LYS798  CYS799  TRP800  GLU811  SER814 

> <Gold.Protein.RotatedAtoms>
  151.7006  133.3311  159.3265 H   0  0  0  0  0  0  0  0  0  0  0  0  # atno 6907 bound_to 6896
  150.7738  134.6619  159.6354 H   0  0  0  0  0  0  0  0  0  0  0  0  # atno 6908 bound_to 6896
  152.3772  134.6648  160.0207 H   0  0  0  0  0  0  0  0  0  0  0  0  # atno 6909 bound_to 6896
  145.0901  140.8484  143.3987 H   0  0  0  0  0  0  0  0  0  0  0  0  # atno 7974 bound_to 7965
  155.3403  140.0472  157.3044 H   0  0  0  0  0  0  0  0  0  0  0  0  # atno 8008 bound_to 7997
  154.5281  140.2247  155.8819 H   0  0  0  0  0  0  0  0  0  0  0  0  # atno 8009 bound_to 7997
  156.1760  140.3085  155.9066 H   0  0  0  0  0  0  0  0  0  0  0  0  # atno 8010 bound_to 7997
  139.6235  144.0578  152.1954 H   0  0  0  0  0  0  0  0  0  0  0  0  # atno 10167 bound_to 10162
  157.2665  130.7187  149.6481 H   0  0  0  0  0  0  0  0  0  0  0  0  # atno 10718 bound_to 10713
  154.6130  135.5479  153.7493 H   0  0  0  0  0  0  0  0  0  0  0  0  # atno 10763 bound_to 10752
  153.0203  135.6394  154.1551 H   0  0  0  0  0  0  0  0  0  0  0  0  # atno 10764 bound_to 10752
  154.1488  135.2904  155.3121 H   0  0  0  0  0  0  0  0  0  0  0  0  # atno 10765 bound_to 10752
  140.6602  134.4357  157.5234 H   0  0  0  0  0  0  0  0  0  0  0  0  # atno 11005 bound_to 11000
  145.1076  139.2779  143.5654 LP  0  0  0  0  0  0  0  0  0  0  0  0  # atno 17320 bound_to 7965
  146.3531  140.0662  142.8626 LP  0  0  0  0  0  0  0  0  0  0  0  0  # atno 17321 bound_to 7965
  140.0225  144.6142  150.7554 LP  0  0  0  0  0  0  0  0  0  0  0  0  # atno 17342 bound_to 10162
  140.7397  143.2794  151.3643 LP  0  0  0  0  0  0  0  0  0  0  0  0  # atno 17343 bound_to 10162
  155.9663  130.4381  150.5202 LP  0  0  0  0  0  0  0  0  0  0  0  0  # atno 17370 bound_to 10713
  157.3118  131.0665  151.1995 LP  0  0  0  0  0  0  0  0  0  0  0  0  # atno 17371 bound_to 10713
  139.9015  134.8544  156.1875 LP  0  0  0  0  0  0  0  0  0  0  0  0  # atno 17394 bound_to 11000
  141.0471  133.6908  156.1703 LP  0  0  0  0  0  0  0  0  0  0  0  0  # atno 17395 bound_to 11000

$$$$
