AV-unprocessed.smi:243|AV-procd|sdf|1860|dock9
  -GOLD-   2262020493D 1   1.00000     0.00000
 Structure written by MMmdl.
 58 61  0  0  0  0  0  0  0  0  2 V2000
  146.0485  132.4009  152.2945 C   0  0  0  0  0  0  0  0  0  0  0  0
  147.1744  133.3163  151.7914 C   0  0  0  0  0  0  0  0  0  0  0  0
  147.6125  134.2975  152.8164 N   0  3  2  0  0  0  0  0  0  0  0  0
  148.3950  133.6599  153.9044 C   0  0  0  0  0  0  0  0  0  0  0  0
  148.9891  134.7193  154.8422 C   0  0  0  0  0  0  0  0  0  0  0  0
  147.8876  135.6298  155.4282 C   0  0  1  0  0  0  0  0  0  0  0  0
  148.4124  136.6242  156.3767 N   0  0  0  0  0  0  0  0  0  0  0  0
  148.6909  136.1971  157.7424 C   0  0  0  0  0  0  0  0  0  0  0  0
  149.1897  137.6603  155.9709 C   0  0  0  0  0  0  0  0  0  0  0  0
  149.4851  137.8250  154.6554 N   0  0  0  0  0  0  0  0  0  0  0  0
  150.2587  138.8404  154.2601 C   0  0  0  0  0  0  0  0  0  0  0  0
  150.8317  139.7903  155.0016 N   0  0  0  0  0  0  0  0  0  0  0  0
  150.5422  139.6277  156.3244 C   0  0  0  0  0  0  0  0  0  0  0  0
  149.7359  138.5995  156.8885 C   0  0  0  0  0  0  0  0  0  0  0  0
  149.6477  138.7667  158.2647 N   0  0  0  0  0  0  0  0  0  0  0  0
  150.3624  139.8325  158.5012 C   0  0  0  0  0  0  0  0  0  0  0  0
  150.9489  140.4058  157.3948 N   0  0  0  0  0  0  0  0  0  0  0  0
  151.7905  141.5930  157.3682 C   0  0  0  0  0  0  0  0  0  0  0  0
  151.0099  142.9236  157.2135 C   0  0  2  0  0  0  0  0  0  0  0  0
  150.4044  142.9654  155.9345 O   0  0  0  0  0  0  0  0  0  0  0  0
  151.8653  144.1786  157.4026 C   0  0  0  0  0  0  0  0  0  0  0  0
  151.5770  144.5754  158.8429 C   0  0  0  0  0  0  0  0  0  0  0  0
  150.1904  144.3116  158.9552 O   0  0  0  0  0  0  0  0  0  0  0  0
  149.9286  143.0743  158.3035 C   0  0  0  0  0  0  0  0  0  0  0  0
  147.0087  136.2300  154.2972 C   0  0  2  0  0  0  0  0  0  0  0  0
  145.8178  137.0342  154.8500 C   0  0  0  0  0  0  0  0  0  0  0  0
  146.4968  135.1112  153.3661 C   0  0  0  0  0  0  0  0  0  0  0  0
  145.6818  131.7663  151.4875 H   0  0  0  0  0  0  0  0  0  0  0  0
  145.2036  132.9820  152.6652 H   0  0  0  0  0  0  0  0  0  0  0  0
  146.3815  131.7407  153.0948 H   0  0  0  0  0  0  0  0  0  0  0  0
  148.0258  132.7282  151.4458 H   0  0  0  0  0  0  0  0  0  0  0  0
  146.7966  133.8531  150.9202 H   0  0  0  0  0  0  0  0  0  0  0  0
  147.7572  132.9728  154.4629 H   0  0  0  0  0  0  0  0  0  0  0  0
  149.2068  133.0668  153.4813 H   0  0  0  0  0  0  0  0  0  0  0  0
  149.5348  134.2228  155.6454 H   0  0  0  0  0  0  0  0  0  0  0  0
  149.7246  135.2996  154.2868 H   0  0  0  0  0  0  0  0  0  0  0  0
  147.2316  134.9875  156.0177 H   0  0  0  0  0  0  0  0  0  0  0  0
  149.7523  135.9793  157.8688 H   0  0  0  0  0  0  0  0  0  0  0  0
  148.1305  135.2959  157.9922 H   0  0  0  0  0  0  0  0  0  0  0  0
  148.4115  136.9692  158.4591 H   0  0  0  0  0  0  0  0  0  0  0  0
  150.4479  138.8993  153.1985 H   0  0  0  0  0  0  0  0  0  0  0  0
  150.4844  140.2307  159.4980 H   0  0  0  0  0  0  0  0  0  0  0  0
  152.3784  141.6106  158.2870 H   0  0  0  0  0  0  0  0  0  0  0  0
  152.5065  141.4811  156.5529 H   0  0  0  0  0  0  0  0  0  0  0  0
  150.0125  143.8170  155.8159 H   0  0  0  0  0  0  0  0  0  0  0  0
  152.9277  144.0375  157.2128 H   0  0  0  0  0  0  0  0  0  0  0  0
  151.5244  144.9816  156.7466 H   0  0  0  0  0  0  0  0  0  0  0  0
  152.1334  143.9501  159.5428 H   0  0  0  0  0  0  0  0  0  0  0  0
  151.8084  145.6206  159.0487 H   0  0  0  0  0  0  0  0  0  0  0  0
  148.9121  143.0629  157.9082 H   0  0  0  0  0  0  0  0  0  0  0  0
  149.9979  142.2754  159.0432 H   0  0  0  0  0  0  0  0  0  0  0  0
  147.6101  136.9027  153.6858 H   0  0  0  0  0  0  0  0  0  0  0  0
  145.1829  136.4157  155.4852 H   0  0  0  0  0  0  0  0  0  0  0  0
  145.1988  137.4248  154.0419 H   0  0  0  0  0  0  0  0  0  0  0  0
  146.1458  137.8883  155.4420 H   0  0  0  0  0  0  0  0  0  0  0  0
  145.9315  135.5652  152.5531 H   0  0  0  0  0  0  0  0  0  0  0  0
  145.8043  134.4597  153.9017 H   0  0  0  0  0  0  0  0  0  0  0  0
  148.2430  134.9345  152.3503 H   0  0  0  0  0  0  0  0  0  0  0  0
  1  2  1  0  0  0  0
  1 28  1  0  0  0  0
  1 29  1  0  0  0  0
  1 30  1  0  0  0  0
  2  3  1  0  0  0  0
  2 31  1  0  0  0  0
  2 32  1  0  0  0  0
  3 27  1  0  0  0  0
  3  4  1  0  0  0  0
  3 58  1  0  0  0  0
  4  5  1  0  0  0  0
  4 33  1  0  0  0  0
  4 34  1  0  0  0  0
  5  6  1  0  0  0  0
  5 35  1  0  0  0  0
  5 36  1  0  0  0  0
  6  7  1  0  0  0  0
  6 25  1  0  0  0  0
  6 37  1  0  0  0  0
  7  8  1  0  0  0  0
  7  9  1  0  0  0  0
  8 38  1  0  0  0  0
  8 39  1  0  0  0  0
  8 40  1  0  0  0  0
  9 14  1  0  0  0  0
  9 10  2  0  0  0  0
 10 11  1  0  0  0  0
 11 12  2  0  0  0  0
 11 41  1  0  0  0  0
 12 13  1  0  0  0  0
 13 17  1  0  0  0  0
 13 14  2  0  0  0  0
 14 15  1  0  0  0  0
 15 16  2  0  0  0  0
 16 17  1  0  0  0  0
 16 42  1  0  0  0  0
 17 18  1  0  0  0  0
 18 19  1  0  0  0  0
 18 43  1  0  0  0  0
 18 44  1  0  0  0  0
 19 24  1  0  0  0  0
 19 20  1  0  0  0  0
 19 21  1  0  0  0  0
 20 45  1  0  0  0  0
 21 22  1  0  0  0  0
 21 46  1  0  0  0  0
 21 47  1  0  0  0  0
 22 23  1  0  0  0  0
 22 48  1  0  0  0  0
 22 49  1  0  0  0  0
 23 24  1  0  0  0  0
 24 50  1  0  0  0  0
 24 51  1  0  0  0  0
 25 26  1  0  0  0  0
 25 27  1  0  0  0  0
 25 52  1  0  0  0  0
 26 53  1  0  0  0  0
 26 54  1  0  0  0  0
 26 55  1  0  0  0  0
 27 56  1  0  0  0  0
 27 57  1  0  0  0  0
M  CHG  1   3   1
M  END
> <s_m_source_file>
AV-unprocessed.smi

> <i_m_source_file_index>
243

> <i_lp_mmshare_version>
43012

> <i_f3d_flags>
0

> <s_epik_input>
W0NIM11bQ0gyXU4xW0NIMl1bQ0gyXVtDQEhdKFtDQEBIXShbQ0gzXSlbQ0gyXTEpTihbQ0gzXSljKG5bY0hdbjIpYyhjMjMpbltjSF1uM1tDSDJdW0NAQF00KFtPSF0pW0NIMl1bQ0gyXU9bQ0gyXTQ=

> <s_epik_cmdline>
J2VwaWtfcHl0aG9uJywgJy1waCcsICc3LjAnLCAnLXRuJywgJzgnLCAnLW1hJywgJzIwMCcsICctbWV0YWxfYmluZGluZycsICctaW1hZScsICc8aW5maWxlLm1hZT4nLCAnLW9tYWUnLCAnPG91dGZpbGUubWFlPic=

> <r_lp_tautomer_probability>
1

> <r_epik_Ionization_Penalty>
0.00253099

> <r_epik_Ionization_Penalty_Charging>
0.00137877

> <r_epik_Ionization_Penalty_Neutral>
0.00115221

> <r_epik_State_Penalty>
-0

> <r_epik_Charging_Adjusted_Penalty>
0.00137877

> <i_epik_Tot_Q>
1

> <i_epik_Tot_abs_Q>
1

> <r_epik_Metal_State_Penalty>
-0

> <b_epik_Metal_Only>
0

> <s_lp_Force_Field>
OPLS_2005

> <r_lp_Energy>
45.5006

> <b_lp_Chiralities_Consistent>
1

> <s_lp_Variant>
AV-unprocessed.smi:243-13

> <Gold.Version>
5.8.1

> <Gold.Id.Protein>
6NUR|6NUR_protein|mol2

> <Gold.PLP.Fitness>
48.2094

> <Gold.PLP.PLP>
-34.2816

> <Gold.PLP.part.hbond>
-2.5904

> <Gold.PLP.part.metal>
0.0000

> <Gold.PLP.part.buried>
-5.2934

> <Gold.PLP.part.nonpolar>
-26.1956

> <Gold.PLP.part.repulsive>
0.3657

> <Gold.PLP.ligand.clash>
0.0000

> <Gold.PLP.ligand.torsion>
0.9890

> <Gold.PLP.Chemscore.Hbond>
3.9663

> <Gold.PLP.Chemscore.CHOScore>
1.0000

> <Gold.PLP.Chemscore.Metal>
0.0000

> <Gold.Chemscore.Hbonds>
donor molecule, donor type, donor heavy atom, donor atom, acceptor molecule, acceptor atom, score
      L1  H     3    58       P1  7948  1.92
      L1  H    20    45       P1  8028  0.78
      P1  H  7989  7998       L1    12  0.90
      L1  C    11    41       P1  7957  1.00

> <Gold.PLP.Chemscore.Internal.Correction>
1.0069

> <Gold.Rescore>
     Score         DG    S(hbond)    S(metal)    S(lipo)     H(rot)  DE(clash)    DE(int)     intcor
     12.36     -16.82       2.47        0.00      75.51       2.24       0.95       3.52       ----

> <Gold.Chemscore.Fitness>
12.3554

> <Gold.Chemscore.DG>
-16.8241

> <Gold.Chemscore.ZeroCoef>
-5.4800

> <Gold.Chemscore.Hbond>
2.4665

> <Gold.Chemscore.Metal>
0.0000

> <Gold.Chemscore.Lipo>
75.5130

> <Gold.Chemscore.Internal_Hbond>
0.0000

> <Gold.Chemscore.DEClash>
0.9509

> <Gold.Chemscore.DEInternal>
3.5179

> <Gold.Chemscore.Rot>
2.2379

> <Gold.Chemscore.Internal.Correction>
   9.000000E+99

> <Gold.Chemscore.Hbonds>
donor molecule, donor type, donor heavy atom, donor atom, acceptor molecule, acceptor atom, score
      L1  H     3    58       P1  7948  0.45
      L1  H    20    45       P1  8028  0.75
      P1  H  7989  7998       L1    12  0.17

> <Gold.Chemscore.Hbond.Weighted>
-8.2382

> <Gold.Chemscore.Metal.Weighted>
-0.0000

> <Gold.Chemscore.Lipo.Weighted>
-8.8350

> <Gold.Chemscore.Internal_Hbond.Weighted>
0.0000

> <Gold.Chemscore.DEClash.Weighted>
0.9509

> <Gold.Chemscore.DEInternal.Weighted>
3.5179

> <Gold.Chemscore.Rot.Weighted>
5.7291

> <Gold.Chemscore.Internal.Correction.Weighted>
   9.000000E+99

> <Gold.Protein.RotatedTorsions>
[ 6907 6896 6895 6894 ] final   67.39 input  -60.11 | X-H torsion
[ 7974 7965 7964 7962 ] final   59.89 input  175.53 | X-H torsion
[ 8008 7997 7996 7995 ] final   61.67 input   59.86 | X-H torsion
[ 10167 10162 10161 10158 ] final -175.68 input  -65.29 | X-H torsion
[ 10718 10713 10712 10709 ] final   50.88 input   66.30 | X-H torsion
[ 10763 10752 10751 10750 ] final   11.28 input  -60.55 | X-H torsion
[ 11005 11000 10999 10996 ] final  -61.80 input  -57.11 | X-H torsion

> <Gold.Protein.ActiveResidues>
 VAL166  LYS551  ARG553  GLY616  TRP617  ASP618  TYR619  PRO620  LYS621  CYS622 
 ASP623  PHE694  ASN695  SER759  ASP760  ASP761  ALA762  ILE779  LEU786  VAL792 
 PHE793  MET794  SER795  GLU796  ALA797  LYS798  CYS799  TRP800  GLU811  SER814 

> <Gold.Protein.RotatedAtoms>
  152.4548  134.5315  159.9812 H   0  0  0  0  0  0  0  0  0  0  0  0  # atno 6907 bound_to 6896
  151.5379  133.3432  159.2938 H   0  0  0  0  0  0  0  0  0  0  0  0  # atno 6908 bound_to 6896
  150.8489  134.7838  159.7055 H   0  0  0  0  0  0  0  0  0  0  0  0  # atno 6909 bound_to 6896
  145.9021  139.3589  143.0586 H   0  0  0  0  0  0  0  0  0  0  0  0  # atno 7974 bound_to 7965
  155.6021  140.3494  155.4597 H   0  0  0  0  0  0  0  0  0  0  0  0  # atno 8008 bound_to 7997
  156.0220  140.1256  157.0371 H   0  0  0  0  0  0  0  0  0  0  0  0  # atno 8009 bound_to 7997
  154.4319  140.1060  156.5964 H   0  0  0  0  0  0  0  0  0  0  0  0  # atno 8010 bound_to 7997
  139.5568  144.1968  152.1173 H   0  0  0  0  0  0  0  0  0  0  0  0  # atno 10167 bound_to 10162
  157.4927  130.8386  149.8222 H   0  0  0  0  0  0  0  0  0  0  0  0  # atno 10718 bound_to 10713
  153.1942  135.6847  153.8313 H   0  0  0  0  0  0  0  0  0  0  0  0  # atno 10763 bound_to 10752
  153.7602  135.3211  155.3337 H   0  0  0  0  0  0  0  0  0  0  0  0  # atno 10764 bound_to 10752
  154.8135  135.4701  154.0679 H   0  0  0  0  0  0  0  0  0  0  0  0  # atno 10765 bound_to 10752
  141.1337  133.6633  156.5430 H   0  0  0  0  0  0  0  0  0  0  0  0  # atno 11005 bound_to 11000
  145.8778  140.9381  143.0617 LP  0  0  0  0  0  0  0  0  0  0  0  0  # atno 17320 bound_to 7965
  144.6736  140.0739  143.7472 LP  0  0  0  0  0  0  0  0  0  0  0  0  # atno 17321 bound_to 7965
  140.1474  144.5146  150.6707 LP  0  0  0  0  0  0  0  0  0  0  0  0  # atno 17342 bound_to 10162
  140.6842  143.2342  151.5304 LP  0  0  0  0  0  0  0  0  0  0  0  0  # atno 17343 bound_to 10162
  156.0183  130.3805  150.2042 LP  0  0  0  0  0  0  0  0  0  0  0  0  # atno 17370 bound_to 10713
  157.0231  130.9985  151.3334 LP  0  0  0  0  0  0  0  0  0  0  0  0  # atno 17371 bound_to 10713
  140.4124  134.7260  157.4844 LP  0  0  0  0  0  0  0  0  0  0  0  0  # atno 17394 bound_to 11000
  140.0417  134.6257  155.8972 LP  0  0  0  0  0  0  0  0  0  0  0  0  # atno 17395 bound_to 11000

$$$$
