AV-unprocessed.smi:670|AV-procd|sdf|3272|dock10
  -GOLD-   22720 0233D 1   1.00000     0.00000
 Structure written by MMmdl.
 45 46  0  0  0  0  0  0  0  0  1 V2000
  153.0130  140.4475  160.3346 C   0  0  0  0  0  0  0  0  0  0  0  0
  152.4000  141.8576  160.3599 C   0  0  1  0  0  0  0  0  0  0  0  0
  153.2116  142.7871  161.2846 C   0  0  0  0  0  0  0  0  0  0  0  0
  152.6288  144.2080  161.3196 C   0  0  0  0  0  0  0  0  0  0  0  0
  152.5355  144.8000  159.9063 C   0  0  0  0  0  0  0  0  0  0  0  0
  151.7164  143.8887  158.9806 C   0  0  0  0  0  0  0  0  0  0  0  0
  152.2926  142.4578  158.9398 C   0  0  2  0  0  0  0  0  0  0  0  0
  151.4333  141.6170  158.1805 O   0  0  0  0  0  0  0  0  0  0  0  0
  151.3488  141.9460  156.8015 C   0  0  0  0  0  0  0  0  0  0  0  0
  150.7782  140.7392  156.0429 C   0  0  0  0  0  0  0  0  0  0  0  0
  149.3687  140.9298  155.7185 N   0  0  0  0  0  0  0  0  0  0  0  0
  148.8594  140.9701  154.4784 C   0  0  0  0  0  0  0  0  0  0  0  0
  149.5518  140.8920  153.4624 O   0  0  0  0  0  0  0  0  0  0  0  0
  147.3360  141.1381  154.3822 C   0  0  0  0  0  0  0  0  0  0  0  0
  146.6376  139.9049  153.9915 N   0  0  0  0  0  0  0  0  0  0  0  0
  146.8880  139.5000  152.6891 N   0  0  0  0  0  0  0  0  0  0  0  0
  146.3439  138.4227  152.2328 C   0  0  0  0  0  0  0  0  0  0  0  0
  146.6208  138.0567  150.9383 O   0  0  0  0  0  0  0  0  0  0  0  0
  145.4659  137.6207  153.0566 C   0  0  0  0  0  0  0  0  0  0  0  0
  145.2231  138.0267  154.3221 C   0  0  0  0  0  0  0  0  0  0  0  0
  145.8232  139.2442  154.8709 C   0  0  0  0  0  0  0  0  0  0  0  0
  145.6162  139.6391  156.0179 O   0  0  0  0  0  0  0  0  0  0  0  0
  145.8279  138.2262  150.4532 H   0  0  0  0  0  0  0  0  0  0  0  0
  154.0227  140.4625  159.9228 H   0  0  0  0  0  0  0  0  0  0  0  0
  152.4183  139.7640  159.7276 H   0  0  0  0  0  0  0  0  0  0  0  0
  153.0696  140.0258  161.3381 H   0  0  0  0  0  0  0  0  0  0  0  0
  151.3925  141.7743  160.7704 H   0  0  0  0  0  0  0  0  0  0  0  0
  153.2348  142.3795  162.2958 H   0  0  0  0  0  0  0  0  0  0  0  0
  154.2479  142.8296  160.9464 H   0  0  0  0  0  0  0  0  0  0  0  0
  151.6378  144.1867  161.7749 H   0  0  0  0  0  0  0  0  0  0  0  0
  153.2460  144.8479  161.9508 H   0  0  0  0  0  0  0  0  0  0  0  0
  152.0846  145.7918  159.9466 H   0  0  0  0  0  0  0  0  0  0  0  0
  153.5379  144.9314  159.4972 H   0  0  0  0  0  0  0  0  0  0  0  0
  150.6822  143.8566  159.3260 H   0  0  0  0  0  0  0  0  0  0  0  0
  151.6938  144.3214  157.9805 H   0  0  0  0  0  0  0  0  0  0  0  0
  153.2915  142.4768  158.4993 H   0  0  0  0  0  0  0  0  0  0  0  0
  150.7010  142.8107  156.6577 H   0  0  0  0  0  0  0  0  0  0  0  0
  152.3320  142.2074  156.4075 H   0  0  0  0  0  0  0  0  0  0  0  0
  151.3293  140.5900  155.1142 H   0  0  0  0  0  0  0  0  0  0  0  0
  150.9055  139.8286  156.6303 H   0  0  0  0  0  0  0  0  0  0  0  0
  148.7297  141.0040  156.4967 H   0  0  0  0  0  0  0  0  0  0  0  0
  146.9468  141.4963  155.3374 H   0  0  0  0  0  0  0  0  0  0  0  0
  147.1287  141.9339  153.6644 H   0  0  0  0  0  0  0  0  0  0  0  0
  145.0183  136.7205  152.6615 H   0  0  0  0  0  0  0  0  0  0  0  0
  144.5690  137.4379  154.9483 H   0  0  0  0  0  0  0  0  0  0  0  0
  1  2  1  0  0  0  0
  1 24  1  0  0  0  0
  1 25  1  0  0  0  0
  1 26  1  0  0  0  0
  2  7  1  0  0  0  0
  2  3  1  0  0  0  0
  2 27  1  0  0  0  0
  3  4  1  0  0  0  0
  3 28  1  0  0  0  0
  3 29  1  0  0  0  0
  4  5  1  0  0  0  0
  4 30  1  0  0  0  0
  4 31  1  0  0  0  0
  5  6  1  0  0  0  0
  5 32  1  0  0  0  0
  5 33  1  0  0  0  0
  6  7  1  0  0  0  0
  6 34  1  0  0  0  0
  6 35  1  0  0  0  0
  7  8  1  0  0  0  0
  7 36  1  0  0  0  0
  8  9  1  0  0  0  0
  9 10  1  0  0  0  0
  9 37  1  0  0  0  0
  9 38  1  0  0  0  0
 10 11  1  0  0  0  0
 10 39  1  0  0  0  0
 10 40  1  0  0  0  0
 11 12  1  0  0  0  0
 11 41  1  0  0  0  0
 12 13  2  0  0  0  0
 12 14  1  0  0  0  0
 14 42  1  0  0  0  0
 14 43  1  0  0  0  0
 14 15  1  0  0  0  0
 15 16  1  0  0  0  0
 15 21  1  0  0  0  0
 16 17  2  0  0  0  0
 17 18  1  0  0  0  0
 17 19  1  0  0  0  0
 18 23  1  0  0  0  0
 19 44  1  0  0  0  0
 19 20  2  0  0  0  0
 20 45  1  0  0  0  0
 20 21  1  0  0  0  0
 21 22  2  0  0  0  0
M  END
> <s_m_source_file>
AV-unprocessed.smi

> <i_m_source_file_index>
670

> <i_lp_mmshare_version>
43012

> <i_f3d_flags>
0

> <s_epik_input>
W0NIM11bQ0BASF0xW0NIMl1bQ0gyXVtDSDJdW0NIMl1bQ0BIXTFPW0NIMl1bQ0gyXVtOSF1DKD1PKVtDSDJdbjJbbkhdYyg9TylbY0hdW2NIXWMyPU8=

> <s_epik_cmdline>
J2VwaWtfcHl0aG9uJywgJy1waCcsICc3LjAnLCAnLXRuJywgJzgnLCAnLW1hJywgJzIwMCcsICctbWV0YWxfYmluZGluZycsICctaW1hZScsICc8aW5maWxlLm1hZT4nLCAnLW9tYWUnLCAnPG91dGZpbGUubWFlPic=

> <r_lp_tautomer_probability>
0.9996

> <r_epik_Ionization_Penalty>
2.12726

> <r_epik_Ionization_Penalty_Charging>
3.83395e-08

> <r_epik_Ionization_Penalty_Neutral>
2.12726

> <r_epik_State_Penalty>
1.70432

> <r_epik_Charging_Adjusted_Penalty>
1.70432

> <i_epik_Tot_Q>
0

> <i_epik_Tot_abs_Q>
0

> <r_epik_Metal_State_Penalty>
1.70432

> <b_epik_Metal_Only>
0

> <s_lp_Force_Field>
OPLS_2005

> <r_lp_Energy>
20.1935

> <b_lp_Chiralities_Consistent>
1

> <s_lp_Variant>
AV-unprocessed.smi:670-8

> <Gold.Version>
5.8.1

> <Gold.Id.Protein>
6NUR|6NUR_protein|mol2

> <Gold.PLP.Fitness>
52.0828

> <Gold.PLP.PLP>
-44.7287

> <Gold.PLP.part.hbond>
-4.3363

> <Gold.PLP.part.metal>
0.0000

> <Gold.PLP.part.buried>
-8.4504

> <Gold.PLP.part.nonpolar>
-35.5534

> <Gold.PLP.part.repulsive>
3.1304

> <Gold.PLP.ligand.clash>
0.0000

> <Gold.PLP.ligand.torsion>
0.6349

> <Gold.PLP.Chemscore.Hbond>
2.8633

> <Gold.PLP.Chemscore.CHOScore>
0.0000

> <Gold.PLP.Chemscore.Metal>
0.0000

> <Gold.Chemscore.Hbonds>
donor molecule, donor type, donor heavy atom, donor atom, acceptor molecule, acceptor atom, score
      L1  H    18    23       P1 10171  0.89
      P1  H  7954  7966       L1    18  1.00
      P1  H  7989  7998       L1    13  0.28
      P1  H  8011  8017       L1    13  1.00

> <Gold.PLP.Chemscore.Internal.Correction>
0.0341

> <Gold.Rescore>
     Score         DG    S(hbond)    S(metal)    S(lipo)     H(rot)  DE(clash)    DE(int)     intcor
     16.32     -19.65       2.95        0.00     104.45       3.09       1.98       1.35       ----

> <Gold.Chemscore.Fitness>
16.3160

> <Gold.Chemscore.DG>
-19.6523

> <Gold.Chemscore.ZeroCoef>
-5.4800

> <Gold.Chemscore.Hbond>
2.9528

> <Gold.Chemscore.Metal>
0.0000

> <Gold.Chemscore.Lipo>
104.4493

> <Gold.Chemscore.Internal_Hbond>
0.0000

> <Gold.Chemscore.DEClash>
1.9840

> <Gold.Chemscore.DEInternal>
1.3524

> <Gold.Chemscore.Rot>
3.0901

> <Gold.Chemscore.Internal.Correction>
   9.000000E+99

> <Gold.Chemscore.Hbonds>
donor molecule, donor type, donor heavy atom, donor atom, acceptor molecule, acceptor atom, score
      L1  H    18    23       P1 10171  0.86
      P1  H  7954  7966       L1    18  0.90
      P1  H  7989  7998       L1    13  0.27
      P1  H  8011  8017       L1    13  0.97

> <Gold.Chemscore.Hbond.Weighted>
-9.8624

> <Gold.Chemscore.Metal.Weighted>
-0.0000

> <Gold.Chemscore.Lipo.Weighted>
-12.2206

> <Gold.Chemscore.Internal_Hbond.Weighted>
0.0000

> <Gold.Chemscore.DEClash.Weighted>
1.9840

> <Gold.Chemscore.DEInternal.Weighted>
1.3524

> <Gold.Chemscore.Rot.Weighted>
7.9106

> <Gold.Chemscore.Internal.Correction.Weighted>
   9.000000E+99

> <Gold.Protein.RotatedTorsions>
[ 6907 6896 6895 6894 ] final -112.13 input  -60.11 | X-H torsion
[ 7974 7965 7964 7962 ] final   62.90 input  175.53 | X-H torsion
[ 8008 7997 7996 7995 ] final  -92.52 input   59.86 | X-H torsion
[ 10167 10162 10161 10158 ] final  167.35 input  -65.29 | X-H torsion
[ 10718 10713 10712 10709 ] final   35.72 input   66.30 | X-H torsion
[ 10763 10752 10751 10750 ] final -177.21 input  -60.55 | X-H torsion
[ 11005 11000 10999 10996 ] final  -77.54 input  -57.11 | X-H torsion

> <Gold.Protein.ActiveResidues>
 VAL166  LYS551  ARG553  GLY616  TRP617  ASP618  TYR619  PRO620  LYS621  CYS622 
 ASP623  PHE694  ASN695  SER759  ASP760  ASP761  ALA762  ILE779  LEU786  VAL792 
 PHE793  MET794  SER795  GLU796  ALA797  LYS798  CYS799  TRP800  GLU811  SER814 

> <Gold.Protein.RotatedAtoms>
  150.7737  133.9135  159.3376 H   0  0  0  0  0  0  0  0  0  0  0  0  # atno 6907 bound_to 6896
  151.7015  135.0927  160.0261 H   0  0  0  0  0  0  0  0  0  0  0  0  # atno 6908 bound_to 6896
  152.3765  133.6450  159.6163 H   0  0  0  0  0  0  0  0  0  0  0  0  # atno 6909 bound_to 6896
  145.8681  139.3359  143.0779 H   0  0  0  0  0  0  0  0  0  0  0  0  # atno 7974 bound_to 7965
  154.7241  140.0508  157.0666 H   0  0  0  0  0  0  0  0  0  0  0  0  # atno 8008 bound_to 7997
  155.0388  140.3166  155.4713 H   0  0  0  0  0  0  0  0  0  0  0  0  # atno 8009 bound_to 7997
  156.2824  140.2136  156.5511 H   0  0  0  0  0  0  0  0  0  0  0  0  # atno 8010 bound_to 7997
  139.4943  144.3930  151.9495 H   0  0  0  0  0  0  0  0  0  0  0  0  # atno 10167 bound_to 10162
  157.3261  130.7473  149.6817 H   0  0  0  0  0  0  0  0  0  0  0  0  # atno 10718 bound_to 10713
  154.5629  135.2821  155.0902 H   0  0  0  0  0  0  0  0  0  0  0  0  # atno 10763 bound_to 10752
  154.2304  135.6375  153.5177 H   0  0  0  0  0  0  0  0  0  0  0  0  # atno 10764 bound_to 10752
  153.0034  135.5536  154.6228 H   0  0  0  0  0  0  0  0  0  0  0  0  # atno 10765 bound_to 10752
  141.1661  133.7027  156.7836 H   0  0  0  0  0  0  0  0  0  0  0  0  # atno 11005 bound_to 11000
  145.9170  140.9141  143.0425 LP  0  0  0  0  0  0  0  0  0  0  0  0  # atno 17320 bound_to 7965
  144.6726  140.1237  143.7448 LP  0  0  0  0  0  0  0  0  0  0  0  0  # atno 17321 bound_to 7965
  140.3368  144.3251  150.5975 LP  0  0  0  0  0  0  0  0  0  0  0  0  # atno 17342 bound_to 10162
  140.5599  143.2193  151.7783 LP  0  0  0  0  0  0  0  0  0  0  0  0  # atno 17343 bound_to 10162
  155.9691  130.4209  150.4443 LP  0  0  0  0  0  0  0  0  0  0  0  0  # atno 17370 bound_to 10713
  157.2467  131.0537  151.2404 LP  0  0  0  0  0  0  0  0  0  0  0  0  # atno 17371 bound_to 10713
  140.2376  134.8638  157.3541 LP  0  0  0  0  0  0  0  0  0  0  0  0  # atno 17394 bound_to 11000
  140.1828  134.4468  155.7762 LP  0  0  0  0  0  0  0  0  0  0  0  0  # atno 17395 bound_to 11000

$$$$
