AV-unprocessed.smi:623|AV-procd|sdf|3097|dock10
  -GOLD-   22720 0 13D 1   1.00000     0.00000
 Structure written by MMmdl.
 44 46  0  0  0  0  0  0  0  0  2 V2000
  145.1558  135.0993  159.6335 C   0  0  0  0  0  0  0  0  0  0  0  0
  145.7102  134.9580  161.0792 C   0  0  0  0  0  0  0  0  0  0  0  0
  144.4532  134.9220  161.9935 C   0  0  0  0  0  0  0  0  0  0  0  0
  146.6724  133.7693  161.2760 C   0  0  2  0  0  0  0  0  0  0  0  0
  147.1479  133.9279  162.7381 C   0  0  0  0  0  0  0  0  0  0  0  0
  147.2262  135.4607  162.9005 C   0  0  0  0  0  0  0  0  0  0  0  0
  146.8088  135.9753  161.4986 C   0  0  2  0  0  0  0  0  0  0  0  0
  146.3850  137.4581  161.5144 C   0  0  0  0  0  0  0  0  0  0  0  0
  148.0206  135.6441  160.5745 C   0  0  2  0  0  0  0  0  0  0  0  0
  147.9977  136.3967  159.3261 N   0  0  0  0  0  0  0  0  0  0  0  0
  148.9880  136.4924  158.4260 C   0  0  0  0  0  0  0  0  0  0  0  0
  150.0816  135.9480  158.5734 O   0  0  0  0  0  0  0  0  0  0  0  0
  148.7098  137.3069  157.1500 C   0  0  0  0  0  0  0  0  0  0  0  0
  149.8858  137.4797  156.2754 N   0  0  0  0  0  0  0  0  0  0  0  0
  150.4161  138.7764  156.1539 C   0  0  0  0  0  0  0  0  0  0  0  0
  151.5168  139.0290  155.4207 C   0  0  0  0  0  0  0  0  0  0  0  0
  152.1625  137.9139  154.7397 C   0  0  0  0  0  0  0  0  0  0  0  0
  153.1705  138.1246  154.0682 O   0  0  0  0  0  0  0  0  0  0  0  0
  151.6090  136.6747  154.8858 N   0  5  0  0  0  0  0  0  0  0  0  0
  150.4914  136.4321  155.6382 C   0  0  0  0  0  0  0  0  0  0  0  0
  150.0207  135.3027  155.7732 O   0  0  0  0  0  0  0  0  0  0  0  0
  147.8797  134.1172  160.3754 C   0  0  0  0  0  0  0  0  0  0  0  0
  144.4405  134.3053  159.4176 H   0  0  0  0  0  0  0  0  0  0  0  0
  145.8991  135.0495  158.8432 H   0  0  0  0  0  0  0  0  0  0  0  0
  144.6286  136.0459  159.5093 H   0  0  0  0  0  0  0  0  0  0  0  0
  144.6566  134.8331  163.0583 H   0  0  0  0  0  0  0  0  0  0  0  0
  143.8132  134.0786  161.7324 H   0  0  0  0  0  0  0  0  0  0  0  0
  143.8575  135.8265  161.8666 H   0  0  0  0  0  0  0  0  0  0  0  0
  146.2434  132.7896  161.0637 H   0  0  0  0  0  0  0  0  0  0  0  0
  146.4380  133.4911  163.4406 H   0  0  0  0  0  0  0  0  0  0  0  0
  148.1103  133.4463  162.9148 H   0  0  0  0  0  0  0  0  0  0  0  0
  146.5478  135.8074  163.6802 H   0  0  0  0  0  0  0  0  0  0  0  0
  148.2239  135.7916  163.1910 H   0  0  0  0  0  0  0  0  0  0  0  0
  147.2217  138.0984  161.7950 H   0  0  0  0  0  0  0  0  0  0  0  0
  145.5820  137.6333  162.2303 H   0  0  0  0  0  0  0  0  0  0  0  0
  146.0283  137.7906  160.5393 H   0  0  0  0  0  0  0  0  0  0  0  0
  148.9607  135.8794  161.0773 H   0  0  0  0  0  0  0  0  0  0  0  0
  147.1404  136.8888  159.1180 H   0  0  0  0  0  0  0  0  0  0  0  0
  147.8926  136.8313  156.6056 H   0  0  0  0  0  0  0  0  0  0  0  0
  148.3223  138.2828  157.4457 H   0  0  0  0  0  0  0  0  0  0  0  0
  149.8840  139.5426  156.6987 H   0  0  0  0  0  0  0  0  0  0  0  0
  151.9152  140.0298  155.3435 H   0  0  0  0  0  0  0  0  0  0  0  0
  148.7839  133.5853  160.6730 H   0  0  0  0  0  0  0  0  0  0  0  0
  147.6897  133.8503  159.3355 H   0  0  0  0  0  0  0  0  0  0  0  0
  1  2  1  0  0  0  0
  1 23  1  0  0  0  0
  1 24  1  0  0  0  0
  1 25  1  0  0  0  0
  2  7  1  0  0  0  0
  2  3  1  0  0  0  0
  2  4  1  0  0  0  0
  3 26  1  0  0  0  0
  3 27  1  0  0  0  0
  3 28  1  0  0  0  0
  4 22  1  0  0  0  0
  4  5  1  0  0  0  0
  4 29  1  0  0  0  0
  5  6  1  0  0  0  0
  5 30  1  0  0  0  0
  5 31  1  0  0  0  0
  6  7  1  0  0  0  0
  6 32  1  0  0  0  0
  6 33  1  0  0  0  0
  7  8  1  0  0  0  0
  7  9  1  0  0  0  0
  8 34  1  0  0  0  0
  8 35  1  0  0  0  0
  8 36  1  0  0  0  0
  9 10  1  0  0  0  0
  9 22  1  0  0  0  0
  9 37  1  0  0  0  0
 10 11  1  0  0  0  0
 10 38  1  0  0  0  0
 11 12  2  0  0  0  0
 11 13  1  0  0  0  0
 13 14  1  0  0  0  0
 13 39  1  0  0  0  0
 13 40  1  0  0  0  0
 14 20  1  0  0  0  0
 14 15  1  0  0  0  0
 15 16  2  0  0  0  0
 15 41  1  0  0  0  0
 16 17  1  0  0  0  0
 16 42  1  0  0  0  0
 17 18  2  0  0  0  0
 17 19  1  0  0  0  0
 19 20  1  0  0  0  0
 20 21  2  0  0  0  0
 22 43  1  0  0  0  0
 22 44  1  0  0  0  0
M  CHG  1  19  -1
M  END
> <s_m_source_file>
AV-unprocessed.smi

> <i_m_source_file_index>
623

> <i_lp_mmshare_version>
43012

> <i_f3d_flags>
0

> <s_epik_input>
W0NIM11bQ0BdMTJDKFtDSDNdKShbQ0gzXSlbQ0BIXShbQ0gyXVtDSDJdMSlbQ0gyXVtDQEBIXTJbTkhdQyg9TylbQ0gyXW4zW2NIXVtjSF1jKD1PKVtuSF1jMz1P

> <s_epik_cmdline>
J2VwaWtfcHl0aG9uJywgJy1waCcsICc3LjAnLCAnLXRuJywgJzgnLCAnLW1hJywgJzIwMCcsICctbWV0YWxfYmluZGluZycsICctaW1hZScsICc8aW5maWxlLm1hZT4nLCAnLW9tYWUnLCAnPG91dGZpbGUubWFlPic=

> <r_lp_tautomer_probability>
0.999537

> <r_epik_Ionization_Penalty>
3.12624

> <r_epik_Ionization_Penalty_Charging>
3.01273e-08

> <r_epik_Ionization_Penalty_Neutral>
3.12624

> <r_epik_State_Penalty>
3.12534

> <r_epik_Charging_Adjusted_Penalty>
3.12534

> <i_epik_Tot_Q>
-1

> <i_epik_Tot_abs_Q>
1

> <r_epik_Metal_State_Penalty>
0.46406

> <b_epik_Metal_Only>
1

> <s_lp_Force_Field>
OPLS_2005

> <r_lp_Energy>
63.0451

> <b_lp_Chiralities_Consistent>
1

> <s_lp_Variant>
AV-unprocessed.smi:623-7

> <Gold.Version>
5.8.1

> <Gold.Id.Protein>
6NUR|6NUR_protein|mol2

> <Gold.PLP.Fitness>
40.7742

> <Gold.PLP.PLP>
-29.6685

> <Gold.PLP.part.hbond>
-3.0000

> <Gold.PLP.part.metal>
0.0000

> <Gold.PLP.part.buried>
-2.6237

> <Gold.PLP.part.nonpolar>
-26.0806

> <Gold.PLP.part.repulsive>
0.2883

> <Gold.PLP.ligand.clash>
0.0000

> <Gold.PLP.ligand.torsion>
0.2379

> <Gold.PLP.Chemscore.Hbond>
3.8560

> <Gold.PLP.Chemscore.CHOScore>
0.0000

> <Gold.PLP.Chemscore.Metal>
0.0000

> <Gold.Chemscore.Hbonds>
donor molecule, donor type, donor heavy atom, donor atom, acceptor molecule, acceptor atom, score
      P1  H  6896  6909       L1    12  1.00
      P1  H 10752 10765       L1    19  2.00

> <Gold.PLP.Chemscore.Internal.Correction>
0.0135

> <Gold.Rescore>
     Score         DG    S(hbond)    S(metal)    S(lipo)     H(rot)  DE(clash)    DE(int)     intcor
     17.12     -19.00       2.53        0.00      79.11       1.63       1.47       0.40       ----

> <Gold.Chemscore.Fitness>
17.1250

> <Gold.Chemscore.DG>
-18.9956

> <Gold.Chemscore.ZeroCoef>
-5.4800

> <Gold.Chemscore.Hbond>
2.5264

> <Gold.Chemscore.Metal>
0.0000

> <Gold.Chemscore.Lipo>
79.1088

> <Gold.Chemscore.Internal_Hbond>
0.0000

> <Gold.Chemscore.DEClash>
1.4675

> <Gold.Chemscore.DEInternal>
0.4031

> <Gold.Chemscore.Rot>
1.6322

> <Gold.Chemscore.Internal.Correction>
   9.000000E+99

> <Gold.Chemscore.Hbonds>
donor molecule, donor type, donor heavy atom, donor atom, acceptor molecule, acceptor atom, score
      P1  H  6896  6909       L1    12  0.97
      P1  H 10752 10765       L1    19  0.45

> <Gold.Chemscore.Hbond.Weighted>
-8.4381

> <Gold.Chemscore.Metal.Weighted>
-0.0000

> <Gold.Chemscore.Lipo.Weighted>
-9.2557

> <Gold.Chemscore.Internal_Hbond.Weighted>
0.0000

> <Gold.Chemscore.DEClash.Weighted>
1.4675

> <Gold.Chemscore.DEInternal.Weighted>
0.4031

> <Gold.Chemscore.Rot.Weighted>
4.1783

> <Gold.Chemscore.Internal.Correction.Weighted>
   9.000000E+99

> <Gold.Protein.RotatedTorsions>
[ 6907 6896 6895 6894 ] final   62.80 input  -60.11 | X-H torsion
[ 7974 7965 7964 7962 ] final -155.26 input  175.53 | X-H torsion
[ 8008 7997 7996 7995 ] final   -3.41 input   59.86 | X-H torsion
[ 10167 10162 10161 10158 ] final  174.87 input  -65.29 | X-H torsion
[ 10718 10713 10712 10709 ] final -174.45 input   66.30 | X-H torsion
[ 10763 10752 10751 10750 ] final -175.07 input  -60.55 | X-H torsion
[ 11005 11000 10999 10996 ] final  -58.98 input  -57.11 | X-H torsion

> <Gold.Protein.ActiveResidues>
 VAL166  LYS551  ARG553  GLY616  TRP617  ASP618  TYR619  PRO620  LYS621  CYS622 
 ASP623  PHE694  ASN695  SER759  ASP760  ASP761  ALA762  ILE779  LEU786  VAL792 
 PHE793  MET794  SER795  GLU796  ALA797  LYS798  CYS799  TRP800  GLU811  SER814 

> <Gold.Protein.RotatedAtoms>
  152.4201  134.5970  159.9989 H   0  0  0  0  0  0  0  0  0  0  0  0  # atno 6907 bound_to 6896
  151.6122  133.3340  159.3078 H   0  0  0  0  0  0  0  0  0  0  0  0  # atno 6908 bound_to 6896
  150.8090  134.7271  159.6736 H   0  0  0  0  0  0  0  0  0  0  0  0  # atno 6909 bound_to 6896
  144.7649  140.4274  143.5949 H   0  0  0  0  0  0  0  0  0  0  0  0  # atno 7974 bound_to 7965
  154.6252  140.2510  155.7500 H   0  0  0  0  0  0  0  0  0  0  0  0  # atno 8008 bound_to 7997
  156.2449  140.2918  156.0498 H   0  0  0  0  0  0  0  0  0  0  0  0  # atno 8009 bound_to 7997
  155.1832  140.0389  157.2876 H   0  0  0  0  0  0  0  0  0  0  0  0  # atno 8010 bound_to 7997
  139.5157  144.3097  152.0303 H   0  0  0  0  0  0  0  0  0  0  0  0  # atno 10167 bound_to 10162
  156.7853  130.9498  151.3120 H   0  0  0  0  0  0  0  0  0  0  0  0  # atno 10718 bound_to 10713
  154.5887  135.2843  155.0658 H   0  0  0  0  0  0  0  0  0  0  0  0  # atno 10763 bound_to 10752
  154.1966  135.6431  153.5079 H   0  0  0  0  0  0  0  0  0  0  0  0  # atno 10764 bound_to 10752
  153.0113  135.5459  154.6566 H   0  0  0  0  0  0  0  0  0  0  0  0  # atno 10765 bound_to 10752
  141.1229  133.6614  156.5002 H   0  0  0  0  0  0  0  0  0  0  0  0  # atno 11005 bound_to 11000
  145.6503  139.1564  143.2866 LP  0  0  0  0  0  0  0  0  0  0  0  0  # atno 17320 bound_to 7965
  146.1746  140.6592  142.9217 LP  0  0  0  0  0  0  0  0  0  0  0  0  # atno 17321 bound_to 7965
  140.2542  144.4136  150.6210 LP  0  0  0  0  0  0  0  0  0  0  0  0  # atno 17342 bound_to 10162
  140.6203  143.2176  151.6708 LP  0  0  0  0  0  0  0  0  0  0  0  0  # atno 17343 bound_to 10162
  157.6627  130.8980  149.9864 LP  0  0  0  0  0  0  0  0  0  0  0  0  # atno 17370 bound_to 10713
  156.1192  130.3646  149.9915 LP  0  0  0  0  0  0  0  0  0  0  0  0  # atno 17371 bound_to 10713
  140.4452  134.6979  157.5012 LP  0  0  0  0  0  0  0  0  0  0  0  0  # atno 17394 bound_to 11000
  140.0202  134.6558  155.9250 LP  0  0  0  0  0  0  0  0  0  0  0  0  # atno 17395 bound_to 11000

$$$$
