AV-unprocessed.smi:1071|AV-procd|sdf|4677|dock5
  -GOLD-   22720 3193D 1   1.00000     0.00000
 Structure written by MMmdl.
 47 48  0  0  0  0  0  0  0  0  2 V2000
  135.4185  137.3340  154.3186 C   0  0  0  0  0  0  0  0  0  0  0  0
  136.1597  137.2032  155.5191 O   0  0  0  0  0  0  0  0  0  0  0  0
  137.4306  137.8271  155.4416 C   0  0  0  0  0  0  0  0  0  0  0  0
  138.4021  136.8961  154.7112 C   0  0  0  0  0  0  0  0  0  0  0  0
  139.6933  137.4975  154.7069 O   0  0  0  0  0  0  0  0  0  0  0  0
  140.7306  136.8266  154.0923 C   0  0  0  0  0  0  0  0  0  0  0  0
  141.7695  137.5803  153.5119 C   0  0  0  0  0  0  0  0  0  0  0  0
  142.8313  136.9010  152.8859 C   0  0  0  0  0  0  0  0  0  0  0  0
  142.8316  135.4917  152.8646 C   0  0  0  0  0  0  0  0  0  0  0  0
  143.9173  134.8427  152.2157 N   0  0  0  0  0  0  0  0  0  0  0  0
  143.9401  133.6549  151.5791 C   0  0  0  0  0  0  0  0  0  0  0  0
  142.9370  132.9967  151.3094 O   0  0  0  0  0  0  0  0  0  0  0  0
  145.1824  133.3192  151.1518 N   0  0  0  0  0  0  0  0  0  0  0  0
  146.3253  133.4006  152.0741 C   0  0  0  0  0  0  0  0  0  0  0  0
  146.5048  132.0395  152.7770 C   0  0  0  0  0  0  0  0  0  0  0  0
  146.6530  130.9338  151.7947 N   0  3  1  0  0  0  0  0  0  0  0  0
  146.8013  129.6153  152.4465 C   0  0  0  0  0  0  0  0  0  0  0  0
  145.6030  130.9324  150.7423 C   0  0  0  0  0  0  0  0  0  0  0  0
  145.4636  132.3262  150.0955 C   0  0  1  0  0  0  0  0  0  0  0  0
  144.4781  132.3347  148.9079 C   0  0  0  0  0  0  0  0  0  0  0  0
  141.7345  134.8251  153.4642 C   0  0  0  0  0  0  0  0  0  0  0  0
  140.7129  135.4711  154.0652 N   0  0  0  0  0  0  0  0  0  0  0  0
  134.4543  136.8373  154.4274 H   0  0  0  0  0  0  0  0  0  0  0  0
  135.9417  136.8730  153.4799 H   0  0  0  0  0  0  0  0  0  0  0  0
  135.2325  138.3826  154.0819 H   0  0  0  0  0  0  0  0  0  0  0  0
  137.3507  138.7752  154.9069 H   0  0  0  0  0  0  0  0  0  0  0  0
  137.8035  138.0432  156.4440 H   0  0  0  0  0  0  0  0  0  0  0  0
  138.4361  135.9297  155.2171 H   0  0  0  0  0  0  0  0  0  0  0  0
  138.0551  136.7324  153.6895 H   0  0  0  0  0  0  0  0  0  0  0  0
  141.7523  138.6596  153.5466 H   0  0  0  0  0  0  0  0  0  0  0  0
  143.6377  137.4590  152.4328 H   0  0  0  0  0  0  0  0  0  0  0  0
  144.8166  135.2836  152.3437 H   0  0  0  0  0  0  0  0  0  0  0  0
  147.2271  133.6583  151.5170 H   0  0  0  0  0  0  0  0  0  0  0  0
  146.2141  134.1848  152.8241 H   0  0  0  0  0  0  0  0  0  0  0  0
  147.3816  132.0699  153.4246 H   0  0  0  0  0  0  0  0  0  0  0  0
  145.6446  131.8386  153.4179 H   0  0  0  0  0  0  0  0  0  0  0  0
  145.8953  129.3430  152.9895 H   0  0  0  0  0  0  0  0  0  0  0  0
  147.6328  129.6262  153.1516 H   0  0  0  0  0  0  0  0  0  0  0  0
  147.0028  128.8406  151.7058 H   0  0  0  0  0  0  0  0  0  0  0  0
  145.8598  130.1931  149.9826 H   0  0  0  0  0  0  0  0  0  0  0  0
  144.6511  130.6224  151.1771 H   0  0  0  0  0  0  0  0  0  0  0  0
  146.4311  132.5904  149.6645 H   0  0  0  0  0  0  0  0  0  0  0  0
  144.8671  131.7318  148.0868 H   0  0  0  0  0  0  0  0  0  0  0  0
  144.3274  133.3445  148.5250 H   0  0  0  0  0  0  0  0  0  0  0  0
  143.5045  131.9199  149.1670 H   0  0  0  0  0  0  0  0  0  0  0  0
  141.6401  133.7510  153.4619 H   0  0  0  0  0  0  0  0  0  0  0  0
  147.5228  131.1112  151.3126 H   0  0  0  0  0  0  0  0  0  0  0  0
  1  2  1  0  0  0  0
  1 23  1  0  0  0  0
  1 24  1  0  0  0  0
  1 25  1  0  0  0  0
  2  3  1  0  0  0  0
  3  4  1  0  0  0  0
  3 26  1  0  0  0  0
  3 27  1  0  0  0  0
  4  5  1  0  0  0  0
  4 28  1  0  0  0  0
  4 29  1  0  0  0  0
  5  6  1  0  0  0  0
  6 22  1  0  0  0  0
  6  7  2  0  0  0  0
  7  8  1  0  0  0  0
  7 30  1  0  0  0  0
  8  9  2  0  0  0  0
  8 31  1  0  0  0  0
  9 10  1  0  0  0  0
  9 21  1  0  0  0  0
 10 11  1  0  0  0  0
 10 32  1  0  0  0  0
 11 12  2  0  0  0  0
 11 13  1  0  0  0  0
 13 19  1  0  0  0  0
 13 14  1  0  0  0  0
 14 15  1  0  0  0  0
 14 33  1  0  0  0  0
 14 34  1  0  0  0  0
 15 16  1  0  0  0  0
 15 35  1  0  0  0  0
 15 36  1  0  0  0  0
 16 17  1  0  0  0  0
 16 18  1  0  0  0  0
 16 47  1  0  0  0  0
 17 37  1  0  0  0  0
 17 38  1  0  0  0  0
 17 39  1  0  0  0  0
 18 19  1  0  0  0  0
 18 40  1  0  0  0  0
 18 41  1  0  0  0  0
 19 20  1  0  0  0  0
 19 42  1  0  0  0  0
 20 43  1  0  0  0  0
 20 44  1  0  0  0  0
 20 45  1  0  0  0  0
 21 22  2  0  0  0  0
 21 46  1  0  0  0  0
M  CHG  1  16   1
M  END
> <s_m_source_file>
AV-unprocessed.smi

> <i_m_source_file_index>
1071

> <i_lp_mmshare_version>
43012

> <i_f3d_flags>
0

> <s_epik_input>
W0NIM11PW0NIMl1bQ0gyXU9jMVtjSF1bY0hdYyhbY0hdbjEpW05IXUMoPU8pTjJbQ0gyXVtDSDJdTihbQ0gzXSlbQ0gyXVtDQEhdMltDSDNd

> <s_epik_cmdline>
J2VwaWtfcHl0aG9uJywgJy1waCcsICc3LjAnLCAnLXRuJywgJzgnLCAnLW1hJywgJzIwMCcsICctbWV0YWxfYmluZGluZycsICctaW1hZScsICc8aW5maWxlLm1hZT4nLCAnLW9tYWUnLCAnPG91dGZpbGUubWFlPic=

> <r_lp_tautomer_probability>
1

> <r_epik_Ionization_Penalty>
0.25455

> <r_epik_Ionization_Penalty_Charging>
0.254506

> <r_epik_Ionization_Penalty_Neutral>
4.43365e-05

> <r_epik_State_Penalty>
0.245983

> <r_epik_Charging_Adjusted_Penalty>
0.500488

> <i_epik_Tot_Q>
1

> <i_epik_Tot_abs_Q>
1

> <r_epik_Metal_State_Penalty>
0.245987

> <b_epik_Metal_Only>
0

> <s_lp_Force_Field>
OPLS_2005

> <r_lp_Energy>
54.998

> <b_lp_Chiralities_Consistent>
1

> <s_lp_Variant>
AV-unprocessed.smi:1071-1

> <Gold.Version>
5.8.1

> <Gold.Id.Protein>
6NUR|6NUR_protein|mol2

> <Gold.PLP.Fitness>
47.2836

> <Gold.PLP.PLP>
-40.0304

> <Gold.PLP.part.hbond>
-2.0000

> <Gold.PLP.part.metal>
0.0000

> <Gold.PLP.part.buried>
-8.5788

> <Gold.PLP.part.nonpolar>
-30.9190

> <Gold.PLP.part.repulsive>
1.4160

> <Gold.PLP.ligand.clash>
0.0000

> <Gold.PLP.ligand.torsion>
1.1107

> <Gold.PLP.Chemscore.Hbond>
2.0000

> <Gold.PLP.Chemscore.CHOScore>
0.9519

> <Gold.PLP.Chemscore.Metal>
0.0000

> <Gold.Chemscore.Hbonds>
donor molecule, donor type, donor heavy atom, donor atom, acceptor molecule, acceptor atom, score
      L1  H    16    47       P1 10747  1.00
      P1  H 11000 11005       L1    22  0.96
      L1  C    21    46       P1 10957  0.90

> <Gold.PLP.Chemscore.Internal.Correction>
0.6189

> <Gold.Rescore>
     Score         DG    S(hbond)    S(metal)    S(lipo)     H(rot)  DE(clash)    DE(int)     intcor
     15.25     -18.08       1.82        0.00      90.81       1.60       0.48       2.35       ----

> <Gold.Chemscore.Fitness>
15.2490

> <Gold.Chemscore.DG>
-18.0795

> <Gold.Chemscore.ZeroCoef>
-5.4800

> <Gold.Chemscore.Hbond>
1.8210

> <Gold.Chemscore.Metal>
0.0000

> <Gold.Chemscore.Lipo>
90.8101

> <Gold.Chemscore.Internal_Hbond>
0.0000

> <Gold.Chemscore.DEClash>
0.4803

> <Gold.Chemscore.DEInternal>
2.3502

> <Gold.Chemscore.Rot>
1.6045

> <Gold.Chemscore.Internal.Correction>
   9.000000E+99

> <Gold.Chemscore.Hbonds>
donor molecule, donor type, donor heavy atom, donor atom, acceptor molecule, acceptor atom, score
      L1  H    16    47       P1 10747  1.00
      P1  H 11000 11005       L1    22  0.43

> <Gold.Chemscore.Hbond.Weighted>
-6.0822

> <Gold.Chemscore.Metal.Weighted>
-0.0000

> <Gold.Chemscore.Lipo.Weighted>
-10.6248

> <Gold.Chemscore.Internal_Hbond.Weighted>
0.0000

> <Gold.Chemscore.DEClash.Weighted>
0.4803

> <Gold.Chemscore.DEInternal.Weighted>
2.3502

> <Gold.Chemscore.Rot.Weighted>
4.1075

> <Gold.Chemscore.Internal.Correction.Weighted>
   9.000000E+99

> <Gold.Protein.RotatedTorsions>
[ 6907 6896 6895 6894 ] final  -30.75 input  -60.11 | X-H torsion
[ 7974 7965 7964 7962 ] final   90.93 input  175.53 | X-H torsion
[ 8008 7997 7996 7995 ] final  -12.24 input   59.86 | X-H torsion
[ 10167 10162 10161 10158 ] final  -71.05 input  -65.29 | X-H torsion
[ 10718 10713 10712 10709 ] final   44.53 input   66.30 | X-H torsion
[ 10763 10752 10751 10750 ] final -128.78 input  -60.55 | X-H torsion
[ 11005 11000 10999 10996 ] final   33.39 input  -57.11 | X-H torsion

> <Gold.Protein.ActiveResidues>
 VAL166  LYS551  ARG553  GLY616  TRP617  ASP618  TYR619  PRO620  LYS621  CYS622 
 ASP623  PHE694  ASN695  SER759  ASP760  ASP761  ALA762  ILE779  LEU786  VAL792 
 PHE793  MET794  SER795  GLU796  ALA797  LYS798  CYS799  TRP800  GLU811  SER814 

> <Gold.Protein.RotatedAtoms>
  151.1014  134.9974  159.8450 H   0  0  0  0  0  0  0  0  0  0  0  0  # atno 6907 bound_to 6896
  152.5437  134.1946  159.8697 H   0  0  0  0  0  0  0  0  0  0  0  0  # atno 6908 bound_to 6896
  151.1989  133.4578  159.2629 H   0  0  0  0  0  0  0  0  0  0  0  0  # atno 6909 bound_to 6896
  145.5124  139.2277  143.2717 H   0  0  0  0  0  0  0  0  0  0  0  0  # atno 7974 bound_to 7965
  154.5394  140.2281  155.8667 H   0  0  0  0  0  0  0  0  0  0  0  0  # atno 8008 bound_to 7997
  156.1843  140.3092  155.9171 H   0  0  0  0  0  0  0  0  0  0  0  0  # atno 8009 bound_to 7997
  155.3288  140.0444  157.3032 H   0  0  0  0  0  0  0  0  0  0  0  0  # atno 8010 bound_to 7997
  140.5304  143.2322  151.7273 H   0  0  0  0  0  0  0  0  0  0  0  0  # atno 10167 bound_to 10162
  157.4279  130.8007  149.7575 H   0  0  0  0  0  0  0  0  0  0  0  0  # atno 10718 bound_to 10713
  154.8757  135.3917  154.3812 H   0  0  0  0  0  0  0  0  0  0  0  0  # atno 10763 bound_to 10752
  153.4559  135.7028  153.6085 H   0  0  0  0  0  0  0  0  0  0  0  0  # atno 10764 bound_to 10752
  153.4605  135.3813  155.2304 H   0  0  0  0  0  0  0  0  0  0  0  0  # atno 10765 bound_to 10752
  140.2636  134.3164  155.7850 H   0  0  0  0  0  0  0  0  0  0  0  0  # atno 11005 bound_to 11000
  146.2158  140.5932  142.9039 LP  0  0  0  0  0  0  0  0  0  0  0  0  # atno 17320 bound_to 7965
  144.7720  140.5658  143.6663 LP  0  0  0  0  0  0  0  0  0  0  0  0  # atno 17321 bound_to 7965
  139.4952  144.4123  152.0067 LP  0  0  0  0  0  0  0  0  0  0  0  0  # atno 17342 bound_to 10162
  140.3225  144.3411  150.6006 LP  0  0  0  0  0  0  0  0  0  0  0  0  # atno 17343 bound_to 10162
  155.9903  130.3946  150.3036 LP  0  0  0  0  0  0  0  0  0  0  0  0  # atno 17370 bound_to 10713
  157.1190  131.0241  151.3017 LP  0  0  0  0  0  0  0  0  0  0  0  0  # atno 17371 bound_to 10713
  141.2187  133.7424  156.9225 LP  0  0  0  0  0  0  0  0  0  0  0  0  # atno 17394 bound_to 11000
  140.1441  134.9274  157.2506 LP  0  0  0  0  0  0  0  0  0  0  0  0  # atno 17395 bound_to 11000

$$$$
