AV-unprocessed.smi:277|AV-procd|sdf|2086|dock1
  -GOLD-   2262021363D 1   1.00000     0.00000
 Structure written by MMmdl.
 54 58  0  0  0  0  0  0  0  0  1 V2000
  152.9917  139.4788  157.5370 O   0  0  0  0  0  0  0  0  0  0  0  0
  152.0279  140.0675  157.0500 C   0  0  0  0  0  0  0  0  0  0  0  0
  151.1874  139.4871  155.9279 C   0  0  0  0  0  0  0  0  0  0  0  0
  150.1988  140.5407  155.7281 N   0  0  0  0  0  0  0  0  0  0  0  0
  149.0844  140.3674  154.9702 C   0  0  0  0  0  0  0  0  0  0  0  0
  148.6270  141.4256  154.2500 N   0  0  0  0  0  0  0  0  0  0  0  0
  147.5396  141.3089  153.4837 C   0  0  0  0  0  0  0  0  0  0  0  0
  146.7664  140.2399  153.2928 N   0  0  0  0  0  0  0  0  0  0  0  0
  147.2119  139.1725  154.0146 C   0  0  0  0  0  0  0  0  0  0  0  0
  148.3468  139.1490  154.8767 C   0  0  0  0  0  0  0  0  0  0  0  0
  148.4655  137.8870  155.4499 N   0  0  0  0  0  0  0  0  0  0  0  0
  147.4685  137.2081  154.9532 C   0  0  0  0  0  0  0  0  0  0  0  0
  146.6760  137.8968  154.0639 N   0  0  0  0  0  0  0  0  0  0  0  0
  145.5031  137.3921  153.3629 C   0  0  0  0  0  0  0  0  0  0  0  0
  145.7614  136.2109  152.3755 C   0  0  0  0  0  0  0  0  0  0  0  0
  146.9202  136.6344  151.4280 C   0  0  0  0  0  0  0  0  0  0  0  0
  146.6023  137.7786  150.6606 O   0  0  0  0  0  0  0  0  0  0  0  0
  146.0981  134.8956  153.1267 C   0  0  0  0  0  0  0  0  0  0  0  0
  146.1610  133.6766  152.1888 C   0  0  0  0  0  0  0  0  0  0  0  0
  144.9239  133.5320  151.5021 O   0  0  0  0  0  0  0  0  0  0  0  0
  144.6103  134.6477  150.6780 C   0  0  0  0  0  0  0  0  0  0  0  0
  144.4895  135.9220  151.5359 C   0  0  0  0  0  0  0  0  0  0  0  0
  150.3677  141.6406  156.6681 C   0  0  0  0  0  0  0  0  0  0  0  0
  151.5575  141.2662  157.4147 N   0  0  0  0  0  0  0  0  0  0  0  0
  152.0518  142.1136  158.4969 C   0  0  0  0  0  0  0  0  0  0  0  0
  151.5038  143.5289  158.5305 C   0  0  0  0  0  0  0  0  0  0  0  0
  152.3929  144.7227  158.2639 C   0  0  0  0  0  0  0  0  0  0  0  0
  151.8840  144.4592  159.6590 C   0  0  0  0  0  0  0  0  0  0  0  0
  151.7870  139.3280  155.0308 H   0  0  0  0  0  0  0  0  0  0  0  0
  150.7305  138.5473  156.2414 H   0  0  0  0  0  0  0  0  0  0  0  0
  147.2489  142.1986  152.9447 H   0  0  0  0  0  0  0  0  0  0  0  0
  147.2879  136.1762  155.2167 H   0  0  0  0  0  0  0  0  0  0  0  0
  144.7707  137.0933  154.1140 H   0  0  0  0  0  0  0  0  0  0  0  0
  145.0562  138.2360  152.8361 H   0  0  0  0  0  0  0  0  0  0  0  0
  147.8362  136.8559  151.9720 H   0  0  0  0  0  0  0  0  0  0  0  0
  147.1639  135.8220  150.7423 H   0  0  0  0  0  0  0  0  0  0  0  0
  145.6628  137.8317  150.5737 H   0  0  0  0  0  0  0  0  0  0  0  0
  147.0327  134.9920  153.6794 H   0  0  0  0  0  0  0  0  0  0  0  0
  145.3317  134.6829  153.8710 H   0  0  0  0  0  0  0  0  0  0  0  0
  146.9842  133.7546  151.4783 H   0  0  0  0  0  0  0  0  0  0  0  0
  146.3393  132.7728  152.7715 H   0  0  0  0  0  0  0  0  0  0  0  0
  145.3543  134.7561  149.8889 H   0  0  0  0  0  0  0  0  0  0  0  0
  143.6615  134.4502  150.1786 H   0  0  0  0  0  0  0  0  0  0  0  0
  143.6311  135.7796  152.1905 H   0  0  0  0  0  0  0  0  0  0  0  0
  144.2496  136.7766  150.9022 H   0  0  0  0  0  0  0  0  0  0  0  0
  150.5241  142.5847  156.1448 H   0  0  0  0  0  0  0  0  0  0  0  0
  149.5114  141.7293  157.3380 H   0  0  0  0  0  0  0  0  0  0  0  0
  151.8105  141.6414  159.4500 H   0  0  0  0  0  0  0  0  0  0  0  0
  153.1408  142.1485  158.4445 H   0  0  0  0  0  0  0  0  0  0  0  0
  150.4715  143.6073  158.1941 H   0  0  0  0  0  0  0  0  0  0  0  0
  153.4467  144.5351  158.0680 H   0  0  0  0  0  0  0  0  0  0  0  0
  151.9594  145.5571  157.7166 H   0  0  0  0  0  0  0  0  0  0  0  0
  151.1118  145.1206  160.0464 H   0  0  0  0  0  0  0  0  0  0  0  0
  152.6012  144.0987  160.3941 H   0  0  0  0  0  0  0  0  0  0  0  0
  1  2  2  0  0  0  0
  2 24  1  0  0  0  0
  2  3  1  0  0  0  0
  3  4  1  0  0  0  0
  3 29  1  0  0  0  0
  3 30  1  0  0  0  0
  4  5  1  0  0  0  0
  4 23  1  0  0  0  0
  5 10  1  0  0  0  0
  5  6  2  0  0  0  0
  6  7  1  0  0  0  0
  7  8  2  0  0  0  0
  7 31  1  0  0  0  0
  8  9  1  0  0  0  0
  9 13  1  0  0  0  0
  9 10  2  0  0  0  0
 10 11  1  0  0  0  0
 11 12  2  0  0  0  0
 12 13  1  0  0  0  0
 12 32  1  0  0  0  0
 13 14  1  0  0  0  0
 14 15  1  0  0  0  0
 14 33  1  0  0  0  0
 14 34  1  0  0  0  0
 15 22  1  0  0  0  0
 15 16  1  0  0  0  0
 15 18  1  0  0  0  0
 16 17  1  0  0  0  0
 16 35  1  0  0  0  0
 16 36  1  0  0  0  0
 17 37  1  0  0  0  0
 18 19  1  0  0  0  0
 18 38  1  0  0  0  0
 18 39  1  0  0  0  0
 19 20  1  0  0  0  0
 19 40  1  0  0  0  0
 19 41  1  0  0  0  0
 20 21  1  0  0  0  0
 21 22  1  0  0  0  0
 21 42  1  0  0  0  0
 21 43  1  0  0  0  0
 22 44  1  0  0  0  0
 22 45  1  0  0  0  0
 23 24  1  0  0  0  0
 23 46  1  0  0  0  0
 23 47  1  0  0  0  0
 24 25  1  0  0  0  0
 25 26  1  0  0  0  0
 25 48  1  0  0  0  0
 25 49  1  0  0  0  0
 26 28  1  0  0  0  0
 26 27  1  0  0  0  0
 26 50  1  0  0  0  0
 27 28  1  0  0  0  0
 27 51  1  0  0  0  0
 27 52  1  0  0  0  0
 28 53  1  0  0  0  0
 28 54  1  0  0  0  0
M  END
> <s_m_source_file>
AV-unprocessed.smi

> <i_m_source_file_index>
277

> <i_lp_mmshare_version>
43012

> <i_f3d_flags>
0

> <s_epik_input>
W0NIMl0xW0NIMl1bQ0hdMVtDSDJdTjJbQ0gyXU4oW0NIMl1DMj1PKWMobltjSF1uMyljKGMzNCluW2NIXW40W0NIMl1DNShbQ0gyXVtPSF0pW0NIMl1bQ0gyXU9bQ0gyXVtDSDJdNQ==

> <s_epik_cmdline>
J2VwaWtfcHl0aG9uJywgJy1waCcsICc3LjAnLCAnLXRuJywgJzgnLCAnLW1hJywgJzIwMCcsICctbWV0YWxfYmluZGluZycsICctaW1hZScsICc8aW5maWxlLm1hZT4nLCAnLW9tYWUnLCAnPG91dGZpbGUubWFlPic=

> <r_lp_tautomer_probability>
1

> <r_epik_Ionization_Penalty>
0.00033977

> <r_epik_Ionization_Penalty_Charging>
0

> <r_epik_Ionization_Penalty_Neutral>
0.00033977

> <r_epik_State_Penalty>
-0

> <r_epik_Charging_Adjusted_Penalty>
0

> <i_epik_Tot_Q>
0

> <i_epik_Tot_abs_Q>
0

> <r_epik_Metal_State_Penalty>
-0

> <b_epik_Metal_Only>
0

> <s_epik_Chemistry_Notes>
This compound contains an acetal/aminal-like group ( X-CH(R)-Y where X, Y are N, S, or O) that may be acid/base labile, releasing an aldehyde.

> <s_lp_Force_Field>
OPLS_2005

> <r_lp_Energy>
42.4244

> <b_lp_Chiralities_Consistent>
1

> <s_lp_Variant>
AV-unprocessed.smi:277-1

> <Gold.Version>
5.8.1

> <Gold.Id.Protein>
6NUR|6NUR_protein|mol2

> <Gold.PLP.Fitness>
48.7086

> <Gold.PLP.PLP>
-41.3590

> <Gold.PLP.part.hbond>
-4.8565

> <Gold.PLP.part.metal>
0.0000

> <Gold.PLP.part.buried>
-2.4802

> <Gold.PLP.part.nonpolar>
-35.1302

> <Gold.PLP.part.repulsive>
0.5046

> <Gold.PLP.ligand.clash>
0.0000

> <Gold.PLP.ligand.torsion>
1.3024

> <Gold.PLP.Chemscore.Hbond>
3.0781

> <Gold.PLP.Chemscore.CHOScore>
0.0000

> <Gold.PLP.Chemscore.Metal>
0.0000

> <Gold.Chemscore.Hbonds>
donor molecule, donor type, donor heavy atom, donor atom, acceptor molecule, acceptor atom, score
      L1  H    17    37       P1 10171  0.88
      P1  H  7954  7966       L1    17  0.75
      P1  H  7997  8010       L1     1  1.00

> <Gold.PLP.Chemscore.Internal.Correction>
0.7202

> <Gold.Rescore>
     Score         DG    S(hbond)    S(metal)    S(lipo)     H(rot)  DE(clash)    DE(int)     intcor
     12.81     -16.00       2.36        0.00      83.90       2.80       1.90       1.30       ----

> <Gold.Chemscore.Fitness>
12.8059

> <Gold.Chemscore.DG>
-16.0020

> <Gold.Chemscore.ZeroCoef>
-5.4800

> <Gold.Chemscore.Hbond>
2.3590

> <Gold.Chemscore.Metal>
0.0000

> <Gold.Chemscore.Lipo>
83.8966

> <Gold.Chemscore.Internal_Hbond>
0.0000

> <Gold.Chemscore.DEClash>
1.8999

> <Gold.Chemscore.DEInternal>
1.2962

> <Gold.Chemscore.Rot>
2.8019

> <Gold.Chemscore.Internal.Correction>
   9.000000E+99

> <Gold.Chemscore.Hbonds>
donor molecule, donor type, donor heavy atom, donor atom, acceptor molecule, acceptor atom, score
      L1  H    17    37       P1 10171  0.83
      P1  H  7954  7966       L1    17  0.09
      P1  H  7997  8010       L1     1  0.55

> <Gold.Chemscore.Hbond.Weighted>
-7.8791

> <Gold.Chemscore.Metal.Weighted>
-0.0000

> <Gold.Chemscore.Lipo.Weighted>
-9.8159

> <Gold.Chemscore.Internal_Hbond.Weighted>
0.0000

> <Gold.Chemscore.DEClash.Weighted>
1.8999

> <Gold.Chemscore.DEInternal.Weighted>
1.2962

> <Gold.Chemscore.Rot.Weighted>
7.1729

> <Gold.Chemscore.Internal.Correction.Weighted>
   9.000000E+99

> <Gold.Protein.RotatedTorsions>
[ 6907 6896 6895 6894 ] final   48.71 input  -60.11 | X-H torsion
[ 7974 7965 7964 7962 ] final  -17.51 input  175.53 | X-H torsion
[ 8008 7997 7996 7995 ] final   58.71 input   59.86 | X-H torsion
[ 10167 10162 10161 10158 ] final -147.15 input  -65.29 | X-H torsion
[ 10718 10713 10712 10709 ] final   65.41 input   66.30 | X-H torsion
[ 10763 10752 10751 10750 ] final   47.05 input  -60.55 | X-H torsion
[ 11005 11000 10999 10996 ] final   58.16 input  -57.11 | X-H torsion

> <Gold.Protein.ActiveResidues>
 VAL166  LYS551  ARG553  GLY616  TRP617  ASP618  TYR619  PRO620  LYS621  CYS622 
 ASP623  PHE694  ASN695  SER759  ASP760  ASP761  ALA762  ILE779  LEU786  VAL792 
 PHE793  MET794  SER795  GLU796  ALA797  LYS798  CYS799  TRP800  GLU811  SER814 

> <Gold.Protein.RotatedAtoms>
  152.2826  134.7812  160.0393 H   0  0  0  0  0  0  0  0  0  0  0  0  # atno 6907 bound_to 6896
  151.8386  133.3415  159.3644 H   0  0  0  0  0  0  0  0  0  0  0  0  # atno 6908 bound_to 6896
  150.7196  134.5342  159.5759 H   0  0  0  0  0  0  0  0  0  0  0  0  # atno 6909 bound_to 6896
  146.1938  140.3789  142.8448 H   0  0  0  0  0  0  0  0  0  0  0  0  # atno 7974 bound_to 7965
  155.5544  140.3487  155.4476 H   0  0  0  0  0  0  0  0  0  0  0  0  # atno 8008 bound_to 7997
  156.0560  140.1329  157.0022 H   0  0  0  0  0  0  0  0  0  0  0  0  # atno 8009 bound_to 7997
  154.4456  140.0995  156.6431 H   0  0  0  0  0  0  0  0  0  0  0  0  # atno 8010 bound_to 7997
  139.7648  143.8323  152.2614 H   0  0  0  0  0  0  0  0  0  0  0  0  # atno 10167 bound_to 10162
  157.6104  130.9213  149.9973 H   0  0  0  0  0  0  0  0  0  0  0  0  # atno 10718 bound_to 10713
  152.9804  135.5988  154.3699 H   0  0  0  0  0  0  0  0  0  0  0  0  # atno 10763 bound_to 10752
  154.3374  135.2768  155.2442 H   0  0  0  0  0  0  0  0  0  0  0  0  # atno 10764 bound_to 10752
  154.4539  135.5983  153.6265 H   0  0  0  0  0  0  0  0  0  0  0  0  # atno 10765 bound_to 10752
  140.0398  134.5889  155.9396 H   0  0  0  0  0  0  0  0  0  0  0  0  # atno 11005 bound_to 11000
  144.8538  140.7040  143.6151 LP  0  0  0  0  0  0  0  0  0  0  0  0  # atno 17320 bound_to 7965
  145.3710  139.1658  143.4332 LP  0  0  0  0  0  0  0  0  0  0  0  0  # atno 17321 bound_to 7965
  139.8340  144.7241  150.9414 LP  0  0  0  0  0  0  0  0  0  0  0  0  # atno 17342 bound_to 10162
  140.7810  143.4044  151.1096 LP  0  0  0  0  0  0  0  0  0  0  0  0  # atno 17343 bound_to 10162
  156.1204  130.3646  149.9896 LP  0  0  0  0  0  0  0  0  0  0  0  0  # atno 17370 bound_to 10713
  156.7978  130.9279  151.3646 LP  0  0  0  0  0  0  0  0  0  0  0  0  # atno 17371 bound_to 10713
  141.1877  133.6560  156.5293 LP  0  0  0  0  0  0  0  0  0  0  0  0  # atno 17394 bound_to 11000
  140.4087  134.7291  157.4823 LP  0  0  0  0  0  0  0  0  0  0  0  0  # atno 17395 bound_to 11000

$$$$
