AV-unprocessed.smi:220|AV-procd|sdf|1685|dock4
  -GOLD-   2262020123D 1   1.00000     0.00000
 Structure written by MMmdl.
 51 55  0  0  0  0  0  0  0  0  1 V2000
  149.8523  137.3343  155.0622 N   0  0  0  0  0  0  0  0  0  0  0  0
  149.8852  138.6179  154.6969 C   0  0  0  0  0  0  0  0  0  0  0  0
  150.9418  139.2120  154.4875 O   0  0  0  0  0  0  0  0  0  0  0  0
  148.5312  139.3361  154.5656 C   0  0  1  0  0  0  0  0  0  0  0  0
  148.7044  140.7761  154.0313 C   0  0  2  0  0  0  0  0  0  0  0  0
  148.6310  141.8656  155.1133 C   0  0  0  0  0  0  0  0  0  0  0  0
  147.1778  142.3415  155.1001 C   0  0  0  0  0  0  0  0  0  0  0  0
  146.7677  142.2487  153.6303 C   0  0  0  0  0  0  0  0  0  0  0  0
  147.5153  141.0212  153.0898 C   0  0  2  0  0  0  0  0  0  0  0  0
  146.7095  139.7195  153.1248 C   0  0  0  0  0  0  0  0  0  0  0  0
  147.6344  138.7021  153.5967 N   0  0  0  0  0  0  0  0  0  0  0  0
  147.0677  137.4944  153.8601 C   0  0  0  0  0  0  0  0  0  0  0  0
  147.2016  136.9258  155.0887 N   0  0  0  0  0  0  0  0  0  0  0  0
  146.6329  135.7467  155.3545 C   0  0  0  0  0  0  0  0  0  0  0  0
  145.8953  134.9775  154.5526 N   0  0  0  0  0  0  0  0  0  0  0  0
  145.7583  135.5386  153.3174 C   0  0  0  0  0  0  0  0  0  0  0  0
  146.3088  136.7803  152.8904 C   0  0  0  0  0  0  0  0  0  0  0  0
  145.9701  137.0142  151.5630 N   0  0  0  0  0  0  0  0  0  0  0  0
  145.2524  135.9773  151.2283 C   0  0  0  0  0  0  0  0  0  0  0  0
  145.0622  135.0476  152.2259 N   0  0  0  0  0  0  0  0  0  0  0  0
  144.3025  133.8102  152.1319 C   0  0  0  0  0  0  0  0  0  0  0  0
  144.8427  132.8315  151.0695 C   0  0  0  0  0  0  0  0  0  0  0  0
  146.3699  132.6900  151.1948 C   0  0  0  0  0  0  0  0  0  0  0  0
  146.9045  131.9232  150.1350 O   0  0  0  0  0  0  0  0  0  0  0  0
  144.0924  131.4977  150.9434 C   0  0  0  0  0  0  0  0  0  0  0  0
  143.9372  131.6537  149.5173 O   0  0  0  0  0  0  0  0  0  0  0  0
  144.3264  133.0383  149.6389 C   0  0  0  0  0  0  0  0  0  0  0  0
  150.7151  136.8189  155.1574 H   0  0  0  0  0  0  0  0  0  0  0  0
  148.9665  136.8827  155.2372 H   0  0  0  0  0  0  0  0  0  0  0  0
  148.0339  139.3676  155.5376 H   0  0  0  0  0  0  0  0  0  0  0  0
  149.6360  140.8739  153.4701 H   0  0  0  0  0  0  0  0  0  0  0  0
  148.9509  141.5181  156.0962 H   0  0  0  0  0  0  0  0  0  0  0  0
  149.2827  142.6949  154.8349 H   0  0  0  0  0  0  0  0  0  0  0  0
  146.5639  141.6657  155.6968 H   0  0  0  0  0  0  0  0  0  0  0  0
  147.0604  143.3463  155.5069 H   0  0  0  0  0  0  0  0  0  0  0  0
  145.6871  142.1876  153.4968 H   0  0  0  0  0  0  0  0  0  0  0  0
  147.1113  143.1408  153.1050 H   0  0  0  0  0  0  0  0  0  0  0  0
  147.8703  141.2014  152.0740 H   0  0  0  0  0  0  0  0  0  0  0  0
  145.8684  139.7913  153.8172 H   0  0  0  0  0  0  0  0  0  0  0  0
  146.3108  139.4896  152.1371 H   0  0  0  0  0  0  0  0  0  0  0  0
  146.7891  135.3670  156.3534 H   0  0  0  0  0  0  0  0  0  0  0  0
  144.8381  135.8655  150.2375 H   0  0  0  0  0  0  0  0  0  0  0  0
  144.3104  133.3445  153.1181 H   0  0  0  0  0  0  0  0  0  0  0  0
  143.2582  134.0565  151.9371 H   0  0  0  0  0  0  0  0  0  0  0  0
  146.8654  133.6605  151.2188 H   0  0  0  0  0  0  0  0  0  0  0  0
  146.6345  132.1943  152.1293 H   0  0  0  0  0  0  0  0  0  0  0  0
  147.7838  131.6636  150.3643 H   0  0  0  0  0  0  0  0  0  0  0  0
  144.6889  130.6245  151.2100 H   0  0  0  0  0  0  0  0  0  0  0  0
  143.1261  131.4775  151.4490 H   0  0  0  0  0  0  0  0  0  0  0  0
  143.4674  133.7079  149.5695 H   0  0  0  0  0  0  0  0  0  0  0  0
  145.0978  133.3214  148.9218 H   0  0  0  0  0  0  0  0  0  0  0  0
  1  2  1  0  0  0  0
  1 28  1  0  0  0  0
  1 29  1  0  0  0  0
  2  3  2  0  0  0  0
  2  4  1  0  0  0  0
  4 11  1  0  0  0  0
  4  5  1  0  0  0  0
  4 30  1  0  0  0  0
  5  9  1  0  0  0  0
  5  6  1  0  0  0  0
  5 31  1  0  0  0  0
  6  7  1  0  0  0  0
  6 32  1  0  0  0  0
  6 33  1  0  0  0  0
  7  8  1  0  0  0  0
  7 34  1  0  0  0  0
  7 35  1  0  0  0  0
  8  9  1  0  0  0  0
  8 36  1  0  0  0  0
  8 37  1  0  0  0  0
  9 10  1  0  0  0  0
  9 38  1  0  0  0  0
 10 11  1  0  0  0  0
 10 39  1  0  0  0  0
 10 40  1  0  0  0  0
 11 12  1  0  0  0  0
 12 17  1  0  0  0  0
 12 13  2  0  0  0  0
 13 14  1  0  0  0  0
 14 15  2  0  0  0  0
 14 41  1  0  0  0  0
 15 16  1  0  0  0  0
 16 20  1  0  0  0  0
 16 17  2  0  0  0  0
 17 18  1  0  0  0  0
 18 19  2  0  0  0  0
 19 20  1  0  0  0  0
 19 42  1  0  0  0  0
 20 21  1  0  0  0  0
 21 22  1  0  0  0  0
 21 43  1  0  0  0  0
 21 44  1  0  0  0  0
 22 27  1  0  0  0  0
 22 23  1  0  0  0  0
 22 25  1  0  0  0  0
 23 24  1  0  0  0  0
 23 45  1  0  0  0  0
 23 46  1  0  0  0  0
 24 47  1  0  0  0  0
 25 26  1  0  0  0  0
 25 48  1  0  0  0  0
 25 49  1  0  0  0  0
 26 27  1  0  0  0  0
 27 50  1  0  0  0  0
 27 51  1  0  0  0  0
M  END
> <s_m_source_file>
AV-unprocessed.smi

> <i_m_source_file_index>
220

> <i_lp_mmshare_version>
43012

> <i_f3d_flags>
0

> <s_epik_input>
W0NIMl0xW0NIMl1bQ0gyXVtDQEhdKFtDQEhdMTIpW0NIMl1OKFtDQEBIXTJDKD1PKVtOSDJdKWMobltjSF1uMyljKGMzNCluW2NIXW40W0NIMl1DNShbQ0gyXVtPSF0pW0NIMl1PW0NIMl01

> <s_epik_cmdline>
J2VwaWtfcHl0aG9uJywgJy1waCcsICc3LjAnLCAnLXRuJywgJzgnLCAnLW1hJywgJzIwMCcsICctbWV0YWxfYmluZGluZycsICctaW1hZScsICc8aW5maWxlLm1hZT4nLCAnLW9tYWUnLCAnPG91dGZpbGUubWFlPic=

> <r_lp_tautomer_probability>
1

> <r_epik_Ionization_Penalty>
0.00118987

> <r_epik_Ionization_Penalty_Charging>
0

> <r_epik_Ionization_Penalty_Neutral>
0.00118987

> <r_epik_State_Penalty>
0.000654261

> <r_epik_Charging_Adjusted_Penalty>
0.000654261

> <i_epik_Tot_Q>
0

> <i_epik_Tot_abs_Q>
0

> <r_epik_Metal_State_Penalty>
-0

> <b_epik_Metal_Only>
0

> <s_lp_Force_Field>
OPLS_2005

> <r_lp_Energy>
59.1601

> <b_lp_Chiralities_Consistent>
1

> <s_lp_Variant>
AV-unprocessed.smi:220-4

> <Gold.Version>
5.8.1

> <Gold.Id.Protein>
6NUR|6NUR_protein|mol2

> <Gold.PLP.Fitness>
44.4233

> <Gold.PLP.PLP>
-35.3419

> <Gold.PLP.part.hbond>
-3.0000

> <Gold.PLP.part.metal>
0.0000

> <Gold.PLP.part.buried>
0.4685

> <Gold.PLP.part.nonpolar>
-33.4558

> <Gold.PLP.part.repulsive>
1.1327

> <Gold.PLP.ligand.clash>
0.0000

> <Gold.PLP.ligand.torsion>
0.4118

> <Gold.PLP.Chemscore.Hbond>
2.8320

> <Gold.PLP.Chemscore.CHOScore>
0.3008

> <Gold.PLP.Chemscore.Metal>
0.0000

> <Gold.Chemscore.Hbonds>
donor molecule, donor type, donor heavy atom, donor atom, acceptor molecule, acceptor atom, score
      L1  H    24    47       P1 10747  0.76
      P1  H  7989  7998       L1     3  0.96
      P1  H 10785 10796       L1    26  0.74
      L1  C    19    42       P1 10171  0.03

> <Gold.PLP.Chemscore.Internal.Correction>
0.5064

> <Gold.Rescore>
     Score         DG    S(hbond)    S(metal)    S(lipo)     H(rot)  DE(clash)    DE(int)     intcor
     11.23     -16.00       2.69        0.00      84.58       3.27       1.97       2.79       ----

> <Gold.Chemscore.Fitness>
11.2336

> <Gold.Chemscore.DG>
-15.9958

> <Gold.Chemscore.ZeroCoef>
-5.4800

> <Gold.Chemscore.Hbond>
2.6921

> <Gold.Chemscore.Metal>
0.0000

> <Gold.Chemscore.Lipo>
84.5831

> <Gold.Chemscore.Internal_Hbond>
0.0000

> <Gold.Chemscore.DEClash>
1.9677

> <Gold.Chemscore.DEInternal>
2.7945

> <Gold.Chemscore.Rot>
3.2703

> <Gold.Chemscore.Internal.Correction>
   9.000000E+99

> <Gold.Chemscore.Hbonds>
donor molecule, donor type, donor heavy atom, donor atom, acceptor molecule, acceptor atom, score
      L1  H    24    47       P1 10747  0.73
      P1  H  7989  7998       L1     3  0.91
      P1  H 10785 10796       L1    26  0.61

> <Gold.Chemscore.Hbond.Weighted>
-8.9916

> <Gold.Chemscore.Metal.Weighted>
-0.0000

> <Gold.Chemscore.Lipo.Weighted>
-9.8962

> <Gold.Chemscore.Internal_Hbond.Weighted>
0.0000

> <Gold.Chemscore.DEClash.Weighted>
1.9677

> <Gold.Chemscore.DEInternal.Weighted>
2.7945

> <Gold.Chemscore.Rot.Weighted>
8.3721

> <Gold.Chemscore.Internal.Correction.Weighted>
   9.000000E+99

> <Gold.Protein.RotatedTorsions>
[ 6907 6896 6895 6894 ] final   17.26 input  -60.11 | X-H torsion
[ 7974 7965 7964 7962 ] final   -8.74 input  175.53 | X-H torsion
[ 8008 7997 7996 7995 ] final   59.33 input   59.86 | X-H torsion
[ 10167 10162 10161 10158 ] final  -96.00 input  -65.29 | X-H torsion
[ 10718 10713 10712 10709 ] final   13.39 input   66.30 | X-H torsion
[ 10763 10752 10751 10750 ] final  -43.84 input  -60.55 | X-H torsion
[ 11005 11000 10999 10996 ] final  -52.21 input  -57.11 | X-H torsion

> <Gold.Protein.ActiveResidues>
 VAL166  LYS551  ARG553  GLY616  TRP617  ASP618  TYR619  PRO620  LYS621  CYS622 
 ASP623  PHE694  ASN695  SER759  ASP760  ASP761  ALA762  ILE779  LEU786  VAL792 
 PHE793  MET794  SER795  GLU796  ALA797  LYS798  CYS799  TRP800  GLU811  SER814 

> <Gold.Protein.RotatedAtoms>
  151.8468  135.0571  160.0454 H   0  0  0  0  0  0  0  0  0  0  0  0  # atno 6907 bound_to 6896
  152.2767  133.5427  159.5480 H   0  0  0  0  0  0  0  0  0  0  0  0  # atno 6908 bound_to 6896
  150.7173  134.0538  159.3850 H   0  0  0  0  0  0  0  0  0  0  0  0  # atno 6909 bound_to 6896
  146.2272  140.2513  142.8347 H   0  0  0  0  0  0  0  0  0  0  0  0  # atno 7974 bound_to 7965
  155.5644  140.3489  155.4499 H   0  0  0  0  0  0  0  0  0  0  0  0  # atno 8008 bound_to 7997
  156.0490  140.1313  157.0096 H   0  0  0  0  0  0  0  0  0  0  0  0  # atno 8009 bound_to 7997
  154.4426  140.1008  156.6334 H   0  0  0  0  0  0  0  0  0  0  0  0  # atno 8010 bound_to 7997
  140.2983  143.3178  152.0274 H   0  0  0  0  0  0  0  0  0  0  0  0  # atno 10167 bound_to 10162
  157.0240  130.6166  149.5725 H   0  0  0  0  0  0  0  0  0  0  0  0  # atno 10718 bound_to 10713
  154.0021  135.6692  153.4760 H   0  0  0  0  0  0  0  0  0  0  0  0  # atno 10763 bound_to 10752
  153.0658  135.5002  154.8192 H   0  0  0  0  0  0  0  0  0  0  0  0  # atno 10764 bound_to 10752
  154.7046  135.3085  154.9253 H   0  0  0  0  0  0  0  0  0  0  0  0  # atno 10765 bound_to 10752
  141.0912  133.6632  156.3990 H   0  0  0  0  0  0  0  0  0  0  0  0  # atno 11005 bound_to 11000
  144.9409  140.8077  143.5631 LP  0  0  0  0  0  0  0  0  0  0  0  0  # atno 17320 bound_to 7965
  145.2465  139.2050  143.4965 LP  0  0  0  0  0  0  0  0  0  0  0  0  # atno 17321 bound_to 7965
  139.4921  144.6474  151.6748 LP  0  0  0  0  0  0  0  0  0  0  0  0  # atno 17342 bound_to 10162
  140.5673  144.0168  150.6199 LP  0  0  0  0  0  0  0  0  0  0  0  0  # atno 17343 bound_to 10162
  156.0092  130.5182  150.7934 LP  0  0  0  0  0  0  0  0  0  0  0  0  # atno 17370 bound_to 10713
  157.5228  131.0932  151.0056 LP  0  0  0  0  0  0  0  0  0  0  0  0  # atno 17371 bound_to 10713
  140.5247  134.6270  157.5330 LP  0  0  0  0  0  0  0  0  0  0  0  0  # atno 17394 bound_to 11000
  139.9738  134.7248  155.9988 LP  0  0  0  0  0  0  0  0  0  0  0  0  # atno 17395 bound_to 11000

$$$$
