AV-unprocessed.smi:1933|AV-procd|sdf|7819|dock8
  -GOLD-   22720 9563D 1   1.00000     0.00000
 Structure written by MMmdl.
 48 50  0  0  0  0  0  0  0  0  2 V2000
  144.9481  135.4468  153.9907 O   0  0  0  0  0  0  0  0  0  0  0  0
  146.0331  135.6161  153.4341 C   0  0  0  0  0  0  0  0  0  0  0  0
  147.0024  136.4042  153.9225 N   0  0  0  0  0  0  0  0  0  0  0  0
  146.9324  137.1785  155.1583 C   0  0  0  0  0  0  0  0  0  0  0  0
  148.2689  137.8896  155.5103 C   0  0  2  0  0  0  0  0  0  0  0  0
  148.6043  137.9043  157.0302 C   0  0  2  0  0  0  0  0  0  0  0  0
  150.0551  138.2463  157.3423 C   0  0  0  0  0  0  0  0  0  0  0  0
  150.2170  137.7057  158.7542 C   0  0  0  0  0  0  0  0  0  0  0  0
  149.5138  136.4759  158.7188 O   0  0  0  0  0  0  0  0  0  0  0  0
  148.4551  136.5618  157.7691 C   0  0  0  0  0  0  0  0  0  0  0  0
  148.3095  139.2834  154.9723 N   0  3  0  0  0  0  0  0  0  0  0  0
  149.6763  139.8398  154.8228 C   0  0  0  0  0  0  0  0  0  0  0  0
  149.6002  141.3340  154.4646 C   0  0  0  0  0  0  0  0  0  0  0  0
  148.8278  141.5073  153.2821 O   0  0  0  0  0  0  0  0  0  0  0  0
  147.4912  141.0454  153.4404 C   0  0  0  0  0  0  0  0  0  0  0  0
  147.5027  139.5397  153.7517 C   0  0  0  0  0  0  0  0  0  0  0  0
  146.4146  135.0409  152.2803 N   0  0  0  0  0  0  0  0  0  0  0  0
  145.7051  134.0957  151.4932 C   0  0  0  0  0  0  0  0  0  0  0  0
  146.5154  133.1724  150.7945 C   0  0  0  0  0  0  0  0  0  0  0  0
  145.9087  132.1888  149.9897 C   0  0  0  0  0  0  0  0  0  0  0  0
  144.5054  132.1534  149.9052 C   0  0  0  0  0  0  0  0  0  0  0  0
  143.7728  133.1082  150.6341 C   0  0  0  0  0  0  0  0  0  0  0  0
  144.3522  134.0522  151.4058 N   0  0  0  0  0  0  0  0  0  0  0  0
  147.8584  136.4782  153.3919 H   0  0  0  0  0  0  0  0  0  0  0  0
  146.1396  137.9122  155.0159 H   0  0  0  0  0  0  0  0  0  0  0  0
  146.6117  136.5468  155.9876 H   0  0  0  0  0  0  0  0  0  0  0  0
  149.0762  137.3441  155.0189 H   0  0  0  0  0  0  0  0  0  0  0  0
  147.9717  138.6354  157.5358 H   0  0  0  0  0  0  0  0  0  0  0  0
  150.7293  137.7197  156.6649 H   0  0  0  0  0  0  0  0  0  0  0  0
  150.2690  139.3136  157.2790 H   0  0  0  0  0  0  0  0  0  0  0  0
  151.2601  137.5655  159.0383 H   0  0  0  0  0  0  0  0  0  0  0  0
  149.7464  138.3708  159.4800 H   0  0  0  0  0  0  0  0  0  0  0  0
  147.4958  136.4922  158.2813 H   0  0  0  0  0  0  0  0  0  0  0  0
  148.5398  135.7124  157.0908 H   0  0  0  0  0  0  0  0  0  0  0  0
  150.2356  139.7167  155.7509 H   0  0  0  0  0  0  0  0  0  0  0  0
  150.2200  139.3022  154.0454 H   0  0  0  0  0  0  0  0  0  0  0  0
  149.1645  141.9087  155.2837 H   0  0  0  0  0  0  0  0  0  0  0  0
  150.6012  141.7310  154.2949 H   0  0  0  0  0  0  0  0  0  0  0  0
  146.9900  141.6046  154.2323 H   0  0  0  0  0  0  0  0  0  0  0  0
  146.9404  141.2347  152.5189 H   0  0  0  0  0  0  0  0  0  0  0  0
  147.9220  139.0034  152.8995 H   0  0  0  0  0  0  0  0  0  0  0  0
  146.4807  139.1868  153.8863 H   0  0  0  0  0  0  0  0  0  0  0  0
  147.3286  135.2916  151.9336 H   0  0  0  0  0  0  0  0  0  0  0  0
  147.5924  133.2133  150.8713 H   0  0  0  0  0  0  0  0  0  0  0  0
  146.5106  131.4745  149.4475 H   0  0  0  0  0  0  0  0  0  0  0  0
  144.0037  131.4139  149.2988 H   0  0  0  0  0  0  0  0  0  0  0  0
  142.6934  133.1147  150.5982 H   0  0  0  0  0  0  0  0  0  0  0  0
  147.8841  139.8440  155.6970 H   0  0  0  0  0  0  0  0  0  0  0  0
  1  2  2  0  0  0  0
  2  3  1  0  0  0  0
  2 17  1  0  0  0  0
  3  4  1  0  0  0  0
  3 24  1  0  0  0  0
  4  5  1  0  0  0  0
  4 25  1  0  0  0  0
  4 26  1  0  0  0  0
  5  6  1  0  0  0  0
  5 11  1  0  0  0  0
  5 27  1  0  0  0  0
  6 10  1  0  0  0  0
  6  7  1  0  0  0  0
  6 28  1  0  0  0  0
  7  8  1  0  0  0  0
  7 29  1  0  0  0  0
  7 30  1  0  0  0  0
  8  9  1  0  0  0  0
  8 31  1  0  0  0  0
  8 32  1  0  0  0  0
  9 10  1  0  0  0  0
 10 33  1  0  0  0  0
 10 34  1  0  0  0  0
 11 16  1  0  0  0  0
 11 12  1  0  0  0  0
 11 48  1  0  0  0  0
 12 13  1  0  0  0  0
 12 35  1  0  0  0  0
 12 36  1  0  0  0  0
 13 14  1  0  0  0  0
 13 37  1  0  0  0  0
 13 38  1  0  0  0  0
 14 15  1  0  0  0  0
 15 16  1  0  0  0  0
 15 39  1  0  0  0  0
 15 40  1  0  0  0  0
 16 41  1  0  0  0  0
 16 42  1  0  0  0  0
 17 18  1  0  0  0  0
 17 43  1  0  0  0  0
 18 23  1  0  0  0  0
 18 19  2  0  0  0  0
 19 20  1  0  0  0  0
 19 44  1  0  0  0  0
 20 21  2  0  0  0  0
 20 45  1  0  0  0  0
 21 22  1  0  0  0  0
 21 46  1  0  0  0  0
 22 23  2  0  0  0  0
 22 47  1  0  0  0  0
M  CHG  1  11   1
M  END
> <s_m_source_file>
AV-unprocessed.smi

> <i_m_source_file_index>
1933

> <i_lp_mmshare_version>
43012

> <i_f3d_flags>
0

> <s_epik_input>
bjFbY0hdW2NIXVtjSF1bY0hdYzFbTkhdQyg9TylbTkhdW0NIMl1bQ0BIXShbQ0BASF0yW0NIMl1bQ0gyXU9bQ0gyXTIpTjNbQ0gyXVtDSDJdT1tDSDJdW0NIMl0z

> <s_epik_cmdline>
J2VwaWtfcHl0aG9uJywgJy1waCcsICc3LjAnLCAnLXRuJywgJzgnLCAnLW1hJywgJzIwMCcsICctbWV0YWxfYmluZGluZycsICctaW1hZScsICc8aW5maWxlLm1hZT4nLCAnLW9tYWUnLCAnPG91dGZpbGUubWFlPic=

> <r_epik_Ionization_Penalty>
0.983294

> <r_epik_Ionization_Penalty_Charging>
0.98326

> <r_epik_Ionization_Penalty_Neutral>
3.39688e-05

> <r_epik_State_Penalty>
1.0303

> <r_epik_Charging_Adjusted_Penalty>
2.01356

> <i_epik_Tot_Q>
1

> <i_epik_Tot_abs_Q>
1

> <r_epik_Metal_State_Penalty>
1.0303

> <b_epik_Metal_Only>
0

> <s_lp_Force_Field>
OPLS_2005

> <r_lp_Energy>
40.1747

> <b_lp_Chiralities_Consistent>
1

> <s_lp_Variant>
AV-unprocessed.smi:1933-5

> <Gold.Version>
5.8.1

> <Gold.Id.Protein>
6NUR|6NUR_protein|mol2

> <Gold.PLP.Fitness>
43.5148

> <Gold.PLP.PLP>
-31.6433

> <Gold.PLP.part.hbond>
-4.0000

> <Gold.PLP.part.metal>
0.0000

> <Gold.PLP.part.buried>
-5.2207

> <Gold.PLP.part.nonpolar>
-24.1739

> <Gold.PLP.part.repulsive>
1.4634

> <Gold.PLP.ligand.clash>
0.0000

> <Gold.PLP.ligand.torsion>
1.3252

> <Gold.PLP.Chemscore.Hbond>
3.7680

> <Gold.PLP.Chemscore.CHOScore>
1.0000

> <Gold.PLP.Chemscore.Metal>
0.0000

> <Gold.Chemscore.Hbonds>
donor molecule, donor type, donor heavy atom, donor atom, acceptor molecule, acceptor atom, score
      L1  H     3    24       P1  7948  1.00
      L1  H    17    43       P1  7948  1.00
      P1  H  6896  6907       L1     9  0.18
      P1  H  8011  8017       L1    14  0.85
      L1  C    22    47       P1 10186  1.00

> <Gold.PLP.Chemscore.Internal.Correction>
0.2180

> <Gold.Rescore>
     Score         DG    S(hbond)    S(metal)    S(lipo)     H(rot)  DE(clash)    DE(int)     intcor
     18.65     -21.85       3.63        0.00      75.00       1.77       0.04       3.17       ----

> <Gold.Chemscore.Fitness>
18.6526

> <Gold.Chemscore.DG>
-21.8542

> <Gold.Chemscore.ZeroCoef>
-5.4800

> <Gold.Chemscore.Hbond>
3.6295

> <Gold.Chemscore.Metal>
0.0000

> <Gold.Chemscore.Lipo>
75.0048

> <Gold.Chemscore.Internal_Hbond>
0.0000

> <Gold.Chemscore.DEClash>
0.0359

> <Gold.Chemscore.DEInternal>
3.1657

> <Gold.Chemscore.Rot>
1.7671

> <Gold.Chemscore.Internal.Correction>
   9.000000E+99

> <Gold.Chemscore.Hbonds>
donor molecule, donor type, donor heavy atom, donor atom, acceptor molecule, acceptor atom, score
      L1  H     3    24       P1  7948  0.98
      L1  H    17    43       P1  7948  0.98
      P1  H  6896  6907       L1     9  0.17
      P1  H  8011  8017       L1    14  0.38

> <Gold.Chemscore.Hbond.Weighted>
-12.1225

> <Gold.Chemscore.Metal.Weighted>
-0.0000

> <Gold.Chemscore.Lipo.Weighted>
-8.7756

> <Gold.Chemscore.Internal_Hbond.Weighted>
0.0000

> <Gold.Chemscore.DEClash.Weighted>
0.0359

> <Gold.Chemscore.DEInternal.Weighted>
3.1657

> <Gold.Chemscore.Rot.Weighted>
4.5238

> <Gold.Chemscore.Internal.Correction.Weighted>
   9.000000E+99

> <Gold.Protein.RotatedTorsions>
[ 6907 6896 6895 6894 ] final  -69.05 input  -60.11 | X-H torsion
[ 7974 7965 7964 7962 ] final   24.61 input  175.53 | X-H torsion
[ 8008 7997 7996 7995 ] final   27.15 input   59.86 | X-H torsion
[ 10167 10162 10161 10158 ] final -150.09 input  -65.29 | X-H torsion
[ 10718 10713 10712 10709 ] final   43.48 input   66.30 | X-H torsion
[ 10763 10752 10751 10750 ] final   52.25 input  -60.55 | X-H torsion
[ 11005 11000 10999 10996 ] final -119.06 input  -57.11 | X-H torsion

> <Gold.Protein.ActiveResidues>
 VAL166  LYS551  ARG553  GLY616  TRP617  ASP618  TYR619  PRO620  LYS621  CYS622 
 ASP623  PHE694  ASN695  SER759  ASP760  ASP761  ALA762  ILE779  LEU786  VAL792 
 PHE793  MET794  SER795  GLU796  ALA797  LYS798  CYS799  TRP800  GLU811  SER814 

> <Gold.Protein.RotatedAtoms>
  150.7325  134.5652  159.5861 H   0  0  0  0  0  0  0  0  0  0  0  0  # atno 6907 bound_to 6896
  152.3105  134.7500  160.0346 H   0  0  0  0  0  0  0  0  0  0  0  0  # atno 6908 bound_to 6896
  151.8050  133.3339  159.3575 H   0  0  0  0  0  0  0  0  0  0  0  0  # atno 6909 bound_to 6896
  146.1929  139.7581  142.8818 H   0  0  0  0  0  0  0  0  0  0  0  0  # atno 7974 bound_to 7965
  155.0384  140.3166  155.4733 H   0  0  0  0  0  0  0  0  0  0  0  0  # atno 8008 bound_to 7997
  156.2860  140.2167  156.5450 H   0  0  0  0  0  0  0  0  0  0  0  0  # atno 8009 bound_to 7997
  154.7311  140.0481  157.0715 H   0  0  0  0  0  0  0  0  0  0  0  0  # atno 8010 bound_to 7997
  139.7384  143.8699  152.2555 H   0  0  0  0  0  0  0  0  0  0  0  0  # atno 10167 bound_to 10162
  157.4164  130.7944  149.7476 H   0  0  0  0  0  0  0  0  0  0  0  0  # atno 10718 bound_to 10713
  152.9788  135.5818  154.4549 H   0  0  0  0  0  0  0  0  0  0  0  0  # atno 10763 bound_to 10752
  154.4133  135.2770  155.2025 H   0  0  0  0  0  0  0  0  0  0  0  0  # atno 10764 bound_to 10752
  154.3806  135.6147  153.5842 H   0  0  0  0  0  0  0  0  0  0  0  0  # atno 10765 bound_to 10752
  141.0242  134.0078  157.3238 H   0  0  0  0  0  0  0  0  0  0  0  0  # atno 11005 bound_to 11000
  145.3736  141.0347  143.3217 LP  0  0  0  0  0  0  0  0  0  0  0  0  # atno 17320 bound_to 7965
  144.8522  139.5304  143.6851 LP  0  0  0  0  0  0  0  0  0  0  0  0  # atno 17321 bound_to 7965
  139.8643  144.7101  150.9063 LP  0  0  0  0  0  0  0  0  0  0  0  0  # atno 17342 bound_to 10162
  140.7782  143.3791  151.1509 LP  0  0  0  0  0  0  0  0  0  0  0  0  # atno 17343 bound_to 10162
  155.9866  130.3973  150.3202 LP  0  0  0  0  0  0  0  0  0  0  0  0  # atno 17370 bound_to 10713
  157.1346  131.0280  151.2954 LP  0  0  0  0  0  0  0  0  0  0  0  0  # atno 17371 bound_to 10713
  139.9165  135.0197  156.7902 LP  0  0  0  0  0  0  0  0  0  0  0  0  # atno 17394 bound_to 11000
  140.6520  133.9723  155.7760 LP  0  0  0  0  0  0  0  0  0  0  0  0  # atno 17395 bound_to 11000

$$$$
