AV-unprocessed.smi:1791|AV-procd|sdf|7218|dock1
  -GOLD-   22720 8463D 1   1.00000     0.00000
 Structure written by MMmdl.
 38 39  0  0  0  0  0  0  0  0  1 V2000
  149.1131  129.2343  154.1019 C   0  0  0  0  0  0  0  0  0  0  0  0
  149.9177  130.0053  154.9879 O   0  0  0  0  0  0  0  0  0  0  0  0
  150.0552  131.3558  154.7397 C   0  0  0  0  0  0  0  0  0  0  0  0
  150.9190  132.1083  155.5600 C   0  0  0  0  0  0  0  0  0  0  0  0
  151.0585  133.4889  155.3189 C   0  0  0  0  0  0  0  0  0  0  0  0
  150.3200  134.0766  154.2636 C   0  0  0  0  0  0  0  0  0  0  0  0
  150.3704  135.4523  153.9089 N   0  0  0  0  0  0  0  0  0  0  0  0
  151.1321  136.4320  154.4252 C   0  0  0  0  0  0  0  0  0  0  0  0
  151.9806  136.2891  155.3046 O   0  0  0  0  0  0  0  0  0  0  0  0
  150.8415  137.6114  153.8572 N   0  0  0  0  0  0  0  0  0  0  0  0
  151.4592  138.8972  154.1778 C   0  0  2  0  0  0  0  0  0  0  0  0
  152.9663  138.6855  154.3832 C   0  0  0  0  0  0  0  0  0  0  0  0
  150.7912  139.5115  155.4236 C   0  0  2  0  0  0  0  0  0  0  0  0
  149.3228  139.9029  155.2429 C   0  0  0  0  0  0  0  0  0  0  0  0
  149.1146  141.0066  156.2687 C   0  0  0  0  0  0  0  0  0  0  0  0
  150.5332  141.3982  156.6912 C   0  0  0  0  0  0  0  0  0  0  0  0
  151.3874  140.7555  155.7562 O   0  0  0  0  0  0  0  0  0  0  0  0
  149.4961  133.2323  153.4914 C   0  0  0  0  0  0  0  0  0  0  0  0
  149.3578  131.9091  153.7173 N   0  0  0  0  0  0  0  0  0  0  0  0
  149.0951  128.1982  154.4392 H   0  0  0  0  0  0  0  0  0  0  0  0
  149.5146  129.2452  153.0876 H   0  0  0  0  0  0  0  0  0  0  0  0
  148.0832  129.5934  154.0831 H   0  0  0  0  0  0  0  0  0  0  0  0
  151.4668  131.6344  156.3612 H   0  0  0  0  0  0  0  0  0  0  0  0
  151.7319  134.0576  155.9399 H   0  0  0  0  0  0  0  0  0  0  0  0
  149.6883  135.7431  153.2238 H   0  0  0  0  0  0  0  0  0  0  0  0
  150.1276  137.6245  153.1439 H   0  0  0  0  0  0  0  0  0  0  0  0
  151.3359  139.5905  153.3440 H   0  0  0  0  0  0  0  0  0  0  0  0
  153.4704  139.6270  154.6031 H   0  0  0  0  0  0  0  0  0  0  0  0
  153.4290  138.2688  153.4880 H   0  0  0  0  0  0  0  0  0  0  0  0
  153.1638  138.0024  155.2100 H   0  0  0  0  0  0  0  0  0  0  0  0
  150.8888  138.8372  156.2771 H   0  0  0  0  0  0  0  0  0  0  0  0
  149.1601  140.3028  154.2410 H   0  0  0  0  0  0  0  0  0  0  0  0
  148.6434  139.0615  155.3819 H   0  0  0  0  0  0  0  0  0  0  0  0
  148.5791  141.8481  155.8281 H   0  0  0  0  0  0  0  0  0  0  0  0
  148.5406  140.6553  157.1267 H   0  0  0  0  0  0  0  0  0  0  0  0
  150.6890  142.4771  156.6901 H   0  0  0  0  0  0  0  0  0  0  0  0
  150.7522  141.0234  157.6921 H   0  0  0  0  0  0  0  0  0  0  0  0
  148.9221  133.6310  152.6676 H   0  0  0  0  0  0  0  0  0  0  0  0
  1  2  1  0  0  0  0
  1 20  1  0  0  0  0
  1 21  1  0  0  0  0
  1 22  1  0  0  0  0
  2  3  1  0  0  0  0
  3 19  1  0  0  0  0
  3  4  2  0  0  0  0
  4  5  1  0  0  0  0
  4 23  1  0  0  0  0
  5  6  2  0  0  0  0
  5 24  1  0  0  0  0
  6  7  1  0  0  0  0
  6 18  1  0  0  0  0
  7  8  1  0  0  0  0
  7 25  1  0  0  0  0
  8  9  2  0  0  0  0
  8 10  1  0  0  0  0
 10 11  1  0  0  0  0
 10 26  1  0  0  0  0
 11 12  1  0  0  0  0
 11 13  1  0  0  0  0
 11 27  1  0  0  0  0
 12 28  1  0  0  0  0
 12 29  1  0  0  0  0
 12 30  1  0  0  0  0
 13 17  1  0  0  0  0
 13 14  1  0  0  0  0
 13 31  1  0  0  0  0
 14 15  1  0  0  0  0
 14 32  1  0  0  0  0
 14 33  1  0  0  0  0
 15 16  1  0  0  0  0
 15 34  1  0  0  0  0
 15 35  1  0  0  0  0
 16 17  1  0  0  0  0
 16 36  1  0  0  0  0
 16 37  1  0  0  0  0
 18 19  2  0  0  0  0
 18 38  1  0  0  0  0
M  END
> <s_m_source_file>
AV-unprocessed.smi

> <i_m_source_file_index>
1791

> <i_lp_mmshare_version>
43012

> <i_f3d_flags>
0

> <s_epik_input>
W0NIM11PYzFbY0hdW2NIXWMoW2NIXW4xKVtOSF1DKD1PKVtOSF1bQ0BIXShbQ0gzXSlbQ0BASF0yW0NIMl1bQ0gyXVtDSDJdTzI=

> <s_epik_cmdline>
J2VwaWtfcHl0aG9uJywgJy1waCcsICc3LjAnLCAnLXRuJywgJzgnLCAnLW1hJywgJzIwMCcsICctbWV0YWxfYmluZGluZycsICctaW1hZScsICc8aW5maWxlLm1hZT4nLCAnLW9tYWUnLCAnPG91dGZpbGUubWFlPic=

> <r_lp_tautomer_probability>
1

> <r_epik_Ionization_Penalty>
9.18737e-05

> <r_epik_Ionization_Penalty_Charging>
0

> <r_epik_Ionization_Penalty_Neutral>
9.18737e-05

> <r_epik_State_Penalty>
-0

> <r_epik_Charging_Adjusted_Penalty>
0

> <i_epik_Tot_Q>
0

> <i_epik_Tot_abs_Q>
0

> <r_epik_Metal_State_Penalty>
-0

> <b_epik_Metal_Only>
0

> <s_lp_Force_Field>
OPLS_2005

> <r_lp_Energy>
20.7661

> <b_lp_Chiralities_Consistent>
1

> <s_lp_Variant>
AV-unprocessed.smi:1791-1

> <Gold.Version>
5.8.1

> <Gold.Id.Protein>
6NUR|6NUR_protein|mol2

> <Gold.PLP.Fitness>
38.8879

> <Gold.PLP.PLP>
-30.4864

> <Gold.PLP.part.hbond>
-6.0000

> <Gold.PLP.part.metal>
0.0000

> <Gold.PLP.part.buried>
-1.3863

> <Gold.PLP.part.nonpolar>
-24.3522

> <Gold.PLP.part.repulsive>
0.2916

> <Gold.PLP.ligand.clash>
0.0000

> <Gold.PLP.ligand.torsion>
0.3370

> <Gold.PLP.Chemscore.Hbond>
2.8239

> <Gold.PLP.Chemscore.CHOScore>
0.1846

> <Gold.PLP.Chemscore.Metal>
0.0000

> <Gold.Chemscore.Hbonds>
donor molecule, donor type, donor heavy atom, donor atom, acceptor molecule, acceptor atom, score
      L1  H     7    25       P1  7948  0.55
      L1  H    10    26       P1  7948  0.46
      P1  H  7989  7998       L1    17  0.05
      P1  H 10752 10764       L1     9  0.71
      L1  C    18    38       P1  7948  0.02

> <Gold.PLP.Chemscore.Internal.Correction>
0.0498

> <Gold.Rescore>
     Score         DG    S(hbond)    S(metal)    S(lipo)     H(rot)  DE(clash)    DE(int)     intcor
     12.49     -15.10       1.85        0.00      61.48       1.47       0.03       2.58       ----

> <Gold.Chemscore.Fitness>
12.4876

> <Gold.Chemscore.DG>
-15.0989

> <Gold.Chemscore.ZeroCoef>
-5.4800

> <Gold.Chemscore.Hbond>
1.8523

> <Gold.Chemscore.Metal>
0.0000

> <Gold.Chemscore.Lipo>
61.4845

> <Gold.Chemscore.Internal_Hbond>
0.0000

> <Gold.Chemscore.DEClash>
0.0280

> <Gold.Chemscore.DEInternal>
2.5834

> <Gold.Chemscore.Rot>
1.4693

> <Gold.Chemscore.Internal.Correction>
   9.000000E+99

> <Gold.Chemscore.Hbonds>
donor molecule, donor type, donor heavy atom, donor atom, acceptor molecule, acceptor atom, score
      L1  H     7    25       P1  7948  0.03
      L1  H    10    26       P1  7948  0.09
      P1  H 10752 10764       L1     9  0.64

> <Gold.Chemscore.Hbond.Weighted>
-6.1865

> <Gold.Chemscore.Metal.Weighted>
-0.0000

> <Gold.Chemscore.Lipo.Weighted>
-7.1937

> <Gold.Chemscore.Internal_Hbond.Weighted>
0.0000

> <Gold.Chemscore.DEClash.Weighted>
0.0280

> <Gold.Chemscore.DEInternal.Weighted>
2.5834

> <Gold.Chemscore.Rot.Weighted>
3.7613

> <Gold.Chemscore.Internal.Correction.Weighted>
   9.000000E+99

> <Gold.Protein.RotatedTorsions>
[ 6907 6896 6895 6894 ] final   21.95 input  -60.11 | X-H torsion
[ 7974 7965 7964 7962 ] final -167.40 input  175.53 | X-H torsion
[ 8008 7997 7996 7995 ] final  152.67 input   59.86 | X-H torsion
[ 10167 10162 10161 10158 ] final -167.85 input  -65.29 | X-H torsion
[ 10718 10713 10712 10709 ] final   -8.61 input   66.30 | X-H torsion
[ 10763 10752 10751 10750 ] final  -31.92 input  -60.55 | X-H torsion
[ 11005 11000 10999 10996 ] final  132.71 input  -57.11 | X-H torsion

> <Gold.Protein.ActiveResidues>
 VAL166  LYS551  ARG553  GLY616  TRP617  ASP618  TYR619  PRO620  LYS621  CYS622 
 ASP623  PHE694  ASN695  SER759  ASP760  ASP761  ALA762  ILE779  LEU786  VAL792 
 PHE793  MET794  SER795  GLU796  ALA797  LYS798  CYS799  TRP800  GLU811  SER814 

> <Gold.Protein.RotatedAtoms>
  151.9196  135.0304  160.0520 H   0  0  0  0  0  0  0  0  0  0  0  0  # atno 6907 bound_to 6896
  152.2210  133.4979  159.5171 H   0  0  0  0  0  0  0  0  0  0  0  0  # atno 6908 bound_to 6896
  150.7000  134.1259  159.4094 H   0  0  0  0  0  0  0  0  0  0  0  0  # atno 6909 bound_to 6896
  144.7224  140.2524  143.6276 H   0  0  0  0  0  0  0  0  0  0  0  0  # atno 7974 bound_to 7965
  156.2618  140.2014  156.6369 H   0  0  0  0  0  0  0  0  0  0  0  0  # atno 8008 bound_to 7997
  154.6639  140.0557  157.0117 H   0  0  0  0  0  0  0  0  0  0  0  0  # atno 8009 bound_to 7997
  155.1235  140.3227  155.4494 H   0  0  0  0  0  0  0  0  0  0  0  0  # atno 8010 bound_to 7997
  139.6022  144.0986  152.1755 H   0  0  0  0  0  0  0  0  0  0  0  0  # atno 10167 bound_to 10162
  156.7001  130.5091  149.5919 H   0  0  0  0  0  0  0  0  0  0  0  0  # atno 10718 bound_to 10713
  153.8052  135.6887  153.4849 H   0  0  0  0  0  0  0  0  0  0  0  0  # atno 10763 bound_to 10752
  153.1663  135.4560  154.9840 H   0  0  0  0  0  0  0  0  0  0  0  0  # atno 10764 bound_to 10752
  154.7990  135.3330  154.7537 H   0  0  0  0  0  0  0  0  0  0  0  0  # atno 10765 bound_to 10752
  139.9806  134.9549  156.9620 H   0  0  0  0  0  0  0  0  0  0  0  0  # atno 11005 bound_to 11000
  145.8215  139.2046  143.1935 LP  0  0  0  0  0  0  0  0  0  0  0  0  # atno 17320 bound_to 7965
  146.0510  140.8069  142.9782 LP  0  0  0  0  0  0  0  0  0  0  0  0  # atno 17321 bound_to 7965
  140.0585  144.5876  150.7281 LP  0  0  0  0  0  0  0  0  0  0  0  0  # atno 17342 bound_to 10162
  140.7258  143.2635  151.4123 LP  0  0  0  0  0  0  0  0  0  0  0  0  # atno 17343 bound_to 10162
  156.1735  130.6452  151.0865 LP  0  0  0  0  0  0  0  0  0  0  0  0  # atno 17370 bound_to 10713
  157.6976  131.0788  150.6921 LP  0  0  0  0  0  0  0  0  0  0  0  0  # atno 17371 bound_to 10713
  140.5103  134.1008  155.7269 LP  0  0  0  0  0  0  0  0  0  0  0  0  # atno 17394 bound_to 11000
  141.1479  133.9022  157.2171 LP  0  0  0  0  0  0  0  0  0  0  0  0  # atno 17395 bound_to 11000

$$$$
