AV-unprocessed.smi:203|AV-procd|sdf|1595|dock10
  -GOLD-   2262019503D 1   1.00000     0.00000
 Structure written by MMmdl.
 57 61  0  0  0  0  0  0  0  0  1 V2000
  157.4332  137.4985  160.5020 O   0  0  0  0  0  0  0  0  0  0  0  0
  156.3801  137.9954  160.8943 C   0  0  0  0  0  0  0  0  0  0  0  0
  155.0672  137.8854  160.1380 C   0  0  0  0  0  0  0  0  0  0  0  0
  154.1338  138.8574  160.8862 C   0  0  2  0  0  0  0  0  0  0  0  0
  153.7536  140.1308  160.0647 C   0  0  2  0  0  0  0  0  0  0  0  0
  153.4182  141.3486  160.9661 C   0  0  0  0  0  0  0  0  0  0  0  0
  153.0458  142.5853  160.1380 C   0  0  0  0  0  0  0  0  0  0  0  0
  151.8870  142.2498  159.1937 C   0  0  0  0  0  0  0  0  0  0  0  0
  152.2517  141.0509  158.3085 C   0  0  0  0  0  0  0  0  0  0  0  0
  152.6522  139.8965  159.1127 N   0  0  0  0  0  0  0  0  0  0  0  0
  152.7580  138.7973  158.3329 C   0  0  0  0  0  0  0  0  0  0  0  0
  153.9481  138.5853  157.7194 N   0  0  0  0  0  0  0  0  0  0  0  0
  154.1087  137.5225  156.9251 C   0  0  0  0  0  0  0  0  0  0  0  0
  153.2271  136.5680  156.6179 N   0  0  0  0  0  0  0  0  0  0  0  0
  152.0324  136.7759  157.2423 C   0  0  0  0  0  0  0  0  0  0  0  0
  151.7135  137.8558  158.1123 C   0  0  0  0  0  0  0  0  0  0  0  0
  150.4029  137.7353  158.5586 N   0  0  0  0  0  0  0  0  0  0  0  0
  149.9696  136.6479  157.9814 C   0  0  0  0  0  0  0  0  0  0  0  0
  150.8817  136.0111  157.1711 N   0  0  0  0  0  0  0  0  0  0  0  0
  150.6615  134.7926  156.4117 C   0  0  0  0  0  0  0  0  0  0  0  0
  149.5100  134.9347  155.3931 C   0  0  1  0  0  0  0  0  0  0  0  0
  149.6787  136.1609  154.7074 O   0  0  0  0  0  0  0  0  0  0  0  0
  149.4865  133.8065  154.3423 C   0  0  1  0  0  0  0  0  0  0  0  0
  149.4310  132.3906  154.9199 C   0  0  0  0  0  0  0  0  0  0  0  0
  148.8127  131.5705  153.7999 C   0  0  0  0  0  0  0  0  0  0  0  0
  148.1379  132.6168  152.9101 C   0  0  0  0  0  0  0  0  0  0  0  0
  148.2661  133.8433  153.6165 O   0  0  0  0  0  0  0  0  0  0  0  0
  154.8626  139.1633  162.2143 C   0  0  0  0  0  0  0  0  0  0  0  0
  156.2189  138.6898  162.0184 N   0  0  0  0  0  0  0  0  0  0  0  0
  155.1866  138.1238  159.0811 H   0  0  0  0  0  0  0  0  0  0  0  0
  154.7044  136.8595  160.2110 H   0  0  0  0  0  0  0  0  0  0  0  0
  153.2254  138.2989  161.1143 H   0  0  0  0  0  0  0  0  0  0  0  0
  154.6280  140.4074  159.4748 H   0  0  0  0  0  0  0  0  0  0  0  0
  152.5881  141.1105  161.6311 H   0  0  0  0  0  0  0  0  0  0  0  0
  154.2610  141.5998  161.6093 H   0  0  0  0  0  0  0  0  0  0  0  0
  152.7693  143.4101  160.7955 H   0  0  0  0  0  0  0  0  0  0  0  0
  153.9095  142.9190  159.5615 H   0  0  0  0  0  0  0  0  0  0  0  0
  150.9922  142.0206  159.7739 H   0  0  0  0  0  0  0  0  0  0  0  0
  151.6448  143.1130  158.5733 H   0  0  0  0  0  0  0  0  0  0  0  0
  151.3974  140.7900  157.6819 H   0  0  0  0  0  0  0  0  0  0  0  0
  153.0663  141.3254  157.6367 H   0  0  0  0  0  0  0  0  0  0  0  0
  155.0826  137.4231  156.4689 H   0  0  0  0  0  0  0  0  0  0  0  0
  148.9648  136.2794  158.1288 H   0  0  0  0  0  0  0  0  0  0  0  0
  151.5882  134.5186  155.9058 H   0  0  0  0  0  0  0  0  0  0  0  0
  150.4498  133.9953  157.1243 H   0  0  0  0  0  0  0  0  0  0  0  0
  148.5590  134.9576  155.9270 H   0  0  0  0  0  0  0  0  0  0  0  0
  149.3274  136.0680  153.8351 H   0  0  0  0  0  0  0  0  0  0  0  0
  150.3313  133.8906  153.6550 H   0  0  0  0  0  0  0  0  0  0  0  0
  150.4095  132.0175  155.2235 H   0  0  0  0  0  0  0  0  0  0  0  0
  148.7748  132.3661  155.7912 H   0  0  0  0  0  0  0  0  0  0  0  0
  149.5759  131.0296  153.2391 H   0  0  0  0  0  0  0  0  0  0  0  0
  148.1010  130.8418  154.1896 H   0  0  0  0  0  0  0  0  0  0  0  0
  148.6538  132.6968  151.9523 H   0  0  0  0  0  0  0  0  0  0  0  0
  147.0900  132.3875  152.7159 H   0  0  0  0  0  0  0  0  0  0  0  0
  154.8519  140.2205  162.4798 H   0  0  0  0  0  0  0  0  0  0  0  0
  154.4113  138.6120  163.0398 H   0  0  0  0  0  0  0  0  0  0  0  0
  156.9616  138.8840  162.6743 H   0  0  0  0  0  0  0  0  0  0  0  0
  1  2  2  0  0  0  0
  2 29  1  0  0  0  0
  2  3  1  0  0  0  0
  3  4  1  0  0  0  0
  3 30  1  0  0  0  0
  3 31  1  0  0  0  0
  4  5  1  0  0  0  0
  4 28  1  0  0  0  0
  4 32  1  0  0  0  0
  5 10  1  0  0  0  0
  5  6  1  0  0  0  0
  5 33  1  0  0  0  0
  6  7  1  0  0  0  0
  6 34  1  0  0  0  0
  6 35  1  0  0  0  0
  7  8  1  0  0  0  0
  7 36  1  0  0  0  0
  7 37  1  0  0  0  0
  8  9  1  0  0  0  0
  8 38  1  0  0  0  0
  8 39  1  0  0  0  0
  9 10  1  0  0  0  0
  9 40  1  0  0  0  0
  9 41  1  0  0  0  0
 10 11  1  0  0  0  0
 11 16  1  0  0  0  0
 11 12  2  0  0  0  0
 12 13  1  0  0  0  0
 13 14  2  0  0  0  0
 13 42  1  0  0  0  0
 14 15  1  0  0  0  0
 15 19  1  0  0  0  0
 15 16  2  0  0  0  0
 16 17  1  0  0  0  0
 17 18  2  0  0  0  0
 18 19  1  0  0  0  0
 18 43  1  0  0  0  0
 19 20  1  0  0  0  0
 20 21  1  0  0  0  0
 20 44  1  0  0  0  0
 20 45  1  0  0  0  0
 21 22  1  0  0  0  0
 21 23  1  0  0  0  0
 21 46  1  0  0  0  0
 22 47  1  0  0  0  0
 23 27  1  0  0  0  0
 23 24  1  0  0  0  0
 23 48  1  0  0  0  0
 24 25  1  0  0  0  0
 24 49  1  0  0  0  0
 24 50  1  0  0  0  0
 25 26  1  0  0  0  0
 25 51  1  0  0  0  0
 25 52  1  0  0  0  0
 26 27  1  0  0  0  0
 26 53  1  0  0  0  0
 26 54  1  0  0  0  0
 28 29  1  0  0  0  0
 28 55  1  0  0  0  0
 28 56  1  0  0  0  0
 29 57  1  0  0  0  0
M  END
> <s_m_source_file>
AV-unprocessed.smi

> <i_m_source_file_index>
203

> <i_lp_mmshare_version>
43012

> <i_f3d_flags>
0

> <s_epik_input>
Tz1DMVtDSDJdW0NASF0oW0NIMl1bTkhdMSlbQ0BASF0yW0NIMl1bQ0gyXVtDSDJdW0NIMl1OMmMobltjSF1uMyljKGMzNCluW2NIXW40W0NIMl1bQ0BIXShbT0hdKVtDQEBIXTVbQ0gyXVtDSDJdW0NIMl1PNQ==

> <s_epik_cmdline>
J2VwaWtfcHl0aG9uJywgJy1waCcsICc3LjAnLCAnLXRuJywgJzgnLCAnLW1hJywgJzIwMCcsICctbWV0YWxfYmluZGluZycsICctaW1hZScsICc8aW5maWxlLm1hZT4nLCAnLW9tYWUnLCAnPG91dGZpbGUubWFlPic=

> <r_lp_tautomer_probability>
1

> <r_epik_Ionization_Penalty>
0.00175146

> <r_epik_Ionization_Penalty_Charging>
0

> <r_epik_Ionization_Penalty_Neutral>
0.00175146

> <r_epik_State_Penalty>
0.00109045

> <r_epik_Charging_Adjusted_Penalty>
0.00109045

> <i_epik_Tot_Q>
0

> <i_epik_Tot_abs_Q>
0

> <r_epik_Metal_State_Penalty>
-0

> <b_epik_Metal_Only>
0

> <s_lp_Force_Field>
OPLS_2005

> <r_lp_Energy>
56.5765

> <b_lp_Chiralities_Consistent>
1

> <s_lp_Variant>
AV-unprocessed.smi:203-14

> <Gold.Version>
5.8.1

> <Gold.Id.Protein>
6NUR|6NUR_protein|mol2

> <Gold.PLP.Fitness>
45.9889

> <Gold.PLP.PLP>
-39.2508

> <Gold.PLP.part.hbond>
-3.0000

> <Gold.PLP.part.metal>
0.0000

> <Gold.PLP.part.buried>
-5.3992

> <Gold.PLP.part.nonpolar>
-31.8321

> <Gold.PLP.part.repulsive>
1.1153

> <Gold.PLP.ligand.clash>
0.0000

> <Gold.PLP.ligand.torsion>
1.2404

> <Gold.PLP.Chemscore.Hbond>
2.9760

> <Gold.PLP.Chemscore.CHOScore>
0.0000

> <Gold.PLP.Chemscore.Metal>
0.0000

> <Gold.Chemscore.Hbonds>
donor molecule, donor type, donor heavy atom, donor atom, acceptor molecule, acceptor atom, score
      L1  H    22    47       P1  7948  1.00
      P1  H  7997  8010       L1    12  1.00
      P1  H 10752 10765       L1    14  0.98

> <Gold.PLP.Chemscore.Internal.Correction>
0.2910

> <Gold.Rescore>
     Score         DG    S(hbond)    S(metal)    S(lipo)     H(rot)  DE(clash)    DE(int)     intcor
     16.61     -18.53       2.61        0.00      96.40       2.72       0.00       1.93       ----

> <Gold.Chemscore.Fitness>
16.6066

> <Gold.Chemscore.DG>
-18.5336

> <Gold.Chemscore.ZeroCoef>
-5.4800

> <Gold.Chemscore.Hbond>
2.6141

> <Gold.Chemscore.Metal>
0.0000

> <Gold.Chemscore.Lipo>
96.3952

> <Gold.Chemscore.Internal_Hbond>
0.0000

> <Gold.Chemscore.DEClash>
0.0000

> <Gold.Chemscore.DEInternal>
1.9270

> <Gold.Chemscore.Rot>
2.7171

> <Gold.Chemscore.Internal.Correction>
   9.000000E+99

> <Gold.Chemscore.Hbonds>
donor molecule, donor type, donor heavy atom, donor atom, acceptor molecule, acceptor atom, score
      L1  H    22    47       P1  7948  0.76
      P1  H  7997  8010       L1    12  0.70
      P1  H 10752 10765       L1    14  0.92

> <Gold.Chemscore.Hbond.Weighted>
-8.7310

> <Gold.Chemscore.Metal.Weighted>
-0.0000

> <Gold.Chemscore.Lipo.Weighted>
-11.2782

> <Gold.Chemscore.Internal_Hbond.Weighted>
0.0000

> <Gold.Chemscore.DEClash.Weighted>
0.0000

> <Gold.Chemscore.DEInternal.Weighted>
1.9270

> <Gold.Chemscore.Rot.Weighted>
6.9557

> <Gold.Chemscore.Internal.Correction.Weighted>
   9.000000E+99

> <Gold.Protein.RotatedTorsions>
[ 6907 6896 6895 6894 ] final  146.83 input  -60.11 | X-H torsion
[ 7974 7965 7964 7962 ] final  -89.72 input  175.53 | X-H torsion
[ 8008 7997 7996 7995 ] final   32.36 input   59.86 | X-H torsion
[ 10167 10162 10161 10158 ] final  166.98 input  -65.29 | X-H torsion
[ 10718 10713 10712 10709 ] final  -24.40 input   66.30 | X-H torsion
[ 10763 10752 10751 10750 ] final -128.61 input  -60.55 | X-H torsion
[ 11005 11000 10999 10996 ] final   75.52 input  -57.11 | X-H torsion

> <Gold.Protein.ActiveResidues>
 VAL166  LYS551  ARG553  GLY616  TRP617  ASP618  TYR619  PRO620  LYS621  CYS622 
 ASP623  PHE694  ASN695  SER759  ASP760  ASP761  ALA762  ILE779  LEU786  VAL792 
 PHE793  MET794  SER795  GLU796  ALA797  LYS798  CYS799  TRP800  GLU811  SER814 

> <Gold.Protein.RotatedAtoms>
  152.1627  133.4592  159.4868 H   0  0  0  0  0  0  0  0  0  0  0  0  # atno 6907 bound_to 6896
  150.6909  134.2051  159.4346 H   0  0  0  0  0  0  0  0  0  0  0  0  # atno 6908 bound_to 6896
  151.9954  134.9956  160.0614 H   0  0  0  0  0  0  0  0  0  0  0  0  # atno 6909 bound_to 6896
  145.4361  140.9557  143.2101 H   0  0  0  0  0  0  0  0  0  0  0  0  # atno 7974 bound_to 7965
  155.1212  140.3248  155.4497 H   0  0  0  0  0  0  0  0  0  0  0  0  # atno 8008 bound_to 7997
  156.2662  140.2027  156.6283 H   0  0  0  0  0  0  0  0  0  0  0  0  # atno 8009 bound_to 7997
  154.6682  140.0539  157.0123 H   0  0  0  0  0  0  0  0  0  0  0  0  # atno 8010 bound_to 7997
  139.4936  144.3970  151.9453 H   0  0  0  0  0  0  0  0  0  0  0  0  # atno 10167 bound_to 10162
  156.4782  130.4539  149.6827 H   0  0  0  0  0  0  0  0  0  0  0  0  # atno 10718 bound_to 10713
  154.8756  135.3923  154.3784 H   0  0  0  0  0  0  0  0  0  0  0  0  # atno 10763 bound_to 10752
  153.4535  135.7028  153.6099 H   0  0  0  0  0  0  0  0  0  0  0  0  # atno 10764 bound_to 10752
  153.4629  135.3808  155.2317 H   0  0  0  0  0  0  0  0  0  0  0  0  # atno 10765 bound_to 10752
  139.9340  134.7525  156.1282 H   0  0  0  0  0  0  0  0  0  0  0  0  # atno 11005 bound_to 11000
  144.8152  139.5890  143.7012 LP  0  0  0  0  0  0  0  0  0  0  0  0  # atno 17320 bound_to 7965
  146.2581  139.6349  142.9381 LP  0  0  0  0  0  0  0  0  0  0  0  0  # atno 17321 bound_to 7965
  140.3408  144.3205  150.5967 LP  0  0  0  0  0  0  0  0  0  0  0  0  # atno 17342 bound_to 10162
  140.5567  143.2198  151.7835 LP  0  0  0  0  0  0  0  0  0  0  0  0  # atno 17343 bound_to 10162
  156.3549  130.7451  151.2415 LP  0  0  0  0  0  0  0  0  0  0  0  0  # atno 17370 bound_to 10713
  157.7485  131.0367  150.4420 LP  0  0  0  0  0  0  0  0  0  0  0  0  # atno 17371 bound_to 10713
  141.0944  133.6701  156.2611 LP  0  0  0  0  0  0  0  0  0  0  0  0  # atno 17394 bound_to 11000
  140.6126  134.5443  157.5536 LP  0  0  0  0  0  0  0  0  0  0  0  0  # atno 17395 bound_to 11000

$$$$
