AV-unprocessed.smi:1830|AV-procd|sdf|7439|dock1
  -GOLD-   22720 9123D 1   1.00000     0.00000
 Structure written by MMmdl.
 53 56  0  0  0  0  0  0  0  0  2 V2000
  145.1832  137.8324  152.8931 O   0  0  0  0  0  0  0  0  0  0  0  0
  146.2762  137.3878  152.5427 C   0  0  0  0  0  0  0  0  0  0  0  0
  146.4284  136.2328  151.8799 N   0  0  0  0  0  0  0  0  0  0  0  0
  145.3414  135.3502  151.4687 C   0  0  0  0  0  0  0  0  0  0  0  0
  145.8346  133.9153  151.2074 C   0  0  1  0  0  0  0  0  0  0  0  0
  146.4878  133.2967  152.4665 C   0  0  0  0  0  0  0  0  0  0  0  0
  146.8318  131.8939  152.1701 N   0  3  1  0  0  0  0  0  0  0  0  0
  147.4902  131.0969  153.2194 C   0  0  0  0  0  0  0  0  0  0  0  0
  147.1613  129.6321  152.8657 C   0  0  0  0  0  0  0  0  0  0  0  0
  146.1688  129.6981  151.6901 C   0  0  0  0  0  0  0  0  0  0  0  0
  145.6512  131.1311  151.7595 C   0  0  2  0  0  0  0  0  0  0  0  0
  145.0706  131.7574  150.4859 C   0  0  0  0  0  0  0  0  0  0  0  0
  144.7254  133.1081  150.7948 O   0  0  0  0  0  0  0  0  0  0  0  0
  147.4594  137.9899  152.7462 N   0  0  0  0  0  0  0  0  0  0  0  0
  147.7007  139.2760  153.3056 C   0  0  0  0  0  0  0  0  0  0  0  0
  146.7752  140.3367  153.1484 C   0  0  0  0  0  0  0  0  0  0  0  0
  147.0267  141.5702  153.7733 C   0  0  0  0  0  0  0  0  0  0  0  0
  148.1898  141.6960  154.5508 C   0  0  0  0  0  0  0  0  0  0  0  0
  149.0724  140.6918  154.7231 N   0  0  0  0  0  0  0  0  0  0  0  0
  148.8513  139.5004  154.1150 C   0  0  0  0  0  0  0  0  0  0  0  0
  149.8191  138.4901  154.3200 N   0  0  0  0  0  0  0  0  0  0  0  0
  149.4693  137.2617  155.0257 C   0  0  0  0  0  0  0  0  0  0  0  0
  150.8059  136.6189  155.3842 C   0  0  0  0  0  0  0  0  0  0  0  0
  151.6812  137.8331  155.6791 C   0  0  0  0  0  0  0  0  0  0  0  0
  151.1691  138.8955  154.7007 C   0  0  0  0  0  0  0  0  0  0  0  0
  147.3652  135.9462  151.6359 H   0  0  0  0  0  0  0  0  0  0  0  0
  144.6084  135.3435  152.2757 H   0  0  0  0  0  0  0  0  0  0  0  0
  144.8284  135.7485  150.5915 H   0  0  0  0  0  0  0  0  0  0  0  0
  146.5699  133.9362  150.4007 H   0  0  0  0  0  0  0  0  0  0  0  0
  147.3896  133.8450  152.7412 H   0  0  0  0  0  0  0  0  0  0  0  0
  145.8059  133.3412  153.3175 H   0  0  0  0  0  0  0  0  0  0  0  0
  148.5626  131.2918  153.2435 H   0  0  0  0  0  0  0  0  0  0  0  0
  147.0755  131.3494  154.1964 H   0  0  0  0  0  0  0  0  0  0  0  0
  148.0554  129.0721  152.5901 H   0  0  0  0  0  0  0  0  0  0  0  0
  146.7121  129.1314  153.7242 H   0  0  0  0  0  0  0  0  0  0  0  0
  146.6958  129.5326  150.7492 H   0  0  0  0  0  0  0  0  0  0  0  0
  145.3721  128.9574  151.7649 H   0  0  0  0  0  0  0  0  0  0  0  0
  144.9044  131.1874  152.5549 H   0  0  0  0  0  0  0  0  0  0  0  0
  145.7834  131.7256  149.6604 H   0  0  0  0  0  0  0  0  0  0  0  0
  144.1759  131.2219  150.1677 H   0  0  0  0  0  0  0  0  0  0  0  0
  148.2644  137.5417  152.3335 H   0  0  0  0  0  0  0  0  0  0  0  0
  145.8671  140.2175  152.5776 H   0  0  0  0  0  0  0  0  0  0  0  0
  146.3377  142.3951  153.6690 H   0  0  0  0  0  0  0  0  0  0  0  0
  148.4152  142.6252  155.0528 H   0  0  0  0  0  0  0  0  0  0  0  0
  148.9171  137.4836  155.9400 H   0  0  0  0  0  0  0  0  0  0  0  0
  148.8573  136.6064  154.4052 H   0  0  0  0  0  0  0  0  0  0  0  0
  150.7337  135.9278  156.2245 H   0  0  0  0  0  0  0  0  0  0  0  0
  151.2011  136.0731  154.5263 H   0  0  0  0  0  0  0  0  0  0  0  0
  151.5107  138.1657  156.7040 H   0  0  0  0  0  0  0  0  0  0  0  0
  152.7461  137.6294  155.5646 H   0  0  0  0  0  0  0  0  0  0  0  0
  151.7955  138.9095  153.8089 H   0  0  0  0  0  0  0  0  0  0  0  0
  151.1901  139.8911  155.1463 H   0  0  0  0  0  0  0  0  0  0  0  0
  147.4587  131.8980  151.3780 H   0  0  0  0  0  0  0  0  0  0  0  0
  1  2  2  0  0  0  0
  2  3  1  0  0  0  0
  2 14  1  0  0  0  0
  3  4  1  0  0  0  0
  3 26  1  0  0  0  0
  4  5  1  0  0  0  0
  4 27  1  0  0  0  0
  4 28  1  0  0  0  0
  5 13  1  0  0  0  0
  5  6  1  0  0  0  0
  5 29  1  0  0  0  0
  6  7  1  0  0  0  0
  6 30  1  0  0  0  0
  6 31  1  0  0  0  0
  7 11  1  0  0  0  0
  7  8  1  0  0  0  0
  7 53  1  0  0  0  0
  8  9  1  0  0  0  0
  8 32  1  0  0  0  0
  8 33  1  0  0  0  0
  9 10  1  0  0  0  0
  9 34  1  0  0  0  0
  9 35  1  0  0  0  0
 10 11  1  0  0  0  0
 10 36  1  0  0  0  0
 10 37  1  0  0  0  0
 11 12  1  0  0  0  0
 11 38  1  0  0  0  0
 12 13  1  0  0  0  0
 12 39  1  0  0  0  0
 12 40  1  0  0  0  0
 14 15  1  0  0  0  0
 14 41  1  0  0  0  0
 15 20  1  0  0  0  0
 15 16  2  0  0  0  0
 16 17  1  0  0  0  0
 16 42  1  0  0  0  0
 17 18  2  0  0  0  0
 17 43  1  0  0  0  0
 18 19  1  0  0  0  0
 18 44  1  0  0  0  0
 19 20  2  0  0  0  0
 20 21  1  0  0  0  0
 21 25  1  0  0  0  0
 21 22  1  0  0  0  0
 22 23  1  0  0  0  0
 22 45  1  0  0  0  0
 22 46  1  0  0  0  0
 23 24  1  0  0  0  0
 23 47  1  0  0  0  0
 23 48  1  0  0  0  0
 24 25  1  0  0  0  0
 24 49  1  0  0  0  0
 24 50  1  0  0  0  0
 25 51  1  0  0  0  0
 25 52  1  0  0  0  0
M  CHG  1   7   1
M  END
> <s_m_source_file>
AV-unprocessed.smi

> <i_m_source_file_index>
1830

> <i_lp_mmshare_version>
43012

> <i_f3d_flags>
0

> <s_epik_input>
W0NIMl0xW0NIMl1bQ0gyXVtDQEhdKE4xMilbQ0gyXU9bQ0BASF0oW0NIMl0yKVtDSDJdW05IXUMoPU8pW05IXWMzW2NIXVtjSF1bY0hdbmMzTjRbQ0gyXVtDSDJdW0NIMl1bQ0gyXTQ=

> <s_epik_cmdline>
J2VwaWtfcHl0aG9uJywgJy1waCcsICc3LjAnLCAnLXRuJywgJzgnLCAnLW1hJywgJzIwMCcsICctbWV0YWxfYmluZGluZycsICctaW1hZScsICc8aW5maWxlLm1hZT4nLCAnLW9tYWUnLCAnPG91dGZpbGUubWFlPic=

> <r_lp_tautomer_probability>
1

> <r_epik_Ionization_Penalty>
0.193547

> <r_epik_Ionization_Penalty_Charging>
0.10673

> <r_epik_Ionization_Penalty_Neutral>
0.0868166

> <r_epik_State_Penalty>
0.173595

> <r_epik_Charging_Adjusted_Penalty>
0.280326

> <i_epik_Tot_Q>
1

> <i_epik_Tot_abs_Q>
1

> <r_epik_Metal_State_Penalty>
0.164683

> <b_epik_Metal_Only>
0

> <s_lp_Force_Field>
OPLS_2005

> <r_lp_Energy>
64.524

> <b_lp_Chiralities_Consistent>
1

> <s_lp_Variant>
AV-unprocessed.smi:1830-8

> <Gold.Version>
5.8.1

> <Gold.Id.Protein>
6NUR|6NUR_protein|mol2

> <Gold.PLP.Fitness>
49.9612

> <Gold.PLP.PLP>
-40.0736

> <Gold.PLP.part.hbond>
-2.6576

> <Gold.PLP.part.metal>
0.0000

> <Gold.PLP.part.buried>
-3.0001

> <Gold.PLP.part.nonpolar>
-36.2499

> <Gold.PLP.part.repulsive>
1.2305

> <Gold.PLP.ligand.clash>
0.0000

> <Gold.PLP.ligand.torsion>
0.7157

> <Gold.PLP.Chemscore.Hbond>
2.6448

> <Gold.PLP.Chemscore.CHOScore>
1.0000

> <Gold.PLP.Chemscore.Metal>
0.0000

> <Gold.Chemscore.Hbonds>
donor molecule, donor type, donor heavy atom, donor atom, acceptor molecule, acceptor atom, score
      L1  H     3    26       P1  7948  0.94
      L1  H     7    53       P1 10747  0.67
      L1  H    14    41       P1  7948  0.99
      L1  C    18    44       P1  8028  1.00

> <Gold.PLP.Chemscore.Internal.Correction>
0.3848

> <Gold.Rescore>
     Score         DG    S(hbond)    S(metal)    S(lipo)     H(rot)  DE(clash)    DE(int)     intcor
     20.53     -22.89       2.55        0.00     106.74       1.41       0.55       1.82       ----

> <Gold.Chemscore.Fitness>
20.5308

> <Gold.Chemscore.DG>
-22.8949

> <Gold.Chemscore.ZeroCoef>
-5.4800

> <Gold.Chemscore.Hbond>
2.5532

> <Gold.Chemscore.Metal>
0.0000

> <Gold.Chemscore.Lipo>
106.7362

> <Gold.Chemscore.Internal_Hbond>
0.0000

> <Gold.Chemscore.DEClash>
0.5485

> <Gold.Chemscore.DEInternal>
1.8155

> <Gold.Chemscore.Rot>
1.4067

> <Gold.Chemscore.Internal.Correction>
   9.000000E+99

> <Gold.Chemscore.Hbonds>
donor molecule, donor type, donor heavy atom, donor atom, acceptor molecule, acceptor atom, score
      L1  H     3    26       P1  7948  0.89
      L1  H     7    53       P1 10747  0.64
      L1  H    14    41       P1  7948  0.88

> <Gold.Chemscore.Hbond.Weighted>
-8.5278

> <Gold.Chemscore.Metal.Weighted>
-0.0000

> <Gold.Chemscore.Lipo.Weighted>
-12.4881

> <Gold.Chemscore.Internal_Hbond.Weighted>
0.0000

> <Gold.Chemscore.DEClash.Weighted>
0.5485

> <Gold.Chemscore.DEInternal.Weighted>
1.8155

> <Gold.Chemscore.Rot.Weighted>
3.6011

> <Gold.Chemscore.Internal.Correction.Weighted>
   9.000000E+99

> <Gold.Protein.RotatedTorsions>
[ 6907 6896 6895 6894 ] final -166.43 input  -60.11 | X-H torsion
[ 7974 7965 7964 7962 ] final  177.80 input  175.53 | X-H torsion
[ 8008 7997 7996 7995 ] final  127.28 input   59.86 | X-H torsion
[ 10167 10162 10161 10158 ] final -138.79 input  -65.29 | X-H torsion
[ 10718 10713 10712 10709 ] final  -53.87 input   66.30 | X-H torsion
[ 10763 10752 10751 10750 ] final  -61.74 input  -60.55 | X-H torsion
[ 11005 11000 10999 10996 ] final  -87.97 input  -57.11 | X-H torsion

> <Gold.Protein.ActiveResidues>
 VAL166  LYS551  ARG553  GLY616  TRP617  ASP618  TYR619  PRO620  LYS621  CYS622 
 ASP623  PHE694  ASN695  SER759  ASP760  ASP761  ALA762  ILE779  LEU786  VAL792 
 PHE793  MET794  SER795  GLU796  ALA797  LYS798  CYS799  TRP800  GLU811  SER814 

> <Gold.Protein.RotatedAtoms>
  151.4435  133.3637  159.2784 H   0  0  0  0  0  0  0  0  0  0  0  0  # atno 6907 bound_to 6896
  150.9141  134.8560  159.7456 H   0  0  0  0  0  0  0  0  0  0  0  0  # atno 6908 bound_to 6896
  152.4948  134.4367  159.9582 H   0  0  0  0  0  0  0  0  0  0  0  0  # atno 6909 bound_to 6896
  144.7164  140.0302  143.6439 H   0  0  0  0  0  0  0  0  0  0  0  0  # atno 7974 bound_to 7965
  156.2887  140.2672  156.2248 H   0  0  0  0  0  0  0  0  0  0  0  0  # atno 8008 bound_to 7997
  155.0132  140.0387  157.2426 H   0  0  0  0  0  0  0  0  0  0  0  0  # atno 8009 bound_to 7997
  154.7500  140.2741  155.6305 H   0  0  0  0  0  0  0  0  0  0  0  0  # atno 8010 bound_to 7997
  139.8444  143.7280  152.2661 H   0  0  0  0  0  0  0  0  0  0  0  0  # atno 10167 bound_to 10162
  156.1498  130.4151  149.9963 H   0  0  0  0  0  0  0  0  0  0  0  0  # atno 10718 bound_to 10713
  154.2892  135.6257  153.5378 H   0  0  0  0  0  0  0  0  0  0  0  0  # atno 10763 bound_to 10752
  152.9855  135.5651  154.5409 H   0  0  0  0  0  0  0  0  0  0  0  0  # atno 10764 bound_to 10752
  154.5016  135.2872  155.1392 H   0  0  0  0  0  0  0  0  0  0  0  0  # atno 10765 bound_to 10752
  141.1609  133.7542  156.9383 H   0  0  0  0  0  0  0  0  0  0  0  0  # atno 11005 bound_to 11000
  146.0109  139.3169  143.0871 LP  0  0  0  0  0  0  0  0  0  0  0  0  # atno 17320 bound_to 7965
  145.8683  140.9435  143.0664 LP  0  0  0  0  0  0  0  0  0  0  0  0  # atno 17321 bound_to 7965
  139.7527  144.7529  151.0481 LP  0  0  0  0  0  0  0  0  0  0  0  0  # atno 17342 bound_to 10162
  140.7794  143.4841  150.9979 LP  0  0  0  0  0  0  0  0  0  0  0  0  # atno 17343 bound_to 10162
  156.7824  130.9226  151.3646 LP  0  0  0  0  0  0  0  0  0  0  0  0  # atno 17370 bound_to 10713
  157.6648  130.8997  149.9907 LP  0  0  0  0  0  0  0  0  0  0  0  0  # atno 17371 bound_to 10713
  140.1339  134.9338  157.2375 LP  0  0  0  0  0  0  0  0  0  0  0  0  # atno 17394 bound_to 11000
  140.2919  134.3230  155.7313 LP  0  0  0  0  0  0  0  0  0  0  0  0  # atno 17395 bound_to 11000

$$$$
