AV-unprocessed.smi:532|AV-procd|sdf|2850|dock3
  -GOLD-   2262023343D 1   1.00000     0.00000
 Structure written by MMmdl.
 49 51  0  0  0  0  0  0  0  0  1 V2000
  154.5947  136.6367  157.8600 C   0  0  0  0  0  0  0  0  0  0  0  0
  153.5140  136.5413  156.9490 O   0  0  0  0  0  0  0  0  0  0  0  0
  152.4139  137.3498  157.3289 C   0  0  0  0  0  0  0  0  0  0  0  0
  152.7112  138.8054  156.9507 C   0  0  0  0  0  0  0  0  0  0  0  0
  151.4998  139.5131  156.5602 N   0  0  0  0  0  0  0  0  0  0  0  0
  150.9586  140.6216  157.1261 C   0  0  0  0  0  0  0  0  0  0  0  0
  151.5494  141.2317  158.2287 N   0  0  0  0  0  0  0  0  0  0  0  0
  151.8472  140.5073  159.4651 C   0  0  0  0  0  0  0  0  0  0  0  0
  153.0952  141.0314  160.2112 C   0  0  1  0  0  0  0  0  0  0  0  0
  154.4179  140.6081  159.5512 C   0  0  0  0  0  0  0  0  0  0  0  0
  153.0007  142.5516  160.4271 C   0  0  0  0  0  0  0  0  0  0  0  0
  152.6605  143.2794  159.1167 C   0  0  2  0  0  0  0  0  0  0  0  0
  152.4915  144.7881  159.3416 C   0  0  0  0  0  0  0  0  0  0  0  0
  151.3967  142.6598  158.4940 C   0  0  0  0  0  0  0  0  0  0  0  0
  149.8425  141.0643  156.5403 N   0  0  0  0  0  0  0  0  0  0  0  0
  149.6487  140.1453  155.5190 C   0  0  0  0  0  0  0  0  0  0  0  0
  150.6279  139.2060  155.5172 C   0  0  0  0  0  0  0  0  0  0  0  0
  150.6647  138.1069  154.5461 C   0  0  0  0  0  0  0  0  0  0  0  0
  151.5362  137.2404  154.5367 O   0  0  0  0  0  0  0  0  0  0  0  0
  149.6362  138.1455  153.6641 N   0  0  0  0  0  0  0  0  0  0  0  0
  148.6202  139.0610  153.6081 C   0  0  0  0  0  0  0  0  0  0  0  0
  147.7532  138.9564  152.7411 O   0  0  0  0  0  0  0  0  0  0  0  0
  148.6191  140.0694  154.5406 N   0  0  0  0  0  0  0  0  0  0  0  0
  147.5769  141.0972  154.5704 C   0  0  0  0  0  0  0  0  0  0  0  0
  149.6151  137.4130  152.9699 H   0  0  0  0  0  0  0  0  0  0  0  0
  155.4135  135.9995  157.5260 H   0  0  0  0  0  0  0  0  0  0  0  0
  154.2990  136.3102  158.8579 H   0  0  0  0  0  0  0  0  0  0  0  0
  154.9690  137.6593  157.9227 H   0  0  0  0  0  0  0  0  0  0  0  0
  151.5062  137.0078  156.8294 H   0  0  0  0  0  0  0  0  0  0  0  0
  152.2440  137.2679  158.4029 H   0  0  0  0  0  0  0  0  0  0  0  0
  153.1782  139.3318  157.7822 H   0  0  0  0  0  0  0  0  0  0  0  0
  153.4326  138.8507  156.1353 H   0  0  0  0  0  0  0  0  0  0  0  0
  150.9755  140.5854  160.1161 H   0  0  0  0  0  0  0  0  0  0  0  0
  151.9639  139.4458  159.2440 H   0  0  0  0  0  0  0  0  0  0  0  0
  153.0944  140.5663  161.1974 H   0  0  0  0  0  0  0  0  0  0  0  0
  154.5293  141.0252  158.5522 H   0  0  0  0  0  0  0  0  0  0  0  0
  154.4844  139.5232  159.4701 H   0  0  0  0  0  0  0  0  0  0  0  0
  155.2720  140.9417  160.1407 H   0  0  0  0  0  0  0  0  0  0  0  0
  152.2218  142.7572  161.1629 H   0  0  0  0  0  0  0  0  0  0  0  0
  153.9297  142.9357  160.8501 H   0  0  0  0  0  0  0  0  0  0  0  0
  153.4863  143.1449  158.4169 H   0  0  0  0  0  0  0  0  0  0  0  0
  151.6679  144.9977  160.0249 H   0  0  0  0  0  0  0  0  0  0  0  0
  152.2857  145.3033  158.4029 H   0  0  0  0  0  0  0  0  0  0  0  0
  153.3957  145.2253  159.7656 H   0  0  0  0  0  0  0  0  0  0  0  0
  151.1631  143.1679  157.5575 H   0  0  0  0  0  0  0  0  0  0  0  0
  150.5377  142.8087  159.1496 H   0  0  0  0  0  0  0  0  0  0  0  0
  146.8214  140.9879  153.7917 H   0  0  0  0  0  0  0  0  0  0  0  0
  148.0253  142.0845  154.4538 H   0  0  0  0  0  0  0  0  0  0  0  0
  147.0613  141.0747  155.5309 H   0  0  0  0  0  0  0  0  0  0  0  0
  1  2  1  0  0  0  0
  1 26  1  0  0  0  0
  1 27  1  0  0  0  0
  1 28  1  0  0  0  0
  2  3  1  0  0  0  0
  3  4  1  0  0  0  0
  3 29  1  0  0  0  0
  3 30  1  0  0  0  0
  4  5  1  0  0  0  0
  4 31  1  0  0  0  0
  4 32  1  0  0  0  0
  5 17  1  0  0  0  0
  5  6  1  0  0  0  0
  6  7  1  0  0  0  0
  6 15  2  0  0  0  0
  7 14  1  0  0  0  0
  7  8  1  0  0  0  0
  8  9  1  0  0  0  0
  8 33  1  0  0  0  0
  8 34  1  0  0  0  0
  9 10  1  0  0  0  0
  9 11  1  0  0  0  0
  9 35  1  0  0  0  0
 10 36  1  0  0  0  0
 10 37  1  0  0  0  0
 10 38  1  0  0  0  0
 11 12  1  0  0  0  0
 11 39  1  0  0  0  0
 11 40  1  0  0  0  0
 12 13  1  0  0  0  0
 12 14  1  0  0  0  0
 12 41  1  0  0  0  0
 13 42  1  0  0  0  0
 13 43  1  0  0  0  0
 13 44  1  0  0  0  0
 14 45  1  0  0  0  0
 14 46  1  0  0  0  0
 15 16  1  0  0  0  0
 16 23  1  0  0  0  0
 16 17  2  0  0  0  0
 17 18  1  0  0  0  0
 18 19  2  0  0  0  0
 18 20  1  0  0  0  0
 20 25  1  0  0  0  0
 20 21  1  0  0  0  0
 21 22  2  0  0  0  0
 21 23  1  0  0  0  0
 23 24  1  0  0  0  0
 24 47  1  0  0  0  0
 24 48  1  0  0  0  0
 24 49  1  0  0  0  0
M  END
> <s_m_source_file>
AV-unprocessed.smi

> <i_m_source_file_index>
532

> <i_lp_mmshare_version>
43012

> <i_f3d_flags>
0

> <s_epik_input>
W0NIM11uMWMoPU8pW25IXWMoPU8pYyhjMTIpbihbQ0gyXVtDSDJdT1tDSDNdKWMobjIpTjNbQ0gyXVtDQEBIXShbQ0gzXSlbQ0gyXVtDQEBIXShbQ0gzXSlbQ0gyXTM=

> <s_epik_cmdline>
J2VwaWtfcHl0aG9uJywgJy1waCcsICc3LjAnLCAnLXRuJywgJzgnLCAnLW1hJywgJzIwMCcsICctbWV0YWxfYmluZGluZycsICctaW1hZScsICc8aW5maWxlLm1hZT4nLCAnLW9tYWUnLCAnPG91dGZpbGUubWFlPic=

> <r_lp_tautomer_probability>
1

> <r_epik_Ionization_Penalty>
0.000642525

> <r_epik_Ionization_Penalty_Charging>
0.000121571

> <r_epik_Ionization_Penalty_Neutral>
0.000520954

> <r_epik_State_Penalty>
-0

> <r_epik_Charging_Adjusted_Penalty>
0.000121571

> <i_epik_Tot_Q>
0

> <i_epik_Tot_abs_Q>
0

> <r_epik_Metal_State_Penalty>
0.0931709

> <b_epik_Metal_Only>
0

> <s_lp_Force_Field>
OPLS_2005

> <r_lp_Energy>
43.7667

> <b_lp_Chiralities_Consistent>
1

> <s_lp_Variant>
AV-unprocessed.smi:532-3

> <Gold.Version>
5.8.1

> <Gold.Id.Protein>
6NUR|6NUR_protein|mol2

> <Gold.PLP.Fitness>
44.2207

> <Gold.PLP.PLP>
-37.6588

> <Gold.PLP.part.hbond>
-3.6422

> <Gold.PLP.part.metal>
0.0000

> <Gold.PLP.part.buried>
-2.8621

> <Gold.PLP.part.nonpolar>
-34.6461

> <Gold.PLP.part.repulsive>
3.8386

> <Gold.PLP.ligand.clash>
0.0000

> <Gold.PLP.ligand.torsion>
0.9688

> <Gold.PLP.Chemscore.Hbond>
2.5315

> <Gold.PLP.Chemscore.CHOScore>
0.0000

> <Gold.PLP.Chemscore.Metal>
0.0000

> <Gold.Chemscore.Hbonds>
donor molecule, donor type, donor heavy atom, donor atom, acceptor molecule, acceptor atom, score
      L1  H    20    25       P1  7948  1.00
      P1  H 10752 10763       L1     2  0.71
      P1  H 10752 10765       L1    19  0.68

> <Gold.PLP.Chemscore.Internal.Correction>
0.9051

> <Gold.Rescore>
     Score         DG    S(hbond)    S(metal)    S(lipo)     H(rot)  DE(clash)    DE(int)     intcor
     18.86     -20.15       2.39        0.00      88.60       1.43       0.13       1.16       ----

> <Gold.Chemscore.Fitness>
18.8564

> <Gold.Chemscore.DG>
-20.1475

> <Gold.Chemscore.ZeroCoef>
-5.4800

> <Gold.Chemscore.Hbond>
2.3856

> <Gold.Chemscore.Metal>
0.0000

> <Gold.Chemscore.Lipo>
88.6018

> <Gold.Chemscore.Internal_Hbond>
0.0000

> <Gold.Chemscore.DEClash>
0.1301

> <Gold.Chemscore.DEInternal>
1.1609

> <Gold.Chemscore.Rot>
1.4324

> <Gold.Chemscore.Internal.Correction>
   9.000000E+99

> <Gold.Chemscore.Hbonds>
donor molecule, donor type, donor heavy atom, donor atom, acceptor molecule, acceptor atom, score
      L1  H    20    25       P1  7948  0.65
      P1  H 10752 10763       L1     2  0.48
      P1  H 10752 10765       L1    19  0.66

> <Gold.Chemscore.Hbond.Weighted>
-7.9679

> <Gold.Chemscore.Metal.Weighted>
-0.0000

> <Gold.Chemscore.Lipo.Weighted>
-10.3664

> <Gold.Chemscore.Internal_Hbond.Weighted>
0.0000

> <Gold.Chemscore.DEClash.Weighted>
0.1301

> <Gold.Chemscore.DEInternal.Weighted>
1.1609

> <Gold.Chemscore.Rot.Weighted>
3.6669

> <Gold.Chemscore.Internal.Correction.Weighted>
   9.000000E+99

> <Gold.Protein.RotatedTorsions>
[ 6907 6896 6895 6894 ] final   56.40 input  -60.11 | X-H torsion
[ 7974 7965 7964 7962 ] final    7.00 input  175.53 | X-H torsion
[ 8008 7997 7996 7995 ] final -138.06 input   59.86 | X-H torsion
[ 10167 10162 10161 10158 ] final -132.12 input  -65.29 | X-H torsion
[ 10718 10713 10712 10709 ] final -145.95 input   66.30 | X-H torsion
[ 10763 10752 10751 10750 ] final  151.00 input  -60.55 | X-H torsion
[ 11005 11000 10999 10996 ] final   43.57 input  -57.11 | X-H torsion

> <Gold.Protein.ActiveResidues>
 VAL166  LYS551  ARG553  GLY616  TRP617  ASP618  TYR619  PRO620  LYS621  CYS622 
 ASP623  PHE694  ASN695  SER759  ASP760  ASP761  ALA762  ILE779  LEU786  VAL792 
 PHE793  MET794  SER795  GLU796  ALA797  LYS798  CYS799  TRP800  GLU811  SER814 

> <Gold.Protein.RotatedAtoms>
  152.3633  134.6841  160.0199 H   0  0  0  0  0  0  0  0  0  0  0  0  # atno 6907 bound_to 6896
  151.7157  133.3308  159.3310 H   0  0  0  0  0  0  0  0  0  0  0  0  # atno 6908 bound_to 6896
  150.7620  134.6427  159.6290 H   0  0  0  0  0  0  0  0  0  0  0  0  # atno 6909 bound_to 6896
  146.2430  140.0148  142.8403 H   0  0  0  0  0  0  0  0  0  0  0  0  # atno 7974 bound_to 7965
  155.4220  140.0519  157.3025 H   0  0  0  0  0  0  0  0  0  0  0  0  # atno 8008 bound_to 7997
  154.4898  140.2115  155.9532 H   0  0  0  0  0  0  0  0  0  0  0  0  # atno 8009 bound_to 7997
  156.1326  140.3169  155.8377 H   0  0  0  0  0  0  0  0  0  0  0  0  # atno 8010 bound_to 7997
  139.9119  143.6484  152.2573 H   0  0  0  0  0  0  0  0  0  0  0  0  # atno 10167 bound_to 10162
  156.3889  130.7875  151.2075 H   0  0  0  0  0  0  0  0  0  0  0  0  # atno 10718 bound_to 10713
  154.0966  135.2848  155.3260 H   0  0  0  0  0  0  0  0  0  0  0  0  # atno 10763 bound_to 10752
  154.6584  135.5343  153.7990 H   0  0  0  0  0  0  0  0  0  0  0  0  # atno 10764 bound_to 10752
  153.0394  135.6527  154.1132 H   0  0  0  0  0  0  0  0  0  0  0  0  # atno 10765 bound_to 10752
  140.1633  134.4314  155.8303 H   0  0  0  0  0  0  0  0  0  0  0  0  # atno 11005 bound_to 11000
  145.1294  140.9509  143.4553 LP  0  0  0  0  0  0  0  0  0  0  0  0  # atno 17320 bound_to 7965
  145.0402  139.3266  143.5980 LP  0  0  0  0  0  0  0  0  0  0  0  0  # atno 17321 bound_to 7965
  139.6935  144.7644  151.1396 LP  0  0  0  0  0  0  0  0  0  0  0  0  # atno 17342 bound_to 10162
  140.7683  143.5555  150.9156 LP  0  0  0  0  0  0  0  0  0  0  0  0  # atno 17343 bound_to 10162
  157.7497  131.0321  150.4214 LP  0  0  0  0  0  0  0  0  0  0  0  0  # atno 17370 bound_to 10713
  156.4472  130.4004  149.6659 LP  0  0  0  0  0  0  0  0  0  0  0  0  # atno 17371 bound_to 10713
  141.2211  133.6923  156.7633 LP  0  0  0  0  0  0  0  0  0  0  0  0  # atno 17394 bound_to 11000
  140.2464  134.8574  157.3624 LP  0  0  0  0  0  0  0  0  0  0  0  0  # atno 17395 bound_to 11000

$$$$
