AV-unprocessed.smi:2784|AV-procd|sdf|10734|dock3
  -GOLD-   2272015173D 1   1.00000     0.00000
 Structure written by MMmdl.
 31 32  0  0  0  0  0  0  0  0  1 V2000
  152.7232  142.6669  162.4077 C   0  0  0  0  0  0  0  0  0  0  0  0
  151.8198  142.5151  161.3240 O   0  0  0  0  0  0  0  0  0  0  0  0
  152.2785  143.1040  160.1148 C   0  0  2  0  0  0  0  0  0  0  0  0
  152.3095  144.6270  160.2685 C   0  0  0  0  0  0  0  0  0  0  0  0
  152.1127  145.1544  158.8519 C   0  0  0  0  0  0  0  0  0  0  0  0
  151.0947  144.1923  158.2405 C   0  0  0  0  0  0  0  0  0  0  0  0
  151.3427  142.8283  158.9152 C   0  0  1  0  0  0  0  0  0  0  0  0
  151.9644  141.8880  157.9858 N   0  0  0  0  0  0  0  0  0  0  0  0
  151.4061  140.7567  157.5309 C   0  0  0  0  0  0  0  0  0  0  0  0
  150.2703  140.4114  157.8714 O   0  0  0  0  0  0  0  0  0  0  0  0
  152.2917  140.0865  156.7005 N   0  0  0  0  0  0  0  0  0  0  0  0
  151.8345  139.2480  155.8217 C   0  0  0  0  0  0  0  0  0  0  0  0
  150.5502  138.8123  155.5065 N   0  0  0  0  0  0  0  0  0  0  0  0
  150.6461  137.9032  154.4904 C   0  0  0  0  0  0  0  0  0  0  0  0
  151.9314  137.7692  154.1778 C   0  0  0  0  0  0  0  0  0  0  0  0
  152.6826  138.5792  154.9756 O   0  0  0  0  0  0  0  0  0  0  0  0
  152.2967  142.2146  163.3029 H   0  0  0  0  0  0  0  0  0  0  0  0
  152.9096  143.7201  162.6212 H   0  0  0  0  0  0  0  0  0  0  0  0
  153.6768  142.1772  162.2094 H   0  0  0  0  0  0  0  0  0  0  0  0
  153.2959  142.7714  159.8969 H   0  0  0  0  0  0  0  0  0  0  0  0
  151.4775  144.9558  160.8932 H   0  0  0  0  0  0  0  0  0  0  0  0
  153.2313  144.9833  160.7289 H   0  0  0  0  0  0  0  0  0  0  0  0
  151.7760  146.1913  158.8314 H   0  0  0  0  0  0  0  0  0  0  0  0
  153.0532  145.0958  158.3025 H   0  0  0  0  0  0  0  0  0  0  0  0
  150.0878  144.5336  158.4849 H   0  0  0  0  0  0  0  0  0  0  0  0
  151.1648  144.1604  157.1523 H   0  0  0  0  0  0  0  0  0  0  0  0
  150.3910  142.4288  159.2710 H   0  0  0  0  0  0  0  0  0  0  0  0
  152.8992  142.1086  157.6748 H   0  0  0  0  0  0  0  0  0  0  0  0
  149.6752  139.0911  155.9273 H   0  0  0  0  0  0  0  0  0  0  0  0
  149.7590  137.4362  154.0887 H   0  0  0  0  0  0  0  0  0  0  0  0
  152.4494  137.1664  153.4464 H   0  0  0  0  0  0  0  0  0  0  0  0
  1  2  1  0  0  0  0
  1 17  1  0  0  0  0
  1 18  1  0  0  0  0
  1 19  1  0  0  0  0
  2  3  1  0  0  0  0
  3  7  1  0  0  0  0
  3  4  1  0  0  0  0
  3 20  1  0  0  0  0
  4  5  1  0  0  0  0
  4 21  1  0  0  0  0
  4 22  1  0  0  0  0
  5  6  1  0  0  0  0
  5 23  1  0  0  0  0
  5 24  1  0  0  0  0
  6  7  1  0  0  0  0
  6 25  1  0  0  0  0
  6 26  1  0  0  0  0
  7  8  1  0  0  0  0
  7 27  1  0  0  0  0
  8 28  1  0  0  0  0
  8  9  1  0  0  0  0
  9 11  1  0  0  0  0
  9 10  2  0  0  0  0
 11 12  2  0  0  0  0
 12 16  1  0  0  0  0
 12 13  1  0  0  0  0
 13 29  1  0  0  0  0
 13 14  1  0  0  0  0
 14 30  1  0  0  0  0
 14 15  2  0  0  0  0
 15 31  1  0  0  0  0
 15 16  1  0  0  0  0
M  END
> <s_m_source_file>
AV-unprocessed.smi

> <i_m_source_file_index>
2784

> <i_lp_mmshare_version>
43012

> <i_f3d_flags>
0

> <s_epik_input>
W0NIM11PW0NAQEhdMVtDSDJdW0NIMl1bQ0gyXVtDQEhdMVtOSF1DKD1PKVtOSF1jMm5bY0hdW2NIXW8y

> <s_epik_cmdline>
J2VwaWtfcHl0aG9uJywgJy1waCcsICc3LjAnLCAnLXRuJywgJzgnLCAnLW1hJywgJzIwMCcsICctbWV0YWxfYmluZGluZycsICctaW1hZScsICc8aW5maWxlLm1hZT4nLCAnLW9tYWUnLCAnPG91dGZpbGUubWFlPic=

> <r_lp_tautomer_probability>
0.107061

> <r_epik_Ionization_Penalty>
1.29244

> <r_epik_Ionization_Penalty_Charging>
1.29208

> <r_epik_Ionization_Penalty_Neutral>
0.000359742

> <r_epik_State_Penalty>
2.59896

> <r_epik_Charging_Adjusted_Penalty>
3.89105

> <i_epik_Tot_Q>
0

> <i_epik_Tot_abs_Q>
0

> <r_epik_Metal_State_Penalty>
3.62496

> <b_epik_Metal_Only>
0

> <s_lp_Force_Field>
OPLS_2005

> <r_lp_Energy>
42.7812

> <b_lp_Chiralities_Consistent>
1

> <s_lp_Variant>
AV-unprocessed.smi:2784-9

> <Gold.Version>
5.8.1

> <Gold.Id.Protein>
6NUR|6NUR_protein|mol2

> <Gold.PLP.Fitness>
42.7579

> <Gold.PLP.PLP>
-34.1514

> <Gold.PLP.part.hbond>
-2.0000

> <Gold.PLP.part.metal>
0.0000

> <Gold.PLP.part.buried>
-4.4995

> <Gold.PLP.part.nonpolar>
-28.4483

> <Gold.PLP.part.repulsive>
0.2252

> <Gold.PLP.ligand.clash>
0.0000

> <Gold.PLP.ligand.torsion>
0.1802

> <Gold.PLP.Chemscore.Hbond>
1.2887

> <Gold.PLP.Chemscore.CHOScore>
1.6980

> <Gold.PLP.Chemscore.Metal>
0.0000

> <Gold.Chemscore.Hbonds>
donor molecule, donor type, donor heavy atom, donor atom, acceptor molecule, acceptor atom, score
      P1  H  6933  6945       L1     2  0.41
      P1  H  7997  8010       L1    11  0.91
      L1  C    14    30       P1  7948  0.76
      L1  C    15    31       P1  7949  0.68

> <Gold.PLP.Chemscore.Internal.Correction>
0.0067

> <Gold.Rescore>
     Score         DG    S(hbond)    S(metal)    S(lipo)     H(rot)  DE(clash)    DE(int)     intcor
     14.42     -15.33       0.88        0.00      87.90       1.32       0.82       0.09       ----

> <Gold.Chemscore.Fitness>
14.4213

> <Gold.Chemscore.DG>
-15.3303

> <Gold.Chemscore.ZeroCoef>
-5.4800

> <Gold.Chemscore.Hbond>
0.8843

> <Gold.Chemscore.Metal>
0.0000

> <Gold.Chemscore.Lipo>
87.9038

> <Gold.Chemscore.Internal_Hbond>
0.0000

> <Gold.Chemscore.DEClash>
0.8171

> <Gold.Chemscore.DEInternal>
0.0918

> <Gold.Chemscore.Rot>
1.3235

> <Gold.Chemscore.Internal.Correction>
   9.000000E+99

> <Gold.Chemscore.Hbonds>
donor molecule, donor type, donor heavy atom, donor atom, acceptor molecule, acceptor atom, score
      P1  H  6933  6945       L1     2  0.18
      P1  H  7997  8010       L1    11  0.44

> <Gold.Chemscore.Hbond.Weighted>
-2.9537

> <Gold.Chemscore.Metal.Weighted>
-0.0000

> <Gold.Chemscore.Lipo.Weighted>
-10.2847

> <Gold.Chemscore.Internal_Hbond.Weighted>
0.0000

> <Gold.Chemscore.DEClash.Weighted>
0.8171

> <Gold.Chemscore.DEInternal.Weighted>
0.0918

> <Gold.Chemscore.Rot.Weighted>
3.3882

> <Gold.Chemscore.Internal.Correction.Weighted>
   9.000000E+99

> <Gold.Protein.RotatedTorsions>
[ 6907 6896 6895 6894 ] final   14.44 input  -60.11 | X-H torsion
[ 7974 7965 7964 7962 ] final -168.48 input  175.53 | X-H torsion
[ 8008 7997 7996 7995 ] final   75.35 input   59.86 | X-H torsion
[ 10167 10162 10161 10158 ] final  168.74 input  -65.29 | X-H torsion
[ 10718 10713 10712 10709 ] final -151.59 input   66.30 | X-H torsion
[ 10763 10752 10751 10750 ] final  -35.23 input  -60.55 | X-H torsion
[ 11005 11000 10999 10996 ] final   -4.92 input  -57.11 | X-H torsion

> <Gold.Protein.ActiveResidues>
 VAL166  LYS551  ARG553  GLY616  TRP617  ASP618  TYR619  PRO620  LYS621  CYS622 
 ASP623  PHE694  ASN695  SER759  ASP760  ASP761  ALA762  ILE779  LEU786  VAL792 
 PHE793  MET794  SER795  GLU796  ALA797  LYS798  CYS799  TRP800  GLU811  SER814 

> <Gold.Protein.RotatedAtoms>
  151.8023  135.0705  160.0401 H   0  0  0  0  0  0  0  0  0  0  0  0  # atno 6907 bound_to 6896
  152.3080  133.5719  159.5670 H   0  0  0  0  0  0  0  0  0  0  0  0  # atno 6908 bound_to 6896
  150.7306  134.0110  159.3711 H   0  0  0  0  0  0  0  0  0  0  0  0  # atno 6909 bound_to 6896
  144.7202  140.2363  143.6297 H   0  0  0  0  0  0  0  0  0  0  0  0  # atno 7974 bound_to 7965
  155.8116  140.3473  155.5461 H   0  0  0  0  0  0  0  0  0  0  0  0  # atno 8008 bound_to 7997
  155.8435  140.0945  157.1740 H   0  0  0  0  0  0  0  0  0  0  0  0  # atno 8009 bound_to 7997
  154.4005  140.1390  156.3745 H   0  0  0  0  0  0  0  0  0  0  0  0  # atno 8010 bound_to 7997
  139.4975  144.3782  151.9651 H   0  0  0  0  0  0  0  0  0  0  0  0  # atno 10167 bound_to 10162
  156.4613  130.8214  151.2445 H   0  0  0  0  0  0  0  0  0  0  0  0  # atno 10718 bound_to 10713
  153.8597  135.6841  153.4784 H   0  0  0  0  0  0  0  0  0  0  0  0  # atno 10763 bound_to 10752
  153.1349  135.4682  154.9404 H   0  0  0  0  0  0  0  0  0  0  0  0  # atno 10764 bound_to 10752
  154.7764  135.3254  154.8032 H   0  0  0  0  0  0  0  0  0  0  0  0  # atno 10765 bound_to 10752
  140.6856  133.9116  155.8584 H   0  0  0  0  0  0  0  0  0  0  0  0  # atno 11005 bound_to 11000
  145.8362  139.2109  143.1854 LP  0  0  0  0  0  0  0  0  0  0  0  0  # atno 17320 bound_to 7965
  146.0387  140.8187  142.9840 LP  0  0  0  0  0  0  0  0  0  0  0  0  # atno 17321 bound_to 7965
  140.3218  144.3419  150.6008 LP  0  0  0  0  0  0  0  0  0  0  0  0  # atno 17342 bound_to 10162
  140.5716  143.2180  151.7588 LP  0  0  0  0  0  0  0  0  0  0  0  0  # atno 17343 bound_to 10162
  157.7497  131.0106  150.3313 LP  0  0  0  0  0  0  0  0  0  0  0  0  # atno 17370 bound_to 10713
  156.3714  130.3864  149.7173 LP  0  0  0  0  0  0  0  0  0  0  0  0  # atno 17371 bound_to 10713
  141.0283  134.0792  157.4043 LP  0  0  0  0  0  0  0  0  0  0  0  0  # atno 17394 bound_to 11000
  139.8939  135.0133  156.6921 LP  0  0  0  0  0  0  0  0  0  0  0  0  # atno 17395 bound_to 11000

$$$$
