AV-unprocessed.smi:2310|AV-procd|sdf|9257|dock9
  -GOLD-   2272012483D 1   1.00000     0.00000
 Structure written by MMmdl.
 46 47  0  0  0  0  0  0  0  0  2 V2000
  149.3531  132.4952  153.8246 C   0  0  0  0  0  0  0  0  0  0  0  0
  149.2903  134.0262  153.7206 C   0  0  0  0  0  0  0  0  0  0  0  0
  150.1306  134.7592  154.7859 C   0  0  2  0  0  0  0  0  0  0  0  0
  149.7862  134.3023  156.2158 C   0  0  0  0  0  0  0  0  0  0  0  0
  150.7858  133.3960  156.8029 C   0  0  0  0  0  0  0  0  0  0  0  0
  151.5719  132.6837  157.2645 N   0  0  0  0  0  0  0  0  0  0  0  0
  149.9473  136.2041  154.6648 N   0  0  0  0  0  0  0  0  0  0  0  0
  150.3338  137.1102  155.5740 C   0  0  0  0  0  0  0  0  0  0  0  0
  150.8701  136.8142  156.6414 O   0  0  0  0  0  0  0  0  0  0  0  0
  150.0432  138.3596  155.1717 N   0  0  0  0  0  0  0  0  0  0  0  0
  150.2827  139.5874  155.8514 C   0  0  0  0  0  0  0  0  0  0  0  0
  151.0884  139.6727  157.0155 C   0  0  0  0  0  0  0  0  0  0  0  0
  151.3026  140.9221  157.6304 C   0  0  0  0  0  0  0  0  0  0  0  0
  150.7193  142.0799  157.0695 C   0  0  0  0  0  0  0  0  0  0  0  0
  150.8722  143.3686  157.6000 N   0  0  0  0  0  0  0  0  0  0  0  0
  150.2515  143.5695  158.8987 C   0  0  0  0  0  0  0  0  0  0  0  0
  150.8806  144.8463  159.4635 C   0  0  0  0  0  0  0  0  0  0  0  0
  152.1910  145.0188  158.6860 C   0  0  0  0  0  0  0  0  0  0  0  0
  152.2479  143.8157  157.7417 C   0  0  0  0  0  0  0  0  0  0  0  0
  149.9707  141.9608  155.9524 N   0  3  0  0  0  0  0  0  0  0  0  0
  149.7352  140.7862  155.3260 C   0  0  0  0  0  0  0  0  0  0  0  0
  148.8713  140.8528  154.0772 C   0  0  0  0  0  0  0  0  0  0  0  0
  148.7037  132.0319  153.0815 H   0  0  0  0  0  0  0  0  0  0  0  0
  149.0274  132.1544  154.8077 H   0  0  0  0  0  0  0  0  0  0  0  0
  150.3625  132.1198  153.6563 H   0  0  0  0  0  0  0  0  0  0  0  0
  149.6105  134.3336  152.7243 H   0  0  0  0  0  0  0  0  0  0  0  0
  148.2472  134.3305  153.8085 H   0  0  0  0  0  0  0  0  0  0  0  0
  151.1806  134.5265  154.5976 H   0  0  0  0  0  0  0  0  0  0  0  0
  149.6989  135.1596  156.8836 H   0  0  0  0  0  0  0  0  0  0  0  0
  148.8255  133.7870  156.2301 H   0  0  0  0  0  0  0  0  0  0  0  0
  149.5091  136.5349  153.8175 H   0  0  0  0  0  0  0  0  0  0  0  0
  149.5236  138.4370  154.3097 H   0  0  0  0  0  0  0  0  0  0  0  0
  151.5620  138.8030  157.4439 H   0  0  0  0  0  0  0  0  0  0  0  0
  151.9130  140.9836  158.5194 H   0  0  0  0  0  0  0  0  0  0  0  0
  149.1692  143.6639  158.8055 H   0  0  0  0  0  0  0  0  0  0  0  0
  150.4601  142.7257  159.5578 H   0  0  0  0  0  0  0  0  0  0  0  0
  150.2286  145.7029  159.2873 H   0  0  0  0  0  0  0  0  0  0  0  0
  151.0439  144.7695  160.5389 H   0  0  0  0  0  0  0  0  0  0  0  0
  152.1627  145.9473  158.1145 H   0  0  0  0  0  0  0  0  0  0  0  0
  153.0619  145.0589  159.3407 H   0  0  0  0  0  0  0  0  0  0  0  0
  152.8664  143.0293  158.1758 H   0  0  0  0  0  0  0  0  0  0  0  0
  152.6752  144.0847  156.7754 H   0  0  0  0  0  0  0  0  0  0  0  0
  148.7071  139.8796  153.6162 H   0  0  0  0  0  0  0  0  0  0  0  0
  149.3401  141.4975  153.3333 H   0  0  0  0  0  0  0  0  0  0  0  0
  147.8950  141.2726  154.3214 H   0  0  0  0  0  0  0  0  0  0  0  0
  149.5598  142.8071  155.5575 H   0  0  0  0  0  0  0  0  0  0  0  0
  1  2  1  0  0  0  0
  1 23  1  0  0  0  0
  1 24  1  0  0  0  0
  1 25  1  0  0  0  0
  2  3  1  0  0  0  0
  2 26  1  0  0  0  0
  2 27  1  0  0  0  0
  3  4  1  0  0  0  0
  3  7  1  0  0  0  0
  3 28  1  0  0  0  0
  4  5  1  0  0  0  0
  4 29  1  0  0  0  0
  4 30  1  0  0  0  0
  5  6  3  0  0  0  0
  7  8  1  0  0  0  0
  7 31  1  0  0  0  0
  8  9  2  0  0  0  0
  8 10  1  0  0  0  0
 10 11  1  0  0  0  0
 10 32  1  0  0  0  0
 11 21  1  0  0  0  0
 11 12  2  0  0  0  0
 12 13  1  0  0  0  0
 12 33  1  0  0  0  0
 13 14  2  0  0  0  0
 13 34  1  0  0  0  0
 14 15  1  0  0  0  0
 14 20  1  0  0  0  0
 15 19  1  0  0  0  0
 15 16  1  0  0  0  0
 16 17  1  0  0  0  0
 16 35  1  0  0  0  0
 16 36  1  0  0  0  0
 17 18  1  0  0  0  0
 17 37  1  0  0  0  0
 17 38  1  0  0  0  0
 18 19  1  0  0  0  0
 18 39  1  0  0  0  0
 18 40  1  0  0  0  0
 19 41  1  0  0  0  0
 19 42  1  0  0  0  0
 20 21  2  0  0  0  0
 20 46  1  0  0  0  0
 21 22  1  0  0  0  0
 22 43  1  0  0  0  0
 22 44  1  0  0  0  0
 22 45  1  0  0  0  0
M  CHG  1  20   1
M  END
> <s_m_source_file>
AV-unprocessed.smi

> <i_m_source_file_index>
2310

> <i_lp_mmshare_version>
43012

> <i_f3d_flags>
0

> <s_epik_input>
TiNDW0NIMl1bQ0BASF0oW0NIMl1bQ0gzXSlbTkhdQyg9TylbTkhdYzFbY0hdW2NIXWMobmMxW0NIM10pTjJbQ0gyXVtDSDJdW0NIMl1bQ0gyXTI=

> <s_epik_cmdline>
J2VwaWtfcHl0aG9uJywgJy1waCcsICc3LjAnLCAnLXRuJywgJzgnLCAnLW1hJywgJzIwMCcsICctbWV0YWxfYmluZGluZycsICctaW1hZScsICc8aW5maWxlLm1hZT4nLCAnLW9tYWUnLCAnPG91dGZpbGUubWFlPic=

> <r_lp_tautomer_probability>
0.999994

> <r_epik_Ionization_Penalty>
0.577302

> <r_epik_Ionization_Penalty_Charging>
0.577278

> <r_epik_Ionization_Penalty_Neutral>
2.39253e-05

> <r_epik_State_Penalty>
0.589738

> <r_epik_Charging_Adjusted_Penalty>
1.16702

> <i_epik_Tot_Q>
1

> <i_epik_Tot_abs_Q>
1

> <r_epik_Metal_State_Penalty>
0.784556

> <b_epik_Metal_Only>
0

> <s_lp_Force_Field>
OPLS_2005

> <r_lp_Energy>
39.7138

> <b_lp_Chiralities_Consistent>
1

> <s_lp_Variant>
AV-unprocessed.smi:2310-3

> <Gold.Version>
5.8.1

> <Gold.Id.Protein>
6NUR|6NUR_protein|mol2

> <Gold.PLP.Fitness>
46.7909

> <Gold.PLP.PLP>
-36.7391

> <Gold.PLP.part.hbond>
-3.0000

> <Gold.PLP.part.metal>
0.0000

> <Gold.PLP.part.buried>
-3.3545

> <Gold.PLP.part.nonpolar>
-31.6317

> <Gold.PLP.part.repulsive>
0.6373

> <Gold.PLP.ligand.clash>
0.0000

> <Gold.PLP.ligand.torsion>
0.9147

> <Gold.PLP.Chemscore.Hbond>
3.9516

> <Gold.PLP.Chemscore.CHOScore>
0.0000

> <Gold.PLP.Chemscore.Metal>
0.0000

> <Gold.Chemscore.Hbonds>
donor molecule, donor type, donor heavy atom, donor atom, acceptor molecule, acceptor atom, score
      L1  H     7    31       P1  7948  0.99
      L1  H    20    46       P1  8028  2.00
      P1  H  6896  6907       L1     6  0.90

> <Gold.PLP.Chemscore.Internal.Correction>
0.0264

> <Gold.Rescore>
     Score         DG    S(hbond)    S(metal)    S(lipo)     H(rot)  DE(clash)    DE(int)     intcor
     15.95     -20.53       2.54        0.00      92.97       1.68       1.19       3.39       ----

> <Gold.Chemscore.Fitness>
15.9518

> <Gold.Chemscore.DG>
-20.5270

> <Gold.Chemscore.ZeroCoef>
-5.4800

> <Gold.Chemscore.Hbond>
2.5370

> <Gold.Chemscore.Metal>
0.0000

> <Gold.Chemscore.Lipo>
92.9739

> <Gold.Chemscore.Internal_Hbond>
0.0000

> <Gold.Chemscore.DEClash>
1.1882

> <Gold.Chemscore.DEInternal>
3.3870

> <Gold.Chemscore.Rot>
1.6815

> <Gold.Chemscore.Internal.Correction>
   9.000000E+99

> <Gold.Chemscore.Hbonds>
donor molecule, donor type, donor heavy atom, donor atom, acceptor molecule, acceptor atom, score
      L1  H     7    31       P1  7948  0.68
      L1  H    20    46       P1  8028  0.91
      P1  H  6896  6907       L1     6  0.21

> <Gold.Chemscore.Hbond.Weighted>
-8.4736

> <Gold.Chemscore.Metal.Weighted>
-0.0000

> <Gold.Chemscore.Lipo.Weighted>
-10.8779

> <Gold.Chemscore.Internal_Hbond.Weighted>
0.0000

> <Gold.Chemscore.DEClash.Weighted>
1.1882

> <Gold.Chemscore.DEInternal.Weighted>
3.3870

> <Gold.Chemscore.Rot.Weighted>
4.3045

> <Gold.Chemscore.Internal.Correction.Weighted>
   9.000000E+99

> <Gold.Protein.RotatedTorsions>
[ 6907 6896 6895 6894 ] final -172.46 input  -60.11 | X-H torsion
[ 7974 7965 7964 7962 ] final  -87.05 input  175.53 | X-H torsion
[ 8008 7997 7996 7995 ] final  -50.00 input   59.86 | X-H torsion
[ 10167 10162 10161 10158 ] final  100.51 input  -65.29 | X-H torsion
[ 10718 10713 10712 10709 ] final -176.84 input   66.30 | X-H torsion
[ 10763 10752 10751 10750 ] final   53.16 input  -60.55 | X-H torsion
[ 11005 11000 10999 10996 ] final   23.01 input  -57.11 | X-H torsion

> <Gold.Protein.ActiveResidues>
 VAL166  LYS551  ARG553  GLY616  TRP617  ASP618  TYR619  PRO620  LYS621  CYS622 
 ASP623  PHE694  ASN695  SER759  ASP760  ASP761  ALA762  ILE779  LEU786  VAL792 
 PHE793  MET794  SER795  GLU796  ALA797  LYS798  CYS799  TRP800  GLU811  SER814 

> <Gold.Protein.RotatedAtoms>
  151.5403  133.3434  159.2933 H   0  0  0  0  0  0  0  0  0  0  0  0  # atno 6907 bound_to 6896
  150.8539  134.7875  159.7042 H   0  0  0  0  0  0  0  0  0  0  0  0  # atno 6908 bound_to 6896
  152.4578  134.5260  159.9848 H   0  0  0  0  0  0  0  0  0  0  0  0  # atno 6909 bound_to 6896
  145.4717  140.9559  143.1913 H   0  0  0  0  0  0  0  0  0  0  0  0  # atno 7974 bound_to 7965
  154.4054  140.1283  156.4594 H   0  0  0  0  0  0  0  0  0  0  0  0  # atno 8008 bound_to 7997
  155.7288  140.3491  155.5030 H   0  0  0  0  0  0  0  0  0  0  0  0  # atno 8009 bound_to 7997
  155.9147  140.1042  157.1243 H   0  0  0  0  0  0  0  0  0  0  0  0  # atno 8010 bound_to 7997
  139.7521  144.6981  151.0417 H   0  0  0  0  0  0  0  0  0  0  0  0  # atno 10167 bound_to 10162
  156.8207  130.9618  151.3112 H   0  0  0  0  0  0  0  0  0  0  0  0  # atno 10718 bound_to 10713
  152.9793  135.5788  154.4697 H   0  0  0  0  0  0  0  0  0  0  0  0  # atno 10763 bound_to 10752
  154.4261  135.2772  155.1945 H   0  0  0  0  0  0  0  0  0  0  0  0  # atno 10764 bound_to 10752
  154.3673  135.6175  153.5775 H   0  0  0  0  0  0  0  0  0  0  0  0  # atno 10765 bound_to 10752
  140.3743  134.1989  155.7665 H   0  0  0  0  0  0  0  0  0  0  0  0  # atno 11005 bound_to 11000
  144.7941  139.6269  143.7100 LP  0  0  0  0  0  0  0  0  0  0  0  0  # atno 17320 bound_to 7965
  146.2393  139.5968  142.9502 LP  0  0  0  0  0  0  0  0  0  0  0  0  # atno 17321 bound_to 7965
  140.7799  143.4796  151.0035 LP  0  0  0  0  0  0  0  0  0  0  0  0  # atno 17342 bound_to 10162
  139.8484  143.7471  152.3179 LP  0  0  0  0  0  0  0  0  0  0  0  0  # atno 17343 bound_to 10162
  157.6458  130.8843  149.9536 LP  0  0  0  0  0  0  0  0  0  0  0  0  # atno 17370 bound_to 10713
  156.0991  130.3657  150.0252 LP  0  0  0  0  0  0  0  0  0  0  0  0  # atno 17371 bound_to 10713
  141.1944  133.8128  157.0757 LP  0  0  0  0  0  0  0  0  0  0  0  0  # atno 17394 bound_to 11000
  140.0528  134.9797  157.1166 LP  0  0  0  0  0  0  0  0  0  0  0  0  # atno 17395 bound_to 11000

$$$$
