AV-unprocessed.smi:3226|AV-procd|sdf|12314|dock4
  -GOLD-   2272018163D 1   1.00000     0.00000
 Structure written by MMmdl.
 41 43  0  0  0  0  0  0  0  0  2 V2000
  152.9152  138.2327  158.6905 C   0  0  0  0  0  0  0  0  0  0  0  0
  152.4113  139.6295  158.3107 C   0  0  0  0  0  0  0  0  0  0  0  0
  151.8020  139.6696  156.9432 C   0  0  0  0  0  0  0  0  0  0  0  0
  152.4797  139.3705  155.8285 N   0  0  0  0  0  0  0  0  0  0  0  0
  151.5729  139.4945  154.7954 N   0  0  0  0  0  0  0  0  0  0  0  0
  150.4347  139.8464  155.3898 C   0  0  0  0  0  0  0  0  0  0  0  0
  150.5057  139.9772  156.7236 N   0  0  0  0  0  0  0  0  0  0  0  0
  149.4478  140.3434  157.6500 C   0  0  0  0  0  0  0  0  0  0  0  0
  148.9111  141.7621  157.3988 C   0  0  0  0  0  0  0  0  0  0  0  0
  149.8226  142.5492  156.5436 N   0  3  0  0  0  0  0  0  0  0  0  0
  151.1472  142.7963  157.1455 C   0  0  0  0  0  0  0  0  0  0  0  0
  151.1379  144.0721  158.0084 C   0  0  1  0  0  0  0  0  0  0  0  0
  150.3774  143.9362  159.3645 C   0  0  0  0  0  0  0  0  0  0  0  0
  151.4235  144.4112  160.3993 C   0  0  1  0  0  0  0  0  0  0  0  0
  152.5256  143.3751  160.4436 C   0  0  0  0  0  0  0  0  0  0  0  0
  153.1945  143.4587  159.2924 C   0  0  0  0  0  0  0  0  0  0  0  0
  152.5408  144.5508  158.4680 C   0  0  2  0  0  0  0  0  0  0  0  0
  152.1226  145.5086  159.5901 C   0  0  0  0  0  0  0  0  0  0  0  0
  153.3571  138.2364  159.6871 H   0  0  0  0  0  0  0  0  0  0  0  0
  153.6751  137.8848  157.9901 H   0  0  0  0  0  0  0  0  0  0  0  0
  152.1018  137.5066  158.6897 H   0  0  0  0  0  0  0  0  0  0  0  0
  151.6890  139.9799  159.0476 H   0  0  0  0  0  0  0  0  0  0  0  0
  153.2415  140.3361  158.3407 H   0  0  0  0  0  0  0  0  0  0  0  0
  149.5232  140.0165  154.8357 H   0  0  0  0  0  0  0  0  0  0  0  0
  148.6426  139.6118  157.5691 H   0  0  0  0  0  0  0  0  0  0  0  0
  149.8333  140.2635  158.6667 H   0  0  0  0  0  0  0  0  0  0  0  0
  147.9387  141.6961  156.9091 H   0  0  0  0  0  0  0  0  0  0  0  0
  148.7560  142.2853  158.3432 H   0  0  0  0  0  0  0  0  0  0  0  0
  149.9522  142.0558  155.6717 H   0  0  0  0  0  0  0  0  0  0  0  0
  151.4383  141.9284  157.7383 H   0  0  0  0  0  0  0  0  0  0  0  0
  151.8822  142.9005  156.3464 H   0  0  0  0  0  0  0  0  0  0  0  0
  150.6812  144.8758  157.4276 H   0  0  0  0  0  0  0  0  0  0  0  0
  149.4948  144.5771  159.3765 H   0  0  0  0  0  0  0  0  0  0  0  0
  150.0485  142.9161  159.5679 H   0  0  0  0  0  0  0  0  0  0  0  0
  151.0395  144.7156  161.3733 H   0  0  0  0  0  0  0  0  0  0  0  0
  152.6932  142.6867  161.2590 H   0  0  0  0  0  0  0  0  0  0  0  0
  154.0260  142.8524  158.9648 H   0  0  0  0  0  0  0  0  0  0  0  0
  153.1777  144.9884  157.6989 H   0  0  0  0  0  0  0  0  0  0  0  0
  151.4574  146.3113  159.2657 H   0  0  0  0  0  0  0  0  0  0  0  0
  152.9735  145.9482  160.1150 H   0  0  0  0  0  0  0  0  0  0  0  0
  149.3914  143.4417  156.3490 H   0  0  0  0  0  0  0  0  0  0  0  0
  1  2  1  0  0  0  0
  1 19  1  0  0  0  0
  1 20  1  0  0  0  0
  1 21  1  0  0  0  0
  2  3  1  0  0  0  0
  2 22  1  0  0  0  0
  2 23  1  0  0  0  0
  3  7  1  0  0  0  0
  3  4  2  0  0  0  0
  4  5  1  0  0  0  0
  5  6  2  0  0  0  0
  6  7  1  0  0  0  0
  6 24  1  0  0  0  0
  7  8  1  0  0  0  0
  8  9  1  0  0  0  0
  8 25  1  0  0  0  0
  8 26  1  0  0  0  0
  9 10  1  0  0  0  0
  9 27  1  0  0  0  0
  9 28  1  0  0  0  0
 10 11  1  0  0  0  0
 10 29  1  0  0  0  0
 10 41  1  0  0  0  0
 11 12  1  0  0  0  0
 11 30  1  0  0  0  0
 11 31  1  0  0  0  0
 12 17  1  0  0  0  0
 12 13  1  0  0  0  0
 12 32  1  0  0  0  0
 13 14  1  0  0  0  0
 13 33  1  0  0  0  0
 13 34  1  0  0  0  0
 14 18  1  0  0  0  0
 14 15  1  0  0  0  0
 14 35  1  0  0  0  0
 15 16  2  0  0  0  0
 15 36  1  0  0  0  0
 16 17  1  0  0  0  0
 16 37  1  0  0  0  0
 17 18  1  0  0  0  0
 17 38  1  0  0  0  0
 18 39  1  0  0  0  0
 18 40  1  0  0  0  0
M  CHG  1  10   1
M  END
> <s_m_source_file>
AV-unprocessed.smi

> <i_m_source_file_index>
3226

> <i_lp_mmshare_version>
43012

> <i_f3d_flags>
0

> <s_epik_input>
W0NIM11bQ0gyXWMxbm5bY0hdbjFbQ0gyXVtDSDJdW05IXVtDSDJdW0NASF0oW0NIMl1bQ0BASF0yMylbQ0BASF0oW0NIMl0zKVtDSF09W0NIXTI=

> <s_epik_cmdline>
J2VwaWtfcHl0aG9uJywgJy1waCcsICc3LjAnLCAnLXRuJywgJzgnLCAnLW1hJywgJzIwMCcsICctbWV0YWxfYmluZGluZycsICctaW1hZScsICc8aW5maWxlLm1hZT4nLCAnLW9tYWUnLCAnPG91dGZpbGUubWFlPic=

> <r_lp_tautomer_probability>
1

> <r_epik_Ionization_Penalty>
0.00175008

> <r_epik_Ionization_Penalty_Charging>
0.00173932

> <r_epik_Ionization_Penalty_Neutral>
1.07546e-05

> <r_epik_State_Penalty>
-0

> <r_epik_Charging_Adjusted_Penalty>
0.00173932

> <i_epik_Tot_Q>
1

> <i_epik_Tot_abs_Q>
1

> <r_epik_Metal_State_Penalty>
-0

> <b_epik_Metal_Only>
0

> <s_lp_Force_Field>
OPLS_2005

> <r_lp_Energy>
65.2823

> <b_lp_Chiralities_Consistent>
1

> <s_lp_Variant>
AV-unprocessed.smi:3226-2

> <Gold.Version>
5.8.1

> <Gold.Id.Protein>
6NUR|6NUR_protein|mol2

> <Gold.PLP.Fitness>
51.7769

> <Gold.PLP.PLP>
-40.8321

> <Gold.PLP.part.hbond>
-2.9465

> <Gold.PLP.part.metal>
0.0000

> <Gold.PLP.part.buried>
-6.6425

> <Gold.PLP.part.nonpolar>
-32.1918

> <Gold.PLP.part.repulsive>
0.1153

> <Gold.PLP.ligand.clash>
0.0000

> <Gold.PLP.ligand.torsion>
0.5659

> <Gold.PLP.Chemscore.Hbond>
4.0000

> <Gold.PLP.Chemscore.CHOScore>
0.0000

> <Gold.PLP.Chemscore.Metal>
0.0000

> <Gold.Chemscore.Hbonds>
donor molecule, donor type, donor heavy atom, donor atom, acceptor molecule, acceptor atom, score
      L1  H    10    41       P1  8028  2.00
      P1  H  7989  7998       L1     5  0.95
      P1  H  7997  8009       L1     4  0.94

> <Gold.PLP.Chemscore.Internal.Correction>
0.0766

> <Gold.Rescore>
     Score         DG    S(hbond)    S(metal)    S(lipo)     H(rot)  DE(clash)    DE(int)     intcor
     17.56     -19.39       1.85        0.00     111.16       2.06       0.01       1.82       ----

> <Gold.Chemscore.Fitness>
17.5560

> <Gold.Chemscore.DG>
-19.3862

> <Gold.Chemscore.ZeroCoef>
-5.4800

> <Gold.Chemscore.Hbond>
1.8504

> <Gold.Chemscore.Metal>
0.0000

> <Gold.Chemscore.Lipo>
111.1574

> <Gold.Chemscore.Internal_Hbond>
0.0000

> <Gold.Chemscore.DEClash>
0.0149

> <Gold.Chemscore.DEInternal>
1.8154

> <Gold.Chemscore.Rot>
2.0623

> <Gold.Chemscore.Internal.Correction>
   9.000000E+99

> <Gold.Chemscore.Hbonds>
donor molecule, donor type, donor heavy atom, donor atom, acceptor molecule, acceptor atom, score
      L1  H    10    41       P1  8028  0.93
      P1  H  7989  7998       L1     5  0.21
      P1  H  7997  8009       L1     4  0.31

> <Gold.Chemscore.Hbond.Weighted>
-6.1804

> <Gold.Chemscore.Metal.Weighted>
-0.0000

> <Gold.Chemscore.Lipo.Weighted>
-13.0054

> <Gold.Chemscore.Internal_Hbond.Weighted>
0.0000

> <Gold.Chemscore.DEClash.Weighted>
0.0149

> <Gold.Chemscore.DEInternal.Weighted>
1.8154

> <Gold.Chemscore.Rot.Weighted>
5.2796

> <Gold.Chemscore.Internal.Correction.Weighted>
   9.000000E+99

> <Gold.Protein.RotatedTorsions>
[ 6907 6896 6895 6894 ] final  -11.49 input  -60.11 | X-H torsion
[ 7974 7965 7964 7962 ] final  -84.60 input  175.53 | X-H torsion
[ 8008 7997 7996 7995 ] final -158.23 input   59.86 | X-H torsion
[ 10167 10162 10161 10158 ] final   31.28 input  -65.29 | X-H torsion
[ 10718 10713 10712 10709 ] final   -1.41 input   66.30 | X-H torsion
[ 10763 10752 10751 10750 ] final -120.37 input  -60.55 | X-H torsion
[ 11005 11000 10999 10996 ] final  -36.96 input  -57.11 | X-H torsion

> <Gold.Protein.ActiveResidues>
 VAL166  LYS551  ARG553  GLY616  TRP617  ASP618  TYR619  PRO620  LYS621  CYS622 
 ASP623  PHE694  ASN695  SER759  ASP760  ASP761  ALA762  ILE779  LEU786  VAL792 
 PHE793  MET794  SER795  GLU796  ALA797  LYS798  CYS799  TRP800  GLU811  SER814 

> <Gold.Protein.RotatedAtoms>
  151.3853  135.0947  159.9508 H   0  0  0  0  0  0  0  0  0  0  0  0  # atno 6907 bound_to 6896
  152.5096  133.9032  159.7461 H   0  0  0  0  0  0  0  0  0  0  0  0  # atno 6908 bound_to 6896
  150.9474  133.6532  159.2807 H   0  0  0  0  0  0  0  0  0  0  0  0  # atno 6909 bound_to 6896
  145.5045  140.9545  143.1741 H   0  0  0  0  0  0  0  0  0  0  0  0  # atno 7974 bound_to 7965
  155.7444  140.0818  157.2231 H   0  0  0  0  0  0  0  0  0  0  0  0  # atno 8008 bound_to 7997
  154.4018  140.1572  156.2708 H   0  0  0  0  0  0  0  0  0  0  0  0  # atno 8009 bound_to 7997
  155.8990  140.3411  155.6015 H   0  0  0  0  0  0  0  0  0  0  0  0  # atno 8010 bound_to 7997
  140.4603  144.0917  150.6211 H   0  0  0  0  0  0  0  0  0  0  0  0  # atno 10167 bound_to 10162
  156.8060  130.5408  149.5715 H   0  0  0  0  0  0  0  0  0  0  0  0  # atno 10718 bound_to 10713
  154.8642  135.4205  154.2448 H   0  0  0  0  0  0  0  0  0  0  0  0  # atno 10763 bound_to 10752
  153.3407  135.6993  153.6875 H   0  0  0  0  0  0  0  0  0  0  0  0  # atno 10764 bound_to 10752
  153.5855  135.3564  155.2864 H   0  0  0  0  0  0  0  0  0  0  0  0  # atno 10765 bound_to 10752
  140.9915  133.7002  156.1859 H   0  0  0  0  0  0  0  0  0  0  0  0  # atno 11005 bound_to 11000
  144.7761  139.6626  143.7174 LP  0  0  0  0  0  0  0  0  0  0  0  0  # atno 17320 bound_to 7965
  146.2205  139.5627  142.9621 LP  0  0  0  0  0  0  0  0  0  0  0  0  # atno 17321 bound_to 7965
  140.4102  143.2661  151.9842 LP  0  0  0  0  0  0  0  0  0  0  0  0  # atno 17342 bound_to 10162
  139.4805  144.5922  151.7752 LP  0  0  0  0  0  0  0  0  0  0  0  0  # atno 17343 bound_to 10162
  156.1073  130.6014  150.9991 LP  0  0  0  0  0  0  0  0  0  0  0  0  # atno 17370 bound_to 10713
  157.6530  131.0894  150.8009 LP  0  0  0  0  0  0  0  0  0  0  0  0  # atno 17371 bound_to 10713
  140.7032  134.4541  157.5585 LP  0  0  0  0  0  0  0  0  0  0  0  0  # atno 17394 bound_to 11000
  139.8994  134.8591  156.1959 LP  0  0  0  0  0  0  0  0  0  0  0  0  # atno 17395 bound_to 11000

$$$$
