AV-unprocessed.smi:1048|AV-procd|sdf|4604|dock3
  -GOLD-   22720 3103D 1   1.00000     0.00000
 Structure written by MMmdl.
 46 47  0  0  0  0  0  0  0  0  2 V2000
  143.3572  144.1310  155.9263 C   0  0  0  0  0  0  0  0  0  0  0  0
  144.6581  143.4379  155.4978 C   0  0  2  0  0  0  0  0  0  0  0  0
  145.0252  143.7645  154.0402 C   0  0  0  0  0  0  0  0  0  0  0  0
  146.3125  143.0399  153.6119 C   0  0  0  0  0  0  0  0  0  0  0  0
  146.1888  141.5702  153.8008 N   0  3  1  0  0  0  0  0  0  0  0  0
  147.3547  140.8111  153.2796 C   0  0  0  0  0  0  0  0  0  0  0  0
  147.1837  139.2867  153.4403 C   0  0  2  0  0  0  0  0  0  0  0  0
  148.4545  138.7063  153.2204 O   0  0  0  0  0  0  0  0  0  0  0  0
  146.1981  138.7145  152.4006 C   0  0  0  0  0  0  0  0  0  0  0  0
  146.5163  137.3351  152.0457 N   0  0  0  0  0  0  0  0  0  0  0  0
  145.6134  136.3737  151.8070 C   0  0  0  0  0  0  0  0  0  0  0  0
  144.3981  136.5635  151.8404 O   0  0  0  0  0  0  0  0  0  0  0  0
  146.2107  135.2078  151.5077 N   0  0  0  0  0  0  0  0  0  0  0  0
  145.6059  133.9518  151.2312 C   0  0  0  0  0  0  0  0  0  0  0  0
  144.1975  133.8837  151.2177 C   0  0  0  0  0  0  0  0  0  0  0  0
  143.5722  132.6568  150.9251 C   0  0  0  0  0  0  0  0  0  0  0  0
  144.3848  131.5412  150.6459 C   0  0  0  0  0  0  0  0  0  0  0  0
  145.7335  131.5913  150.6398 N   0  0  0  0  0  0  0  0  0  0  0  0
  146.3268  132.7709  150.9238 C   0  0  0  0  0  0  0  0  0  0  0  0
  145.8719  141.2264  155.2104 C   0  0  0  0  0  0  0  0  0  0  0  0
  144.5738  141.9118  155.6691 C   0  0  0  0  0  0  0  0  0  0  0  0
  142.5124  143.8017  155.3206 H   0  0  0  0  0  0  0  0  0  0  0  0
  143.4378  145.2137  155.8243 H   0  0  0  0  0  0  0  0  0  0  0  0
  143.1227  143.9152  156.9691 H   0  0  0  0  0  0  0  0  0  0  0  0
  145.4579  143.8082  156.1411 H   0  0  0  0  0  0  0  0  0  0  0  0
  144.2077  143.4761  153.3777 H   0  0  0  0  0  0  0  0  0  0  0  0
  145.1540  144.8410  153.9205 H   0  0  0  0  0  0  0  0  0  0  0  0
  146.5187  143.2720  152.5677 H   0  0  0  0  0  0  0  0  0  0  0  0
  147.1599  143.4120  154.1900 H   0  0  0  0  0  0  0  0  0  0  0  0
  147.5141  141.0747  152.2329 H   0  0  0  0  0  0  0  0  0  0  0  0
  148.2618  141.1130  153.8065 H   0  0  0  0  0  0  0  0  0  0  0  0
  146.8403  139.0429  154.4458 H   0  0  0  0  0  0  0  0  0  0  0  0
  148.7658  138.9778  152.3689 H   0  0  0  0  0  0  0  0  0  0  0  0
  145.1957  138.6865  152.8284 H   0  0  0  0  0  0  0  0  0  0  0  0
  146.1287  139.3510  151.5161 H   0  0  0  0  0  0  0  0  0  0  0  0
  147.4948  137.0918  151.9928 H   0  0  0  0  0  0  0  0  0  0  0  0
  147.2169  135.2296  151.4295 H   0  0  0  0  0  0  0  0  0  0  0  0
  143.6005  134.7579  151.4327 H   0  0  0  0  0  0  0  0  0  0  0  0
  142.4955  132.5732  150.9132 H   0  0  0  0  0  0  0  0  0  0  0  0
  143.9394  130.5849  150.4149 H   0  0  0  0  0  0  0  0  0  0  0  0
  147.4044  132.7545  150.8766 H   0  0  0  0  0  0  0  0  0  0  0  0
  145.7570  140.1462  155.3095 H   0  0  0  0  0  0  0  0  0  0  0  0
  146.7029  141.5187  155.8540 H   0  0  0  0  0  0  0  0  0  0  0  0
  144.3771  141.6630  156.7125 H   0  0  0  0  0  0  0  0  0  0  0  0
  143.7330  141.5196  155.0947 H   0  0  0  0  0  0  0  0  0  0  0  0
  145.3940  141.2664  153.2558 H   0  0  0  0  0  0  0  0  0  0  0  0
  1  2  1  0  0  0  0
  1 22  1  0  0  0  0
  1 23  1  0  0  0  0
  1 24  1  0  0  0  0
  2 21  1  0  0  0  0
  2  3  1  0  0  0  0
  2 25  1  0  0  0  0
  3  4  1  0  0  0  0
  3 26  1  0  0  0  0
  3 27  1  0  0  0  0
  4  5  1  0  0  0  0
  4 28  1  0  0  0  0
  4 29  1  0  0  0  0
  5  6  1  0  0  0  0
  5 20  1  0  0  0  0
  5 46  1  0  0  0  0
  6  7  1  0  0  0  0
  6 30  1  0  0  0  0
  6 31  1  0  0  0  0
  7  8  1  0  0  0  0
  7  9  1  0  0  0  0
  7 32  1  0  0  0  0
  8 33  1  0  0  0  0
  9 10  1  0  0  0  0
  9 34  1  0  0  0  0
  9 35  1  0  0  0  0
 10 11  1  0  0  0  0
 10 36  1  0  0  0  0
 11 12  2  0  0  0  0
 11 13  1  0  0  0  0
 13 14  1  0  0  0  0
 13 37  1  0  0  0  0
 14 19  1  0  0  0  0
 14 15  2  0  0  0  0
 15 16  1  0  0  0  0
 15 38  1  0  0  0  0
 16 17  2  0  0  0  0
 16 39  1  0  0  0  0
 17 18  1  0  0  0  0
 17 40  1  0  0  0  0
 18 19  2  0  0  0  0
 19 41  1  0  0  0  0
 20 21  1  0  0  0  0
 20 42  1  0  0  0  0
 20 43  1  0  0  0  0
 21 44  1  0  0  0  0
 21 45  1  0  0  0  0
M  CHG  1   5   1
M  END
> <s_m_source_file>
AV-unprocessed.smi

> <i_m_source_file_index>
1048

> <i_lp_mmshare_version>
43012

> <i_f3d_flags>
0

> <s_epik_input>
W0NIM11bQ0hdMVtDSDJdW0NIMl1OKFtDSDJdW0NIMl0xKVtDSDJdW0NASF0oW09IXSlbQ0gyXVtOSF1DKD1PKVtOSF1jMltjSF1bY0hdW2NIXW5bY0hdMg==

> <s_epik_cmdline>
J2VwaWtfcHl0aG9uJywgJy1waCcsICc3LjAnLCAnLXRuJywgJzgnLCAnLW1hJywgJzIwMCcsICctbWV0YWxfYmluZGluZycsICctaW1hZScsICc8aW5maWxlLm1hZT4nLCAnLW9tYWUnLCAnPG91dGZpbGUubWFlPic=

> <r_lp_tautomer_probability>
1

> <r_epik_Ionization_Penalty>
0.00581049

> <r_epik_Ionization_Penalty_Charging>
0.00147689

> <r_epik_Ionization_Penalty_Neutral>
0.0043336

> <r_epik_State_Penalty>
-0

> <r_epik_Charging_Adjusted_Penalty>
0.00147689

> <i_epik_Tot_Q>
1

> <i_epik_Tot_abs_Q>
1

> <r_epik_Metal_State_Penalty>
-0

> <b_epik_Metal_Only>
0

> <s_lp_Force_Field>
OPLS_2005

> <r_lp_Energy>
22.5683

> <b_lp_Chiralities_Consistent>
1

> <s_lp_Variant>
AV-unprocessed.smi:1048-1

> <Gold.Version>
5.8.1

> <Gold.Id.Protein>
6NUR|6NUR_protein|mol2

> <Gold.PLP.Fitness>
55.2856

> <Gold.PLP.PLP>
-38.6013

> <Gold.PLP.part.hbond>
-4.9750

> <Gold.PLP.part.metal>
0.0000

> <Gold.PLP.part.buried>
-7.0760

> <Gold.PLP.part.nonpolar>
-28.7259

> <Gold.PLP.part.repulsive>
1.0985

> <Gold.PLP.ligand.clash>
0.0000

> <Gold.PLP.ligand.torsion>
0.6243

> <Gold.PLP.Chemscore.Hbond>
4.9600

> <Gold.PLP.Chemscore.CHOScore>
1.0000

> <Gold.PLP.Chemscore.Metal>
0.0000

> <Gold.Chemscore.Hbonds>
donor molecule, donor type, donor heavy atom, donor atom, acceptor molecule, acceptor atom, score
      L1  H     5    46       P1 10175  1.80
      L1  H     8    33       P1  7957  1.00
      L1  H    10    36       P1  7948  1.00
      L1  H    13    37       P1  7948  0.98
      L1  C    19    41       P1 10747  1.00

> <Gold.PLP.Chemscore.Internal.Correction>
0.0528

> <Gold.Rescore>
     Score         DG    S(hbond)    S(metal)    S(lipo)     H(rot)  DE(clash)    DE(int)     intcor
     17.49     -20.09       3.37        0.00      78.59       2.29       0.52       2.08       ----

> <Gold.Chemscore.Fitness>
17.4920

> <Gold.Chemscore.DG>
-20.0900

> <Gold.Chemscore.ZeroCoef>
-5.4800

> <Gold.Chemscore.Hbond>
3.3738

> <Gold.Chemscore.Metal>
0.0000

> <Gold.Chemscore.Lipo>
78.5912

> <Gold.Chemscore.Internal_Hbond>
0.0000

> <Gold.Chemscore.DEClash>
0.5156

> <Gold.Chemscore.DEInternal>
2.0824

> <Gold.Chemscore.Rot>
2.2865

> <Gold.Chemscore.Internal.Correction>
   9.000000E+99

> <Gold.Chemscore.Hbonds>
donor molecule, donor type, donor heavy atom, donor atom, acceptor molecule, acceptor atom, score
      L1  H     5    46       P1 10175  0.17
      L1  H     8    33       P1  7957  0.98
      L1  H    10    36       P1  7948  1.00
      L1  H    13    37       P1  7948  0.77

> <Gold.Chemscore.Hbond.Weighted>
-11.2684

> <Gold.Chemscore.Metal.Weighted>
-0.0000

> <Gold.Chemscore.Lipo.Weighted>
-9.1952

> <Gold.Chemscore.Internal_Hbond.Weighted>
0.0000

> <Gold.Chemscore.DEClash.Weighted>
0.5156

> <Gold.Chemscore.DEInternal.Weighted>
2.0824

> <Gold.Chemscore.Rot.Weighted>
5.8536

> <Gold.Chemscore.Internal.Correction.Weighted>
   9.000000E+99

> <Gold.Protein.RotatedTorsions>
[ 6907 6896 6895 6894 ] final  -51.69 input  -60.11 | X-H torsion
[ 7974 7965 7964 7962 ] final  156.47 input  175.53 | X-H torsion
[ 8008 7997 7996 7995 ] final  -22.88 input   59.86 | X-H torsion
[ 10167 10162 10161 10158 ] final  174.31 input  -65.29 | X-H torsion
[ 10718 10713 10712 10709 ] final    5.92 input   66.30 | X-H torsion
[ 10763 10752 10751 10750 ] final   62.86 input  -60.55 | X-H torsion
[ 11005 11000 10999 10996 ] final -170.65 input  -57.11 | X-H torsion

> <Gold.Protein.ActiveResidues>
 VAL166  LYS551  ARG553  GLY616  TRP617  ASP618  TYR619  PRO620  LYS621  CYS622 
 ASP623  PHE694  ASN695  SER759  ASP760  ASP761  ALA762  ILE779  LEU786  VAL792 
 PHE793  MET794  SER795  GLU796  ALA797  LYS798  CYS799  TRP800  GLU811  SER814 

> <Gold.Protein.RotatedAtoms>
  150.8588  134.7934  159.7066 H   0  0  0  0  0  0  0  0  0  0  0  0  # atno 6907 bound_to 6896
  152.4631  134.5134  159.9770 H   0  0  0  0  0  0  0  0  0  0  0  0  # atno 6908 bound_to 6896
  151.5242  133.3422  159.2942 H   0  0  0  0  0  0  0  0  0  0  0  0  # atno 6909 bound_to 6896
  144.7961  139.7208  143.6201 H   0  0  0  0  0  0  0  0  0  0  0  0  # atno 7974 bound_to 7965
  154.4618  140.1996  156.0225 H   0  0  0  0  0  0  0  0  0  0  0  0  # atno 8008 bound_to 7997
  156.0853  140.3266  155.7717 H   0  0  0  0  0  0  0  0  0  0  0  0  # atno 8009 bound_to 7997
  155.5045  140.0556  157.2924 H   0  0  0  0  0  0  0  0  0  0  0  0  # atno 8010 bound_to 7997
  139.5137  144.3162  152.0246 H   0  0  0  0  0  0  0  0  0  0  0  0  # atno 10167 bound_to 10162
  156.9146  130.5768  149.5647 H   0  0  0  0  0  0  0  0  0  0  0  0  # atno 10718 bound_to 10713
  152.9997  135.5450  154.6260 H   0  0  0  0  0  0  0  0  0  0  0  0  # atno 10763 bound_to 10752
  154.5548  135.2829  155.0976 H   0  0  0  0  0  0  0  0  0  0  0  0  # atno 10764 bound_to 10752
  154.2202  135.6452  153.5195 H   0  0  0  0  0  0  0  0  0  0  0  0  # atno 10765 bound_to 10752
  140.5171  134.5745  157.5036 H   0  0  0  0  0  0  0  0  0  0  0  0  # atno 11005 bound_to 11000
  146.2229  139.5670  142.9606 LP  0  0  0  0  0  0  0  0  0  0  0  0  # atno 17320 bound_to 7965
  145.5670  141.0398  143.2195 LP  0  0  0  0  0  0  0  0  0  0  0  0  # atno 17321 bound_to 7965
  140.2605  144.4073  150.6187 LP  0  0  0  0  0  0  0  0  0  0  0  0  # atno 17342 bound_to 10162
  140.6161  143.2172  151.6789 LP  0  0  0  0  0  0  0  0  0  0  0  0  # atno 17343 bound_to 10162
  156.0520  130.5587  150.9009 LP  0  0  0  0  0  0  0  0  0  0  0  0  # atno 17370 bound_to 10713
  157.5946  131.0943  150.9062 LP  0  0  0  0  0  0  0  0  0  0  0  0  # atno 17371 bound_to 10713
  139.9626  134.7426  156.0204 LP  0  0  0  0  0  0  0  0  0  0  0  0  # atno 17394 bound_to 11000
  141.1354  133.6576  156.3580 LP  0  0  0  0  0  0  0  0  0  0  0  0  # atno 17395 bound_to 11000

$$$$
