AV-unprocessed.smi:2276|AV-procd|sdf|9172|dock6
  -GOLD-   2272012383D 1   1.00000     0.00000
 Structure written by MMmdl.
 53 54  0  0  0  0  0  0  0  0  2 V2000
  153.9148  141.4379  160.6552 C   0  0  0  0  0  0  0  0  0  0  0  0
  153.0439  142.4115  159.8894 C   0  0  0  0  0  0  0  0  0  0  0  0
  152.9015  143.7454  160.3172 C   0  0  0  0  0  0  0  0  0  0  0  0
  152.0774  144.6018  159.5617 C   0  0  0  0  0  0  0  0  0  0  0  0
  151.8781  146.0471  159.9670 C   0  0  0  0  0  0  0  0  0  0  0  0
  151.4183  144.2007  158.4538 N   0  0  0  0  0  0  0  0  0  0  0  0
  151.5543  142.9201  158.0274 C   0  0  0  0  0  0  0  0  0  0  0  0
  150.8872  142.3990  156.8874 N   0  0  0  0  0  0  0  0  0  0  0  0
  150.6699  141.1074  156.5858 C   0  0  0  0  0  0  0  0  0  0  0  0
  150.7899  140.1674  157.3723 O   0  0  0  0  0  0  0  0  0  0  0  0
  150.3247  140.9587  155.2984 N   0  0  0  0  0  0  0  0  0  0  0  0
  150.1583  139.6857  154.5986 C   0  0  0  0  0  0  0  0  0  0  0  0
  149.3553  138.6661  155.4388 C   0  0  2  0  0  0  0  0  0  0  0  0
  149.2155  137.3367  154.6808 C   0  0  0  0  0  0  0  0  0  0  0  0
  147.9573  139.2078  155.8306 C   0  0  0  0  0  0  0  0  0  0  0  0
  146.9431  139.0513  154.7836 N   0  0  0  0  0  0  0  0  0  0  0  0
  145.5900  139.4825  155.1610 C   0  0  0  0  0  0  0  0  0  0  0  0
  145.4884  141.0094  155.3673 C   0  0  0  0  0  0  0  0  0  0  0  0
  145.9215  141.7322  154.1497 N   0  3  0  0  0  0  0  0  0  0  0  0
  145.8170  143.1992  154.2975 C   0  0  0  0  0  0  0  0  0  0  0  0
  147.2741  141.2958  153.7306 C   0  0  0  0  0  0  0  0  0  0  0  0
  147.3223  139.7607  153.5577 C   0  0  0  0  0  0  0  0  0  0  0  0
  152.3585  141.9954  158.7301 C   0  0  0  0  0  0  0  0  0  0  0  0
  154.3004  141.8865  161.5712 H   0  0  0  0  0  0  0  0  0  0  0  0
  154.7619  141.1278  160.0434 H   0  0  0  0  0  0  0  0  0  0  0  0
  153.3427  140.5503  160.9259 H   0  0  0  0  0  0  0  0  0  0  0  0
  153.4113  144.1032  161.2000 H   0  0  0  0  0  0  0  0  0  0  0  0
  152.6235  146.3565  160.7000 H   0  0  0  0  0  0  0  0  0  0  0  0
  150.8901  146.1836  160.4064 H   0  0  0  0  0  0  0  0  0  0  0  0
  151.9631  146.7037  159.1006 H   0  0  0  0  0  0  0  0  0  0  0  0
  150.6446  143.0758  156.1791 H   0  0  0  0  0  0  0  0  0  0  0  0
  150.2305  141.7928  154.7373 H   0  0  0  0  0  0  0  0  0  0  0  0
  149.6972  139.8275  153.6196 H   0  0  0  0  0  0  0  0  0  0  0  0
  151.1594  139.2978  154.4084 H   0  0  0  0  0  0  0  0  0  0  0  0
  149.9491  138.4626  156.3285 H   0  0  0  0  0  0  0  0  0  0  0  0
  148.6676  137.4667  153.7471 H   0  0  0  0  0  0  0  0  0  0  0  0
  148.6830  136.5973  155.2796 H   0  0  0  0  0  0  0  0  0  0  0  0
  150.1920  136.9174  154.4367 H   0  0  0  0  0  0  0  0  0  0  0  0
  147.5998  138.7399  156.7406 H   0  0  0  0  0  0  0  0  0  0  0  0
  148.0560  140.2656  156.0779 H   0  0  0  0  0  0  0  0  0  0  0  0
  144.9045  139.1814  154.3677 H   0  0  0  0  0  0  0  0  0  0  0  0
  145.2486  138.9634  156.0546 H   0  0  0  0  0  0  0  0  0  0  0  0
  144.4536  141.2735  155.5879 H   0  0  0  0  0  0  0  0  0  0  0  0
  146.0748  141.3350  156.2258 H   0  0  0  0  0  0  0  0  0  0  0  0
  146.4778  143.5587  155.0869 H   0  0  0  0  0  0  0  0  0  0  0  0
  144.7964  143.4889  154.5490 H   0  0  0  0  0  0  0  0  0  0  0  0
  146.0887  143.7011  153.3684 H   0  0  0  0  0  0  0  0  0  0  0  0
  147.5234  141.7723  152.7820 H   0  0  0  0  0  0  0  0  0  0  0  0
  148.0190  141.6371  154.4506 H   0  0  0  0  0  0  0  0  0  0  0  0
  148.3189  139.4468  153.2450 H   0  0  0  0  0  0  0  0  0  0  0  0
  146.6442  139.4617  152.7573 H   0  0  0  0  0  0  0  0  0  0  0  0
  152.4525  140.9757  158.3854 H   0  0  0  0  0  0  0  0  0  0  0  0
  145.2878  141.4628  153.4109 H   0  0  0  0  0  0  0  0  0  0  0  0
  1  2  1  0  0  0  0
  1 24  1  0  0  0  0
  1 25  1  0  0  0  0
  1 26  1  0  0  0  0
  2 23  1  0  0  0  0
  2  3  2  0  0  0  0
  3  4  1  0  0  0  0
  3 27  1  0  0  0  0
  4  5  1  0  0  0  0
  4  6  2  0  0  0  0
  5 28  1  0  0  0  0
  5 29  1  0  0  0  0
  5 30  1  0  0  0  0
  6  7  1  0  0  0  0
  7  8  1  0  0  0  0
  7 23  2  0  0  0  0
  8  9  1  0  0  0  0
  8 31  1  0  0  0  0
  9 10  2  0  0  0  0
  9 11  1  0  0  0  0
 11 12  1  0  0  0  0
 11 32  1  0  0  0  0
 12 13  1  0  0  0  0
 12 33  1  0  0  0  0
 12 34  1  0  0  0  0
 13 14  1  0  0  0  0
 13 15  1  0  0  0  0
 13 35  1  0  0  0  0
 14 36  1  0  0  0  0
 14 37  1  0  0  0  0
 14 38  1  0  0  0  0
 15 16  1  0  0  0  0
 15 39  1  0  0  0  0
 15 40  1  0  0  0  0
 16 22  1  0  0  0  0
 16 17  1  0  0  0  0
 17 18  1  0  0  0  0
 17 41  1  0  0  0  0
 17 42  1  0  0  0  0
 18 19  1  0  0  0  0
 18 43  1  0  0  0  0
 18 44  1  0  0  0  0
 19 20  1  0  0  0  0
 19 21  1  0  0  0  0
 19 53  1  0  0  0  0
 20 45  1  0  0  0  0
 20 46  1  0  0  0  0
 20 47  1  0  0  0  0
 21 22  1  0  0  0  0
 21 48  1  0  0  0  0
 21 49  1  0  0  0  0
 22 50  1  0  0  0  0
 22 51  1  0  0  0  0
 23 52  1  0  0  0  0
M  CHG  1  19   1
M  END
> <s_m_source_file>
AV-unprocessed.smi

> <i_m_source_file_index>
2276

> <i_lp_mmshare_version>
43012

> <i_f3d_flags>
0

> <s_epik_input>
W0NIM11jMVtjSF1jKFtDSDNdKW5jKFtjSF0xKVtOSF1DKD1PKVtOSF1bQ0gyXVtDQEhdKFtDSDNdKVtDSDJdTjJbQ0gyXVtDSDJdTihbQ0gzXSlbQ0gyXVtDSDJdMg==

> <s_epik_cmdline>
J2VwaWtfcHl0aG9uJywgJy1waCcsICc3LjAnLCAnLXRuJywgJzgnLCAnLW1hJywgJzIwMCcsICctbWV0YWxfYmluZGluZycsICctaW1hZScsICc8aW5maWxlLm1hZT4nLCAnLW9tYWUnLCAnPG91dGZpbGUubWFlPic=

> <r_epik_Ionization_Penalty>
0.0247364

> <r_epik_Ionization_Penalty_Charging>
0.0230248

> <r_epik_Ionization_Penalty_Neutral>
0.00171164

> <r_epik_State_Penalty>
0.239056

> <r_epik_Charging_Adjusted_Penalty>
0.262081

> <i_epik_Tot_Q>
1

> <i_epik_Tot_abs_Q>
1

> <r_epik_Metal_State_Penalty>
0.239048

> <b_epik_Metal_Only>
0

> <s_lp_Force_Field>
OPLS_2005

> <r_lp_Energy>
20.3682

> <b_lp_Chiralities_Consistent>
1

> <s_lp_Variant>
AV-unprocessed.smi:2276-1

> <Gold.Version>
5.8.1

> <Gold.Id.Protein>
6NUR|6NUR_protein|mol2

> <Gold.PLP.Fitness>
45.3941

> <Gold.PLP.PLP>
-40.1082

> <Gold.PLP.part.hbond>
-1.0000

> <Gold.PLP.part.metal>
0.0000

> <Gold.PLP.part.buried>
-4.7593

> <Gold.PLP.part.nonpolar>
-35.5910

> <Gold.PLP.part.repulsive>
0.7270

> <Gold.PLP.ligand.clash>
0.0000

> <Gold.PLP.ligand.torsion>
0.3728

> <Gold.PLP.Chemscore.Hbond>
2.0000

> <Gold.PLP.Chemscore.CHOScore>
0.0000

> <Gold.PLP.Chemscore.Metal>
0.0000

> <Gold.Chemscore.Hbonds>
donor molecule, donor type, donor heavy atom, donor atom, acceptor molecule, acceptor atom, score
      L1  H    19    53       P1 10175  1.40

> <Gold.PLP.Chemscore.Internal.Correction>
0.0316

> <Gold.Rescore>
     Score         DG    S(hbond)    S(metal)    S(lipo)     H(rot)  DE(clash)    DE(int)     intcor
     12.67     -16.02       1.00        0.00      97.26       1.63       0.30       3.05       ----

> <Gold.Chemscore.Fitness>
12.6690

> <Gold.Chemscore.DG>
-16.0184

> <Gold.Chemscore.ZeroCoef>
-5.4800

> <Gold.Chemscore.Hbond>
0.9960

> <Gold.Chemscore.Metal>
0.0000

> <Gold.Chemscore.Lipo>
97.2636

> <Gold.Chemscore.Internal_Hbond>
0.0000

> <Gold.Chemscore.DEClash>
0.3006

> <Gold.Chemscore.DEInternal>
3.0488

> <Gold.Chemscore.Rot>
1.6282

> <Gold.Chemscore.Internal.Correction>
   9.000000E+99

> <Gold.Chemscore.Hbonds>
donor molecule, donor type, donor heavy atom, donor atom, acceptor molecule, acceptor atom, score
      L1  H     8    31       P1  8028  0.03
      L1  H    19    53       P1 10175  0.10

> <Gold.Chemscore.Hbond.Weighted>
-3.3268

> <Gold.Chemscore.Metal.Weighted>
-0.0000

> <Gold.Chemscore.Lipo.Weighted>
-11.3798

> <Gold.Chemscore.Internal_Hbond.Weighted>
0.0000

> <Gold.Chemscore.DEClash.Weighted>
0.3006

> <Gold.Chemscore.DEInternal.Weighted>
3.0488

> <Gold.Chemscore.Rot.Weighted>
4.1682

> <Gold.Chemscore.Internal.Correction.Weighted>
   9.000000E+99

> <Gold.Protein.RotatedTorsions>
[ 6907 6896 6895 6894 ] final  -53.27 input  -60.11 | X-H torsion
[ 7974 7965 7964 7962 ] final  -82.98 input  175.53 | X-H torsion
[ 8008 7997 7996 7995 ] final   32.81 input   59.86 | X-H torsion
[ 10167 10162 10161 10158 ] final  -74.23 input  -65.29 | X-H torsion
[ 10718 10713 10712 10709 ] final   32.81 input   66.30 | X-H torsion
[ 10763 10752 10751 10750 ] final  165.96 input  -60.55 | X-H torsion
[ 11005 11000 10999 10996 ] final  -58.70 input  -57.11 | X-H torsion

> <Gold.Protein.ActiveResidues>
 VAL166  LYS551  ARG553  GLY616  TRP617  ASP618  TYR619  PRO620  LYS621  CYS622 
 ASP623  PHE694  ASN695  SER759  ASP760  ASP761  ALA762  ILE779  LEU786  VAL792 
 PHE793  MET794  SER795  GLU796  ALA797  LYS798  CYS799  TRP800  GLU811  SER814 

> <Gold.Protein.RotatedAtoms>
  150.8442  134.7745  159.6956 H   0  0  0  0  0  0  0  0  0  0  0  0  # atno 6907 bound_to 6896
  152.4523  134.5364  159.9836 H   0  0  0  0  0  0  0  0  0  0  0  0  # atno 6908 bound_to 6896
  151.5498  133.3381  159.2986 H   0  0  0  0  0  0  0  0  0  0  0  0  # atno 6909 bound_to 6896
  145.5261  140.9526  143.1629 H   0  0  0  0  0  0  0  0  0  0  0  0  # atno 7974 bound_to 7965
  155.1286  140.3255  155.4480 H   0  0  0  0  0  0  0  0  0  0  0  0  # atno 8008 bound_to 7997
  156.2641  140.2014  156.6354 H   0  0  0  0  0  0  0  0  0  0  0  0  # atno 8009 bound_to 7997
  154.6630  140.0545  157.0069 H   0  0  0  0  0  0  0  0  0  0  0  0  # atno 8010 bound_to 7997
  140.5044  143.2355  151.7698 H   0  0  0  0  0  0  0  0  0  0  0  0  # atno 10167 bound_to 10162
  157.2900  130.7297  149.6605 H   0  0  0  0  0  0  0  0  0  0  0  0  # atno 10718 bound_to 10713
  154.3319  135.2754  155.2467 H   0  0  0  0  0  0  0  0  0  0  0  0  # atno 10763 bound_to 10752
  154.4775  135.5867  153.6369 H   0  0  0  0  0  0  0  0  0  0  0  0  # atno 10764 bound_to 10752
  152.9865  135.6103  154.3512 H   0  0  0  0  0  0  0  0  0  0  0  0  # atno 10765 bound_to 10752
  141.1218  133.6613  156.4959 H   0  0  0  0  0  0  0  0  0  0  0  0  # atno 11005 bound_to 11000
  144.7650  139.6865  143.7218 LP  0  0  0  0  0  0  0  0  0  0  0  0  # atno 17320 bound_to 7965
  146.2075  139.5409  142.9703 LP  0  0  0  0  0  0  0  0  0  0  0  0  # atno 17321 bound_to 7965
  139.4880  144.4477  151.9690 LP  0  0  0  0  0  0  0  0  0  0  0  0  # atno 17342 bound_to 10162
  140.3567  144.3022  150.5940 LP  0  0  0  0  0  0  0  0  0  0  0  0  # atno 17343 bound_to 10162
  155.9667  130.4312  150.4909 LP  0  0  0  0  0  0  0  0  0  0  0  0  # atno 17370 bound_to 10713
  157.2869  131.0618  151.2160 LP  0  0  0  0  0  0  0  0  0  0  0  0  # atno 17371 bound_to 10713
  140.4485  134.6950  157.5028 LP  0  0  0  0  0  0  0  0  0  0  0  0  # atno 17394 bound_to 11000
  140.0181  134.6588  155.9279 LP  0  0  0  0  0  0  0  0  0  0  0  0  # atno 17395 bound_to 11000

$$$$
