AV-unprocessed.smi:1433|AV-procd|sdf|5844|dock8
  -GOLD-   22720 5513D 1   1.00000     0.00000
 Structure written by MMmdl.
 45 46  0  0  0  0  0  0  0  0  2 V2000
  148.8175  141.4300  154.4110 C   0  0  0  0  0  0  0  0  0  0  0  0
  149.2548  140.0097  154.7861 C   0  0  1  0  0  0  0  0  0  0  0  0
  148.7223  138.9592  153.7853 C   0  0  0  0  0  0  0  0  0  0  0  0
  149.2427  137.5971  154.0862 N   0  3  2  0  0  0  0  0  0  0  0  0
  148.5428  136.9030  155.2208 C   0  0  1  0  0  0  0  0  0  0  0  0
  147.0538  137.3188  155.2548 C   0  0  0  0  0  0  0  0  0  0  0  0
  148.6745  135.3557  155.1730 C   0  0  0  0  0  0  0  0  0  0  0  0
  148.2688  134.7881  153.8895 N   0  0  0  0  0  0  0  0  0  0  0  0
  147.8969  133.5138  153.6817 C   0  0  0  0  0  0  0  0  0  0  0  0
  147.8928  132.6582  154.5659 O   0  0  0  0  0  0  0  0  0  0  0  0
  147.4878  133.1362  152.2548 C   0  0  0  0  0  0  0  0  0  0  0  0
  146.2525  133.7864  151.8502 N   0  0  0  0  0  0  0  0  0  0  0  0
  145.9643  135.1351  151.8207 C   0  0  0  0  0  0  0  0  0  0  0  0
  144.6806  135.2671  151.3742 C   0  0  0  0  0  0  0  0  0  0  0  0
  144.2613  133.9262  151.1488 C   0  0  0  0  0  0  0  0  0  0  0  0
  145.2040  133.0426  151.4338 N   0  0  0  0  0  0  0  0  0  0  0  0
  150.7289  137.6618  154.1396 C   0  0  0  0  0  0  0  0  0  0  0  0
  151.2037  138.7072  155.1689 C   0  0  1  0  0  0  0  0  0  0  0  0
  152.7312  138.8213  155.2133 C   0  0  0  0  0  0  0  0  0  0  0  0
  150.6781  139.9766  154.7964 O   0  0  0  0  0  0  0  0  0  0  0  0
  147.7307  141.5153  154.3961 H   0  0  0  0  0  0  0  0  0  0  0  0
  149.1886  141.7107  153.4248 H   0  0  0  0  0  0  0  0  0  0  0  0
  149.1974  142.1573  155.1289 H   0  0  0  0  0  0  0  0  0  0  0  0
  148.8881  139.7986  155.7913 H   0  0  0  0  0  0  0  0  0  0  0  0
  147.6352  138.9843  153.7541 H   0  0  0  0  0  0  0  0  0  0  0  0
  149.0488  139.2268  152.7792 H   0  0  0  0  0  0  0  0  0  0  0  0
  149.0009  137.2262  156.1553 H   0  0  0  0  0  0  0  0  0  0  0  0
  146.5347  136.8931  156.1129 H   0  0  0  0  0  0  0  0  0  0  0  0
  146.5332  136.9840  154.3571 H   0  0  0  0  0  0  0  0  0  0  0  0
  146.9141  138.3949  155.3336 H   0  0  0  0  0  0  0  0  0  0  0  0
  149.6906  135.0532  155.4328 H   0  0  0  0  0  0  0  0  0  0  0  0
  148.0158  134.8914  155.9062 H   0  0  0  0  0  0  0  0  0  0  0  0
  148.2446  135.4179  153.1005 H   0  0  0  0  0  0  0  0  0  0  0  0
  148.2819  133.4204  151.5633 H   0  0  0  0  0  0  0  0  0  0  0  0
  147.3626  132.0554  152.1723 H   0  0  0  0  0  0  0  0  0  0  0  0
  146.6879  135.8799  152.1182 H   0  0  0  0  0  0  0  0  0  0  0  0
  144.1258  136.1820  151.2283 H   0  0  0  0  0  0  0  0  0  0  0  0
  143.3068  133.5713  150.7890 H   0  0  0  0  0  0  0  0  0  0  0  0
  151.1828  136.6872  154.3107 H   0  0  0  0  0  0  0  0  0  0  0  0
  151.0835  137.9577  153.1510 H   0  0  0  0  0  0  0  0  0  0  0  0
  150.8478  138.4464  156.1669 H   0  0  0  0  0  0  0  0  0  0  0  0
  153.1881  137.8755  155.5052 H   0  0  0  0  0  0  0  0  0  0  0  0
  153.0445  139.5768  155.9342 H   0  0  0  0  0  0  0  0  0  0  0  0
  153.1352  139.1024  154.2403 H   0  0  0  0  0  0  0  0  0  0  0  0
  149.0340  137.0287  153.2776 H   0  0  0  0  0  0  0  0  0  0  0  0
  1  2  1  0  0  0  0
  1 21  1  0  0  0  0
  1 22  1  0  0  0  0
  1 23  1  0  0  0  0
  2 20  1  0  0  0  0
  2  3  1  0  0  0  0
  2 24  1  0  0  0  0
  3  4  1  0  0  0  0
  3 25  1  0  0  0  0
  3 26  1  0  0  0  0
  4  5  1  0  0  0  0
  4 17  1  0  0  0  0
  4 45  1  0  0  0  0
  5  6  1  0  0  0  0
  5  7  1  0  0  0  0
  5 27  1  0  0  0  0
  6 28  1  0  0  0  0
  6 29  1  0  0  0  0
  6 30  1  0  0  0  0
  7  8  1  0  0  0  0
  7 31  1  0  0  0  0
  7 32  1  0  0  0  0
  8  9  1  0  0  0  0
  8 33  1  0  0  0  0
  9 10  2  0  0  0  0
  9 11  1  0  0  0  0
 11 12  1  0  0  0  0
 11 34  1  0  0  0  0
 11 35  1  0  0  0  0
 12 16  1  0  0  0  0
 12 13  1  0  0  0  0
 13 14  2  0  0  0  0
 13 36  1  0  0  0  0
 14 15  1  0  0  0  0
 14 37  1  0  0  0  0
 15 16  2  0  0  0  0
 15 38  1  0  0  0  0
 17 18  1  0  0  0  0
 17 39  1  0  0  0  0
 17 40  1  0  0  0  0
 18 19  1  0  0  0  0
 18 20  1  0  0  0  0
 18 41  1  0  0  0  0
 19 42  1  0  0  0  0
 19 43  1  0  0  0  0
 19 44  1  0  0  0  0
M  CHG  1   4   1
M  END
> <s_m_source_file>
AV-unprocessed.smi

> <i_m_source_file_index>
1433

> <i_lp_mmshare_version>
43012

> <i_f3d_flags>
0

> <s_epik_input>
W0NIM11bQ0BASF0xW0NIMl1OKFtDSDJdW0NASF0oTzEpW0NIM10pW0NASF0oW0NIM10pW0NIMl1bTkhdQyg9TylbQ0gyXW4yW2NIXVtjSF1bY0hdbjI=

> <s_epik_cmdline>
J2VwaWtfcHl0aG9uJywgJy1waCcsICc3LjAnLCAnLXRuJywgJzgnLCAnLW1hJywgJzIwMCcsICctbWV0YWxfYmluZGluZycsICctaW1hZScsICc8aW5maWxlLm1hZT4nLCAnLW9tYWUnLCAnPG91dGZpbGUubWFlPic=

> <r_lp_tautomer_probability>
1

> <r_epik_Ionization_Penalty>
0.748405

> <r_epik_Ionization_Penalty_Charging>
0.748396

> <r_epik_Ionization_Penalty_Neutral>
8.54426e-06

> <r_epik_State_Penalty>
0.775162

> <r_epik_Charging_Adjusted_Penalty>
1.52356

> <i_epik_Tot_Q>
1

> <i_epik_Tot_abs_Q>
1

> <r_epik_Metal_State_Penalty>
0.775167

> <b_epik_Metal_Only>
0

> <s_lp_Force_Field>
OPLS_2005

> <r_lp_Energy>
22.8293

> <b_lp_Chiralities_Consistent>
1

> <s_lp_Variant>
AV-unprocessed.smi:1433-10

> <Gold.Version>
5.8.1

> <Gold.Id.Protein>
6NUR|6NUR_protein|mol2

> <Gold.PLP.Fitness>
47.8755

> <Gold.PLP.PLP>
-31.2307

> <Gold.PLP.part.hbond>
-2.8817

> <Gold.PLP.part.metal>
0.0000

> <Gold.PLP.part.buried>
-0.4135

> <Gold.PLP.part.nonpolar>
-28.5479

> <Gold.PLP.part.repulsive>
0.2020

> <Gold.PLP.ligand.clash>
0.0000

> <Gold.PLP.ligand.torsion>
0.6585

> <Gold.PLP.Chemscore.Hbond>
3.9920

> <Gold.PLP.Chemscore.CHOScore>
1.9689

> <Gold.PLP.Chemscore.Metal>
0.0000

> <Gold.Chemscore.Hbonds>
donor molecule, donor type, donor heavy atom, donor atom, acceptor molecule, acceptor atom, score
      L1  H     4    45       P1  7948  2.00
      L1  H     8    33       P1  7948  1.00
      P1  H  7989  7998       L1    20  1.00
      L1  C    13    36       P1  7948  1.00
      L1  C    15    38       P1 10186  0.47

> <Gold.PLP.Chemscore.Internal.Correction>
0.0791

> <Gold.Rescore>
     Score         DG    S(hbond)    S(metal)    S(lipo)     H(rot)  DE(clash)    DE(int)     intcor
     17.39     -18.09       2.75        0.00      70.15       1.87       0.06       0.64       ----

> <Gold.Chemscore.Fitness>
17.3933

> <Gold.Chemscore.DG>
-18.0851

> <Gold.Chemscore.ZeroCoef>
-5.4800

> <Gold.Chemscore.Hbond>
2.7467

> <Gold.Chemscore.Metal>
0.0000

> <Gold.Chemscore.Lipo>
70.1475

> <Gold.Chemscore.Internal_Hbond>
0.0000

> <Gold.Chemscore.DEClash>
0.0564

> <Gold.Chemscore.DEInternal>
0.6353

> <Gold.Chemscore.Rot>
1.8657

> <Gold.Chemscore.Internal.Correction>
   9.000000E+99

> <Gold.Chemscore.Hbonds>
donor molecule, donor type, donor heavy atom, donor atom, acceptor molecule, acceptor atom, score
      L1  H     4    45       P1  7948  0.99
      L1  H     8    33       P1  7948  0.95
      P1  H  7989  7998       L1    20  0.89

> <Gold.Chemscore.Hbond.Weighted>
-9.1739

> <Gold.Chemscore.Metal.Weighted>
-0.0000

> <Gold.Chemscore.Lipo.Weighted>
-8.2073

> <Gold.Chemscore.Internal_Hbond.Weighted>
0.0000

> <Gold.Chemscore.DEClash.Weighted>
0.0564

> <Gold.Chemscore.DEInternal.Weighted>
0.6353

> <Gold.Chemscore.Rot.Weighted>
4.7761

> <Gold.Chemscore.Internal.Correction.Weighted>
   9.000000E+99

> <Gold.Protein.RotatedTorsions>
[ 6907 6896 6895 6894 ] final   78.67 input  -60.11 | X-H torsion
[ 7974 7965 7964 7962 ] final -144.69 input  175.53 | X-H torsion
[ 8008 7997 7996 7995 ] final  -78.73 input   59.86 | X-H torsion
[ 10167 10162 10161 10158 ] final  148.58 input  -65.29 | X-H torsion
[ 10718 10713 10712 10709 ] final  -75.06 input   66.30 | X-H torsion
[ 10763 10752 10751 10750 ] final  -89.14 input  -60.55 | X-H torsion
[ 11005 11000 10999 10996 ] final -151.54 input  -57.11 | X-H torsion

> <Gold.Protein.ActiveResidues>
 VAL166  LYS551  ARG553  GLY616  TRP617  ASP618  TYR619  PRO620  LYS621  CYS622 
 ASP623  PHE694  ASN695  SER759  ASP760  ASP761  ALA762  ILE779  LEU786  VAL792 
 PHE793  MET794  SER795  GLU796  ALA797  LYS798  CYS799  TRP800  GLU811  SER814 

> <Gold.Protein.RotatedAtoms>
  152.5168  134.3629  159.9290 H   0  0  0  0  0  0  0  0  0  0  0  0  # atno 6907 bound_to 6896
  151.3582  133.3893  159.2694 H   0  0  0  0  0  0  0  0  0  0  0  0  # atno 6908 bound_to 6896
  150.9673  134.9071  159.7825 H   0  0  0  0  0  0  0  0  0  0  0  0  # atno 6909 bound_to 6896
  144.8279  140.5678  143.5534 H   0  0  0  0  0  0  0  0  0  0  0  0  # atno 7974 bound_to 7965
  154.5717  140.0689  156.8974 H   0  0  0  0  0  0  0  0  0  0  0  0  # atno 8008 bound_to 7997
  155.2623  140.3359  155.4254 H   0  0  0  0  0  0  0  0  0  0  0  0  # atno 8009 bound_to 7997
  156.2123  140.1764  156.7653 H   0  0  0  0  0  0  0  0  0  0  0  0  # atno 8010 bound_to 7997
  139.4873  144.5668  151.7129 H   0  0  0  0  0  0  0  0  0  0  0  0  # atno 10167 bound_to 10162
  156.0220  130.4432  150.2986 H   0  0  0  0  0  0  0  0  0  0  0  0  # atno 10718 bound_to 10713
  154.6521  135.5351  153.7914 H   0  0  0  0  0  0  0  0  0  0  0  0  # atno 10763 bound_to 10752
  153.0392  135.6485  154.1001 H   0  0  0  0  0  0  0  0  0  0  0  0  # atno 10764 bound_to 10752
  154.0917  135.2939  155.3250 H   0  0  0  0  0  0  0  0  0  0  0  0  # atno 10765 bound_to 10752
  140.7285  134.3648  157.5171 H   0  0  0  0  0  0  0  0  0  0  0  0  # atno 11005 bound_to 11000
  145.4959  139.1486  143.3684 LP  0  0  0  0  0  0  0  0  0  0  0  0  # atno 17320 bound_to 7965
  146.2584  140.5098  142.8864 LP  0  0  0  0  0  0  0  0  0  0  0  0  # atno 17321 bound_to 7965
  140.5248  144.0823  150.6034 LP  0  0  0  0  0  0  0  0  0  0  0  0  # atno 17342 bound_to 10162
  140.3793  143.2811  152.0189 LP  0  0  0  0  0  0  0  0  0  0  0  0  # atno 17343 bound_to 10162
  157.1089  131.0216  151.3056 LP  0  0  0  0  0  0  0  0  0  0  0  0  # atno 17370 bound_to 10713
  157.4720  130.7714  149.7333 LP  0  0  0  0  0  0  0  0  0  0  0  0  # atno 17371 bound_to 10713
  139.8832  134.9002  156.2784 LP  0  0  0  0  0  0  0  0  0  0  0  0  # atno 17394 bound_to 11000
  140.9942  133.7190  156.0860 LP  0  0  0  0  0  0  0  0  0  0  0  0  # atno 17395 bound_to 11000

$$$$
