AV-unprocessed.smi:2718|AV-procd|sdf|10486|dock8
  -GOLD-   2272014533D 1   1.00000     0.00000
 Structure written by MMmdl.
 47 48  0  0  0  0  0  0  0  0  1 V2000
  151.2111  145.5237  159.9601 C   0  0  0  0  0  0  0  0  0  0  0  0
  152.0453  144.4474  159.2945 C   0  0  0  0  0  0  0  0  0  0  0  0
  152.6090  144.8301  157.9372 C   0  0  0  0  0  0  0  0  0  0  0  0
  152.2592  143.2536  159.8797 C   0  0  0  0  0  0  0  0  0  0  0  0
  153.0603  142.1300  159.3267 C   0  0  2  0  0  0  0  0  0  0  0  0
  152.7555  140.6917  159.7061 C   0  0  1  0  0  0  0  0  0  0  0  0
  152.8624  139.6292  158.6576 C   0  0  0  0  0  0  0  0  0  0  0  0
  153.2315  138.4776  158.8907 O   0  0  0  0  0  0  0  0  0  0  0  0
  152.5196  140.0525  157.4322 N   0  0  0  0  0  0  0  0  0  0  0  0
  152.5397  139.2490  156.2121 C   0  0  0  0  0  0  0  0  0  0  0  0
  151.1410  138.7763  155.7502 C   0  0  2  0  0  0  0  0  0  0  0  0
  151.2383  137.6801  154.6795 C   0  0  0  0  0  0  0  0  0  0  0  0
  150.2525  139.9072  155.3046 C   0  0  0  0  0  0  0  0  0  0  0  0
  149.9943  140.1841  154.0194 N   0  0  0  0  0  0  0  0  0  0  0  0
  149.1464  141.2726  154.0341 N   0  0  0  0  0  0  0  0  0  0  0  0
  148.9621  141.5358  155.3266 C   0  0  0  0  0  0  0  0  0  0  0  0
  149.6124  140.7212  156.1707 N   0  0  0  0  0  0  0  0  0  0  0  0
  149.6023  140.7343  157.6203 C   0  0  0  0  0  0  0  0  0  0  0  0
  154.0308  141.3600  160.2062 C   0  0  0  0  0  0  0  0  0  0  0  0
  155.4131  141.0363  159.6549 C   0  0  0  0  0  0  0  0  0  0  0  0
  154.1381  141.6383  161.6980 C   0  0  0  0  0  0  0  0  0  0  0  0
  150.3610  145.7871  159.3301 H   0  0  0  0  0  0  0  0  0  0  0  0
  151.8106  146.4201  160.1199 H   0  0  0  0  0  0  0  0  0  0  0  0
  150.8279  145.1952  160.9268 H   0  0  0  0  0  0  0  0  0  0  0  0
  153.2619  145.6979  158.0335 H   0  0  0  0  0  0  0  0  0  0  0  0
  151.7993  145.0871  157.2539 H   0  0  0  0  0  0  0  0  0  0  0  0
  153.1862  144.0260  157.4818 H   0  0  0  0  0  0  0  0  0  0  0  0
  151.8147  143.0670  160.8465 H   0  0  0  0  0  0  0  0  0  0  0  0
  153.3639  142.3244  158.2993 H   0  0  0  0  0  0  0  0  0  0  0  0
  151.9807  140.5289  160.4544 H   0  0  0  0  0  0  0  0  0  0  0  0
  152.2225  141.0127  157.3340 H   0  0  0  0  0  0  0  0  0  0  0  0
  152.9828  139.8741  155.4363 H   0  0  0  0  0  0  0  0  0  0  0  0
  153.2096  138.3972  156.3384 H   0  0  0  0  0  0  0  0  0  0  0  0
  150.6755  138.3081  156.6167 H   0  0  0  0  0  0  0  0  0  0  0  0
  150.2512  137.2912  154.4271 H   0  0  0  0  0  0  0  0  0  0  0  0
  151.8442  136.8435  155.0280 H   0  0  0  0  0  0  0  0  0  0  0  0
  151.6912  138.0591  153.7626 H   0  0  0  0  0  0  0  0  0  0  0  0
  148.3290  142.3422  155.6665 H   0  0  0  0  0  0  0  0  0  0  0  0
  149.0229  141.5838  157.9840 H   0  0  0  0  0  0  0  0  0  0  0  0
  150.6209  140.8148  157.9989 H   0  0  0  0  0  0  0  0  0  0  0  0
  149.1537  139.8127  157.9917 H   0  0  0  0  0  0  0  0  0  0  0  0
  155.7577  140.0768  160.0405 H   0  0  0  0  0  0  0  0  0  0  0  0
  156.1277  141.8043  159.9518 H   0  0  0  0  0  0  0  0  0  0  0  0
  155.4114  140.9963  158.5665 H   0  0  0  0  0  0  0  0  0  0  0  0
  154.5752  140.7821  162.2122 H   0  0  0  0  0  0  0  0  0  0  0  0
  153.1574  141.8290  162.1343 H   0  0  0  0  0  0  0  0  0  0  0  0
  154.7659  142.5114  161.8777 H   0  0  0  0  0  0  0  0  0  0  0  0
  1  2  1  0  0  0  0
  1 22  1  0  0  0  0
  1 23  1  0  0  0  0
  1 24  1  0  0  0  0
  2  3  1  0  0  0  0
  2  4  2  0  0  0  0
  3 25  1  0  0  0  0
  3 26  1  0  0  0  0
  3 27  1  0  0  0  0
  4  5  1  0  0  0  0
  4 28  1  0  0  0  0
  5 19  1  0  0  0  0
  5  6  1  0  0  0  0
  5 29  1  0  0  0  0
  6  7  1  0  0  0  0
  6 19  1  0  0  0  0
  6 30  1  0  0  0  0
  7  8  2  0  0  0  0
  7  9  1  0  0  0  0
  9 10  1  0  0  0  0
  9 31  1  0  0  0  0
 10 11  1  0  0  0  0
 10 32  1  0  0  0  0
 10 33  1  0  0  0  0
 11 12  1  0  0  0  0
 11 13  1  0  0  0  0
 11 34  1  0  0  0  0
 12 35  1  0  0  0  0
 12 36  1  0  0  0  0
 12 37  1  0  0  0  0
 13 17  1  0  0  0  0
 13 14  2  0  0  0  0
 14 15  1  0  0  0  0
 15 16  2  0  0  0  0
 16 17  1  0  0  0  0
 16 38  1  0  0  0  0
 17 18  1  0  0  0  0
 18 39  1  0  0  0  0
 18 40  1  0  0  0  0
 18 41  1  0  0  0  0
 19 20  1  0  0  0  0
 19 21  1  0  0  0  0
 20 42  1  0  0  0  0
 20 43  1  0  0  0  0
 20 44  1  0  0  0  0
 21 45  1  0  0  0  0
 21 46  1  0  0  0  0
 21 47  1  0  0  0  0
M  END
> <s_m_source_file>
AV-unprocessed.smi

> <i_m_source_file_index>
2718

> <i_lp_mmshare_version>
43012

> <i_f3d_flags>
0

> <s_epik_input>
W0NIM11DKFtDSDNdKT1bQ0hdW0NAQEhdKEMxKFtDSDNdKVtDSDNdKVtDQEhdMUMoPU8pW05IXVtDSDJdW0NASF0oW0NIM10pYzJubltjSF1uMltDSDNd

> <s_epik_cmdline>
J2VwaWtfcHl0aG9uJywgJy1waCcsICc3LjAnLCAnLXRuJywgJzgnLCAnLW1hJywgJzIwMCcsICctbWV0YWxfYmluZGluZycsICctaW1hZScsICc8aW5maWxlLm1hZT4nLCAnLW9tYWUnLCAnPG91dGZpbGUubWFlPic=

> <r_lp_tautomer_probability>
1

> <r_epik_Ionization_Penalty>
0.000449586

> <r_epik_Ionization_Penalty_Charging>
0

> <r_epik_Ionization_Penalty_Neutral>
0.000449586

> <r_epik_State_Penalty>
0.000243372

> <r_epik_Charging_Adjusted_Penalty>
0.000243372

> <i_epik_Tot_Q>
0

> <i_epik_Tot_abs_Q>
0

> <r_epik_Metal_State_Penalty>
-0

> <b_epik_Metal_Only>
0

> <s_lp_Force_Field>
OPLS_2005

> <r_lp_Energy>
15.15

> <b_lp_Chiralities_Consistent>
1

> <s_lp_Variant>
AV-unprocessed.smi:2718-1

> <Gold.Version>
5.8.1

> <Gold.Id.Protein>
6NUR|6NUR_protein|mol2

> <Gold.PLP.Fitness>
52.2596

> <Gold.PLP.PLP>
-47.3695

> <Gold.PLP.part.hbond>
-3.0000

> <Gold.PLP.part.metal>
0.0000

> <Gold.PLP.part.buried>
-4.1754

> <Gold.PLP.part.nonpolar>
-43.3814

> <Gold.PLP.part.repulsive>
3.0537

> <Gold.PLP.ligand.clash>
0.0000

> <Gold.PLP.ligand.torsion>
1.6113

> <Gold.PLP.Chemscore.Hbond>
1.6200

> <Gold.PLP.Chemscore.CHOScore>
1.0000

> <Gold.PLP.Chemscore.Metal>
0.0000

> <Gold.Chemscore.Hbonds>
donor molecule, donor type, donor heavy atom, donor atom, acceptor molecule, acceptor atom, score
      P1  H  7989  7998       L1    14  0.85
      P1  H  8011  8017       L1    15  0.55
      L1  C    16    38       P1  8028  0.94

> <Gold.PLP.Chemscore.Internal.Correction>
0.2526

> <Gold.Rescore>
     Score         DG    S(hbond)    S(metal)    S(lipo)     H(rot)  DE(clash)    DE(int)     intcor
     14.31     -16.19       0.83        0.00     110.67       1.95       0.05       1.83       ----

> <Gold.Chemscore.Fitness>
14.3099

> <Gold.Chemscore.DG>
-16.1869

> <Gold.Chemscore.ZeroCoef>
-5.4800

> <Gold.Chemscore.Hbond>
0.8261

> <Gold.Chemscore.Metal>
0.0000

> <Gold.Chemscore.Lipo>
110.6684

> <Gold.Chemscore.Internal_Hbond>
0.0000

> <Gold.Chemscore.DEClash>
0.0456

> <Gold.Chemscore.DEInternal>
1.8314

> <Gold.Chemscore.Rot>
1.9533

> <Gold.Chemscore.Internal.Correction>
   9.000000E+99

> <Gold.Chemscore.Hbonds>
donor molecule, donor type, donor heavy atom, donor atom, acceptor molecule, acceptor atom, score
      P1  H  7989  7998       L1    14  0.11
      P1  H  8011  8017       L1    15  0.22

> <Gold.Chemscore.Hbond.Weighted>
-2.7593

> <Gold.Chemscore.Metal.Weighted>
-0.0000

> <Gold.Chemscore.Lipo.Weighted>
-12.9482

> <Gold.Chemscore.Internal_Hbond.Weighted>
0.0000

> <Gold.Chemscore.DEClash.Weighted>
0.0456

> <Gold.Chemscore.DEInternal.Weighted>
1.8314

> <Gold.Chemscore.Rot.Weighted>
5.0005

> <Gold.Chemscore.Internal.Correction.Weighted>
   9.000000E+99

> <Gold.Protein.RotatedTorsions>
[ 6907 6896 6895 6894 ] final   -7.47 input  -60.11 | X-H torsion
[ 7974 7965 7964 7962 ] final  -20.95 input  175.53 | X-H torsion
[ 8008 7997 7996 7995 ] final   80.85 input   59.86 | X-H torsion
[ 10167 10162 10161 10158 ] final   77.72 input  -65.29 | X-H torsion
[ 10718 10713 10712 10709 ] final  -17.46 input   66.30 | X-H torsion
[ 10763 10752 10751 10750 ] final  -77.77 input  -60.55 | X-H torsion
[ 11005 11000 10999 10996 ] final  -32.63 input  -57.11 | X-H torsion

> <Gold.Protein.ActiveResidues>
 VAL166  LYS551  ARG553  GLY616  TRP617  ASP618  TYR619  PRO620  LYS621  CYS622 
 ASP623  PHE694  ASN695  SER759  ASP760  ASP761  ALA762  ILE779  LEU786  VAL792 
 PHE793  MET794  SER795  GLU796  ALA797  LYS798  CYS799  TRP800  GLU811  SER814 

> <Gold.Protein.RotatedAtoms>
  151.4490  135.1028  159.9691 H   0  0  0  0  0  0  0  0  0  0  0  0  # atno 6907 bound_to 6896
  152.4895  133.8458  159.7186 H   0  0  0  0  0  0  0  0  0  0  0  0  # atno 6908 bound_to 6896
  150.9035  133.7028  159.2900 H   0  0  0  0  0  0  0  0  0  0  0  0  # atno 6909 bound_to 6896
  146.1760  140.4273  142.8513 H   0  0  0  0  0  0  0  0  0  0  0  0  # atno 7974 bound_to 7965
  155.8891  140.3440  155.5943 H   0  0  0  0  0  0  0  0  0  0  0  0  # atno 8008 bound_to 7997
  155.7631  140.0835  157.2164 H   0  0  0  0  0  0  0  0  0  0  0  0  # atno 8009 bound_to 7997
  154.4031  140.1532  156.2843 H   0  0  0  0  0  0  0  0  0  0  0  0  # atno 8010 bound_to 7997
  139.9785  144.5843  150.7921 H   0  0  0  0  0  0  0  0  0  0  0  0  # atno 10167 bound_to 10162
  156.5732  130.4755  149.6353 H   0  0  0  0  0  0  0  0  0  0  0  0  # atno 10718 bound_to 10713
  154.5172  135.5753  153.6652 H   0  0  0  0  0  0  0  0  0  0  0  0  # atno 10763 bound_to 10752
  152.9909  135.6173  154.2802 H   0  0  0  0  0  0  0  0  0  0  0  0  # atno 10764 bound_to 10752
  154.2720  135.2853  155.2713 H   0  0  0  0  0  0  0  0  0  0  0  0  # atno 10765 bound_to 10752
  140.9568  133.7188  156.1306 H   0  0  0  0  0  0  0  0  0  0  0  0  # atno 11005 bound_to 11000
  144.8237  140.6593  143.6336 LP  0  0  0  0  0  0  0  0  0  0  0  0  # atno 17320 bound_to 7965
  145.4210  139.1564  143.4074 LP  0  0  0  0  0  0  0  0  0  0  0  0  # atno 17321 bound_to 7965
  140.7497  143.2943  151.3246 LP  0  0  0  0  0  0  0  0  0  0  0  0  # atno 17342 bound_to 10162
  139.6427  144.0509  152.2567 LP  0  0  0  0  0  0  0  0  0  0  0  0  # atno 17343 bound_to 10162
  156.2696  130.7009  151.1803 LP  0  0  0  0  0  0  0  0  0  0  0  0  # atno 17370 bound_to 10713
  157.7343  131.0582  150.5529 LP  0  0  0  0  0  0  0  0  0  0  0  0  # atno 17371 bound_to 10713
  140.7524  134.4030  157.5539 LP  0  0  0  0  0  0  0  0  0  0  0  0  # atno 17394 bound_to 11000
  139.8865  134.8908  156.2582 LP  0  0  0  0  0  0  0  0  0  0  0  0  # atno 17395 bound_to 11000

$$$$
