AV-unprocessed.smi:1802|AV-procd|sdf|7278|dock2
  -GOLD-   22720 8543D 1   1.00000     0.00000
 Structure written by MMmdl.
 40 41  0  0  0  0  0  0  0  0  3 V2000
  145.4998  132.0385  150.4462 C   0  0  0  0  0  0  0  0  0  0  0  0
  145.9677  133.4131  150.9452 C   0  0  1  0  0  0  0  0  0  0  0  0
  144.9561  134.5146  150.5870 C   0  0  0  0  0  0  0  0  0  0  0  0
  145.4372  135.8698  151.1201 C   0  0  0  0  0  0  0  0  0  0  0  0
  145.7112  135.8001  152.6307 C   0  0  0  0  0  0  0  0  0  0  0  0
  146.6933  134.7315  152.9480 N   0  3  1  0  0  0  0  0  0  0  0  0
  147.0769  134.7298  154.3821 C   0  0  0  0  0  0  0  0  0  0  0  0
  148.2672  133.7997  154.6686 C   0  0  0  0  0  0  0  0  0  0  0  0
  149.0337  134.2120  155.9312 C   0  0  0  0  0  0  0  0  0  0  0  0
  148.1204  134.3566  157.0565 N   0  0  0  0  0  0  0  0  0  0  0  0
  148.4409  134.8718  158.2506 C   0  0  0  0  0  0  0  0  0  0  0  0
  149.5925  135.2580  158.4636 O   0  0  0  0  0  0  0  0  0  0  0  0
  147.4072  134.9074  159.1215 N   0  5  0  0  0  0  0  0  0  0  0  0
  147.5996  135.3503  160.3750 C   0  0  0  0  0  0  0  0  0  0  0  0
  148.2688  136.4839  160.6397 N   0  0  0  0  0  0  0  0  0  0  0  0
  148.3508  136.7656  161.9967 N   0  0  0  0  0  0  0  0  0  0  0  0
  147.7310  135.8364  162.7239 C   0  0  0  0  0  0  0  0  0  0  0  0
  146.9896  134.5346  161.8176 S   0  0  0  0  0  0  0  0  0  0  0  0
  146.2298  133.4025  152.4648 C   0  0  0  0  0  0  0  0  0  0  0  0
  144.5587  131.7460  150.9129 H   0  0  0  0  0  0  0  0  0  0  0  0
  146.2365  131.2668  150.6706 H   0  0  0  0  0  0  0  0  0  0  0  0
  145.3478  132.0434  149.3664 H   0  0  0  0  0  0  0  0  0  0  0  0
  146.9087  133.6418  150.4423 H   0  0  0  0  0  0  0  0  0  0  0  0
  144.8202  134.5683  149.5062 H   0  0  0  0  0  0  0  0  0  0  0  0
  143.9800  134.2783  151.0134 H   0  0  0  0  0  0  0  0  0  0  0  0
  146.3457  136.1689  150.5958 H   0  0  0  0  0  0  0  0  0  0  0  0
  144.6925  136.6382  150.9110 H   0  0  0  0  0  0  0  0  0  0  0  0
  146.0924  136.7650  152.9674 H   0  0  0  0  0  0  0  0  0  0  0  0
  144.7833  135.6173  153.1752 H   0  0  0  0  0  0  0  0  0  0  0  0
  147.3641  135.7397  154.6788 H   0  0  0  0  0  0  0  0  0  0  0  0
  146.2166  134.4626  154.9976 H   0  0  0  0  0  0  0  0  0  0  0  0
  147.9271  132.7713  154.7879 H   0  0  0  0  0  0  0  0  0  0  0  0
  148.9461  133.8046  153.8146 H   0  0  0  0  0  0  0  0  0  0  0  0
  149.7899  133.4658  156.1794 H   0  0  0  0  0  0  0  0  0  0  0  0
  149.5537  135.1553  155.7562 H   0  0  0  0  0  0  0  0  0  0  0  0
  147.1682  134.0493  156.9227 H   0  0  0  0  0  0  0  0  0  0  0  0
  147.7091  135.9186  163.8002 H   0  0  0  0  0  0  0  0  0  0  0  0
  145.3235  133.1179  153.0019 H   0  0  0  0  0  0  0  0  0  0  0  0
  146.9772  132.6420  152.6879 H   0  0  0  0  0  0  0  0  0  0  0  0
  147.5306  134.9587  152.4305 H   0  0  0  0  0  0  0  0  0  0  0  0
  1  2  1  0  0  0  0
  1 20  1  0  0  0  0
  1 21  1  0  0  0  0
  1 22  1  0  0  0  0
  2 19  1  0  0  0  0
  2  3  1  0  0  0  0
  2 23  1  0  0  0  0
  3  4  1  0  0  0  0
  3 24  1  0  0  0  0
  3 25  1  0  0  0  0
  4  5  1  0  0  0  0
  4 26  1  0  0  0  0
  4 27  1  0  0  0  0
  5  6  1  0  0  0  0
  5 28  1  0  0  0  0
  5 29  1  0  0  0  0
  6  7  1  0  0  0  0
  6 19  1  0  0  0  0
  6 40  1  0  0  0  0
  7  8  1  0  0  0  0
  7 30  1  0  0  0  0
  7 31  1  0  0  0  0
  8  9  1  0  0  0  0
  8 32  1  0  0  0  0
  8 33  1  0  0  0  0
  9 10  1  0  0  0  0
  9 34  1  0  0  0  0
  9 35  1  0  0  0  0
 10 11  1  0  0  0  0
 10 36  1  0  0  0  0
 11 12  2  0  0  0  0
 11 13  1  0  0  0  0
 13 14  1  0  0  0  0
 14 18  1  0  0  0  0
 14 15  2  0  0  0  0
 15 16  1  0  0  0  0
 16 17  2  0  0  0  0
 17 18  1  0  0  0  0
 17 37  1  0  0  0  0
 19 38  1  0  0  0  0
 19 39  1  0  0  0  0
M  CHG  1   6   1
M  CHG  1  13  -1
M  END
> <s_m_source_file>
AV-unprocessed.smi

> <i_m_source_file_index>
1802

> <i_lp_mmshare_version>
43012

> <i_f3d_flags>
0

> <s_epik_input>
W0NIM11bQ0BASF0xW0NIMl1bQ0gyXVtDSDJdTihbQ0gyXTEpW0NIMl1bQ0gyXVtDSDJdW05IXUMoPU8pW05IXWMybm5bY0hdczI=

> <s_epik_cmdline>
J2VwaWtfcHl0aG9uJywgJy1waCcsICc3LjAnLCAnLXRuJywgJzgnLCAnLW1hJywgJzIwMCcsICctbWV0YWxfYmluZGluZycsICctaW1hZScsICc8aW5maWxlLm1hZT4nLCAnLW9tYWUnLCAnPG91dGZpbGUubWFlPic=

> <r_lp_tautomer_probability>
1

> <r_epik_Ionization_Penalty>
3.29702

> <r_epik_Ionization_Penalty_Charging>
3.26059

> <r_epik_Ionization_Penalty_Neutral>
0.0364294

> <r_epik_State_Penalty>
3.25788

> <r_epik_Charging_Adjusted_Penalty>
6.51847

> <i_epik_Tot_Q>
0

> <i_epik_Tot_abs_Q>
2

> <r_epik_Metal_State_Penalty>
0.477639

> <b_epik_Metal_Only>
1

> <s_lp_Force_Field>
OPLS_2005

> <r_lp_Energy>
10.4103

> <b_lp_Chiralities_Consistent>
1

> <s_lp_Variant>
AV-unprocessed.smi:1802-8

> <Gold.Version>
5.8.1

> <Gold.Id.Protein>
6NUR|6NUR_protein|mol2

> <Gold.PLP.Fitness>
42.5655

> <Gold.PLP.PLP>
-31.7130

> <Gold.PLP.part.hbond>
-4.0033

> <Gold.PLP.part.metal>
0.0000

> <Gold.PLP.part.buried>
-5.1229

> <Gold.PLP.part.nonpolar>
-23.7331

> <Gold.PLP.part.repulsive>
0.0280

> <Gold.PLP.ligand.clash>
0.0000

> <Gold.PLP.ligand.torsion>
0.6130

> <Gold.PLP.Chemscore.Hbond>
4.0000

> <Gold.PLP.Chemscore.CHOScore>
0.0000

> <Gold.PLP.Chemscore.Metal>
0.0000

> <Gold.Chemscore.Hbonds>
donor molecule, donor type, donor heavy atom, donor atom, acceptor molecule, acceptor atom, score
      L1  H     6    40       P1  7948  2.00
      P1  H  6896  6909       L1    12  1.00
      P1  H  6931  6943       L1    16  1.00

> <Gold.PLP.Chemscore.Internal.Correction>
0.0785

> <Gold.Rescore>
     Score         DG    S(hbond)    S(metal)    S(lipo)     H(rot)  DE(clash)    DE(int)     intcor
     14.69     -16.65       2.47        0.00      67.27       1.94       0.00       1.97       ----

> <Gold.Chemscore.Fitness>
14.6867

> <Gold.Chemscore.DG>
-16.6545

> <Gold.Chemscore.ZeroCoef>
-5.4800

> <Gold.Chemscore.Hbond>
2.4750

> <Gold.Chemscore.Metal>
0.0000

> <Gold.Chemscore.Lipo>
67.2665

> <Gold.Chemscore.Internal_Hbond>
0.0000

> <Gold.Chemscore.DEClash>
0.0000

> <Gold.Chemscore.DEInternal>
1.9678

> <Gold.Chemscore.Rot>
1.9383

> <Gold.Chemscore.Internal.Correction>
   9.000000E+99

> <Gold.Chemscore.Hbonds>
donor molecule, donor type, donor heavy atom, donor atom, acceptor molecule, acceptor atom, score
      L1  H     6    40       P1  7948  0.93
      P1  H  6896  6909       L1    12  0.98
      P1  H  6931  6943       L1    16  0.25

> <Gold.Chemscore.Hbond.Weighted>
-8.2664

> <Gold.Chemscore.Metal.Weighted>
-0.0000

> <Gold.Chemscore.Lipo.Weighted>
-7.8702

> <Gold.Chemscore.Internal_Hbond.Weighted>
0.0000

> <Gold.Chemscore.DEClash.Weighted>
0.0000

> <Gold.Chemscore.DEInternal.Weighted>
1.9678

> <Gold.Chemscore.Rot.Weighted>
4.9620

> <Gold.Chemscore.Internal.Correction.Weighted>
   9.000000E+99

> <Gold.Protein.RotatedTorsions>
[ 6907 6896 6895 6894 ] final   58.50 input  -60.11 | X-H torsion
[ 7974 7965 7964 7962 ] final -105.13 input  175.53 | X-H torsion
[ 8008 7997 7996 7995 ] final   86.27 input   59.86 | X-H torsion
[ 10167 10162 10161 10158 ] final  156.91 input  -65.29 | X-H torsion
[ 10718 10713 10712 10709 ] final -106.00 input   66.30 | X-H torsion
[ 10763 10752 10751 10750 ] final   67.40 input  -60.55 | X-H torsion
[ 11005 11000 10999 10996 ] final  101.47 input  -57.11 | X-H torsion

> <Gold.Protein.ActiveResidues>
 VAL166  LYS551  ARG553  GLY616  TRP617  ASP618  TYR619  PRO620  LYS621  CYS622 
 ASP623  PHE694  ASN695  SER759  ASP760  ASP761  ALA762  ILE779  LEU786  VAL792 
 PHE793  MET794  SER795  GLU796  ALA797  LYS798  CYS799  TRP800  GLU811  SER814 

> <Gold.Protein.RotatedAtoms>
  152.3830  134.6561  160.0135 H   0  0  0  0  0  0  0  0  0  0  0  0  # atno 6907 bound_to 6896
  151.6818  133.3306  159.3229 H   0  0  0  0  0  0  0  0  0  0  0  0  # atno 6908 bound_to 6896
  150.7763  134.6710  159.6436 H   0  0  0  0  0  0  0  0  0  0  0  0  # atno 6909 bound_to 6896
  145.2344  140.9182  143.3186 H   0  0  0  0  0  0  0  0  0  0  0  0  # atno 7974 bound_to 7965
  155.9606  140.3393  155.6487 H   0  0  0  0  0  0  0  0  0  0  0  0  # atno 8008 bound_to 7997
  155.6803  140.0737  157.2505 H   0  0  0  0  0  0  0  0  0  0  0  0  # atno 8009 bound_to 7997
  154.4142  140.1675  156.1962 H   0  0  0  0  0  0  0  0  0  0  0  0  # atno 8010 bound_to 7997
  139.4822  144.4966  151.8231 H   0  0  0  0  0  0  0  0  0  0  0  0  # atno 10167 bound_to 10162
  156.0370  130.5591  150.7619 H   0  0  0  0  0  0  0  0  0  0  0  0  # atno 10718 bound_to 10713
  153.0184  135.5285  154.6974 H   0  0  0  0  0  0  0  0  0  0  0  0  # atno 10763 bound_to 10752
  154.6092  135.2876  155.0453 H   0  0  0  0  0  0  0  0  0  0  0  0  # atno 10764 bound_to 10752
  154.1481  135.6567  153.5010 H   0  0  0  0  0  0  0  0  0  0  0  0  # atno 10765 bound_to 10752
  139.8773  134.9184  156.4912 H   0  0  0  0  0  0  0  0  0  0  0  0  # atno 11005 bound_to 11000
  144.9647  139.3943  143.6339 LP  0  0  0  0  0  0  0  0  0  0  0  0  # atno 17320 bound_to 7965
  146.3345  139.8716  142.8839 LP  0  0  0  0  0  0  0  0  0  0  0  0  # atno 17321 bound_to 7965
  140.4455  144.1928  150.5894 LP  0  0  0  0  0  0  0  0  0  0  0  0  # atno 17342 bound_to 10162
  140.4639  143.2438  151.9182 LP  0  0  0  0  0  0  0  0  0  0  0  0  # atno 17343 bound_to 10162
  157.5136  131.0927  151.0167 LP  0  0  0  0  0  0  0  0  0  0  0  0  # atno 17370 bound_to 10713
  157.0516  130.5789  149.5371 LP  0  0  0  0  0  0  0  0  0  0  0  0  # atno 17371 bound_to 10713
  140.8657  133.8026  155.9312 LP  0  0  0  0  0  0  0  0  0  0  0  0  # atno 17394 bound_to 11000
  140.9004  134.2386  157.5045 LP  0  0  0  0  0  0  0  0  0  0  0  0  # atno 17395 bound_to 11000

$$$$
