AV-unprocessed.smi:2083|AV-procd|sdf|8510|dock8
  -GOLD-   2272011223D 1   1.00000     0.00000
 Structure written by MMmdl.
 44 45  0  0  0  0  0  0  0  0  3 V2000
  147.4092  135.8228  162.8894 C   0  0  0  0  0  0  0  0  0  0  0  0
  147.6939  135.9282  161.4306 C   0  0  0  0  0  0  0  0  0  0  0  0
  147.8189  134.9984  160.4372 C   0  0  0  0  0  0  0  0  0  0  0  0
  148.0884  135.7895  159.2886 C   0  0  0  0  0  0  0  0  0  0  0  0
  148.2834  135.1812  158.0203 N   0  0  0  0  0  0  0  0  0  0  0  0
  149.4178  135.0682  157.3052 C   0  0  0  0  0  0  0  0  0  0  0  0
  150.4823  135.5164  157.7475 O   0  0  0  0  0  0  0  0  0  0  0  0
  149.2160  134.4343  156.1176 N   0  5  0  0  0  0  0  0  0  0  0  0
  148.4799  135.0047  154.9906 C   0  0  0  0  0  0  0  0  0  0  0  0
  148.0344  133.8881  154.0101 C   0  0  2  0  0  0  0  0  0  0  0  0
  149.2018  133.0849  153.3819 C   0  0  0  0  0  0  0  0  0  0  0  0
  147.0908  134.4379  152.9866 N   0  3  1  0  0  0  0  0  0  0  0  0
  146.6560  133.4936  151.9152 C   0  0  0  0  0  0  0  0  0  0  0  0
  145.9160  134.2420  150.7966 C   0  0  0  0  0  0  0  0  0  0  0  0
  144.7174  135.0201  151.3586 C   0  0  0  0  0  0  0  0  0  0  0  0
  145.1407  135.9434  152.5165 C   0  0  2  0  0  0  0  0  0  0  0  0
  145.9051  137.1892  152.0342 C   0  0  0  0  0  0  0  0  0  0  0  0
  145.9303  135.1549  153.5824 C   0  0  0  0  0  0  0  0  0  0  0  0
  148.1254  137.0860  159.5588 N   0  0  0  0  0  0  0  0  0  0  0  0
  147.8727  137.1814  160.9323 O   0  0  0  0  0  0  0  0  0  0  0  0
  147.3816  134.7804  163.2070 H   0  0  0  0  0  0  0  0  0  0  0  0
  146.4463  136.2745  163.1274 H   0  0  0  0  0  0  0  0  0  0  0  0
  148.1767  136.3335  163.4712 H   0  0  0  0  0  0  0  0  0  0  0  0
  147.7302  133.9254  160.5197 H   0  0  0  0  0  0  0  0  0  0  0  0
  147.4575  134.7869  157.5954 H   0  0  0  0  0  0  0  0  0  0  0  0
  147.5899  135.5346  155.3337 H   0  0  0  0  0  0  0  0  0  0  0  0
  149.0705  135.7439  154.4480 H   0  0  0  0  0  0  0  0  0  0  0  0
  147.4642  133.1818  154.6159 H   0  0  0  0  0  0  0  0  0  0  0  0
  149.7864  132.5596  154.1391 H   0  0  0  0  0  0  0  0  0  0  0  0
  149.8940  133.7133  152.8186 H   0  0  0  0  0  0  0  0  0  0  0  0
  148.8245  132.3221  152.7005 H   0  0  0  0  0  0  0  0  0  0  0  0
  147.5145  132.9758  151.4865 H   0  0  0  0  0  0  0  0  0  0  0  0
  146.0015  132.7283  152.3345 H   0  0  0  0  0  0  0  0  0  0  0  0
  146.6024  134.9224  150.2915 H   0  0  0  0  0  0  0  0  0  0  0  0
  145.5753  133.5349  150.0399 H   0  0  0  0  0  0  0  0  0  0  0  0
  144.2328  135.5937  150.5677 H   0  0  0  0  0  0  0  0  0  0  0  0
  143.9724  134.3103  151.7205 H   0  0  0  0  0  0  0  0  0  0  0  0
  144.2287  136.3085  152.9902 H   0  0  0  0  0  0  0  0  0  0  0  0
  146.8559  136.9298  151.5683 H   0  0  0  0  0  0  0  0  0  0  0  0
  146.1205  137.8612  152.8655 H   0  0  0  0  0  0  0  0  0  0  0  0
  145.3204  137.7501  151.3047 H   0  0  0  0  0  0  0  0  0  0  0  0
  145.2771  134.4312  154.0722 H   0  0  0  0  0  0  0  0  0  0  0  0
  146.2667  135.8451  154.3571 H   0  0  0  0  0  0  0  0  0  0  0  0
  147.6266  135.1561  152.5200 H   0  0  0  0  0  0  0  0  0  0  0  0
  1  2  1  0  0  0  0
  1 21  1  0  0  0  0
  1 22  1  0  0  0  0
  1 23  1  0  0  0  0
  2 20  1  0  0  0  0
  2  3  2  0  0  0  0
  3  4  1  0  0  0  0
  3 24  1  0  0  0  0
  4  5  1  0  0  0  0
  4 19  2  0  0  0  0
  5  6  1  0  0  0  0
  5 25  1  0  0  0  0
  6  7  2  0  0  0  0
  6  8  1  0  0  0  0
  8  9  1  0  0  0  0
  9 10  1  0  0  0  0
  9 26  1  0  0  0  0
  9 27  1  0  0  0  0
 10 11  1  0  0  0  0
 10 12  1  0  0  0  0
 10 28  1  0  0  0  0
 11 29  1  0  0  0  0
 11 30  1  0  0  0  0
 11 31  1  0  0  0  0
 12 18  1  0  0  0  0
 12 13  1  0  0  0  0
 12 44  1  0  0  0  0
 13 14  1  0  0  0  0
 13 32  1  0  0  0  0
 13 33  1  0  0  0  0
 14 15  1  0  0  0  0
 14 34  1  0  0  0  0
 14 35  1  0  0  0  0
 15 16  1  0  0  0  0
 15 36  1  0  0  0  0
 15 37  1  0  0  0  0
 16 17  1  0  0  0  0
 16 18  1  0  0  0  0
 16 38  1  0  0  0  0
 17 39  1  0  0  0  0
 17 40  1  0  0  0  0
 17 41  1  0  0  0  0
 18 42  1  0  0  0  0
 18 43  1  0  0  0  0
 19 20  1  0  0  0  0
M  CHG  1   8  -1
M  CHG  1  12   1
M  END
> <s_m_source_file>
AV-unprocessed.smi

> <i_m_source_file_index>
2083

> <i_lp_mmshare_version>
43012

> <i_f3d_flags>
0

> <s_epik_input>
W0NIM11jMVtjSF1jKG5vMSlbTkhdQyg9TylbTkhdW0NIMl1bQ0BIXShbQ0gzXSlOMltDSDJdW0NIMl1bQ0gyXVtDQEBIXShbQ0gzXSlbQ0gyXTI=

> <s_epik_cmdline>
J2VwaWtfcHl0aG9uJywgJy1waCcsICc3LjAnLCAnLXRuJywgJzgnLCAnLW1hJywgJzIwMCcsICctbWV0YWxfYmluZGluZycsICctaW1hZScsICc8aW5maWxlLm1hZT4nLCAnLW9tYWUnLCAnPG91dGZpbGUubWFlPic=

> <r_epik_Ionization_Penalty>
6.76934

> <r_epik_Ionization_Penalty_Charging>
6.76934

> <r_epik_Ionization_Penalty_Neutral>
5.77849e-06

> <r_epik_State_Penalty>
6.79457

> <r_epik_Charging_Adjusted_Penalty>
13.5639

> <i_epik_Tot_Q>
0

> <i_epik_Tot_abs_Q>
2

> <r_epik_Metal_State_Penalty>
2.72837

> <b_epik_Metal_Only>
1

> <s_lp_Force_Field>
OPLS_2005

> <r_lp_Energy>
20.9735

> <b_lp_Chiralities_Consistent>
1

> <s_lp_Variant>
AV-unprocessed.smi:2083-21

> <Gold.Version>
5.8.1

> <Gold.Id.Protein>
6NUR|6NUR_protein|mol2

> <Gold.PLP.Fitness>
41.4776

> <Gold.PLP.PLP>
-31.8103

> <Gold.PLP.part.hbond>
-4.1490

> <Gold.PLP.part.metal>
0.0000

> <Gold.PLP.part.buried>
-2.8916

> <Gold.PLP.part.nonpolar>
-24.2932

> <Gold.PLP.part.repulsive>
0.0763

> <Gold.PLP.ligand.clash>
0.0000

> <Gold.PLP.ligand.torsion>
1.5486

> <Gold.PLP.Chemscore.Hbond>
4.2014

> <Gold.PLP.Chemscore.CHOScore>
0.0000

> <Gold.PLP.Chemscore.Metal>
0.0000

> <Gold.Chemscore.Hbonds>
donor molecule, donor type, donor heavy atom, donor atom, acceptor molecule, acceptor atom, score
      L1  H    12    44       P1  7948  2.00
      P1  H  6896  6907       L1     7  0.56
      P1  H  6931  6943       L1    20  0.91
      P1  H  6934  6947       L1    20  0.69

> <Gold.PLP.Chemscore.Internal.Correction>
0.1605

> <Gold.Rescore>
     Score         DG    S(hbond)    S(metal)    S(lipo)     H(rot)  DE(clash)    DE(int)     intcor
     16.38     -18.08       2.61        0.00      66.46       1.52       0.19       1.50       ----

> <Gold.Chemscore.Fitness>
16.3807

> <Gold.Chemscore.DG>
-18.0768

> <Gold.Chemscore.ZeroCoef>
-5.4800

> <Gold.Chemscore.Hbond>
2.6076

> <Gold.Chemscore.Metal>
0.0000

> <Gold.Chemscore.Lipo>
66.4621

> <Gold.Chemscore.Internal_Hbond>
0.0000

> <Gold.Chemscore.DEClash>
0.1933

> <Gold.Chemscore.DEInternal>
1.5029

> <Gold.Chemscore.Rot>
1.5190

> <Gold.Chemscore.Internal.Correction>
   9.000000E+99

> <Gold.Chemscore.Hbonds>
donor molecule, donor type, donor heavy atom, donor atom, acceptor molecule, acceptor atom, score
      L1  H    12    44       P1  7948  0.99
      P1  H  6896  6907       L1     7  0.36
      P1  H  6931  6943       L1    20  0.74
      P1  H  6934  6947       L1    20  0.11

> <Gold.Chemscore.Hbond.Weighted>
-8.7094

> <Gold.Chemscore.Metal.Weighted>
-0.0000

> <Gold.Chemscore.Lipo.Weighted>
-7.7761

> <Gold.Chemscore.Internal_Hbond.Weighted>
0.0000

> <Gold.Chemscore.DEClash.Weighted>
0.1933

> <Gold.Chemscore.DEInternal.Weighted>
1.5029

> <Gold.Chemscore.Rot.Weighted>
3.8886

> <Gold.Chemscore.Internal.Correction.Weighted>
   9.000000E+99

> <Gold.Protein.RotatedTorsions>
[ 6907 6896 6895 6894 ] final  -57.55 input  -60.11 | X-H torsion
[ 7974 7965 7964 7962 ] final  135.97 input  175.53 | X-H torsion
[ 8008 7997 7996 7995 ] final   -8.96 input   59.86 | X-H torsion
[ 10167 10162 10161 10158 ] final -104.66 input  -65.29 | X-H torsion
[ 10718 10713 10712 10709 ] final  -10.82 input   66.30 | X-H torsion
[ 10763 10752 10751 10750 ] final  -62.03 input  -60.55 | X-H torsion
[ 11005 11000 10999 10996 ] final  102.07 input  -57.11 | X-H torsion

> <Gold.Protein.ActiveResidues>
 VAL166  LYS551  ARG553  GLY616  TRP617  ASP618  TYR619  PRO620  LYS621  CYS622 
 ASP623  PHE694  ASN695  SER759  ASP760  ASP761  ALA762  ILE779  LEU786  VAL792 
 PHE793  MET794  SER795  GLU796  ALA797  LYS798  CYS799  TRP800  GLU811  SER814 

> <Gold.Protein.RotatedAtoms>
  150.8077  134.7213  159.6659 H   0  0  0  0  0  0  0  0  0  0  0  0  # atno 6907 bound_to 6896
  152.4197  134.5974  160.0000 H   0  0  0  0  0  0  0  0  0  0  0  0  # atno 6908 bound_to 6896
  151.6193  133.3303  159.3120 H   0  0  0  0  0  0  0  0  0  0  0  0  # atno 6909 bound_to 6896
  144.9610  139.4710  143.5479 H   0  0  0  0  0  0  0  0  0  0  0  0  # atno 7974 bound_to 7965
  154.5691  140.2367  155.8218 H   0  0  0  0  0  0  0  0  0  0  0  0  # atno 8008 bound_to 7997
  156.2092  140.3031  155.9653 H   0  0  0  0  0  0  0  0  0  0  0  0  # atno 8009 bound_to 7997
  155.2745  140.0420  157.3000 H   0  0  0  0  0  0  0  0  0  0  0  0  # atno 8010 bound_to 7997
  140.2069  143.3776  152.1083 H   0  0  0  0  0  0  0  0  0  0  0  0  # atno 10167 bound_to 10162
  156.6679  130.5001  149.6009 H   0  0  0  0  0  0  0  0  0  0  0  0  # atno 10718 bound_to 10713
  154.2937  135.6248  153.5396 H   0  0  0  0  0  0  0  0  0  0  0  0  # atno 10763 bound_to 10752
  152.9849  135.5662  154.5361 H   0  0  0  0  0  0  0  0  0  0  0  0  # atno 10764 bound_to 10752
  154.4977  135.2870  155.1422 H   0  0  0  0  0  0  0  0  0  0  0  0  # atno 10765 bound_to 10752
  139.8776  134.9209  156.5002 H   0  0  0  0  0  0  0  0  0  0  0  0  # atno 11005 bound_to 11000
  146.3353  139.8760  142.8832 LP  0  0  0  0  0  0  0  0  0  0  0  0  # atno 17320 bound_to 7965
  145.2699  141.0105  143.3778 LP  0  0  0  0  0  0  0  0  0  0  0  0  # atno 17321 bound_to 7965
  139.5195  144.7020  151.5465 LP  0  0  0  0  0  0  0  0  0  0  0  0  # atno 17342 bound_to 10162
  140.6351  143.9000  150.6640 LP  0  0  0  0  0  0  0  0  0  0  0  0  # atno 17343 bound_to 10162
  156.1961  130.6590  151.1115 LP  0  0  0  0  0  0  0  0  0  0  0  0  # atno 17370 bound_to 10713
  157.7087  131.0744  150.6577 LP  0  0  0  0  0  0  0  0  0  0  0  0  # atno 17371 bound_to 10713
  140.8595  133.8071  155.9250 LP  0  0  0  0  0  0  0  0  0  0  0  0  # atno 17394 bound_to 11000
  140.9064  134.2315  157.5012 LP  0  0  0  0  0  0  0  0  0  0  0  0  # atno 17395 bound_to 11000

$$$$
