AV-unprocessed.smi:1469|AV-procd|sdf|5959|dock4
  -GOLD-   22720 6 43D 1   1.00000     0.00000
 Structure written by MMmdl.
 41 42  0  0  0  0  0  0  0  0  2 V2000
  146.8386  138.9518  152.9444 C   0  0  0  0  0  0  0  0  0  0  0  0
  146.4721  137.5800  153.5473 C   0  0  1  0  0  0  0  0  0  0  0  0
  145.1525  137.6668  154.3565 C   0  0  0  0  0  0  0  0  0  0  0  0
  144.0077  138.0968  153.5550 N   0  0  0  0  0  0  0  0  0  0  0  0
  142.8126  137.4880  153.5148 C   0  0  0  0  0  0  0  0  0  0  0  0
  142.5398  136.4941  154.1887 O   0  0  0  0  0  0  0  0  0  0  0  0
  141.7665  138.1219  152.5868 C   0  0  0  0  0  0  0  0  0  0  0  0
  140.4715  138.3625  153.2449 N   0  0  0  0  0  0  0  0  0  0  0  0
  140.0382  139.7002  153.3406 C   0  0  0  0  0  0  0  0  0  0  0  0
  138.8738  140.0294  153.9219 C   0  0  0  0  0  0  0  0  0  0  0  0
  138.0546  138.9683  154.4581 C   0  0  0  0  0  0  0  0  0  0  0  0
  138.4610  137.6857  154.3746 C   0  0  0  0  0  0  0  0  0  0  0  0
  139.7346  137.3216  153.7429 C   0  0  0  0  0  0  0  0  0  0  0  0
  140.1167  136.1534  153.6660 O   0  0  0  0  0  0  0  0  0  0  0  0
  146.4140  136.5195  152.4998 N   0  3  0  0  0  0  0  0  0  0  0  0
  145.9516  135.1910  152.9563 C   0  0  0  0  0  0  0  0  0  0  0  0
  145.5171  134.4686  151.6866 C   0  0  0  0  0  0  0  0  0  0  0  0
  144.8859  135.5811  150.8573 C   0  0  0  0  0  0  0  0  0  0  0  0
  145.6100  136.8608  151.2987 C   0  0  0  0  0  0  0  0  0  0  0  0
  146.7957  139.7358  153.7010 H   0  0  0  0  0  0  0  0  0  0  0  0
  146.1594  139.2323  152.1392 H   0  0  0  0  0  0  0  0  0  0  0  0
  147.8513  138.9606  152.5414 H   0  0  0  0  0  0  0  0  0  0  0  0
  147.2679  137.3151  154.2454 H   0  0  0  0  0  0  0  0  0  0  0  0
  144.9045  136.6873  154.7656 H   0  0  0  0  0  0  0  0  0  0  0  0
  145.2810  138.3131  155.2266 H   0  0  0  0  0  0  0  0  0  0  0  0
  144.1436  138.9021  152.9610 H   0  0  0  0  0  0  0  0  0  0  0  0
  142.1787  139.0551  152.2004 H   0  0  0  0  0  0  0  0  0  0  0  0
  141.6264  137.4874  151.7093 H   0  0  0  0  0  0  0  0  0  0  0  0
  140.7108  140.4340  152.9211 H   0  0  0  0  0  0  0  0  0  0  0  0
  138.5594  141.0605  153.9894 H   0  0  0  0  0  0  0  0  0  0  0  0
  137.1119  139.2036  154.9295 H   0  0  0  0  0  0  0  0  0  0  0  0
  137.8354  136.9050  154.7820 H   0  0  0  0  0  0  0  0  0  0  0  0
  146.7324  134.6474  153.4889 H   0  0  0  0  0  0  0  0  0  0  0  0
  145.0968  135.3067  153.6250 H   0  0  0  0  0  0  0  0  0  0  0  0
  146.3912  134.0698  151.1695 H   0  0  0  0  0  0  0  0  0  0  0  0
  144.8331  133.6417  151.8806 H   0  0  0  0  0  0  0  0  0  0  0  0
  144.9705  135.3996  149.7854 H   0  0  0  0  0  0  0  0  0  0  0  0
  143.8244  135.6595  151.0966 H   0  0  0  0  0  0  0  0  0  0  0  0
  144.8779  137.6411  151.5116 H   0  0  0  0  0  0  0  0  0  0  0  0
  146.2728  137.2327  150.5166 H   0  0  0  0  0  0  0  0  0  0  0  0
  147.3592  136.3805  152.1716 H   0  0  0  0  0  0  0  0  0  0  0  0
  1  2  1  0  0  0  0
  1 20  1  0  0  0  0
  1 21  1  0  0  0  0
  1 22  1  0  0  0  0
  2  3  1  0  0  0  0
  2 15  1  0  0  0  0
  2 23  1  0  0  0  0
  3  4  1  0  0  0  0
  3 24  1  0  0  0  0
  3 25  1  0  0  0  0
  4  5  1  0  0  0  0
  4 26  1  0  0  0  0
  5  6  2  0  0  0  0
  5  7  1  0  0  0  0
  7  8  1  0  0  0  0
  7 27  1  0  0  0  0
  7 28  1  0  0  0  0
  8 13  1  0  0  0  0
  8  9  1  0  0  0  0
  9 10  2  0  0  0  0
  9 29  1  0  0  0  0
 10 11  1  0  0  0  0
 10 30  1  0  0  0  0
 11 12  2  0  0  0  0
 11 31  1  0  0  0  0
 12 13  1  0  0  0  0
 12 32  1  0  0  0  0
 13 14  2  0  0  0  0
 15 19  1  0  0  0  0
 15 16  1  0  0  0  0
 15 41  1  0  0  0  0
 16 17  1  0  0  0  0
 16 33  1  0  0  0  0
 16 34  1  0  0  0  0
 17 18  1  0  0  0  0
 17 35  1  0  0  0  0
 17 36  1  0  0  0  0
 18 19  1  0  0  0  0
 18 37  1  0  0  0  0
 18 38  1  0  0  0  0
 19 39  1  0  0  0  0
 19 40  1  0  0  0  0
M  CHG  1  15   1
M  END
> <s_m_source_file>
AV-unprocessed.smi

> <i_m_source_file_index>
1469

> <i_lp_mmshare_version>
43012

> <i_f3d_flags>
0

> <s_epik_input>
W0NIMl0xW0NIMl1bQ0gyXVtDSDJdTjFbQ0BIXShbQ0gzXSlbQ0gyXVtOSF1DKD1PKVtDSDJdbjJbY0hdW2NIXVtjSF1bY0hdYzI9Tw==

> <s_epik_cmdline>
J2VwaWtfcHl0aG9uJywgJy1waCcsICc3LjAnLCAnLXRuJywgJzgnLCAnLW1hJywgJzIwMCcsICctbWV0YWxfYmluZGluZycsICctaW1hZScsICc8aW5maWxlLm1hZT4nLCAnLW9tYWUnLCAnPG91dGZpbGUubWFlPic=

> <r_lp_tautomer_probability>
1

> <r_epik_Ionization_Penalty>
0.00497231

> <r_epik_Ionization_Penalty_Charging>
0.00497223

> <r_epik_Ionization_Penalty_Neutral>
8.2288e-08

> <r_epik_State_Penalty>
0.0036131

> <r_epik_Charging_Adjusted_Penalty>
0.00858533

> <i_epik_Tot_Q>
1

> <i_epik_Tot_abs_Q>
1

> <r_epik_Metal_State_Penalty>
-0

> <b_epik_Metal_Only>
0

> <s_lp_Force_Field>
OPLS_2005

> <r_lp_Energy>
47.1466

> <b_lp_Chiralities_Consistent>
1

> <s_lp_Variant>
AV-unprocessed.smi:1469-2

> <Gold.Version>
5.8.1

> <Gold.Id.Protein>
6NUR|6NUR_protein|mol2

> <Gold.PLP.Fitness>
44.8748

> <Gold.PLP.PLP>
-30.5184

> <Gold.PLP.part.hbond>
-3.5425

> <Gold.PLP.part.metal>
0.0000

> <Gold.PLP.part.buried>
-3.3582

> <Gold.PLP.part.nonpolar>
-24.1216

> <Gold.PLP.part.repulsive>
0.2188

> <Gold.PLP.ligand.clash>
0.0000

> <Gold.PLP.ligand.torsion>
0.2755

> <Gold.PLP.Chemscore.Hbond>
3.9440

> <Gold.PLP.Chemscore.CHOScore>
1.0000

> <Gold.PLP.Chemscore.Metal>
0.0000

> <Gold.Chemscore.Hbonds>
donor molecule, donor type, donor heavy atom, donor atom, acceptor molecule, acceptor atom, score
      L1  H     4    26       P1 10175  0.98
      L1  H    15    41       P1  7948  2.00
      L1  C     9    29       P1 10160  0.61
      L1  C     9    29       P1 10174  0.03
      L1  C     9    29       P1 10175  0.02

> <Gold.PLP.Chemscore.Internal.Correction>
0.0753

> <Gold.Rescore>
     Score         DG    S(hbond)    S(metal)    S(lipo)     H(rot)  DE(clash)    DE(int)     intcor
     14.72     -17.55       2.98        0.00      59.42       1.89       0.17       2.66       ----

> <Gold.Chemscore.Fitness>
14.7222

> <Gold.Chemscore.DG>
-17.5502

> <Gold.Chemscore.ZeroCoef>
-5.4800

> <Gold.Chemscore.Hbond>
2.9798

> <Gold.Chemscore.Metal>
0.0000

> <Gold.Chemscore.Lipo>
59.4152

> <Gold.Chemscore.Internal_Hbond>
0.0000

> <Gold.Chemscore.DEClash>
0.1666

> <Gold.Chemscore.DEInternal>
2.6613

> <Gold.Chemscore.Rot>
1.8882

> <Gold.Chemscore.Internal.Correction>
   9.000000E+99

> <Gold.Chemscore.Hbonds>
donor molecule, donor type, donor heavy atom, donor atom, acceptor molecule, acceptor atom, score
      L1  H     4    26       P1 10175  0.93
      L1  H    15    41       P1  7948  0.99

> <Gold.Chemscore.Hbond.Weighted>
-9.9524

> <Gold.Chemscore.Metal.Weighted>
-0.0000

> <Gold.Chemscore.Lipo.Weighted>
-6.9516

> <Gold.Chemscore.Internal_Hbond.Weighted>
0.0000

> <Gold.Chemscore.DEClash.Weighted>
0.1666

> <Gold.Chemscore.DEInternal.Weighted>
2.6613

> <Gold.Chemscore.Rot.Weighted>
4.8338

> <Gold.Chemscore.Internal.Correction.Weighted>
   9.000000E+99

> <Gold.Protein.RotatedTorsions>
[ 6907 6896 6895 6894 ] final -156.73 input  -60.11 | X-H torsion
[ 7974 7965 7964 7962 ] final  -68.86 input  175.53 | X-H torsion
[ 8008 7997 7996 7995 ] final  167.87 input   59.86 | X-H torsion
[ 10167 10162 10161 10158 ] final   83.41 input  -65.29 | X-H torsion
[ 10718 10713 10712 10709 ] final  152.39 input   66.30 | X-H torsion
[ 10763 10752 10751 10750 ] final   30.01 input  -60.55 | X-H torsion
[ 11005 11000 10999 10996 ] final   44.57 input  -57.11 | X-H torsion

> <Gold.Protein.ActiveResidues>
 VAL166  LYS551  ARG553  GLY616  TRP617  ASP618  TYR619  PRO620  LYS621  CYS622 
 ASP623  PHE694  ASN695  SER759  ASP760  ASP761  ALA762  ILE779  LEU786  VAL792 
 PHE793  MET794  SER795  GLU796  ALA797  LYS798  CYS799  TRP800  GLU811  SER814 

> <Gold.Protein.RotatedAtoms>
  151.2920  133.4161  159.2633 H   0  0  0  0  0  0  0  0  0  0  0  0  # atno 6907 bound_to 6896
  151.0269  134.9511  159.8100 H   0  0  0  0  0  0  0  0  0  0  0  0  # atno 6908 bound_to 6896
  152.5337  134.2882  159.9085 H   0  0  0  0  0  0  0  0  0  0  0  0  # atno 6909 bound_to 6896
  145.7112  140.9077  143.0680 H   0  0  0  0  0  0  0  0  0  0  0  0  # atno 7974 bound_to 7965
  156.1596  140.1605  156.8634 H   0  0  0  0  0  0  0  0  0  0  0  0  # atno 8008 bound_to 7997
  154.5148  140.0792  156.8095 H   0  0  0  0  0  0  0  0  0  0  0  0  # atno 8009 bound_to 7997
  155.3734  140.3401  155.4246 H   0  0  0  0  0  0  0  0  0  0  0  0  # atno 8010 bound_to 7997
  139.9186  144.6227  150.8463 H   0  0  0  0  0  0  0  0  0  0  0  0  # atno 10167 bound_to 10162
  157.2584  131.0793  151.1682 H   0  0  0  0  0  0  0  0  0  0  0  0  # atno 10718 bound_to 10713
  153.0396  135.6474  154.0979 H   0  0  0  0  0  0  0  0  0  0  0  0  # atno 10763 bound_to 10752
  154.0688  135.2882  155.3313 H   0  0  0  0  0  0  0  0  0  0  0  0  # atno 10764 bound_to 10752
  154.6608  135.5392  153.8080 H   0  0  0  0  0  0  0  0  0  0  0  0  # atno 10765 bound_to 10752
  140.1539  134.4426  155.8362 H   0  0  0  0  0  0  0  0  0  0  0  0  # atno 11005 bound_to 11000
  144.6941  139.9077  143.7462 LP  0  0  0  0  0  0  0  0  0  0  0  0  # atno 17320 bound_to 7965
  146.0711  139.3700  143.0522 LP  0  0  0  0  0  0  0  0  0  0  0  0  # atno 17321 bound_to 7965
  140.7668  143.3313  151.2404 LP  0  0  0  0  0  0  0  0  0  0  0  0  # atno 17342 bound_to 10162
  139.6880  143.9740  152.2844 LP  0  0  0  0  0  0  0  0  0  0  0  0  # atno 17343 bound_to 10162
  157.3202  130.6933  149.6265 LP  0  0  0  0  0  0  0  0  0  0  0  0  # atno 17370 bound_to 10713
  155.9664  130.4337  150.5020 LP  0  0  0  0  0  0  0  0  0  0  0  0  # atno 17371 bound_to 10713
  141.2202  133.6884  156.7472 LP  0  0  0  0  0  0  0  0  0  0  0  0  # atno 17394 bound_to 11000
  140.2571  134.8496  157.3723 LP  0  0  0  0  0  0  0  0  0  0  0  0  # atno 17395 bound_to 11000

$$$$
