AV-unprocessed.smi:1712|AV-procd|sdf|6903|dock6
  -GOLD-   22720 8103D 1   1.00000     0.00000
 Structure written by MMmdl.
 38 39  0  0  0  0  0  0  0  0  2 V2000
  146.5853  139.0723  151.3873 C   0  0  0  0  0  0  0  0  0  0  0  0
  146.6420  138.9861  152.9329 C   0  0  2  0  0  0  0  0  0  0  0  0
  145.8282  137.7647  153.4474 C   0  0  0  0  0  0  0  0  0  0  0  0
  146.1482  136.5169  152.7568 N   0  0  0  0  0  0  0  0  0  0  0  0
  145.3033  135.4905  152.5772 C   0  0  0  0  0  0  0  0  0  0  0  0
  144.1314  135.5007  152.9541 O   0  0  0  0  0  0  0  0  0  0  0  0
  145.8996  134.4720  151.9361 N   0  0  0  0  0  0  0  0  0  0  0  0
  145.3175  133.2360  151.5565 C   0  0  0  0  0  0  0  0  0  0  0  0
  146.0437  132.1130  151.0751 C   0  0  0  0  0  0  0  0  0  0  0  0
  145.2374  131.0986  150.7969 N   0  0  0  0  0  0  0  0  0  0  0  0
  144.0034  131.5631  151.0963 N   0  0  0  0  0  0  0  0  0  0  0  0
  144.0035  132.8594  151.5620 C   0  0  0  0  0  0  0  0  0  0  0  0
  146.1994  140.2715  153.5739 N   0  3  0  0  0  0  0  0  0  0  0  0
  146.1551  140.2229  155.0636 C   0  0  0  0  0  0  0  0  0  0  0  0
  145.7044  141.5644  155.6655 C   0  0  0  0  0  0  0  0  0  0  0  0
  146.5640  142.6018  155.2239 O   0  0  0  0  0  0  0  0  0  0  0  0
  146.5028  142.7492  153.8150 C   0  0  0  0  0  0  0  0  0  0  0  0
  146.9892  141.4580  153.1361 C   0  0  0  0  0  0  0  0  0  0  0  0
  143.1799  130.9901  150.9785 H   0  0  0  0  0  0  0  0  0  0  0  0
  146.8799  138.1367  150.9147 H   0  0  0  0  0  0  0  0  0  0  0  0
  147.2724  139.8131  150.9822 H   0  0  0  0  0  0  0  0  0  0  0  0
  145.5800  139.3129  151.0405 H   0  0  0  0  0  0  0  0  0  0  0  0
  147.6841  138.8250  153.2144 H   0  0  0  0  0  0  0  0  0  0  0  0
  146.0564  137.5599  154.4921 H   0  0  0  0  0  0  0  0  0  0  0  0
  144.7585  137.9771  153.4014 H   0  0  0  0  0  0  0  0  0  0  0  0
  147.0908  136.4199  152.4079 H   0  0  0  0  0  0  0  0  0  0  0  0
  146.8707  134.5933  151.6887 H   0  0  0  0  0  0  0  0  0  0  0  0
  147.1069  132.0022  150.9202 H   0  0  0  0  0  0  0  0  0  0  0  0
  143.0959  133.3724  151.8429 H   0  0  0  0  0  0  0  0  0  0  0  0
  145.4492  139.4703  155.4100 H   0  0  0  0  0  0  0  0  0  0  0  0
  147.1389  139.9525  155.4505 H   0  0  0  0  0  0  0  0  0  0  0  0
  144.6710  141.7872  155.3944 H   0  0  0  0  0  0  0  0  0  0  0  0
  145.7423  141.5170  156.7541 H   0  0  0  0  0  0  0  0  0  0  0  0
  145.4867  142.9964  153.5026 H   0  0  0  0  0  0  0  0  0  0  0  0
  147.1364  143.5869  153.5224 H   0  0  0  0  0  0  0  0  0  0  0  0
  148.0453  141.2958  153.3576 H   0  0  0  0  0  0  0  0  0  0  0  0
  146.9029  141.6128  152.0625 H   0  0  0  0  0  0  0  0  0  0  0  0
  145.2501  140.4322  153.2680 H   0  0  0  0  0  0  0  0  0  0  0  0
  1  2  1  0  0  0  0
  1 20  1  0  0  0  0
  1 21  1  0  0  0  0
  1 22  1  0  0  0  0
  2  3  1  0  0  0  0
  2 13  1  0  0  0  0
  2 23  1  0  0  0  0
  3  4  1  0  0  0  0
  3 24  1  0  0  0  0
  3 25  1  0  0  0  0
  4  5  1  0  0  0  0
  4 26  1  0  0  0  0
  5  6  2  0  0  0  0
  5  7  1  0  0  0  0
  7  8  1  0  0  0  0
  7 27  1  0  0  0  0
  8 12  2  0  0  0  0
  8  9  1  0  0  0  0
  9 10  2  0  0  0  0
  9 28  1  0  0  0  0
 10 11  1  0  0  0  0
 11 19  1  0  0  0  0
 11 12  1  0  0  0  0
 12 29  1  0  0  0  0
 13 18  1  0  0  0  0
 13 14  1  0  0  0  0
 13 38  1  0  0  0  0
 14 15  1  0  0  0  0
 14 30  1  0  0  0  0
 14 31  1  0  0  0  0
 15 16  1  0  0  0  0
 15 32  1  0  0  0  0
 15 33  1  0  0  0  0
 16 17  1  0  0  0  0
 17 18  1  0  0  0  0
 17 34  1  0  0  0  0
 17 35  1  0  0  0  0
 18 36  1  0  0  0  0
 18 37  1  0  0  0  0
M  CHG  1  13   1
M  END
> <s_m_source_file>
AV-unprocessed.smi

> <i_m_source_file_index>
1712

> <i_lp_mmshare_version>
43012

> <i_f3d_flags>
0

> <s_epik_input>
W0NIMl0xW0NIMl1PW0NIMl1bQ0gyXU4xW0NASF0oW0NIM10pW0NIMl1bTkhdQyg9TylbTkhdYzJbY0hdbltuSF1bY0hdMg==

> <s_epik_cmdline>
J2VwaWtfcHl0aG9uJywgJy1waCcsICc3LjAnLCAnLXRuJywgJzgnLCAnLW1hJywgJzIwMCcsICctbWV0YWxfYmluZGluZycsICctaW1hZScsICc8aW5maWxlLm1hZT4nLCAnLW9tYWUnLCAnPG91dGZpbGUubWFlPic=

> <r_lp_tautomer_probability>
0.5

> <r_epik_Ionization_Penalty>
0.646007

> <r_epik_Ionization_Penalty_Charging>
0.645968

> <r_epik_Ionization_Penalty_Neutral>
3.91929e-05

> <r_epik_State_Penalty>
0.664063

> <r_epik_Charging_Adjusted_Penalty>
1.31003

> <i_epik_Tot_Q>
1

> <i_epik_Tot_abs_Q>
1

> <r_epik_Metal_State_Penalty>
0.664064

> <b_epik_Metal_Only>
0

> <s_lp_Force_Field>
OPLS_2005

> <r_lp_Energy>
23.9653

> <b_lp_Chiralities_Consistent>
1

> <s_lp_Variant>
AV-unprocessed.smi:1712-3

> <Gold.Version>
5.8.1

> <Gold.Id.Protein>
6NUR|6NUR_protein|mol2

> <Gold.PLP.Fitness>
41.6280

> <Gold.PLP.PLP>
-26.5102

> <Gold.PLP.part.hbond>
-3.0000

> <Gold.PLP.part.metal>
0.0000

> <Gold.PLP.part.buried>
-2.7046

> <Gold.PLP.part.nonpolar>
-21.4706

> <Gold.PLP.part.repulsive>
0.5377

> <Gold.PLP.ligand.clash>
0.0000

> <Gold.PLP.ligand.torsion>
0.2723

> <Gold.PLP.Chemscore.Hbond>
3.2113

> <Gold.PLP.Chemscore.CHOScore>
1.9930

> <Gold.PLP.Chemscore.Metal>
0.0000

> <Gold.Chemscore.Hbonds>
donor molecule, donor type, donor heavy atom, donor atom, acceptor molecule, acceptor atom, score
      L1  H     4    26       P1  7948  1.00
      L1  H    13    38       P1 10175  2.00
      L1  C     9    28       P1 10747  1.00

> <Gold.PLP.Chemscore.Internal.Correction>
0.0497

> <Gold.Rescore>
     Score         DG    S(hbond)    S(metal)    S(lipo)     H(rot)  DE(clash)    DE(int)     intcor
     14.38     -16.71       2.48        0.00      61.94       1.68       1.31       1.02       ----

> <Gold.Chemscore.Fitness>
14.3796

> <Gold.Chemscore.DG>
-16.7125

> <Gold.Chemscore.ZeroCoef>
-5.4800

> <Gold.Chemscore.Hbond>
2.4787

> <Gold.Chemscore.Metal>
0.0000

> <Gold.Chemscore.Lipo>
61.9409

> <Gold.Chemscore.Internal_Hbond>
0.0000

> <Gold.Chemscore.DEClash>
1.3117

> <Gold.Chemscore.DEInternal>
1.0212

> <Gold.Chemscore.Rot>
1.6771

> <Gold.Chemscore.Internal.Correction>
   9.000000E+99

> <Gold.Chemscore.Hbonds>
donor molecule, donor type, donor heavy atom, donor atom, acceptor molecule, acceptor atom, score
      L1  H     4    26       P1  7948  0.99
      L1  H    13    38       P1 10175  0.98

> <Gold.Chemscore.Hbond.Weighted>
-8.2789

> <Gold.Chemscore.Metal.Weighted>
-0.0000

> <Gold.Chemscore.Lipo.Weighted>
-7.2471

> <Gold.Chemscore.Internal_Hbond.Weighted>
0.0000

> <Gold.Chemscore.DEClash.Weighted>
1.3117

> <Gold.Chemscore.DEInternal.Weighted>
1.0212

> <Gold.Chemscore.Rot.Weighted>
4.2935

> <Gold.Chemscore.Internal.Correction.Weighted>
   9.000000E+99

> <Gold.Protein.RotatedTorsions>
[ 6907 6896 6895 6894 ] final -129.18 input  -60.11 | X-H torsion
[ 7974 7965 7964 7962 ] final   80.01 input  175.53 | X-H torsion
[ 8008 7997 7996 7995 ] final   56.38 input   59.86 | X-H torsion
[ 10167 10162 10161 10158 ] final -140.74 input  -65.29 | X-H torsion
[ 10718 10713 10712 10709 ] final  -16.88 input   66.30 | X-H torsion
[ 10763 10752 10751 10750 ] final  126.38 input  -60.55 | X-H torsion
[ 11005 11000 10999 10996 ] final   54.49 input  -57.11 | X-H torsion

> <Gold.Protein.ActiveResidues>
 VAL166  LYS551  ARG553  GLY616  TRP617  ASP618  TYR619  PRO620  LYS621  CYS622 
 ASP623  PHE694  ASN695  SER759  ASP760  ASP761  ALA762  ILE779  LEU786  VAL792 
 PHE793  MET794  SER795  GLU796  ALA797  LYS798  CYS799  TRP800  GLU811  SER814 

> <Gold.Protein.RotatedAtoms>
  150.9259  133.6824  159.2821 H   0  0  0  0  0  0  0  0  0  0  0  0  # atno 6907 bound_to 6896
  151.4263  135.1003  159.9638 H   0  0  0  0  0  0  0  0  0  0  0  0  # atno 6908 bound_to 6896
  152.5002  133.8700  159.7348 H   0  0  0  0  0  0  0  0  0  0  0  0  # atno 6909 bound_to 6896
  145.6567  139.2461  143.1946 H   0  0  0  0  0  0  0  0  0  0  0  0  # atno 7974 bound_to 7965
  155.5165  140.3478  155.4398 H   0  0  0  0  0  0  0  0  0  0  0  0  # atno 8008 bound_to 7997
  156.0814  140.1387  156.9735 H   0  0  0  0  0  0  0  0  0  0  0  0  # atno 8009 bound_to 7997
  154.4582  140.0945  156.6794 H   0  0  0  0  0  0  0  0  0  0  0  0  # atno 8010 bound_to 7997
  139.8252  143.7520  152.2666 H   0  0  0  0  0  0  0  0  0  0  0  0  # atno 10167 bound_to 10162
  156.5814  130.4775  149.6319 H   0  0  0  0  0  0  0  0  0  0  0  0  # atno 10718 bound_to 10713
  153.6925  135.3296  155.3205 H   0  0  0  0  0  0  0  0  0  0  0  0  # atno 10763 bound_to 10752
  154.8436  135.4435  154.1494 H   0  0  0  0  0  0  0  0  0  0  0  0  # atno 10764 bound_to 10752
  153.2539  135.6984  153.7727 H   0  0  0  0  0  0  0  0  0  0  0  0  # atno 10765 bound_to 10752
  140.0682  134.5507  155.9075 H   0  0  0  0  0  0  0  0  0  0  0  0  # atno 11005 bound_to 11000
  146.1159  140.7370  142.9481 LP  0  0  0  0  0  0  0  0  0  0  0  0  # atno 17320 bound_to 7965
  144.7103  140.4014  143.7085 LP  0  0  0  0  0  0  0  0  0  0  0  0  # atno 17321 bound_to 7965
  139.7711  144.7476  151.0224 LP  0  0  0  0  0  0  0  0  0  0  0  0  # atno 17342 bound_to 10162
  140.7810  143.4644  151.0232 LP  0  0  0  0  0  0  0  0  0  0  0  0  # atno 17343 bound_to 10162
  156.2629  130.6972  151.1746 LP  0  0  0  0  0  0  0  0  0  0  0  0  # atno 17370 bound_to 10713
  157.7326  131.0598  150.5622 LP  0  0  0  0  0  0  0  0  0  0  0  0  # atno 17371 bound_to 10713
  141.2001  133.6611  156.5880 LP  0  0  0  0  0  0  0  0  0  0  0  0  # atno 17394 bound_to 11000
  140.3667  134.7641  157.4571 LP  0  0  0  0  0  0  0  0  0  0  0  0  # atno 17395 bound_to 11000

$$$$
