AV-unprocessed.smi:3347|AV-procd|sdf|12912|dock6
  -GOLD-   2272019323D 1   1.00000     0.00000
 Structure written by MMmdl.
 40 42  0  0  0  0  0  0  0  0  2 V2000
  146.5264  139.3547  153.7179 O   0  0  0  0  0  0  0  0  0  0  0  0
  147.2674  138.5757  153.1197 C   0  0  0  0  0  0  0  0  0  0  0  0
  146.8263  137.6829  152.2220 N   0  0  0  0  0  0  0  0  0  0  0  0
  145.4370  137.5327  151.8001 C   0  0  0  0  0  0  0  0  0  0  0  0
  144.8998  136.1071  152.0341 C   0  0  1  0  0  0  0  0  0  0  0  0
  143.5166  136.0636  152.6764 C   0  0  0  0  0  0  0  0  0  0  0  0
  143.0486  134.6463  152.3571 C   0  0  0  0  0  0  0  0  0  0  0  0
  143.5878  134.3444  151.0133 N   0  3  2  0  0  0  0  0  0  0  0  0
  143.9138  132.9171  150.8077 C   0  0  0  0  0  0  0  0  0  0  0  0
  145.3830  132.6052  150.9643 C   0  0  0  0  0  0  0  0  0  0  0  0
  144.7623  132.6616  149.5852 C   0  0  0  0  0  0  0  0  0  0  0  0
  144.7206  135.2665  150.7612 C   0  0  0  0  0  0  0  0  0  0  0  0
  148.5990  138.4849  153.2802 N   0  0  0  0  0  0  0  0  0  0  0  0
  149.4519  139.2586  154.1142 C   0  0  0  0  0  0  0  0  0  0  0  0
  149.1257  140.5364  154.6317 C   0  0  0  0  0  0  0  0  0  0  0  0
  150.0700  141.2068  155.4328 C   0  0  0  0  0  0  0  0  0  0  0  0
  151.3068  140.5813  155.6821 C   0  0  0  0  0  0  0  0  0  0  0  0
  151.6360  139.3700  155.1866 N   0  0  0  0  0  0  0  0  0  0  0  0
  150.7260  138.7336  154.4190 C   0  0  0  0  0  0  0  0  0  0  0  0
  147.5048  137.0808  151.7784 H   0  0  0  0  0  0  0  0  0  0  0  0
  144.8143  138.2607  152.3230 H   0  0  0  0  0  0  0  0  0  0  0  0
  145.3795  137.7849  150.7410 H   0  0  0  0  0  0  0  0  0  0  0  0
  145.5825  135.5717  152.6967 H   0  0  0  0  0  0  0  0  0  0  0  0
  143.5389  136.2699  153.7470 H   0  0  0  0  0  0  0  0  0  0  0  0
  142.8533  136.7906  152.2049 H   0  0  0  0  0  0  0  0  0  0  0  0
  143.4673  133.9537  153.0894 H   0  0  0  0  0  0  0  0  0  0  0  0
  141.9632  134.5458  152.3840 H   0  0  0  0  0  0  0  0  0  0  0  0
  143.1596  132.1966  151.1199 H   0  0  0  0  0  0  0  0  0  0  0  0
  146.0545  133.4141  151.2470 H   0  0  0  0  0  0  0  0  0  0  0  0
  145.6495  131.6236  151.3509 H   0  0  0  0  0  0  0  0  0  0  0  0
  144.6197  131.7171  149.0639 H   0  0  0  0  0  0  0  0  0  0  0  0
  145.0215  133.5078  148.9515 H   0  0  0  0  0  0  0  0  0  0  0  0
  144.4533  135.8975  149.9129 H   0  0  0  0  0  0  0  0  0  0  0  0
  145.6405  134.7403  150.5002 H   0  0  0  0  0  0  0  0  0  0  0  0
  149.0573  137.7455  152.7680 H   0  0  0  0  0  0  0  0  0  0  0  0
  148.1852  141.0215  154.4231 H   0  0  0  0  0  0  0  0  0  0  0  0
  149.8523  142.1818  155.8429 H   0  0  0  0  0  0  0  0  0  0  0  0
  152.0533  141.0692  156.2912 H   0  0  0  0  0  0  0  0  0  0  0  0
  151.0259  137.7681  154.0375 H   0  0  0  0  0  0  0  0  0  0  0  0
  142.8687  134.5889  150.3472 H   0  0  0  0  0  0  0  0  0  0  0  0
  1  2  2  0  0  0  0
  2  3  1  0  0  0  0
  2 13  1  0  0  0  0
  3  4  1  0  0  0  0
  3 20  1  0  0  0  0
  4  5  1  0  0  0  0
  4 21  1  0  0  0  0
  4 22  1  0  0  0  0
  5 12  1  0  0  0  0
  5  6  1  0  0  0  0
  5 23  1  0  0  0  0
  6  7  1  0  0  0  0
  6 24  1  0  0  0  0
  6 25  1  0  0  0  0
  7  8  1  0  0  0  0
  7 26  1  0  0  0  0
  7 27  1  0  0  0  0
  8  9  1  0  0  0  0
  8 12  1  0  0  0  0
  8 40  1  0  0  0  0
  9 11  1  0  0  0  0
  9 10  1  0  0  0  0
  9 28  1  0  0  0  0
 10 11  1  0  0  0  0
 10 29  1  0  0  0  0
 10 30  1  0  0  0  0
 11 31  1  0  0  0  0
 11 32  1  0  0  0  0
 12 33  1  0  0  0  0
 12 34  1  0  0  0  0
 13 14  1  0  0  0  0
 13 35  1  0  0  0  0
 14 19  1  0  0  0  0
 14 15  2  0  0  0  0
 15 16  1  0  0  0  0
 15 36  1  0  0  0  0
 16 17  2  0  0  0  0
 16 37  1  0  0  0  0
 17 18  1  0  0  0  0
 17 38  1  0  0  0  0
 18 19  2  0  0  0  0
 19 39  1  0  0  0  0
M  CHG  1   8   1
M  END
> <s_m_source_file>
AV-unprocessed.smi

> <i_m_source_file_index>
3347

> <i_lp_mmshare_version>
43012

> <i_f3d_flags>
0

> <s_epik_input>
W2NIXTFuW2NIXVtjSF1bY0hdYzFbTkhdQyg9TylbTkhdW0NIMl1bQ0BASF0yW0NIMl1bQ0gyXU4oW0NIMl0yKVtDSF0zW0NIMl1bQ0gyXTM=

> <s_epik_cmdline>
J2VwaWtfcHl0aG9uJywgJy1waCcsICc3LjAnLCAnLXRuJywgJzgnLCAnLW1hJywgJzIwMCcsICctbWV0YWxfYmluZGluZycsICctaW1hZScsICc8aW5maWxlLm1hZT4nLCAnLW9tYWUnLCAnPG91dGZpbGUubWFlPic=

> <r_epik_Ionization_Penalty>
0.00442629

> <r_epik_Ionization_Penalty_Charging>
0.000203384

> <r_epik_Ionization_Penalty_Neutral>
0.00422291

> <r_epik_State_Penalty>
0.00301008

> <r_epik_Charging_Adjusted_Penalty>
0.00321347

> <i_epik_Tot_Q>
1

> <i_epik_Tot_abs_Q>
1

> <r_epik_Metal_State_Penalty>
-0

> <b_epik_Metal_Only>
0

> <s_lp_Force_Field>
OPLS_2005

> <r_lp_Energy>
41.3797

> <b_lp_Chiralities_Consistent>
1

> <s_lp_Variant>
AV-unprocessed.smi:3347-2

> <Gold.Version>
5.8.1

> <Gold.Id.Protein>
6NUR|6NUR_protein|mol2

> <Gold.PLP.Fitness>
48.0763

> <Gold.PLP.PLP>
-37.6051

> <Gold.PLP.part.hbond>
-4.2934

> <Gold.PLP.part.metal>
0.0000

> <Gold.PLP.part.buried>
-0.0557

> <Gold.PLP.part.nonpolar>
-33.4523

> <Gold.PLP.part.repulsive>
0.3359

> <Gold.PLP.ligand.clash>
0.0000

> <Gold.PLP.ligand.torsion>
1.3940

> <Gold.PLP.Chemscore.Hbond>
4.0000

> <Gold.PLP.Chemscore.CHOScore>
0.0000

> <Gold.PLP.Chemscore.Metal>
0.0000

> <Gold.Chemscore.Hbonds>
donor molecule, donor type, donor heavy atom, donor atom, acceptor molecule, acceptor atom, score
      L1  H     3    20       P1  7948  1.00
      L1  H     8    40       P1 10186  2.00
      L1  H    13    35       P1  7948  1.00

> <Gold.PLP.Chemscore.Internal.Correction>
1.2592

> <Gold.Rescore>
     Score         DG    S(hbond)    S(metal)    S(lipo)     H(rot)  DE(clash)    DE(int)     intcor
     17.22     -20.95       2.64        0.00      87.81       1.42       1.35       2.38       ----

> <Gold.Chemscore.Fitness>
17.2159

> <Gold.Chemscore.DG>
-20.9451

> <Gold.Chemscore.ZeroCoef>
-5.4800

> <Gold.Chemscore.Hbond>
2.6442

> <Gold.Chemscore.Metal>
0.0000

> <Gold.Chemscore.Lipo>
87.8074

> <Gold.Chemscore.Internal_Hbond>
0.0000

> <Gold.Chemscore.DEClash>
1.3450

> <Gold.Chemscore.DEInternal>
2.3842

> <Gold.Chemscore.Rot>
1.4219

> <Gold.Chemscore.Internal.Correction>
   9.000000E+99

> <Gold.Chemscore.Hbonds>
donor molecule, donor type, donor heavy atom, donor atom, acceptor molecule, acceptor atom, score
      L1  H     3    20       P1  7948  0.95
      L1  H     8    40       P1 10186  0.51
      L1  H    13    35       P1  7948  0.95

> <Gold.Chemscore.Hbond.Weighted>
-8.8317

> <Gold.Chemscore.Metal.Weighted>
-0.0000

> <Gold.Chemscore.Lipo.Weighted>
-10.2735

> <Gold.Chemscore.Internal_Hbond.Weighted>
0.0000

> <Gold.Chemscore.DEClash.Weighted>
1.3450

> <Gold.Chemscore.DEInternal.Weighted>
2.3842

> <Gold.Chemscore.Rot.Weighted>
3.6401

> <Gold.Chemscore.Internal.Correction.Weighted>
   9.000000E+99

> <Gold.Protein.RotatedTorsions>
[ 6907 6896 6895 6894 ] final  -19.64 input  -60.11 | X-H torsion
[ 7974 7965 7964 7962 ] final  147.28 input  175.53 | X-H torsion
[ 8008 7997 7996 7995 ] final  -97.45 input   59.86 | X-H torsion
[ 10167 10162 10161 10158 ] final   80.63 input  -65.29 | X-H torsion
[ 10718 10713 10712 10709 ] final   -5.98 input   66.30 | X-H torsion
[ 10763 10752 10751 10750 ] final  129.81 input  -60.55 | X-H torsion
[ 11005 11000 10999 10996 ] final   -0.01 input  -57.11 | X-H torsion

> <Gold.Protein.ActiveResidues>
 VAL166  LYS551  ARG553  GLY616  TRP617  ASP618  TYR619  PRO620  LYS621  CYS622 
 ASP623  PHE694  ASN695  SER759  ASP760  ASP761  ALA762  ILE779  LEU786  VAL792 
 PHE793  MET794  SER795  GLU796  ALA797  LYS798  CYS799  TRP800  GLU811  SER814 

> <Gold.Protein.RotatedAtoms>
  151.2600  135.0651  159.9094 H   0  0  0  0  0  0  0  0  0  0  0  0  # atno 6907 bound_to 6896
  152.5367  134.0241  159.8005 H   0  0  0  0  0  0  0  0  0  0  0  0  # atno 6908 bound_to 6896
  151.0462  133.5613  159.2677 H   0  0  0  0  0  0  0  0  0  0  0  0  # atno 6909 bound_to 6896
  144.8604  139.6009  143.5933 H   0  0  0  0  0  0  0  0  0  0  0  0  # atno 7974 bound_to 7965
  154.7880  140.0463  157.1179 H   0  0  0  0  0  0  0  0  0  0  0  0  # atno 8008 bound_to 7997
  154.9625  140.3079  155.5004 H   0  0  0  0  0  0  0  0  0  0  0  0  # atno 8009 bound_to 7997
  156.2946  140.2268  156.4712 H   0  0  0  0  0  0  0  0  0  0  0  0  # atno 8010 bound_to 7997
  139.9478  144.6047  150.8190 H   0  0  0  0  0  0  0  0  0  0  0  0  # atno 10167 bound_to 10162
  156.7386  130.5202  149.5829 H   0  0  0  0  0  0  0  0  0  0  0  0  # atno 10718 bound_to 10713
  153.7478  135.3214  155.3316 H   0  0  0  0  0  0  0  0  0  0  0  0  # atno 10763 bound_to 10752
  154.8273  135.4560  154.0962 H   0  0  0  0  0  0  0  0  0  0  0  0  # atno 10764 bound_to 10752
  153.2156  135.6941  153.8144 H   0  0  0  0  0  0  0  0  0  0  0  0  # atno 10765 bound_to 10752
  140.6315  133.9570  155.8277 H   0  0  0  0  0  0  0  0  0  0  0  0  # atno 11005 bound_to 11000
  146.2856  139.6994  142.9198 LP  0  0  0  0  0  0  0  0  0  0  0  0  # atno 17320 bound_to 7965
  145.4324  141.0416  143.2903 LP  0  0  0  0  0  0  0  0  0  0  0  0  # atno 17321 bound_to 7965
  140.7592  143.3123  151.2814 LP  0  0  0  0  0  0  0  0  0  0  0  0  # atno 17342 bound_to 10162
  139.6653  144.0117  152.2719 LP  0  0  0  0  0  0  0  0  0  0  0  0  # atno 17343 bound_to 10162
  156.1480  130.6290  151.0557 LP  0  0  0  0  0  0  0  0  0  0  0  0  # atno 17370 bound_to 10713
  157.6828  131.0833  150.7323 LP  0  0  0  0  0  0  0  0  0  0  0  0  # atno 17371 bound_to 10713
  141.0671  134.0260  157.3578 LP  0  0  0  0  0  0  0  0  0  0  0  0  # atno 17394 bound_to 11000
  139.9114  135.0190  156.7707 LP  0  0  0  0  0  0  0  0  0  0  0  0  # atno 17395 bound_to 11000

$$$$
