AV-unprocessed.smi:131|AV-procd|sdf|1162|dock2
  -GOLD-   2262018303D 1   1.00000     0.00000
 Structure written by MMmdl.
 55 58  0  0  0  0  0  0  0  0  1 V2000
  152.7603  135.9930  157.3769 O   0  0  0  0  0  0  0  0  0  0  0  0
  152.2930  136.8152  156.5902 C   0  0  0  0  0  0  0  0  0  0  0  0
  152.9980  138.1775  156.4544 C   0  0  0  0  0  0  0  0  0  0  0  0
  152.1196  139.3621  156.5975 N   0  0  0  0  0  0  0  0  0  0  0  0
  151.1304  139.5980  155.6107 C   0  0  0  0  0  0  0  0  0  0  0  0
  150.9893  138.8354  154.6539 O   0  0  0  0  0  0  0  0  0  0  0  0
  150.3024  140.7807  155.8185 C   0  0  0  0  0  0  0  0  0  0  0  0
  149.3369  141.0805  154.9335 F   0  0  0  0  0  0  0  0  0  0  0  0
  150.4867  141.5791  156.8901 C   0  0  0  0  0  0  0  0  0  0  0  0
  151.4568  141.3367  157.8468 N   0  0  0  0  0  0  0  0  0  0  0  0
  151.6418  142.2355  159.0526 C   0  0  1  0  0  0  0  0  0  0  0  0
  152.9687  143.0135  158.9535 C   0  0  0  0  0  0  0  0  0  0  0  0
  152.5329  144.4514  159.1563 C   0  0  0  0  0  0  0  0  0  0  0  0
  151.1100  144.4293  158.6196 C   0  0  0  0  0  0  0  0  0  0  0  0
  150.6160  143.1861  159.0998 O   0  0  0  0  0  0  0  0  0  0  0  0
  152.2904  140.2040  157.7222 C   0  0  0  0  0  0  0  0  0  0  0  0
  153.1412  139.9539  158.5786 O   0  0  0  0  0  0  0  0  0  0  0  0
  151.1843  136.6061  155.8524 N   0  0  0  0  0  0  0  0  0  0  0  0
  150.3659  135.4475  155.7903 C   0  0  0  0  0  0  0  0  0  0  0  0
  151.0137  134.1951  155.8526 C   0  0  0  0  0  0  0  0  0  0  0  0
  150.2677  133.0013  155.8131 C   0  0  0  0  0  0  0  0  0  0  0  0
  148.8635  133.0624  155.7270 C   0  0  0  0  0  0  0  0  0  0  0  0
  147.9041  131.5554  155.6556 S   0  0  0  0  0  0  0  0  0  0  0  0
  148.6866  130.4456  156.2225 O   0  0  0  0  0  0  0  0  0  0  0  0
  146.5619  131.8594  156.1761 O   0  0  0  0  0  0  0  0  0  0  0  0
  147.7535  131.2846  153.9522 N   0  0  0  0  0  0  0  0  0  0  0  0
  147.3985  132.4069  153.0747 C   0  0  0  0  0  0  0  0  0  0  0  0
  146.3114  131.8711  152.1416 C   0  0  0  0  0  0  0  0  0  0  0  0
  146.6118  130.3804  152.0668 C   0  0  0  0  0  0  0  0  0  0  0  0
  147.1116  130.0542  153.4736 C   0  0  0  0  0  0  0  0  0  0  0  0
  148.2026  134.3049  155.6813 C   0  0  0  0  0  0  0  0  0  0  0  0
  148.9519  135.4965  155.7188 C   0  0  0  0  0  0  0  0  0  0  0  0
  153.8100  138.2098  157.1824 H   0  0  0  0  0  0  0  0  0  0  0  0
  153.5151  138.1937  155.4937 H   0  0  0  0  0  0  0  0  0  0  0  0
  149.8361  142.4348  156.9863 H   0  0  0  0  0  0  0  0  0  0  0  0
  151.5714  141.5791  159.9219 H   0  0  0  0  0  0  0  0  0  0  0  0
  153.6794  142.6709  159.7062 H   0  0  0  0  0  0  0  0  0  0  0  0
  153.4108  142.8860  157.9640 H   0  0  0  0  0  0  0  0  0  0  0  0
  152.5273  144.6964  160.2192 H   0  0  0  0  0  0  0  0  0  0  0  0
  153.1726  145.1691  158.6420 H   0  0  0  0  0  0  0  0  0  0  0  0
  150.5093  145.2657  158.9776 H   0  0  0  0  0  0  0  0  0  0  0  0
  151.1059  144.4424  157.5287 H   0  0  0  0  0  0  0  0  0  0  0  0
  150.8516  137.4003  155.3251 H   0  0  0  0  0  0  0  0  0  0  0  0
  152.0907  134.1451  155.9232 H   0  0  0  0  0  0  0  0  0  0  0  0
  150.7757  132.0491  155.8516 H   0  0  0  0  0  0  0  0  0  0  0  0
  147.0474  133.2654  153.6485 H   0  0  0  0  0  0  0  0  0  0  0  0
  148.2840  132.7090  152.5147 H   0  0  0  0  0  0  0  0  0  0  0  0
  145.3290  132.0276  152.5894 H   0  0  0  0  0  0  0  0  0  0  0  0
  146.3169  132.3546  151.1641 H   0  0  0  0  0  0  0  0  0  0  0  0
  145.7441  129.7867  151.7777 H   0  0  0  0  0  0  0  0  0  0  0  0
  147.4038  130.1979  151.3393 H   0  0  0  0  0  0  0  0  0  0  0  0
  147.8118  129.2186  153.4873 H   0  0  0  0  0  0  0  0  0  0  0  0
  146.2704  129.8066  154.1218 H   0  0  0  0  0  0  0  0  0  0  0  0
  147.1247  134.3462  155.6225 H   0  0  0  0  0  0  0  0  0  0  0  0
  148.4215  136.4361  155.7054 H   0  0  0  0  0  0  0  0  0  0  0  0
  1  2  2  0  0  0  0
  2  3  1  0  0  0  0
  2 18  1  0  0  0  0
  3  4  1  0  0  0  0
  3 33  1  0  0  0  0
  3 34  1  0  0  0  0
  4 16  1  0  0  0  0
  4  5  1  0  0  0  0
  5  6  2  0  0  0  0
  5  7  1  0  0  0  0
  7  8  1  0  0  0  0
  7  9  2  0  0  0  0
  9 10  1  0  0  0  0
  9 35  1  0  0  0  0
 10 11  1  0  0  0  0
 10 16  1  0  0  0  0
 11 15  1  0  0  0  0
 11 12  1  0  0  0  0
 11 36  1  0  0  0  0
 12 13  1  0  0  0  0
 12 37  1  0  0  0  0
 12 38  1  0  0  0  0
 13 14  1  0  0  0  0
 13 39  1  0  0  0  0
 13 40  1  0  0  0  0
 14 15  1  0  0  0  0
 14 41  1  0  0  0  0
 14 42  1  0  0  0  0
 16 17  2  0  0  0  0
 18 19  1  0  0  0  0
 18 43  1  0  0  0  0
 19 32  1  0  0  0  0
 19 20  2  0  0  0  0
 20 21  1  0  0  0  0
 20 44  1  0  0  0  0
 21 22  2  0  0  0  0
 21 45  1  0  0  0  0
 22 23  1  0  0  0  0
 22 31  1  0  0  0  0
 23 24  2  0  0  0  0
 23 25  2  0  0  0  0
 23 26  1  0  0  0  0
 26 30  1  0  0  0  0
 26 27  1  0  0  0  0
 27 28  1  0  0  0  0
 27 46  1  0  0  0  0
 27 47  1  0  0  0  0
 28 29  1  0  0  0  0
 28 48  1  0  0  0  0
 28 49  1  0  0  0  0
 29 30  1  0  0  0  0
 29 50  1  0  0  0  0
 29 51  1  0  0  0  0
 30 52  1  0  0  0  0
 30 53  1  0  0  0  0
 31 32  2  0  0  0  0
 31 54  1  0  0  0  0
 32 55  1  0  0  0  0
M  END
> <s_m_source_file>
AV-unprocessed.smi

> <i_m_source_file_index>
131

> <i_lp_mmshare_version>
43012

> <i_f3d_flags>
0

> <s_epik_input>
W0NIMl0xW0NIMl1bQ0gyXVtDSDJdTjFTKD1PKSg9TyljKFtjSF1bY0hdMilbY0hdW2NIXWMyW05IXUMoPU8pW0NIMl1uM2MoPU8pYyhGKVtjSF1uKGMzPU8pW0NAQEhdNFtDSDJdW0NIMl1bQ0gyXU80

> <s_epik_cmdline>
J2VwaWtfcHl0aG9uJywgJy1waCcsICc3LjAnLCAnLXRuJywgJzgnLCAnLW1hJywgJzIwMCcsICctbWV0YWxfYmluZGluZycsICctaW1hZScsICc8aW5maWxlLm1hZT4nLCAnLW9tYWUnLCAnPG91dGZpbGUubWFlPic=

> <r_lp_tautomer_probability>
1

> <r_epik_Ionization_Penalty>
1.92533e-06

> <r_epik_Ionization_Penalty_Charging>
3.88729e-08

> <r_epik_Ionization_Penalty_Neutral>
1.88646e-06

> <r_epik_State_Penalty>
-0

> <r_epik_Charging_Adjusted_Penalty>
3.88729e-08

> <i_epik_Tot_Q>
0

> <i_epik_Tot_abs_Q>
0

> <r_epik_Metal_State_Penalty>
-0

> <b_epik_Metal_Only>
0

> <s_epik_Chemistry_Notes>
This compound contains an acetal/aminal-like group ( X-CH(R)-Y where X, Y are N, S, or O) that may be acid/base labile, releasing an aldehyde.

> <s_lp_Force_Field>
OPLS_2005

> <r_lp_Energy>
42.789

> <b_lp_Chiralities_Consistent>
1

> <s_lp_Variant>
AV-unprocessed.smi:131-2

> <Gold.Version>
5.8.1

> <Gold.Id.Protein>
6NUR|6NUR_protein|mol2

> <Gold.PLP.Fitness>
60.5705

> <Gold.PLP.PLP>
-52.0503

> <Gold.PLP.part.hbond>
-3.0114

> <Gold.PLP.part.metal>
0.0000

> <Gold.PLP.part.buried>
-3.8952

> <Gold.PLP.part.nonpolar>
-45.4874

> <Gold.PLP.part.repulsive>
0.5720

> <Gold.PLP.ligand.clash>
0.0000

> <Gold.PLP.ligand.torsion>
1.8877

> <Gold.PLP.Chemscore.Hbond>
2.2000

> <Gold.PLP.Chemscore.CHOScore>
1.0000

> <Gold.PLP.Chemscore.Metal>
0.0000

> <Gold.Chemscore.Hbonds>
donor molecule, donor type, donor heavy atom, donor atom, acceptor molecule, acceptor atom, score
      P1  H  7997  8008       L1    17  0.27
      L1  C     9    35       P1  8028  0.31

> <Gold.PLP.Chemscore.Internal.Correction>
2.6956

> <Gold.Rescore>
     Score         DG    S(hbond)    S(metal)    S(lipo)     H(rot)  DE(clash)    DE(int)     intcor
     13.66     -19.94       1.83        0.00     113.26       1.92       2.40       3.89       ----

> <Gold.Chemscore.Fitness>
13.6607

> <Gold.Chemscore.DG>
-19.9440

> <Gold.Chemscore.ZeroCoef>
-5.4800

> <Gold.Chemscore.Hbond>
1.8321

> <Gold.Chemscore.Metal>
0.0000

> <Gold.Chemscore.Lipo>
113.2587

> <Gold.Chemscore.Internal_Hbond>
0.0000

> <Gold.Chemscore.DEClash>
2.3966

> <Gold.Chemscore.DEInternal>
3.8867

> <Gold.Chemscore.Rot>
1.9166

> <Gold.Chemscore.Internal.Correction>
   9.000000E+99

> <Gold.Chemscore.Hbonds>
donor molecule, donor type, donor heavy atom, donor atom, acceptor molecule, acceptor atom, score
      P1  H  7997  8008       L1    17  0.01

> <Gold.Chemscore.Hbond.Weighted>
-6.1191

> <Gold.Chemscore.Metal.Weighted>
-0.0000

> <Gold.Chemscore.Lipo.Weighted>
-13.2513

> <Gold.Chemscore.Internal_Hbond.Weighted>
0.0000

> <Gold.Chemscore.DEClash.Weighted>
2.3966

> <Gold.Chemscore.DEInternal.Weighted>
3.8867

> <Gold.Chemscore.Rot.Weighted>
4.9064

> <Gold.Chemscore.Internal.Correction.Weighted>
   9.000000E+99

> <Gold.Protein.RotatedTorsions>
[ 6907 6896 6895 6894 ] final   42.58 input  -60.11 | X-H torsion
[ 7974 7965 7964 7962 ] final  -74.26 input  175.53 | X-H torsion
[ 8008 7997 7996 7995 ] final  -84.84 input   59.86 | X-H torsion
[ 10167 10162 10161 10158 ] final   96.63 input  -65.29 | X-H torsion
[ 10718 10713 10712 10709 ] final  164.49 input   66.30 | X-H torsion
[ 10763 10752 10751 10750 ] final -128.73 input  -60.55 | X-H torsion
[ 11005 11000 10999 10996 ] final -177.79 input  -57.11 | X-H torsion

> <Gold.Protein.ActiveResidues>
 VAL166  LYS551  ARG553  GLY616  TRP617  ASP618  TYR619  PRO620  LYS621  CYS622 
 ASP623  PHE694  ASN695  SER759  ASP760  ASP761  ALA762  ILE779  LEU786  VAL792 
 PHE793  MET794  SER795  GLU796  ALA797  LYS798  CYS799  TRP800  GLU811  SER814 

> <Gold.Protein.RotatedAtoms>
  152.2096  134.8513  160.0498 H   0  0  0  0  0  0  0  0  0  0  0  0  # atno 6907 bound_to 6896
  151.9336  133.3613  159.3948 H   0  0  0  0  0  0  0  0  0  0  0  0  # atno 6908 bound_to 6896
  150.6973  134.4436  159.5347 H   0  0  0  0  0  0  0  0  0  0  0  0  # atno 6909 bound_to 6896
  145.6415  140.9309  143.1033 H   0  0  0  0  0  0  0  0  0  0  0  0  # atno 7974 bound_to 7965
  154.6342  140.0599  156.9769 H   0  0  0  0  0  0  0  0  0  0  0  0  # atno 8008 bound_to 7997
  155.1617  140.3283  155.4391 H   0  0  0  0  0  0  0  0  0  0  0  0  # atno 8009 bound_to 7997
  156.2498  140.1929  156.6724 H   0  0  0  0  0  0  0  0  0  0  0  0  # atno 8010 bound_to 7997
  139.7876  144.6864  150.9936 H   0  0  0  0  0  0  0  0  0  0  0  0  # atno 10167 bound_to 10162
  157.0936  131.0424  151.2527 H   0  0  0  0  0  0  0  0  0  0  0  0  # atno 10718 bound_to 10713
  154.8757  135.3919  154.3805 H   0  0  0  0  0  0  0  0  0  0  0  0  # atno 10763 bound_to 10752
  153.4553  135.7028  153.6089 H   0  0  0  0  0  0  0  0  0  0  0  0  # atno 10764 bound_to 10752
  153.4611  135.3812  155.2307 H   0  0  0  0  0  0  0  0  0  0  0  0  # atno 10765 bound_to 10752
  140.4370  134.6466  157.4739 H   0  0  0  0  0  0  0  0  0  0  0  0  # atno 11005 bound_to 11000
  144.7156  139.8210  143.7400 LP  0  0  0  0  0  0  0  0  0  0  0  0  # atno 17320 bound_to 7965
  146.1277  139.4306  143.0188 LP  0  0  0  0  0  0  0  0  0  0  0  0  # atno 17321 bound_to 7965
  140.7820  143.4415  151.0545 LP  0  0  0  0  0  0  0  0  0  0  0  0  # atno 17342 bound_to 10162
  139.8093  143.7974  152.3170 LP  0  0  0  0  0  0  0  0  0  0  0  0  # atno 17343 bound_to 10162
  157.4700  130.7703  149.7314 LP  0  0  0  0  0  0  0  0  0  0  0  0  # atno 17370 bound_to 10713
  155.9891  130.3954  150.3086 LP  0  0  0  0  0  0  0  0  0  0  0  0  # atno 17371 bound_to 10713
  140.0095  134.6712  155.9402 LP  0  0  0  0  0  0  0  0  0  0  0  0  # atno 17394 bound_to 11000
  141.1721  133.6538  156.4692 LP  0  0  0  0  0  0  0  0  0  0  0  0  # atno 17395 bound_to 11000

$$$$
