AV-unprocessed.smi:2981|AV-procd|sdf|11375|dock10
  -GOLD-   2272016293D 1   1.00000     0.00000
 Structure written by MMmdl.
 31 32  0  0  0  0  0  0  0  0  1 V2000
  150.3239  141.6360  158.1272 O   0  0  0  0  0  0  0  0  0  0  0  0
  150.7791  142.5478  157.4351 C   0  0  0  0  0  0  0  0  0  0  0  0
  151.5561  143.7066  158.0765 C   0  0  0  0  0  0  0  0  0  0  0  0
  152.0466  143.3966  159.4277 N   0  0  0  0  0  0  0  0  0  0  0  0
  151.7912  144.3851  160.3621 N   0  0  0  0  0  0  0  0  0  0  0  0
  152.1603  144.2128  161.5844 C   0  0  0  0  0  0  0  0  0  0  0  0
  152.8429  143.0152  162.0219 C   0  0  0  0  0  0  0  0  0  0  0  0
  153.3137  142.8404  163.6757 Cl  0  0  0  0  0  0  0  0  0  0  0  0
  153.0944  142.0552  161.0966 C   0  0  0  0  0  0  0  0  0  0  0  0
  153.9081  140.5949  161.5435 Cl  0  0  0  0  0  0  0  0  0  0  0  0
  152.6886  142.2173  159.6935 C   0  0  0  0  0  0  0  0  0  0  0  0
  152.9005  141.3716  158.8233 O   0  0  0  0  0  0  0  0  0  0  0  0
  150.6222  142.6076  156.1042 N   0  0  0  0  0  0  0  0  0  0  0  0
  149.9263  141.6101  155.2981 C   0  0  1  0  0  0  0  0  0  0  0  0
  150.6060  140.2327  155.4073 C   0  0  0  0  0  0  0  0  0  0  0  0
  149.6534  139.1692  154.8473 C   0  0  0  0  0  0  0  0  0  0  0  0
  147.9571  139.7776  155.1839 S   0  0  0  0  0  0  0  0  0  0  0  0
  147.2268  139.8796  153.9113 O   0  0  0  0  0  0  0  0  0  0  0  0
  147.3888  139.0472  156.3269 O   0  0  0  0  0  0  0  0  0  0  0  0
  148.4611  141.4504  155.7344 C   0  0  0  0  0  0  0  0  0  0  0  0
  152.3928  143.9894  157.4345 H   0  0  0  0  0  0  0  0  0  0  0  0
  150.8997  144.5784  158.1019 H   0  0  0  0  0  0  0  0  0  0  0  0
  151.9776  144.9618  162.3552 H   0  0  0  0  0  0  0  0  0  0  0  0
  151.0214  143.3947  155.6136 H   0  0  0  0  0  0  0  0  0  0  0  0
  149.9474  141.9092  154.2483 H   0  0  0  0  0  0  0  0  0  0  0  0
  151.5700  140.2137  154.8978 H   0  0  0  0  0  0  0  0  0  0  0  0
  150.7971  140.0089  156.4580 H   0  0  0  0  0  0  0  0  0  0  0  0
  149.7685  139.0782  153.7669 H   0  0  0  0  0  0  0  0  0  0  0  0
  149.7990  138.1868  155.2970 H   0  0  0  0  0  0  0  0  0  0  0  0
  148.3648  141.4861  156.8202 H   0  0  0  0  0  0  0  0  0  0  0  0
  147.8017  142.2035  155.3021 H   0  0  0  0  0  0  0  0  0  0  0  0
  1  2  2  0  0  0  0
  2  3  1  0  0  0  0
  2 13  1  0  0  0  0
  3  4  1  0  0  0  0
  3 21  1  0  0  0  0
  3 22  1  0  0  0  0
  4 11  1  0  0  0  0
  4  5  1  0  0  0  0
  5  6  2  0  0  0  0
  6  7  1  0  0  0  0
  6 23  1  0  0  0  0
  7  8  1  0  0  0  0
  7  9  2  0  0  0  0
  9 10  1  0  0  0  0
  9 11  1  0  0  0  0
 11 12  2  0  0  0  0
 13 14  1  0  0  0  0
 13 24  1  0  0  0  0
 14 20  1  0  0  0  0
 14 15  1  0  0  0  0
 14 25  1  0  0  0  0
 15 16  1  0  0  0  0
 15 26  1  0  0  0  0
 15 27  1  0  0  0  0
 16 17  1  0  0  0  0
 16 28  1  0  0  0  0
 16 29  1  0  0  0  0
 17 18  2  0  0  0  0
 17 19  2  0  0  0  0
 17 20  1  0  0  0  0
 20 30  1  0  0  0  0
 20 31  1  0  0  0  0
M  END
> <s_m_source_file>
AV-unprocessed.smi

> <i_m_source_file_index>
2981

> <i_lp_mmshare_version>
43012

> <i_f3d_flags>
0

> <s_epik_input>
Tz1TMSg9TylbQ0gyXVtDSDJdW0NASF0oW0NIMl0xKVtOSF1DKD1PKVtDSDJdbjJuW2NIXWMoQ2wpYyhDbCljMj1P

> <s_epik_cmdline>
J2VwaWtfcHl0aG9uJywgJy1waCcsICc3LjAnLCAnLXRuJywgJzgnLCAnLW1hJywgJzIwMCcsICctbWV0YWxfYmluZGluZycsICctaW1hZScsICc8aW5maWxlLm1hZT4nLCAnLW9tYWUnLCAnPG91dGZpbGUubWFlPic=

> <r_lp_tautomer_probability>
1

> <r_epik_Ionization_Penalty>
1.07216e-07

> <r_epik_Ionization_Penalty_Charging>
2.33395e-11

> <r_epik_Ionization_Penalty_Neutral>
1.07193e-07

> <r_epik_State_Penalty>
-0

> <r_epik_Charging_Adjusted_Penalty>
2.33395e-11

> <i_epik_Tot_Q>
0

> <i_epik_Tot_abs_Q>
0

> <r_epik_Metal_State_Penalty>
-0

> <b_epik_Metal_Only>
0

> <s_lp_Force_Field>
OPLS_2005

> <r_lp_Energy>
17.277

> <b_lp_Chiralities_Consistent>
1

> <s_lp_Variant>
AV-unprocessed.smi:2981-2

> <Gold.Version>
5.8.1

> <Gold.Id.Protein>
6NUR|6NUR_protein|mol2

> <Gold.PLP.Fitness>
40.6087

> <Gold.PLP.PLP>
-41.3868

> <Gold.PLP.part.hbond>
-1.0000

> <Gold.PLP.part.metal>
0.0000

> <Gold.PLP.part.buried>
-2.1569

> <Gold.PLP.part.nonpolar>
-37.8001

> <Gold.PLP.part.repulsive>
0.4065

> <Gold.PLP.ligand.clash>
0.0000

> <Gold.PLP.ligand.torsion>
0.3896

> <Gold.PLP.Chemscore.Hbond>
0.0000

> <Gold.PLP.Chemscore.CHOScore>
0.0000

> <Gold.PLP.Chemscore.Metal>
0.0000

> <Gold.PLP.Chemscore.Internal.Correction>
0.0010

> <Gold.Rescore>
     Score         DG    S(hbond)    S(metal)    S(lipo)     H(rot)  DE(clash)    DE(int)     intcor
      6.76     -11.90       0.00        0.00      92.19       1.70       0.06       5.08       ----

> <Gold.Chemscore.Fitness>
6.7650

> <Gold.Chemscore.DG>
-11.9022

> <Gold.Chemscore.ZeroCoef>
-5.4800

> <Gold.Chemscore.Hbond>
0.0001

> <Gold.Chemscore.Metal>
0.0000

> <Gold.Chemscore.Lipo>
92.1936

> <Gold.Chemscore.Internal_Hbond>
0.0000

> <Gold.Chemscore.DEClash>
0.0602

> <Gold.Chemscore.DEInternal>
5.0771

> <Gold.Chemscore.Rot>
1.7049

> <Gold.Chemscore.Internal.Correction>
   9.000000E+99

> <Gold.Chemscore.Hbond.Weighted>
-0.0002

> <Gold.Chemscore.Metal.Weighted>
-0.0000

> <Gold.Chemscore.Lipo.Weighted>
-10.7867

> <Gold.Chemscore.Internal_Hbond.Weighted>
0.0000

> <Gold.Chemscore.DEClash.Weighted>
0.0602

> <Gold.Chemscore.DEInternal.Weighted>
5.0771

> <Gold.Chemscore.Rot.Weighted>
4.3646

> <Gold.Chemscore.Internal.Correction.Weighted>
   9.000000E+99

> <Gold.Protein.RotatedTorsions>
[ 6907 6896 6895 6894 ] final  -94.46 input  -60.11 | X-H torsion
[ 7974 7965 7964 7962 ] final  126.78 input  175.53 | X-H torsion
[ 8008 7997 7996 7995 ] final  -97.41 input   59.86 | X-H torsion
[ 10167 10162 10161 10158 ] final  -43.77 input  -65.29 | X-H torsion
[ 10718 10713 10712 10709 ] final -140.69 input   66.30 | X-H torsion
[ 10763 10752 10751 10750 ] final   47.18 input  -60.55 | X-H torsion
[ 11005 11000 10999 10996 ] final -121.34 input  -57.11 | X-H torsion

> <Gold.Protein.ActiveResidues>
 VAL166  LYS551  ARG553  GLY616  TRP617  ASP618  TYR619  PRO620  LYS621  CYS622 
 ASP623  PHE694  ASN695  SER759  ASP760  ASP761  ALA762  ILE779  LEU786  VAL792 
 PHE793  MET794  SER795  GLU796  ALA797  LYS798  CYS799  TRP800  GLU811  SER814 

> <Gold.Protein.RotatedAtoms>
  150.6942  134.1808  159.4247 H   0  0  0  0  0  0  0  0  0  0  0  0  # atno 6907 bound_to 6896
  151.9783  135.0039  160.0565 H   0  0  0  0  0  0  0  0  0  0  0  0  # atno 6908 bound_to 6896
  152.1779  133.4652  159.4979 H   0  0  0  0  0  0  0  0  0  0  0  0  # atno 6909 bound_to 6896
  145.0579  139.3829  143.5020 H   0  0  0  0  0  0  0  0  0  0  0  0  # atno 7974 bound_to 7965
  154.7874  140.0463  157.1174 H   0  0  0  0  0  0  0  0  0  0  0  0  # atno 8008 bound_to 7997
  154.9632  140.3080  155.5001 H   0  0  0  0  0  0  0  0  0  0  0  0  # atno 8009 bound_to 7997
  156.2945  140.2267  156.4719 H   0  0  0  0  0  0  0  0  0  0  0  0  # atno 8010 bound_to 7997
  140.6922  143.2965  151.3400 H   0  0  0  0  0  0  0  0  0  0  0  0  # atno 10167 bound_to 10162
  156.3253  130.7556  151.1663 H   0  0  0  0  0  0  0  0  0  0  0  0  # atno 10718 bound_to 10713
  152.9802  135.5984  154.3720 H   0  0  0  0  0  0  0  0  0  0  0  0  # atno 10763 bound_to 10752
  154.3393  135.2768  155.2433 H   0  0  0  0  0  0  0  0  0  0  0  0  # atno 10764 bound_to 10752
  154.4522  135.5987  153.6254 H   0  0  0  0  0  0  0  0  0  0  0  0  # atno 10765 bound_to 10752
  141.0077  134.0310  157.3455 H   0  0  0  0  0  0  0  0  0  0  0  0  # atno 11005 bound_to 11000
  146.3522  140.0263  142.8654 LP  0  0  0  0  0  0  0  0  0  0  0  0  # atno 17320 bound_to 7965
  145.1445  140.9589  143.4469 LP  0  0  0  0  0  0  0  0  0  0  0  0  # atno 17321 bound_to 7965
  139.6336  144.0673  152.2497 LP  0  0  0  0  0  0  0  0  0  0  0  0  # atno 17342 bound_to 10162
  140.0156  144.6191  150.7610 LP  0  0  0  0  0  0  0  0  0  0  0  0  # atno 17343 bound_to 10162
  157.7420  131.0496  150.5057 LP  0  0  0  0  0  0  0  0  0  0  0  0  # atno 17370 bound_to 10713
  156.5215  130.4163  149.6248 LP  0  0  0  0  0  0  0  0  0  0  0  0  # atno 17371 bound_to 10713
  139.9072  135.0182  156.7539 LP  0  0  0  0  0  0  0  0  0  0  0  0  # atno 17394 bound_to 11000
  140.6785  133.9496  155.7897 LP  0  0  0  0  0  0  0  0  0  0  0  0  # atno 17395 bound_to 11000

$$$$
