AV-unprocessed.smi:261|AV-procd|sdf|1989|dock1
  -GOLD-   2262021173D 1   1.00000     0.00000
 Structure written by MMmdl.
 51 54  0  0  0  0  0  0  0  0  1 V2000
  152.1084  145.1335  159.1401 C   0  0  0  0  0  0  0  0  0  0  0  0
  151.7401  144.0719  158.2751 O   0  0  0  0  0  0  0  0  0  0  0  0
  152.4617  142.8717  158.5115 C   0  0  1  0  0  0  0  0  0  0  0  0
  152.5216  142.4803  159.9909 C   0  0  0  0  0  0  0  0  0  0  0  0
  152.7320  140.9564  159.9758 C   0  0  2  0  0  0  0  0  0  0  0  0
  154.2280  140.5923  159.9788 C   0  0  0  0  0  0  0  0  0  0  0  0
  154.9566  141.0617  160.9943 N   0  0  0  0  0  0  0  0  0  0  0  0
  154.7228  139.9120  159.0810 O   0  0  0  0  0  0  0  0  0  0  0  0
  152.0664  140.5387  158.7414 N   0  0  0  0  0  0  0  0  0  0  0  0
  151.6047  139.2829  158.4841 C   0  0  0  0  0  0  0  0  0  0  0  0
  151.1588  138.5458  159.5362 N   0  0  0  0  0  0  0  0  0  0  0  0
  150.6926  137.3075  159.3577 C   0  0  0  0  0  0  0  0  0  0  0  0
  150.5816  136.6152  158.2246 N   0  0  0  0  0  0  0  0  0  0  0  0
  151.0242  137.3411  157.1593 C   0  0  0  0  0  0  0  0  0  0  0  0
  151.5469  138.6681  157.1949 C   0  0  0  0  0  0  0  0  0  0  0  0
  151.8890  139.0593  155.9036 N   0  0  0  0  0  0  0  0  0  0  0  0
  151.5865  138.0344  155.1565 C   0  0  0  0  0  0  0  0  0  0  0  0
  151.0655  136.9565  155.8308 N   0  0  0  0  0  0  0  0  0  0  0  0
  150.6494  135.6909  155.2512 C   0  0  0  0  0  0  0  0  0  0  0  0
  149.1292  135.4613  155.3647 C   0  0  1  0  0  0  0  0  0  0  0  0
  148.4466  136.3886  154.5409 O   0  0  0  0  0  0  0  0  0  0  0  0
  148.7324  134.0199  154.9848 C   0  0  2  0  0  0  0  0  0  0  0  0
  149.2894  133.4739  153.6568 C   0  0  0  0  0  0  0  0  0  0  0  0
  148.0451  133.0894  152.8757 C   0  0  0  0  0  0  0  0  0  0  0  0
  147.0084  132.8844  153.9727 C   0  0  0  0  0  0  0  0  0  0  0  0
  147.3151  133.9161  154.8959 O   0  0  0  0  0  0  0  0  0  0  0  0
  151.7441  141.6761  157.8851 C   0  0  0  0  0  0  0  0  0  0  0  0
  153.4706  142.9371  158.0991 H   0  0  0  0  0  0  0  0  0  0  0  0
  152.2411  140.5264  160.8494 H   0  0  0  0  0  0  0  0  0  0  0  0
  151.5326  146.0237  158.8879 H   0  0  0  0  0  0  0  0  0  0  0  0
  153.1661  145.3783  159.0361 H   0  0  0  0  0  0  0  0  0  0  0  0
  151.9054  144.8909  160.1836 H   0  0  0  0  0  0  0  0  0  0  0  0
  153.2954  143.0206  160.5382 H   0  0  0  0  0  0  0  0  0  0  0  0
  151.5675  142.7076  160.4690 H   0  0  0  0  0  0  0  0  0  0  0  0
  155.9445  140.8592  161.0419 H   0  0  0  0  0  0  0  0  0  0  0  0
  154.5163  141.6244  161.7077 H   0  0  0  0  0  0  0  0  0  0  0  0
  150.3611  136.7993  160.2512 H   0  0  0  0  0  0  0  0  0  0  0  0
  151.7403  138.0346  154.0871 H   0  0  0  0  0  0  0  0  0  0  0  0
  150.9643  135.6609  154.2075 H   0  0  0  0  0  0  0  0  0  0  0  0
  151.1902  134.8928  155.7606 H   0  0  0  0  0  0  0  0  0  0  0  0
  148.8276  135.6461  156.3965 H   0  0  0  0  0  0  0  0  0  0  0  0
  148.7336  136.2615  153.6494 H   0  0  0  0  0  0  0  0  0  0  0  0
  149.0348  133.3471  155.7892 H   0  0  0  0  0  0  0  0  0  0  0  0
  149.9054  134.1872  153.1081 H   0  0  0  0  0  0  0  0  0  0  0  0
  149.9044  132.5936  153.8479 H   0  0  0  0  0  0  0  0  0  0  0  0
  147.7409  133.9170  152.2333 H   0  0  0  0  0  0  0  0  0  0  0  0
  148.1860  132.2070  152.2509 H   0  0  0  0  0  0  0  0  0  0  0  0
  145.9844  132.9616  153.6066 H   0  0  0  0  0  0  0  0  0  0  0  0
  147.1336  131.9126  154.4530 H   0  0  0  0  0  0  0  0  0  0  0  0
  150.6635  141.8281  157.8910 H   0  0  0  0  0  0  0  0  0  0  0  0
  152.0643  141.5201  156.8542 H   0  0  0  0  0  0  0  0  0  0  0  0
  1  2  1  0  0  0  0
  1 30  1  0  0  0  0
  1 31  1  0  0  0  0
  1 32  1  0  0  0  0
  2  3  1  0  0  0  0
  3 28  1  0  0  0  0
  3 27  1  0  0  0  0
  3  4  1  0  0  0  0
  4  5  1  0  0  0  0
  4 33  1  0  0  0  0
  4 34  1  0  0  0  0
  5 29  1  0  0  0  0
  5  6  1  0  0  0  0
  5  9  1  0  0  0  0
  6  7  1  0  0  0  0
  6  8  2  0  0  0  0
  7 35  1  0  0  0  0
  7 36  1  0  0  0  0
  9 10  1  0  0  0  0
  9 27  1  0  0  0  0
 10 15  1  0  0  0  0
 10 11  2  0  0  0  0
 11 12  1  0  0  0  0
 12 13  2  0  0  0  0
 12 37  1  0  0  0  0
 13 14  1  0  0  0  0
 14 18  1  0  0  0  0
 14 15  2  0  0  0  0
 15 16  1  0  0  0  0
 16 17  2  0  0  0  0
 17 18  1  0  0  0  0
 17 38  1  0  0  0  0
 18 19  1  0  0  0  0
 19 20  1  0  0  0  0
 19 39  1  0  0  0  0
 19 40  1  0  0  0  0
 20 21  1  0  0  0  0
 20 22  1  0  0  0  0
 20 41  1  0  0  0  0
 21 42  1  0  0  0  0
 22 26  1  0  0  0  0
 22 23  1  0  0  0  0
 22 43  1  0  0  0  0
 23 24  1  0  0  0  0
 23 44  1  0  0  0  0
 23 45  1  0  0  0  0
 24 25  1  0  0  0  0
 24 46  1  0  0  0  0
 24 47  1  0  0  0  0
 25 26  1  0  0  0  0
 25 48  1  0  0  0  0
 25 49  1  0  0  0  0
 27 50  1  0  0  0  0
 27 51  1  0  0  0  0
M  END
> <s_m_source_file>
AV-unprocessed.smi

> <i_m_source_file_index>
261

> <i_lp_mmshare_version>
43012

> <i_f3d_flags>
0

> <s_epik_input>
W0NIM11PW0NASF0xW0NIMl1bQ0BASF0oQyg9TylbTkgyXSlOKFtDSDJdMSljKG5bY0hdbjIpYyhjMjMpbltjSF1uM1tDSDJdW0NASF0oW09IXSlbQ0BASF00W0NIMl1bQ0gyXVtDSDJdTzQ=

> <s_epik_cmdline>
J2VwaWtfcHl0aG9uJywgJy1waCcsICc3LjAnLCAnLXRuJywgJzgnLCAnLW1hJywgJzIwMCcsICctbWV0YWxfYmluZGluZycsICctaW1hZScsICc8aW5maWxlLm1hZT4nLCAnLW9tYWUnLCAnPG91dGZpbGUubWFlPic=

> <r_lp_tautomer_probability>
1

> <r_epik_Ionization_Penalty>
0.000713824

> <r_epik_Ionization_Penalty_Charging>
0

> <r_epik_Ionization_Penalty_Neutral>
0.000713824

> <r_epik_State_Penalty>
0.000402132

> <r_epik_Charging_Adjusted_Penalty>
0.000402132

> <i_epik_Tot_Q>
0

> <i_epik_Tot_abs_Q>
0

> <r_epik_Metal_State_Penalty>
-0

> <b_epik_Metal_Only>
0

> <s_lp_Force_Field>
OPLS_2005

> <r_lp_Energy>
44.9421

> <b_lp_Chiralities_Consistent>
1

> <s_lp_Variant>
AV-unprocessed.smi:261-7

> <Gold.Version>
5.8.1

> <Gold.Id.Protein>
6NUR|6NUR_protein|mol2

> <Gold.PLP.Fitness>
48.0225

> <Gold.PLP.PLP>
-43.5914

> <Gold.PLP.part.hbond>
-4.6810

> <Gold.PLP.part.metal>
0.0000

> <Gold.PLP.part.buried>
-6.0380

> <Gold.PLP.part.nonpolar>
-33.9176

> <Gold.PLP.part.repulsive>
0.1518

> <Gold.PLP.ligand.clash>
0.0000

> <Gold.PLP.ligand.torsion>
0.9082

> <Gold.PLP.Chemscore.Hbond>
2.0000

> <Gold.PLP.Chemscore.CHOScore>
0.0000

> <Gold.PLP.Chemscore.Metal>
0.0000

> <Gold.Chemscore.Hbonds>
donor molecule, donor type, donor heavy atom, donor atom, acceptor molecule, acceptor atom, score
      L1  H    21    42       P1  7948  1.00
      P1  H  7997  8009       L1     8  1.00

> <Gold.PLP.Chemscore.Internal.Correction>
0.2475

> <Gold.Rescore>
     Score         DG    S(hbond)    S(metal)    S(lipo)     H(rot)  DE(clash)    DE(int)     intcor
     13.03     -13.88       1.95        0.00      85.63       3.18       0.10       0.74       ----

> <Gold.Chemscore.Fitness>
13.0336

> <Gold.Chemscore.DG>
-13.8759

> <Gold.Chemscore.ZeroCoef>
-5.4800

> <Gold.Chemscore.Hbond>
1.9537

> <Gold.Chemscore.Metal>
0.0000

> <Gold.Chemscore.Lipo>
85.6343

> <Gold.Chemscore.Internal_Hbond>
0.0000

> <Gold.Chemscore.DEClash>
0.1006

> <Gold.Chemscore.DEInternal>
0.7418

> <Gold.Chemscore.Rot>
3.1831

> <Gold.Chemscore.Internal.Correction>
   9.000000E+99

> <Gold.Chemscore.Hbonds>
donor molecule, donor type, donor heavy atom, donor atom, acceptor molecule, acceptor atom, score
      L1  H    21    42       P1  7948  1.00
      P1  H  7997  8009       L1     8  0.95

> <Gold.Chemscore.Hbond.Weighted>
-6.5253

> <Gold.Chemscore.Metal.Weighted>
-0.0000

> <Gold.Chemscore.Lipo.Weighted>
-10.0192

> <Gold.Chemscore.Internal_Hbond.Weighted>
0.0000

> <Gold.Chemscore.DEClash.Weighted>
0.1006

> <Gold.Chemscore.DEInternal.Weighted>
0.7418

> <Gold.Chemscore.Rot.Weighted>
8.1486

> <Gold.Chemscore.Internal.Correction.Weighted>
   9.000000E+99

> <Gold.Protein.RotatedTorsions>
[ 6907 6896 6895 6894 ] final   93.80 input  -60.11 | X-H torsion
[ 7974 7965 7964 7962 ] final -176.83 input  175.53 | X-H torsion
[ 8008 7997 7996 7995 ] final  109.75 input   59.86 | X-H torsion
[ 10167 10162 10161 10158 ] final   58.12 input  -65.29 | X-H torsion
[ 10718 10713 10712 10709 ] final -141.76 input   66.30 | X-H torsion
[ 10763 10752 10751 10750 ] final  -12.10 input  -60.55 | X-H torsion
[ 11005 11000 10999 10996 ] final  -31.91 input  -57.11 | X-H torsion

> <Gold.Protein.ActiveResidues>
 VAL166  LYS551  ARG553  GLY616  TRP617  ASP618  TYR619  PRO620  LYS621  CYS622 
 ASP623  PHE694  ASN695  SER759  ASP760  ASP761  ALA762  ILE779  LEU786  VAL792 
 PHE793  MET794  SER795  GLU796  ALA797  LYS798  CYS799  TRP800  GLU811  SER814 

> <Gold.Protein.RotatedAtoms>
  152.5451  134.1292  159.8431 H   0  0  0  0  0  0  0  0  0  0  0  0  # atno 6907 bound_to 6896
  151.1340  133.5010  159.2606 H   0  0  0  0  0  0  0  0  0  0  0  0  # atno 6908 bound_to 6896
  151.1645  135.0299  159.8779 H   0  0  0  0  0  0  0  0  0  0  0  0  # atno 6909 bound_to 6896
  144.7127  140.1111  143.6411 H   0  0  0  0  0  0  0  0  0  0  0  0  # atno 7974 bound_to 7965
  156.2002  140.3052  155.9511 H   0  0  0  0  0  0  0  0  0  0  0  0  # atno 8008 bound_to 7997
  155.2972  140.0445  157.3044 H   0  0  0  0  0  0  0  0  0  0  0  0  # atno 8009 bound_to 7997
  154.5561  140.2306  155.8417 H   0  0  0  0  0  0  0  0  0  0  0  0  # atno 8010 bound_to 7997
  140.1906  144.4089  150.6573 H   0  0  0  0  0  0  0  0  0  0  0  0  # atno 10167 bound_to 10162
  156.3378  130.7621  151.1751 H   0  0  0  0  0  0  0  0  0  0  0  0  # atno 10718 bound_to 10713
  153.4934  135.7017  153.5871 H   0  0  0  0  0  0  0  0  0  0  0  0  # atno 10763 bound_to 10752
  153.4034  135.3866  155.2002 H   0  0  0  0  0  0  0  0  0  0  0  0  # atno 10764 bound_to 10752
  154.8715  135.3887  154.4397 H   0  0  0  0  0  0  0  0  0  0  0  0  # atno 10765 bound_to 10752
  140.9508  133.7222  156.1217 H   0  0  0  0  0  0  0  0  0  0  0  0  # atno 11005 bound_to 11000
  145.9454  139.2697  143.1244 LP  0  0  0  0  0  0  0  0  0  0  0  0  # atno 17320 bound_to 7965
  145.9380  140.9001  143.0322 LP  0  0  0  0  0  0  0  0  0  0  0  0  # atno 17321 bound_to 7965
  140.6458  143.2213  151.6189 LP  0  0  0  0  0  0  0  0  0  0  0  0  # atno 17342 bound_to 10162
  139.5257  144.3066  152.1029 LP  0  0  0  0  0  0  0  0  0  0  0  0  # atno 17343 bound_to 10162
  157.7442  131.0463  150.4886 LP  0  0  0  0  0  0  0  0  0  0  0  0  # atno 17370 bound_to 10713
  156.5062  130.4128  149.6326 LP  0  0  0  0  0  0  0  0  0  0  0  0  # atno 17371 bound_to 10713
  140.7606  134.3944  157.5526 LP  0  0  0  0  0  0  0  0  0  0  0  0  # atno 17394 bound_to 11000
  139.8847  134.8958  156.2689 LP  0  0  0  0  0  0  0  0  0  0  0  0  # atno 17395 bound_to 11000

$$$$
