AV-unprocessed.smi:832|AV-procd|sdf|3876|dock1
  -GOLD-   22720 1333D 1   1.00000     0.00000
 Structure written by MMmdl.
 42 43  0  0  0  0  0  0  0  0  2 V2000
  150.6985  142.0840  156.3212 C   0  0  0  0  0  0  0  0  0  0  0  0
  150.3231  140.9424  155.4401 C   0  0  0  0  0  0  0  0  0  0  0  0
  149.1227  140.4733  154.9864 C   0  0  0  0  0  0  0  0  0  0  0  0
  149.4989  139.3549  154.1870 C   0  0  0  0  0  0  0  0  0  0  0  0
  148.6221  138.5016  153.4687 N   0  0  0  0  0  0  0  0  0  0  0  0
  147.2786  138.5059  153.4543 C   0  0  0  0  0  0  0  0  0  0  0  0
  146.5594  139.2753  154.0917 O   0  0  0  0  0  0  0  0  0  0  0  0
  146.7992  137.5454  152.6510 N   0  0  0  0  0  0  0  0  0  0  0  0
  145.3839  137.2797  152.4156 C   0  0  0  0  0  0  0  0  0  0  0  0
  145.1644  136.2426  151.2969 C   0  0  2  0  0  0  0  0  0  0  0  0
  143.8662  135.4446  151.4051 C   0  0  0  0  0  0  0  0  0  0  0  0
  144.1511  134.1366  150.6549 C   0  0  0  0  0  0  0  0  0  0  0  0
  145.6204  134.0573  150.4521 N   0  3  2  0  0  0  0  0  0  0  0  0
  146.2156  132.7045  150.6444 C   0  0  0  0  0  0  0  0  0  0  0  0
  145.9214  131.7751  149.4508 C   0  0  0  0  0  0  0  0  0  0  0  0
  145.7011  132.0518  151.9414 C   0  0  0  0  0  0  0  0  0  0  0  0
  146.2201  135.1403  151.2622 C   0  0  0  0  0  0  0  0  0  0  0  0
  150.8053  139.1667  154.1579 N   0  0  0  0  0  0  0  0  0  0  0  0
  151.3421  140.1797  154.9608 O   0  0  0  0  0  0  0  0  0  0  0  0
  149.8150  142.6379  156.6390 H   0  0  0  0  0  0  0  0  0  0  0  0
  151.3600  142.7745  155.7981 H   0  0  0  0  0  0  0  0  0  0  0  0
  151.2147  141.7294  157.2134 H   0  0  0  0  0  0  0  0  0  0  0  0
  148.1455  140.8787  155.2004 H   0  0  0  0  0  0  0  0  0  0  0  0
  149.0752  137.7999  152.9021 H   0  0  0  0  0  0  0  0  0  0  0  0
  147.4606  136.9596  152.1625 H   0  0  0  0  0  0  0  0  0  0  0  0
  144.9125  136.9434  153.3406 H   0  0  0  0  0  0  0  0  0  0  0  0
  144.9039  138.2227  152.1524 H   0  0  0  0  0  0  0  0  0  0  0  0
  145.1752  136.7473  150.3292 H   0  0  0  0  0  0  0  0  0  0  0  0
  143.6490  135.2235  152.4513 H   0  0  0  0  0  0  0  0  0  0  0  0
  143.0099  135.9824  150.9967 H   0  0  0  0  0  0  0  0  0  0  0  0
  143.7698  133.2924  151.2311 H   0  0  0  0  0  0  0  0  0  0  0  0
  143.6595  134.1238  149.6815 H   0  0  0  0  0  0  0  0  0  0  0  0
  147.2980  132.8186  150.7229 H   0  0  0  0  0  0  0  0  0  0  0  0
  146.3290  130.7787  149.6235 H   0  0  0  0  0  0  0  0  0  0  0  0
  146.3688  132.1399  148.5262 H   0  0  0  0  0  0  0  0  0  0  0  0
  144.8486  131.6681  149.2859 H   0  0  0  0  0  0  0  0  0  0  0  0
  146.1181  131.0523  152.0677 H   0  0  0  0  0  0  0  0  0  0  0  0
  144.6148  131.9563  151.9323 H   0  0  0  0  0  0  0  0  0  0  0  0
  145.9767  132.6227  152.8277 H   0  0  0  0  0  0  0  0  0  0  0  0
  147.1611  135.4905  150.8369 H   0  0  0  0  0  0  0  0  0  0  0  0
  146.4159  134.7772  152.2727 H   0  0  0  0  0  0  0  0  0  0  0  0
  145.7811  134.3162  149.4891 H   0  0  0  0  0  0  0  0  0  0  0  0
  1  2  1  0  0  0  0
  1 20  1  0  0  0  0
  1 21  1  0  0  0  0
  1 22  1  0  0  0  0
  2 19  1  0  0  0  0
  2  3  2  0  0  0  0
  3  4  1  0  0  0  0
  3 23  1  0  0  0  0
  4  5  1  0  0  0  0
  4 18  2  0  0  0  0
  5  6  1  0  0  0  0
  5 24  1  0  0  0  0
  6  7  2  0  0  0  0
  6  8  1  0  0  0  0
  8  9  1  0  0  0  0
  8 25  1  0  0  0  0
  9 10  1  0  0  0  0
  9 26  1  0  0  0  0
  9 27  1  0  0  0  0
 10 17  1  0  0  0  0
 10 11  1  0  0  0  0
 10 28  1  0  0  0  0
 11 12  1  0  0  0  0
 11 29  1  0  0  0  0
 11 30  1  0  0  0  0
 12 13  1  0  0  0  0
 12 31  1  0  0  0  0
 12 32  1  0  0  0  0
 13 14  1  0  0  0  0
 13 17  1  0  0  0  0
 13 42  1  0  0  0  0
 14 15  1  0  0  0  0
 14 16  1  0  0  0  0
 14 33  1  0  0  0  0
 15 34  1  0  0  0  0
 15 35  1  0  0  0  0
 15 36  1  0  0  0  0
 16 37  1  0  0  0  0
 16 38  1  0  0  0  0
 16 39  1  0  0  0  0
 17 40  1  0  0  0  0
 17 41  1  0  0  0  0
 18 19  1  0  0  0  0
M  CHG  1  13   1
M  END
> <s_m_source_file>
AV-unprocessed.smi

> <i_m_source_file_index>
832

> <i_lp_mmshare_version>
43012

> <i_f3d_flags>
0

> <s_epik_input>
W0NIM11jMVtjSF1jKG5vMSlbTkhdQyg9TylbTkhdW0NIMl1bQ0BASF0yW0NIMl1bQ0gyXU4oW0NIMl0yKVtDSF0oW0NIM10pW0NIM10=

> <s_epik_cmdline>
J2VwaWtfcHl0aG9uJywgJy1waCcsICc3LjAnLCAnLXRuJywgJzgnLCAnLW1hJywgJzIwMCcsICctbWV0YWxfYmluZGluZycsICctaW1hZScsICc8aW5maWxlLm1hZT4nLCAnLW9tYWUnLCAnPG91dGZpbGUubWFlPic=

> <r_lp_tautomer_probability>
1

> <r_epik_Ionization_Penalty>
0.000242791

> <r_epik_Ionization_Penalty_Charging>
0.000220876

> <r_epik_Ionization_Penalty_Neutral>
2.19143e-05

> <r_epik_State_Penalty>
-0

> <r_epik_Charging_Adjusted_Penalty>
0.000220876

> <i_epik_Tot_Q>
1

> <i_epik_Tot_abs_Q>
1

> <r_epik_Metal_State_Penalty>
-0

> <b_epik_Metal_Only>
0

> <s_lp_Force_Field>
OPLS_2005

> <r_lp_Energy>
29.381

> <b_lp_Chiralities_Consistent>
1

> <s_lp_Variant>
AV-unprocessed.smi:832-1

> <Gold.Version>
5.8.1

> <Gold.Id.Protein>
6NUR|6NUR_protein|mol2

> <Gold.PLP.Fitness>
41.9104

> <Gold.PLP.PLP>
-33.6348

> <Gold.PLP.part.hbond>
-6.0000

> <Gold.PLP.part.metal>
0.0000

> <Gold.PLP.part.buried>
-1.5221

> <Gold.PLP.part.nonpolar>
-27.6351

> <Gold.PLP.part.repulsive>
0.5340

> <Gold.PLP.ligand.clash>
0.0000

> <Gold.PLP.ligand.torsion>
0.6061

> <Gold.PLP.Chemscore.Hbond>
3.1500

> <Gold.PLP.Chemscore.CHOScore>
0.0000

> <Gold.PLP.Chemscore.Metal>
0.0000

> <Gold.Chemscore.Hbonds>
donor molecule, donor type, donor heavy atom, donor atom, acceptor molecule, acceptor atom, score
      L1  H     5    24       P1  7948  1.00
      L1  H     8    25       P1  7948  1.00
      L1  H    13    42       P1  7921  1.00
      P1  H  7989  7998       L1    19  0.15

> <Gold.PLP.Chemscore.Internal.Correction>
0.0378

> <Gold.Rescore>
     Score         DG    S(hbond)    S(metal)    S(lipo)     H(rot)  DE(clash)    DE(int)     intcor
     17.98     -20.20       2.88        0.00      76.60       1.51       0.71       1.51       ----

> <Gold.Chemscore.Fitness>
17.9780

> <Gold.Chemscore.DG>
-20.1952

> <Gold.Chemscore.ZeroCoef>
-5.4800

> <Gold.Chemscore.Hbond>
2.8832

> <Gold.Chemscore.Metal>
0.0000

> <Gold.Chemscore.Lipo>
76.6042

> <Gold.Chemscore.Internal_Hbond>
0.0000

> <Gold.Chemscore.DEClash>
0.7110

> <Gold.Chemscore.DEInternal>
1.5061

> <Gold.Chemscore.Rot>
1.5146

> <Gold.Chemscore.Internal.Correction>
   9.000000E+99

> <Gold.Chemscore.Hbonds>
donor molecule, donor type, donor heavy atom, donor atom, acceptor molecule, acceptor atom, score
      L1  H     5    24       P1  7948  0.95
      L1  H     8    25       P1  7948  0.99
      L1  H    13    42       P1  7921  0.65

> <Gold.Chemscore.Hbond.Weighted>
-9.6299

> <Gold.Chemscore.Metal.Weighted>
-0.0000

> <Gold.Chemscore.Lipo.Weighted>
-8.9627

> <Gold.Chemscore.Internal_Hbond.Weighted>
0.0000

> <Gold.Chemscore.DEClash.Weighted>
0.7110

> <Gold.Chemscore.DEInternal.Weighted>
1.5061

> <Gold.Chemscore.Rot.Weighted>
3.8774

> <Gold.Chemscore.Internal.Correction.Weighted>
   9.000000E+99

> <Gold.Protein.RotatedTorsions>
[ 6907 6896 6895 6894 ] final -154.75 input  -60.11 | X-H torsion
[ 7974 7965 7964 7962 ] final  133.51 input  175.53 | X-H torsion
[ 8008 7997 7996 7995 ] final  117.63 input   59.86 | X-H torsion
[ 10167 10162 10161 10158 ] final -148.70 input  -65.29 | X-H torsion
[ 10718 10713 10712 10709 ] final -129.88 input   66.30 | X-H torsion
[ 10763 10752 10751 10750 ] final    5.29 input  -60.55 | X-H torsion
[ 11005 11000 10999 10996 ] final  -12.19 input  -57.11 | X-H torsion

> <Gold.Protein.ActiveResidues>
 VAL166  LYS551  ARG553  GLY616  TRP617  ASP618  TYR619  PRO620  LYS621  CYS622 
 ASP623  PHE694  ASN695  SER759  ASP760  ASP761  ALA762  ILE779  LEU786  VAL792 
 PHE793  MET794  SER795  GLU796  ALA797  LYS798  CYS799  TRP800  GLU811  SER814 

> <Gold.Protein.RotatedAtoms>
  151.2621  133.4297  159.2616 H   0  0  0  0  0  0  0  0  0  0  0  0  # atno 6907 bound_to 6896
  151.0521  134.9680  159.8227 H   0  0  0  0  0  0  0  0  0  0  0  0  # atno 6908 bound_to 6896
  152.5384  134.2575  159.8975 H   0  0  0  0  0  0  0  0  0  0  0  0  # atno 6909 bound_to 6896
  144.9858  139.4457  143.5364 H   0  0  0  0  0  0  0  0  0  0  0  0  # atno 7974 bound_to 7965
  156.2504  140.2892  156.0708 H   0  0  0  0  0  0  0  0  0  0  0  0  # atno 8008 bound_to 7997
  155.1673  140.0401  157.2872 H   0  0  0  0  0  0  0  0  0  0  0  0  # atno 8009 bound_to 7997
  154.6351  140.2508  155.7395 H   0  0  0  0  0  0  0  0  0  0  0  0  # atno 8010 bound_to 7997
  139.7508  143.8521  152.2586 H   0  0  0  0  0  0  0  0  0  0  0  0  # atno 10167 bound_to 10162
  156.2089  130.6906  151.0627 H   0  0  0  0  0  0  0  0  0  0  0  0  # atno 10718 bound_to 10713
  153.2612  135.6923  153.7577 H   0  0  0  0  0  0  0  0  0  0  0  0  # atno 10763 bound_to 10752
  153.6635  135.3356  155.3135 H   0  0  0  0  0  0  0  0  0  0  0  0  # atno 10764 bound_to 10752
  154.8431  135.4483  154.1602 H   0  0  0  0  0  0  0  0  0  0  0  0  # atno 10765 bound_to 10752
  140.7632  133.8498  155.9142 H   0  0  0  0  0  0  0  0  0  0  0  0  # atno 11005 bound_to 11000
  146.3419  139.9159  142.8773 LP  0  0  0  0  0  0  0  0  0  0  0  0  # atno 17320 bound_to 7965
  145.2356  140.9989  143.3965 LP  0  0  0  0  0  0  0  0  0  0  0  0  # atno 17321 bound_to 7965
  139.8498  144.7170  150.9227 LP  0  0  0  0  0  0  0  0  0  0  0  0  # atno 17342 bound_to 10162
  140.7797  143.3909  151.1312 LP  0  0  0  0  0  0  0  0  0  0  0  0  # atno 17343 bound_to 10162
  157.7028  131.0769  150.6766 LP  0  0  0  0  0  0  0  0  0  0  0  0  # atno 17370 bound_to 10713
  156.6825  130.4571  149.5623 LP  0  0  0  0  0  0  0  0  0  0  0  0  # atno 17371 bound_to 10713
  140.9644  134.1614  157.4628 LP  0  0  0  0  0  0  0  0  0  0  0  0  # atno 17394 bound_to 11000
  139.8767  134.9956  156.5753 LP  0  0  0  0  0  0  0  0  0  0  0  0  # atno 17395 bound_to 11000

$$$$
