AV-unprocessed.smi:712|AV-procd|sdf|3472|dock1
  -GOLD-   22720 0463D 1   1.00000     0.00000
 Structure written by MMmdl.
 50 51  0  0  0  0  0  0  0  0  1 V2000
  154.6777  141.5771  161.0177 C   0  0  0  0  0  0  0  0  0  0  0  0
  153.5942  142.5176  160.5325 C   0  0  0  0  0  0  0  0  0  0  0  0
  152.9977  143.4802  161.4340 C   0  0  0  0  0  0  0  0  0  0  0  0
  152.0224  144.2824  160.9814 C   0  0  0  0  0  0  0  0  0  0  0  0
  151.5673  144.2241  159.6515 N   0  0  0  0  0  0  0  0  0  0  0  0
  150.4611  145.1304  159.2919 C   0  0  0  0  0  0  0  0  0  0  0  0
  149.1147  144.7690  159.9432 C   0  0  0  0  0  0  0  0  0  0  0  0
  148.6023  143.6776  159.6990 O   0  0  0  0  0  0  0  0  0  0  0  0
  148.5325  145.6883  160.7305 N   0  0  0  0  0  0  0  0  0  0  0  0
  147.1975  145.5987  161.3084 C   0  0  0  0  0  0  0  0  0  0  0  0
  146.2250  144.9039  160.3398 C   0  0  2  0  0  0  0  0  0  0  0  0
  145.3027  145.8985  159.5997 C   0  0  0  0  0  0  0  0  0  0  0  0
  144.3392  145.2191  158.7385 N   0  0  0  0  0  0  0  0  0  0  0  0
  143.4468  146.1474  158.0413 C   0  0  0  0  0  0  0  0  0  0  0  0
  144.0967  147.0060  156.9342 C   0  0  0  0  0  0  0  0  0  0  0  0
  144.8115  148.2203  157.5435 C   0  0  0  0  0  0  0  0  0  0  0  0
  143.0725  147.4564  155.8797 C   0  0  0  0  0  0  0  0  0  0  0  0
  143.5799  144.2657  159.5393 C   0  0  0  0  0  0  0  0  0  0  0  0
  144.4970  143.2762  160.2777 C   0  0  0  0  0  0  0  0  0  0  0  0
  145.4211  143.9957  161.0876 O   0  0  0  0  0  0  0  0  0  0  0  0
  152.1015  143.3514  158.7445 C   0  0  0  0  0  0  0  0  0  0  0  0
  151.7059  143.2928  157.5804 O   0  0  0  0  0  0  0  0  0  0  0  0
  153.1613  142.4722  159.2529 C   0  0  0  0  0  0  0  0  0  0  0  0
  154.6683  141.4992  162.1052 H   0  0  0  0  0  0  0  0  0  0  0  0
  155.6582  141.9388  160.7079 H   0  0  0  0  0  0  0  0  0  0  0  0
  154.5326  140.5772  160.6074 H   0  0  0  0  0  0  0  0  0  0  0  0
  153.3251  143.5484  162.4608 H   0  0  0  0  0  0  0  0  0  0  0  0
  151.5265  145.0125  161.6051 H   0  0  0  0  0  0  0  0  0  0  0  0
  150.7188  146.1520  159.5761 H   0  0  0  0  0  0  0  0  0  0  0  0
  150.3201  145.1674  158.2107 H   0  0  0  0  0  0  0  0  0  0  0  0
  149.0323  146.5511  160.8890 H   0  0  0  0  0  0  0  0  0  0  0  0
  147.2216  145.0754  162.2656 H   0  0  0  0  0  0  0  0  0  0  0  0
  146.8516  146.6110  161.5190 H   0  0  0  0  0  0  0  0  0  0  0  0
  146.8038  144.3354  159.6090 H   0  0  0  0  0  0  0  0  0  0  0  0
  144.7763  146.5183  160.3271 H   0  0  0  0  0  0  0  0  0  0  0  0
  145.9202  146.5698  159.0047 H   0  0  0  0  0  0  0  0  0  0  0  0
  142.6346  145.5782  157.5867 H   0  0  0  0  0  0  0  0  0  0  0  0
  142.9731  146.8051  158.7715 H   0  0  0  0  0  0  0  0  0  0  0  0
  144.8644  146.4187  156.4329 H   0  0  0  0  0  0  0  0  0  0  0  0
  144.1118  148.8690  158.0713 H   0  0  0  0  0  0  0  0  0  0  0  0
  145.3009  148.8161  156.7724 H   0  0  0  0  0  0  0  0  0  0  0  0
  145.5788  147.9093  158.2532 H   0  0  0  0  0  0  0  0  0  0  0  0
  142.2664  148.0346  156.3320 H   0  0  0  0  0  0  0  0  0  0  0  0
  142.6257  146.6020  155.3706 H   0  0  0  0  0  0  0  0  0  0  0  0
  143.5410  148.0787  155.1169 H   0  0  0  0  0  0  0  0  0  0  0  0
  142.9670  144.7997  160.2673 H   0  0  0  0  0  0  0  0  0  0  0  0
  142.8922  143.7103  158.9006 H   0  0  0  0  0  0  0  0  0  0  0  0
  143.9075  142.6142  160.9121 H   0  0  0  0  0  0  0  0  0  0  0  0
  145.0362  142.6455  159.5691 H   0  0  0  0  0  0  0  0  0  0  0  0
  153.6022  141.7561  158.5744 H   0  0  0  0  0  0  0  0  0  0  0  0
  1  2  1  0  0  0  0
  1 24  1  0  0  0  0
  1 25  1  0  0  0  0
  1 26  1  0  0  0  0
  2 23  2  0  0  0  0
  2  3  1  0  0  0  0
  3  4  2  0  0  0  0
  3 27  1  0  0  0  0
  4  5  1  0  0  0  0
  4 28  1  0  0  0  0
  5  6  1  0  0  0  0
  5 21  1  0  0  0  0
  6  7  1  0  0  0  0
  6 29  1  0  0  0  0
  6 30  1  0  0  0  0
  7  8  2  0  0  0  0
  7  9  1  0  0  0  0
  9 10  1  0  0  0  0
  9 31  1  0  0  0  0
 10 11  1  0  0  0  0
 10 32  1  0  0  0  0
 10 33  1  0  0  0  0
 11 20  1  0  0  0  0
 11 12  1  0  0  0  0
 11 34  1  0  0  0  0
 12 13  1  0  0  0  0
 12 35  1  0  0  0  0
 12 36  1  0  0  0  0
 13 14  1  0  0  0  0
 13 18  1  0  0  0  0
 14 15  1  0  0  0  0
 14 37  1  0  0  0  0
 14 38  1  0  0  0  0
 15 16  1  0  0  0  0
 15 17  1  0  0  0  0
 15 39  1  0  0  0  0
 16 40  1  0  0  0  0
 16 41  1  0  0  0  0
 16 42  1  0  0  0  0
 17 43  1  0  0  0  0
 17 44  1  0  0  0  0
 17 45  1  0  0  0  0
 18 19  1  0  0  0  0
 18 46  1  0  0  0  0
 18 47  1  0  0  0  0
 19 20  1  0  0  0  0
 19 48  1  0  0  0  0
 19 49  1  0  0  0  0
 21 22  2  0  0  0  0
 21 23  1  0  0  0  0
 23 50  1  0  0  0  0
M  END
> <s_m_source_file>
AV-unprocessed.smi

> <i_m_source_file_index>
712

> <i_lp_mmshare_version>
43012

> <i_f3d_flags>
0

> <s_epik_input>
W0NIM11jMVtjSF1bY0hdbihjKD1PKVtjSF0xKVtDSDJdQyg9TylbTkhdW0NIMl1bQ0BASF0yW0NIMl1OKFtDSDJdW0NIMl1PMilbQ0gyXVtDSF0oW0NIM10pW0NIM10=

> <s_epik_cmdline>
J2VwaWtfcHl0aG9uJywgJy1waCcsICc3LjAnLCAnLXRuJywgJzgnLCAnLW1hJywgJzIwMCcsICctbWV0YWxfYmluZGluZycsICctaW1hZScsICc8aW5maWxlLm1hZT4nLCAnLW9tYWUnLCAnPG91dGZpbGUubWFlPic=

> <r_lp_tautomer_probability>
1

> <r_epik_Ionization_Penalty>
1.11669

> <r_epik_Ionization_Penalty_Charging>
4.93496e-07

> <r_epik_Ionization_Penalty_Neutral>
1.11669

> <r_epik_State_Penalty>
1.17516

> <r_epik_Charging_Adjusted_Penalty>
1.17516

> <i_epik_Tot_Q>
0

> <i_epik_Tot_abs_Q>
0

> <r_epik_Metal_State_Penalty>
1.17513

> <b_epik_Metal_Only>
0

> <s_lp_Force_Field>
OPLS_2005

> <r_lp_Energy>
32.9939

> <b_lp_Chiralities_Consistent>
1

> <s_lp_Variant>
AV-unprocessed.smi:712-5

> <Gold.Version>
5.8.1

> <Gold.Id.Protein>
6NUR|6NUR_protein|mol2

> <Gold.PLP.Fitness>
47.3282

> <Gold.PLP.PLP>
-47.3365

> <Gold.PLP.part.hbond>
-1.0000

> <Gold.PLP.part.metal>
0.0000

> <Gold.PLP.part.buried>
-5.8135

> <Gold.PLP.part.nonpolar>
-41.1753

> <Gold.PLP.part.repulsive>
1.1790

> <Gold.PLP.ligand.clash>
0.0000

> <Gold.PLP.ligand.torsion>
1.1751

> <Gold.PLP.Chemscore.Hbond>
0.7360

> <Gold.PLP.Chemscore.CHOScore>
0.0000

> <Gold.PLP.Chemscore.Metal>
0.0000

> <Gold.Chemscore.Hbonds>
donor molecule, donor type, donor heavy atom, donor atom, acceptor molecule, acceptor atom, score
      P1  H  6933  6944       L1     8  0.45

> <Gold.PLP.Chemscore.Internal.Correction>
0.1339

> <Gold.Rescore>
     Score         DG    S(hbond)    S(metal)    S(lipo)     H(rot)  DE(clash)    DE(int)     intcor
     14.37     -16.83       0.90        0.00     111.25       1.82       0.08       2.38       ----

> <Gold.Chemscore.Fitness>
14.3681

> <Gold.Chemscore.DG>
-16.8286

> <Gold.Chemscore.ZeroCoef>
-5.4800

> <Gold.Chemscore.Hbond>
0.8991

> <Gold.Chemscore.Metal>
0.0000

> <Gold.Chemscore.Lipo>
111.2455

> <Gold.Chemscore.Internal_Hbond>
0.0000

> <Gold.Chemscore.DEClash>
0.0827

> <Gold.Chemscore.DEInternal>
2.3778

> <Gold.Chemscore.Rot>
1.8243

> <Gold.Chemscore.Internal.Correction>
   9.000000E+99

> <Gold.Chemscore.Hbonds>
donor molecule, donor type, donor heavy atom, donor atom, acceptor molecule, acceptor atom, score
      P1  H  6933  6944       L1     8  0.38

> <Gold.Chemscore.Hbond.Weighted>
-3.0031

> <Gold.Chemscore.Metal.Weighted>
-0.0000

> <Gold.Chemscore.Lipo.Weighted>
-13.0157

> <Gold.Chemscore.Internal_Hbond.Weighted>
0.0000

> <Gold.Chemscore.DEClash.Weighted>
0.0827

> <Gold.Chemscore.DEInternal.Weighted>
2.3778

> <Gold.Chemscore.Rot.Weighted>
4.6703

> <Gold.Chemscore.Internal.Correction.Weighted>
   9.000000E+99

> <Gold.Protein.RotatedTorsions>
[ 6907 6896 6895 6894 ] final   22.89 input  -60.11 | X-H torsion
[ 7974 7965 7964 7962 ] final  -20.52 input  175.53 | X-H torsion
[ 8008 7997 7996 7995 ] final  -69.55 input   59.86 | X-H torsion
[ 10167 10162 10161 10158 ] final -165.03 input  -65.29 | X-H torsion
[ 10718 10713 10712 10709 ] final  116.53 input   66.30 | X-H torsion
[ 10763 10752 10751 10750 ] final  142.59 input  -60.55 | X-H torsion
[ 11005 11000 10999 10996 ] final  -53.06 input  -57.11 | X-H torsion

> <Gold.Protein.ActiveResidues>
 VAL166  LYS551  ARG553  GLY616  TRP617  ASP618  TYR619  PRO620  LYS621  CYS622 
 ASP623  PHE694  ASN695  SER759  ASP760  ASP761  ALA762  ILE779  LEU786  VAL792 
 PHE793  MET794  SER795  GLU796  ALA797  LYS798  CYS799  TRP800  GLU811  SER814 

> <Gold.Protein.RotatedAtoms>
  151.9340  135.0243  160.0530 H   0  0  0  0  0  0  0  0  0  0  0  0  # atno 6907 bound_to 6896
  152.2094  133.4895  159.5110 H   0  0  0  0  0  0  0  0  0  0  0  0  # atno 6908 bound_to 6896
  150.6972  134.1404  159.4145 H   0  0  0  0  0  0  0  0  0  0  0  0  # atno 6909 bound_to 6896
  146.1784  140.4213  142.8504 H   0  0  0  0  0  0  0  0  0  0  0  0  # atno 7974 bound_to 7965
  154.4947  140.0851  156.7670 H   0  0  0  0  0  0  0  0  0  0  0  0  # atno 8008 bound_to 7997
  155.4146  140.3443  155.4248 H   0  0  0  0  0  0  0  0  0  0  0  0  # atno 8009 bound_to 7997
  156.1377  140.1520  156.8957 H   0  0  0  0  0  0  0  0  0  0  0  0  # atno 8010 bound_to 7997
  139.6210  144.0624  152.1932 H   0  0  0  0  0  0  0  0  0  0  0  0  # atno 10167 bound_to 10162
  157.6154  131.1026  150.7486 H   0  0  0  0  0  0  0  0  0  0  0  0  # atno 10718 bound_to 10713
  153.9583  135.2963  155.3435 H   0  0  0  0  0  0  0  0  0  0  0  0  # atno 10763 bound_to 10752
  154.7389  135.5034  153.9092 H   0  0  0  0  0  0  0  0  0  0  0  0  # atno 10764 bound_to 10752
  153.0959  135.6721  153.9873 H   0  0  0  0  0  0  0  0  0  0  0  0  # atno 10765 bound_to 10752
  141.0957  133.6625  156.4116 H   0  0  0  0  0  0  0  0  0  0  0  0  # atno 11005 bound_to 11000
  144.8273  140.6650  143.6313 LP  0  0  0  0  0  0  0  0  0  0  0  0  # atno 17320 bound_to 7965
  145.4147  139.1574  143.4106 LP  0  0  0  0  0  0  0  0  0  0  0  0  # atno 17321 bound_to 7965
  140.0266  144.6112  150.7522 LP  0  0  0  0  0  0  0  0  0  0  0  0  # atno 17342 bound_to 10162
  140.7382  143.2775  151.3698 LP  0  0  0  0  0  0  0  0  0  0  0  0  # atno 17343 bound_to 10162
  156.7854  130.4873  149.5394 LP  0  0  0  0  0  0  0  0  0  0  0  0  # atno 17370 bound_to 10713
  156.1274  130.6154  151.0284 LP  0  0  0  0  0  0  0  0  0  0  0  0  # atno 17371 bound_to 10713
  140.5147  134.6362  157.5297 LP  0  0  0  0  0  0  0  0  0  0  0  0  # atno 17394 bound_to 11000
  139.9793  134.7164  155.9890 LP  0  0  0  0  0  0  0  0  0  0  0  0  # atno 17395 bound_to 11000

$$$$
