AV-unprocessed.smi:2928|AV-procd|sdf|11238|dock8
  -GOLD-   2272016133D 1   1.00000     0.00000
 Structure written by MMmdl.
 56 59  0  0  0  0  0  0  0  0  3 V2000
  149.6614  141.4154  155.9638 C   0  0  0  0  0  0  0  0  0  0  0  0
  148.3302  141.9274  155.5604 N   0  3  2  0  0  0  0  0  0  0  0  0
  147.2061  141.4842  156.4188 C   0  0  1  0  0  0  0  0  0  0  0  0
  145.9877  142.4027  156.1695 C   0  0  0  0  0  0  0  0  0  0  0  0
  145.5905  142.5246  154.6861 C   0  0  0  0  0  0  0  0  0  0  0  0
  146.8124  142.6537  153.7560 C   0  0  0  0  0  0  0  0  0  0  0  0
  147.9902  141.7246  154.1320 C   0  0  2  0  0  0  0  0  0  0  0  0
  147.7768  140.2245  153.8066 C   0  0  0  0  0  0  0  0  0  0  0  0
  146.8843  139.4368  154.7975 C   0  0  2  0  0  0  0  0  0  0  0  0
  145.5242  139.2812  154.2860 N   0  0  0  0  0  0  0  0  0  0  0  0
  144.8038  138.1502  154.3032 C   0  0  0  0  0  0  0  0  0  0  0  0
  145.2205  137.0845  154.7562 O   0  0  0  0  0  0  0  0  0  0  0  0
  143.5784  138.3477  153.7899 N   0  0  0  0  0  0  0  0  0  0  0  0
  142.5006  137.4211  153.7058 C   0  0  0  0  0  0  0  0  0  0  0  0
  142.7007  136.0235  153.5705 C   0  0  0  0  0  0  0  0  0  0  0  0
  141.5875  135.1649  153.4749 C   0  0  0  0  0  0  0  0  0  0  0  0
  140.2929  135.7153  153.5044 C   0  0  0  0  0  0  0  0  0  0  0  0
  140.1365  137.0509  153.6177 N   0  3  0  0  0  0  0  0  0  0  0  0
  141.1728  137.9194  153.7137 C   0  0  0  0  0  0  0  0  0  0  0  0
  140.9014  139.2937  153.8292 N   0  0  0  0  0  0  0  0  0  0  0  0
  139.5116  139.6729  153.6386 C   0  0  0  0  0  0  0  0  0  0  0  0
  139.3999  141.0990  154.1839 C   0  0  0  0  0  0  0  0  0  0  0  0
  140.5952  141.2544  155.1324 C   0  0  0  0  0  0  0  0  0  0  0  0
  141.3177  139.9058  155.0797 C   0  0  0  0  0  0  0  0  0  0  0  0
  146.9301  139.9684  156.2561 C   0  0  0  0  0  0  0  0  0  0  0  0
  149.7304  140.3311  155.8796 H   0  0  0  0  0  0  0  0  0  0  0  0
  149.8752  141.6877  156.9976 H   0  0  0  0  0  0  0  0  0  0  0  0
  150.4417  141.8525  155.3402 H   0  0  0  0  0  0  0  0  0  0  0  0
  147.5000  141.6463  157.4569 H   0  0  0  0  0  0  0  0  0  0  0  0
  145.1329  142.0713  156.7599 H   0  0  0  0  0  0  0  0  0  0  0  0
  146.2336  143.3998  156.5374 H   0  0  0  0  0  0  0  0  0  0  0  0
  144.9758  141.6815  154.3903 H   0  0  0  0  0  0  0  0  0  0  0  0
  144.9415  143.3911  154.5544 H   0  0  0  0  0  0  0  0  0  0  0  0
  146.5137  142.4914  152.7198 H   0  0  0  0  0  0  0  0  0  0  0  0
  147.1661  143.6845  153.8048 H   0  0  0  0  0  0  0  0  0  0  0  0
  148.8423  142.0621  153.5398 H   0  0  0  0  0  0  0  0  0  0  0  0
  147.4154  140.1081  152.7838 H   0  0  0  0  0  0  0  0  0  0  0  0
  148.7584  139.7492  153.8039 H   0  0  0  0  0  0  0  0  0  0  0  0
  147.2867  138.4219  154.8194 H   0  0  0  0  0  0  0  0  0  0  0  0
  145.0951  140.1060  153.8927 H   0  0  0  0  0  0  0  0  0  0  0  0
  143.3545  139.2968  153.5285 H   0  0  0  0  0  0  0  0  0  0  0  0
  143.6901  135.5947  153.5246 H   0  0  0  0  0  0  0  0  0  0  0  0
  141.7267  134.0983  153.3746 H   0  0  0  0  0  0  0  0  0  0  0  0
  139.3848  135.1339  153.4353 H   0  0  0  0  0  0  0  0  0  0  0  0
  139.2315  139.6221  152.5860 H   0  0  0  0  0  0  0  0  0  0  0  0
  138.8520  139.0062  154.1958 H   0  0  0  0  0  0  0  0  0  0  0  0
  139.4740  141.8233  153.3719 H   0  0  0  0  0  0  0  0  0  0  0  0
  138.4464  141.2614  154.6875 H   0  0  0  0  0  0  0  0  0  0  0  0
  141.2508  142.0501  154.7762 H   0  0  0  0  0  0  0  0  0  0  0  0
  140.2894  141.5062  156.1484 H   0  0  0  0  0  0  0  0  0  0  0  0
  141.0191  139.2874  155.9273 H   0  0  0  0  0  0  0  0  0  0  0  0
  142.4006  140.0282  155.1170 H   0  0  0  0  0  0  0  0  0  0  0  0
  147.7309  139.4343  156.7689 H   0  0  0  0  0  0  0  0  0  0  0  0
  146.0287  139.6947  156.8054 H   0  0  0  0  0  0  0  0  0  0  0  0
  148.3913  142.9278  155.6865 H   0  0  0  0  0  0  0  0  0  0  0  0
  139.1877  137.4256  153.6314 H   0  0  0  0  0  0  0  0  0  0  0  0
  1  2  1  0  0  0  0
  1 26  1  0  0  0  0
  1 27  1  0  0  0  0
  1 28  1  0  0  0  0
  2  7  1  0  0  0  0
  2  3  1  0  0  0  0
  2 55  1  0  0  0  0
  3 25  1  0  0  0  0
  3  4  1  0  0  0  0
  3 29  1  0  0  0  0
  4  5  1  0  0  0  0
  4 30  1  0  0  0  0
  4 31  1  0  0  0  0
  5  6  1  0  0  0  0
  5 32  1  0  0  0  0
  5 33  1  0  0  0  0
  6  7  1  0  0  0  0
  6 34  1  0  0  0  0
  6 35  1  0  0  0  0
  7  8  1  0  0  0  0
  7 36  1  0  0  0  0
  8  9  1  0  0  0  0
  8 37  1  0  0  0  0
  8 38  1  0  0  0  0
  9 10  1  0  0  0  0
  9 25  1  0  0  0  0
  9 39  1  0  0  0  0
 10 11  1  0  0  0  0
 10 40  1  0  0  0  0
 11 12  2  0  0  0  0
 11 13  1  0  0  0  0
 13 14  1  0  0  0  0
 13 41  1  0  0  0  0
 14 19  1  0  0  0  0
 14 15  2  0  0  0  0
 15 16  1  0  0  0  0
 15 42  1  0  0  0  0
 16 17  2  0  0  0  0
 16 43  1  0  0  0  0
 17 18  1  0  0  0  0
 17 44  1  0  0  0  0
 18 19  2  0  0  0  0
 18 56  1  0  0  0  0
 19 20  1  0  0  0  0
 20 24  1  0  0  0  0
 20 21  1  0  0  0  0
 21 22  1  0  0  0  0
 21 45  1  0  0  0  0
 21 46  1  0  0  0  0
 22 23  1  0  0  0  0
 22 47  1  0  0  0  0
 22 48  1  0  0  0  0
 23 24  1  0  0  0  0
 23 49  1  0  0  0  0
 23 50  1  0  0  0  0
 24 51  1  0  0  0  0
 24 52  1  0  0  0  0
 25 53  1  0  0  0  0
 25 54  1  0  0  0  0
M  CHG  1   2   1
M  CHG  1  18   1
M  END
> <s_m_source_file>
AV-unprocessed.smi

> <i_m_source_file_index>
2928

> <i_lp_mmshare_version>
43012

> <i_f3d_flags>
0

> <s_epik_input>
W0NIMl0xW0NIMl1bQ0gyXVtDQEhdKE4oW0NIM10pW0NIXTEyKVtDSDJdW0NASF0oW0NIMl0yKVtOSF1DKD1PKVtOSF1jM1tjSF1bY0hdW2NIXW5jM040W0NIMl1bQ0gyXVtDSDJdW0NIMl00

> <s_epik_cmdline>
J2VwaWtfcHl0aG9uJywgJy1waCcsICc3LjAnLCAnLXRuJywgJzgnLCAnLW1hJywgJzIwMCcsICctbWV0YWxfYmluZGluZycsICctaW1hZScsICc8aW5maWxlLm1hZT4nLCAnLW9tYWUnLCAnPG91dGZpbGUubWFlPic=

> <r_lp_tautomer_probability>
0.999994

> <r_epik_Ionization_Penalty>
1.2404

> <r_epik_Ionization_Penalty_Charging>
1.24038

> <r_epik_Ionization_Penalty_Neutral>
1.86539e-05

> <r_epik_State_Penalty>
1.30821

> <r_epik_Charging_Adjusted_Penalty>
2.54859

> <i_epik_Tot_Q>
2

> <i_epik_Tot_abs_Q>
2

> <r_epik_Metal_State_Penalty>
1.3782

> <b_epik_Metal_Only>
0

> <s_lp_Force_Field>
OPLS_2005

> <r_lp_Energy>
76.0972

> <b_lp_Chiralities_Consistent>
1

> <s_lp_Variant>
AV-unprocessed.smi:2928-8

> <Gold.Version>
5.8.1

> <Gold.Id.Protein>
6NUR|6NUR_protein|mol2

> <Gold.PLP.Fitness>
42.0892

> <Gold.PLP.PLP>
-34.0600

> <Gold.PLP.part.hbond>
-2.8050

> <Gold.PLP.part.metal>
0.0000

> <Gold.PLP.part.buried>
-3.6782

> <Gold.PLP.part.nonpolar>
-27.2944

> <Gold.PLP.part.repulsive>
0.4110

> <Gold.PLP.ligand.clash>
1.9640

> <Gold.PLP.ligand.torsion>
0.5374

> <Gold.PLP.Chemscore.Hbond>
3.6640

> <Gold.PLP.Chemscore.CHOScore>
0.0000

> <Gold.PLP.Chemscore.Metal>
0.0000

> <Gold.Chemscore.Hbonds>
donor molecule, donor type, donor heavy atom, donor atom, acceptor molecule, acceptor atom, score
      L1  H     2    55       P1  8028  2.00
      L1  H    10    40       P1 10175  0.71
      L1  H    13    41       P1 10175  0.91

> <Gold.PLP.Chemscore.Internal.Correction>
0.0759

> <Gold.Rescore>
     Score         DG    S(hbond)    S(metal)    S(lipo)     H(rot)  DE(clash)    DE(int)     intcor
     17.30     -20.08       2.61        0.00      76.31       1.19       0.37       2.41       ----

> <Gold.Chemscore.Fitness>
17.3038

> <Gold.Chemscore.DG>
-20.0837

> <Gold.Chemscore.ZeroCoef>
-5.4800

> <Gold.Chemscore.Hbond>
2.6098

> <Gold.Chemscore.Metal>
0.0000

> <Gold.Chemscore.Lipo>
76.3080

> <Gold.Chemscore.Internal_Hbond>
0.0000

> <Gold.Chemscore.DEClash>
0.3685

> <Gold.Chemscore.DEInternal>
2.4114

> <Gold.Chemscore.Rot>
1.1879

> <Gold.Chemscore.Internal.Correction>
   9.000000E+99

> <Gold.Chemscore.Hbonds>
donor molecule, donor type, donor heavy atom, donor atom, acceptor molecule, acceptor atom, score
      L1  H     2    55       P1  8028  0.98
      L1  H    10    40       P1 10175  0.66
      L1  H    13    41       P1 10175  0.86

> <Gold.Chemscore.Hbond.Weighted>
-8.7167

> <Gold.Chemscore.Metal.Weighted>
-0.0000

> <Gold.Chemscore.Lipo.Weighted>
-8.9280

> <Gold.Chemscore.Internal_Hbond.Weighted>
0.0000

> <Gold.Chemscore.DEClash.Weighted>
0.3685

> <Gold.Chemscore.DEInternal.Weighted>
2.4114

> <Gold.Chemscore.Rot.Weighted>
3.0410

> <Gold.Chemscore.Internal.Correction.Weighted>
   9.000000E+99

> <Gold.Protein.RotatedTorsions>
[ 6907 6896 6895 6894 ] final -107.78 input  -60.11 | X-H torsion
[ 7974 7965 7964 7962 ] final   28.27 input  175.53 | X-H torsion
[ 8008 7997 7996 7995 ] final  100.93 input   59.86 | X-H torsion
[ 10167 10162 10161 10158 ] final  140.02 input  -65.29 | X-H torsion
[ 10718 10713 10712 10709 ] final -157.07 input   66.30 | X-H torsion
[ 10763 10752 10751 10750 ] final  -22.62 input  -60.55 | X-H torsion
[ 11005 11000 10999 10996 ] final   75.63 input  -57.11 | X-H torsion

> <Gold.Protein.ActiveResidues>
 VAL166  LYS551  ARG553  GLY616  TRP617  ASP618  TYR619  PRO620  LYS621  CYS622 
 ASP623  PHE694  ASN695  SER759  ASP760  ASP761  ALA762  ILE779  LEU786  VAL792 
 PHE793  MET794  SER795  GLU796  ALA797  LYS798  CYS799  TRP800  GLU811  SER814 

> <Gold.Protein.RotatedAtoms>
  150.7464  133.9775  159.3565 H   0  0  0  0  0  0  0  0  0  0  0  0  # atno 6907 bound_to 6896
  151.7713  135.0783  160.0369 H   0  0  0  0  0  0  0  0  0  0  0  0  # atno 6908 bound_to 6896
  152.3337  133.5950  159.5863 H   0  0  0  0  0  0  0  0  0  0  0  0  # atno 6909 bound_to 6896
  146.1738  139.7079  142.8949 H   0  0  0  0  0  0  0  0  0  0  0  0  # atno 7974 bound_to 7965
  156.1251  140.3205  155.8265 H   0  0  0  0  0  0  0  0  0  0  0  0  # atno 8008 bound_to 7997
  155.4435  140.0527  157.3025 H   0  0  0  0  0  0  0  0  0  0  0  0  # atno 8009 bound_to 7997
  154.4856  140.2071  155.9676 H   0  0  0  0  0  0  0  0  0  0  0  0  # atno 8010 bound_to 7997
  139.5061  144.6260  151.5936 H   0  0  0  0  0  0  0  0  0  0  0  0  # atno 10167 bound_to 10162
  156.5353  130.8539  151.2730 H   0  0  0  0  0  0  0  0  0  0  0  0  # atno 10718 bound_to 10713
  153.6549  135.6979  153.5196 H   0  0  0  0  0  0  0  0  0  0  0  0  # atno 10763 bound_to 10752
  153.2677  135.4224  155.0957 H   0  0  0  0  0  0  0  0  0  0  0  0  # atno 10764 bound_to 10752
  154.8467  135.3571  154.6093 H   0  0  0  0  0  0  0  0  0  0  0  0  # atno 10765 bound_to 10752
  139.9335  134.7533  156.1295 H   0  0  0  0  0  0  0  0  0  0  0  0  # atno 11005 bound_to 11000
  145.4267  141.0411  143.2933 LP  0  0  0  0  0  0  0  0  0  0  0  0  # atno 17320 bound_to 7965
  144.8204  139.5801  143.6989 LP  0  0  0  0  0  0  0  0  0  0  0  0  # atno 17321 bound_to 7965
  140.5977  143.9667  150.6365 LP  0  0  0  0  0  0  0  0  0  0  0  0  # atno 17342 bound_to 10162
  140.2868  143.3351  152.1100 LP  0  0  0  0  0  0  0  0  0  0  0  0  # atno 17343 bound_to 10162
  157.7415  130.9871  150.2448 LP  0  0  0  0  0  0  0  0  0  0  0  0  # atno 17370 bound_to 10713
  156.3022  130.3760  149.7740 LP  0  0  0  0  0  0  0  0  0  0  0  0  # atno 17371 bound_to 10713
  141.0936  133.6704  156.2596 LP  0  0  0  0  0  0  0  0  0  0  0  0  # atno 17394 bound_to 11000
  140.6138  134.5431  157.5537 LP  0  0  0  0  0  0  0  0  0  0  0  0  # atno 17395 bound_to 11000

$$$$
