AV-unprocessed.smi:413|AV-procd|sdf|2512|dock3
  -GOLD-   2262022463D 1   1.00000     0.00000
 Structure written by MMmdl.
 40 42  0  0  0  0  0  0  0  0  1 V2000
  154.3739  140.5110  160.5992 C   0  0  0  0  0  0  0  0  0  0  0  0
  153.1326  140.5039  159.8349 N   0  0  0  0  0  0  0  0  0  0  0  0
  152.4042  139.4226  159.4719 C   0  0  0  0  0  0  0  0  0  0  0  0
  152.6681  138.2491  159.7338 O   0  0  0  0  0  0  0  0  0  0  0  0
  151.3323  139.8562  158.7662 N   0  0  0  0  0  0  0  0  0  0  0  0
  150.2751  139.0249  158.1928 C   0  0  0  0  0  0  0  0  0  0  0  0
  149.7651  137.9690  159.1949 C   0  0  2  0  0  0  0  0  0  0  0  0
  150.1523  136.6889  158.7375 O   0  0  0  0  0  0  0  0  0  0  0  0
  148.2329  137.9710  159.3078 C   0  0  0  0  0  0  0  0  0  0  0  0
  147.8685  137.5216  160.6063 O   0  0  0  0  0  0  0  0  0  0  0  0
  147.4894  136.2060  160.7610 C   0  0  0  0  0  0  0  0  0  0  0  0
  147.1341  135.7925  162.0616 C   0  0  0  0  0  0  0  0  0  0  0  0
  146.7322  134.4665  162.3121 C   0  0  0  0  0  0  0  0  0  0  0  0
  146.6847  133.5353  161.2583 C   0  0  0  0  0  0  0  0  0  0  0  0
  146.2995  132.2594  161.4974 F   0  0  0  0  0  0  0  0  0  0  0  0
  147.0388  133.9334  159.9558 C   0  0  0  0  0  0  0  0  0  0  0  0
  147.4393  135.2605  159.7052 C   0  0  0  0  0  0  0  0  0  0  0  0
  151.3785  141.2552  158.6747 C   0  0  0  0  0  0  0  0  0  0  0  0
  150.5158  142.1738  158.0511 C   0  0  0  0  0  0  0  0  0  0  0  0
  150.8523  143.5446  158.1471 C   0  0  0  0  0  0  0  0  0  0  0  0
  152.0155  143.9612  158.8454 C   0  0  0  0  0  0  0  0  0  0  0  0
  152.8690  143.0154  159.4602 C   0  0  0  0  0  0  0  0  0  0  0  0
  152.5108  141.6609  159.3493 C   0  0  0  0  0  0  0  0  0  0  0  0
  154.6479  139.5142  160.9468 H   0  0  0  0  0  0  0  0  0  0  0  0
  154.2753  141.1553  161.4731 H   0  0  0  0  0  0  0  0  0  0  0  0
  155.1904  140.8906  159.9846 H   0  0  0  0  0  0  0  0  0  0  0  0
  149.4576  139.6905  157.9118 H   0  0  0  0  0  0  0  0  0  0  0  0
  150.5994  138.5576  157.2623 H   0  0  0  0  0  0  0  0  0  0  0  0
  150.1920  138.1311  160.1854 H   0  0  0  0  0  0  0  0  0  0  0  0
  150.0039  136.6467  157.8052 H   0  0  0  0  0  0  0  0  0  0  0  0
  147.8458  138.9748  159.1231 H   0  0  0  0  0  0  0  0  0  0  0  0
  147.8070  137.2998  158.5600 H   0  0  0  0  0  0  0  0  0  0  0  0
  147.1677  136.5012  162.8763 H   0  0  0  0  0  0  0  0  0  0  0  0
  146.4605  134.1645  163.3128 H   0  0  0  0  0  0  0  0  0  0  0  0
  147.0038  133.2194  159.1462 H   0  0  0  0  0  0  0  0  0  0  0  0
  147.7060  135.5279  158.6940 H   0  0  0  0  0  0  0  0  0  0  0  0
  149.6324  141.8538  157.5188 H   0  0  0  0  0  0  0  0  0  0  0  0
  150.2154  144.2833  157.6833 H   0  0  0  0  0  0  0  0  0  0  0  0
  152.2525  145.0131  158.9077 H   0  0  0  0  0  0  0  0  0  0  0  0
  153.7567  143.3239  159.9924 H   0  0  0  0  0  0  0  0  0  0  0  0
  1  2  1  0  0  0  0
  1 24  1  0  0  0  0
  1 25  1  0  0  0  0
  1 26  1  0  0  0  0
  2 23  1  0  0  0  0
  2  3  1  0  0  0  0
  3  4  2  0  0  0  0
  3  5  1  0  0  0  0
  5  6  1  0  0  0  0
  5 18  1  0  0  0  0
  6  7  1  0  0  0  0
  6 27  1  0  0  0  0
  6 28  1  0  0  0  0
  7  8  1  0  0  0  0
  7  9  1  0  0  0  0
  7 29  1  0  0  0  0
  8 30  1  0  0  0  0
  9 10  1  0  0  0  0
  9 31  1  0  0  0  0
  9 32  1  0  0  0  0
 10 11  1  0  0  0  0
 11 17  1  0  0  0  0
 11 12  2  0  0  0  0
 12 13  1  0  0  0  0
 12 33  1  0  0  0  0
 13 14  2  0  0  0  0
 13 34  1  0  0  0  0
 14 15  1  0  0  0  0
 14 16  1  0  0  0  0
 16 17  2  0  0  0  0
 16 35  1  0  0  0  0
 17 36  1  0  0  0  0
 18 23  2  0  0  0  0
 18 19  1  0  0  0  0
 19 20  2  0  0  0  0
 19 37  1  0  0  0  0
 20 21  1  0  0  0  0
 20 38  1  0  0  0  0
 21 22  2  0  0  0  0
 21 39  1  0  0  0  0
 22 23  1  0  0  0  0
 22 40  1  0  0  0  0
M  END
> <s_m_source_file>
AV-unprocessed.smi

> <i_m_source_file_index>
413

> <i_lp_mmshare_version>
43012

> <i_f3d_flags>
0

> <s_epik_input>
W2NIXTFbY0hdW2NIXVtjSF1jKGMxMiluKFtDSDNdKWMoPU8pbjJbQ0gyXVtDQEhdKFtPSF0pW0NIMl1PYzNbY0hdW2NIXWMoRilbY0hdW2NIXTM=

> <s_epik_cmdline>
J2VwaWtfcHl0aG9uJywgJy1waCcsICc3LjAnLCAnLXRuJywgJzgnLCAnLW1hJywgJzIwMCcsICctbWV0YWxfYmluZGluZycsICctaW1hZScsICc8aW5maWxlLm1hZT4nLCAnLW9tYWUnLCAnPG91dGZpbGUubWFlPic=

> <r_lp_tautomer_probability>
1

> <r_epik_Ionization_Penalty>
2.40172e-06

> <r_epik_Ionization_Penalty_Charging>
2.42369e-09

> <r_epik_Ionization_Penalty_Neutral>
2.3993e-06

> <r_epik_State_Penalty>
-0

> <r_epik_Charging_Adjusted_Penalty>
2.42369e-09

> <i_epik_Tot_Q>
0

> <i_epik_Tot_abs_Q>
0

> <r_epik_Metal_State_Penalty>
-0

> <b_epik_Metal_Only>
0

> <s_lp_Force_Field>
OPLS_2005

> <r_lp_Energy>
46.1897

> <b_lp_Chiralities_Consistent>
1

> <s_lp_Variant>
AV-unprocessed.smi:413-1

> <Gold.Version>
5.8.1

> <Gold.Id.Protein>
6NUR|6NUR_protein|mol2

> <Gold.PLP.Fitness>
51.8496

> <Gold.PLP.PLP>
-48.5606

> <Gold.PLP.part.hbond>
-3.0000

> <Gold.PLP.part.metal>
0.0000

> <Gold.PLP.part.buried>
-5.9312

> <Gold.PLP.part.nonpolar>
-41.9700

> <Gold.PLP.part.repulsive>
0.0000

> <Gold.PLP.ligand.clash>
0.0000

> <Gold.PLP.ligand.torsion>
1.4860

> <Gold.PLP.Chemscore.Hbond>
2.0712

> <Gold.PLP.Chemscore.CHOScore>
0.0000

> <Gold.PLP.Chemscore.Metal>
0.0000

> <Gold.Chemscore.Hbonds>
donor molecule, donor type, donor heavy atom, donor atom, acceptor molecule, acceptor atom, score
      P1  H  6896  6907       L1     8  0.67
      P1  H  6931  6943       L1    10  0.64
      P1  H  6934  6947       L1    10  0.34

> <Gold.PLP.Chemscore.Internal.Correction>
0.0475

> <Gold.Rescore>
     Score         DG    S(hbond)    S(metal)    S(lipo)     H(rot)  DE(clash)    DE(int)     intcor
     17.27     -18.97       1.77        0.00     114.58       2.27       0.17       1.53       ----

> <Gold.Chemscore.Fitness>
17.2653

> <Gold.Chemscore.DG>
-18.9687

> <Gold.Chemscore.ZeroCoef>
-5.4800

> <Gold.Chemscore.Hbond>
1.7650

> <Gold.Chemscore.Metal>
0.0000

> <Gold.Chemscore.Lipo>
114.5842

> <Gold.Chemscore.Internal_Hbond>
0.0000

> <Gold.Chemscore.DEClash>
0.1743

> <Gold.Chemscore.DEInternal>
1.5291

> <Gold.Chemscore.Rot>
2.2706

> <Gold.Chemscore.Internal.Correction>
   9.000000E+99

> <Gold.Chemscore.Hbonds>
donor molecule, donor type, donor heavy atom, donor atom, acceptor molecule, acceptor atom, score
      P1  H  6896  6907       L1     8  0.65
      P1  H  6931  6943       L1    10  0.46
      P1  H  6934  6947       L1    10  0.01

> <Gold.Chemscore.Hbond.Weighted>
-5.8952

> <Gold.Chemscore.Metal.Weighted>
-0.0000

> <Gold.Chemscore.Lipo.Weighted>
-13.4064

> <Gold.Chemscore.Internal_Hbond.Weighted>
0.0000

> <Gold.Chemscore.DEClash.Weighted>
0.1743

> <Gold.Chemscore.DEInternal.Weighted>
1.5291

> <Gold.Chemscore.Rot.Weighted>
5.8128

> <Gold.Chemscore.Internal.Correction.Weighted>
   9.000000E+99

> <Gold.Protein.RotatedTorsions>
[ 6907 6896 6895 6894 ] final  -29.83 input  -60.11 | X-H torsion
[ 7974 7965 7964 7962 ] final  148.41 input  175.53 | X-H torsion
[ 8008 7997 7996 7995 ] final   17.32 input   59.86 | X-H torsion
[ 10167 10162 10161 10158 ] final  159.60 input  -65.29 | X-H torsion
[ 10718 10713 10712 10709 ] final -121.28 input   66.30 | X-H torsion
[ 10763 10752 10751 10750 ] final  -53.91 input  -60.55 | X-H torsion
[ 11005 11000 10999 10996 ] final  -71.46 input  -57.11 | X-H torsion

> <Gold.Protein.ActiveResidues>
 VAL166  LYS551  ARG553  GLY616  TRP617  ASP618  TYR619  PRO620  LYS621  CYS622 
 ASP623  PHE694  ASN695  SER759  ASP760  ASP761  ALA762  ILE779  LEU786  VAL792 
 PHE793  MET794  SER795  GLU796  ALA797  LYS798  CYS799  TRP800  GLU811  SER814 

> <Gold.Protein.RotatedAtoms>
  151.1139  135.0042  159.8506 H   0  0  0  0  0  0  0  0  0  0  0  0  # atno 6907 bound_to 6896
  152.5444  134.1803  159.8643 H   0  0  0  0  0  0  0  0  0  0  0  0  # atno 6908 bound_to 6896
  151.1856  133.4654  159.2627 H   0  0  0  0  0  0  0  0  0  0  0  0  # atno 6909 bound_to 6896
  144.8516  139.6150  143.5971 H   0  0  0  0  0  0  0  0  0  0  0  0  # atno 7974 bound_to 7965
  154.8898  140.2985  155.5377 H   0  0  0  0  0  0  0  0  0  0  0  0  # atno 8008 bound_to 7997
  156.3021  140.2427  156.3846 H   0  0  0  0  0  0  0  0  0  0  0  0  # atno 8009 bound_to 7997
  154.8630  140.0404  157.1666 H   0  0  0  0  0  0  0  0  0  0  0  0  # atno 8010 bound_to 7997
  139.4833  144.4715  151.8570 H   0  0  0  0  0  0  0  0  0  0  0  0  # atno 10167 bound_to 10162
  156.1325  130.6406  150.9643 H   0  0  0  0  0  0  0  0  0  0  0  0  # atno 10718 bound_to 10713
  154.1664  135.6466  153.4998 H   0  0  0  0  0  0  0  0  0  0  0  0  # atno 10763 bound_to 10752
  153.0096  135.5373  154.6657 H   0  0  0  0  0  0  0  0  0  0  0  0  # atno 10764 bound_to 10752
  154.5985  135.2941  155.0533 H   0  0  0  0  0  0  0  0  0  0  0  0  # atno 10765 bound_to 10752
  141.1592  133.6818  156.6909 H   0  0  0  0  0  0  0  0  0  0  0  0  # atno 11005 bound_to 11000
  146.2789  139.6825  142.9243 LP  0  0  0  0  0  0  0  0  0  0  0  0  # atno 17320 bound_to 7965
  145.4489  141.0427  143.2816 LP  0  0  0  0  0  0  0  0  0  0  0  0  # atno 17321 bound_to 7965
  140.4184  144.2276  150.5887 LP  0  0  0  0  0  0  0  0  0  0  0  0  # atno 17342 bound_to 10162
  140.4898  143.2351  151.8835 LP  0  0  0  0  0  0  0  0  0  0  0  0  # atno 17343 bound_to 10162
  157.6501  131.0898  150.8069 LP  0  0  0  0  0  0  0  0  0  0  0  0  # atno 17370 bound_to 10713
  156.8152  130.4965  149.5350 LP  0  0  0  0  0  0  0  0  0  0  0  0  # atno 17371 bound_to 10713
  140.3031  134.8147  157.4114 LP  0  0  0  0  0  0  0  0  0  0  0  0  # atno 17394 bound_to 11000
  140.1244  134.5177  155.8156 LP  0  0  0  0  0  0  0  0  0  0  0  0  # atno 17395 bound_to 11000

$$$$
