AV-unprocessed.smi:1741|AV-procd|sdf|7016|dock5
  -GOLD-   22720 8233D 1   1.00000     0.00000
 Structure written by MMmdl.
 38 39  0  0  0  0  0  0  0  0  1 V2000
  155.2947  133.9325  159.0171 C   0  0  0  0  0  0  0  0  0  0  0  0
  155.1361  134.6978  157.6978 C   0  0  0  0  0  0  0  0  0  0  0  0
  154.1651  135.7685  157.8113 N   0  0  0  0  0  0  0  0  0  0  0  0
  154.2131  136.8819  158.6269 C   0  0  0  0  0  0  0  0  0  0  0  0
  153.0654  137.5776  158.3695 C   0  0  0  0  0  0  0  0  0  0  0  0
  152.6047  138.7942  158.9332 N   0  0  0  0  0  0  0  0  0  0  0  0
  153.3354  139.8753  159.2502 C   0  0  0  0  0  0  0  0  0  0  0  0
  154.5503  139.9814  159.0815 O   0  0  0  0  0  0  0  0  0  0  0  0
  152.5674  140.8423  159.7731 N   0  0  0  0  0  0  0  0  0  0  0  0
  153.0279  142.1538  160.2271 C   0  0  2  0  0  0  0  0  0  0  0  0
  153.3623  142.0694  161.7236 C   0  0  0  0  0  0  0  0  0  0  0  0
  151.9608  143.2298  159.9383 C   0  0  2  0  0  0  0  0  0  0  0  0
  151.9965  143.8159  158.5259 C   0  0  0  0  0  0  0  0  0  0  0  0
  151.2908  145.1369  158.7274 C   0  0  0  0  0  0  0  0  0  0  0  0
  151.7992  145.5611  160.1028 C   0  0  0  0  0  0  0  0  0  0  0  0
  152.1445  144.3593  160.7881 O   0  0  0  0  0  0  0  0  0  0  0  0
  152.3698  136.8271  157.3865 C   0  0  0  0  0  0  0  0  0  0  0  0
  153.0409  135.7352  157.0533 N   0  0  0  0  0  0  0  0  0  0  0  0
  156.0352  133.1387  158.9183 H   0  0  0  0  0  0  0  0  0  0  0  0
  154.3543  133.4734  159.3235 H   0  0  0  0  0  0  0  0  0  0  0  0
  155.6216  134.5950  159.8192 H   0  0  0  0  0  0  0  0  0  0  0  0
  156.0924  135.1248  157.3937 H   0  0  0  0  0  0  0  0  0  0  0  0
  154.8232  134.0213  156.9014 H   0  0  0  0  0  0  0  0  0  0  0  0
  155.0388  137.0662  159.2982 H   0  0  0  0  0  0  0  0  0  0  0  0
  151.6133  138.8456  159.1166 H   0  0  0  0  0  0  0  0  0  0  0  0
  151.5795  140.6577  159.8668 H   0  0  0  0  0  0  0  0  0  0  0  0
  153.9448  142.4274  159.7018 H   0  0  0  0  0  0  0  0  0  0  0  0
  153.7500  143.0184  162.0948 H   0  0  0  0  0  0  0  0  0  0  0  0
  154.1215  141.3103  161.9143 H   0  0  0  0  0  0  0  0  0  0  0  0
  152.4815  141.8168  162.3150 H   0  0  0  0  0  0  0  0  0  0  0  0
  150.9633  142.8297  160.1292 H   0  0  0  0  0  0  0  0  0  0  0  0
  153.0254  143.9873  158.2057 H   0  0  0  0  0  0  0  0  0  0  0  0
  151.5085  143.1802  157.7865 H   0  0  0  0  0  0  0  0  0  0  0  0
  151.5102  145.8664  157.9474 H   0  0  0  0  0  0  0  0  0  0  0  0
  150.2115  144.9816  158.7575 H   0  0  0  0  0  0  0  0  0  0  0  0
  152.6958  146.1743  160.0081 H   0  0  0  0  0  0  0  0  0  0  0  0
  151.0551  146.1333  160.6570 H   0  0  0  0  0  0  0  0  0  0  0  0
  151.4208  137.0326  156.9137 H   0  0  0  0  0  0  0  0  0  0  0  0
  1  2  1  0  0  0  0
  1 19  1  0  0  0  0
  1 20  1  0  0  0  0
  1 21  1  0  0  0  0
  2  3  1  0  0  0  0
  2 22  1  0  0  0  0
  2 23  1  0  0  0  0
  3 18  1  0  0  0  0
  3  4  1  0  0  0  0
  4  5  2  0  0  0  0
  4 24  1  0  0  0  0
  5  6  1  0  0  0  0
  5 17  1  0  0  0  0
  6  7  1  0  0  0  0
  6 25  1  0  0  0  0
  7  8  2  0  0  0  0
  7  9  1  0  0  0  0
  9 10  1  0  0  0  0
  9 26  1  0  0  0  0
 10 11  1  0  0  0  0
 10 12  1  0  0  0  0
 10 27  1  0  0  0  0
 11 28  1  0  0  0  0
 11 29  1  0  0  0  0
 11 30  1  0  0  0  0
 12 16  1  0  0  0  0
 12 13  1  0  0  0  0
 12 31  1  0  0  0  0
 13 14  1  0  0  0  0
 13 32  1  0  0  0  0
 13 33  1  0  0  0  0
 14 15  1  0  0  0  0
 14 34  1  0  0  0  0
 14 35  1  0  0  0  0
 15 16  1  0  0  0  0
 15 36  1  0  0  0  0
 15 37  1  0  0  0  0
 17 18  2  0  0  0  0
 17 38  1  0  0  0  0
M  END
> <s_m_source_file>
AV-unprocessed.smi

> <i_m_source_file_index>
1741

> <i_lp_mmshare_version>
43012

> <i_f3d_flags>
0

> <s_epik_input>
W0NIM11bQ0gyXW4xW2NIXWMoW2NIXW4xKVtOSF1DKD1PKVtOSF1bQ0BIXShbQ0gzXSlbQ0BASF0yW0NIMl1bQ0gyXVtDSDJdTzI=

> <s_epik_cmdline>
J2VwaWtfcHl0aG9uJywgJy1waCcsICc3LjAnLCAnLXRuJywgJzgnLCAnLW1hJywgJzIwMCcsICctbWV0YWxfYmluZGluZycsICctaW1hZScsICc8aW5maWxlLm1hZT4nLCAnLW9tYWUnLCAnPG91dGZpbGUubWFlPic=

> <r_lp_tautomer_probability>
1

> <r_epik_Ionization_Penalty>
0.000179292

> <r_epik_Ionization_Penalty_Charging>
0

> <r_epik_Ionization_Penalty_Neutral>
0.000179292

> <r_epik_State_Penalty>
-0

> <r_epik_Charging_Adjusted_Penalty>
0

> <i_epik_Tot_Q>
0

> <i_epik_Tot_abs_Q>
0

> <r_epik_Metal_State_Penalty>
-0

> <b_epik_Metal_Only>
0

> <s_lp_Force_Field>
OPLS_2005

> <r_lp_Energy>
21.1803

> <b_lp_Chiralities_Consistent>
1

> <s_lp_Variant>
AV-unprocessed.smi:1741-1

> <Gold.Version>
5.8.1

> <Gold.Id.Protein>
6NUR|6NUR_protein|mol2

> <Gold.PLP.Fitness>
37.8206

> <Gold.PLP.PLP>
-34.1495

> <Gold.PLP.part.hbond>
-2.0000

> <Gold.PLP.part.metal>
0.0000

> <Gold.PLP.part.buried>
-5.1847

> <Gold.PLP.part.nonpolar>
-26.0379

> <Gold.PLP.part.repulsive>
0.3353

> <Gold.PLP.ligand.clash>
0.0000

> <Gold.PLP.ligand.torsion>
1.1720

> <Gold.PLP.Chemscore.Hbond>
2.0000

> <Gold.PLP.Chemscore.CHOScore>
0.0000

> <Gold.PLP.Chemscore.Metal>
0.0000

> <Gold.Chemscore.Hbonds>
donor molecule, donor type, donor heavy atom, donor atom, acceptor molecule, acceptor atom, score
      P1  H  7997  8008       L1     8  1.00
      P1  H 10752 10763       L1    18  1.00

> <Gold.PLP.Chemscore.Internal.Correction>
0.0150

> <Gold.Rescore>
     Score         DG    S(hbond)    S(metal)    S(lipo)     H(rot)  DE(clash)    DE(int)     intcor
     17.40     -18.17       1.84        0.00      86.27       1.38       0.01       0.77       ----

> <Gold.Chemscore.Fitness>
17.3989

> <Gold.Chemscore.DG>
-18.1747

> <Gold.Chemscore.ZeroCoef>
-5.4800

> <Gold.Chemscore.Hbond>
1.8357

> <Gold.Chemscore.Metal>
0.0000

> <Gold.Chemscore.Lipo>
86.2703

> <Gold.Chemscore.Internal_Hbond>
0.0000

> <Gold.Chemscore.DEClash>
0.0060

> <Gold.Chemscore.DEInternal>
0.7698

> <Gold.Chemscore.Rot>
1.3790

> <Gold.Chemscore.Internal.Correction>
   9.000000E+99

> <Gold.Chemscore.Hbonds>
donor molecule, donor type, donor heavy atom, donor atom, acceptor molecule, acceptor atom, score
      P1  H  7997  8008       L1     8  0.88
      P1  H 10752 10763       L1    18  0.60

> <Gold.Chemscore.Hbond.Weighted>
-6.1313

> <Gold.Chemscore.Metal.Weighted>
-0.0000

> <Gold.Chemscore.Lipo.Weighted>
-10.0936

> <Gold.Chemscore.Internal_Hbond.Weighted>
0.0000

> <Gold.Chemscore.DEClash.Weighted>
0.0060

> <Gold.Chemscore.DEInternal.Weighted>
0.7698

> <Gold.Chemscore.Rot.Weighted>
3.5302

> <Gold.Chemscore.Internal.Correction.Weighted>
   9.000000E+99

> <Gold.Protein.RotatedTorsions>
[ 6907 6896 6895 6894 ] final  105.66 input  -60.11 | X-H torsion
[ 7974 7965 7964 7962 ] final -167.25 input  175.53 | X-H torsion
[ 8008 7997 7996 7995 ] final -118.16 input   59.86 | X-H torsion
[ 10167 10162 10161 10158 ] final  -57.10 input  -65.29 | X-H torsion
[ 10718 10713 10712 10709 ] final  -27.93 input   66.30 | X-H torsion
[ 10763 10752 10751 10750 ] final  118.34 input  -60.55 | X-H torsion
[ 11005 11000 10999 10996 ] final   81.88 input  -57.11 | X-H torsion

> <Gold.Protein.ActiveResidues>
 VAL166  LYS551  ARG553  GLY616  TRP617  ASP618  TYR619  PRO620  LYS621  CYS622 
 ASP623  PHE694  ASN695  SER759  ASP760  ASP761  ALA762  ILE779  LEU786  VAL792 
 PHE793  MET794  SER795  GLU796  ALA797  LYS798  CYS799  TRP800  GLU811  SER814 

> <Gold.Protein.RotatedAtoms>
  152.5222  133.9495  159.7664 H   0  0  0  0  0  0  0  0  0  0  0  0  # atno 6907 bound_to 6896
  150.9808  133.6239  159.2730 H   0  0  0  0  0  0  0  0  0  0  0  0  # atno 6908 bound_to 6896
  151.3417  135.0871  159.9426 H   0  0  0  0  0  0  0  0  0  0  0  0  # atno 6909 bound_to 6896
  144.7227  140.2546  143.6273 H   0  0  0  0  0  0  0  0  0  0  0  0  # atno 7974 bound_to 7965
  155.0952  140.0395  157.2680 H   0  0  0  0  0  0  0  0  0  0  0  0  # atno 8008 bound_to 7997
  154.6801  140.2631  155.6892 H   0  0  0  0  0  0  0  0  0  0  0  0  # atno 8009 bound_to 7997
  156.2691  140.2780  156.1342 H   0  0  0  0  0  0  0  0  0  0  0  0  # atno 8010 bound_to 7997
  140.6278  143.2446  151.5319 H   0  0  0  0  0  0  0  0  0  0  0  0  # atno 10167 bound_to 10162
  156.4318  130.4446  149.7112 H   0  0  0  0  0  0  0  0  0  0  0  0  # atno 10718 bound_to 10713
  153.5661  135.3511  155.2819 H   0  0  0  0  0  0  0  0  0  0  0  0  # atno 10763 bound_to 10752
  154.8688  135.4148  154.2777 H   0  0  0  0  0  0  0  0  0  0  0  0  # atno 10764 bound_to 10752
  153.3532  135.7056  153.6841 H   0  0  0  0  0  0  0  0  0  0  0  0  # atno 10765 bound_to 10752
  139.9083  134.8029  156.2100 H   0  0  0  0  0  0  0  0  0  0  0  0  # atno 11005 bound_to 11000
  145.8194  139.2037  143.1946 LP  0  0  0  0  0  0  0  0  0  0  0  0  # atno 17320 bound_to 7965
  146.0527  140.8053  142.9774 LP  0  0  0  0  0  0  0  0  0  0  0  0  # atno 17321 bound_to 7965
  139.5496  144.2431  152.1505 LP  0  0  0  0  0  0  0  0  0  0  0  0  # atno 17342 bound_to 10162
  140.1667  144.4975  150.6602 LP  0  0  0  0  0  0  0  0  0  0  0  0  # atno 17343 bound_to 10162
  156.4012  130.7676  151.2683 LP  0  0  0  0  0  0  0  0  0  0  0  0  # atno 17370 bound_to 10713
  157.7508  131.0239  150.3854 LP  0  0  0  0  0  0  0  0  0  0  0  0  # atno 17371 bound_to 10713
  141.0472  133.6907  156.1704 LP  0  0  0  0  0  0  0  0  0  0  0  0  # atno 17394 bound_to 11000
  140.6866  134.4710  157.5589 LP  0  0  0  0  0  0  0  0  0  0  0  0  # atno 17395 bound_to 11000

$$$$
