AV-unprocessed.smi:2061|AV-procd|sdf|8382|dock6
  -GOLD-   2272011 63D 1   1.00000     0.00000
 Structure written by MMmdl.
 45 46  0  0  0  0  0  0  0  0  3 V2000
  152.0332  140.4643  158.4705 C   0  0  0  0  0  0  0  0  0  0  0  0
  151.7853  139.9667  157.0877 C   0  0  0  0  0  0  0  0  0  0  0  0
  150.6547  139.8622  156.3282 C   0  0  0  0  0  0  0  0  0  0  0  0
  151.1337  139.3148  155.1067 C   0  0  0  0  0  0  0  0  0  0  0  0
  150.3887  139.0124  154.0324 N   0  5  0  0  0  0  0  0  0  0  0  0
  149.0681  139.3032  154.0150 C   0  0  0  0  0  0  0  0  0  0  0  0
  148.5065  140.2032  154.6439 O   0  0  0  0  0  0  0  0  0  0  0  0
  148.3500  138.4945  153.2230 N   0  0  0  0  0  0  0  0  0  0  0  0
  146.9050  138.5592  153.0272 C   0  0  0  0  0  0  0  0  0  0  0  0
  146.1331  137.4855  153.8389 C   0  0  2  0  0  0  0  0  0  0  0  0
  146.6320  137.4638  155.3045 C   0  0  0  0  0  0  0  0  0  0  0  0
  146.2291  136.1574  153.1504 N   0  3  1  0  0  0  0  0  0  0  0  0
  146.1428  134.9594  154.0298 C   0  0  0  0  0  0  0  0  0  0  0  0
  146.3132  133.6523  153.2286 C   0  0  2  0  0  0  0  0  0  0  0  0
  147.7647  133.3873  152.7891 C   0  0  0  0  0  0  0  0  0  0  0  0
  145.4038  133.6128  152.1311 O   0  0  0  0  0  0  0  0  0  0  0  0
  145.4950  134.7254  151.2482 C   0  0  1  0  0  0  0  0  0  0  0  0
  144.4608  134.5274  150.1344 C   0  0  0  0  0  0  0  0  0  0  0  0
  145.2498  136.0210  152.0402 C   0  0  0  0  0  0  0  0  0  0  0  0
  152.4368  139.0901  155.1295 N   0  0  0  0  0  0  0  0  0  0  0  0
  152.8636  139.5121  156.3943 O   0  0  0  0  0  0  0  0  0  0  0  0
  151.3022  140.0518  159.1659 H   0  0  0  0  0  0  0  0  0  0  0  0
  151.9599  141.5510  158.5071 H   0  0  0  0  0  0  0  0  0  0  0  0
  153.0268  140.1806  158.8183 H   0  0  0  0  0  0  0  0  0  0  0  0
  149.6466  140.1366  156.6002 H   0  0  0  0  0  0  0  0  0  0  0  0
  148.8499  137.7744  152.7221 H   0  0  0  0  0  0  0  0  0  0  0  0
  146.5774  139.5703  153.2663 H   0  0  0  0  0  0  0  0  0  0  0  0
  146.7089  138.4255  151.9630 H   0  0  0  0  0  0  0  0  0  0  0  0
  145.0771  137.7580  153.8746 H   0  0  0  0  0  0  0  0  0  0  0  0
  146.5713  138.4496  155.7652 H   0  0  0  0  0  0  0  0  0  0  0  0
  147.6709  137.1389  155.3678 H   0  0  0  0  0  0  0  0  0  0  0  0
  146.0278  136.8096  155.9329 H   0  0  0  0  0  0  0  0  0  0  0  0
  146.9108  134.9768  154.8026 H   0  0  0  0  0  0  0  0  0  0  0  0
  145.1760  134.9593  154.5356 H   0  0  0  0  0  0  0  0  0  0  0  0
  146.0291  132.8259  153.8810 H   0  0  0  0  0  0  0  0  0  0  0  0
  148.4156  133.2684  153.6558 H   0  0  0  0  0  0  0  0  0  0  0  0
  148.1713  134.2014  152.1898 H   0  0  0  0  0  0  0  0  0  0  0  0
  147.8317  132.4719  152.2009 H   0  0  0  0  0  0  0  0  0  0  0  0
  146.4830  134.7568  150.7886 H   0  0  0  0  0  0  0  0  0  0  0  0
  144.4880  135.3521  149.4217 H   0  0  0  0  0  0  0  0  0  0  0  0
  143.4501  134.4678  150.5392 H   0  0  0  0  0  0  0  0  0  0  0  0
  144.6530  133.6066  149.5830 H   0  0  0  0  0  0  0  0  0  0  0  0
  144.2372  136.0255  152.4479 H   0  0  0  0  0  0  0  0  0  0  0  0
  145.3124  136.8651  151.3558 H   0  0  0  0  0  0  0  0  0  0  0  0
  147.1497  136.1275  152.7363 H   0  0  0  0  0  0  0  0  0  0  0  0
  1  2  1  0  0  0  0
  1 22  1  0  0  0  0
  1 23  1  0  0  0  0
  1 24  1  0  0  0  0
  2 21  1  0  0  0  0
  2  3  2  0  0  0  0
  3  4  1  0  0  0  0
  3 25  1  0  0  0  0
  4  5  1  0  0  0  0
  4 20  2  0  0  0  0
  5  6  1  0  0  0  0
  6  7  2  0  0  0  0
  6  8  1  0  0  0  0
  8  9  1  0  0  0  0
  8 26  1  0  0  0  0
  9 10  1  0  0  0  0
  9 27  1  0  0  0  0
  9 28  1  0  0  0  0
 10 11  1  0  0  0  0
 10 12  1  0  0  0  0
 10 29  1  0  0  0  0
 11 30  1  0  0  0  0
 11 31  1  0  0  0  0
 11 32  1  0  0  0  0
 12 19  1  0  0  0  0
 12 13  1  0  0  0  0
 12 45  1  0  0  0  0
 13 14  1  0  0  0  0
 13 33  1  0  0  0  0
 13 34  1  0  0  0  0
 14 15  1  0  0  0  0
 14 16  1  0  0  0  0
 14 35  1  0  0  0  0
 15 36  1  0  0  0  0
 15 37  1  0  0  0  0
 15 38  1  0  0  0  0
 16 17  1  0  0  0  0
 17 18  1  0  0  0  0
 17 19  1  0  0  0  0
 17 39  1  0  0  0  0
 18 40  1  0  0  0  0
 18 41  1  0  0  0  0
 18 42  1  0  0  0  0
 19 43  1  0  0  0  0
 19 44  1  0  0  0  0
 20 21  1  0  0  0  0
M  CHG  1   5  -1
M  CHG  1  12   1
M  END
> <s_m_source_file>
AV-unprocessed.smi

> <i_m_source_file_index>
2061

> <i_lp_mmshare_version>
43012

> <i_f3d_flags>
0

> <s_epik_input>
W0NIM11jMVtjSF1jKG5vMSlbTkhdQyg9TylbTkhdW0NIMl1bQ0BIXShbQ0gzXSlOMltDSDJdW0NAQEhdKFtDSDNdKU9bQ0BASF0oW0NIM10pW0NIMl0y

> <s_epik_cmdline>
J2VwaWtfcHl0aG9uJywgJy1waCcsICc3LjAnLCAnLXRuJywgJzgnLCAnLW1hJywgJzIwMCcsICctbWV0YWxfYmluZGluZycsICctaW1hZScsICc8aW5maWxlLm1hZT4nLCAnLW9tYWUnLCAnPG91dGZpbGUubWFlPic=

> <r_epik_Ionization_Penalty>
6.73511

> <r_epik_Ionization_Penalty_Charging>
6.73502

> <r_epik_Ionization_Penalty_Neutral>
9.50841e-05

> <r_epik_State_Penalty>
6.93549

> <r_epik_Charging_Adjusted_Penalty>
13.6705

> <i_epik_Tot_Q>
0

> <i_epik_Tot_abs_Q>
2

> <r_epik_Metal_State_Penalty>
2.87211

> <b_epik_Metal_Only>
1

> <s_lp_Force_Field>
OPLS_2005

> <r_lp_Energy>
12.0901

> <b_lp_Chiralities_Consistent>
1

> <s_lp_Variant>
AV-unprocessed.smi:2061-23

> <Gold.Version>
5.8.1

> <Gold.Id.Protein>
6NUR|6NUR_protein|mol2

> <Gold.PLP.Fitness>
37.1143

> <Gold.PLP.PLP>
-27.1144

> <Gold.PLP.part.hbond>
-4.9844

> <Gold.PLP.part.metal>
0.0000

> <Gold.PLP.part.buried>
-1.1225

> <Gold.PLP.part.nonpolar>
-22.2883

> <Gold.PLP.part.repulsive>
1.0202

> <Gold.PLP.ligand.clash>
0.0000

> <Gold.PLP.ligand.torsion>
1.0313

> <Gold.PLP.Chemscore.Hbond>
4.0000

> <Gold.PLP.Chemscore.CHOScore>
0.0000

> <Gold.PLP.Chemscore.Metal>
0.0000

> <Gold.Chemscore.Hbonds>
donor molecule, donor type, donor heavy atom, donor atom, acceptor molecule, acceptor atom, score
      L1  H     8    26       P1  7948  1.00
      L1  H    12    45       P1  7948  2.00
      P1  H  7997  8008       L1    21  1.00

> <Gold.PLP.Chemscore.Internal.Correction>
0.0624

> <Gold.Rescore>
     Score         DG    S(hbond)    S(metal)    S(lipo)     H(rot)  DE(clash)    DE(int)     intcor
     14.40     -17.00       2.89        0.00      49.96       1.56       0.20       2.40       ----

> <Gold.Chemscore.Fitness>
14.4016

> <Gold.Chemscore.DG>
-17.0011

> <Gold.Chemscore.ZeroCoef>
-5.4800

> <Gold.Chemscore.Hbond>
2.8914

> <Gold.Chemscore.Metal>
0.0000

> <Gold.Chemscore.Lipo>
49.9553

> <Gold.Chemscore.Internal_Hbond>
0.0000

> <Gold.Chemscore.DEClash>
0.2036

> <Gold.Chemscore.DEInternal>
2.3958

> <Gold.Chemscore.Rot>
1.5550

> <Gold.Chemscore.Internal.Correction>
   9.000000E+99

> <Gold.Chemscore.Hbonds>
donor molecule, donor type, donor heavy atom, donor atom, acceptor molecule, acceptor atom, score
      L1  H     8    26       P1  7948  0.98
      L1  H    12    45       P1  7948  0.96
      P1  H  7997  8008       L1    21  0.84

> <Gold.Chemscore.Hbond.Weighted>
-9.6571

> <Gold.Chemscore.Metal.Weighted>
-0.0000

> <Gold.Chemscore.Lipo.Weighted>
-5.8448

> <Gold.Chemscore.Internal_Hbond.Weighted>
0.0000

> <Gold.Chemscore.DEClash.Weighted>
0.2036

> <Gold.Chemscore.DEInternal.Weighted>
2.3958

> <Gold.Chemscore.Rot.Weighted>
3.9809

> <Gold.Chemscore.Internal.Correction.Weighted>
   9.000000E+99

> <Gold.Protein.RotatedTorsions>
[ 6907 6896 6895 6894 ] final -177.82 input  -60.11 | X-H torsion
[ 7974 7965 7964 7962 ] final  -75.14 input  175.53 | X-H torsion
[ 8008 7997 7996 7995 ] final  -45.12 input   59.86 | X-H torsion
[ 10167 10162 10161 10158 ] final   37.23 input  -65.29 | X-H torsion
[ 10718 10713 10712 10709 ] final -132.86 input   66.30 | X-H torsion
[ 10763 10752 10751 10750 ] final  122.54 input  -60.55 | X-H torsion
[ 11005 11000 10999 10996 ] final   67.84 input  -57.11 | X-H torsion

> <Gold.Protein.ActiveResidues>
 VAL166  LYS551  ARG553  GLY616  TRP617  ASP618  TYR619  PRO620  LYS621  CYS622 
 ASP623  PHE694  ASN695  SER759  ASP760  ASP761  ALA762  ILE779  LEU786  VAL792 
 PHE793  MET794  SER795  GLU796  ALA797  LYS798  CYS799  TRP800  GLU811  SER814 

> <Gold.Protein.RotatedAtoms>
  151.6273  133.3334  159.3100 H   0  0  0  0  0  0  0  0  0  0  0  0  # atno 6907 bound_to 6896
  150.8075  134.7212  159.6669 H   0  0  0  0  0  0  0  0  0  0  0  0  # atno 6908 bound_to 6896
  152.4171  134.6027  160.0056 H   0  0  0  0  0  0  0  0  0  0  0  0  # atno 6909 bound_to 6896
  145.6299  140.9340  143.1093 H   0  0  0  0  0  0  0  0  0  0  0  0  # atno 7974 bound_to 7965
  154.3999  140.1405  156.3795 H   0  0  0  0  0  0  0  0  0  0  0  0  # atno 8008 bound_to 7997
  155.8017  140.3475  155.5386 H   0  0  0  0  0  0  0  0  0  0  0  0  # atno 8009 bound_to 7997
  155.8477  140.0936  157.1685 H   0  0  0  0  0  0  0  0  0  0  0  0  # atno 8010 bound_to 7997
  140.4052  144.1669  150.6136 H   0  0  0  0  0  0  0  0  0  0  0  0  # atno 10167 bound_to 10162
  156.2389  130.7084  151.0937 H   0  0  0  0  0  0  0  0  0  0  0  0  # atno 10718 bound_to 10713
  153.6313  135.3395  155.3042 H   0  0  0  0  0  0  0  0  0  0  0  0  # atno 10763 bound_to 10752
  154.8579  135.4296  154.2103 H   0  0  0  0  0  0  0  0  0  0  0  0  # atno 10764 bound_to 10752
  153.2999  135.7024  153.7286 H   0  0  0  0  0  0  0  0  0  0  0  0  # atno 10765 bound_to 10752
  139.9747  134.6842  156.0378 H   0  0  0  0  0  0  0  0  0  0  0  0  # atno 11005 bound_to 11000
  144.7198  139.8070  143.7386 LP  0  0  0  0  0  0  0  0  0  0  0  0  # atno 17320 bound_to 7965
  146.1365  139.4412  143.0136 LP  0  0  0  0  0  0  0  0  0  0  0  0  # atno 17321 bound_to 7965
  140.4697  143.2417  151.9106 LP  0  0  0  0  0  0  0  0  0  0  0  0  # atno 17342 bound_to 10162
  139.4783  144.5382  151.8567 LP  0  0  0  0  0  0  0  0  0  0  0  0  # atno 17343 bound_to 10162
  157.7167  131.0706  150.6300 LP  0  0  0  0  0  0  0  0  0  0  0  0  # atno 17370 bound_to 10713
  156.6372  130.4448  149.5765 LP  0  0  0  0  0  0  0  0  0  0  0  0  # atno 17371 bound_to 10713
  141.1425  133.6562  156.3770 LP  0  0  0  0  0  0  0  0  0  0  0  0  # atno 17394 bound_to 11000
  140.5220  134.6295  157.5321 LP  0  0  0  0  0  0  0  0  0  0  0  0  # atno 17395 bound_to 11000

$$$$
