AV-unprocessed.smi:153|AV-procd|sdf|1250|dock8
  -GOLD-   2262018483D 1   1.00000     0.00000
 Structure written by MMmdl.
 60 63  0  0  0  0  0  0  0  0  2 V2000
  152.4616  144.6434  158.0901 C   0  0  0  0  0  0  0  0  0  0  0  0
  151.4493  143.7238  158.7953 C   0  0  2  0  0  0  0  0  0  0  0  0
  152.1223  143.2933  159.9799 O   0  0  0  0  0  0  0  0  0  0  0  0
  152.4273  141.9033  159.9255 C   0  0  0  0  0  0  0  0  0  0  0  0
  152.1823  141.4819  158.4803 C   0  0  0  0  0  0  0  0  0  0  0  0
  151.0780  142.4270  158.0387 C   0  0  1  0  0  0  0  0  0  0  0  0
  149.8518  141.9580  158.5752 O   0  0  0  0  0  0  0  0  0  0  0  0
  150.9329  142.5151  156.4933 C   0  0  0  0  0  0  0  0  0  0  0  0
  150.2312  141.3919  155.8805 N   0  0  0  0  0  0  0  0  0  0  0  0
  150.5556  140.0575  155.9627 C   0  0  0  0  0  0  0  0  0  0  0  0
  149.7512  139.2499  155.3295 N   0  0  0  0  0  0  0  0  0  0  0  0
  148.7831  140.0794  154.7736 C   0  0  0  0  0  0  0  0  0  0  0  0
  147.6117  139.8703  153.9796 C   0  0  0  0  0  0  0  0  0  0  0  0
  147.1601  138.6568  153.5477 N   0  0  0  0  0  0  0  0  0  0  0  0
  147.3452  137.4710  154.3750 C   0  0  0  0  0  0  0  0  0  0  0  0
  146.2350  138.5630  152.4140 C   0  0  0  0  0  0  0  0  0  0  0  0
  146.2491  137.1742  151.7434 C   0  0  2  0  0  0  0  0  0  0  0  0
  146.1727  137.3865  150.3478 O   0  0  0  0  0  0  0  0  0  0  0  0
  145.0600  136.2838  152.1678 C   0  0  0  0  0  0  0  0  0  0  0  0
  144.9791  135.0191  151.3952 N   0  3  0  0  0  0  0  0  0  0  0  0
  146.2290  134.2192  151.4379 C   0  0  0  0  0  0  0  0  0  0  0  0
  146.0798  132.9416  150.5943 C   0  0  0  0  0  0  0  0  0  0  0  0
  144.9668  132.1886  151.0593 O   0  0  0  0  0  0  0  0  0  0  0  0
  143.7483  132.9121  150.9411 C   0  0  0  0  0  0  0  0  0  0  0  0
  143.8205  134.1870  151.7980 C   0  0  0  0  0  0  0  0  0  0  0  0
  146.8913  140.9764  153.6525 N   0  0  0  0  0  0  0  0  0  0  0  0
  147.2697  142.1897  154.0602 C   0  0  0  0  0  0  0  0  0  0  0  0
  148.3255  142.5263  154.7991 N   0  0  0  0  0  0  0  0  0  0  0  0
  149.0658  141.4308  155.1313 C   0  0  0  0  0  0  0  0  0  0  0  0
  152.0511  145.0928  157.1905 H   0  0  0  0  0  0  0  0  0  0  0  0
  153.3683  144.1057  157.8124 H   0  0  0  0  0  0  0  0  0  0  0  0
  152.7557  145.4621  158.7471 H   0  0  0  0  0  0  0  0  0  0  0  0
  150.5631  144.3048  159.0557 H   0  0  0  0  0  0  0  0  0  0  0  0
  153.4497  141.7064  160.2483 H   0  0  0  0  0  0  0  0  0  0  0  0
  151.7529  141.3726  160.5986 H   0  0  0  0  0  0  0  0  0  0  0  0
  153.0837  141.6556  157.8909 H   0  0  0  0  0  0  0  0  0  0  0  0
  151.9212  140.4273  158.3835 H   0  0  0  0  0  0  0  0  0  0  0  0
  149.4530  141.3737  157.9486 H   0  0  0  0  0  0  0  0  0  0  0  0
  150.4404  143.4411  156.1958 H   0  0  0  0  0  0  0  0  0  0  0  0
  151.9257  142.5594  156.0439 H   0  0  0  0  0  0  0  0  0  0  0  0
  151.4015  139.6850  156.5184 H   0  0  0  0  0  0  0  0  0  0  0  0
  148.3853  137.3737  154.6878 H   0  0  0  0  0  0  0  0  0  0  0  0
  147.0843  136.5673  153.8237 H   0  0  0  0  0  0  0  0  0  0  0  0
  146.7106  137.5151  155.2603 H   0  0  0  0  0  0  0  0  0  0  0  0
  145.2177  138.8484  152.6824 H   0  0  0  0  0  0  0  0  0  0  0  0
  146.5495  139.3105  151.6844 H   0  0  0  0  0  0  0  0  0  0  0  0
  147.2016  136.6894  151.9547 H   0  0  0  0  0  0  0  0  0  0  0  0
  145.4639  137.9840  150.1660 H   0  0  0  0  0  0  0  0  0  0  0  0
  145.1181  136.0278  153.2251 H   0  0  0  0  0  0  0  0  0  0  0  0
  144.1378  136.8548  152.0468 H   0  0  0  0  0  0  0  0  0  0  0  0
  147.0703  134.8015  151.0639 H   0  0  0  0  0  0  0  0  0  0  0  0
  146.4600  133.9545  152.4712 H   0  0  0  0  0  0  0  0  0  0  0  0
  145.9559  133.1836  149.5376 H   0  0  0  0  0  0  0  0  0  0  0  0
  146.9782  132.3298  150.6773 H   0  0  0  0  0  0  0  0  0  0  0  0
  143.5549  133.1556  149.8953 H   0  0  0  0  0  0  0  0  0  0  0  0
  142.9270  132.2791  151.2778 H   0  0  0  0  0  0  0  0  0  0  0  0
  143.9073  133.9247  152.8537 H   0  0  0  0  0  0  0  0  0  0  0  0
  142.8975  134.7566  151.6832 H   0  0  0  0  0  0  0  0  0  0  0  0
  146.6352  143.0069  153.7503 H   0  0  0  0  0  0  0  0  0  0  0  0
  144.8195  135.2766  150.4319 H   0  0  0  0  0  0  0  0  0  0  0  0
  1  2  1  0  0  0  0
  1 30  1  0  0  0  0
  1 31  1  0  0  0  0
  1 32  1  0  0  0  0
  2  6  1  0  0  0  0
  2  3  1  0  0  0  0
  2 33  1  0  0  0  0
  3  4  1  0  0  0  0
  4  5  1  0  0  0  0
  4 34  1  0  0  0  0
  4 35  1  0  0  0  0
  5  6  1  0  0  0  0
  5 36  1  0  0  0  0
  5 37  1  0  0  0  0
  6  7  1  0  0  0  0
  6  8  1  0  0  0  0
  7 38  1  0  0  0  0
  8  9  1  0  0  0  0
  8 39  1  0  0  0  0
  8 40  1  0  0  0  0
  9 29  1  0  0  0  0
  9 10  1  0  0  0  0
 10 11  2  0  0  0  0
 10 41  1  0  0  0  0
 11 12  1  0  0  0  0
 12 29  2  0  0  0  0
 12 13  1  0  0  0  0
 13 14  1  0  0  0  0
 13 26  2  0  0  0  0
 14 15  1  0  0  0  0
 14 16  1  0  0  0  0
 15 42  1  0  0  0  0
 15 43  1  0  0  0  0
 15 44  1  0  0  0  0
 16 17  1  0  0  0  0
 16 45  1  0  0  0  0
 16 46  1  0  0  0  0
 17 18  1  0  0  0  0
 17 19  1  0  0  0  0
 17 47  1  0  0  0  0
 18 48  1  0  0  0  0
 19 20  1  0  0  0  0
 19 49  1  0  0  0  0
 19 50  1  0  0  0  0
 20 25  1  0  0  0  0
 20 21  1  0  0  0  0
 20 60  1  0  0  0  0
 21 22  1  0  0  0  0
 21 51  1  0  0  0  0
 21 52  1  0  0  0  0
 22 23  1  0  0  0  0
 22 53  1  0  0  0  0
 22 54  1  0  0  0  0
 23 24  1  0  0  0  0
 24 25  1  0  0  0  0
 24 55  1  0  0  0  0
 24 56  1  0  0  0  0
 25 57  1  0  0  0  0
 25 58  1  0  0  0  0
 26 27  1  0  0  0  0
 27 28  2  0  0  0  0
 27 59  1  0  0  0  0
 28 29  1  0  0  0  0
M  CHG  1  20   1
M  END
> <s_m_source_file>
AV-unprocessed.smi

> <i_m_source_file_index>
153

> <i_lp_mmshare_version>
43012

> <i_f3d_flags>
0

> <s_epik_input>
W0NIMl0xW0NIMl1PW0NAQEhdKFtDSDNdKVtDQEBdMShbT0hdKVtDSDJdbihbY0hdbjIpYyhjMjMpbltjSF1uYzNOKFtDSDNdKVtDSDJdW0NASF0oW09IXSlbQ0gyXU40W0NIMl1bQ0gyXU9bQ0gyXVtDSDJdNA==

> <s_epik_cmdline>
J2VwaWtfcHl0aG9uJywgJy1waCcsICc3LjAnLCAnLXRuJywgJzgnLCAnLW1hJywgJzIwMCcsICctbWV0YWxfYmluZGluZycsICctaW1hZScsICc8aW5maWxlLm1hZT4nLCAnLW9tYWUnLCAnPG91dGZpbGUubWFlPic=

> <r_lp_tautomer_probability>
1

> <r_epik_Ionization_Penalty>
0.403509

> <r_epik_Ionization_Penalty_Charging>
0.40072

> <r_epik_Ionization_Penalty_Neutral>
0.00278876

> <r_epik_State_Penalty>
0.400058

> <r_epik_Charging_Adjusted_Penalty>
0.800778

> <i_epik_Tot_Q>
1

> <i_epik_Tot_abs_Q>
1

> <r_epik_Metal_State_Penalty>
0.400321

> <b_epik_Metal_Only>
0

> <s_lp_Force_Field>
OPLS_2005

> <r_lp_Energy>
46.9593

> <b_lp_Chiralities_Consistent>
1

> <s_lp_Variant>
AV-unprocessed.smi:153-1

> <Gold.Version>
5.8.1

> <Gold.Id.Protein>
6NUR|6NUR_protein|mol2

> <Gold.PLP.Fitness>
51.8063

> <Gold.PLP.PLP>
-49.1644

> <Gold.PLP.part.hbond>
-2.4456

> <Gold.PLP.part.metal>
0.0000

> <Gold.PLP.part.buried>
-6.8596

> <Gold.PLP.part.nonpolar>
-46.2408

> <Gold.PLP.part.repulsive>
5.0142

> <Gold.PLP.ligand.clash>
0.0000

> <Gold.PLP.ligand.torsion>
1.4777

> <Gold.PLP.Chemscore.Hbond>
1.7680

> <Gold.PLP.Chemscore.CHOScore>
0.0000

> <Gold.PLP.Chemscore.Metal>
0.0000

> <Gold.Chemscore.Hbonds>
donor molecule, donor type, donor heavy atom, donor atom, acceptor molecule, acceptor atom, score
      L1  H    18    48       P1 10171  1.00
      P1  H  7954  7966       L1    18  0.69

> <Gold.PLP.Chemscore.Internal.Correction>
0.2932

> <Gold.Rescore>
     Score         DG    S(hbond)    S(metal)    S(lipo)     H(rot)  DE(clash)    DE(int)     intcor
     10.12     -14.97       1.55        0.00     115.89       3.62       3.48       1.37       ----

> <Gold.Chemscore.Fitness>
10.1239

> <Gold.Chemscore.DG>
-14.9657

> <Gold.Chemscore.ZeroCoef>
-5.4800

> <Gold.Chemscore.Hbond>
1.5536

> <Gold.Chemscore.Metal>
0.0000

> <Gold.Chemscore.Lipo>
115.8908

> <Gold.Chemscore.Internal_Hbond>
0.0000

> <Gold.Chemscore.DEClash>
3.4752

> <Gold.Chemscore.DEInternal>
1.3666

> <Gold.Chemscore.Rot>
3.6182

> <Gold.Chemscore.Internal.Correction>
   9.000000E+99

> <Gold.Chemscore.Hbonds>
donor molecule, donor type, donor heavy atom, donor atom, acceptor molecule, acceptor atom, score
      L1  H    18    48       P1 10171  1.00
      P1  H  7954  7966       L1    18  0.23

> <Gold.Chemscore.Hbond.Weighted>
-5.1889

> <Gold.Chemscore.Metal.Weighted>
-0.0000

> <Gold.Chemscore.Lipo.Weighted>
-13.5592

> <Gold.Chemscore.Internal_Hbond.Weighted>
0.0000

> <Gold.Chemscore.DEClash.Weighted>
3.4752

> <Gold.Chemscore.DEInternal.Weighted>
1.3666

> <Gold.Chemscore.Rot.Weighted>
9.2625

> <Gold.Chemscore.Internal.Correction.Weighted>
   9.000000E+99

> <Gold.Protein.RotatedTorsions>
[ 6907 6896 6895 6894 ] final   97.32 input  -60.11 | X-H torsion
[ 7974 7965 7964 7962 ] final  -94.85 input  175.53 | X-H torsion
[ 8008 7997 7996 7995 ] final  112.51 input   59.86 | X-H torsion
[ 10167 10162 10161 10158 ] final  147.18 input  -65.29 | X-H torsion
[ 10718 10713 10712 10709 ] final  -68.44 input   66.30 | X-H torsion
[ 10763 10752 10751 10750 ] final   48.87 input  -60.55 | X-H torsion
[ 11005 11000 10999 10996 ] final   87.06 input  -57.11 | X-H torsion

> <Gold.Protein.ActiveResidues>
 VAL166  LYS551  ARG553  GLY616  TRP617  ASP618  TYR619  PRO620  LYS621  CYS622 
 ASP623  PHE694  ASN695  SER759  ASP760  ASP761  ALA762  ILE779  LEU786  VAL792 
 PHE793  MET794  SER795  GLU796  ALA797  LYS798  CYS799  TRP800  GLU811  SER814 

> <Gold.Protein.RotatedAtoms>
  152.5425  134.0751  159.8210 H   0  0  0  0  0  0  0  0  0  0  0  0  # atno 6907 bound_to 6896
  151.0861  133.5345  159.2625 H   0  0  0  0  0  0  0  0  0  0  0  0  # atno 6908 bound_to 6896
  151.2154  135.0506  159.8982 H   0  0  0  0  0  0  0  0  0  0  0  0  # atno 6909 bound_to 6896
  145.3679  140.9501  143.2464 H   0  0  0  0  0  0  0  0  0  0  0  0  # atno 7974 bound_to 7965
  156.2197  140.2998  155.9923 H   0  0  0  0  0  0  0  0  0  0  0  0  # atno 8008 bound_to 7997
  155.2514  140.0426  157.3004 H   0  0  0  0  0  0  0  0  0  0  0  0  # atno 8009 bound_to 7997
  154.5821  140.2378  155.8046 H   0  0  0  0  0  0  0  0  0  0  0  0  # atno 8010 bound_to 7997
  139.4894  144.5775  151.6937 H   0  0  0  0  0  0  0  0  0  0  0  0  # atno 10167 bound_to 10162
  156.0505  130.4295  150.2001 H   0  0  0  0  0  0  0  0  0  0  0  0  # atno 10718 bound_to 10713
  152.9789  135.5930  154.3997 H   0  0  0  0  0  0  0  0  0  0  0  0  # atno 10763 bound_to 10752
  154.3644  135.2767  155.2304 H   0  0  0  0  0  0  0  0  0  0  0  0  # atno 10764 bound_to 10752
  154.4287  135.6041  153.6110 H   0  0  0  0  0  0  0  0  0  0  0  0  # atno 10765 bound_to 10752
  139.8929  134.8397  156.2807 H   0  0  0  0  0  0  0  0  0  0  0  0  # atno 11005 bound_to 11000
  144.8598  139.5194  143.6817 LP  0  0  0  0  0  0  0  0  0  0  0  0  # atno 17320 bound_to 7965
  146.2898  139.7108  142.9169 LP  0  0  0  0  0  0  0  0  0  0  0  0  # atno 17321 bound_to 7965
  140.5374  144.0634  150.6075 LP  0  0  0  0  0  0  0  0  0  0  0  0  # atno 17342 bound_to 10162
  140.3644  143.2889  152.0347 LP  0  0  0  0  0  0  0  0  0  0  0  0  # atno 17343 bound_to 10162
  157.0085  130.9944  151.3372 LP  0  0  0  0  0  0  0  0  0  0  0  0  # atno 17370 bound_to 10713
  157.5426  130.8130  149.8047 LP  0  0  0  0  0  0  0  0  0  0  0  0  # atno 17371 bound_to 10713
  141.0040  133.7134  156.1005 LP  0  0  0  0  0  0  0  0  0  0  0  0  # atno 17394 bound_to 11000
  140.7459  134.4099  157.5548 LP  0  0  0  0  0  0  0  0  0  0  0  0  # atno 17395 bound_to 11000

$$$$
