AV-unprocessed.smi:581|AV-procd|sdf|2991|dock6
  -GOLD-   2262023493D 1   1.00000     0.00000
 Structure written by MMmdl.
 35 36  0  0  0  0  0  0  0  0  2 V2000
  150.6718  138.5921  157.7722 C   0  0  0  0  0  0  0  0  0  0  0  0
  150.4592  139.9566  157.1407 C   0  0  0  0  0  0  0  0  0  0  0  0
  150.7387  141.0549  157.9638 N   0  0  0  0  0  0  0  0  0  0  0  0
  150.5931  142.2620  157.5149 C   0  0  0  0  0  0  0  0  0  0  0  0
  150.8294  143.4363  158.2341 N   0  0  0  0  0  0  0  0  0  0  0  0
  149.7854  144.0649  159.0478 C   0  0  0  0  0  0  0  0  0  0  0  0
  150.3913  144.9645  160.1380 C   0  0  0  0  0  0  0  0  0  0  0  0
  151.2508  145.9269  159.5431 O   0  0  0  0  0  0  0  0  0  0  0  0
  152.3329  145.3048  158.8641 C   0  0  0  0  0  0  0  0  0  0  0  0
  151.7922  144.4163  157.7313 C   0  0  0  0  0  0  0  0  0  0  0  0
  150.1458  142.4748  156.2064 N   0  0  0  0  0  0  0  0  0  0  0  0
  149.8518  141.4849  155.3346 C   0  0  0  0  0  0  0  0  0  0  0  0
  149.4690  141.7525  154.1968 O   0  0  0  0  0  0  0  0  0  0  0  0
  150.0297  140.1206  155.8581 C   0  0  0  0  0  0  0  0  0  0  0  0
  149.6964  138.9529  154.9330 C   0  0  0  0  0  0  0  0  0  0  0  0
  150.8606  138.6184  153.9769 C   0  0  0  0  0  0  0  0  0  0  0  0
  152.2260  138.5728  154.6759 C   0  0  0  0  0  0  0  0  0  0  0  0
  152.9305  139.6070  154.6919 O   0  0  0  0  0  0  0  0  0  0  0  0
  152.5459  137.4796  155.1909 O   0  5  0  0  0  0  0  0  0  0  0  0
  150.0337  143.4246  155.8843 H   0  0  0  0  0  0  0  0  0  0  0  0
  151.3052  137.9691  157.1401 H   0  0  0  0  0  0  0  0  0  0  0  0
  149.7165  138.0860  157.9132 H   0  0  0  0  0  0  0  0  0  0  0  0
  151.1546  138.6771  158.7464 H   0  0  0  0  0  0  0  0  0  0  0  0
  149.1460  144.6584  158.3930 H   0  0  0  0  0  0  0  0  0  0  0  0
  149.1421  143.3255  159.5245 H   0  0  0  0  0  0  0  0  0  0  0  0
  149.5995  145.4833  160.6782 H   0  0  0  0  0  0  0  0  0  0  0  0
  150.9402  144.3709  160.8709 H   0  0  0  0  0  0  0  0  0  0  0  0
  152.9858  146.0762  158.4562 H   0  0  0  0  0  0  0  0  0  0  0  0
  152.9307  144.7198  159.5650 H   0  0  0  0  0  0  0  0  0  0  0  0
  152.6299  143.9153  157.2440 H   0  0  0  0  0  0  0  0  0  0  0  0
  151.3057  145.0321  156.9739 H   0  0  0  0  0  0  0  0  0  0  0  0
  149.4381  138.0752  155.5255 H   0  0  0  0  0  0  0  0  0  0  0  0
  148.7949  139.1895  154.3651 H   0  0  0  0  0  0  0  0  0  0  0  0
  150.6872  137.6526  153.5012 H   0  0  0  0  0  0  0  0  0  0  0  0
  150.9092  139.3585  153.1775 H   0  0  0  0  0  0  0  0  0  0  0  0
  1  2  1  0  0  0  0
  1 21  1  0  0  0  0
  1 22  1  0  0  0  0
  1 23  1  0  0  0  0
  2 14  2  0  0  0  0
  2  3  1  0  0  0  0
  3  4  2  0  0  0  0
  4  5  1  0  0  0  0
  4 11  1  0  0  0  0
  5 10  1  0  0  0  0
  5  6  1  0  0  0  0
  6  7  1  0  0  0  0
  6 24  1  0  0  0  0
  6 25  1  0  0  0  0
  7  8  1  0  0  0  0
  7 26  1  0  0  0  0
  7 27  1  0  0  0  0
  8  9  1  0  0  0  0
  9 10  1  0  0  0  0
  9 28  1  0  0  0  0
  9 29  1  0  0  0  0
 10 30  1  0  0  0  0
 10 31  1  0  0  0  0
 11 20  1  0  0  0  0
 11 12  1  0  0  0  0
 12 13  2  0  0  0  0
 12 14  1  0  0  0  0
 14 15  1  0  0  0  0
 15 16  1  0  0  0  0
 15 32  1  0  0  0  0
 15 33  1  0  0  0  0
 16 17  1  0  0  0  0
 16 34  1  0  0  0  0
 16 35  1  0  0  0  0
 17 18  2  0  0  0  0
 17 19  1  0  0  0  0
M  CHG  1  19  -1
M  END
> <s_m_source_file>
AV-unprocessed.smi

> <i_m_source_file_index>
581

> <i_lp_mmshare_version>
43012

> <i_f3d_flags>
0

> <s_epik_input>
W0NIMl0xW0NIMl1PW0NIMl1bQ0gyXU4xYyhuYzJbQ0gzXSlbbkhdYyg9TyljMltDSDJdW0NIMl1DKD1PKVtPSF0=

> <s_epik_cmdline>
J2VwaWtfcHl0aG9uJywgJy1waCcsICc3LjAnLCAnLXRuJywgJzgnLCAnLW1hJywgJzIwMCcsICctbWV0YWxfYmluZGluZycsICctaW1hZScsICc8aW5maWxlLm1hZT4nLCAnLW9tYWUnLCAnPG91dGZpbGUubWFlPic=

> <r_lp_tautomer_probability>
0.878553

> <r_epik_Ionization_Penalty>
0.00211884

> <r_epik_Ionization_Penalty_Charging>
0.00208365

> <r_epik_Ionization_Penalty_Neutral>
3.51846e-05

> <r_epik_State_Penalty>
0.0663044

> <r_epik_Charging_Adjusted_Penalty>
0.0683881

> <i_epik_Tot_Q>
-1

> <i_epik_Tot_abs_Q>
1

> <r_epik_Metal_State_Penalty>
0.312881

> <b_epik_Metal_Only>
0

> <s_lp_Force_Field>
OPLS_2005

> <r_lp_Energy>
24.7506

> <b_lp_Chiralities_Consistent>
1

> <s_lp_Variant>
AV-unprocessed.smi:581-1

> <Gold.Version>
5.8.1

> <Gold.Id.Protein>
6NUR|6NUR_protein|mol2

> <Gold.PLP.Fitness>
50.1918

> <Gold.PLP.PLP>
-39.5971

> <Gold.PLP.part.hbond>
-7.8753

> <Gold.PLP.part.metal>
0.0000

> <Gold.PLP.part.buried>
-6.2430

> <Gold.PLP.part.nonpolar>
-25.5908

> <Gold.PLP.part.repulsive>
0.5644

> <Gold.PLP.ligand.clash>
0.0000

> <Gold.PLP.ligand.torsion>
2.0192

> <Gold.PLP.Chemscore.Hbond>
4.8059

> <Gold.PLP.Chemscore.CHOScore>
0.0000

> <Gold.PLP.Chemscore.Metal>
0.0000

> <Gold.Chemscore.Hbonds>
donor molecule, donor type, donor heavy atom, donor atom, acceptor molecule, acceptor atom, score
      L1  H    11    20       P1  8028  0.91
      P1  H  7989  7998       L1    18  0.30
      P1  H  7997  8010       L1    18  2.00
      P1  H  8011  8017       L1    13  0.50
      P1  H 10752 10765       L1    19  1.15

> <Gold.PLP.Chemscore.Internal.Correction>
0.2152

> <Gold.Rescore>
     Score         DG    S(hbond)    S(metal)    S(lipo)     H(rot)  DE(clash)    DE(int)     intcor
     16.29     -18.93       3.02        0.00      70.05       1.89       0.66       1.97       ----

> <Gold.Chemscore.Fitness>
16.2898

> <Gold.Chemscore.DG>
-18.9261

> <Gold.Chemscore.ZeroCoef>
-5.4800

> <Gold.Chemscore.Hbond>
3.0196

> <Gold.Chemscore.Metal>
0.0000

> <Gold.Chemscore.Lipo>
70.0545

> <Gold.Chemscore.Internal_Hbond>
0.0000

> <Gold.Chemscore.DEClash>
0.6614

> <Gold.Chemscore.DEInternal>
1.9750

> <Gold.Chemscore.Rot>
1.8890

> <Gold.Chemscore.Internal.Correction>
   9.000000E+99

> <Gold.Chemscore.Hbonds>
donor molecule, donor type, donor heavy atom, donor atom, acceptor molecule, acceptor atom, score
      L1  H    11    20       P1  8028  0.88
      P1  H  7989  7998       L1    18  0.07
      P1  H  7997  8010       L1    18  0.94
      P1  H  8011  8017       L1    13  0.48
      P1  H 10752 10765       L1    19  0.56

> <Gold.Chemscore.Hbond.Weighted>
-10.0855

> <Gold.Chemscore.Metal.Weighted>
-0.0000

> <Gold.Chemscore.Lipo.Weighted>
-8.1964

> <Gold.Chemscore.Internal_Hbond.Weighted>
0.0000

> <Gold.Chemscore.DEClash.Weighted>
0.6614

> <Gold.Chemscore.DEInternal.Weighted>
1.9750

> <Gold.Chemscore.Rot.Weighted>
4.8357

> <Gold.Chemscore.Internal.Correction.Weighted>
   9.000000E+99

> <Gold.Protein.RotatedTorsions>
[ 6907 6896 6895 6894 ] final  -53.18 input  -60.11 | X-H torsion
[ 7974 7965 7964 7962 ] final  -95.37 input  175.53 | X-H torsion
[ 8008 7997 7996 7995 ] final  108.84 input   59.86 | X-H torsion
[ 10167 10162 10161 10158 ] final -124.31 input  -65.29 | X-H torsion
[ 10718 10713 10712 10709 ] final -173.81 input   66.30 | X-H torsion
[ 10763 10752 10751 10750 ] final -173.74 input  -60.55 | X-H torsion
[ 11005 11000 10999 10996 ] final    7.67 input  -57.11 | X-H torsion

> <Gold.Protein.ActiveResidues>
 VAL166  LYS551  ARG553  GLY616  TRP617  ASP618  TYR619  PRO620  LYS621  CYS622 
 ASP623  PHE694  ASN695  SER759  ASP760  ASP761  ALA762  ILE779  LEU786  VAL792 
 PHE793  MET794  SER795  GLU796  ALA797  LYS798  CYS799  TRP800  GLU811  SER814 

> <Gold.Protein.RotatedAtoms>
  150.8450  134.7755  159.6962 H   0  0  0  0  0  0  0  0  0  0  0  0  # atno 6907 bound_to 6896
  152.4529  134.5352  159.9832 H   0  0  0  0  0  0  0  0  0  0  0  0  # atno 6908 bound_to 6896
  151.5484  133.3383  159.2984 H   0  0  0  0  0  0  0  0  0  0  0  0  # atno 6909 bound_to 6896
  145.3609  140.9491  143.2501 H   0  0  0  0  0  0  0  0  0  0  0  0  # atno 7974 bound_to 7965
  156.1933  140.3069  155.9377 H   0  0  0  0  0  0  0  0  0  0  0  0  # atno 8008 bound_to 7997
  155.3123  140.0451  157.3052 H   0  0  0  0  0  0  0  0  0  0  0  0  # atno 8009 bound_to 7997
  154.5479  140.2282  155.8542 H   0  0  0  0  0  0  0  0  0  0  0  0  # atno 8010 bound_to 7997
  139.9942  143.5609  152.2330 H   0  0  0  0  0  0  0  0  0  0  0  0  # atno 10167 bound_to 10162
  156.7758  130.9465  151.3120 H   0  0  0  0  0  0  0  0  0  0  0  0  # atno 10718 bound_to 10713
  154.6043  135.2858  155.0501 H   0  0  0  0  0  0  0  0  0  0  0  0  # atno 10763 bound_to 10752
  154.1754  135.6465  153.5024 H   0  0  0  0  0  0  0  0  0  0  0  0  # atno 10764 bound_to 10752
  153.0169  135.5411  154.6774 H   0  0  0  0  0  0  0  0  0  0  0  0  # atno 10765 bound_to 10752
  140.5456  134.0333  155.7919 H   0  0  0  0  0  0  0  0  0  0  0  0  # atno 11005 bound_to 11000
  144.8647  139.5125  143.6796 LP  0  0  0  0  0  0  0  0  0  0  0  0  # atno 17320 bound_to 7965
  146.2927  139.7187  142.9149 LP  0  0  0  0  0  0  0  0  0  0  0  0  # atno 17321 bound_to 7965
  139.6318  144.7645  151.2520 LP  0  0  0  0  0  0  0  0  0  0  0  0  # atno 17342 bound_to 10162
  140.7443  143.6466  150.8286 LP  0  0  0  0  0  0  0  0  0  0  0  0  # atno 17343 bound_to 10162
  157.6669  130.9016  149.9953 LP  0  0  0  0  0  0  0  0  0  0  0  0  # atno 17370 bound_to 10713
  156.1249  130.3645  149.9826 LP  0  0  0  0  0  0  0  0  0  0  0  0  # atno 17371 bound_to 10713
  141.1202  133.9474  157.2745 LP  0  0  0  0  0  0  0  0  0  0  0  0  # atno 17394 bound_to 11000
  139.9481  135.0180  156.8914 LP  0  0  0  0  0  0  0  0  0  0  0  0  # atno 17395 bound_to 11000

$$$$
