AV-unprocessed.smi:1352|AV-procd|sdf|5528|dock9
  -GOLD-   22720 5113D 1   1.00000     0.00000
 Structure written by MMmdl.
 47 48  0  0  0  0  0  0  0  0  2 V2000
  142.0140  136.0319  153.7357 C   0  0  0  0  0  0  0  0  0  0  0  0
  143.1092  136.1273  152.6640 C   0  0  2  0  0  0  0  0  0  0  0  0
  143.7950  134.7671  152.4421 C   0  0  0  0  0  0  0  0  0  0  0  0
  144.9375  134.8667  151.4149 C   0  0  1  0  0  0  0  0  0  0  0  0
  144.4326  135.0048  149.9676 C   0  0  0  0  0  0  0  0  0  0  0  0
  145.9155  135.9939  151.8019 C   0  0  0  0  0  0  0  0  0  0  0  0
  145.2161  137.2929  151.9843 N   0  3  2  0  0  0  0  0  0  0  0  0
  146.1638  138.4127  152.2130 C   0  0  0  0  0  0  0  0  0  0  0  0
  146.7827  138.3793  153.6238 C   0  0  0  0  0  0  0  0  0  0  0  0
  147.9652  139.2279  153.7114 N   0  0  0  0  0  0  0  0  0  0  0  0
  148.0232  140.4005  154.3608 C   0  0  0  0  0  0  0  0  0  0  0  0
  147.0547  140.8969  154.9379 O   0  0  0  0  0  0  0  0  0  0  0  0
  149.3780  141.1223  154.3287 C   0  0  0  0  0  0  0  0  0  0  0  0
  150.1046  141.0578  155.6079 N   0  0  0  0  0  0  0  0  0  0  0  0
  149.5669  141.7837  156.6895 C   0  0  0  0  0  0  0  0  0  0  0  0
  150.1501  141.7919  157.8987 C   0  0  0  0  0  0  0  0  0  0  0  0
  151.3629  141.0296  158.0767 C   0  0  0  0  0  0  0  0  0  0  0  0
  151.8840  140.3289  157.0498 C   0  0  0  0  0  0  0  0  0  0  0  0
  151.2479  140.3143  155.7274 C   0  0  0  0  0  0  0  0  0  0  0  0
  151.7131  139.6727  154.7848 O   0  0  0  0  0  0  0  0  0  0  0  0
  144.1549  137.2008  153.0221 C   0  0  0  0  0  0  0  0  0  0  0  0
  142.4272  135.7393  154.7015 H   0  0  0  0  0  0  0  0  0  0  0  0
  141.2585  135.2954  153.4608 H   0  0  0  0  0  0  0  0  0  0  0  0
  141.5072  136.9885  153.8666 H   0  0  0  0  0  0  0  0  0  0  0  0
  142.6236  136.4250  151.7340 H   0  0  0  0  0  0  0  0  0  0  0  0
  144.2007  134.4107  153.3902 H   0  0  0  0  0  0  0  0  0  0  0  0
  143.0661  134.0203  152.1242 H   0  0  0  0  0  0  0  0  0  0  0  0
  145.4907  133.9274  151.4559 H   0  0  0  0  0  0  0  0  0  0  0  0
  143.8933  135.9384  149.8093 H   0  0  0  0  0  0  0  0  0  0  0  0
  143.7616  134.1859  149.7070 H   0  0  0  0  0  0  0  0  0  0  0  0
  145.2631  134.9827  149.2617 H   0  0  0  0  0  0  0  0  0  0  0  0
  146.4321  135.7361  152.7280 H   0  0  0  0  0  0  0  0  0  0  0  0
  146.6836  136.0864  151.0325 H   0  0  0  0  0  0  0  0  0  0  0  0
  146.9406  138.4039  151.4467 H   0  0  0  0  0  0  0  0  0  0  0  0
  145.6298  139.3567  152.0969 H   0  0  0  0  0  0  0  0  0  0  0  0
  146.0485  138.6864  154.3710 H   0  0  0  0  0  0  0  0  0  0  0  0
  147.0917  137.3695  153.8906 H   0  0  0  0  0  0  0  0  0  0  0  0
  148.8049  138.8926  153.2611 H   0  0  0  0  0  0  0  0  0  0  0  0
  149.9935  140.7039  153.5299 H   0  0  0  0  0  0  0  0  0  0  0  0
  149.2025  142.1594  154.0398 H   0  0  0  0  0  0  0  0  0  0  0  0
  148.6550  142.3222  156.4761 H   0  0  0  0  0  0  0  0  0  0  0  0
  149.7216  142.3510  158.7174 H   0  0  0  0  0  0  0  0  0  0  0  0
  151.8548  141.0202  159.0383 H   0  0  0  0  0  0  0  0  0  0  0  0
  152.7916  139.7636  157.2023 H   0  0  0  0  0  0  0  0  0  0  0  0
  143.6504  138.1603  153.1283 H   0  0  0  0  0  0  0  0  0  0  0  0
  144.6107  136.9775  153.9884 H   0  0  0  0  0  0  0  0  0  0  0  0
  144.7553  137.4859  151.1063 H   0  0  0  0  0  0  0  0  0  0  0  0
  1  2  1  0  0  0  0
  1 22  1  0  0  0  0
  1 23  1  0  0  0  0
  1 24  1  0  0  0  0
  2 21  1  0  0  0  0
  2  3  1  0  0  0  0
  2 25  1  0  0  0  0
  3  4  1  0  0  0  0
  3 26  1  0  0  0  0
  3 27  1  0  0  0  0
  4  5  1  0  0  0  0
  4  6  1  0  0  0  0
  4 28  1  0  0  0  0
  5 29  1  0  0  0  0
  5 30  1  0  0  0  0
  5 31  1  0  0  0  0
  6  7  1  0  0  0  0
  6 32  1  0  0  0  0
  6 33  1  0  0  0  0
  7  8  1  0  0  0  0
  7 21  1  0  0  0  0
  7 47  1  0  0  0  0
  8  9  1  0  0  0  0
  8 34  1  0  0  0  0
  8 35  1  0  0  0  0
  9 10  1  0  0  0  0
  9 36  1  0  0  0  0
  9 37  1  0  0  0  0
 10 11  1  0  0  0  0
 10 38  1  0  0  0  0
 11 12  2  0  0  0  0
 11 13  1  0  0  0  0
 13 14  1  0  0  0  0
 13 39  1  0  0  0  0
 13 40  1  0  0  0  0
 14 19  1  0  0  0  0
 14 15  1  0  0  0  0
 15 16  2  0  0  0  0
 15 41  1  0  0  0  0
 16 17  1  0  0  0  0
 16 42  1  0  0  0  0
 17 18  2  0  0  0  0
 17 43  1  0  0  0  0
 18 19  1  0  0  0  0
 18 44  1  0  0  0  0
 19 20  2  0  0  0  0
 21 45  1  0  0  0  0
 21 46  1  0  0  0  0
M  CHG  1   7   1
M  END
> <s_m_source_file>
AV-unprocessed.smi

> <i_m_source_file_index>
1352

> <i_lp_mmshare_version>
43012

> <i_f3d_flags>
0

> <s_epik_input>
W0NIM11bQ0BASF0xW0NIMl1bQ0BASF0oW0NIM10pW0NIMl1OKFtDSDJdMSlbQ0gyXVtDSDJdW05IXUMoPU8pW0NIMl1uMltjSF1bY0hdW2NIXVtjSF1jMj1P

> <s_epik_cmdline>
J2VwaWtfcHl0aG9uJywgJy1waCcsICc3LjAnLCAnLXRuJywgJzgnLCAnLW1hJywgJzIwMCcsICctbWV0YWxfYmluZGluZycsICctaW1hZScsICc8aW5maWxlLm1hZT4nLCAnLW9tYWUnLCAnPG91dGZpbGUubWFlPic=

> <r_lp_tautomer_probability>
1

> <r_epik_Ionization_Penalty>
0.00156146

> <r_epik_Ionization_Penalty_Charging>
0.00156138

> <r_epik_Ionization_Penalty_Neutral>
8.12891e-08

> <r_epik_State_Penalty>
0.00104868

> <r_epik_Charging_Adjusted_Penalty>
0.00261006

> <i_epik_Tot_Q>
1

> <i_epik_Tot_abs_Q>
1

> <r_epik_Metal_State_Penalty>
-0

> <b_epik_Metal_Only>
0

> <s_lp_Force_Field>
OPLS_2005

> <r_lp_Energy>
27.9536

> <b_lp_Chiralities_Consistent>
1

> <s_lp_Variant>
AV-unprocessed.smi:1352-1

> <Gold.Version>
5.8.1

> <Gold.Id.Protein>
6NUR|6NUR_protein|mol2

> <Gold.PLP.Fitness>
42.7753

> <Gold.PLP.PLP>
-35.2693

> <Gold.PLP.part.hbond>
-2.6428

> <Gold.PLP.part.metal>
0.0000

> <Gold.PLP.part.buried>
-0.1964

> <Gold.PLP.part.nonpolar>
-32.8088

> <Gold.PLP.part.repulsive>
0.1854

> <Gold.PLP.ligand.clash>
0.0000

> <Gold.PLP.ligand.torsion>
0.4454

> <Gold.PLP.Chemscore.Hbond>
2.0000

> <Gold.PLP.Chemscore.CHOScore>
0.7909

> <Gold.PLP.Chemscore.Metal>
0.0000

> <Gold.Chemscore.Hbonds>
donor molecule, donor type, donor heavy atom, donor atom, acceptor molecule, acceptor atom, score
      L1  H     7    47       P1 10171  1.00
      P1  H  7989  7998       L1    20  1.00
      L1  C    15    41       P1  8028  0.74

> <Gold.PLP.Chemscore.Internal.Correction>
0.0241

> <Gold.Rescore>
     Score         DG    S(hbond)    S(metal)    S(lipo)     H(rot)  DE(clash)    DE(int)     intcor
     15.20     -15.92       1.95        0.00      73.50       1.83       0.32       0.40       ----

> <Gold.Chemscore.Fitness>
15.1953

> <Gold.Chemscore.DG>
-15.9168

> <Gold.Chemscore.ZeroCoef>
-5.4800

> <Gold.Chemscore.Hbond>
1.9549

> <Gold.Chemscore.Metal>
0.0000

> <Gold.Chemscore.Lipo>
73.4998

> <Gold.Chemscore.Internal_Hbond>
0.0000

> <Gold.Chemscore.DEClash>
0.3201

> <Gold.Chemscore.DEInternal>
0.4013

> <Gold.Chemscore.Rot>
1.8329

> <Gold.Chemscore.Internal.Correction>
   9.000000E+99

> <Gold.Chemscore.Hbonds>
donor molecule, donor type, donor heavy atom, donor atom, acceptor molecule, acceptor atom, score
      L1  H     7    47       P1 10171  0.98
      P1  H  7989  7998       L1    20  0.34

> <Gold.Chemscore.Hbond.Weighted>
-6.5295

> <Gold.Chemscore.Metal.Weighted>
-0.0000

> <Gold.Chemscore.Lipo.Weighted>
-8.5995

> <Gold.Chemscore.Internal_Hbond.Weighted>
0.0000

> <Gold.Chemscore.DEClash.Weighted>
0.3201

> <Gold.Chemscore.DEInternal.Weighted>
0.4013

> <Gold.Chemscore.Rot.Weighted>
4.6922

> <Gold.Chemscore.Internal.Correction.Weighted>
   9.000000E+99

> <Gold.Protein.RotatedTorsions>
[ 6907 6896 6895 6894 ] final   77.26 input  -60.11 | X-H torsion
[ 7974 7965 7964 7962 ] final  135.48 input  175.53 | X-H torsion
[ 8008 7997 7996 7995 ] final  -52.57 input   59.86 | X-H torsion
[ 10167 10162 10161 10158 ] final  108.92 input  -65.29 | X-H torsion
[ 10718 10713 10712 10709 ] final  162.84 input   66.30 | X-H torsion
[ 10763 10752 10751 10750 ] final  -55.49 input  -60.55 | X-H torsion
[ 11005 11000 10999 10996 ] final  126.83 input  -57.11 | X-H torsion

> <Gold.Protein.ActiveResidues>
 VAL166  LYS551  ARG553  GLY616  TRP617  ASP618  TYR619  PRO620  LYS621  CYS622 
 ASP623  PHE694  ASN695  SER759  ASP760  ASP761  ALA762  ILE779  LEU786  VAL792 
 PHE793  MET794  SER795  GLU796  ALA797  LYS798  CYS799  TRP800  GLU811  SER814 

> <Gold.Protein.RotatedAtoms>
  152.5110  134.3844  159.9362 H   0  0  0  0  0  0  0  0  0  0  0  0  # atno 6907 bound_to 6896
  151.3802  133.3818  159.2717 H   0  0  0  0  0  0  0  0  0  0  0  0  # atno 6908 bound_to 6896
  150.9510  134.8930  159.7731 H   0  0  0  0  0  0  0  0  0  0  0  0  # atno 6909 bound_to 6896
  144.9659  139.4658  143.5456 H   0  0  0  0  0  0  0  0  0  0  0  0  # atno 7974 bound_to 7965
  154.4110  140.1220  156.5013 H   0  0  0  0  0  0  0  0  0  0  0  0  # atno 8008 bound_to 7997
  155.6892  140.3495  155.4867 H   0  0  0  0  0  0  0  0  0  0  0  0  # atno 8009 bound_to 7997
  155.9484  140.1100  157.0987 H   0  0  0  0  0  0  0  0  0  0  0  0  # atno 8010 bound_to 7997
  139.6808  144.7118  151.1519 H   0  0  0  0  0  0  0  0  0  0  0  0  # atno 10167 bound_to 10162
  157.1170  131.0482  151.2432 H   0  0  0  0  0  0  0  0  0  0  0  0  # atno 10718 bound_to 10713
  154.1917  135.6426  153.5062 H   0  0  0  0  0  0  0  0  0  0  0  0  # atno 10763 bound_to 10752
  153.0033  135.5430  154.6408 H   0  0  0  0  0  0  0  0  0  0  0  0  # atno 10764 bound_to 10752
  154.5799  135.2924  155.0716 H   0  0  0  0  0  0  0  0  0  0  0  0  # atno 10765 bound_to 10752
  139.9476  134.9627  156.8765 H   0  0  0  0  0  0  0  0  0  0  0  0  # atno 11005 bound_to 11000
  146.3367  139.8840  142.8819 LP  0  0  0  0  0  0  0  0  0  0  0  0  # atno 17320 bound_to 7965
  145.2630  141.0083  143.3815 LP  0  0  0  0  0  0  0  0  0  0  0  0  # atno 17321 bound_to 7965
  140.7651  143.5702  150.9004 LP  0  0  0  0  0  0  0  0  0  0  0  0  # atno 17342 bound_to 10162
  139.9374  143.6422  152.3062 LP  0  0  0  0  0  0  0  0  0  0  0  0  # atno 17343 bound_to 10162
  157.4510  130.7598  149.7151 LP  0  0  0  0  0  0  0  0  0  0  0  0  # atno 17370 bound_to 10713
  155.9837  130.3998  150.3348 LP  0  0  0  0  0  0  0  0  0  0  0  0  # atno 17371 bound_to 10713
  140.5796  134.0364  155.7459 LP  0  0  0  0  0  0  0  0  0  0  0  0  # atno 17394 bound_to 11000
  141.1131  133.9584  157.2873 LP  0  0  0  0  0  0  0  0  0  0  0  0  # atno 17395 bound_to 11000

$$$$
