AV-unprocessed.smi:1986|AV-procd|sdf|8050|dock3
  -GOLD-   2272010253D 1   1.00000     0.00000
 Structure written by MMmdl.
 47 48  0  0  0  0  0  0  0  0  1 V2000
  148.5692  141.3525  155.0160 C   0  0  0  0  0  0  0  0  0  0  0  0
  149.2098  141.5621  156.4001 C   0  0  0  0  0  0  0  0  0  0  0  0
  149.7993  140.2812  157.0730 C   0  0  1  0  0  0  0  0  0  0  0  0
  150.6156  140.7661  158.3018 C   0  0  0  0  0  0  0  0  0  0  0  0
  148.6097  139.4113  157.5882 C   0  0  0  0  0  0  0  0  0  0  0  0
  149.0501  138.2333  158.3329 N   0  0  0  0  0  0  0  0  0  0  0  0
  148.2688  137.4458  159.0856 C   0  0  0  0  0  0  0  0  0  0  0  0
  147.0528  137.6045  159.1995 O   0  0  0  0  0  0  0  0  0  0  0  0
  148.9765  136.2885  159.8045 C   0  0  0  0  0  0  0  0  0  0  0  0
  148.0893  135.5430  160.7086 N   0  0  0  0  0  0  0  0  0  0  0  0
  147.9656  134.1966  160.4010 N   0  0  0  0  0  0  0  0  0  0  0  0
  147.2084  133.4386  161.1195 C   0  0  0  0  0  0  0  0  0  0  0  0
  147.1130  132.1120  160.7781 O   0  0  0  0  0  0  0  0  0  0  0  0
  146.4798  133.9654  162.2524 C   0  0  0  0  0  0  0  0  0  0  0  0
  146.6108  135.2773  162.5473 C   0  0  0  0  0  0  0  0  0  0  0  0
  147.4631  136.1652  161.7547 C   0  0  0  0  0  0  0  0  0  0  0  0
  147.6063  137.3623  162.0039 O   0  0  0  0  0  0  0  0  0  0  0  0
  150.6759  139.5324  156.1281 N   0  0  0  0  0  0  0  0  0  0  0  0
  151.7264  138.7235  156.7579 C   0  0  0  0  0  0  0  0  0  0  0  0
  152.6754  138.1016  155.7193 C   0  0  0  0  0  0  0  0  0  0  0  0
  151.9290  137.3207  154.7937 O   0  0  0  0  0  0  0  0  0  0  0  0
  150.9345  138.0819  154.1191 C   0  0  0  0  0  0  0  0  0  0  0  0
  149.9708  138.6992  155.1462 C   0  0  0  0  0  0  0  0  0  0  0  0
  146.4329  131.7595  161.3313 H   0  0  0  0  0  0  0  0  0  0  0  0
  148.1800  142.2949  154.6309 H   0  0  0  0  0  0  0  0  0  0  0  0
  147.7368  140.6501  155.0554 H   0  0  0  0  0  0  0  0  0  0  0  0
  149.2898  140.9794  154.2888 H   0  0  0  0  0  0  0  0  0  0  0  0
  149.9893  142.3159  156.2842 H   0  0  0  0  0  0  0  0  0  0  0  0
  148.4788  142.0319  157.0583 H   0  0  0  0  0  0  0  0  0  0  0  0
  150.0774  141.5149  158.8840 H   0  0  0  0  0  0  0  0  0  0  0  0
  151.5633  141.2150  158.0030 H   0  0  0  0  0  0  0  0  0  0  0  0
  150.8450  139.9503  158.9876 H   0  0  0  0  0  0  0  0  0  0  0  0
  147.9506  140.0131  158.2145 H   0  0  0  0  0  0  0  0  0  0  0  0
  148.0010  139.0496  156.7600 H   0  0  0  0  0  0  0  0  0  0  0  0
  150.0359  138.0186  158.2935 H   0  0  0  0  0  0  0  0  0  0  0  0
  149.3914  135.6240  159.0444 H   0  0  0  0  0  0  0  0  0  0  0  0
  149.8352  136.6673  160.3625 H   0  0  0  0  0  0  0  0  0  0  0  0
  145.8489  133.3174  162.8426 H   0  0  0  0  0  0  0  0  0  0  0  0
  146.0724  135.6842  163.3906 H   0  0  0  0  0  0  0  0  0  0  0  0
  152.3271  139.3243  157.4383 H   0  0  0  0  0  0  0  0  0  0  0  0
  151.2839  137.9218  157.3488 H   0  0  0  0  0  0  0  0  0  0  0  0
  153.2296  138.8775  155.1886 H   0  0  0  0  0  0  0  0  0  0  0  0
  153.4096  137.4637  156.2115 H   0  0  0  0  0  0  0  0  0  0  0  0
  151.4062  138.8597  153.5164 H   0  0  0  0  0  0  0  0  0  0  0  0
  150.3917  137.4307  153.4340 H   0  0  0  0  0  0  0  0  0  0  0  0
  149.4344  137.8940  155.6481 H   0  0  0  0  0  0  0  0  0  0  0  0
  149.2300  139.2796  154.5995 H   0  0  0  0  0  0  0  0  0  0  0  0
  1  2  1  0  0  0  0
  1 25  1  0  0  0  0
  1 26  1  0  0  0  0
  1 27  1  0  0  0  0
  2  3  1  0  0  0  0
  2 28  1  0  0  0  0
  2 29  1  0  0  0  0
  3  4  1  0  0  0  0
  3  5  1  0  0  0  0
  3 18  1  0  0  0  0
  4 30  1  0  0  0  0
  4 31  1  0  0  0  0
  4 32  1  0  0  0  0
  5  6  1  0  0  0  0
  5 33  1  0  0  0  0
  5 34  1  0  0  0  0
  6  7  1  0  0  0  0
  6 35  1  0  0  0  0
  7  8  2  0  0  0  0
  7  9  1  0  0  0  0
  9 36  1  0  0  0  0
  9 37  1  0  0  0  0
  9 10  1  0  0  0  0
 10 11  1  0  0  0  0
 10 16  1  0  0  0  0
 11 12  2  0  0  0  0
 12 13  1  0  0  0  0
 12 14  1  0  0  0  0
 13 24  1  0  0  0  0
 14 38  1  0  0  0  0
 14 15  2  0  0  0  0
 15 39  1  0  0  0  0
 15 16  1  0  0  0  0
 16 17  2  0  0  0  0
 18 23  1  0  0  0  0
 18 19  1  0  0  0  0
 19 20  1  0  0  0  0
 19 40  1  0  0  0  0
 19 41  1  0  0  0  0
 20 21  1  0  0  0  0
 20 42  1  0  0  0  0
 20 43  1  0  0  0  0
 21 22  1  0  0  0  0
 22 23  1  0  0  0  0
 22 44  1  0  0  0  0
 22 45  1  0  0  0  0
 23 46  1  0  0  0  0
 23 47  1  0  0  0  0
M  END
> <s_m_source_file>
AV-unprocessed.smi

> <i_m_source_file_index>
1986

> <i_lp_mmshare_version>
43012

> <i_f3d_flags>
0

> <s_epik_input>
W0NIMl0xW0NIMl1PW0NIMl1bQ0gyXU4xW0NAQF0oW0NIM10pKFtDSDJdW0NIM10pW0NIMl1bTkhdQyg9TylbQ0gyXW4yW25IXWMoPU8pW2NIXVtjSF1jMj1P

> <s_epik_cmdline>
J2VwaWtfcHl0aG9uJywgJy1waCcsICc3LjAnLCAnLXRuJywgJzgnLCAnLW1hJywgJzIwMCcsICctbWV0YWxfYmluZGluZycsICctaW1hZScsICc8aW5maWxlLm1hZT4nLCAnLW9tYWUnLCAnPG91dGZpbGUubWFlPic=

> <r_epik_Ionization_Penalty>
2.44436

> <r_epik_Ionization_Penalty_Charging>
3.63754e-08

> <r_epik_Ionization_Penalty_Neutral>
2.44436

> <r_epik_State_Penalty>
2.04701

> <r_epik_Charging_Adjusted_Penalty>
2.04701

> <i_epik_Tot_Q>
0

> <i_epik_Tot_abs_Q>
0

> <r_epik_Metal_State_Penalty>
2.04701

> <b_epik_Metal_Only>
0

> <s_lp_Force_Field>
OPLS_2005

> <r_lp_Energy>
55.4417

> <b_lp_Chiralities_Consistent>
1

> <s_lp_Variant>
AV-unprocessed.smi:1986-5

> <Gold.Version>
5.8.1

> <Gold.Id.Protein>
6NUR|6NUR_protein|mol2

> <Gold.PLP.Fitness>
41.3967

> <Gold.PLP.PLP>
-35.5113

> <Gold.PLP.part.hbond>
-3.9133

> <Gold.PLP.part.metal>
0.0000

> <Gold.PLP.part.buried>
-4.9906

> <Gold.PLP.part.nonpolar>
-28.2044

> <Gold.PLP.part.repulsive>
0.2594

> <Gold.PLP.ligand.clash>
0.0000

> <Gold.PLP.ligand.torsion>
0.8942

> <Gold.PLP.Chemscore.Hbond>
2.4640

> <Gold.PLP.Chemscore.CHOScore>
0.0000

> <Gold.PLP.Chemscore.Metal>
0.0000

> <Gold.Chemscore.Hbonds>
donor molecule, donor type, donor heavy atom, donor atom, acceptor molecule, acceptor atom, score
      P1  H  6931  6943       L1    17  0.88
      P1  H  6934  6947       L1    17  0.61
      P1  H 10752 10765       L1    21  0.93

> <Gold.PLP.Chemscore.Internal.Correction>
0.2819

> <Gold.Rescore>
     Score         DG    S(hbond)    S(metal)    S(lipo)     H(rot)  DE(clash)    DE(int)     intcor
     12.62     -13.83       2.45        0.00      68.51       3.06       0.00       1.21       ----

> <Gold.Chemscore.Fitness>
12.6248

> <Gold.Chemscore.DG>
-13.8334

> <Gold.Chemscore.ZeroCoef>
-5.4800

> <Gold.Chemscore.Hbond>
2.4482

> <Gold.Chemscore.Metal>
0.0000

> <Gold.Chemscore.Lipo>
68.5060

> <Gold.Chemscore.Internal_Hbond>
0.0000

> <Gold.Chemscore.DEClash>
0.0015

> <Gold.Chemscore.DEInternal>
1.2071

> <Gold.Chemscore.Rot>
3.0620

> <Gold.Chemscore.Internal.Correction>
   9.000000E+99

> <Gold.Chemscore.Hbonds>
donor molecule, donor type, donor heavy atom, donor atom, acceptor molecule, acceptor atom, score
      P1  H  6931  6943       L1    17  0.86
      P1  H  6934  6947       L1    17  0.57
      P1  H 10752 10765       L1    21  0.58

> <Gold.Chemscore.Hbond.Weighted>
-8.1769

> <Gold.Chemscore.Metal.Weighted>
-0.0000

> <Gold.Chemscore.Lipo.Weighted>
-8.0152

> <Gold.Chemscore.Internal_Hbond.Weighted>
0.0000

> <Gold.Chemscore.DEClash.Weighted>
0.0015

> <Gold.Chemscore.DEInternal.Weighted>
1.2071

> <Gold.Chemscore.Rot.Weighted>
7.8387

> <Gold.Chemscore.Internal.Correction.Weighted>
   9.000000E+99

> <Gold.Protein.RotatedTorsions>
[ 6907 6896 6895 6894 ] final  -39.27 input  -60.11 | X-H torsion
[ 7974 7965 7964 7962 ] final   -2.75 input  175.53 | X-H torsion
[ 8008 7997 7996 7995 ] final -179.18 input   59.86 | X-H torsion
[ 10167 10162 10161 10158 ] final   55.59 input  -65.29 | X-H torsion
[ 10718 10713 10712 10709 ] final   56.70 input   66.30 | X-H torsion
[ 10763 10752 10751 10750 ] final  170.63 input  -60.55 | X-H torsion
[ 11005 11000 10999 10996 ] final -142.93 input  -57.11 | X-H torsion

> <Gold.Protein.ActiveResidues>
 VAL166  LYS551  ARG553  GLY616  TRP617  ASP618  TYR619  PRO620  LYS621  CYS622 
 ASP623  PHE694  ASN695  SER759  ASP760  ASP761  ALA762  ILE779  LEU786  VAL792 
 PHE793  MET794  SER795  GLU796  ALA797  LYS798  CYS799  TRP800  GLU811  SER814 

> <Gold.Protein.RotatedAtoms>
  150.9923  134.9255  159.7906 H   0  0  0  0  0  0  0  0  0  0  0  0  # atno 6907 bound_to 6896
  152.5254  134.3264  159.9177 H   0  0  0  0  0  0  0  0  0  0  0  0  # atno 6908 bound_to 6896
  151.3270  133.3975  159.2694 H   0  0  0  0  0  0  0  0  0  0  0  0  # atno 6909 bound_to 6896
  146.2400  140.1617  142.8332 H   0  0  0  0  0  0  0  0  0  0  0  0  # atno 7974 bound_to 7965
  156.0275  140.1275  157.0293 H   0  0  0  0  0  0  0  0  0  0  0  0  # atno 8008 bound_to 7997
  154.4336  140.1056  156.6122 H   0  0  0  0  0  0  0  0  0  0  0  0  # atno 8009 bound_to 7997
  155.5855  140.3468  155.4554 H   0  0  0  0  0  0  0  0  0  0  0  0  # atno 8010 bound_to 7997
  140.2178  144.3821  150.6463 H   0  0  0  0  0  0  0  0  0  0  0  0  # atno 10167 bound_to 10162
  157.5453  130.8726  149.8882 H   0  0  0  0  0  0  0  0  0  0  0  0  # atno 10718 bound_to 10713
  154.4004  135.2755  155.2100 H   0  0  0  0  0  0  0  0  0  0  0  0  # atno 10763 bound_to 10752
  154.4128  135.6018  153.5967 H   0  0  0  0  0  0  0  0  0  0  0  0  # atno 10764 bound_to 10752
  152.9831  135.5953  154.4271 H   0  0  0  0  0  0  0  0  0  0  0  0  # atno 10765 bound_to 10752
  140.8176  134.2670  157.4914 H   0  0  0  0  0  0  0  0  0  0  0  0  # atno 11005 bound_to 11000
  145.0083  140.8692  143.5239 LP  0  0  0  0  0  0  0  0  0  0  0  0  # atno 17320 bound_to 7965
  145.1647  139.2438  143.5373 LP  0  0  0  0  0  0  0  0  0  0  0  0  # atno 17321 bound_to 7965
  140.6277  143.2183  151.6562 LP  0  0  0  0  0  0  0  0  0  0  0  0  # atno 17342 bound_to 10162
  139.5155  144.3375  152.0770 LP  0  0  0  0  0  0  0  0  0  0  0  0  # atno 17343 bound_to 10162
  156.0530  130.3714  150.1155 LP  0  0  0  0  0  0  0  0  0  0  0  0  # atno 17370 bound_to 10713
  156.9332  130.9720  151.3529 LP  0  0  0  0  0  0  0  0  0  0  0  0  # atno 17371 bound_to 10713
  139.8710  134.9517  156.4094 LP  0  0  0  0  0  0  0  0  0  0  0  0  # atno 17394 bound_to 11000
  140.9133  133.7696  155.9817 LP  0  0  0  0  0  0  0  0  0  0  0  0  # atno 17395 bound_to 11000

$$$$
