AV-unprocessed.smi:109|AV-procd|sdf|1039|dock8
  -GOLD-   2262018 63D 1   1.00000     0.00000
 Structure written by MMmdl.
 58 61  0  0  0  0  0  0  0  0  1 V2000
  152.5193  140.1623  156.8460 O   0  0  0  0  0  0  0  0  0  0  0  0
  151.5226  140.1106  155.8482 C   0  0  0  0  0  0  0  0  0  0  0  0
  150.7214  141.4240  155.8408 C   0  0  0  0  0  0  0  0  0  0  0  0
  150.1684  141.8368  157.2271 C   0  0  2  0  0  0  0  0  0  0  0  0
  148.9185  142.5795  157.0515 N   0  0  0  0  0  0  0  0  0  0  0  0
  147.7259  142.0973  157.4676 C   0  0  0  0  0  0  0  0  0  0  0  0
  147.1193  141.0571  156.8391 N   0  0  0  0  0  0  0  0  0  0  0  0
  145.9344  140.6137  157.2694 C   0  0  0  0  0  0  0  0  0  0  0  0
  145.1997  141.0566  158.2920 N   0  0  0  0  0  0  0  0  0  0  0  0
  145.8088  142.0959  158.9330 C   0  0  0  0  0  0  0  0  0  0  0  0
  147.0588  142.6744  158.5786 C   0  0  0  0  0  0  0  0  0  0  0  0
  147.3498  143.7264  159.4362 N   0  0  0  0  0  0  0  0  0  0  0  0
  146.3242  143.7677  160.2435 C   0  0  0  0  0  0  0  0  0  0  0  0
  145.3638  142.7991  160.0337 N   0  0  0  0  0  0  0  0  0  0  0  0
  144.0657  142.5883  160.7543 C   0  0  2  0  0  0  0  0  0  0  0  0
  143.0211  142.7605  159.8391 O   0  0  0  0  0  0  0  0  0  0  0  0
  142.3576  144.0076  160.0378 C   0  0  2  0  0  0  0  0  0  0  0  0
  143.0239  145.1152  159.1895 C   0  0  0  0  0  0  0  0  0  0  0  0
  142.9179  144.7937  157.8194 O   0  0  0  0  0  0  0  0  0  0  0  0
  142.4785  144.1821  161.5573 C   0  0  2  0  0  0  0  0  0  0  0  0
  142.3397  145.5266  161.9740 O   0  0  0  0  0  0  0  0  0  0  0  0
  143.8623  143.6291  161.8734 C   0  0  1  0  0  0  0  0  0  0  0  0
  143.8504  143.0284  163.1534 O   0  0  0  0  0  0  0  0  0  0  0  0
  151.1607  142.6931  158.0657 C   0  0  0  0  0  0  0  0  0  0  0  0
  150.5066  143.3479  159.3081 C   0  0  0  0  0  0  0  0  0  0  0  0
  151.4943  144.2205  160.1003 C   0  0  0  0  0  0  0  0  0  0  0  0
  152.1271  145.2996  159.2135 C   0  0  0  0  0  0  0  0  0  0  0  0
  152.8033  144.6653  157.9924 C   0  0  0  0  0  0  0  0  0  0  0  0
  151.8137  143.7999  157.1976 C   0  0  0  0  0  0  0  0  0  0  0  0
  144.1128  141.5541  161.0983 H   0  0  0  0  0  0  0  0  0  0  0  0
  141.3069  143.9209  159.7580 H   0  0  0  0  0  0  0  0  0  0  0  0
  141.7092  143.5759  162.0392 H   0  0  0  0  0  0  0  0  0  0  0  0
  144.6223  144.4100  161.8104 H   0  0  0  0  0  0  0  0  0  0  0  0
  152.1610  140.5943  157.6063 H   0  0  0  0  0  0  0  0  0  0  0  0
  152.0054  139.9351  154.8869 H   0  0  0  0  0  0  0  0  0  0  0  0
  150.8673  139.2619  156.0461 H   0  0  0  0  0  0  0  0  0  0  0  0
  151.3903  142.1963  155.4652 H   0  0  0  0  0  0  0  0  0  0  0  0
  149.9016  141.3513  155.1247 H   0  0  0  0  0  0  0  0  0  0  0  0
  149.9956  140.9233  157.7956 H   0  0  0  0  0  0  0  0  0  0  0  0
  149.0162  143.4982  156.6437 H   0  0  0  0  0  0  0  0  0  0  0  0
  145.5157  139.7859  156.7164 H   0  0  0  0  0  0  0  0  0  0  0  0
  146.2485  144.5109  161.0236 H   0  0  0  0  0  0  0  0  0  0  0  0
  142.5052  146.0647  159.3211 H   0  0  0  0  0  0  0  0  0  0  0  0
  144.0631  145.2883  159.4640 H   0  0  0  0  0  0  0  0  0  0  0  0
  143.1291  143.8795  157.7083 H   0  0  0  0  0  0  0  0  0  0  0  0
  143.1812  145.8380  162.2709 H   0  0  0  0  0  0  0  0  0  0  0  0
  142.9541  142.9533  163.4427 H   0  0  0  0  0  0  0  0  0  0  0  0
  151.9547  142.0343  158.4214 H   0  0  0  0  0  0  0  0  0  0  0  0
  149.6526  143.9522  158.9994 H   0  0  0  0  0  0  0  0  0  0  0  0
  150.1231  142.5908  159.9900 H   0  0  0  0  0  0  0  0  0  0  0  0
  150.9832  144.6868  160.9431 H   0  0  0  0  0  0  0  0  0  0  0  0
  152.2774  143.5911  160.5248 H   0  0  0  0  0  0  0  0  0  0  0  0
  151.3608  146.0034  158.8862 H   0  0  0  0  0  0  0  0  0  0  0  0
  152.8546  145.8752  159.7866 H   0  0  0  0  0  0  0  0  0  0  0  0
  153.2137  145.4445  157.3494 H   0  0  0  0  0  0  0  0  0  0  0  0
  153.6470  144.0539  158.3155 H   0  0  0  0  0  0  0  0  0  0  0  0
  152.3463  143.3656  156.3512 H   0  0  0  0  0  0  0  0  0  0  0  0
  151.0366  144.4366  156.7723 H   0  0  0  0  0  0  0  0  0  0  0  0
  1  2  1  0  0  0  0
  1 34  1  0  0  0  0
  2  3  1  0  0  0  0
  2 35  1  0  0  0  0
  2 36  1  0  0  0  0
  3  4  1  0  0  0  0
  3 37  1  0  0  0  0
  3 38  1  0  0  0  0
  4  5  1  0  0  0  0
  4 24  1  0  0  0  0
  4 39  1  0  0  0  0
  5  6  1  0  0  0  0
  5 40  1  0  0  0  0
  6 11  1  0  0  0  0
  6  7  2  0  0  0  0
  7  8  1  0  0  0  0
  8  9  2  0  0  0  0
  8 41  1  0  0  0  0
  9 10  1  0  0  0  0
 10 14  1  0  0  0  0
 10 11  2  0  0  0  0
 11 12  1  0  0  0  0
 12 13  2  0  0  0  0
 13 14  1  0  0  0  0
 13 42  1  0  0  0  0
 14 15  1  0  0  0  0
 15 30  1  0  0  0  0
 15 22  1  0  0  0  0
 15 16  1  0  0  0  0
 16 17  1  0  0  0  0
 17 31  1  0  0  0  0
 17 18  1  0  0  0  0
 17 20  1  0  0  0  0
 18 19  1  0  0  0  0
 18 43  1  0  0  0  0
 18 44  1  0  0  0  0
 19 45  1  0  0  0  0
 20 32  1  0  0  0  0
 20 21  1  0  0  0  0
 20 22  1  0  0  0  0
 21 46  1  0  0  0  0
 22 33  1  0  0  0  0
 22 23  1  0  0  0  0
 23 47  1  0  0  0  0
 24 29  1  0  0  0  0
 24 25  1  0  0  0  0
 24 48  1  0  0  0  0
 25 26  1  0  0  0  0
 25 49  1  0  0  0  0
 25 50  1  0  0  0  0
 26 27  1  0  0  0  0
 26 51  1  0  0  0  0
 26 52  1  0  0  0  0
 27 28  1  0  0  0  0
 27 53  1  0  0  0  0
 27 54  1  0  0  0  0
 28 29  1  0  0  0  0
 28 55  1  0  0  0  0
 28 56  1  0  0  0  0
 29 57  1  0  0  0  0
 29 58  1  0  0  0  0
M  END
> <s_m_source_file>
AV-unprocessed.smi

> <i_m_source_file_index>
109

> <i_lp_mmshare_version>
43012

> <i_f3d_flags>
0

> <s_epik_input>
W0NIMl0xW0NIMl1bQ0gyXVtDSDJdW0NIMl1bQ0hdMVtDQEhdKFtDSDJdW0NIMl1bT0hdKVtOSF1jKG5bY0hdbjIpYyhjMjMpbltjSF1uM1tDQEBIXTRPW0NASF0oW0NIMl1bT0hdKVtDQEBIXShbT0hdKVtDQEhdNFtPSF0=

> <s_epik_cmdline>
J2VwaWtfcHl0aG9uJywgJy1waCcsICc3LjAnLCAnLXRuJywgJzgnLCAnLW1hJywgJzIwMCcsICctbWV0YWxfYmluZGluZycsICctaW1hZScsICc8aW5maWxlLm1hZT4nLCAnLW9tYWUnLCAnPG91dGZpbGUubWFlPic=

> <r_lp_tautomer_probability>
1

> <r_epik_Ionization_Penalty>
0.000793976

> <r_epik_Ionization_Penalty_Charging>
0

> <r_epik_Ionization_Penalty_Neutral>
0.000793976

> <r_epik_State_Penalty>
-0

> <r_epik_Charging_Adjusted_Penalty>
0

> <i_epik_Tot_Q>
0

> <i_epik_Tot_abs_Q>
0

> <r_epik_Metal_State_Penalty>
-0

> <b_epik_Metal_Only>
0

> <s_epik_Chemistry_Notes>
This compound contains an acetal/aminal-like group ( X-CH(R)-Y where X, Y are N, S, or O) that may be acid/base labile, releasing an aldehyde.

> <s_lp_Force_Field>
OPLS_2005

> <r_lp_Energy>
51.6151

> <b_lp_Chiralities_Consistent>
1

> <s_lp_Variant>
AV-unprocessed.smi:109-9

> <Gold.Version>
5.8.1

> <Gold.Id.Protein>
6NUR|6NUR_protein|mol2

> <Gold.PLP.Fitness>
47.4210

> <Gold.PLP.PLP>
-43.8718

> <Gold.PLP.part.hbond>
-4.1218

> <Gold.PLP.part.metal>
0.0000

> <Gold.PLP.part.buried>
-7.6664

> <Gold.PLP.part.nonpolar>
-32.5356

> <Gold.PLP.part.repulsive>
0.5317

> <Gold.PLP.ligand.clash>
0.0000

> <Gold.PLP.ligand.torsion>
1.3085

> <Gold.PLP.Chemscore.Hbond>
2.0000

> <Gold.PLP.Chemscore.CHOScore>
0.0000

> <Gold.PLP.Chemscore.Metal>
0.0000

> <Gold.Chemscore.Hbonds>
donor molecule, donor type, donor heavy atom, donor atom, acceptor molecule, acceptor atom, score
      L1  H     5    40       P1  8028  1.00
      P1  H  7997  8010       L1     1  1.00

> <Gold.PLP.Chemscore.Internal.Correction>
0.1662

> <Gold.Rescore>
     Score         DG    S(hbond)    S(metal)    S(lipo)     H(rot)  DE(clash)    DE(int)     intcor
      7.37     -10.11       1.78        0.00     108.33       5.47       1.48       1.26       ----

> <Gold.Chemscore.Fitness>
7.3681

> <Gold.Chemscore.DG>
-10.1124

> <Gold.Chemscore.ZeroCoef>
-5.4800

> <Gold.Chemscore.Hbond>
1.7818

> <Gold.Chemscore.Metal>
0.0000

> <Gold.Chemscore.Lipo>
108.3303

> <Gold.Chemscore.Internal_Hbond>
0.0000

> <Gold.Chemscore.DEClash>
1.4816

> <Gold.Chemscore.DEInternal>
1.2627

> <Gold.Chemscore.Rot>
5.4662

> <Gold.Chemscore.Internal.Correction>
   9.000000E+99

> <Gold.Chemscore.Hbonds>
donor molecule, donor type, donor heavy atom, donor atom, acceptor molecule, acceptor atom, score
      L1  H     5    40       P1  8028  0.87
      P1  H  7997  8010       L1     1  0.96

> <Gold.Chemscore.Hbond.Weighted>
-5.9513

> <Gold.Chemscore.Metal.Weighted>
-0.0000

> <Gold.Chemscore.Lipo.Weighted>
-12.6746

> <Gold.Chemscore.Internal_Hbond.Weighted>
0.0000

> <Gold.Chemscore.DEClash.Weighted>
1.4816

> <Gold.Chemscore.DEInternal.Weighted>
1.2627

> <Gold.Chemscore.Rot.Weighted>
13.9935

> <Gold.Chemscore.Internal.Correction.Weighted>
   9.000000E+99

> <Gold.Protein.RotatedTorsions>
[ 6907 6896 6895 6894 ] final  120.02 input  -60.11 | X-H torsion
[ 7974 7965 7964 7962 ] final  129.97 input  175.53 | X-H torsion
[ 8008 7997 7996 7995 ] final   71.02 input   59.86 | X-H torsion
[ 10167 10162 10161 10158 ] final -152.82 input  -65.29 | X-H torsion
[ 10718 10713 10712 10709 ] final  -75.60 input   66.30 | X-H torsion
[ 10763 10752 10751 10750 ] final -105.47 input  -60.55 | X-H torsion
[ 11005 11000 10999 10996 ] final -155.34 input  -57.11 | X-H torsion

> <Gold.Protein.ActiveResidues>
 VAL166  LYS551  ARG553  GLY616  TRP617  ASP618  TYR619  PRO620  LYS621  CYS622 
 ASP623  PHE694  ASN695  SER759  ASP760  ASP761  ALA762  ILE779  LEU786  VAL792 
 PHE793  MET794  SER795  GLU796  ALA797  LYS798  CYS799  TRP800  GLU811  SER814 

> <Gold.Protein.RotatedAtoms>
  152.4429  133.7482  159.6678 H   0  0  0  0  0  0  0  0  0  0  0  0  # atno 6907 bound_to 6896
  150.8323  133.8060  159.3099 H   0  0  0  0  0  0  0  0  0  0  0  0  # atno 6908 bound_to 6896
  151.5710  135.1065  160.0047 H   0  0  0  0  0  0  0  0  0  0  0  0  # atno 6909 bound_to 6896
  145.0229  139.4115  143.5188 H   0  0  0  0  0  0  0  0  0  0  0  0  # atno 7974 bound_to 7965
  155.7476  140.3489  155.5134 H   0  0  0  0  0  0  0  0  0  0  0  0  # atno 8008 bound_to 7997
  155.9035  140.1038  157.1353 H   0  0  0  0  0  0  0  0  0  0  0  0  # atno 8009 bound_to 7997
  154.4047  140.1281  156.4454 H   0  0  0  0  0  0  0  0  0  0  0  0  # atno 8010 bound_to 7997
  139.7149  143.9049  152.2482 H   0  0  0  0  0  0  0  0  0  0  0  0  # atno 10167 bound_to 10162
  156.0202  130.4445  150.3067 H   0  0  0  0  0  0  0  0  0  0  0  0  # atno 10718 bound_to 10713
  154.7949  135.4748  154.0137 H   0  0  0  0  0  0  0  0  0  0  0  0  # atno 10763 bound_to 10752
  153.1688  135.6821  153.8645 H   0  0  0  0  0  0  0  0  0  0  0  0  # atno 10764 bound_to 10752
  153.8234  135.3201  155.3390 H   0  0  0  0  0  0  0  0  0  0  0  0  # atno 10765 bound_to 10752
  140.6875  134.4077  157.5222 H   0  0  0  0  0  0  0  0  0  0  0  0  # atno 11005 bound_to 11000
  146.3488  139.9737  142.8703 LP  0  0  0  0  0  0  0  0  0  0  0  0  # atno 17320 bound_to 7965
  145.1872  140.9794  143.4232 LP  0  0  0  0  0  0  0  0  0  0  0  0  # atno 17321 bound_to 7965
  139.8928  144.6956  150.8751 LP  0  0  0  0  0  0  0  0  0  0  0  0  # atno 17342 bound_to 10162
  140.7741  143.3573  151.1897 LP  0  0  0  0  0  0  0  0  0  0  0  0  # atno 17343 bound_to 10162
  157.1170  131.0236  151.3025 LP  0  0  0  0  0  0  0  0  0  0  0  0  # atno 17370 bound_to 10713
  157.4659  130.7680  149.7278 LP  0  0  0  0  0  0  0  0  0  0  0  0  # atno 17371 bound_to 10713
  139.8933  134.8733  156.2229 LP  0  0  0  0  0  0  0  0  0  0  0  0  # atno 17394 bound_to 11000
  141.0268  133.7010  156.1361 LP  0  0  0  0  0  0  0  0  0  0  0  0  # atno 17395 bound_to 11000

$$$$
