AV-unprocessed.smi:841|AV-procd|sdf|3915|dock2
  -GOLD-   22720 1373D 1   1.00000     0.00000
 Structure written by MMmdl.
 30 31  0  0  0  0  0  0  0  0  1 V2000
  150.3937  140.4428  157.9557 O   0  0  0  0  0  0  0  0  0  0  0  0
  151.5661  140.6406  157.6370 C   0  0  0  0  0  0  0  0  0  0  0  0
  152.1146  140.0643  156.3292 C   0  0  0  0  0  0  0  0  0  0  0  0
  151.1541  139.1804  155.6906 N   0  0  0  0  0  0  0  0  0  0  0  0
  150.4567  138.1262  156.2443 C   0  0  0  0  0  0  0  0  0  0  0  0
  149.6837  137.5854  155.2573 C   0  0  0  0  0  0  0  0  0  0  0  0
  149.9841  138.3830  154.1180 C   0  0  0  0  0  0  0  0  0  0  0  0
  150.8658  139.3346  154.3797 N   0  0  0  0  0  0  0  0  0  0  0  0
  152.4250  141.3536  158.3824 N   0  0  0  0  0  0  0  0  0  0  0  0
  152.1148  141.9939  159.6568 C   0  0  0  0  0  0  0  0  0  0  0  0
  152.2957  143.5220  159.5897 C   0  0  2  0  0  0  0  0  0  0  0  0
  151.7596  144.2556  160.8020 C   0  0  0  0  0  0  0  0  0  0  0  0
  151.6442  145.6857  160.2822 C   0  0  0  0  0  0  0  0  0  0  0  0
  151.3744  145.5738  158.8877 O   0  0  0  0  0  0  0  0  0  0  0  0
  151.5260  144.2213  158.4676 C   0  0  0  0  0  0  0  0  0  0  0  0
  152.3654  140.8840  155.6543 H   0  0  0  0  0  0  0  0  0  0  0  0
  153.0330  139.5028  156.5071 H   0  0  0  0  0  0  0  0  0  0  0  0
  150.5670  137.8535  157.2834 H   0  0  0  0  0  0  0  0  0  0  0  0
  149.0085  136.7464  155.3363 H   0  0  0  0  0  0  0  0  0  0  0  0
  149.5923  138.2981  153.1153 H   0  0  0  0  0  0  0  0  0  0  0  0
  153.3679  141.4642  158.0384 H   0  0  0  0  0  0  0  0  0  0  0  0
  151.1068  141.7377  159.9880 H   0  0  0  0  0  0  0  0  0  0  0  0
  152.7924  141.5817  160.4049 H   0  0  0  0  0  0  0  0  0  0  0  0
  153.3565  143.7579  159.4872 H   0  0  0  0  0  0  0  0  0  0  0  0
  150.7729  143.8759  161.0717 H   0  0  0  0  0  0  0  0  0  0  0  0
  152.4075  144.1731  161.6751 H   0  0  0  0  0  0  0  0  0  0  0  0
  150.8674  146.2529  160.7951 H   0  0  0  0  0  0  0  0  0  0  0  0
  152.5893  146.2146  160.4099 H   0  0  0  0  0  0  0  0  0  0  0  0
  152.0370  144.1596  157.5067 H   0  0  0  0  0  0  0  0  0  0  0  0
  150.5327  143.7856  158.3509 H   0  0  0  0  0  0  0  0  0  0  0  0
  1  2  2  0  0  0  0
  2  3  1  0  0  0  0
  2  9  1  0  0  0  0
  3  4  1  0  0  0  0
  3 16  1  0  0  0  0
  3 17  1  0  0  0  0
  4  8  1  0  0  0  0
  4  5  1  0  0  0  0
  5  6  2  0  0  0  0
  5 18  1  0  0  0  0
  6  7  1  0  0  0  0
  6 19  1  0  0  0  0
  7  8  2  0  0  0  0
  7 20  1  0  0  0  0
  9 10  1  0  0  0  0
  9 21  1  0  0  0  0
 10 11  1  0  0  0  0
 10 22  1  0  0  0  0
 10 23  1  0  0  0  0
 11 15  1  0  0  0  0
 11 12  1  0  0  0  0
 11 24  1  0  0  0  0
 12 13  1  0  0  0  0
 12 25  1  0  0  0  0
 12 26  1  0  0  0  0
 13 14  1  0  0  0  0
 13 27  1  0  0  0  0
 13 28  1  0  0  0  0
 14 15  1  0  0  0  0
 15 29  1  0  0  0  0
 15 30  1  0  0  0  0
M  END
> <s_m_source_file>
AV-unprocessed.smi

> <i_m_source_file_index>
841

> <i_lp_mmshare_version>
43012

> <i_f3d_flags>
0

> <s_epik_input>
bjFbY0hdW2NIXVtjSF1uMVtDSDJdQyg9TylbTkhdW0NIMl1bQ0BASF0yW0NIMl1bQ0gyXU9bQ0gyXTI=

> <s_epik_cmdline>
J2VwaWtfcHl0aG9uJywgJy1waCcsICc3LjAnLCAnLXRuJywgJzgnLCAnLW1hJywgJzIwMCcsICctbWV0YWxfYmluZGluZycsICctaW1hZScsICc8aW5maWxlLm1hZT4nLCAnLW9tYWUnLCAnPG91dGZpbGUubWFlPic=

> <r_lp_tautomer_probability>
1

> <r_epik_Ionization_Penalty>
1.49823e-05

> <r_epik_Ionization_Penalty_Charging>
0

> <r_epik_Ionization_Penalty_Neutral>
1.49823e-05

> <r_epik_State_Penalty>
-0

> <r_epik_Charging_Adjusted_Penalty>
0

> <i_epik_Tot_Q>
0

> <i_epik_Tot_abs_Q>
0

> <r_epik_Metal_State_Penalty>
-0

> <b_epik_Metal_Only>
0

> <s_lp_Force_Field>
OPLS_2005

> <r_lp_Energy>
19.4913

> <b_lp_Chiralities_Consistent>
1

> <s_lp_Variant>
AV-unprocessed.smi:841-1

> <Gold.Version>
5.8.1

> <Gold.Id.Protein>
6NUR|6NUR_protein|mol2

> <Gold.PLP.Fitness>
38.5388

> <Gold.PLP.PLP>
-30.0630

> <Gold.PLP.part.hbond>
-2.0000

> <Gold.PLP.part.metal>
0.0000

> <Gold.PLP.part.buried>
-2.3671

> <Gold.PLP.part.nonpolar>
-26.1648

> <Gold.PLP.part.repulsive>
0.3518

> <Gold.PLP.ligand.clash>
0.0000

> <Gold.PLP.ligand.torsion>
0.1828

> <Gold.PLP.Chemscore.Hbond>
1.0000

> <Gold.PLP.Chemscore.CHOScore>
1.9404

> <Gold.PLP.Chemscore.Metal>
0.0000

> <Gold.Chemscore.Hbonds>
donor molecule, donor type, donor heavy atom, donor atom, acceptor molecule, acceptor atom, score
      P1  H  7989  7998       L1     8  1.00
      L1  C     7    20       P1  7948  0.98
      L1  C     7    20       P1  7957  0.82

> <Gold.PLP.Chemscore.Internal.Correction>
0.0202

> <Gold.Rescore>
     Score         DG    S(hbond)    S(metal)    S(lipo)     H(rot)  DE(clash)    DE(int)     intcor
     13.73     -13.95       0.98        0.00      80.96       1.68       0.05       0.16       ----

> <Gold.Chemscore.Fitness>
13.7327

> <Gold.Chemscore.DG>
-13.9457

> <Gold.Chemscore.ZeroCoef>
-5.4800

> <Gold.Chemscore.Hbond>
0.9841

> <Gold.Chemscore.Metal>
0.0000

> <Gold.Chemscore.Lipo>
80.9583

> <Gold.Chemscore.Internal_Hbond>
0.0000

> <Gold.Chemscore.DEClash>
0.0540

> <Gold.Chemscore.DEInternal>
0.1590

> <Gold.Chemscore.Rot>
1.6771

> <Gold.Chemscore.Internal.Correction>
   9.000000E+99

> <Gold.Chemscore.Hbonds>
donor molecule, donor type, donor heavy atom, donor atom, acceptor molecule, acceptor atom, score
      P1  H  7989  7998       L1     8  0.94

> <Gold.Chemscore.Hbond.Weighted>
-3.2869

> <Gold.Chemscore.Metal.Weighted>
-0.0000

> <Gold.Chemscore.Lipo.Weighted>
-9.4721

> <Gold.Chemscore.Internal_Hbond.Weighted>
0.0000

> <Gold.Chemscore.DEClash.Weighted>
0.0540

> <Gold.Chemscore.DEInternal.Weighted>
0.1590

> <Gold.Chemscore.Rot.Weighted>
4.2934

> <Gold.Chemscore.Internal.Correction.Weighted>
   9.000000E+99

> <Gold.Protein.RotatedTorsions>
[ 6907 6896 6895 6894 ] final   -6.58 input  -60.11 | X-H torsion
[ 7974 7965 7964 7962 ] final   -9.76 input  175.53 | X-H torsion
[ 8008 7997 7996 7995 ] final -106.71 input   59.86 | X-H torsion
[ 10167 10162 10161 10158 ] final -144.90 input  -65.29 | X-H torsion
[ 10718 10713 10712 10709 ] final -138.08 input   66.30 | X-H torsion
[ 10763 10752 10751 10750 ] final  -46.69 input  -60.55 | X-H torsion
[ 11005 11000 10999 10996 ] final  -45.79 input  -57.11 | X-H torsion

> <Gold.Protein.ActiveResidues>
 VAL166  LYS551  ARG553  GLY616  TRP617  ASP618  TYR619  PRO620  LYS621  CYS622 
 ASP623  PHE694  ASN695  SER759  ASP760  ASP761  ALA762  ILE779  LEU786  VAL792 
 PHE793  MET794  SER795  GLU796  ALA797  LYS798  CYS799  TRP800  GLU811  SER814 

> <Gold.Protein.RotatedAtoms>
  151.4634  135.1040  159.9730 H   0  0  0  0  0  0  0  0  0  0  0  0  # atno 6907 bound_to 6896
  152.4844  133.8332  159.7124 H   0  0  0  0  0  0  0  0  0  0  0  0  # atno 6908 bound_to 6896
  150.8942  133.7143  159.2923 H   0  0  0  0  0  0  0  0  0  0  0  0  # atno 6909 bound_to 6896
  146.2242  140.2664  142.8354 H   0  0  0  0  0  0  0  0  0  0  0  0  # atno 7974 bound_to 7965
  154.9186  140.0408  157.1985 H   0  0  0  0  0  0  0  0  0  0  0  0  # atno 8008 bound_to 7997
  154.8276  140.2894  155.5722 H   0  0  0  0  0  0  0  0  0  0  0  0  # atno 8009 bound_to 7997
  156.2984  140.2507  156.3195 H   0  0  0  0  0  0  0  0  0  0  0  0  # atno 8010 bound_to 7997
  139.7856  143.8039  152.2644 H   0  0  0  0  0  0  0  0  0  0  0  0  # atno 10167 bound_to 10162
  156.2953  130.7398  151.1435 H   0  0  0  0  0  0  0  0  0  0  0  0  # atno 10718 bound_to 10713
  154.0492  135.6633  153.4798 H   0  0  0  0  0  0  0  0  0  0  0  0  # atno 10763 bound_to 10752
  153.0470  135.5108  154.7767 H   0  0  0  0  0  0  0  0  0  0  0  0  # atno 10764 bound_to 10752
  154.6768  135.3038  154.9633 H   0  0  0  0  0  0  0  0  0  0  0  0  # atno 10765 bound_to 10752
  141.0538  133.6733  156.3062 H   0  0  0  0  0  0  0  0  0  0  0  0  # atno 11005 bound_to 11000
  144.9301  140.7965  143.5695 LP  0  0  0  0  0  0  0  0  0  0  0  0  # atno 17320 bound_to 7965
  145.2607  139.1993  143.4893 LP  0  0  0  0  0  0  0  0  0  0  0  0  # atno 17321 bound_to 7965
  139.8115  144.7334  150.9691 LP  0  0  0  0  0  0  0  0  0  0  0  0  # atno 17342 bound_to 10162
  140.7819  143.4246  151.0788 LP  0  0  0  0  0  0  0  0  0  0  0  0  # atno 17343 bound_to 10162
  157.7354  131.0573  150.5474 LP  0  0  0  0  0  0  0  0  0  0  0  0  # atno 17370 bound_to 10713
  156.5595  130.4252  149.6070 LP  0  0  0  0  0  0  0  0  0  0  0  0  # atno 17371 bound_to 10713
  140.6004  134.5560  157.5516 LP  0  0  0  0  0  0  0  0  0  0  0  0  # atno 17394 bound_to 11000
  139.9372  134.7853  156.0771 LP  0  0  0  0  0  0  0  0  0  0  0  0  # atno 17395 bound_to 11000

$$$$
