AV-unprocessed.smi:196|AV-procd|sdf|1534|dock10
  -GOLD-   2262019393D 1   1.00000     0.00000
 Structure written by MMmdl.
 47 50  0  0  0  0  0  0  0  0  1 V2000
  146.8526  132.6788  152.1852 C   0  0  0  0  0  0  0  0  0  0  0  0
  145.4478  133.2486  152.4459 C   0  0  2  0  0  0  0  0  0  0  0  0
  144.5274  132.1658  152.2978 O   0  0  0  0  0  0  0  0  0  0  0  0
  143.4405  132.5523  151.4705 C   0  0  0  0  0  0  0  0  0  0  0  0
  144.0584  133.5760  150.5323 C   0  0  0  0  0  0  0  0  0  0  0  0
  144.9755  134.3562  151.4680 C   0  0  2  0  0  0  0  0  0  0  0  0
  146.0343  134.9120  150.7069 O   0  0  0  0  0  0  0  0  0  0  0  0
  144.2680  135.5074  152.2320 C   0  0  0  0  0  0  0  0  0  0  0  0
  145.1772  136.4566  152.8554 N   0  0  0  0  0  0  0  0  0  0  0  0
  145.2487  137.8111  152.6195 C   0  0  0  0  0  0  0  0  0  0  0  0
  146.1546  138.4490  153.3093 N   0  0  0  0  0  0  0  0  0  0  0  0
  146.7608  137.4581  154.0708 C   0  0  0  0  0  0  0  0  0  0  0  0
  147.8116  137.4484  155.0268 C   0  0  0  0  0  0  0  0  0  0  0  0
  148.4474  138.5821  155.4138 N   0  0  0  0  0  0  0  0  0  0  0  0
  147.6036  139.6942  155.8460 C   0  0  0  0  0  0  0  0  0  0  0  0
  147.7005  140.7297  154.7335 C   0  0  1  0  0  0  0  0  0  0  0  0
  147.4138  141.9624  155.1509 F   0  0  0  0  0  0  0  0  0  0  0  0
  149.1499  140.5827  154.2920 C   0  0  0  0  0  0  0  0  0  0  0  0
  149.4304  139.0724  154.4326 C   0  0  1  0  0  0  0  0  0  0  0  0
  150.8948  138.8100  154.8276 C   0  0  0  0  0  0  0  0  0  0  0  0
  151.3051  137.5467  154.9790 N   0  0  0  0  0  0  0  0  0  0  0  0
  151.6590  139.7582  154.9918 O   0  0  0  0  0  0  0  0  0  0  0  0
  148.1463  136.2545  155.5854 N   0  0  0  0  0  0  0  0  0  0  0  0
  147.5026  135.1405  155.2240 C   0  0  0  0  0  0  0  0  0  0  0  0
  146.5069  134.9997  154.3464 N   0  0  0  0  0  0  0  0  0  0  0  0
  146.1643  136.1971  153.7902 C   0  0  0  0  0  0  0  0  0  0  0  0
  147.0221  140.4838  153.9151 H   0  0  0  0  0  0  0  0  0  0  0  0
  149.2582  138.5996  153.4627 H   0  0  0  0  0  0  0  0  0  0  0  0
  147.6210  133.4401  152.3211 H   0  0  0  0  0  0  0  0  0  0  0  0
  146.9406  132.2858  151.1718 H   0  0  0  0  0  0  0  0  0  0  0  0
  147.0738  131.8644  152.8752 H   0  0  0  0  0  0  0  0  0  0  0  0
  145.4028  133.6036  153.4765 H   0  0  0  0  0  0  0  0  0  0  0  0
  143.0151  131.6985  150.9427 H   0  0  0  0  0  0  0  0  0  0  0  0
  142.6571  133.0029  152.0811 H   0  0  0  0  0  0  0  0  0  0  0  0
  144.6450  133.0501  149.7769 H   0  0  0  0  0  0  0  0  0  0  0  0
  143.3195  134.1792  150.0067 H   0  0  0  0  0  0  0  0  0  0  0  0
  145.7940  134.8818  149.7938 H   0  0  0  0  0  0  0  0  0  0  0  0
  143.6107  136.0611  151.5605 H   0  0  0  0  0  0  0  0  0  0  0  0
  143.6214  135.0977  153.0092 H   0  0  0  0  0  0  0  0  0  0  0  0
  144.6007  138.3155  151.9172 H   0  0  0  0  0  0  0  0  0  0  0  0
  146.5701  139.4170  156.0606 H   0  0  0  0  0  0  0  0  0  0  0  0
  148.0248  140.0906  156.7709 H   0  0  0  0  0  0  0  0  0  0  0  0
  149.3125  140.9470  153.2770 H   0  0  0  0  0  0  0  0  0  0  0  0
  149.7913  141.1635  154.9582 H   0  0  0  0  0  0  0  0  0  0  0  0
  152.2607  137.3572  155.2449 H   0  0  0  0  0  0  0  0  0  0  0  0
  150.6559  136.7874  154.8339 H   0  0  0  0  0  0  0  0  0  0  0  0
  147.8301  134.2331  155.7098 H   0  0  0  0  0  0  0  0  0  0  0  0
  1  2  1  0  0  0  0
  1 29  1  0  0  0  0
  1 30  1  0  0  0  0
  1 31  1  0  0  0  0
  2  6  1  0  0  0  0
  2  3  1  0  0  0  0
  2 32  1  0  0  0  0
  3  4  1  0  0  0  0
  4  5  1  0  0  0  0
  4 33  1  0  0  0  0
  4 34  1  0  0  0  0
  5  6  1  0  0  0  0
  5 35  1  0  0  0  0
  5 36  1  0  0  0  0
  6  7  1  0  0  0  0
  6  8  1  0  0  0  0
  7 37  1  0  0  0  0
  8  9  1  0  0  0  0
  8 38  1  0  0  0  0
  8 39  1  0  0  0  0
  9 26  1  0  0  0  0
  9 10  1  0  0  0  0
 10 11  2  0  0  0  0
 10 40  1  0  0  0  0
 11 12  1  0  0  0  0
 12 26  2  0  0  0  0
 12 13  1  0  0  0  0
 13 14  1  0  0  0  0
 13 23  2  0  0  0  0
 14 19  1  0  0  0  0
 14 15  1  0  0  0  0
 15 16  1  0  0  0  0
 15 41  1  0  0  0  0
 15 42  1  0  0  0  0
 16 27  1  0  0  0  0
 16 17  1  0  0  0  0
 16 18  1  0  0  0  0
 18 19  1  0  0  0  0
 18 43  1  0  0  0  0
 18 44  1  0  0  0  0
 19 28  1  0  0  0  0
 19 20  1  0  0  0  0
 20 21  1  0  0  0  0
 20 22  2  0  0  0  0
 21 45  1  0  0  0  0
 21 46  1  0  0  0  0
 23 24  1  0  0  0  0
 24 25  2  0  0  0  0
 24 47  1  0  0  0  0
 25 26  1  0  0  0  0
M  END
> <s_m_source_file>
AV-unprocessed.smi

> <i_m_source_file_index>
196

> <i_lp_mmshare_version>
43012

> <i_f3d_flags>
0

> <s_epik_input>
W0NIMl0xW0NIMl1PW0NAQEhdKFtDSDNdKVtDQEBdMShbT0hdKVtDSDJdbihbY0hdbjIpYyhjMjMpbltjSF1uYzNONFtDSDJdW0NASF0oRilbQ0gyXVtDQEhdNEMoPU8pW05IMl0=

> <s_epik_cmdline>
J2VwaWtfcHl0aG9uJywgJy1waCcsICc3LjAnLCAnLXRuJywgJzgnLCAnLW1hJywgJzIwMCcsICctbWV0YWxfYmluZGluZycsICctaW1hZScsICc8aW5maWxlLm1hZT4nLCAnLW9tYWUnLCAnPG91dGZpbGUubWFlPic=

> <r_lp_tautomer_probability>
1

> <r_epik_Ionization_Penalty>
0.000857933

> <r_epik_Ionization_Penalty_Charging>
0

> <r_epik_Ionization_Penalty_Neutral>
0.000857933

> <r_epik_State_Penalty>
0.000462053

> <r_epik_Charging_Adjusted_Penalty>
0.000462053

> <i_epik_Tot_Q>
0

> <i_epik_Tot_abs_Q>
0

> <r_epik_Metal_State_Penalty>
-0

> <b_epik_Metal_Only>
0

> <s_lp_Force_Field>
OPLS_2005

> <r_lp_Energy>
47.3735

> <b_lp_Chiralities_Consistent>
1

> <s_lp_Variant>
AV-unprocessed.smi:196-7

> <Gold.Version>
5.8.1

> <Gold.Id.Protein>
6NUR|6NUR_protein|mol2

> <Gold.PLP.Fitness>
38.8047

> <Gold.PLP.PLP>
-28.0402

> <Gold.PLP.part.hbond>
-2.0000

> <Gold.PLP.part.metal>
0.0000

> <Gold.PLP.part.buried>
-1.1255

> <Gold.PLP.part.nonpolar>
-26.2040

> <Gold.PLP.part.repulsive>
0.7525

> <Gold.PLP.ligand.clash>
0.0000

> <Gold.PLP.ligand.torsion>
0.4918

> <Gold.PLP.Chemscore.Hbond>
2.0000

> <Gold.PLP.Chemscore.CHOScore>
1.8799

> <Gold.PLP.Chemscore.Metal>
0.0000

> <Gold.Chemscore.Hbonds>
donor molecule, donor type, donor heavy atom, donor atom, acceptor molecule, acceptor atom, score
      L1  H     7    37       P1  7921  0.62
      P1  H  7989  7998       L1    22  1.00
      L1  C    10    40       P1 10171  1.00
      L1  C    10    40       P1 10175  0.82

> <Gold.PLP.Chemscore.Internal.Correction>
0.1085

> <Gold.Rescore>
     Score         DG    S(hbond)    S(metal)    S(lipo)     H(rot)  DE(clash)    DE(int)     intcor
      8.77     -10.83       1.89        0.00      58.27       3.04       0.16       1.90       ----

> <Gold.Chemscore.Fitness>
8.7702

> <Gold.Chemscore.DG>
-10.8253

> <Gold.Chemscore.ZeroCoef>
-5.4800

> <Gold.Chemscore.Hbond>
1.8904

> <Gold.Chemscore.Metal>
0.0000

> <Gold.Chemscore.Lipo>
58.2664

> <Gold.Chemscore.Internal_Hbond>
0.0000

> <Gold.Chemscore.DEClash>
0.1589

> <Gold.Chemscore.DEInternal>
1.8962

> <Gold.Chemscore.Rot>
3.0413

> <Gold.Chemscore.Internal.Correction>
   9.000000E+99

> <Gold.Chemscore.Hbonds>
donor molecule, donor type, donor heavy atom, donor atom, acceptor molecule, acceptor atom, score
      L1  H     7    37       P1  7921  0.54
      P1  H  7989  7998       L1    22  0.77

> <Gold.Chemscore.Hbond.Weighted>
-6.3138

> <Gold.Chemscore.Metal.Weighted>
-0.0000

> <Gold.Chemscore.Lipo.Weighted>
-6.8172

> <Gold.Chemscore.Internal_Hbond.Weighted>
0.0000

> <Gold.Chemscore.DEClash.Weighted>
0.1589

> <Gold.Chemscore.DEInternal.Weighted>
1.8962

> <Gold.Chemscore.Rot.Weighted>
7.7856

> <Gold.Chemscore.Internal.Correction.Weighted>
   9.000000E+99

> <Gold.Protein.RotatedTorsions>
[ 6907 6896 6895 6894 ] final -104.55 input  -60.11 | X-H torsion
[ 7974 7965 7964 7962 ] final -126.94 input  175.53 | X-H torsion
[ 8008 7997 7996 7995 ] final -159.29 input   59.86 | X-H torsion
[ 10167 10162 10161 10158 ] final -153.52 input  -65.29 | X-H torsion
[ 10718 10713 10712 10709 ] final   -2.40 input   66.30 | X-H torsion
[ 10763 10752 10751 10750 ] final   92.29 input  -60.55 | X-H torsion
[ 11005 11000 10999 10996 ] final  145.27 input  -57.11 | X-H torsion

> <Gold.Protein.ActiveResidues>
 VAL166  LYS551  ARG553  GLY616  TRP617  ASP618  TYR619  PRO620  LYS621  CYS622 
 ASP623  PHE694  ASN695  SER759  ASP760  ASP761  ALA762  ILE779  LEU786  VAL792 
 PHE793  MET794  SER795  GLU796  ALA797  LYS798  CYS799  TRP800  GLU811  SER814 

> <Gold.Protein.RotatedAtoms>
  150.7293  134.0261  159.3717 H   0  0  0  0  0  0  0  0  0  0  0  0  # atno 6907 bound_to 6896
  151.8228  135.0644  160.0436 H   0  0  0  0  0  0  0  0  0  0  0  0  # atno 6908 bound_to 6896
  152.2991  133.5601  159.5643 H   0  0  0  0  0  0  0  0  0  0  0  0  # atno 6909 bound_to 6896
  144.9821  140.7651  143.4606 H   0  0  0  0  0  0  0  0  0  0  0  0  # atno 7974 bound_to 7965
  155.7604  140.0838  157.2158 H   0  0  0  0  0  0  0  0  0  0  0  0  # atno 8008 bound_to 7997
  154.4004  140.1544  156.2882 H   0  0  0  0  0  0  0  0  0  0  0  0  # atno 8009 bound_to 7997
  155.8845  140.3419  155.5914 H   0  0  0  0  0  0  0  0  0  0  0  0  # atno 8010 bound_to 7997
  139.7090  143.9140  152.2460 H   0  0  0  0  0  0  0  0  0  0  0  0  # atno 10167 bound_to 10162
  156.7914  130.5363  149.5735 H   0  0  0  0  0  0  0  0  0  0  0  0  # atno 10718 bound_to 10713
  153.2176  135.4367  155.0452 H   0  0  0  0  0  0  0  0  0  0  0  0  # atno 10763 bound_to 10752
  154.8233  135.3348  154.6976 H   0  0  0  0  0  0  0  0  0  0  0  0  # atno 10764 bound_to 10752
  153.7409  135.7005  153.5023 H   0  0  0  0  0  0  0  0  0  0  0  0  # atno 10765 bound_to 10752
  140.0699  134.9157  157.1327 H   0  0  0  0  0  0  0  0  0  0  0  0  # atno 11005 bound_to 11000
  145.2406  139.2074  143.4995 LP  0  0  0  0  0  0  0  0  0  0  0  0  # atno 17320 bound_to 7965
  146.3411  140.2300  142.8593 LP  0  0  0  0  0  0  0  0  0  0  0  0  # atno 17321 bound_to 7965
  139.9003  144.6915  150.8672 LP  0  0  0  0  0  0  0  0  0  0  0  0  # atno 17342 bound_to 10162
  140.7728  143.3518  151.1998 LP  0  0  0  0  0  0  0  0  0  0  0  0  # atno 17343 bound_to 10162
  156.1157  130.6073  151.0116 LP  0  0  0  0  0  0  0  0  0  0  0  0  # atno 17370 bound_to 10713
  157.6599  131.0883  150.7863 LP  0  0  0  0  0  0  0  0  0  0  0  0  # atno 17371 bound_to 10713
  140.3643  134.2460  155.7184 LP  0  0  0  0  0  0  0  0  0  0  0  0  # atno 17394 bound_to 11000
  141.2007  133.7979  157.0473 LP  0  0  0  0  0  0  0  0  0  0  0  0  # atno 17395 bound_to 11000

$$$$
