AV-unprocessed.smi:1892|AV-procd|sdf|7670|dock8
  -GOLD-   22720 9403D 1   1.00000     0.00000
 Structure written by MMmdl.
 43 44  0  0  0  0  0  0  0  0  2 V2000
  142.5664  142.4755  155.7430 C   0  0  0  0  0  0  0  0  0  0  0  0
  143.7392  142.1596  156.6738 C   0  0  0  0  0  0  0  0  0  0  0  0
  143.5100  141.5084  157.6927 O   0  0  0  0  0  0  0  0  0  0  0  0
  144.9783  142.6034  156.3536 N   0  0  0  0  0  0  0  0  0  0  0  0
  145.2684  143.3252  155.1120 C   0  0  0  0  0  0  0  0  0  0  0  0
  146.1605  142.4463  154.2164 C   0  0  0  0  0  0  0  0  0  0  0  0
  147.3986  142.0197  154.9236 N   0  3  0  0  0  0  0  0  0  0  0  0
  148.2652  141.1752  154.0634 C   0  0  0  0  0  0  0  0  0  0  0  0
  149.7583  141.2878  154.4285 C   0  0  0  0  0  0  0  0  0  0  0  0
  149.9735  142.2379  155.5140 N   0  0  0  0  0  0  0  0  0  0  0  0
  150.7070  141.9940  156.6098 C   0  0  0  0  0  0  0  0  0  0  0  0
  151.2745  140.9206  156.8153 O   0  0  0  0  0  0  0  0  0  0  0  0
  150.7284  143.0580  157.4319 N   0  0  0  0  0  0  0  0  0  0  0  0
  151.3984  143.1905  158.6774 C   0  0  0  0  0  0  0  0  0  0  0  0
  151.2186  144.4338  159.3245 C   0  0  0  0  0  0  0  0  0  0  0  0
  151.8438  144.6659  160.5650 C   0  0  0  0  0  0  0  0  0  0  0  0
  152.6339  143.6474  161.1269 C   0  0  0  0  0  0  0  0  0  0  0  0
  152.7609  142.4392  160.4173 C   0  0  0  0  0  0  0  0  0  0  0  0
  152.1624  142.2143  159.2286 N   0  0  0  0  0  0  0  0  0  0  0  0
  147.1199  141.4196  156.2585 C   0  0  0  0  0  0  0  0  0  0  0  0
  146.2050  142.3235  157.1053 C   0  0  0  0  0  0  0  0  0  0  0  0
  142.4346  143.5526  155.6369 H   0  0  0  0  0  0  0  0  0  0  0  0
  141.6380  142.0656  156.1427 H   0  0  0  0  0  0  0  0  0  0  0  0
  142.7255  142.0373  154.7574 H   0  0  0  0  0  0  0  0  0  0  0  0
  144.3681  143.6110  154.5664 H   0  0  0  0  0  0  0  0  0  0  0  0
  145.7793  144.2591  155.3512 H   0  0  0  0  0  0  0  0  0  0  0  0
  145.6055  141.5625  153.8972 H   0  0  0  0  0  0  0  0  0  0  0  0
  146.4248  142.9983  153.3137 H   0  0  0  0  0  0  0  0  0  0  0  0
  147.9332  140.1370  154.1109 H   0  0  0  0  0  0  0  0  0  0  0  0
  148.1388  141.4915  153.0268 H   0  0  0  0  0  0  0  0  0  0  0  0
  150.1610  140.3110  154.7028 H   0  0  0  0  0  0  0  0  0  0  0  0
  150.3419  141.6371  153.5776 H   0  0  0  0  0  0  0  0  0  0  0  0
  149.5417  143.1459  155.4207 H   0  0  0  0  0  0  0  0  0  0  0  0
  150.2077  143.8688  157.1324 H   0  0  0  0  0  0  0  0  0  0  0  0
  150.6085  145.2059  158.8787 H   0  0  0  0  0  0  0  0  0  0  0  0
  151.7193  145.6096  161.0752 H   0  0  0  0  0  0  0  0  0  0  0  0
  153.1299  143.7879  162.0757 H   0  0  0  0  0  0  0  0  0  0  0  0
  153.3592  141.6322  160.8134 H   0  0  0  0  0  0  0  0  0  0  0  0
  146.6515  140.4430  156.1259 H   0  0  0  0  0  0  0  0  0  0  0  0
  148.0499  141.2543  156.8009 H   0  0  0  0  0  0  0  0  0  0  0  0
  146.7102  143.2662  157.3202 H   0  0  0  0  0  0  0  0  0  0  0  0
  146.0288  141.8616  158.0758 H   0  0  0  0  0  0  0  0  0  0  0  0
  147.9153  142.8702  155.0972 H   0  0  0  0  0  0  0  0  0  0  0  0
  1  2  1  0  0  0  0
  1 22  1  0  0  0  0
  1 23  1  0  0  0  0
  1 24  1  0  0  0  0
  2  3  2  0  0  0  0
  2  4  1  0  0  0  0
  4 21  1  0  0  0  0
  4  5  1  0  0  0  0
  5  6  1  0  0  0  0
  5 25  1  0  0  0  0
  5 26  1  0  0  0  0
  6  7  1  0  0  0  0
  6 27  1  0  0  0  0
  6 28  1  0  0  0  0
  7  8  1  0  0  0  0
  7 20  1  0  0  0  0
  7 43  1  0  0  0  0
  8  9  1  0  0  0  0
  8 29  1  0  0  0  0
  8 30  1  0  0  0  0
  9 10  1  0  0  0  0
  9 31  1  0  0  0  0
  9 32  1  0  0  0  0
 10 11  1  0  0  0  0
 10 33  1  0  0  0  0
 11 12  2  0  0  0  0
 11 13  1  0  0  0  0
 13 14  1  0  0  0  0
 13 34  1  0  0  0  0
 14 19  1  0  0  0  0
 14 15  2  0  0  0  0
 15 16  1  0  0  0  0
 15 35  1  0  0  0  0
 16 17  2  0  0  0  0
 16 36  1  0  0  0  0
 17 18  1  0  0  0  0
 17 37  1  0  0  0  0
 18 19  2  0  0  0  0
 18 38  1  0  0  0  0
 20 21  1  0  0  0  0
 20 39  1  0  0  0  0
 20 40  1  0  0  0  0
 21 41  1  0  0  0  0
 21 42  1  0  0  0  0
M  CHG  1   7   1
M  END
> <s_m_source_file>
AV-unprocessed.smi

> <i_m_source_file_index>
1892

> <i_lp_mmshare_version>
43012

> <i_f3d_flags>
0

> <s_epik_input>
W0NIM11DKD1PKU4xW0NIMl1bQ0gyXU4oW0NIMl1bQ0gyXTEpW0NIMl1bQ0gyXVtOSF1DKD1PKVtOSF1jMltjSF1bY0hdW2NIXVtjSF1uMg==

> <s_epik_cmdline>
J2VwaWtfcHl0aG9uJywgJy1waCcsICc3LjAnLCAnLXRuJywgJzgnLCAnLW1hJywgJzIwMCcsICctbWV0YWxfYmluZGluZycsICctaW1hZScsICc8aW5maWxlLm1hZT4nLCAnLW9tYWUnLCAnPG91dGZpbGUubWFlPic=

> <r_epik_Ionization_Penalty>
0.630068

> <r_epik_Ionization_Penalty_Charging>
0.630034

> <r_epik_Ionization_Penalty_Neutral>
3.4348e-05

> <r_epik_State_Penalty>
0.646805

> <r_epik_Charging_Adjusted_Penalty>
1.27684

> <i_epik_Tot_Q>
1

> <i_epik_Tot_abs_Q>
1

> <r_epik_Metal_State_Penalty>
0.646808

> <b_epik_Metal_Only>
0

> <s_lp_Force_Field>
OPLS_2005

> <r_lp_Energy>
41.8075

> <b_lp_Chiralities_Consistent>
1

> <s_lp_Variant>
AV-unprocessed.smi:1892-2

> <Gold.Version>
5.8.1

> <Gold.Id.Protein>
6NUR|6NUR_protein|mol2

> <Gold.PLP.Fitness>
50.7290

> <Gold.PLP.PLP>
-40.2410

> <Gold.PLP.part.hbond>
-3.0000

> <Gold.PLP.part.metal>
0.0000

> <Gold.PLP.part.buried>
-6.7403

> <Gold.PLP.part.nonpolar>
-30.3489

> <Gold.PLP.part.repulsive>
0.3068

> <Gold.PLP.ligand.clash>
0.0000

> <Gold.PLP.ligand.torsion>
0.6923

> <Gold.PLP.Chemscore.Hbond>
3.9440

> <Gold.PLP.Chemscore.CHOScore>
0.0000

> <Gold.PLP.Chemscore.Metal>
0.0000

> <Gold.Chemscore.Hbonds>
donor molecule, donor type, donor heavy atom, donor atom, acceptor molecule, acceptor atom, score
      L1  H     7    43       P1  8028  1.50
      L1  H    10    33       P1  8028  1.00
      L1  H    13    34       P1  8028  0.70

> <Gold.PLP.Chemscore.Internal.Correction>
0.0405

> <Gold.Rescore>
     Score         DG    S(hbond)    S(metal)    S(lipo)     H(rot)  DE(clash)    DE(int)     intcor
     17.31     -19.38       2.61        0.00      80.07       1.64       0.03       2.04       ----

> <Gold.Chemscore.Fitness>
17.3098

> <Gold.Chemscore.DG>
-19.3797

> <Gold.Chemscore.ZeroCoef>
-5.4800

> <Gold.Chemscore.Hbond>
2.6127

> <Gold.Chemscore.Metal>
0.0000

> <Gold.Chemscore.Lipo>
80.0741

> <Gold.Chemscore.Internal_Hbond>
0.0000

> <Gold.Chemscore.DEClash>
0.0262

> <Gold.Chemscore.DEInternal>
2.0437

> <Gold.Chemscore.Rot>
1.6388

> <Gold.Chemscore.Internal.Correction>
   9.000000E+99

> <Gold.Chemscore.Hbonds>
donor molecule, donor type, donor heavy atom, donor atom, acceptor molecule, acceptor atom, score
      L1  H     7    43       P1  8028  0.64
      L1  H    10    33       P1  8028  1.00
      L1  H    13    34       P1  8028  0.64

> <Gold.Chemscore.Hbond.Weighted>
-8.7263

> <Gold.Chemscore.Metal.Weighted>
-0.0000

> <Gold.Chemscore.Lipo.Weighted>
-9.3687

> <Gold.Chemscore.Internal_Hbond.Weighted>
0.0000

> <Gold.Chemscore.DEClash.Weighted>
0.0262

> <Gold.Chemscore.DEInternal.Weighted>
2.0437

> <Gold.Chemscore.Rot.Weighted>
4.1952

> <Gold.Chemscore.Internal.Correction.Weighted>
   9.000000E+99

> <Gold.Protein.RotatedTorsions>
[ 6907 6896 6895 6894 ] final -122.34 input  -60.11 | X-H torsion
[ 7974 7965 7964 7962 ] final   61.26 input  175.53 | X-H torsion
[ 8008 7997 7996 7995 ] final  -29.94 input   59.86 | X-H torsion
[ 10167 10162 10161 10158 ] final -158.21 input  -65.29 | X-H torsion
[ 10718 10713 10712 10709 ] final   73.67 input   66.30 | X-H torsion
[ 10763 10752 10751 10750 ] final  -28.79 input  -60.55 | X-H torsion
[ 11005 11000 10999 10996 ] final  -43.26 input  -57.11 | X-H torsion

> <Gold.Protein.ActiveResidues>
 VAL166  LYS551  ARG553  GLY616  TRP617  ASP618  TYR619  PRO620  LYS621  CYS622 
 ASP623  PHE694  ASN695  SER759  ASP760  ASP761  ALA762  ILE779  LEU786  VAL792 
 PHE793  MET794  SER795  GLU796  ALA797  LYS798  CYS799  TRP800  GLU811  SER814 

> <Gold.Protein.RotatedAtoms>
  150.8567  133.7705  159.3006 H   0  0  0  0  0  0  0  0  0  0  0  0  # atno 6907 bound_to 6896
  151.5360  135.1067  159.9924 H   0  0  0  0  0  0  0  0  0  0  0  0  # atno 6908 bound_to 6896
  152.4595  133.7748  159.6874 H   0  0  0  0  0  0  0  0  0  0  0  0  # atno 6909 bound_to 6896
  145.8867  139.3481  143.0674 H   0  0  0  0  0  0  0  0  0  0  0  0  # atno 7974 bound_to 7965
  154.4270  140.1805  156.1327 H   0  0  0  0  0  0  0  0  0  0  0  0  # atno 8008 bound_to 7997
  156.0054  140.3356  155.6862 H   0  0  0  0  0  0  0  0  0  0  0  0  # atno 8009 bound_to 7997
  155.6184  140.0657  157.2676 H   0  0  0  0  0  0  0  0  0  0  0  0  # atno 8010 bound_to 7997
  139.6710  143.9746  152.2283 H   0  0  0  0  0  0  0  0  0  0  0  0  # atno 10167 bound_to 10162
  157.6558  130.9640  150.1102 H   0  0  0  0  0  0  0  0  0  0  0  0  # atno 10718 bound_to 10713
  153.7541  135.6924  153.4939 H   0  0  0  0  0  0  0  0  0  0  0  0  # atno 10763 bound_to 10752
  153.1983  135.4446  155.0234 H   0  0  0  0  0  0  0  0  0  0  0  0  # atno 10764 bound_to 10752
  154.8177  135.3406  154.7060 H   0  0  0  0  0  0  0  0  0  0  0  0  # atno 10765 bound_to 10752
  141.0372  133.6795  156.2708 H   0  0  0  0  0  0  0  0  0  0  0  0  # atno 11005 bound_to 11000
  145.8958  140.9275  143.0528 LP  0  0  0  0  0  0  0  0  0  0  0  0  # atno 17320 bound_to 7965
  144.6729  140.0966  143.7462 LP  0  0  0  0  0  0  0  0  0  0  0  0  # atno 17321 bound_to 7965
  139.9510  144.6620  150.8172 LP  0  0  0  0  0  0  0  0  0  0  0  0  # atno 17342 bound_to 10162
  140.7618  143.3182  151.2683 LP  0  0  0  0  0  0  0  0  0  0  0  0  # atno 17343 bound_to 10162
  156.2000  130.3659  149.8800 LP  0  0  0  0  0  0  0  0  0  0  0  0  # atno 17370 bound_to 10713
  156.6706  130.8818  151.3561 LP  0  0  0  0  0  0  0  0  0  0  0  0  # atno 17371 bound_to 10713
  140.6301  134.5273  157.5558 LP  0  0  0  0  0  0  0  0  0  0  0  0  # atno 17394 bound_to 11000
  139.9249  134.8076  156.1099 LP  0  0  0  0  0  0  0  0  0  0  0  0  # atno 17395 bound_to 11000

$$$$
