AV-unprocessed.smi:1179|AV-procd|sdf|4958|dock8
  -GOLD-   22720 3553D 1   1.00000     0.00000
 Structure written by MMmdl.
 47 48  0  0  0  0  0  0  0  0  2 V2000
  152.2678  138.6430  155.5892 C   0  0  0  0  0  0  0  0  0  0  0  0
  151.1543  139.6204  155.8241 C   0  0  0  0  0  0  0  0  0  0  0  0
  150.7664  140.2367  157.0463 C   0  0  0  0  0  0  0  0  0  0  0  0
  149.7082  141.0305  156.7041 C   0  0  0  0  0  0  0  0  0  0  0  0
  148.8688  141.9327  157.5476 C   0  0  0  0  0  0  0  0  0  0  0  0
  149.5073  140.8671  155.3447 N   0  0  0  0  0  0  0  0  0  0  0  0
  148.5151  141.4895  154.4815 C   0  0  0  0  0  0  0  0  0  0  0  0
  147.4541  140.4807  154.0386 C   0  0  0  0  0  0  0  0  0  0  0  0
  146.4545  140.2921  154.7314 O   0  0  0  0  0  0  0  0  0  0  0  0
  147.6811  139.8403  152.8810 N   0  0  0  0  0  0  0  0  0  0  0  0
  146.7872  138.8589  152.2800 C   0  0  0  0  0  0  0  0  0  0  0  0
  146.4677  137.7152  153.2622 C   0  0  0  0  0  0  0  0  0  0  0  0
  146.5691  136.3774  152.6272 N   0  3  2  0  0  0  0  0  0  0  0  0
  145.6193  136.2218  151.4951 C   0  0  0  0  0  0  0  0  0  0  0  0
  145.8341  134.8843  150.7670 C   0  0  0  0  0  0  0  0  0  0  0  0
  145.7087  133.6955  151.7342 C   0  0  1  0  0  0  0  0  0  0  0  0
  145.9528  132.3562  151.0247 C   0  0  0  0  0  0  0  0  0  0  0  0
  146.6747  133.8999  152.9131 C   0  0  0  0  0  0  0  0  0  0  0  0
  146.4435  135.2575  153.5981 C   0  0  0  0  0  0  0  0  0  0  0  0
  150.3982  140.0038  154.8085 N   0  0  0  0  0  0  0  0  0  0  0  0
  152.7369  138.3474  156.5278 H   0  0  0  0  0  0  0  0  0  0  0  0
  153.0410  139.0746  154.9532 H   0  0  0  0  0  0  0  0  0  0  0  0
  151.9019  137.7380  155.1033 H   0  0  0  0  0  0  0  0  0  0  0  0
  151.2002  140.1141  158.0277 H   0  0  0  0  0  0  0  0  0  0  0  0
  149.2083  141.9232  158.5835 H   0  0  0  0  0  0  0  0  0  0  0  0
  147.8253  141.6184  157.5345 H   0  0  0  0  0  0  0  0  0  0  0  0
  148.9195  142.9604  157.1884 H   0  0  0  0  0  0  0  0  0  0  0  0
  148.0401  142.3181  155.0094 H   0  0  0  0  0  0  0  0  0  0  0  0
  149.0161  141.9152  153.6113 H   0  0  0  0  0  0  0  0  0  0  0  0
  148.5289  140.0609  152.3776 H   0  0  0  0  0  0  0  0  0  0  0  0
  145.8678  139.3698  151.9934 H   0  0  0  0  0  0  0  0  0  0  0  0
  147.2356  138.4861  151.3587 H   0  0  0  0  0  0  0  0  0  0  0  0
  147.1177  137.7530  154.1378 H   0  0  0  0  0  0  0  0  0  0  0  0
  145.4512  137.8644  153.6294 H   0  0  0  0  0  0  0  0  0  0  0  0
  144.5950  136.2895  151.8661 H   0  0  0  0  0  0  0  0  0  0  0  0
  145.7541  137.0382  150.7846 H   0  0  0  0  0  0  0  0  0  0  0  0
  145.1078  134.7870  149.9591 H   0  0  0  0  0  0  0  0  0  0  0  0
  146.8194  134.8789  150.2984 H   0  0  0  0  0  0  0  0  0  0  0  0
  144.6905  133.6819  152.1264 H   0  0  0  0  0  0  0  0  0  0  0  0
  146.9606  132.3023  150.6117 H   0  0  0  0  0  0  0  0  0  0  0  0
  145.2492  132.2124  150.2041 H   0  0  0  0  0  0  0  0  0  0  0  0
  145.8303  131.5199  151.7133 H   0  0  0  0  0  0  0  0  0  0  0  0
  146.5502  133.0973  153.6409 H   0  0  0  0  0  0  0  0  0  0  0  0
  147.7061  133.8407  152.5623 H   0  0  0  0  0  0  0  0  0  0  0  0
  147.1658  135.3696  154.4055 H   0  0  0  0  0  0  0  0  0  0  0  0
  145.4538  135.2810  154.0569 H   0  0  0  0  0  0  0  0  0  0  0  0
  147.4946  136.3197  152.2270 H   0  0  0  0  0  0  0  0  0  0  0  0
  1  2  1  0  0  0  0
  1 21  1  0  0  0  0
  1 22  1  0  0  0  0
  1 23  1  0  0  0  0
  2 20  2  0  0  0  0
  2  3  1  0  0  0  0
  3  4  2  0  0  0  0
  3 24  1  0  0  0  0
  4  5  1  0  0  0  0
  4  6  1  0  0  0  0
  5 25  1  0  0  0  0
  5 26  1  0  0  0  0
  5 27  1  0  0  0  0
  6  7  1  0  0  0  0
  6 20  1  0  0  0  0
  7  8  1  0  0  0  0
  7 28  1  0  0  0  0
  7 29  1  0  0  0  0
  8  9  2  0  0  0  0
  8 10  1  0  0  0  0
 10 11  1  0  0  0  0
 10 30  1  0  0  0  0
 11 12  1  0  0  0  0
 11 31  1  0  0  0  0
 11 32  1  0  0  0  0
 12 13  1  0  0  0  0
 12 33  1  0  0  0  0
 12 34  1  0  0  0  0
 13 19  1  0  0  0  0
 13 14  1  0  0  0  0
 13 47  1  0  0  0  0
 14 15  1  0  0  0  0
 14 35  1  0  0  0  0
 14 36  1  0  0  0  0
 15 16  1  0  0  0  0
 15 37  1  0  0  0  0
 15 38  1  0  0  0  0
 16 17  1  0  0  0  0
 16 18  1  0  0  0  0
 16 39  1  0  0  0  0
 17 40  1  0  0  0  0
 17 41  1  0  0  0  0
 17 42  1  0  0  0  0
 18 19  1  0  0  0  0
 18 43  1  0  0  0  0
 18 44  1  0  0  0  0
 19 45  1  0  0  0  0
 19 46  1  0  0  0  0
M  CHG  1  13   1
M  END
> <s_m_source_file>
AV-unprocessed.smi

> <i_m_source_file_index>
1179

> <i_lp_mmshare_version>
43012

> <i_f3d_flags>
0

> <s_epik_input>
W0NIM11jMVtjSF1jKFtDSDNdKW4objEpW0NIMl1DKD1PKVtOSF1bQ0gyXVtDSDJdTjJbQ0gyXVtDSDJdW0NIXShbQ0gzXSlbQ0gyXVtDSDJdMg==

> <s_epik_cmdline>
J2VwaWtfcHl0aG9uJywgJy1waCcsICc3LjAnLCAnLXRuJywgJzgnLCAnLW1hJywgJzIwMCcsICctbWV0YWxfYmluZGluZycsICctaW1hZScsICc8aW5maWxlLm1hZT4nLCAnLW9tYWUnLCAnPG91dGZpbGUubWFlPic=

> <r_lp_tautomer_probability>
1

> <r_epik_Ionization_Penalty>
0.00206343

> <r_epik_Ionization_Penalty_Charging>
0.00187095

> <r_epik_Ionization_Penalty_Neutral>
0.000192474

> <r_epik_State_Penalty>
-0

> <r_epik_Charging_Adjusted_Penalty>
0.00187095

> <i_epik_Tot_Q>
1

> <i_epik_Tot_abs_Q>
1

> <r_epik_Metal_State_Penalty>
-0

> <b_epik_Metal_Only>
0

> <s_lp_Force_Field>
OPLS_2005

> <r_lp_Energy>
13.8345

> <b_lp_Chiralities_Consistent>
1

> <s_lp_Variant>
AV-unprocessed.smi:1179-1

> <Gold.Version>
5.8.1

> <Gold.Id.Protein>
6NUR|6NUR_protein|mol2

> <Gold.PLP.Fitness>
49.2141

> <Gold.PLP.PLP>
-38.8705

> <Gold.PLP.part.hbond>
-2.9975

> <Gold.PLP.part.metal>
0.0000

> <Gold.PLP.part.buried>
-2.8564

> <Gold.PLP.part.nonpolar>
-33.4818

> <Gold.PLP.part.repulsive>
0.3096

> <Gold.PLP.ligand.clash>
0.0000

> <Gold.PLP.ligand.torsion>
0.8427

> <Gold.PLP.Chemscore.Hbond>
4.0000

> <Gold.PLP.Chemscore.CHOScore>
0.0000

> <Gold.PLP.Chemscore.Metal>
0.0000

> <Gold.Chemscore.Hbonds>
donor molecule, donor type, donor heavy atom, donor atom, acceptor molecule, acceptor atom, score
      L1  H    10    30       P1  7957  1.00
      L1  H    13    47       P1  7948  1.82
      P1  H  7989  7998       L1    20  1.00

> <Gold.PLP.Chemscore.Internal.Correction>
0.0290

> <Gold.Rescore>
     Score         DG    S(hbond)    S(metal)    S(lipo)     H(rot)  DE(clash)    DE(int)     intcor
     19.01     -20.05       2.92        0.00      77.68       1.67       0.11       0.93       ----

> <Gold.Chemscore.Fitness>
19.0130

> <Gold.Chemscore.DG>
-20.0471

> <Gold.Chemscore.ZeroCoef>
-5.4800

> <Gold.Chemscore.Hbond>
2.9169

> <Gold.Chemscore.Metal>
0.0000

> <Gold.Chemscore.Lipo>
77.6817

> <Gold.Chemscore.Internal_Hbond>
0.0000

> <Gold.Chemscore.DEClash>
0.1056

> <Gold.Chemscore.DEInternal>
0.9285

> <Gold.Chemscore.Rot>
1.6657

> <Gold.Chemscore.Internal.Correction>
   9.000000E+99

> <Gold.Chemscore.Hbonds>
donor molecule, donor type, donor heavy atom, donor atom, acceptor molecule, acceptor atom, score
      L1  H    10    30       P1  7957  0.98
      L1  H    13    47       P1  7948  0.87
      P1  H  7989  7998       L1    20  0.46

> <Gold.Chemscore.Hbond.Weighted>
-9.7424

> <Gold.Chemscore.Metal.Weighted>
-0.0000

> <Gold.Chemscore.Lipo.Weighted>
-9.0888

> <Gold.Chemscore.Internal_Hbond.Weighted>
0.0000

> <Gold.Chemscore.DEClash.Weighted>
0.1056

> <Gold.Chemscore.DEInternal.Weighted>
0.9285

> <Gold.Chemscore.Rot.Weighted>
4.2641

> <Gold.Chemscore.Internal.Correction.Weighted>
   9.000000E+99

> <Gold.Protein.RotatedTorsions>
[ 6907 6896 6895 6894 ] final   32.55 input  -60.11 | X-H torsion
[ 7974 7965 7964 7962 ] final  -44.09 input  175.53 | X-H torsion
[ 8008 7997 7996 7995 ] final -169.35 input   59.86 | X-H torsion
[ 10167 10162 10161 10158 ] final -113.60 input  -65.29 | X-H torsion
[ 10718 10713 10712 10709 ] final   15.12 input   66.30 | X-H torsion
[ 10763 10752 10751 10750 ] final  -52.88 input  -60.55 | X-H torsion
[ 11005 11000 10999 10996 ] final  175.93 input  -57.11 | X-H torsion

> <Gold.Protein.ActiveResidues>
 VAL166  LYS551  ARG553  GLY616  TRP617  ASP618  TYR619  PRO620  LYS621  CYS622 
 ASP623  PHE694  ASN695  SER759  ASP760  ASP761  ALA762  ILE779  LEU786  VAL792 
 PHE793  MET794  SER795  GLU796  ALA797  LYS798  CYS799  TRP800  GLU811  SER814 

> <Gold.Protein.RotatedAtoms>
  152.0761  134.9502  160.0573 H   0  0  0  0  0  0  0  0  0  0  0  0  # atno 6907 bound_to 6896
  152.0809  133.4147  159.4509 H   0  0  0  0  0  0  0  0  0  0  0  0  # atno 6908 bound_to 6896
  150.6836  134.2903  159.4707 H   0  0  0  0  0  0  0  0  0  0  0  0  # atno 6909 bound_to 6896
  145.9955  140.7133  142.9296 H   0  0  0  0  0  0  0  0  0  0  0  0  # atno 7974 bound_to 7965
  155.9038  140.1045  157.1330 H   0  0  0  0  0  0  0  0  0  0  0  0  # atno 8008 bound_to 7997
  154.4030  140.1287  156.4535 H   0  0  0  0  0  0  0  0  0  0  0  0  # atno 8009 bound_to 7997
  155.7391  140.3467  155.5098 H   0  0  0  0  0  0  0  0  0  0  0  0  # atno 8010 bound_to 7997
  140.1100  143.4536  152.1758 H   0  0  0  0  0  0  0  0  0  0  0  0  # atno 10167 bound_to 10162
  157.0489  130.6261  149.5764 H   0  0  0  0  0  0  0  0  0  0  0  0  # atno 10718 bound_to 10713
  154.1498  135.6492  153.4961 H   0  0  0  0  0  0  0  0  0  0  0  0  # atno 10763 bound_to 10752
  153.0141  135.5335  154.6819 H   0  0  0  0  0  0  0  0  0  0  0  0  # atno 10764 bound_to 10752
  154.6104  135.2953  155.0410 H   0  0  0  0  0  0  0  0  0  0  0  0  # atno 10765 bound_to 10752
  140.3676  134.7058  157.4371 H   0  0  0  0  0  0  0  0  0  0  0  0  # atno 11005 bound_to 11000
  144.6902  140.3143  143.7243 LP  0  0  0  0  0  0  0  0  0  0  0  0  # atno 17320 bound_to 7965
  145.7566  139.1811  143.2291 LP  0  0  0  0  0  0  0  0  0  0  0  0  # atno 17321 bound_to 7965
  139.5624  144.7414  151.4117 LP  0  0  0  0  0  0  0  0  0  0  0  0  # atno 17342 bound_to 10162
  140.6931  143.7815  150.7285 LP  0  0  0  0  0  0  0  0  0  0  0  0  # atno 17343 bound_to 10162
  156.0014  130.5094  150.7676 LP  0  0  0  0  0  0  0  0  0  0  0  0  # atno 17370 bound_to 10713
  157.5046  131.0921  151.0273 LP  0  0  0  0  0  0  0  0  0  0  0  0  # atno 17371 bound_to 10713
  140.0577  134.6040  155.8785 LP  0  0  0  0  0  0  0  0  0  0  0  0  # atno 17394 bound_to 11000
  141.1965  133.6592  156.5693 LP  0  0  0  0  0  0  0  0  0  0  0  0  # atno 17395 bound_to 11000

$$$$
