AV-unprocessed.smi:110|AV-procd|sdf|1078|dock6
  -GOLD-   2262018163D 1   1.00000     0.00000
 Structure written by MMmdl.
 46 50  0  0  0  0  0  0  0  0  1 V2000
  147.1184  137.5915  152.9034 O   0  0  0  0  0  0  0  0  0  0  0  0
  147.3438  138.3377  154.0802 C   0  0  0  0  0  0  0  0  0  0  0  0
  147.2303  139.8409  153.7825 C   0  0  2  0  0  0  0  0  0  0  0  0
  148.5298  140.4292  153.6915 O   0  0  0  0  0  0  0  0  0  0  0  0
  148.6153  141.6272  154.4092 C   0  0  2  0  0  0  0  0  0  0  0  0
  149.4393  141.3994  155.6509 N   0  0  0  0  0  0  0  0  0  0  0  0
  149.2726  141.9902  156.8857 C   0  0  0  0  0  0  0  0  0  0  0  0
  150.1410  141.6501  157.7968 N   0  0  0  0  0  0  0  0  0  0  0  0
  151.0099  140.7886  157.1401 C   0  0  0  0  0  0  0  0  0  0  0  0
  152.1831  140.0735  157.5261 C   0  0  0  0  0  0  0  0  0  0  0  0
  152.6957  140.0839  158.7857 N   0  0  0  0  0  0  0  0  0  0  0  0
  153.6465  139.0365  159.1910 C   0  0  0  0  0  0  0  0  0  0  0  0
  154.4287  139.5490  160.4121 C   0  0  0  0  0  0  0  0  0  0  0  0
  153.7276  140.8401  160.6737 C   0  0  0  0  0  0  0  0  0  0  0  0
  153.9644  141.7298  161.7359 C   0  0  0  0  0  0  0  0  0  0  0  0
  153.1787  142.8985  161.8128 C   0  0  0  0  0  0  0  0  0  0  0  0
  152.1795  143.1500  160.8451 C   0  0  0  0  0  0  0  0  0  0  0  0
  151.9577  142.2403  159.7876 C   0  0  0  0  0  0  0  0  0  0  0  0
  152.7569  141.0788  159.7038 C   0  0  0  0  0  0  0  0  0  0  0  0
  152.7935  139.3267  156.5707 N   0  0  0  0  0  0  0  0  0  0  0  0
  152.3103  139.2886  155.3276 C   0  0  0  0  0  0  0  0  0  0  0  0
  151.2349  139.9019  154.8349 N   0  0  0  0  0  0  0  0  0  0  0  0
  150.5941  140.6453  155.7833 C   0  0  0  0  0  0  0  0  0  0  0  0
  147.1746  142.0007  154.7839 C   0  0  1  0  0  0  0  0  0  0  0  0
  146.5910  142.8228  153.7902 O   0  0  0  0  0  0  0  0  0  0  0  0
  146.5324  140.6273  154.8931 C   0  0  1  0  0  0  0  0  0  0  0  0
  145.1250  140.6670  154.7532 O   0  0  0  0  0  0  0  0  0  0  0  0
  146.7106  140.0137  152.8381 H   0  0  0  0  0  0  0  0  0  0  0  0
  149.1621  142.4007  153.8686 H   0  0  0  0  0  0  0  0  0  0  0  0
  147.1221  142.5449  155.7257 H   0  0  0  0  0  0  0  0  0  0  0  0
  146.7811  140.1955  155.8641 H   0  0  0  0  0  0  0  0  0  0  0  0
  147.9549  137.3483  152.5371 H   0  0  0  0  0  0  0  0  0  0  0  0
  146.5824  138.0425  154.8031 H   0  0  0  0  0  0  0  0  0  0  0  0
  148.3121  138.0868  154.5130 H   0  0  0  0  0  0  0  0  0  0  0  0
  148.4796  142.6914  157.1006 H   0  0  0  0  0  0  0  0  0  0  0  0
  153.0906  138.1378  159.4605 H   0  0  0  0  0  0  0  0  0  0  0  0
  154.3234  138.7804  158.3748 H   0  0  0  0  0  0  0  0  0  0  0  0
  154.3548  138.8747  161.2658 H   0  0  0  0  0  0  0  0  0  0  0  0
  155.4787  139.7279  160.1788 H   0  0  0  0  0  0  0  0  0  0  0  0
  154.7245  141.5229  162.4748 H   0  0  0  0  0  0  0  0  0  0  0  0
  153.3375  143.6004  162.6182 H   0  0  0  0  0  0  0  0  0  0  0  0
  151.5768  144.0433  160.9173 H   0  0  0  0  0  0  0  0  0  0  0  0
  151.1779  142.4407  159.0686 H   0  0  0  0  0  0  0  0  0  0  0  0
  152.8625  138.6781  154.6286 H   0  0  0  0  0  0  0  0  0  0  0  0
  146.2243  143.5851  154.2121 H   0  0  0  0  0  0  0  0  0  0  0  0
  144.9111  140.5525  153.8398 H   0  0  0  0  0  0  0  0  0  0  0  0
  1  2  1  0  0  0  0
  1 32  1  0  0  0  0
  2  3  1  0  0  0  0
  2 33  1  0  0  0  0
  2 34  1  0  0  0  0
  3 28  1  0  0  0  0
  3 26  1  0  0  0  0
  3  4  1  0  0  0  0
  4  5  1  0  0  0  0
  5 29  1  0  0  0  0
  5  6  1  0  0  0  0
  5 24  1  0  0  0  0
  6 23  1  0  0  0  0
  6  7  1  0  0  0  0
  7  8  2  0  0  0  0
  7 35  1  0  0  0  0
  8  9  1  0  0  0  0
  9 23  2  0  0  0  0
  9 10  1  0  0  0  0
 10 11  1  0  0  0  0
 10 20  2  0  0  0  0
 11 19  1  0  0  0  0
 11 12  1  0  0  0  0
 12 13  1  0  0  0  0
 12 36  1  0  0  0  0
 12 37  1  0  0  0  0
 13 14  1  0  0  0  0
 13 38  1  0  0  0  0
 13 39  1  0  0  0  0
 14 19  2  0  0  0  0
 14 15  1  0  0  0  0
 15 16  2  0  0  0  0
 15 40  1  0  0  0  0
 16 17  1  0  0  0  0
 16 41  1  0  0  0  0
 17 18  2  0  0  0  0
 17 42  1  0  0  0  0
 18 19  1  0  0  0  0
 18 43  1  0  0  0  0
 20 21  1  0  0  0  0
 21 22  2  0  0  0  0
 21 44  1  0  0  0  0
 22 23  1  0  0  0  0
 24 30  1  0  0  0  0
 24 25  1  0  0  0  0
 24 26  1  0  0  0  0
 25 45  1  0  0  0  0
 26 31  1  0  0  0  0
 26 27  1  0  0  0  0
 27 46  1  0  0  0  0
M  END
> <s_m_source_file>
AV-unprocessed.smi

> <i_m_source_file_index>
110

> <i_lp_mmshare_version>
43012

> <i_f3d_flags>
0

> <s_epik_input>
W09IXVtDSDJdW0NASF0xT1tDQEhdKFtDQEhdKFtPSF0pW0NAQEhdMVtPSF0pbihbY0hdbjIpYyhjMjMpbltjSF1uYzNOKFtDSDJdW0NIMl00KWMoYzQ1KVtjSF1bY0hdW2NIXVtjSF01

> <s_epik_cmdline>
J2VwaWtfcHl0aG9uJywgJy1waCcsICc3LjAnLCAnLXRuJywgJzgnLCAnLW1hJywgJzIwMCcsICctbWV0YWxfYmluZGluZycsICctaW1hZScsICc8aW5maWxlLm1hZT4nLCAnLW9tYWUnLCAnPG91dGZpbGUubWFlPic=

> <r_lp_tautomer_probability>
1

> <r_epik_Ionization_Penalty>
0.00068475

> <r_epik_Ionization_Penalty_Charging>
0

> <r_epik_Ionization_Penalty_Neutral>
0.00068475

> <r_epik_State_Penalty>
0.000417442

> <r_epik_Charging_Adjusted_Penalty>
0.000417442

> <i_epik_Tot_Q>
0

> <i_epik_Tot_abs_Q>
0

> <r_epik_Metal_State_Penalty>
-0

> <b_epik_Metal_Only>
0

> <s_epik_Chemistry_Notes>
This compound contains an acetal/aminal-like group ( X-CH(R)-Y where X, Y are N, S, or O) that may be acid/base labile, releasing an aldehyde.

> <s_lp_Force_Field>
OPLS_2005

> <r_lp_Energy>
62.7544

> <b_lp_Chiralities_Consistent>
1

> <s_lp_Variant>
AV-unprocessed.smi:110-16

> <Gold.Version>
5.8.1

> <Gold.Id.Protein>
6NUR|6NUR_protein|mol2

> <Gold.PLP.Fitness>
58.7287

> <Gold.PLP.PLP>
-48.0719

> <Gold.PLP.part.hbond>
-3.9649

> <Gold.PLP.part.metal>
0.0000

> <Gold.PLP.part.buried>
-5.3359

> <Gold.PLP.part.nonpolar>
-39.9051

> <Gold.PLP.part.repulsive>
2.2973

> <Gold.PLP.ligand.clash>
0.0000

> <Gold.PLP.ligand.torsion>
1.5631

> <Gold.PLP.Chemscore.Hbond>
4.0000

> <Gold.PLP.Chemscore.CHOScore>
0.5498

> <Gold.PLP.Chemscore.Metal>
0.0000

> <Gold.Chemscore.Hbonds>
donor molecule, donor type, donor heavy atom, donor atom, acceptor molecule, acceptor atom, score
      L1  H     1    32       P1  7948  1.00
      L1  H    27    46       P1 10175  1.00
      P1  H  7989  7998       L1    22  1.00
      P1  H  7997  8010       L1    20  1.00
      L1  C     7    35       P1  8028  0.56

> <Gold.PLP.Chemscore.Internal.Correction>
0.1337

> <Gold.Rescore>
     Score         DG    S(hbond)    S(metal)    S(lipo)     H(rot)  DE(clash)    DE(int)     intcor
     13.65     -17.88       2.97        0.00      95.14       3.38       0.14       4.09       ----

> <Gold.Chemscore.Fitness>
13.6454

> <Gold.Chemscore.DG>
-17.8787

> <Gold.Chemscore.ZeroCoef>
-5.4800

> <Gold.Chemscore.Hbond>
2.9731

> <Gold.Chemscore.Metal>
0.0000

> <Gold.Chemscore.Lipo>
95.1357

> <Gold.Chemscore.Internal_Hbond>
0.0000

> <Gold.Chemscore.DEClash>
0.1433

> <Gold.Chemscore.DEInternal>
4.0900

> <Gold.Chemscore.Rot>
3.3837

> <Gold.Chemscore.Internal.Correction>
   9.000000E+99

> <Gold.Chemscore.Hbonds>
donor molecule, donor type, donor heavy atom, donor atom, acceptor molecule, acceptor atom, score
      L1  H     1    32       P1  7948  0.95
      L1  H    27    46       P1 10175  0.94
      P1  H  7989  7998       L1    22  0.62
      P1  H  7997  8010       L1    20  0.19

> <Gold.Chemscore.Hbond.Weighted>
-9.9300

> <Gold.Chemscore.Metal.Weighted>
-0.0000

> <Gold.Chemscore.Lipo.Weighted>
-11.1309

> <Gold.Chemscore.Internal_Hbond.Weighted>
0.0000

> <Gold.Chemscore.DEClash.Weighted>
0.1433

> <Gold.Chemscore.DEInternal.Weighted>
4.0900

> <Gold.Chemscore.Rot.Weighted>
8.6622

> <Gold.Chemscore.Internal.Correction.Weighted>
   9.000000E+99

> <Gold.Protein.RotatedTorsions>
[ 6907 6896 6895 6894 ] final  162.63 input  -60.11 | X-H torsion
[ 7974 7965 7964 7962 ] final   22.45 input  175.53 | X-H torsion
[ 8008 7997 7996 7995 ] final   63.36 input   59.86 | X-H torsion
[ 10167 10162 10161 10158 ] final  -45.76 input  -65.29 | X-H torsion
[ 10718 10713 10712 10709 ] final  -80.45 input   66.30 | X-H torsion
[ 10763 10752 10751 10750 ] final  119.47 input  -60.55 | X-H torsion
[ 11005 11000 10999 10996 ] final -171.14 input  -57.11 | X-H torsion

> <Gold.Protein.ActiveResidues>
 VAL166  LYS551  ARG553  GLY616  TRP617  ASP618  TYR619  PRO620  LYS621  CYS622 
 ASP623  PHE694  ASN695  SER759  ASP760  ASP761  ALA762  ILE779  LEU786  VAL792 
 PHE793  MET794  SER795  GLU796  ALA797  LYS798  CYS799  TRP800  GLU811  SER814 

> <Gold.Protein.RotatedAtoms>
  151.9375  133.3628  159.3952 H   0  0  0  0  0  0  0  0  0  0  0  0  # atno 6907 bound_to 6896
  150.7005  134.4473  159.5329 H   0  0  0  0  0  0  0  0  0  0  0  0  # atno 6908 bound_to 6896
  152.2124  134.8489  160.0546 H   0  0  0  0  0  0  0  0  0  0  0  0  # atno 6909 bound_to 6896
  146.2028  139.7884  142.8748 H   0  0  0  0  0  0  0  0  0  0  0  0  # atno 7974 bound_to 7965
  155.6290  140.3496  155.4676 H   0  0  0  0  0  0  0  0  0  0  0  0  # atno 8008 bound_to 7997
  156.0018  140.1215  157.0563 H   0  0  0  0  0  0  0  0  0  0  0  0  # atno 8009 bound_to 7997
  154.4251  140.1099  156.5694 H   0  0  0  0  0  0  0  0  0  0  0  0  # atno 8010 bound_to 7997
  140.6845  143.2864  151.3685 H   0  0  0  0  0  0  0  0  0  0  0  0  # atno 10167 bound_to 10162
  156.0070  130.4574  150.3802 H   0  0  0  0  0  0  0  0  0  0  0  0  # atno 10718 bound_to 10713
  153.5836  135.3479  155.2884 H   0  0  0  0  0  0  0  0  0  0  0  0  # atno 10763 bound_to 10752
  154.8664  135.4188  154.2593 H   0  0  0  0  0  0  0  0  0  0  0  0  # atno 10764 bound_to 10752
  153.3385  135.7048  153.6957 H   0  0  0  0  0  0  0  0  0  0  0  0  # atno 10765 bound_to 10752
  140.5116  134.5796  157.5020 H   0  0  0  0  0  0  0  0  0  0  0  0  # atno 11005 bound_to 11000
  145.3424  141.0290  143.3385 LP  0  0  0  0  0  0  0  0  0  0  0  0  # atno 17320 bound_to 7965
  144.8723  139.5021  143.6762 LP  0  0  0  0  0  0  0  0  0  0  0  0  # atno 17321 bound_to 7965
  139.6192  144.0940  152.2375 LP  0  0  0  0  0  0  0  0  0  0  0  0  # atno 17342 bound_to 10162
  140.0379  144.6030  150.7434 LP  0  0  0  0  0  0  0  0  0  0  0  0  # atno 17343 bound_to 10162
  157.1882  131.0409  151.2714 LP  0  0  0  0  0  0  0  0  0  0  0  0  # atno 17370 bound_to 10713
  157.4085  130.7372  149.6821 LP  0  0  0  0  0  0  0  0  0  0  0  0  # atno 17371 bound_to 10713
  139.9655  134.7379  156.0146 LP  0  0  0  0  0  0  0  0  0  0  0  0  # atno 17394 bound_to 11000
  141.1382  133.6570  156.3654 LP  0  0  0  0  0  0  0  0  0  0  0  0  # atno 17395 bound_to 11000

$$$$
