AV-unprocessed.smi:1549|AV-procd|sdf|6223|dock3
  -GOLD-   22720 6393D 1   1.00000     0.00000
 Structure written by MMmdl.
 41 42  0  0  0  0  0  0  0  0  1 V2000
  151.8859  137.7596  155.0690 C   0  0  0  0  0  0  0  0  0  0  0  0
  151.1217  139.0402  154.7249 C   0  0  0  0  0  0  0  0  0  0  0  0
  149.8630  138.6832  154.1627 O   0  0  0  0  0  0  0  0  0  0  0  0
  148.8634  139.6363  154.1117 C   0  0  0  0  0  0  0  0  0  0  0  0
  149.1261  140.8746  154.5997 N   0  0  0  0  0  0  0  0  0  0  0  0
  148.1493  141.8037  154.5544 C   0  0  0  0  0  0  0  0  0  0  0  0
  146.8681  141.5496  154.0320 C   0  0  0  0  0  0  0  0  0  0  0  0
  146.5934  140.2662  153.5248 C   0  0  0  0  0  0  0  0  0  0  0  0
  147.6134  139.2842  153.5511 C   0  0  0  0  0  0  0  0  0  0  0  0
  147.4376  137.9522  153.0845 N   0  0  0  0  0  0  0  0  0  0  0  0
  146.2924  137.2830  152.8704 C   0  0  0  0  0  0  0  0  0  0  0  0
  145.1603  137.7422  153.0203 O   0  0  0  0  0  0  0  0  0  0  0  0
  146.5339  136.0332  152.4496 N   0  0  0  0  0  0  0  0  0  0  0  0
  145.5135  135.0405  152.1266 C   0  0  2  0  0  0  0  0  0  0  0  0
  146.1172  133.6216  152.1244 C   0  0  0  0  0  0  0  0  0  0  0  0
  145.0745  132.5638  151.7235 C   0  0  0  0  0  0  0  0  0  0  0  0
  144.4036  132.8861  150.3750 C   0  0  2  0  0  0  0  0  0  0  0  0
  145.3286  132.7122  149.3199 O   0  0  0  0  0  0  0  0  0  0  0  0
  143.8380  134.3188  150.3512 C   0  0  0  0  0  0  0  0  0  0  0  0
  144.8887  135.3672  150.7578 C   0  0  0  0  0  0  0  0  0  0  0  0
  152.8554  137.9910  155.5108 H   0  0  0  0  0  0  0  0  0  0  0  0
  152.0599  137.1560  154.1779 H   0  0  0  0  0  0  0  0  0  0  0  0
  151.3299  137.1518  155.7830 H   0  0  0  0  0  0  0  0  0  0  0  0
  150.9791  139.6348  155.6286 H   0  0  0  0  0  0  0  0  0  0  0  0
  151.7020  139.6331  154.0160 H   0  0  0  0  0  0  0  0  0  0  0  0
  148.3946  142.7771  154.9527 H   0  0  0  0  0  0  0  0  0  0  0  0
  146.1115  142.3201  154.0247 H   0  0  0  0  0  0  0  0  0  0  0  0
  145.6063  140.0590  153.1422 H   0  0  0  0  0  0  0  0  0  0  0  0
  148.2878  137.4706  152.8301 H   0  0  0  0  0  0  0  0  0  0  0  0
  147.4958  135.7434  152.3506 H   0  0  0  0  0  0  0  0  0  0  0  0
  144.7238  135.0883  152.8793 H   0  0  0  0  0  0  0  0  0  0  0  0
  146.9618  133.5806  151.4352 H   0  0  0  0  0  0  0  0  0  0  0  0
  146.5155  133.3798  153.1105 H   0  0  0  0  0  0  0  0  0  0  0  0
  145.5357  131.5762  151.6912 H   0  0  0  0  0  0  0  0  0  0  0  0
  144.3083  132.5148  152.4982 H   0  0  0  0  0  0  0  0  0  0  0  0
  143.5909  132.1794  150.2035 H   0  0  0  0  0  0  0  0  0  0  0  0
  145.4875  133.5529  148.9186 H   0  0  0  0  0  0  0  0  0  0  0  0
  143.4386  134.5514  149.3633 H   0  0  0  0  0  0  0  0  0  0  0  0
  142.9949  134.3788  151.0408 H   0  0  0  0  0  0  0  0  0  0  0  0
  144.4265  136.3549  150.7845 H   0  0  0  0  0  0  0  0  0  0  0  0
  145.6685  135.4138  149.9963 H   0  0  0  0  0  0  0  0  0  0  0  0
  1  2  1  0  0  0  0
  1 21  1  0  0  0  0
  1 22  1  0  0  0  0
  1 23  1  0  0  0  0
  2  3  1  0  0  0  0
  2 24  1  0  0  0  0
  2 25  1  0  0  0  0
  3  4  1  0  0  0  0
  4  9  1  0  0  0  0
  4  5  2  0  0  0  0
  5  6  1  0  0  0  0
  6  7  2  0  0  0  0
  6 26  1  0  0  0  0
  7  8  1  0  0  0  0
  7 27  1  0  0  0  0
  8  9  2  0  0  0  0
  8 28  1  0  0  0  0
  9 10  1  0  0  0  0
 10 11  1  0  0  0  0
 10 29  1  0  0  0  0
 11 12  2  0  0  0  0
 11 13  1  0  0  0  0
 13 14  1  0  0  0  0
 13 30  1  0  0  0  0
 14 20  1  0  0  0  0
 14 15  1  0  0  0  0
 14 31  1  0  0  0  0
 15 16  1  0  0  0  0
 15 32  1  0  0  0  0
 15 33  1  0  0  0  0
 16 17  1  0  0  0  0
 16 34  1  0  0  0  0
 16 35  1  0  0  0  0
 17 18  1  0  0  0  0
 17 19  1  0  0  0  0
 17 36  1  0  0  0  0
 18 37  1  0  0  0  0
 19 20  1  0  0  0  0
 19 38  1  0  0  0  0
 19 39  1  0  0  0  0
 20 40  1  0  0  0  0
 20 41  1  0  0  0  0
M  END
> <s_m_source_file>
AV-unprocessed.smi

> <i_m_source_file_index>
1549

> <i_lp_mmshare_version>
43012

> <i_f3d_flags>
0

> <s_epik_input>
W0NIM11bQ0gyXU9jMW5bY0hdW2NIXVtjSF1jMVtOSF1DKD1PKVtOSF1bQ0BASF0yW0NIMl1bQ0gyXVtDQEBIXShbT0hdKVtDSDJdW0NIMl0y

> <s_epik_cmdline>
J2VwaWtfcHl0aG9uJywgJy1waCcsICc3LjAnLCAnLXRuJywgJzgnLCAnLW1hJywgJzIwMCcsICctbWV0YWxfYmluZGluZycsICctaW1hZScsICc8aW5maWxlLm1hZT4nLCAnLW9tYWUnLCAnPG91dGZpbGUubWFlPic=

> <r_lp_tautomer_probability>
1

> <r_epik_Ionization_Penalty>
0.000120387

> <r_epik_Ionization_Penalty_Charging>
0

> <r_epik_Ionization_Penalty_Neutral>
0.000120387

> <r_epik_State_Penalty>
-0

> <r_epik_Charging_Adjusted_Penalty>
0

> <i_epik_Tot_Q>
0

> <i_epik_Tot_abs_Q>
0

> <r_epik_Metal_State_Penalty>
-0

> <b_epik_Metal_Only>
0

> <s_lp_Force_Field>
OPLS_2005

> <r_lp_Energy>
13.0635

> <b_lp_Chiralities_Consistent>
1

> <s_lp_Variant>
AV-unprocessed.smi:1549-2

> <Gold.Version>
5.8.1

> <Gold.Id.Protein>
6NUR|6NUR_protein|mol2

> <Gold.PLP.Fitness>
40.9013

> <Gold.PLP.PLP>
-30.2178

> <Gold.PLP.part.hbond>
-2.8274

> <Gold.PLP.part.metal>
0.0000

> <Gold.PLP.part.buried>
1.2959

> <Gold.PLP.part.nonpolar>
-29.3459

> <Gold.PLP.part.repulsive>
0.6367

> <Gold.PLP.ligand.clash>
0.0000

> <Gold.PLP.ligand.torsion>
0.3834

> <Gold.PLP.Chemscore.Hbond>
2.8080

> <Gold.PLP.Chemscore.CHOScore>
1.0000

> <Gold.PLP.Chemscore.Metal>
0.0000

> <Gold.Chemscore.Hbonds>
donor molecule, donor type, donor heavy atom, donor atom, acceptor molecule, acceptor atom, score
      L1  H    10    29       P1  7948  0.91
      L1  H    13    30       P1  7948  0.88
      L1  H    18    37       P1  7921  1.00
      L1  C     6    26       P1  8028  1.00

> <Gold.PLP.Chemscore.Internal.Correction>
0.0262

> <Gold.Rescore>
     Score         DG    S(hbond)    S(metal)    S(lipo)     H(rot)  DE(clash)    DE(int)     intcor
     14.82     -18.09       2.53        0.00      77.87       1.93       1.64       1.62       ----

> <Gold.Chemscore.Fitness>
14.8247

> <Gold.Chemscore.DG>
-18.0886

> <Gold.Chemscore.ZeroCoef>
-5.4800

> <Gold.Chemscore.Hbond>
2.5278

> <Gold.Chemscore.Metal>
0.0000

> <Gold.Chemscore.Lipo>
77.8731

> <Gold.Chemscore.Internal_Hbond>
0.0000

> <Gold.Chemscore.DEClash>
1.6443

> <Gold.Chemscore.DEInternal>
1.6196

> <Gold.Chemscore.Rot>
1.9318

> <Gold.Chemscore.Internal.Correction>
   9.000000E+99

> <Gold.Chemscore.Hbonds>
donor molecule, donor type, donor heavy atom, donor atom, acceptor molecule, acceptor atom, score
      L1  H    10    29       P1  7948  0.88
      L1  H    13    30       P1  7948  0.85
      L1  H    18    37       P1  7921  0.34

> <Gold.Chemscore.Hbond.Weighted>
-8.4428

> <Gold.Chemscore.Metal.Weighted>
-0.0000

> <Gold.Chemscore.Lipo.Weighted>
-9.1112

> <Gold.Chemscore.Internal_Hbond.Weighted>
0.0000

> <Gold.Chemscore.DEClash.Weighted>
1.6443

> <Gold.Chemscore.DEInternal.Weighted>
1.6196

> <Gold.Chemscore.Rot.Weighted>
4.9454

> <Gold.Chemscore.Internal.Correction.Weighted>
   9.000000E+99

> <Gold.Protein.RotatedTorsions>
[ 6907 6896 6895 6894 ] final  133.81 input  -60.11 | X-H torsion
[ 7974 7965 7964 7962 ] final   20.68 input  175.53 | X-H torsion
[ 8008 7997 7996 7995 ] final -110.45 input   59.86 | X-H torsion
[ 10167 10162 10161 10158 ] final  101.45 input  -65.29 | X-H torsion
[ 10718 10713 10712 10709 ] final  -87.36 input   66.30 | X-H torsion
[ 10763 10752 10751 10750 ] final   79.33 input  -60.55 | X-H torsion
[ 11005 11000 10999 10996 ] final  -78.43 input  -57.11 | X-H torsion

> <Gold.Protein.ActiveResidues>
 VAL166  LYS551  ARG553  GLY616  TRP617  ASP618  TYR619  PRO620  LYS621  CYS622 
 ASP623  PHE694  ASN695  SER759  ASP760  ASP761  ALA762  ILE779  LEU786  VAL792 
 PHE793  MET794  SER795  GLU796  ALA797  LYS798  CYS799  TRP800  GLU811  SER814 

> <Gold.Protein.RotatedAtoms>
  152.3180  133.5823  159.5724 H   0  0  0  0  0  0  0  0  0  0  0  0  # atno 6907 bound_to 6896
  150.7356  134.0054  159.3661 H   0  0  0  0  0  0  0  0  0  0  0  0  # atno 6908 bound_to 6896
  151.7941  135.0728  160.0442 H   0  0  0  0  0  0  0  0  0  0  0  0  # atno 6909 bound_to 6896
  146.2101  139.8134  142.8695 H   0  0  0  0  0  0  0  0  0  0  0  0  # atno 7974 bound_to 7965
  154.9748  140.0397  157.2251 H   0  0  0  0  0  0  0  0  0  0  0  0  # atno 8008 bound_to 7997
  154.7768  140.2811  155.6072 H   0  0  0  0  0  0  0  0  0  0  0  0  # atno 8009 bound_to 7997
  156.2930  140.2599  156.2584 H   0  0  0  0  0  0  0  0  0  0  0  0  # atno 8010 bound_to 7997
  139.7436  144.7004  151.0537 H   0  0  0  0  0  0  0  0  0  0  0  0  # atno 10167 bound_to 10162
  155.9986  130.4797  150.4856 H   0  0  0  0  0  0  0  0  0  0  0  0  # atno 10718 bound_to 10713
  153.0944  135.4844  154.8751 H   0  0  0  0  0  0  0  0  0  0  0  0  # atno 10763 bound_to 10752
  154.7307  135.3059  154.8898 H   0  0  0  0  0  0  0  0  0  0  0  0  # atno 10764 bound_to 10752
  153.9535  135.6820  153.4797 H   0  0  0  0  0  0  0  0  0  0  0  0  # atno 10765 bound_to 10752
  141.1664  133.7063  156.7970 H   0  0  0  0  0  0  0  0  0  0  0  0  # atno 11005 bound_to 11000
  145.3171  141.0235  143.3521 LP  0  0  0  0  0  0  0  0  0  0  0  0  # atno 17320 bound_to 7965
  144.8893  139.4796  143.6685 LP  0  0  0  0  0  0  0  0  0  0  0  0  # atno 17321 bound_to 7965
  140.7789  143.4893  150.9914 LP  0  0  0  0  0  0  0  0  0  0  0  0  # atno 17342 bound_to 10162
  139.8582  143.7349  152.3175 LP  0  0  0  0  0  0  0  0  0  0  0  0  # atno 17343 bound_to 10162
  157.2856  131.0616  151.2168 LP  0  0  0  0  0  0  0  0  0  0  0  0  # atno 17370 bound_to 10713
  157.3199  130.6932  149.6263 LP  0  0  0  0  0  0  0  0  0  0  0  0  # atno 17371 bound_to 10713
  140.2284  134.8704  157.3451 LP  0  0  0  0  0  0  0  0  0  0  0  0  # atno 17394 bound_to 11000
  140.1916  134.4364  155.7712 LP  0  0  0  0  0  0  0  0  0  0  0  0  # atno 17395 bound_to 11000

$$$$
