AV-unprocessed.smi:294|AV-procd|sdf|2253|dock2
  -GOLD-   2262022143D 1   1.00000     0.00000
 Structure written by MMmdl.
 29 30  0  0  0  0  0  0  0  0  1 V2000
  145.1407  142.3896  161.8952 N   0  0  0  0  0  0  0  0  0  0  0  0
  145.9448  143.1757  161.6220 C   0  0  0  0  0  0  0  0  0  0  0  0
  146.9545  144.1627  161.2786 C   0  0  0  0  0  0  0  0  0  0  0  0
  146.8050  145.4793  161.6055 N   0  0  0  0  0  0  0  0  0  0  0  0
  147.9387  145.9478  161.0984 C   0  0  0  0  0  0  0  0  0  0  0  0
  148.7041  145.0133  160.5243 N   0  0  0  0  0  0  0  0  0  0  0  0
  149.9997  145.1221  159.8783 C   0  0  0  0  0  0  0  0  0  0  0  0
  150.6088  143.7420  159.6266 C   0  0  0  0  0  0  0  0  0  0  0  0
  151.1715  143.1414  160.5415 O   0  0  0  0  0  0  0  0  0  0  0  0
  150.4901  143.2526  158.3825 N   0  0  0  0  0  0  0  0  0  0  0  0
  150.9794  141.9510  157.9417 C   0  0  1  0  0  0  0  0  0  0  0  0
  149.8986  140.8672  158.1088 C   0  0  0  0  0  0  0  0  0  0  0  0
  150.3242  139.6249  157.3168 C   0  0  0  0  0  0  0  0  0  0  0  0
  151.2850  140.2423  155.8829 S   0  0  0  0  0  0  0  0  0  0  0  0
  152.6198  139.6250  155.9018 O   0  0  0  0  0  0  0  0  0  0  0  0
  150.4478  140.2006  154.6744 O   0  0  0  0  0  0  0  0  0  0  0  0
  151.4047  141.9753  156.4652 C   0  0  0  0  0  0  0  0  0  0  0  0
  148.0683  143.8210  160.6339 N   0  0  0  0  0  0  0  0  0  0  0  0
  148.2197  146.9898  161.1504 H   0  0  0  0  0  0  0  0  0  0  0  0
  149.8963  145.6609  158.9350 H   0  0  0  0  0  0  0  0  0  0  0  0
  150.6590  145.7123  160.5162 H   0  0  0  0  0  0  0  0  0  0  0  0
  150.0112  143.8176  157.6957 H   0  0  0  0  0  0  0  0  0  0  0  0
  151.8390  141.6578  158.5476 H   0  0  0  0  0  0  0  0  0  0  0  0
  149.7195  140.6304  159.1581 H   0  0  0  0  0  0  0  0  0  0  0  0
  148.9560  141.2337  157.6998 H   0  0  0  0  0  0  0  0  0  0  0  0
  150.9818  138.9926  157.9139 H   0  0  0  0  0  0  0  0  0  0  0  0
  149.4793  139.0260  156.9764 H   0  0  0  0  0  0  0  0  0  0  0  0
  150.7195  142.5749  155.8648 H   0  0  0  0  0  0  0  0  0  0  0  0
  152.4172  142.3525  156.3191 H   0  0  0  0  0  0  0  0  0  0  0  0
  1  2  3  0  0  0  0
  2  3  1  0  0  0  0
  3 18  2  0  0  0  0
  3  4  1  0  0  0  0
  4  5  2  0  0  0  0
  5  6  1  0  0  0  0
  5 19  1  0  0  0  0
  6  7  1  0  0  0  0
  6 18  1  0  0  0  0
  7  8  1  0  0  0  0
  7 20  1  0  0  0  0
  7 21  1  0  0  0  0
  8  9  2  0  0  0  0
  8 10  1  0  0  0  0
 10 11  1  0  0  0  0
 10 22  1  0  0  0  0
 11 17  1  0  0  0  0
 11 12  1  0  0  0  0
 11 23  1  0  0  0  0
 12 13  1  0  0  0  0
 12 24  1  0  0  0  0
 12 25  1  0  0  0  0
 13 14  1  0  0  0  0
 13 26  1  0  0  0  0
 13 27  1  0  0  0  0
 14 15  2  0  0  0  0
 14 16  2  0  0  0  0
 14 17  1  0  0  0  0
 17 28  1  0  0  0  0
 17 29  1  0  0  0  0
M  END
> <s_m_source_file>
AV-unprocessed.smi

> <i_m_source_file_index>
294

> <i_lp_mmshare_version>
43012

> <i_f3d_flags>
0

> <s_epik_input>
TiNDYzFuW2NIXW4objEpW0NIMl1DKD1PKVtOSF1bQ0BASF0oW0NIMl0yKVtDSDJdW0NIMl1TMig9Tyk9Tw==

> <s_epik_cmdline>
J2VwaWtfcHl0aG9uJywgJy1waCcsICc3LjAnLCAnLXRuJywgJzgnLCAnLW1hJywgJzIwMCcsICctbWV0YWxfYmluZGluZycsICctaW1hZScsICc8aW5maWxlLm1hZT4nLCAnLW9tYWUnLCAnPG91dGZpbGUubWFlPic=

> <r_lp_tautomer_probability>
1

> <r_epik_Ionization_Penalty>
6.08231e-07

> <r_epik_Ionization_Penalty_Charging>
0

> <r_epik_Ionization_Penalty_Neutral>
6.08231e-07

> <r_epik_State_Penalty>
-0

> <r_epik_Charging_Adjusted_Penalty>
0

> <i_epik_Tot_Q>
0

> <i_epik_Tot_abs_Q>
0

> <r_epik_Metal_State_Penalty>
-0

> <b_epik_Metal_Only>
0

> <s_lp_Force_Field>
OPLS_2005

> <r_lp_Energy>
6.26763

> <b_lp_Chiralities_Consistent>
1

> <s_lp_Variant>
AV-unprocessed.smi:294-2

> <Gold.Version>
5.8.1

> <Gold.Id.Protein>
6NUR|6NUR_protein|mol2

> <Gold.PLP.Fitness>
38.9453

> <Gold.PLP.PLP>
-31.4830

> <Gold.PLP.part.hbond>
-6.1301

> <Gold.PLP.part.metal>
0.0000

> <Gold.PLP.part.buried>
-7.0505

> <Gold.PLP.part.nonpolar>
-18.5739

> <Gold.PLP.part.repulsive>
0.5074

> <Gold.PLP.ligand.clash>
0.0000

> <Gold.PLP.ligand.torsion>
0.7703

> <Gold.PLP.Chemscore.Hbond>
3.0000

> <Gold.PLP.Chemscore.CHOScore>
0.0000

> <Gold.PLP.Chemscore.Metal>
0.0000

> <Gold.Chemscore.Hbonds>
donor molecule, donor type, donor heavy atom, donor atom, acceptor molecule, acceptor atom, score
      P1  H  6933  6944       L1    18  1.00
      P1  H  7989  7998       L1    16  0.95
      P1  H  7997  8010       L1    15  1.00

> <Gold.PLP.Chemscore.Internal.Correction>
0.0030

> <Gold.Rescore>
     Score         DG    S(hbond)    S(metal)    S(lipo)     H(rot)  DE(clash)    DE(int)     intcor
     10.69     -12.68       2.83        0.00      27.99       2.15       1.18       0.81       ----

> <Gold.Chemscore.Fitness>
10.6863

> <Gold.Chemscore.DG>
-12.6784

> <Gold.Chemscore.ZeroCoef>
-5.4800

> <Gold.Chemscore.Hbond>
2.8262

> <Gold.Chemscore.Metal>
0.0000

> <Gold.Chemscore.Lipo>
27.9875

> <Gold.Chemscore.Internal_Hbond>
0.0000

> <Gold.Chemscore.DEClash>
1.1781

> <Gold.Chemscore.DEInternal>
0.8141

> <Gold.Chemscore.Rot>
2.1546

> <Gold.Chemscore.Internal.Correction>
   9.000000E+99

> <Gold.Chemscore.Hbonds>
donor molecule, donor type, donor heavy atom, donor atom, acceptor molecule, acceptor atom, score
      L1  H    10    22       P1  8028  0.02
      P1  H  6933  6944       L1    18  0.35
      P1  H  7989  7998       L1    16  0.21
      P1  H  7997  8010       L1    15  1.00

> <Gold.Chemscore.Hbond.Weighted>
-9.4396

> <Gold.Chemscore.Metal.Weighted>
-0.0000

> <Gold.Chemscore.Lipo.Weighted>
-3.2745

> <Gold.Chemscore.Internal_Hbond.Weighted>
0.0000

> <Gold.Chemscore.DEClash.Weighted>
1.1781

> <Gold.Chemscore.DEInternal.Weighted>
0.8141

> <Gold.Chemscore.Rot.Weighted>
5.5158

> <Gold.Chemscore.Internal.Correction.Weighted>
   9.000000E+99

> <Gold.Protein.RotatedTorsions>
[ 6907 6896 6895 6894 ] final -127.55 input  -60.11 | X-H torsion
[ 7974 7965 7964 7962 ] final  -41.06 input  175.53 | X-H torsion
[ 8008 7997 7996 7995 ] final   87.73 input   59.86 | X-H torsion
[ 10167 10162 10161 10158 ] final  155.22 input  -65.29 | X-H torsion
[ 10718 10713 10712 10709 ] final   22.91 input   66.30 | X-H torsion
[ 10763 10752 10751 10750 ] final  -84.57 input  -60.55 | X-H torsion
[ 11005 11000 10999 10996 ] final  166.59 input  -57.11 | X-H torsion

> <Gold.Protein.ActiveResidues>
 VAL166  LYS551  ARG553  GLY616  TRP617  ASP618  TYR619  PRO620  LYS621  CYS622 
 ASP623  PHE694  ASN695  SER759  ASP760  ASP761  ALA762  ILE779  LEU786  VAL792 
 PHE793  MET794  SER795  GLU796  ALA797  LYS798  CYS799  TRP800  GLU811  SER814 

> <Gold.Protein.RotatedAtoms>
  150.9085  133.7027  159.2860 H   0  0  0  0  0  0  0  0  0  0  0  0  # atno 6907 bound_to 6896
  151.4522  135.1029  159.9710 H   0  0  0  0  0  0  0  0  0  0  0  0  # atno 6908 bound_to 6896
  152.4917  133.8468  159.7236 H   0  0  0  0  0  0  0  0  0  0  0  0  # atno 6909 bound_to 6896
  146.0246  140.6807  142.9162 H   0  0  0  0  0  0  0  0  0  0  0  0  # atno 7974 bound_to 7965
  155.9791  140.3379  155.6646 H   0  0  0  0  0  0  0  0  0  0  0  0  # atno 8008 bound_to 7997
  155.6573  140.0712  157.2584 H   0  0  0  0  0  0  0  0  0  0  0  0  # atno 8009 bound_to 7997
  154.4187  140.1715  156.1726 H   0  0  0  0  0  0  0  0  0  0  0  0  # atno 8010 bound_to 7997
  139.4821  144.5118  151.8013 H   0  0  0  0  0  0  0  0  0  0  0  0  # atno 10167 bound_to 10162
  157.1588  130.6707  149.6037 H   0  0  0  0  0  0  0  0  0  0  0  0  # atno 10718 bound_to 10713
  154.6011  135.5516  153.7375 H   0  0  0  0  0  0  0  0  0  0  0  0  # atno 10763 bound_to 10752
  153.0155  135.6366  154.1713 H   0  0  0  0  0  0  0  0  0  0  0  0  # atno 10764 bound_to 10752
  154.1653  135.2895  155.3077 H   0  0  0  0  0  0  0  0  0  0  0  0  # atno 10765 bound_to 10752
  140.2680  134.7849  157.3650 H   0  0  0  0  0  0  0  0  0  0  0  0  # atno 11005 bound_to 11000
  144.7004  140.3627  143.7160 LP  0  0  0  0  0  0  0  0  0  0  0  0  # atno 17320 bound_to 7965
  145.7138  139.1691  143.2523 LP  0  0  0  0  0  0  0  0  0  0  0  0  # atno 17321 bound_to 7965
  140.4622  144.1706  150.5907 LP  0  0  0  0  0  0  0  0  0  0  0  0  # atno 17342 bound_to 10162
  140.4473  143.2501  151.9395 LP  0  0  0  0  0  0  0  0  0  0  0  0  # atno 17343 bound_to 10162
  155.9757  130.4719  150.6480 LP  0  0  0  0  0  0  0  0  0  0  0  0  # atno 17370 bound_to 10713
  157.4152  131.0829  151.1184 LP  0  0  0  0  0  0  0  0  0  0  0  0  # atno 17371 bound_to 10713
  140.1400  134.4984  155.8039 LP  0  0  0  0  0  0  0  0  0  0  0  0  # atno 17394 bound_to 11000
  141.2181  133.6822  156.7193 LP  0  0  0  0  0  0  0  0  0  0  0  0  # atno 17395 bound_to 11000

$$$$
