AV-unprocessed.smi:1645|AV-procd|sdf|6620|dock6
  -GOLD-   22720 7323D 1   1.00000     0.00000
 Structure written by MMmdl.
 55 58  0  0  0  0  0  0  0  0  4 V2000
  146.9196  137.0588  157.1914 O   0  0  0  0  0  0  0  0  0  0  0  0
  146.5494  137.5088  156.1026 C   0  0  0  0  0  0  0  0  0  0  0  0
  147.0266  138.6777  155.6382 N   0  0  0  0  0  0  0  0  0  0  0  0
  147.9526  139.5950  156.2096 C   0  0  0  0  0  0  0  0  0  0  0  0
  148.7965  139.1019  157.2260 C   0  0  0  0  0  0  0  0  0  0  0  0
  149.7402  139.9530  157.8358 C   0  0  0  0  0  0  0  0  0  0  0  0
  149.8391  141.3057  157.4248 C   0  0  0  0  0  0  0  0  0  0  0  0
  150.7498  142.2345  157.9775 N   0  0  0  0  0  0  0  0  0  0  0  0
  151.2987  143.2311  157.0520 C   0  0  0  0  0  0  0  0  0  0  0  0
  151.9242  144.4168  157.8058 C   0  0  0  0  0  0  0  0  0  0  0  0
  152.9510  143.9354  158.8401 C   0  0  0  0  0  0  0  0  0  0  0  0
  152.2950  142.9272  159.7929 C   0  0  0  0  0  0  0  0  0  0  0  0
  151.6640  141.7581  159.0176 C   0  0  0  0  0  0  0  0  0  0  0  0
  149.0039  141.7348  156.4483 N   0  3  0  0  0  0  0  0  0  0  0  0
  148.0854  140.9547  155.8386 C   0  0  0  0  0  0  0  0  0  0  0  0
  145.6517  136.9549  155.2437 N   0  5  0  0  0  0  0  0  0  0  0  0
  144.3608  136.3736  155.6344 C   0  0  2  0  0  0  0  0  0  0  0  0
  144.5549  135.4799  156.8647 C   0  0  0  0  0  0  0  0  0  0  0  0
  144.9676  134.1002  156.3168 C   0  0  0  0  0  0  0  0  0  0  0  0
  144.5858  134.0635  154.8816 N   0  3  2  0  0  0  0  0  0  0  0  0
  145.7417  133.7657  153.9878 C   0  0  0  0  0  0  0  0  0  0  0  0
  145.3969  133.9537  152.5060 C   0  0  0  0  0  0  0  0  0  0  0  0
  144.9575  135.3971  152.2535 C   0  0  0  0  0  0  0  0  0  0  0  0
  143.7204  135.7146  153.1041 C   0  0  0  0  0  0  0  0  0  0  0  0
  143.8604  135.3350  154.6056 C   0  0  2  0  0  0  0  0  0  0  0  0
  146.6531  138.9544  154.7420 H   0  0  0  0  0  0  0  0  0  0  0  0
  148.7263  138.0703  157.5390 H   0  0  0  0  0  0  0  0  0  0  0  0
  150.3791  139.5433  158.6030 H   0  0  0  0  0  0  0  0  0  0  0  0
  152.0523  142.7473  156.4294 H   0  0  0  0  0  0  0  0  0  0  0  0
  150.5360  143.6177  156.3765 H   0  0  0  0  0  0  0  0  0  0  0  0
  152.3967  145.0996  157.0992 H   0  0  0  0  0  0  0  0  0  0  0  0
  151.1398  144.9849  158.3078 H   0  0  0  0  0  0  0  0  0  0  0  0
  153.7978  143.4703  158.3336 H   0  0  0  0  0  0  0  0  0  0  0  0
  153.3470  144.7822  159.4014 H   0  0  0  0  0  0  0  0  0  0  0  0
  153.0309  142.5491  160.5030 H   0  0  0  0  0  0  0  0  0  0  0  0
  151.5270  143.4302  160.3824 H   0  0  0  0  0  0  0  0  0  0  0  0
  151.1318  141.1246  159.7276 H   0  0  0  0  0  0  0  0  0  0  0  0
  152.4430  141.1497  158.5565 H   0  0  0  0  0  0  0  0  0  0  0  0
  147.5041  141.4636  155.0862 H   0  0  0  0  0  0  0  0  0  0  0  0
  143.5996  137.1301  155.8294 H   0  0  0  0  0  0  0  0  0  0  0  0
  145.2727  135.8796  157.5827 H   0  0  0  0  0  0  0  0  0  0  0  0
  143.6025  135.3849  157.3877 H   0  0  0  0  0  0  0  0  0  0  0  0
  146.0407  133.9468  156.4472 H   0  0  0  0  0  0  0  0  0  0  0  0
  144.4655  133.2981  156.8587 H   0  0  0  0  0  0  0  0  0  0  0  0
  146.5847  134.4114  154.2389 H   0  0  0  0  0  0  0  0  0  0  0  0
  146.0700  132.7414  154.1673 H   0  0  0  0  0  0  0  0  0  0  0  0
  146.2665  133.7192  151.8913 H   0  0  0  0  0  0  0  0  0  0  0  0
  144.6080  133.2609  152.2111 H   0  0  0  0  0  0  0  0  0  0  0  0
  145.7714  136.0823  152.4902 H   0  0  0  0  0  0  0  0  0  0  0  0
  144.7297  135.5420  151.1972 H   0  0  0  0  0  0  0  0  0  0  0  0
  143.4291  136.7590  152.9771 H   0  0  0  0  0  0  0  0  0  0  0  0
  142.8913  135.1378  152.6917 H   0  0  0  0  0  0  0  0  0  0  0  0
  142.8378  135.1249  154.9251 H   0  0  0  0  0  0  0  0  0  0  0  0
  143.9205  133.3161  154.7486 H   0  0  0  0  0  0  0  0  0  0  0  0
  149.0689  142.7094  156.1553 H   0  0  0  0  0  0  0  0  0  0  0  0
  1  2  2  0  0  0  0
  2  3  1  0  0  0  0
  2 16  1  0  0  0  0
  3  4  1  0  0  0  0
  3 26  1  0  0  0  0
  4 15  1  0  0  0  0
  4  5  2  0  0  0  0
  5  6  1  0  0  0  0
  5 27  1  0  0  0  0
  6  7  2  0  0  0  0
  6 28  1  0  0  0  0
  7  8  1  0  0  0  0
  7 14  1  0  0  0  0
  8 13  1  0  0  0  0
  8  9  1  0  0  0  0
  9 10  1  0  0  0  0
  9 29  1  0  0  0  0
  9 30  1  0  0  0  0
 10 11  1  0  0  0  0
 10 31  1  0  0  0  0
 10 32  1  0  0  0  0
 11 12  1  0  0  0  0
 11 33  1  0  0  0  0
 11 34  1  0  0  0  0
 12 13  1  0  0  0  0
 12 35  1  0  0  0  0
 12 36  1  0  0  0  0
 13 37  1  0  0  0  0
 13 38  1  0  0  0  0
 14 15  2  0  0  0  0
 14 55  1  0  0  0  0
 15 39  1  0  0  0  0
 16 17  1  0  0  0  0
 17 25  1  0  0  0  0
 17 18  1  0  0  0  0
 17 40  1  0  0  0  0
 18 19  1  0  0  0  0
 18 41  1  0  0  0  0
 18 42  1  0  0  0  0
 19 20  1  0  0  0  0
 19 43  1  0  0  0  0
 19 44  1  0  0  0  0
 20 25  1  0  0  0  0
 20 21  1  0  0  0  0
 20 54  1  0  0  0  0
 21 22  1  0  0  0  0
 21 45  1  0  0  0  0
 21 46  1  0  0  0  0
 22 23  1  0  0  0  0
 22 47  1  0  0  0  0
 22 48  1  0  0  0  0
 23 24  1  0  0  0  0
 23 49  1  0  0  0  0
 23 50  1  0  0  0  0
 24 25  1  0  0  0  0
 24 51  1  0  0  0  0
 24 52  1  0  0  0  0
 25 53  1  0  0  0  0
M  CHG  1  14   1
M  CHG  1  16  -1
M  CHG  1  20   1
M  END
> <s_m_source_file>
AV-unprocessed.smi

> <i_m_source_file_index>
1645

> <i_lp_mmshare_version>
43012

> <i_f3d_flags>
0

> <s_epik_input>
W0NIMl0xW0NIMl1bQ0gyXVtDSDJdW0NASF0oTjEyKVtDQEBIXShbQ0gyXVtDSDJdMilbTkhdQyg9TylbTkhdYzNbY0hdW2NIXWMobltjSF0zKU40W0NIMl1bQ0gyXVtDSDJdW0NIMl1bQ0gyXTQ=

> <s_epik_cmdline>
J2VwaWtfcHl0aG9uJywgJy1waCcsICc3LjAnLCAnLXRuJywgJzgnLCAnLW1hJywgJzIwMCcsICctbWV0YWxfYmluZGluZycsICctaW1hZScsICc8aW5maWxlLm1hZT4nLCAnLW9tYWUnLCAnPG91dGZpbGUubWFlPic=

> <r_lp_tautomer_probability>
0.999994

> <r_epik_Ionization_Penalty>
8.55589

> <r_epik_Ionization_Penalty_Charging>
8.55589

> <r_epik_Ionization_Penalty_Neutral>
3.8092e-06

> <r_epik_State_Penalty>
8.15703

> <r_epik_Charging_Adjusted_Penalty>
16.7129

> <i_epik_Tot_Q>
1

> <i_epik_Tot_abs_Q>
3

> <r_epik_Metal_State_Penalty>
4.13781

> <b_epik_Metal_Only>
1

> <s_lp_Force_Field>
OPLS_2005

> <r_lp_Energy>
58.0783

> <b_lp_Chiralities_Consistent>
1

> <s_lp_Variant>
AV-unprocessed.smi:1645-21

> <Gold.Version>
5.8.1

> <Gold.Id.Protein>
6NUR|6NUR_protein|mol2

> <Gold.PLP.Fitness>
38.8862

> <Gold.PLP.PLP>
-28.5203

> <Gold.PLP.part.hbond>
-1.9575

> <Gold.PLP.part.metal>
0.0000

> <Gold.PLP.part.buried>
-4.7744

> <Gold.PLP.part.nonpolar>
-22.6637

> <Gold.PLP.part.repulsive>
0.1193

> <Gold.PLP.ligand.clash>
0.0000

> <Gold.PLP.ligand.torsion>
1.0702

> <Gold.PLP.Chemscore.Hbond>
3.9825

> <Gold.PLP.Chemscore.CHOScore>
0.0000

> <Gold.PLP.Chemscore.Metal>
0.0000

> <Gold.Chemscore.Hbonds>
donor molecule, donor type, donor heavy atom, donor atom, acceptor molecule, acceptor atom, score
      L1  H    14    55       P1  8028  1.76
      L1  H    20    54       P1 10957  2.00

> <Gold.PLP.Chemscore.Internal.Correction>
0.5589

> <Gold.Rescore>
     Score         DG    S(hbond)    S(metal)    S(lipo)     H(rot)  DE(clash)    DE(int)     intcor
     14.67     -18.87       1.94        0.00      84.68       1.17       0.32       3.88       ----

> <Gold.Chemscore.Fitness>
14.6677

> <Gold.Chemscore.DG>
-18.8670

> <Gold.Chemscore.ZeroCoef>
-5.4800

> <Gold.Chemscore.Hbond>
1.9409

> <Gold.Chemscore.Metal>
0.0000

> <Gold.Chemscore.Lipo>
84.6808

> <Gold.Chemscore.Internal_Hbond>
0.0000

> <Gold.Chemscore.DEClash>
0.3154

> <Gold.Chemscore.DEInternal>
3.8838

> <Gold.Chemscore.Rot>
1.1731

> <Gold.Chemscore.Internal.Correction>
   9.000000E+99

> <Gold.Chemscore.Hbonds>
donor molecule, donor type, donor heavy atom, donor atom, acceptor molecule, acceptor atom, score
      L1  H    14    55       P1  8028  0.86
      L1  H    20    54       P1 10957  0.97

> <Gold.Chemscore.Hbond.Weighted>
-6.4826

> <Gold.Chemscore.Metal.Weighted>
-0.0000

> <Gold.Chemscore.Lipo.Weighted>
-9.9077

> <Gold.Chemscore.Internal_Hbond.Weighted>
0.0000

> <Gold.Chemscore.DEClash.Weighted>
0.3154

> <Gold.Chemscore.DEInternal.Weighted>
3.8838

> <Gold.Chemscore.Rot.Weighted>
3.0032

> <Gold.Chemscore.Internal.Correction.Weighted>
   9.000000E+99

> <Gold.Protein.RotatedTorsions>
[ 6907 6896 6895 6894 ] final  129.43 input  -60.11 | X-H torsion
[ 7974 7965 7964 7962 ] final  -14.68 input  175.53 | X-H torsion
[ 8008 7997 7996 7995 ] final  172.06 input   59.86 | X-H torsion
[ 10167 10162 10161 10158 ] final   17.51 input  -65.29 | X-H torsion
[ 10718 10713 10712 10709 ] final  -93.11 input   66.30 | X-H torsion
[ 10763 10752 10751 10750 ] final  -29.77 input  -60.55 | X-H torsion
[ 11005 11000 10999 10996 ] final  137.37 input  -57.11 | X-H torsion

> <Gold.Protein.ActiveResidues>
 VAL166  LYS551  ARG553  GLY616  TRP617  ASP618  TYR619  PRO620  LYS621  CYS622 
 ASP623  PHE694  ASN695  SER759  ASP760  ASP761  ALA762  ILE779  LEU786  VAL792 
 PHE793  MET794  SER795  GLU796  ALA797  LYS798  CYS799  TRP800  GLU811  SER814 

> <Gold.Protein.RotatedAtoms>
  152.3625  133.6314  159.6025 H   0  0  0  0  0  0  0  0  0  0  0  0  # atno 6907 bound_to 6896
  150.7611  133.9401  159.3462 H   0  0  0  0  0  0  0  0  0  0  0  0  # atno 6908 bound_to 6896
  151.7237  135.0890  160.0339 H   0  0  0  0  0  0  0  0  0  0  0  0  # atno 6909 bound_to 6896
  146.2064  140.3383  142.8405 H   0  0  0  0  0  0  0  0  0  0  0  0  # atno 7974 bound_to 7965
  156.1211  140.1495  156.9203 H   0  0  0  0  0  0  0  0  0  0  0  0  # atno 8008 bound_to 7997
  154.4836  140.0872  156.7477 H   0  0  0  0  0  0  0  0  0  0  0  0  # atno 8009 bound_to 7997
  155.4427  140.3431  155.4294 H   0  0  0  0  0  0  0  0  0  0  0  0  # atno 8010 bound_to 7997
  140.5720  143.9143  150.6720 H   0  0  0  0  0  0  0  0  0  0  0  0  # atno 10167 bound_to 10162
  156.0009  130.5014  150.5727 H   0  0  0  0  0  0  0  0  0  0  0  0  # atno 10718 bound_to 10713
  153.7700  135.6913  153.4908 H   0  0  0  0  0  0  0  0  0  0  0  0  # atno 10763 bound_to 10752
  153.1881  135.4481  155.0112 H   0  0  0  0  0  0  0  0  0  0  0  0  # atno 10764 bound_to 10752
  154.8121  135.3382  154.7210 H   0  0  0  0  0  0  0  0  0  0  0  0  # atno 10765 bound_to 10752
  140.0109  134.9439  157.0276 H   0  0  0  0  0  0  0  0  0  0  0  0  # atno 11005 bound_to 11000
  144.8803  140.7392  143.5990 LP  0  0  0  0  0  0  0  0  0  0  0  0  # atno 17320 bound_to 7965
  145.3303  139.1761  143.4540 LP  0  0  0  0  0  0  0  0  0  0  0  0  # atno 17321 bound_to 7965
  140.2620  143.3517  152.1314 LP  0  0  0  0  0  0  0  0  0  0  0  0  # atno 17342 bound_to 10162
  139.5123  144.6914  151.5750 LP  0  0  0  0  0  0  0  0  0  0  0  0  # atno 17343 bound_to 10162
  157.3620  131.0751  151.1629 LP  0  0  0  0  0  0  0  0  0  0  0  0  # atno 17370 bound_to 10713
  157.2410  130.6569  149.5890 LP  0  0  0  0  0  0  0  0  0  0  0  0  # atno 17371 bound_to 10713
  140.4556  134.1537  155.7186 LP  0  0  0  0  0  0  0  0  0  0  0  0  # atno 17394 bound_to 11000
  141.1710  133.8608  157.1570 LP  0  0  0  0  0  0  0  0  0  0  0  0  # atno 17395 bound_to 11000

$$$$
