AV-unprocessed.smi:1602|AV-procd|sdf|6440|dock6
  -GOLD-   22720 7 83D 1   1.00000     0.00000
 Structure written by MMmdl.
 36 37  0  0  0  0  0  0  0  0  1 V2000
  150.0487  141.4593  157.4901 C   0  0  0  0  0  0  0  0  0  0  0  0
  151.5629  141.4877  157.7329 C   0  0  1  0  0  0  0  0  0  0  0  0
  151.9161  141.9920  159.1457 C   0  0  0  0  0  0  0  0  0  0  0  0
  151.5848  143.3925  159.3368 N   0  0  0  0  0  0  0  0  0  0  0  0
  152.4050  144.4181  159.7584 C   0  0  0  0  0  0  0  0  0  0  0  0
  151.6536  145.5581  159.7743 C   0  0  0  0  0  0  0  0  0  0  0  0
  150.3695  145.1222  159.3424 C   0  0  0  0  0  0  0  0  0  0  0  0
  150.3306  143.8248  159.0846 N   0  0  0  0  0  0  0  0  0  0  0  0
  152.1057  140.1431  157.5245 N   0  0  0  0  0  0  0  0  0  0  0  0
  151.8618  139.3476  156.0142 S   0  0  0  0  0  0  0  0  0  0  0  0
  150.9845  140.1844  155.1814 O   0  0  0  0  0  0  0  0  0  0  0  0
  153.1704  138.8976  155.5159 O   0  0  0  0  0  0  0  0  0  0  0  0
  150.9661  137.9708  156.5594 N   0  0  0  0  0  0  0  0  0  0  0  0
  151.5348  136.6379  156.2893 C   0  0  0  0  0  0  0  0  0  0  0  0
  150.5217  135.5283  156.6134 C   0  0  0  0  0  0  0  0  0  0  0  0
  150.0552  135.6673  157.9464 O   0  0  0  0  0  0  0  0  0  0  0  0
  149.3719  136.8975  158.1303 C   0  0  0  0  0  0  0  0  0  0  0  0
  150.3265  138.0764  157.8807 C   0  0  0  0  0  0  0  0  0  0  0  0
  149.6156  142.4535  157.6028 H   0  0  0  0  0  0  0  0  0  0  0  0
  149.5453  140.7949  158.1933 H   0  0  0  0  0  0  0  0  0  0  0  0
  149.8198  141.1135  156.4814 H   0  0  0  0  0  0  0  0  0  0  0  0
  152.0046  142.1613  156.9966 H   0  0  0  0  0  0  0  0  0  0  0  0
  151.3784  141.4114  159.8967 H   0  0  0  0  0  0  0  0  0  0  0  0
  152.9790  141.8527  159.3488 H   0  0  0  0  0  0  0  0  0  0  0  0
  153.4439  144.2540  160.0037 H   0  0  0  0  0  0  0  0  0  0  0  0
  151.9725  146.5523  160.0497 H   0  0  0  0  0  0  0  0  0  0  0  0
  149.4707  145.7060  159.2100 H   0  0  0  0  0  0  0  0  0  0  0  0
  153.0458  140.0138  157.8971 H   0  0  0  0  0  0  0  0  0  0  0  0
  151.8405  136.5633  155.2461 H   0  0  0  0  0  0  0  0  0  0  0  0
  152.4333  136.5098  156.8942 H   0  0  0  0  0  0  0  0  0  0  0  0
  149.6823  135.5542  155.9165 H   0  0  0  0  0  0  0  0  0  0  0  0
  150.9920  134.5507  156.5047 H   0  0  0  0  0  0  0  0  0  0  0  0
  148.5087  136.9505  157.4648 H   0  0  0  0  0  0  0  0  0  0  0  0
  148.9872  136.9384  159.1495 H   0  0  0  0  0  0  0  0  0  0  0  0
  151.1027  138.1004  158.6465 H   0  0  0  0  0  0  0  0  0  0  0  0
  149.7775  139.0154  157.9510 H   0  0  0  0  0  0  0  0  0  0  0  0
  1  2  1  0  0  0  0
  1 19  1  0  0  0  0
  1 20  1  0  0  0  0
  1 21  1  0  0  0  0
  2  3  1  0  0  0  0
  2  9  1  0  0  0  0
  2 22  1  0  0  0  0
  3  4  1  0  0  0  0
  3 23  1  0  0  0  0
  3 24  1  0  0  0  0
  4  8  1  0  0  0  0
  4  5  1  0  0  0  0
  5  6  2  0  0  0  0
  5 25  1  0  0  0  0
  6  7  1  0  0  0  0
  6 26  1  0  0  0  0
  7  8  2  0  0  0  0
  7 27  1  0  0  0  0
  9 10  1  0  0  0  0
  9 28  1  0  0  0  0
 10 11  2  0  0  0  0
 10 12  2  0  0  0  0
 10 13  1  0  0  0  0
 13 18  1  0  0  0  0
 13 14  1  0  0  0  0
 14 15  1  0  0  0  0
 14 29  1  0  0  0  0
 14 30  1  0  0  0  0
 15 16  1  0  0  0  0
 15 31  1  0  0  0  0
 15 32  1  0  0  0  0
 16 17  1  0  0  0  0
 17 18  1  0  0  0  0
 17 33  1  0  0  0  0
 17 34  1  0  0  0  0
 18 35  1  0  0  0  0
 18 36  1  0  0  0  0
M  END
> <s_m_source_file>
AV-unprocessed.smi

> <i_m_source_file_index>
1602

> <i_lp_mmshare_version>
43012

> <i_f3d_flags>
0

> <s_epik_input>
bjFbY0hdW2NIXVtjSF1uMVtDSDJdW0NAQEhdKFtDSDNdKVtOSF1TKD1PKSg9TylOMltDSDJdW0NIMl1PW0NIMl1bQ0gyXTI=

> <s_epik_cmdline>
J2VwaWtfcHl0aG9uJywgJy1waCcsICc3LjAnLCAnLXRuJywgJzgnLCAnLW1hJywgJzIwMCcsICctbWV0YWxfYmluZGluZycsICctaW1hZScsICc8aW5maWxlLm1hZT4nLCAnLW9tYWUnLCAnPG91dGZpbGUubWFlPic=

> <r_lp_tautomer_probability>
1

> <r_epik_Ionization_Penalty>
0.114248

> <r_epik_Ionization_Penalty_Charging>
0

> <r_epik_Ionization_Penalty_Neutral>
0.114248

> <r_epik_State_Penalty>
0.103909

> <r_epik_Charging_Adjusted_Penalty>
0.103909

> <i_epik_Tot_Q>
0

> <i_epik_Tot_abs_Q>
0

> <r_epik_Metal_State_Penalty>
0.436178

> <b_epik_Metal_Only>
0

> <s_lp_Force_Field>
OPLS_2005

> <r_lp_Energy>
8.02202

> <b_lp_Chiralities_Consistent>
1

> <s_lp_Variant>
AV-unprocessed.smi:1602-2

> <Gold.Version>
5.8.1

> <Gold.Id.Protein>
6NUR|6NUR_protein|mol2

> <Gold.PLP.Fitness>
42.0629

> <Gold.PLP.PLP>
-30.6071

> <Gold.PLP.part.hbond>
-3.0000

> <Gold.PLP.part.metal>
0.0000

> <Gold.PLP.part.buried>
-6.2168

> <Gold.PLP.part.nonpolar>
-22.2762

> <Gold.PLP.part.repulsive>
0.1708

> <Gold.PLP.ligand.clash>
0.0000

> <Gold.PLP.ligand.torsion>
0.5332

> <Gold.PLP.Chemscore.Hbond>
2.9280

> <Gold.PLP.Chemscore.CHOScore>
1.0000

> <Gold.PLP.Chemscore.Metal>
0.0000

> <Gold.Chemscore.Hbonds>
donor molecule, donor type, donor heavy atom, donor atom, acceptor molecule, acceptor atom, score
      P1  H  6896  6907       L1    16  0.86
      P1  H  7989  7998       L1    11  1.00
      P1  H  7997  8010       L1    12  1.00
      L1  C     7    27       P1  8029  1.00

> <Gold.PLP.Chemscore.Internal.Correction>
0.7382

> <Gold.Rescore>
     Score         DG    S(hbond)    S(metal)    S(lipo)     H(rot)  DE(clash)    DE(int)     intcor
     14.01     -17.03       2.59        0.00      67.80       1.97       0.00       3.01       ----

> <Gold.Chemscore.Fitness>
14.0142

> <Gold.Chemscore.DG>
-17.0276

> <Gold.Chemscore.ZeroCoef>
-5.4800

> <Gold.Chemscore.Hbond>
2.5889

> <Gold.Chemscore.Metal>
0.0000

> <Gold.Chemscore.Lipo>
67.7973

> <Gold.Chemscore.Internal_Hbond>
0.0000

> <Gold.Chemscore.DEClash>
0.0048

> <Gold.Chemscore.DEInternal>
3.0086

> <Gold.Chemscore.Rot>
1.9654

> <Gold.Chemscore.Internal.Correction>
   9.000000E+99

> <Gold.Chemscore.Hbonds>
donor molecule, donor type, donor heavy atom, donor atom, acceptor molecule, acceptor atom, score
      P1  H  6896  6907       L1    16  0.78
      P1  H  7989  7998       L1    11  0.96
      P1  H  7997  8010       L1    12  0.69

> <Gold.Chemscore.Hbond.Weighted>
-8.6468

> <Gold.Chemscore.Metal.Weighted>
-0.0000

> <Gold.Chemscore.Lipo.Weighted>
-7.9323

> <Gold.Chemscore.Internal_Hbond.Weighted>
0.0000

> <Gold.Chemscore.DEClash.Weighted>
0.0048

> <Gold.Chemscore.DEInternal.Weighted>
3.0086

> <Gold.Chemscore.Rot.Weighted>
5.0315

> <Gold.Chemscore.Internal.Correction.Weighted>
   9.000000E+99

> <Gold.Protein.RotatedTorsions>
[ 6907 6896 6895 6894 ] final  -65.08 input  -60.11 | X-H torsion
[ 7974 7965 7964 7962 ] final -151.89 input  175.53 | X-H torsion
[ 8008 7997 7996 7995 ] final  100.05 input   59.86 | X-H torsion
[ 10167 10162 10161 10158 ] final -116.37 input  -65.29 | X-H torsion
[ 10718 10713 10712 10709 ] final  147.27 input   66.30 | X-H torsion
[ 10763 10752 10751 10750 ] final  -81.01 input  -60.55 | X-H torsion
[ 11005 11000 10999 10996 ] final   81.27 input  -57.11 | X-H torsion

> <Gold.Protein.ActiveResidues>
 VAL166  LYS551  ARG553  GLY616  TRP617  ASP618  TYR619  PRO620  LYS621  CYS622 
 ASP623  PHE694  ASN695  SER759  ASP760  ASP761  ALA762  ILE779  LEU786  VAL792 
 PHE793  MET794  SER795  GLU796  ALA797  LYS798  CYS799  TRP800  GLU811  SER814 

> <Gold.Protein.RotatedAtoms>
  150.7546  134.6210  159.6135 H   0  0  0  0  0  0  0  0  0  0  0  0  # atno 6907 bound_to 6896
  152.3516  134.6994  160.0243 H   0  0  0  0  0  0  0  0  0  0  0  0  # atno 6908 bound_to 6896
  151.7414  133.3286  159.3403 H   0  0  0  0  0  0  0  0  0  0  0  0  # atno 6909 bound_to 6896
  144.7825  140.4737  143.5829 H   0  0  0  0  0  0  0  0  0  0  0  0  # atno 7974 bound_to 7965
  156.1165  140.3219  155.8147 H   0  0  0  0  0  0  0  0  0  0  0  0  # atno 8008 bound_to 7997
  155.4580  140.0537  157.3011 H   0  0  0  0  0  0  0  0  0  0  0  0  # atno 8009 bound_to 7997
  154.4797  140.2047  155.9807 H   0  0  0  0  0  0  0  0  0  0  0  0  # atno 8010 bound_to 7997
  140.0799  143.4797  152.1931 H   0  0  0  0  0  0  0  0  0  0  0  0  # atno 10167 bound_to 10162
  157.3230  131.0907  151.1225 H   0  0  0  0  0  0  0  0  0  0  0  0  # atno 10718 bound_to 10713
  154.5583  135.5641  153.6984 H   0  0  0  0  0  0  0  0  0  0  0  0  # atno 10763 bound_to 10752
  153.0010  135.6267  154.2279 H   0  0  0  0  0  0  0  0  0  0  0  0  # atno 10764 bound_to 10752
  154.2216  135.2869  155.2902 H   0  0  0  0  0  0  0  0  0  0  0  0  # atno 10765 bound_to 10752
  139.9104  134.7984  156.2020 H   0  0  0  0  0  0  0  0  0  0  0  0  # atno 11005 bound_to 11000
  145.6012  139.1504  143.3128 LP  0  0  0  0  0  0  0  0  0  0  0  0  # atno 17320 bound_to 7965
  146.2040  140.6133  142.9089 LP  0  0  0  0  0  0  0  0  0  0  0  0  # atno 17321 bound_to 7965
  139.5785  144.7499  151.3701 LP  0  0  0  0  0  0  0  0  0  0  0  0  # atno 17342 bound_to 10162
  140.7083  143.7457  150.7520 LP  0  0  0  0  0  0  0  0  0  0  0  0  # atno 17343 bound_to 10162
  157.2503  130.6611  149.5928 LP  0  0  0  0  0  0  0  0  0  0  0  0  # atno 17370 bound_to 10713
  155.9687  130.4540  150.5835 LP  0  0  0  0  0  0  0  0  0  0  0  0  # atno 17371 bound_to 10713
  141.0519  133.6884  156.1788 LP  0  0  0  0  0  0  0  0  0  0  0  0  # atno 17394 bound_to 11000
  140.6797  134.4780  157.5589 LP  0  0  0  0  0  0  0  0  0  0  0  0  # atno 17395 bound_to 11000

$$$$
