AV-unprocessed.smi:2054|AV-procd|sdf|8333|dock5
  -GOLD-   2272011 03D 1   1.00000     0.00000
 Structure written by MMmdl.
 43 44  0  0  0  0  0  0  0  0  2 V2000
  150.0274  132.6623  155.2055 C   0  0  0  0  0  0  0  0  0  0  0  0
  150.6355  133.2914  156.8246 S   0  0  0  0  0  0  0  0  0  0  0  0
  149.5708  133.0695  157.8153 O   0  0  0  0  0  0  0  0  0  0  0  0
  151.9875  132.7661  157.0695 O   0  0  0  0  0  0  0  0  0  0  0  0
  150.7711  135.0008  156.5600 N   0  0  0  0  0  0  0  0  0  0  0  0
  150.3209  135.5233  155.2541 C   0  0  0  0  0  0  0  0  0  0  0  0
  150.1145  137.0464  155.2934 C   0  0  0  0  0  0  0  0  0  0  0  0
  151.3850  137.7674  155.7721 C   0  0  0  0  0  0  0  0  0  0  0  0
  151.1812  139.2875  155.8227 C   0  0  0  0  0  0  0  0  0  0  0  0
  151.8060  140.0256  155.0601 O   0  0  0  0  0  0  0  0  0  0  0  0
  150.3013  139.7447  156.7272 N   0  0  0  0  0  0  0  0  0  0  0  0
  149.9581  141.1484  156.9219 C   0  0  0  0  0  0  0  0  0  0  0  0
  151.1962  142.0555  156.8217 C   0  0  0  0  0  0  0  0  0  0  0  0
  151.2756  143.0450  157.9675 C   0  0  0  0  0  0  0  0  0  0  0  0
  152.0783  142.8150  159.1059 C   0  0  0  0  0  0  0  0  0  0  0  0
  152.0986  143.7750  160.1393 C   0  0  0  0  0  0  0  0  0  0  0  0
  151.3171  144.9421  160.0130 C   0  0  0  0  0  0  0  0  0  0  0  0
  150.5331  145.1203  158.8548 C   0  0  0  0  0  0  0  0  0  0  0  0
  150.5397  144.1775  157.8870 N   0  3  0  0  0  0  0  0  0  0  0  0
  151.7605  137.2113  157.1546 C   0  0  0  0  0  0  0  0  0  0  0  0
  151.9569  135.6868  157.1121 C   0  0  0  0  0  0  0  0  0  0  0  0
  149.8309  131.5937  155.2876 H   0  0  0  0  0  0  0  0  0  0  0  0
  150.7764  132.8270  154.4326 H   0  0  0  0  0  0  0  0  0  0  0  0
  149.1058  133.1785  154.9378 H   0  0  0  0  0  0  0  0  0  0  0  0
  151.0601  135.2618  154.4958 H   0  0  0  0  0  0  0  0  0  0  0  0
  149.3898  135.0396  154.9628 H   0  0  0  0  0  0  0  0  0  0  0  0
  149.8326  137.3994  154.3006 H   0  0  0  0  0  0  0  0  0  0  0  0
  149.2755  137.2770  155.9523 H   0  0  0  0  0  0  0  0  0  0  0  0
  152.1951  137.5460  155.0747 H   0  0  0  0  0  0  0  0  0  0  0  0
  149.8290  139.0712  157.3131 H   0  0  0  0  0  0  0  0  0  0  0  0
  149.2008  141.4485  156.1957 H   0  0  0  0  0  0  0  0  0  0  0  0
  149.5015  141.2513  157.9066 H   0  0  0  0  0  0  0  0  0  0  0  0
  152.1030  141.4491  156.8089 H   0  0  0  0  0  0  0  0  0  0  0  0
  151.1853  142.6116  155.8832 H   0  0  0  0  0  0  0  0  0  0  0  0
  152.6698  141.9150  159.1894 H   0  0  0  0  0  0  0  0  0  0  0  0
  152.7061  143.6173  161.0187 H   0  0  0  0  0  0  0  0  0  0  0  0
  151.3186  145.6893  160.7934 H   0  0  0  0  0  0  0  0  0  0  0  0
  149.9061  145.9813  158.6747 H   0  0  0  0  0  0  0  0  0  0  0  0
  152.6748  137.6844  157.5144 H   0  0  0  0  0  0  0  0  0  0  0  0
  150.9834  137.4512  157.8822 H   0  0  0  0  0  0  0  0  0  0  0  0
  152.1570  135.3284  158.1215 H   0  0  0  0  0  0  0  0  0  0  0  0
  152.8272  135.4310  156.5065 H   0  0  0  0  0  0  0  0  0  0  0  0
  149.9644  144.3268  157.0574 H   0  0  0  0  0  0  0  0  0  0  0  0
  1  2  1  0  0  0  0
  1 22  1  0  0  0  0
  1 23  1  0  0  0  0
  1 24  1  0  0  0  0
  2  3  2  0  0  0  0
  2  4  2  0  0  0  0
  2  5  1  0  0  0  0
  5 21  1  0  0  0  0
  5  6  1  0  0  0  0
  6  7  1  0  0  0  0
  6 25  1  0  0  0  0
  6 26  1  0  0  0  0
  7  8  1  0  0  0  0
  7 27  1  0  0  0  0
  7 28  1  0  0  0  0
  8  9  1  0  0  0  0
  8 20  1  0  0  0  0
  8 29  1  0  0  0  0
  9 10  2  0  0  0  0
  9 11  1  0  0  0  0
 11 12  1  0  0  0  0
 11 30  1  0  0  0  0
 12 13  1  0  0  0  0
 12 31  1  0  0  0  0
 12 32  1  0  0  0  0
 13 14  1  0  0  0  0
 13 33  1  0  0  0  0
 13 34  1  0  0  0  0
 14 19  1  0  0  0  0
 14 15  2  0  0  0  0
 15 16  1  0  0  0  0
 15 35  1  0  0  0  0
 16 17  2  0  0  0  0
 16 36  1  0  0  0  0
 17 18  1  0  0  0  0
 17 37  1  0  0  0  0
 18 19  2  0  0  0  0
 18 38  1  0  0  0  0
 19 43  1  0  0  0  0
 20 21  1  0  0  0  0
 20 39  1  0  0  0  0
 20 40  1  0  0  0  0
 21 41  1  0  0  0  0
 21 42  1  0  0  0  0
M  CHG  1  19   1
M  END
> <s_m_source_file>
AV-unprocessed.smi

> <i_m_source_file_index>
2054

> <i_lp_mmshare_version>
43012

> <i_f3d_flags>
0

> <s_epik_input>
W0NIM11TKD1PKSg9TylOMVtDSDJdW0NIMl1bQ0hdKFtDSDJdW0NIMl0xKUMoPU8pW05IXVtDSDJdW0NIMl1jMltjSF1bY0hdW2NIXVtjSF1uMg==

> <s_epik_cmdline>
J2VwaWtfcHl0aG9uJywgJy1waCcsICc3LjAnLCAnLXRuJywgJzgnLCAnLW1hJywgJzIwMCcsICctbWV0YWxfYmluZGluZycsICctaW1hZScsICc8aW5maWxlLm1hZT4nLCAnLW9tYWUnLCAnPG91dGZpbGUubWFlPic=

> <r_epik_Ionization_Penalty>
1.82741

> <r_epik_Ionization_Penalty_Charging>
1.82741

> <r_epik_Ionization_Penalty_Neutral>
1.85342e-08

> <r_epik_State_Penalty>
1.94311

> <r_epik_Charging_Adjusted_Penalty>
3.77052

> <i_epik_Tot_Q>
1

> <i_epik_Tot_abs_Q>
1

> <r_epik_Metal_State_Penalty>
1.96983

> <b_epik_Metal_Only>
0

> <s_lp_Force_Field>
OPLS_2005

> <r_lp_Energy>
8.70127

> <b_lp_Chiralities_Consistent>
1

> <s_lp_Variant>
AV-unprocessed.smi:2054-2

> <Gold.Version>
5.8.1

> <Gold.Id.Protein>
6NUR|6NUR_protein|mol2

> <Gold.PLP.Fitness>
45.5332

> <Gold.PLP.PLP>
-35.3267

> <Gold.PLP.part.hbond>
-2.8585

> <Gold.PLP.part.metal>
0.0000

> <Gold.PLP.part.buried>
-5.0544

> <Gold.PLP.part.nonpolar>
-27.2556

> <Gold.PLP.part.repulsive>
0.1195

> <Gold.PLP.ligand.clash>
0.0000

> <Gold.PLP.ligand.torsion>
1.2717

> <Gold.PLP.Chemscore.Hbond>
4.0000

> <Gold.PLP.Chemscore.CHOScore>
0.0000

> <Gold.PLP.Chemscore.Metal>
0.0000

> <Gold.Chemscore.Hbonds>
donor molecule, donor type, donor heavy atom, donor atom, acceptor molecule, acceptor atom, score
      L1  H    19    43       P1  8028  2.00
      P1  H  6896  6908       L1     3  0.45
      P1  H  7989  7998       L1    10  0.93

> <Gold.PLP.Chemscore.Internal.Correction>
0.7500

> <Gold.Rescore>
     Score         DG    S(hbond)    S(metal)    S(lipo)     H(rot)  DE(clash)    DE(int)     intcor
     16.73     -19.71       2.50        0.00      92.88       1.95       0.33       2.65       ----

> <Gold.Chemscore.Fitness>
16.7326

> <Gold.Chemscore.DG>
-19.7121

> <Gold.Chemscore.ZeroCoef>
-5.4800

> <Gold.Chemscore.Hbond>
2.4996

> <Gold.Chemscore.Metal>
0.0000

> <Gold.Chemscore.Lipo>
92.8783

> <Gold.Chemscore.Internal_Hbond>
0.0000

> <Gold.Chemscore.DEClash>
0.3252

> <Gold.Chemscore.DEInternal>
2.6543

> <Gold.Chemscore.Rot>
1.9466

> <Gold.Chemscore.Internal.Correction>
   9.000000E+99

> <Gold.Chemscore.Hbonds>
donor molecule, donor type, donor heavy atom, donor atom, acceptor molecule, acceptor atom, score
      L1  H    19    43       P1  8028  0.70
      P1  H  6896  6908       L1     3  0.02
      P1  H  7989  7998       L1    10  0.91

> <Gold.Chemscore.Hbond.Weighted>
-8.3485

> <Gold.Chemscore.Metal.Weighted>
-0.0000

> <Gold.Chemscore.Lipo.Weighted>
-10.8668

> <Gold.Chemscore.Internal_Hbond.Weighted>
0.0000

> <Gold.Chemscore.DEClash.Weighted>
0.3252

> <Gold.Chemscore.DEInternal.Weighted>
2.6543

> <Gold.Chemscore.Rot.Weighted>
4.9832

> <Gold.Chemscore.Internal.Correction.Weighted>
   9.000000E+99

> <Gold.Protein.RotatedTorsions>
[ 6907 6896 6895 6894 ] final  115.10 input  -60.11 | X-H torsion
[ 7974 7965 7964 7962 ] final   77.30 input  175.53 | X-H torsion
[ 8008 7997 7996 7995 ] final  121.69 input   59.86 | X-H torsion
[ 10167 10162 10161 10158 ] final   96.12 input  -65.29 | X-H torsion
[ 10718 10713 10712 10709 ] final  -10.36 input   66.30 | X-H torsion
[ 10763 10752 10751 10750 ] final  -27.76 input  -60.55 | X-H torsion
[ 11005 11000 10999 10996 ] final  -72.80 input  -57.11 | X-H torsion

> <Gold.Protein.ActiveResidues>
 VAL166  LYS551  ARG553  GLY616  TRP617  ASP618  TYR619  PRO620  LYS621  CYS622 
 ASP623  PHE694  ASN695  SER759  ASP760  ASP761  ALA762  ILE779  LEU786  VAL792 
 PHE793  MET794  SER795  GLU796  ALA797  LYS798  CYS799  TRP800  GLU811  SER814 

> <Gold.Protein.RotatedAtoms>
  152.4762  133.8144  159.7020 H   0  0  0  0  0  0  0  0  0  0  0  0  # atno 6907 bound_to 6896
  150.8781  133.7401  159.2947 H   0  0  0  0  0  0  0  0  0  0  0  0  # atno 6908 bound_to 6896
  151.4914  135.1061  159.9856 H   0  0  0  0  0  0  0  0  0  0  0  0  # atno 6909 bound_to 6896
  145.6918  139.2555  143.1755 H   0  0  0  0  0  0  0  0  0  0  0  0  # atno 7974 bound_to 7965
  156.2697  140.2802  156.1348 H   0  0  0  0  0  0  0  0  0  0  0  0  # atno 8008 bound_to 7997
  155.1016  140.0389  157.2716 H   0  0  0  0  0  0  0  0  0  0  0  0  # atno 8009 bound_to 7997
  154.6811  140.2609  155.6913 H   0  0  0  0  0  0  0  0  0  0  0  0  # atno 8010 bound_to 7997
  139.7924  144.6847  150.9874 H   0  0  0  0  0  0  0  0  0  0  0  0  # atno 10167 bound_to 10162
  156.6746  130.5019  149.5989 H   0  0  0  0  0  0  0  0  0  0  0  0  # atno 10718 bound_to 10713
  153.7374  135.6935  153.4975 H   0  0  0  0  0  0  0  0  0  0  0  0  # atno 10763 bound_to 10752
  153.2093  135.4408  155.0359 H   0  0  0  0  0  0  0  0  0  0  0  0  # atno 10764 bound_to 10752
  154.8232  135.3433  154.6901 H   0  0  0  0  0  0  0  0  0  0  0  0  # atno 10765 bound_to 10752
  141.1614  133.6858  156.7114 H   0  0  0  0  0  0  0  0  0  0  0  0  # atno 11005 bound_to 11000
  146.0875  140.7694  142.9611 LP  0  0  0  0  0  0  0  0  0  0  0  0  # atno 17320 bound_to 7965
  144.6994  140.3585  143.7168 LP  0  0  0  0  0  0  0  0  0  0  0  0  # atno 17321 bound_to 7965
  140.7820  143.4367  151.0613 LP  0  0  0  0  0  0  0  0  0  0  0  0  # atno 17342 bound_to 10162
  139.8043  143.8040  152.3166 LP  0  0  0  0  0  0  0  0  0  0  0  0  # atno 17343 bound_to 10162
  156.1913  130.6561  151.1064 LP  0  0  0  0  0  0  0  0  0  0  0  0  # atno 17370 bound_to 10713
  157.7065  131.0754  150.6649 LP  0  0  0  0  0  0  0  0  0  0  0  0  # atno 17371 bound_to 10713
  140.2884  134.8260  157.3995 LP  0  0  0  0  0  0  0  0  0  0  0  0  # atno 17394 bound_to 11000
  140.1369  134.5022  155.8061 LP  0  0  0  0  0  0  0  0  0  0  0  0  # atno 17395 bound_to 11000

$$$$
