AV-unprocessed.smi:1830|AV-procd|sdf|7448|dock3
  -GOLD-   22720 9133D 1   1.00000     0.00000
 Structure written by MMmdl.
 54 57  0  0  0  0  0  0  0  0  3 V2000
  150.0576  134.0403  155.6000 O   0  0  0  0  0  0  0  0  0  0  0  0
  149.5418  134.6688  154.6766 C   0  0  0  0  0  0  0  0  0  0  0  0
  149.6850  135.9901  154.5162 N   0  0  0  0  0  0  0  0  0  0  0  0
  150.4576  136.8455  155.4098 C   0  0  0  0  0  0  0  0  0  0  0  0
  150.3801  138.3263  155.0006 C   0  0  2  0  0  0  0  0  0  0  0  0
  150.9363  139.2911  156.0642 C   0  0  0  0  0  0  0  0  0  0  0  0
  150.8262  140.7042  155.6220 N   0  3  2  0  0  0  0  0  0  0  0  0
  151.0692  141.6580  156.7265 C   0  0  0  0  0  0  0  0  0  0  0  0
  149.6865  142.0638  157.2699 C   0  0  0  0  0  0  0  0  0  0  0  0
  148.6632  141.4047  156.3375 C   0  0  0  0  0  0  0  0  0  0  0  0
  149.4845  141.0445  155.0993 C   0  0  2  0  0  0  0  0  0  0  0  0
  148.8880  139.9546  154.1852 C   0  0  0  0  0  0  0  0  0  0  0  0
  149.0192  138.6639  154.7645 O   0  0  0  0  0  0  0  0  0  0  0  0
  148.7863  134.1382  153.7005 N   0  0  0  0  0  0  0  0  0  0  0  0
  148.4316  132.7732  153.4967 C   0  0  0  0  0  0  0  0  0  0  0  0
  149.1024  131.6985  154.1360 C   0  0  0  0  0  0  0  0  0  0  0  0
  148.6868  130.3736  153.8967 C   0  0  0  0  0  0  0  0  0  0  0  0
  147.6022  130.1413  153.0312 C   0  0  0  0  0  0  0  0  0  0  0  0
  146.9737  131.1855  152.4521 N   0  3  0  0  0  0  0  0  0  0  0  0
  147.3339  132.4777  152.6484 C   0  0  0  0  0  0  0  0  0  0  0  0
  146.6055  133.4923  152.0033 N   0  0  0  0  0  0  0  0  0  0  0  0
  145.7058  133.0504  150.9508 C   0  0  0  0  0  0  0  0  0  0  0  0
  144.7781  134.2385  150.6860 C   0  0  0  0  0  0  0  0  0  0  0  0
  144.8299  135.0728  151.9719 C   0  0  0  0  0  0  0  0  0  0  0  0
  145.8128  134.3338  152.8842 C   0  0  0  0  0  0  0  0  0  0  0  0
  149.2426  136.4329  153.7241 H   0  0  0  0  0  0  0  0  0  0  0  0
  150.0867  136.7295  156.4294 H   0  0  0  0  0  0  0  0  0  0  0  0
  151.4976  136.5157  155.4115 H   0  0  0  0  0  0  0  0  0  0  0  0
  150.9448  138.4434  154.0737 H   0  0  0  0  0  0  0  0  0  0  0  0
  150.3929  139.1634  157.0017 H   0  0  0  0  0  0  0  0  0  0  0  0
  151.9822  139.0631  156.2730 H   0  0  0  0  0  0  0  0  0  0  0  0
  151.7200  141.2474  157.5002 H   0  0  0  0  0  0  0  0  0  0  0  0
  151.5711  142.5347  156.3155 H   0  0  0  0  0  0  0  0  0  0  0  0
  149.5451  141.7310  158.2987 H   0  0  0  0  0  0  0  0  0  0  0  0
  149.5805  143.1494  157.2584 H   0  0  0  0  0  0  0  0  0  0  0  0
  148.2652  140.5020  156.8032 H   0  0  0  0  0  0  0  0  0  0  0  0
  147.8215  142.0586  156.1068 H   0  0  0  0  0  0  0  0  0  0  0  0
  149.5946  141.9557  154.5085 H   0  0  0  0  0  0  0  0  0  0  0  0
  147.8340  140.1567  153.9940 H   0  0  0  0  0  0  0  0  0  0  0  0
  149.3856  139.9643  153.2140 H   0  0  0  0  0  0  0  0  0  0  0  0
  148.5017  134.7720  152.9680 H   0  0  0  0  0  0  0  0  0  0  0  0
  149.9213  131.8634  154.8186 H   0  0  0  0  0  0  0  0  0  0  0  0
  149.1916  129.5470  154.3754 H   0  0  0  0  0  0  0  0  0  0  0  0
  147.2164  129.1607  152.7924 H   0  0  0  0  0  0  0  0  0  0  0  0
  146.2586  132.7657  150.0550 H   0  0  0  0  0  0  0  0  0  0  0  0
  145.1242  132.1871  151.2770 H   0  0  0  0  0  0  0  0  0  0  0  0
  145.1486  134.8283  149.8466 H   0  0  0  0  0  0  0  0  0  0  0  0
  143.7665  133.9129  150.4416 H   0  0  0  0  0  0  0  0  0  0  0  0
  145.1954  136.0762  151.7500 H   0  0  0  0  0  0  0  0  0  0  0  0
  143.8502  135.1728  152.4401 H   0  0  0  0  0  0  0  0  0  0  0  0
  145.2677  133.7249  153.6068 H   0  0  0  0  0  0  0  0  0  0  0  0
  146.4460  135.0277  153.4381 H   0  0  0  0  0  0  0  0  0  0  0  0
  151.5096  140.8485  154.8919 H   0  0  0  0  0  0  0  0  0  0  0  0
  146.1850  130.9910  151.8350 H   0  0  0  0  0  0  0  0  0  0  0  0
  1  2  2  0  0  0  0
  2  3  1  0  0  0  0
  2 14  1  0  0  0  0
  3  4  1  0  0  0  0
  3 26  1  0  0  0  0
  4  5  1  0  0  0  0
  4 27  1  0  0  0  0
  4 28  1  0  0  0  0
  5 13  1  0  0  0  0
  5  6  1  0  0  0  0
  5 29  1  0  0  0  0
  6  7  1  0  0  0  0
  6 30  1  0  0  0  0
  6 31  1  0  0  0  0
  7 11  1  0  0  0  0
  7  8  1  0  0  0  0
  7 53  1  0  0  0  0
  8  9  1  0  0  0  0
  8 32  1  0  0  0  0
  8 33  1  0  0  0  0
  9 10  1  0  0  0  0
  9 34  1  0  0  0  0
  9 35  1  0  0  0  0
 10 11  1  0  0  0  0
 10 36  1  0  0  0  0
 10 37  1  0  0  0  0
 11 12  1  0  0  0  0
 11 38  1  0  0  0  0
 12 13  1  0  0  0  0
 12 39  1  0  0  0  0
 12 40  1  0  0  0  0
 14 15  1  0  0  0  0
 14 41  1  0  0  0  0
 15 20  1  0  0  0  0
 15 16  2  0  0  0  0
 16 17  1  0  0  0  0
 16 42  1  0  0  0  0
 17 18  2  0  0  0  0
 17 43  1  0  0  0  0
 18 19  1  0  0  0  0
 18 44  1  0  0  0  0
 19 20  2  0  0  0  0
 19 54  1  0  0  0  0
 20 21  1  0  0  0  0
 21 25  1  0  0  0  0
 21 22  1  0  0  0  0
 22 23  1  0  0  0  0
 22 45  1  0  0  0  0
 22 46  1  0  0  0  0
 23 24  1  0  0  0  0
 23 47  1  0  0  0  0
 23 48  1  0  0  0  0
 24 25  1  0  0  0  0
 24 49  1  0  0  0  0
 24 50  1  0  0  0  0
 25 51  1  0  0  0  0
 25 52  1  0  0  0  0
M  CHG  1   7   1
M  CHG  1  19   1
M  END
> <s_m_source_file>
AV-unprocessed.smi

> <i_m_source_file_index>
1830

> <i_lp_mmshare_version>
43012

> <i_f3d_flags>
0

> <s_epik_input>
W0NIMl0xW0NIMl1bQ0gyXVtDQEhdKE4xMilbQ0gyXU9bQ0BASF0oW0NIMl0yKVtDSDJdW05IXUMoPU8pW05IXWMzW2NIXVtjSF1bY0hdbmMzTjRbQ0gyXVtDSDJdW0NIMl1bQ0gyXTQ=

> <s_epik_cmdline>
J2VwaWtfcHl0aG9uJywgJy1waCcsICc3LjAnLCAnLXRuJywgJzgnLCAnLW1hJywgJzIwMCcsICctbWV0YWxfYmluZGluZycsICctaW1hZScsICc8aW5maWxlLm1hZT4nLCAnLW9tYWUnLCAnPG91dGZpbGUubWFlPic=

> <r_lp_tautomer_probability>
0.999994

> <r_epik_Ionization_Penalty>
1.29113

> <r_epik_Ionization_Penalty_Charging>
1.29111

> <r_epik_Ionization_Penalty_Neutral>
1.88144e-05

> <r_epik_State_Penalty>
1.32676

> <r_epik_Charging_Adjusted_Penalty>
2.61787

> <i_epik_Tot_Q>
2

> <i_epik_Tot_abs_Q>
2

> <r_epik_Metal_State_Penalty>
1.40425

> <b_epik_Metal_Only>
0

> <s_lp_Force_Field>
OPLS_2005

> <r_lp_Energy>
77.5794

> <b_lp_Chiralities_Consistent>
1

> <s_lp_Variant>
AV-unprocessed.smi:1830-17

> <Gold.Version>
5.8.1

> <Gold.Id.Protein>
6NUR|6NUR_protein|mol2

> <Gold.PLP.Fitness>
42.1977

> <Gold.PLP.PLP>
-38.4682

> <Gold.PLP.part.hbond>
-3.0000

> <Gold.PLP.part.metal>
0.0000

> <Gold.PLP.part.buried>
-2.1637

> <Gold.PLP.part.nonpolar>
-32.9235

> <Gold.PLP.part.repulsive>
0.8401

> <Gold.PLP.ligand.clash>
1.4756

> <Gold.PLP.ligand.torsion>
0.3536

> <Gold.PLP.Chemscore.Hbond>
1.9600

> <Gold.PLP.Chemscore.CHOScore>
0.0000

> <Gold.PLP.Chemscore.Metal>
0.0000

> <Gold.Chemscore.Hbonds>
donor molecule, donor type, donor heavy atom, donor atom, acceptor molecule, acceptor atom, score
      L1  H     3    26       P1  7948  0.83
      L1  H    14    41       P1  7948  0.94

> <Gold.PLP.Chemscore.Internal.Correction>
0.0322

> <Gold.Rescore>
     Score         DG    S(hbond)    S(metal)    S(lipo)     H(rot)  DE(clash)    DE(int)     intcor
     15.15     -16.86       1.51        0.00      85.50       1.43       0.00       1.71       ----

> <Gold.Chemscore.Fitness>
15.1539

> <Gold.Chemscore.DG>
-16.8594

> <Gold.Chemscore.ZeroCoef>
-5.4800

> <Gold.Chemscore.Hbond>
1.5063

> <Gold.Chemscore.Metal>
0.0000

> <Gold.Chemscore.Lipo>
85.4983

> <Gold.Chemscore.Internal_Hbond>
0.0000

> <Gold.Chemscore.DEClash>
0.0000

> <Gold.Chemscore.DEInternal>
1.7055

> <Gold.Chemscore.Rot>
1.4278

> <Gold.Chemscore.Internal.Correction>
   9.000000E+99

> <Gold.Chemscore.Hbonds>
donor molecule, donor type, donor heavy atom, donor atom, acceptor molecule, acceptor atom, score
      L1  H     3    26       P1  7948  0.77
      L1  H    14    41       P1  7948  0.41

> <Gold.Chemscore.Hbond.Weighted>
-5.0311

> <Gold.Chemscore.Metal.Weighted>
-0.0000

> <Gold.Chemscore.Lipo.Weighted>
-10.0033

> <Gold.Chemscore.Internal_Hbond.Weighted>
0.0000

> <Gold.Chemscore.DEClash.Weighted>
0.0000

> <Gold.Chemscore.DEInternal.Weighted>
1.7055

> <Gold.Chemscore.Rot.Weighted>
3.6551

> <Gold.Chemscore.Internal.Correction.Weighted>
   9.000000E+99

> <Gold.Protein.RotatedTorsions>
[ 6907 6896 6895 6894 ] final   52.78 input  -60.11 | X-H torsion
[ 7974 7965 7964 7962 ] final   95.13 input  175.53 | X-H torsion
[ 8008 7997 7996 7995 ] final  -25.39 input   59.86 | X-H torsion
[ 10167 10162 10161 10158 ] final  -15.06 input  -65.29 | X-H torsion
[ 10718 10713 10712 10709 ] final   51.21 input   66.30 | X-H torsion
[ 10763 10752 10751 10750 ] final -152.06 input  -60.55 | X-H torsion
[ 11005 11000 10999 10996 ] final   35.70 input  -57.11 | X-H torsion

> <Gold.Protein.ActiveResidues>
 VAL166  LYS551  ARG553  GLY616  TRP617  ASP618  TYR619  PRO620  LYS621  CYS622 
 ASP623  PHE694  ASN695  SER759  ASP760  ASP761  ALA762  ILE779  LEU786  VAL792 
 PHE793  MET794  SER795  GLU796  ALA797  LYS798  CYS799  TRP800  GLU811  SER814 

> <Gold.Protein.RotatedAtoms>
  152.3268  134.7310  160.0299 H   0  0  0  0  0  0  0  0  0  0  0  0  # atno 6907 bound_to 6896
  151.7740  133.3338  159.3460 H   0  0  0  0  0  0  0  0  0  0  0  0  # atno 6908 bound_to 6896
  150.7400  134.5924  159.6039 H   0  0  0  0  0  0  0  0  0  0  0  0  # atno 6909 bound_to 6896
  145.4563  139.2290  143.3012 H   0  0  0  0  0  0  0  0  0  0  0  0  # atno 7974 bound_to 7965
  154.4478  140.1928  156.0612 H   0  0  0  0  0  0  0  0  0  0  0  0  # atno 8008 bound_to 7997
  156.0582  140.3300  155.7403 H   0  0  0  0  0  0  0  0  0  0  0  0  # atno 8009 bound_to 7997
  155.5453  140.0590  157.2852 H   0  0  0  0  0  0  0  0  0  0  0  0  # atno 8010 bound_to 7997
  140.7212  143.5257  150.9580 H   0  0  0  0  0  0  0  0  0  0  0  0  # atno 10167 bound_to 10162
  157.4959  130.8406  149.8258 H   0  0  0  0  0  0  0  0  0  0  0  0  # atno 10718 bound_to 10713
  154.8019  135.3245  154.7530 H   0  0  0  0  0  0  0  0  0  0  0  0  # atno 10763 bound_to 10752
  153.8196  135.6889  153.4833 H   0  0  0  0  0  0  0  0  0  0  0  0  # atno 10764 bound_to 10752
  153.1740  135.4612  154.9884 H   0  0  0  0  0  0  0  0  0  0  0  0  # atno 10765 bound_to 10752
  140.2400  134.3426  155.7929 H   0  0  0  0  0  0  0  0  0  0  0  0  # atno 11005 bound_to 11000
  146.2476  140.5328  142.8907 LP  0  0  0  0  0  0  0  0  0  0  0  0  # atno 17320 bound_to 7965
  144.8030  140.6248  143.6465 LP  0  0  0  0  0  0  0  0  0  0  0  0  # atno 17321 bound_to 7965
  139.8976  143.6876  152.3136 LP  0  0  0  0  0  0  0  0  0  0  0  0  # atno 17342 bound_to 10162
  139.7214  144.7602  151.0949 LP  0  0  0  0  0  0  0  0  0  0  0  0  # atno 17343 bound_to 10162
  156.0200  130.3799  150.1991 LP  0  0  0  0  0  0  0  0  0  0  0  0  # atno 17370 bound_to 10713
  157.0180  130.9971  151.3347 LP  0  0  0  0  0  0  0  0  0  0  0  0  # atno 17371 bound_to 10713
  141.2211  133.7293  156.8869 LP  0  0  0  0  0  0  0  0  0  0  0  0  # atno 17394 bound_to 11000
  140.1663  134.9131  157.2778 LP  0  0  0  0  0  0  0  0  0  0  0  0  # atno 17395 bound_to 11000

$$$$
