AV-unprocessed.smi:1999|AV-procd|sdf|8097|dock4
  -GOLD-   2272010313D 1   1.00000     0.00000
 Structure written by MMmdl.
 37 38  0  0  0  0  0  0  0  0  2 V2000
  143.9933  143.8456  162.7267 C   0  0  0  0  0  0  0  0  0  0  0  0
  144.8013  143.3758  161.5661 C   0  0  0  0  0  0  0  0  0  0  0  0
  145.1166  142.0922  161.3769 N   0  0  0  0  0  0  0  0  0  0  0  0
  145.8767  141.9041  160.2317 N   0  0  0  0  0  0  0  0  0  0  0  0
  146.1324  143.0455  159.5766 C   0  0  0  0  0  0  0  0  0  0  0  0
  146.8500  143.0793  158.4416 N   0  5  0  0  0  0  0  0  0  0  0  0
  147.1564  141.9279  157.8014 C   0  0  0  0  0  0  0  0  0  0  0  0
  146.8194  140.7915  158.1419 O   0  0  0  0  0  0  0  0  0  0  0  0
  147.8992  142.1047  156.6991 N   0  0  0  0  0  0  0  0  0  0  0  0
  148.3981  141.0528  155.8146 C   0  0  1  0  0  0  0  0  0  0  0  0
  147.8714  141.2706  154.3877 C   0  0  0  0  0  0  0  0  0  0  0  0
  149.9405  141.0304  155.8420 C   0  0  0  0  0  0  0  0  0  0  0  0
  150.5599  139.7062  155.7566 N   0  0  0  0  0  0  0  0  0  0  0  0
  149.8926  138.8283  154.7978 C   0  0  0  0  0  0  0  0  0  0  0  0
  150.5762  137.4527  154.7079 C   0  0  0  0  0  0  0  0  0  0  0  0
  151.9515  137.6193  154.3783 O   0  0  0  0  0  0  0  0  0  0  0  0
  152.6457  138.4297  155.3209 C   0  0  0  0  0  0  0  0  0  0  0  0
  151.9718  139.8098  155.4061 C   0  0  0  0  0  0  0  0  0  0  0  0
  145.4193  144.4675  160.3380 S   0  0  0  0  0  0  0  0  0  0  0  0
  144.6380  143.9932  163.5932 H   0  0  0  0  0  0  0  0  0  0  0  0
  143.2279  143.1109  162.9784 H   0  0  0  0  0  0  0  0  0  0  0  0
  143.5039  144.7900  162.4884 H   0  0  0  0  0  0  0  0  0  0  0  0
  148.1547  143.0524  156.4633 H   0  0  0  0  0  0  0  0  0  0  0  0
  148.0284  140.0856  156.1567 H   0  0  0  0  0  0  0  0  0  0  0  0
  148.2286  140.4901  153.7156 H   0  0  0  0  0  0  0  0  0  0  0  0
  148.1964  142.2312  153.9865 H   0  0  0  0  0  0  0  0  0  0  0  0
  146.7814  141.2513  154.3619 H   0  0  0  0  0  0  0  0  0  0  0  0
  150.3225  141.6620  155.0387 H   0  0  0  0  0  0  0  0  0  0  0  0
  150.2622  141.5056  156.7700 H   0  0  0  0  0  0  0  0  0  0  0  0
  148.8520  138.6774  155.0829 H   0  0  0  0  0  0  0  0  0  0  0  0
  149.8846  139.2940  153.8113 H   0  0  0  0  0  0  0  0  0  0  0  0
  150.4846  136.9149  155.6529 H   0  0  0  0  0  0  0  0  0  0  0  0
  150.0978  136.8408  153.9431 H   0  0  0  0  0  0  0  0  0  0  0  0
  152.6532  137.9419  156.2969 H   0  0  0  0  0  0  0  0  0  0  0  0
  153.6841  138.5332  155.0061 H   0  0  0  0  0  0  0  0  0  0  0  0
  152.0790  140.3221  154.4486 H   0  0  0  0  0  0  0  0  0  0  0  0
  152.4930  140.4186  156.1457 H   0  0  0  0  0  0  0  0  0  0  0  0
  1  2  1  0  0  0  0
  1 20  1  0  0  0  0
  1 21  1  0  0  0  0
  1 22  1  0  0  0  0
  2 19  1  0  0  0  0
  2  3  2  0  0  0  0
  3  4  1  0  0  0  0
  4  5  2  0  0  0  0
  5  6  1  0  0  0  0
  5 19  1  0  0  0  0
  6  7  1  0  0  0  0
  7  8  2  0  0  0  0
  7  9  1  0  0  0  0
  9 10  1  0  0  0  0
  9 23  1  0  0  0  0
 10 11  1  0  0  0  0
 10 12  1  0  0  0  0
 10 24  1  0  0  0  0
 11 25  1  0  0  0  0
 11 26  1  0  0  0  0
 11 27  1  0  0  0  0
 12 13  1  0  0  0  0
 12 28  1  0  0  0  0
 12 29  1  0  0  0  0
 13 18  1  0  0  0  0
 13 14  1  0  0  0  0
 14 15  1  0  0  0  0
 14 30  1  0  0  0  0
 14 31  1  0  0  0  0
 15 16  1  0  0  0  0
 15 32  1  0  0  0  0
 15 33  1  0  0  0  0
 16 17  1  0  0  0  0
 17 18  1  0  0  0  0
 17 34  1  0  0  0  0
 17 35  1  0  0  0  0
 18 36  1  0  0  0  0
 18 37  1  0  0  0  0
M  CHG  1   6  -1
M  END
> <s_m_source_file>
AV-unprocessed.smi

> <i_m_source_file_index>
1999

> <i_lp_mmshare_version>
43012

> <i_f3d_flags>
0

> <s_epik_input>
W0NIM11jMW5uYyhzMSlbTkhdQyg9TylbTkhdW0NASF0oW0NIM10pW0NIMl1OMltDSDJdW0NIMl1PW0NIMl1bQ0gyXTI=

> <s_epik_cmdline>
J2VwaWtfcHl0aG9uJywgJy1waCcsICc3LjAnLCAnLXRuJywgJzgnLCAnLW1hJywgJzIwMCcsICctbWV0YWxfYmluZGluZycsICctaW1hZScsICc8aW5maWxlLm1hZT4nLCAnLW9tYWUnLCAnPG91dGZpbGUubWFlPic=

> <r_lp_tautomer_probability>
1

> <r_epik_Ionization_Penalty>
3.74165

> <r_epik_Ionization_Penalty_Charging>
3.28066

> <r_epik_Ionization_Penalty_Neutral>
0.460988

> <r_epik_State_Penalty>
3.48767

> <r_epik_Charging_Adjusted_Penalty>
6.76834

> <i_epik_Tot_Q>
-1

> <i_epik_Tot_abs_Q>
1

> <r_epik_Metal_State_Penalty>
0.700129

> <b_epik_Metal_Only>
1

> <s_lp_Force_Field>
OPLS_2005

> <r_lp_Energy>
23.1918

> <b_lp_Chiralities_Consistent>
1

> <s_lp_Variant>
AV-unprocessed.smi:1999-6

> <Gold.Version>
5.8.1

> <Gold.Id.Protein>
6NUR|6NUR_protein|mol2

> <Gold.PLP.Fitness>
41.5873

> <Gold.PLP.PLP>
-35.4649

> <Gold.PLP.part.hbond>
-4.5112

> <Gold.PLP.part.metal>
0.0000

> <Gold.PLP.part.buried>
-5.6665

> <Gold.PLP.part.nonpolar>
-26.6761

> <Gold.PLP.part.repulsive>
0.3669

> <Gold.PLP.ligand.clash>
0.0000

> <Gold.PLP.ligand.torsion>
0.6678

> <Gold.PLP.Chemscore.Hbond>
2.4554

> <Gold.PLP.Chemscore.CHOScore>
0.0000

> <Gold.PLP.Chemscore.Metal>
0.0000

> <Gold.Chemscore.Hbonds>
donor molecule, donor type, donor heavy atom, donor atom, acceptor molecule, acceptor atom, score
      L1  H     9    23       P1  8028  1.00
      P1  H  6934  6946       L1     4  1.00
      P1  H 10752 10765       L1    16  0.54

> <Gold.PLP.Chemscore.Internal.Correction>
0.0917

> <Gold.Rescore>
     Score         DG    S(hbond)    S(metal)    S(lipo)     H(rot)  DE(clash)    DE(int)     intcor
     13.00     -15.52       2.09        0.00      60.25       1.56       0.02       2.51       ----

> <Gold.Chemscore.Fitness>
12.9989

> <Gold.Chemscore.DG>
-15.5242

> <Gold.Chemscore.ZeroCoef>
-5.4800

> <Gold.Chemscore.Hbond>
2.0888

> <Gold.Chemscore.Metal>
0.0000

> <Gold.Chemscore.Lipo>
60.2543

> <Gold.Chemscore.Internal_Hbond>
0.0000

> <Gold.Chemscore.DEClash>
0.0174

> <Gold.Chemscore.DEInternal>
2.5079

> <Gold.Chemscore.Rot>
1.5556

> <Gold.Chemscore.Internal.Correction>
   9.000000E+99

> <Gold.Chemscore.Hbonds>
donor molecule, donor type, donor heavy atom, donor atom, acceptor molecule, acceptor atom, score
      L1  H     9    23       P1  8028  0.44
      P1  H  6934  6946       L1     4  0.28
      P1  H 10752 10765       L1    16  0.27

> <Gold.Chemscore.Hbond.Weighted>
-6.9767

> <Gold.Chemscore.Metal.Weighted>
-0.0000

> <Gold.Chemscore.Lipo.Weighted>
-7.0498

> <Gold.Chemscore.Internal_Hbond.Weighted>
0.0000

> <Gold.Chemscore.DEClash.Weighted>
0.0174

> <Gold.Chemscore.DEInternal.Weighted>
2.5079

> <Gold.Chemscore.Rot.Weighted>
3.9823

> <Gold.Chemscore.Internal.Correction.Weighted>
   9.000000E+99

> <Gold.Protein.RotatedTorsions>
[ 6907 6896 6895 6894 ] final   69.64 input  -60.11 | X-H torsion
[ 7974 7965 7964 7962 ] final  -36.46 input  175.53 | X-H torsion
[ 8008 7997 7996 7995 ] final -163.84 input   59.86 | X-H torsion
[ 10167 10162 10161 10158 ] final -169.55 input  -65.29 | X-H torsion
[ 10718 10713 10712 10709 ] final  -47.85 input   66.30 | X-H torsion
[ 10763 10752 10751 10750 ] final  160.69 input  -60.55 | X-H torsion
[ 11005 11000 10999 10996 ] final  -31.90 input  -57.11 | X-H torsion

> <Gold.Protein.ActiveResidues>
 VAL166  LYS551  ARG553  GLY616  TRP617  ASP618  TYR619  PRO620  LYS621  CYS622 
 ASP623  PHE694  ASN695  SER759  ASP760  ASP761  ALA762  ILE779  LEU786  VAL792 
 PHE793  MET794  SER795  GLU796  ALA797  LYS798  CYS799  TRP800  GLU811  SER814 

> <Gold.Protein.RotatedAtoms>
  152.4699  134.4986  159.9717 H   0  0  0  0  0  0  0  0  0  0  0  0  # atno 6907 bound_to 6896
  151.5015  133.3497  159.2877 H   0  0  0  0  0  0  0  0  0  0  0  0  # atno 6908 bound_to 6896
  150.8703  134.8103  159.7211 H   0  0  0  0  0  0  0  0  0  0  0  0  # atno 6909 bound_to 6896
  146.0659  140.6281  142.8975 H   0  0  0  0  0  0  0  0  0  0  0  0  # atno 7974 bound_to 7965
  155.8271  140.0928  157.1815 H   0  0  0  0  0  0  0  0  0  0  0  0  # atno 8008 bound_to 7997
  154.3979  140.1426  156.3629 H   0  0  0  0  0  0  0  0  0  0  0  0  # atno 8009 bound_to 7997
  155.8205  140.3446  155.5514 H   0  0  0  0  0  0  0  0  0  0  0  0  # atno 8010 bound_to 7997
  139.5916  144.1201  152.1640 H   0  0  0  0  0  0  0  0  0  0  0  0  # atno 10167 bound_to 10162
  156.2044  130.4157  149.9197 H   0  0  0  0  0  0  0  0  0  0  0  0  # atno 10718 bound_to 10713
  154.2513  135.2771  155.2815 H   0  0  0  0  0  0  0  0  0  0  0  0  # atno 10763 bound_to 10752
  154.5463  135.5688  153.6886 H   0  0  0  0  0  0  0  0  0  0  0  0  # atno 10764 bound_to 10752
  152.9980  135.6263  154.2660 H   0  0  0  0  0  0  0  0  0  0  0  0  # atno 10765 bound_to 10752
  140.9507  133.7222  156.1216 H   0  0  0  0  0  0  0  0  0  0  0  0  # atno 11005 bound_to 11000
  144.7202  140.4348  143.7014 LP  0  0  0  0  0  0  0  0  0  0  0  0  # atno 17320 bound_to 7965
  145.6478  139.1560  143.2879 LP  0  0  0  0  0  0  0  0  0  0  0  0  # atno 17321 bound_to 7965
  140.0777  144.5726  150.7145 LP  0  0  0  0  0  0  0  0  0  0  0  0  # atno 17342 bound_to 10162
  140.7177  143.2560  151.4379 LP  0  0  0  0  0  0  0  0  0  0  0  0  # atno 17343 bound_to 10162
  156.6896  130.8890  151.3586 LP  0  0  0  0  0  0  0  0  0  0  0  0  # atno 17370 bound_to 10713
  157.7004  130.9327  150.0768 LP  0  0  0  0  0  0  0  0  0  0  0  0  # atno 17371 bound_to 10713
  140.7606  134.3943  157.5526 LP  0  0  0  0  0  0  0  0  0  0  0  0  # atno 17394 bound_to 11000
  139.8847  134.8959  156.2690 LP  0  0  0  0  0  0  0  0  0  0  0  0  # atno 17395 bound_to 11000

$$$$
