AV-unprocessed.smi:2741|AV-procd|sdf|10558|dock10
  -GOLD-   2272015 13D 1   1.00000     0.00000
 Structure written by MMmdl.
 39 40  0  0  0  0  0  0  0  0  1 V2000
  150.8174  141.4448  156.0445 O   0  0  0  0  0  0  0  0  0  0  0  0
  150.4717  140.6084  156.8800 C   0  0  0  0  0  0  0  0  0  0  0  0
  151.5106  139.9001  157.7608 C   0  0  0  0  0  0  0  0  0  0  0  0
  152.1372  140.7904  158.7524 N   0  0  0  0  0  0  0  0  0  0  0  0
  151.7338  142.1403  158.7512 C   0  0  0  0  0  0  0  0  0  0  0  0
  152.2399  143.0573  159.5980 C   0  0  0  0  0  0  0  0  0  0  0  0
  151.7467  144.4960  159.6062 C   0  0  0  0  0  0  0  0  0  0  0  0
  150.4148  144.5479  159.5745 F   0  0  0  0  0  0  0  0  0  0  0  0
  152.1602  145.1104  160.7136 F   0  0  0  0  0  0  0  0  0  0  0  0
  152.2171  145.1714  158.5568 F   0  0  0  0  0  0  0  0  0  0  0  0
  153.2163  142.5800  160.5576 C   0  0  0  0  0  0  0  0  0  0  0  0
  153.6086  141.2910  160.5761 C   0  0  0  0  0  0  0  0  0  0  0  0
  153.0672  140.3111  159.6320 C   0  0  0  0  0  0  0  0  0  0  0  0
  153.4250  139.1328  159.6331 O   0  0  0  0  0  0  0  0  0  0  0  0
  149.1911  140.2744  157.0991 N   0  0  0  0  0  0  0  0  0  0  0  0
  148.0433  140.8340  156.3934 C   0  0  0  0  0  0  0  0  0  0  0  0
  148.1898  140.7153  154.8637 C   0  0  2  0  0  0  0  0  0  0  0  0
  147.1407  141.5079  154.0680 C   0  0  0  0  0  0  0  0  0  0  0  0
  147.0247  140.7586  152.7439 C   0  0  0  0  0  0  0  0  0  0  0  0
  147.1083  139.2929  153.1670 C   0  0  1  0  0  0  0  0  0  0  0  0
  147.5155  138.4573  152.1043 O   0  0  0  0  0  0  0  0  0  0  0  0
  148.0950  139.2666  154.3446 C   0  0  0  0  0  0  0  0  0  0  0  0
  151.0186  139.0608  158.2541 H   0  0  0  0  0  0  0  0  0  0  0  0
  152.2773  139.4477  157.1284 H   0  0  0  0  0  0  0  0  0  0  0  0
  150.9859  142.3859  158.0110 H   0  0  0  0  0  0  0  0  0  0  0  0
  153.6450  143.2678  161.2714 H   0  0  0  0  0  0  0  0  0  0  0  0
  154.3404  140.9709  161.3033 H   0  0  0  0  0  0  0  0  0  0  0  0
  148.9960  139.5828  157.8085 H   0  0  0  0  0  0  0  0  0  0  0  0
  147.1258  140.3453  156.7261 H   0  0  0  0  0  0  0  0  0  0  0  0
  147.9532  141.8825  156.6787 H   0  0  0  0  0  0  0  0  0  0  0  0
  149.1723  141.0949  154.5784 H   0  0  0  0  0  0  0  0  0  0  0  0
  146.1790  141.4850  154.5822 H   0  0  0  0  0  0  0  0  0  0  0  0
  147.4203  142.5533  153.9333 H   0  0  0  0  0  0  0  0  0  0  0  0
  146.1062  140.9916  152.2041 H   0  0  0  0  0  0  0  0  0  0  0  0
  147.8680  141.0191  152.1020 H   0  0  0  0  0  0  0  0  0  0  0  0
  146.1269  138.9663  153.5144 H   0  0  0  0  0  0  0  0  0  0  0  0
  148.0633  138.9589  151.5197 H   0  0  0  0  0  0  0  0  0  0  0  0
  149.0829  138.9299  154.0269 H   0  0  0  0  0  0  0  0  0  0  0  0
  147.7533  138.5717  155.1128 H   0  0  0  0  0  0  0  0  0  0  0  0
  1  2  2  0  0  0  0
  2  3  1  0  0  0  0
  2 15  1  0  0  0  0
  3  4  1  0  0  0  0
  3 23  1  0  0  0  0
  3 24  1  0  0  0  0
  4 13  1  0  0  0  0
  4  5  1  0  0  0  0
  5  6  2  0  0  0  0
  5 25  1  0  0  0  0
  6  7  1  0  0  0  0
  6 11  1  0  0  0  0
  7  8  1  0  0  0  0
  7  9  1  0  0  0  0
  7 10  1  0  0  0  0
 11 12  2  0  0  0  0
 11 26  1  0  0  0  0
 12 13  1  0  0  0  0
 12 27  1  0  0  0  0
 13 14  2  0  0  0  0
 15 16  1  0  0  0  0
 15 28  1  0  0  0  0
 16 17  1  0  0  0  0
 16 29  1  0  0  0  0
 16 30  1  0  0  0  0
 17 22  1  0  0  0  0
 17 18  1  0  0  0  0
 17 31  1  0  0  0  0
 18 19  1  0  0  0  0
 18 32  1  0  0  0  0
 18 33  1  0  0  0  0
 19 20  1  0  0  0  0
 19 34  1  0  0  0  0
 19 35  1  0  0  0  0
 20 21  1  0  0  0  0
 20 22  1  0  0  0  0
 20 36  1  0  0  0  0
 21 37  1  0  0  0  0
 22 38  1  0  0  0  0
 22 39  1  0  0  0  0
M  END
> <s_m_source_file>
AV-unprocessed.smi

> <i_m_source_file_index>
2741

> <i_lp_mmshare_version>
43012

> <i_f3d_flags>
0

> <s_epik_input>
W09IXVtDQEBIXShbQ0gyXTEpW0NIMl1bQ0gyXVtDQEhdMVtDSDJdW05IXUMoPU8pW0NIMl1uMltjSF1jKEMoRikoRilGKVtjSF1bY0hdYzI9Tw==

> <s_epik_cmdline>
J2VwaWtfcHl0aG9uJywgJy1waCcsICc3LjAnLCAnLXRuJywgJzgnLCAnLW1hJywgJzIwMCcsICctbWV0YWxfYmluZGluZycsICctaW1hZScsICc8aW5maWxlLm1hZT4nLCAnLW9tYWUnLCAnPG91dGZpbGUubWFlPic=

> <r_lp_tautomer_probability>
1

> <r_epik_Ionization_Penalty>
1.17551e-06

> <r_epik_Ionization_Penalty_Charging>
1.78841e-08

> <r_epik_Ionization_Penalty_Neutral>
1.15762e-06

> <r_epik_State_Penalty>
-0

> <r_epik_Charging_Adjusted_Penalty>
1.78841e-08

> <i_epik_Tot_Q>
0

> <i_epik_Tot_abs_Q>
0

> <r_epik_Metal_State_Penalty>
-0

> <b_epik_Metal_Only>
0

> <s_lp_Force_Field>
OPLS_2005

> <r_lp_Energy>
33.5858

> <b_lp_Chiralities_Consistent>
1

> <s_lp_Variant>
AV-unprocessed.smi:2741-1

> <Gold.Version>
5.8.1

> <Gold.Id.Protein>
6NUR|6NUR_protein|mol2

> <Gold.PLP.Fitness>
48.4053

> <Gold.PLP.PLP>
-47.4681

> <Gold.PLP.part.hbond>
-2.2486

> <Gold.PLP.part.metal>
0.0000

> <Gold.PLP.part.buried>
-6.7400

> <Gold.PLP.part.nonpolar>
-38.2207

> <Gold.PLP.part.repulsive>
0.1039

> <Gold.PLP.ligand.clash>
0.9340

> <Gold.PLP.ligand.torsion>
0.5874

> <Gold.PLP.Chemscore.Hbond>
1.0000

> <Gold.PLP.Chemscore.CHOScore>
0.0000

> <Gold.PLP.Chemscore.Metal>
0.0000

> <Gold.Chemscore.Hbonds>
donor molecule, donor type, donor heavy atom, donor atom, acceptor molecule, acceptor atom, score
      L1  H    21    37       P1  7957  1.00

> <Gold.PLP.Chemscore.Internal.Correction>
0.0459

> <Gold.Rescore>
     Score         DG    S(hbond)    S(metal)    S(lipo)     H(rot)  DE(clash)    DE(int)     intcor
      9.77     -12.97       0.84        0.00      94.25       2.48       0.26       2.94       ----

> <Gold.Chemscore.Fitness>
9.7735

> <Gold.Chemscore.DG>
-12.9746

> <Gold.Chemscore.ZeroCoef>
-5.4800

> <Gold.Chemscore.Hbond>
0.8437

> <Gold.Chemscore.Metal>
0.0000

> <Gold.Chemscore.Lipo>
94.2517

> <Gold.Chemscore.Internal_Hbond>
0.0000

> <Gold.Chemscore.DEClash>
0.2643

> <Gold.Chemscore.DEInternal>
2.9369

> <Gold.Chemscore.Rot>
2.4807

> <Gold.Chemscore.Internal.Correction>
   9.000000E+99

> <Gold.Chemscore.Hbonds>
donor molecule, donor type, donor heavy atom, donor atom, acceptor molecule, acceptor atom, score
      L1  H    21    37       P1  7957  0.76

> <Gold.Chemscore.Hbond.Weighted>
-2.8179

> <Gold.Chemscore.Metal.Weighted>
-0.0000

> <Gold.Chemscore.Lipo.Weighted>
-11.0274

> <Gold.Chemscore.Internal_Hbond.Weighted>
0.0000

> <Gold.Chemscore.DEClash.Weighted>
0.2643

> <Gold.Chemscore.DEInternal.Weighted>
2.9369

> <Gold.Chemscore.Rot.Weighted>
6.3507

> <Gold.Chemscore.Internal.Correction.Weighted>
   9.000000E+99

> <Gold.Protein.RotatedTorsions>
[ 6907 6896 6895 6894 ] final  129.15 input  -60.11 | X-H torsion
[ 7974 7965 7964 7962 ] final  -38.77 input  175.53 | X-H torsion
[ 8008 7997 7996 7995 ] final -105.33 input   59.86 | X-H torsion
[ 10167 10162 10161 10158 ] final  102.14 input  -65.29 | X-H torsion
[ 10718 10713 10712 10709 ] final  103.49 input   66.30 | X-H torsion
[ 10763 10752 10751 10750 ] final  171.14 input  -60.55 | X-H torsion
[ 11005 11000 10999 10996 ] final  -52.53 input  -57.11 | X-H torsion

> <Gold.Protein.ActiveResidues>
 VAL166  LYS551  ARG553  GLY616  TRP617  ASP618  TYR619  PRO620  LYS621  CYS622 
 ASP623  PHE694  ASN695  SER759  ASP760  ASP761  ALA762  ILE779  LEU786  VAL792 
 PHE793  MET794  SER795  GLU796  ALA797  LYS798  CYS799  TRP800  GLU811  SER814 

> <Gold.Protein.RotatedAtoms>
  152.3651  133.6347  159.6044 H   0  0  0  0  0  0  0  0  0  0  0  0  # atno 6907 bound_to 6896
  150.7628  133.9360  159.3450 H   0  0  0  0  0  0  0  0  0  0  0  0  # atno 6908 bound_to 6896
  151.7192  135.0898  160.0332 H   0  0  0  0  0  0  0  0  0  0  0  0  # atno 6909 bound_to 6896
  146.0457  140.6549  142.9066 H   0  0  0  0  0  0  0  0  0  0  0  0  # atno 7974 bound_to 7965
  154.8984  140.0413  157.1879 H   0  0  0  0  0  0  0  0  0  0  0  0  # atno 8008 bound_to 7997
  154.8469  140.2923  155.5602 H   0  0  0  0  0  0  0  0  0  0  0  0  # atno 8009 bound_to 7997
  156.2994  140.2472  156.3421 H   0  0  0  0  0  0  0  0  0  0  0  0  # atno 8010 bound_to 7997
  139.7376  144.7020  151.0626 H   0  0  0  0  0  0  0  0  0  0  0  0  # atno 10167 bound_to 10162
  157.6770  131.0780  150.5563 H   0  0  0  0  0  0  0  0  0  0  0  0  # atno 10718 bound_to 10713
  154.4077  135.2756  155.2056 H   0  0  0  0  0  0  0  0  0  0  0  0  # atno 10763 bound_to 10752
  154.4055  135.6034  153.5926 H   0  0  0  0  0  0  0  0  0  0  0  0  # atno 10764 bound_to 10752
  152.9831  135.5937  154.4354 H   0  0  0  0  0  0  0  0  0  0  0  0  # atno 10765 bound_to 10752
  141.0929  133.6629  156.4038 H   0  0  0  0  0  0  0  0  0  0  0  0  # atno 11005 bound_to 11000
  144.7096  140.3989  143.7090 LP  0  0  0  0  0  0  0  0  0  0  0  0  # atno 17320 bound_to 7965
  145.6810  139.1618  143.2701 LP  0  0  0  0  0  0  0  0  0  0  0  0  # atno 17321 bound_to 7965
  140.7781  143.4965  150.9826 LP  0  0  0  0  0  0  0  0  0  0  0  0  # atno 17342 bound_to 10162
  139.8653  143.7261  152.3170 LP  0  0  0  0  0  0  0  0  0  0  0  0  # atno 17343 bound_to 10162
  156.5867  130.4318  149.5954 LP  0  0  0  0  0  0  0  0  0  0  0  0  # atno 17370 bound_to 10713
  156.2617  130.6966  151.1736 LP  0  0  0  0  0  0  0  0  0  0  0  0  # atno 17371 bound_to 10713
  140.5209  134.6305  157.5317 LP  0  0  0  0  0  0  0  0  0  0  0  0  # atno 17394 bound_to 11000
  139.9759  134.7216  155.9951 LP  0  0  0  0  0  0  0  0  0  0  0  0  # atno 17395 bound_to 11000

$$$$
