AV-unprocessed.smi:263|AV-procd|sdf|2004|dock5
  -GOLD-   2262021203D 1   1.00000     0.00000
 Structure written by MMmdl.
 57 61  0  0  0  0  0  0  0  0  1 V2000
  143.8745  134.8581  150.0325 O   0  0  0  0  0  0  0  0  0  0  0  0
  144.0647  134.2101  151.2781 C   0  0  0  0  0  0  0  0  0  0  0  0
  143.5505  135.1566  152.3915 C   0  0  0  0  0  0  0  0  0  0  0  0
  144.5425  136.1083  152.8672 N   0  0  0  0  0  0  0  0  0  0  0  0
  144.6712  137.4240  152.4829 C   0  0  0  0  0  0  0  0  0  0  0  0
  145.6446  138.0781  153.0550 N   0  0  0  0  0  0  0  0  0  0  0  0
  146.2429  137.1385  153.8865 C   0  0  0  0  0  0  0  0  0  0  0  0
  147.3452  137.1709  154.7865 C   0  0  0  0  0  0  0  0  0  0  0  0
  148.1008  138.2817  154.9788 N   0  0  0  0  0  0  0  0  0  0  0  0
  147.3860  139.5417  154.7874 C   0  0  0  0  0  0  0  0  0  0  0  0
  148.1555  140.7132  155.4214 C   0  0  0  0  0  0  0  0  0  0  0  0
  149.6229  140.7803  154.9350 C   0  0  1  0  0  0  0  0  0  0  0  0
  149.5990  141.1237  153.5609 O   0  0  0  0  0  0  0  0  0  0  0  0
  150.4295  141.8981  155.6371 C   0  0  0  0  0  0  0  0  0  0  0  0
  150.7714  141.5644  157.0984 C   0  0  0  0  0  0  0  0  0  0  0  0
  151.5021  140.2189  157.1979 C   0  0  0  0  0  0  0  0  0  0  0  0
  150.6743  139.0929  156.5624 C   0  0  0  0  0  0  0  0  0  0  0  0
  150.3209  139.3997  155.0899 C   0  0  1  0  0  0  0  0  0  0  0  0
  149.4743  138.2661  154.4718 C   0  0  0  0  0  0  0  0  0  0  0  0
  147.6335  136.0267  155.4631 N   0  0  0  0  0  0  0  0  0  0  0  0
  146.9060  134.9233  155.2653 C   0  0  0  0  0  0  0  0  0  0  0  0
  145.8624  134.7464  154.4529 N   0  0  0  0  0  0  0  0  0  0  0  0
  145.5592  135.8941  153.7814 C   0  0  0  0  0  0  0  0  0  0  0  0
  143.2536  132.8987  151.2751 C   0  0  0  0  0  0  0  0  0  0  0  0
  143.8347  131.8584  150.3012 C   0  0  0  0  0  0  0  0  0  0  0  0
  145.2023  131.6182  150.6086 O   0  0  0  0  0  0  0  0  0  0  0  0
  146.0115  132.7763  150.4446 C   0  0  0  0  0  0  0  0  0  0  0  0
  145.5657  133.8774  151.4236 C   0  0  0  0  0  0  0  0  0  0  0  0
  143.0283  134.6124  149.6909 H   0  0  0  0  0  0  0  0  0  0  0  0
  142.6788  135.7136  152.0453 H   0  0  0  0  0  0  0  0  0  0  0  0
  143.2131  134.5720  153.2484 H   0  0  0  0  0  0  0  0  0  0  0  0
  144.0115  137.8886  151.7644 H   0  0  0  0  0  0  0  0  0  0  0  0
  147.2605  139.7121  153.7173 H   0  0  0  0  0  0  0  0  0  0  0  0
  146.3834  139.5015  155.2117 H   0  0  0  0  0  0  0  0  0  0  0  0
  147.6403  141.6507  155.2079 H   0  0  0  0  0  0  0  0  0  0  0  0
  148.1239  140.5951  156.5040 H   0  0  0  0  0  0  0  0  0  0  0  0
  149.7040  140.3340  153.0526 H   0  0  0  0  0  0  0  0  0  0  0  0
  151.3651  142.0616  155.0998 H   0  0  0  0  0  0  0  0  0  0  0  0
  149.8872  142.8433  155.5905 H   0  0  0  0  0  0  0  0  0  0  0  0
  151.3939  142.3540  157.5199 H   0  0  0  0  0  0  0  0  0  0  0  0
  149.8640  141.5381  157.7018 H   0  0  0  0  0  0  0  0  0  0  0  0
  152.4694  140.2892  156.6986 H   0  0  0  0  0  0  0  0  0  0  0  0
  151.7083  139.9844  158.2425 H   0  0  0  0  0  0  0  0  0  0  0  0
  151.2310  138.1571  156.6209 H   0  0  0  0  0  0  0  0  0  0  0  0
  149.7660  138.9401  157.1464 H   0  0  0  0  0  0  0  0  0  0  0  0
  151.2665  139.4340  154.5461 H   0  0  0  0  0  0  0  0  0  0  0  0
  149.9435  137.3039  154.6819 H   0  0  0  0  0  0  0  0  0  0  0  0
  149.4484  138.3741  153.3865 H   0  0  0  0  0  0  0  0  0  0  0  0
  147.2050  134.0578  155.8378 H   0  0  0  0  0  0  0  0  0  0  0  0
  143.2604  132.4695  152.2780 H   0  0  0  0  0  0  0  0  0  0  0  0
  142.2081  133.0946  151.0338 H   0  0  0  0  0  0  0  0  0  0  0  0
  143.2867  130.9201  150.3890 H   0  0  0  0  0  0  0  0  0  0  0  0
  143.7329  132.1868  149.2657 H   0  0  0  0  0  0  0  0  0  0  0  0
  147.0504  132.5079  150.6359 H   0  0  0  0  0  0  0  0  0  0  0  0
  145.9622  133.1241  149.4118 H   0  0  0  0  0  0  0  0  0  0  0  0
  146.1782  134.7673  151.2732 H   0  0  0  0  0  0  0  0  0  0  0  0
  145.7618  133.5380  152.4412 H   0  0  0  0  0  0  0  0  0  0  0  0
  1  2  1  0  0  0  0
  1 29  1  0  0  0  0
  2 28  1  0  0  0  0
  2  3  1  0  0  0  0
  2 24  1  0  0  0  0
  3  4  1  0  0  0  0
  3 30  1  0  0  0  0
  3 31  1  0  0  0  0
  4 23  1  0  0  0  0
  4  5  1  0  0  0  0
  5  6  2  0  0  0  0
  5 32  1  0  0  0  0
  6  7  1  0  0  0  0
  7 23  2  0  0  0  0
  7  8  1  0  0  0  0
  8  9  1  0  0  0  0
  8 20  2  0  0  0  0
  9 19  1  0  0  0  0
  9 10  1  0  0  0  0
 10 11  1  0  0  0  0
 10 33  1  0  0  0  0
 10 34  1  0  0  0  0
 11 12  1  0  0  0  0
 11 35  1  0  0  0  0
 11 36  1  0  0  0  0
 12 18  1  0  0  0  0
 12 13  1  0  0  0  0
 12 14  1  0  0  0  0
 13 37  1  0  0  0  0
 14 15  1  0  0  0  0
 14 38  1  0  0  0  0
 14 39  1  0  0  0  0
 15 16  1  0  0  0  0
 15 40  1  0  0  0  0
 15 41  1  0  0  0  0
 16 17  1  0  0  0  0
 16 42  1  0  0  0  0
 16 43  1  0  0  0  0
 17 18  1  0  0  0  0
 17 44  1  0  0  0  0
 17 45  1  0  0  0  0
 18 19  1  0  0  0  0
 18 46  1  0  0  0  0
 19 47  1  0  0  0  0
 19 48  1  0  0  0  0
 20 21  1  0  0  0  0
 21 22  2  0  0  0  0
 21 49  1  0  0  0  0
 22 23  1  0  0  0  0
 24 25  1  0  0  0  0
 24 50  1  0  0  0  0
 24 51  1  0  0  0  0
 25 26  1  0  0  0  0
 25 52  1  0  0  0  0
 25 53  1  0  0  0  0
 26 27  1  0  0  0  0
 27 28  1  0  0  0  0
 27 54  1  0  0  0  0
 27 55  1  0  0  0  0
 28 56  1  0  0  0  0
 28 57  1  0  0  0  0
M  END
> <s_m_source_file>
AV-unprocessed.smi

> <i_m_source_file_index>
263

> <i_lp_mmshare_version>
43012

> <i_f3d_flags>
0

> <s_epik_input>
W0NIMl0xW0NIMl1PW0NIMl1bQ0gyXUMxKFtPSF0pW0NIMl1uKFtjSF1uMiljKGMyMyluW2NIXW5jM04oW0NIMl1bQ0gyXTQpW0NIMl1bQ0BASF0oW0NAXTQ1W09IXSlbQ0gyXVtDSDJdW0NIMl1bQ0gyXTU=

> <s_epik_cmdline>
J2VwaWtfcHl0aG9uJywgJy1waCcsICc3LjAnLCAnLXRuJywgJzgnLCAnLW1hJywgJzIwMCcsICctbWV0YWxfYmluZGluZycsICctaW1hZScsICc8aW5maWxlLm1hZT4nLCAnLW9tYWUnLCAnPG91dGZpbGUubWFlPic=

> <r_lp_tautomer_probability>
1

> <r_epik_Ionization_Penalty>
0.00747493

> <r_epik_Ionization_Penalty_Charging>
0

> <r_epik_Ionization_Penalty_Neutral>
0.00747493

> <r_epik_State_Penalty>
0.00549307

> <r_epik_Charging_Adjusted_Penalty>
0.00549307

> <i_epik_Tot_Q>
0

> <i_epik_Tot_abs_Q>
0

> <r_epik_Metal_State_Penalty>
-0

> <b_epik_Metal_Only>
0

> <s_lp_Force_Field>
OPLS_2005

> <r_lp_Energy>
40.0531

> <b_lp_Chiralities_Consistent>
1

> <s_lp_Variant>
AV-unprocessed.smi:263-2

> <Gold.Version>
5.8.1

> <Gold.Id.Protein>
6NUR|6NUR_protein|mol2

> <Gold.PLP.Fitness>
46.4272

> <Gold.PLP.PLP>
-36.2774

> <Gold.PLP.part.hbond>
-4.0000

> <Gold.PLP.part.metal>
0.0000

> <Gold.PLP.part.buried>
-3.5863

> <Gold.PLP.part.nonpolar>
-29.3257

> <Gold.PLP.part.repulsive>
0.5397

> <Gold.PLP.ligand.clash>
0.0000

> <Gold.PLP.ligand.torsion>
1.2215

> <Gold.PLP.Chemscore.Hbond>
2.6960

> <Gold.PLP.Chemscore.CHOScore>
1.3774

> <Gold.PLP.Chemscore.Metal>
0.0000

> <Gold.Chemscore.Hbonds>
donor molecule, donor type, donor heavy atom, donor atom, acceptor molecule, acceptor atom, score
      L1  H     1    29       P1 10186  1.00
      L1  H    13    37       P1  7957  0.61
      P1  H  8011  8017       L1    13  0.99
      L1  C     5    32       P1 10171  1.00
      L1  C     5    32       P1 10175  0.40

> <Gold.PLP.Chemscore.Internal.Correction>
0.3726

> <Gold.Rescore>
     Score         DG    S(hbond)    S(metal)    S(lipo)     H(rot)  DE(clash)    DE(int)     intcor
     14.21     -18.14       2.33        0.00      98.94       2.62       1.49       2.43       ----

> <Gold.Chemscore.Fitness>
14.2131

> <Gold.Chemscore.DG>
-18.1374

> <Gold.Chemscore.ZeroCoef>
-5.4800

> <Gold.Chemscore.Hbond>
2.3344

> <Gold.Chemscore.Metal>
0.0000

> <Gold.Chemscore.Lipo>
98.9399

> <Gold.Chemscore.Internal_Hbond>
0.0000

> <Gold.Chemscore.DEClash>
1.4947

> <Gold.Chemscore.DEInternal>
2.4295

> <Gold.Chemscore.Rot>
2.6232

> <Gold.Chemscore.Internal.Correction>
   9.000000E+99

> <Gold.Chemscore.Hbonds>
donor molecule, donor type, donor heavy atom, donor atom, acceptor molecule, acceptor atom, score
      L1  H     1    29       P1 10186  0.86
      L1  H    13    37       P1  7957  0.62
      P1  H  8011  8017       L1    13  0.37

> <Gold.Chemscore.Hbond.Weighted>
-7.7969

> <Gold.Chemscore.Metal.Weighted>
-0.0000

> <Gold.Chemscore.Lipo.Weighted>
-11.5760

> <Gold.Chemscore.Internal_Hbond.Weighted>
0.0000

> <Gold.Chemscore.DEClash.Weighted>
1.4947

> <Gold.Chemscore.DEInternal.Weighted>
2.4295

> <Gold.Chemscore.Rot.Weighted>
6.7155

> <Gold.Chemscore.Internal.Correction.Weighted>
   9.000000E+99

> <Gold.Protein.RotatedTorsions>
[ 6907 6896 6895 6894 ] final   13.59 input  -60.11 | X-H torsion
[ 7974 7965 7964 7962 ] final -165.28 input  175.53 | X-H torsion
[ 8008 7997 7996 7995 ] final   23.06 input   59.86 | X-H torsion
[ 10167 10162 10161 10158 ] final  -88.78 input  -65.29 | X-H torsion
[ 10718 10713 10712 10709 ] final -140.82 input   66.30 | X-H torsion
[ 10763 10752 10751 10750 ] final   24.38 input  -60.55 | X-H torsion
[ 11005 11000 10999 10996 ] final   21.75 input  -57.11 | X-H torsion

> <Gold.Protein.ActiveResidues>
 VAL166  LYS551  ARG553  GLY616  TRP617  ASP618  TYR619  PRO620  LYS621  CYS622 
 ASP623  PHE694  ASN695  SER759  ASP760  ASP761  ALA762  ILE779  LEU786  VAL792 
 PHE793  MET794  SER795  GLU796  ALA797  LYS798  CYS799  TRP800  GLU811  SER814 

> <Gold.Protein.RotatedAtoms>
  151.7888  135.0741  160.0383 H   0  0  0  0  0  0  0  0  0  0  0  0  # atno 6907 bound_to 6896
  152.3171  133.5810  159.5728 H   0  0  0  0  0  0  0  0  0  0  0  0  # atno 6908 bound_to 6896
  150.7350  133.9982  159.3671 H   0  0  0  0  0  0  0  0  0  0  0  0  # atno 6909 bound_to 6896
  144.7274  140.2837  143.6231 H   0  0  0  0  0  0  0  0  0  0  0  0  # atno 7974 bound_to 7965
  154.9752  140.3095  155.4970 H   0  0  0  0  0  0  0  0  0  0  0  0  # atno 8008 bound_to 7997
  156.2961  140.2276  156.4786 H   0  0  0  0  0  0  0  0  0  0  0  0  # atno 8009 bound_to 7997
  154.7840  140.0444  157.1138 H   0  0  0  0  0  0  0  0  0  0  0  0  # atno 8010 bound_to 7997
  140.3713  143.2793  151.9496 H   0  0  0  0  0  0  0  0  0  0  0  0  # atno 10167 bound_to 10162
  156.3268  130.7564  151.1673 H   0  0  0  0  0  0  0  0  0  0  0  0  # atno 10718 bound_to 10713
  153.0768  135.6606  154.0129 H   0  0  0  0  0  0  0  0  0  0  0  0  # atno 10763 bound_to 10752
  153.9761  135.2960  155.3425 H   0  0  0  0  0  0  0  0  0  0  0  0  # atno 10764 bound_to 10752
  154.7158  135.5186  153.8806 H   0  0  0  0  0  0  0  0  0  0  0  0  # atno 10765 bound_to 10752
  140.3881  134.1848  155.7663 H   0  0  0  0  0  0  0  0  0  0  0  0  # atno 11005 bound_to 11000
  145.7924  139.1932  143.2095 LP  0  0  0  0  0  0  0  0  0  0  0  0  # atno 17320 bound_to 7965
  146.0745  140.7832  142.9672 LP  0  0  0  0  0  0  0  0  0  0  0  0  # atno 17321 bound_to 7965
  139.4803  144.5904  151.7782 LP  0  0  0  0  0  0  0  0  0  0  0  0  # atno 17342 bound_to 10162
  140.5030  144.1140  150.5975 LP  0  0  0  0  0  0  0  0  0  0  0  0  # atno 17343 bound_to 10162
  157.7423  131.0492  150.5037 LP  0  0  0  0  0  0  0  0  0  0  0  0  # atno 17370 bound_to 10713
  156.5197  130.4159  149.6257 LP  0  0  0  0  0  0  0  0  0  0  0  0  # atno 17371 bound_to 10713
  141.1900  133.8226  157.0934 LP  0  0  0  0  0  0  0  0  0  0  0  0  # atno 17394 bound_to 11000
  140.0427  134.9846  157.0992 LP  0  0  0  0  0  0  0  0  0  0  0  0  # atno 17395 bound_to 11000

$$$$
