AV-unprocessed.smi:2866|AV-procd|sdf|11021|dock2
  -GOLD-   2272015483D 1   1.00000     0.00000
 Structure written by MMmdl.
 42 44  0  0  0  0  0  0  0  0  2 V2000
  152.1194  145.2604  160.4445 C   0  0  0  0  0  0  0  0  0  0  0  0
  151.8631  143.9895  159.6525 C   0  0  0  0  0  0  0  0  0  0  0  0
  151.1981  144.0927  158.4097 C   0  0  0  0  0  0  0  0  0  0  0  0
  150.9785  142.9131  157.7083 C   0  0  0  0  0  0  0  0  0  0  0  0
  150.3641  142.6812  156.4755 N   0  3  0  0  0  0  0  0  0  0  0  0
  150.3860  141.3474  156.2009 C   0  0  0  0  0  0  0  0  0  0  0  0
  151.0043  140.7252  157.2410 N   0  0  0  0  0  0  0  0  0  0  0  0
  151.2925  139.3006  157.4521 C   0  0  0  0  0  0  0  0  0  0  0  0
  150.0506  138.4938  157.8772 C   0  0  2  0  0  0  0  0  0  0  0  0
  149.0129  139.3846  158.2433 O   0  0  0  0  0  0  0  0  0  0  0  0
  150.3610  137.5380  159.0448 C   0  0  0  0  0  0  0  0  0  0  0  0
  149.1900  136.8038  159.4903 N   0  0  0  0  0  0  0  0  0  0  0  0
  148.3641  135.9831  158.7536 C   0  0  0  0  0  0  0  0  0  0  0  0
  147.3964  135.5193  159.5972 C   0  0  0  0  0  0  0  0  0  0  0  0
  147.7141  136.1163  160.8517 C   0  0  0  0  0  0  0  0  0  0  0  0
  146.9943  135.9686  162.1662 C   0  0  0  0  0  0  0  0  0  0  0  0
  145.7529  136.4445  162.0701 F   0  0  0  0  0  0  0  0  0  0  0  0
  146.9353  134.6822  162.5102 F   0  0  0  0  0  0  0  0  0  0  0  0
  147.6407  136.6441  163.1165 F   0  0  0  0  0  0  0  0  0  0  0  0
  148.7916  136.8862  160.7775 N   0  0  0  0  0  0  0  0  0  0  0  0
  151.3931  141.6618  158.2037 C   0  0  0  0  0  0  0  0  0  0  0  0
  152.0506  141.5417  159.4252 C   0  0  0  0  0  0  0  0  0  0  0  0
  152.2856  142.7304  160.1528 C   0  0  0  0  0  0  0  0  0  0  0  0
  153.0043  142.6324  161.4877 C   0  0  0  0  0  0  0  0  0  0  0  0
  151.6861  146.1316  159.9525 H   0  0  0  0  0  0  0  0  0  0  0  0
  153.1905  145.4349  160.5496 H   0  0  0  0  0  0  0  0  0  0  0  0
  151.6798  145.1894  161.4396 H   0  0  0  0  0  0  0  0  0  0  0  0
  150.8755  145.0479  158.0218 H   0  0  0  0  0  0  0  0  0  0  0  0
  149.9892  140.8695  155.3167 H   0  0  0  0  0  0  0  0  0  0  0  0
  151.7281  138.8971  156.5370 H   0  0  0  0  0  0  0  0  0  0  0  0
  152.0664  139.2341  158.2182 H   0  0  0  0  0  0  0  0  0  0  0  0
  149.6968  137.9076  157.0283 H   0  0  0  0  0  0  0  0  0  0  0  0
  148.9548  140.0626  157.5866 H   0  0  0  0  0  0  0  0  0  0  0  0
  151.1159  136.8117  158.7411 H   0  0  0  0  0  0  0  0  0  0  0  0
  150.7806  138.0862  159.8901 H   0  0  0  0  0  0  0  0  0  0  0  0
  148.5319  135.7994  157.7025 H   0  0  0  0  0  0  0  0  0  0  0  0
  146.5829  134.8515  159.3555 H   0  0  0  0  0  0  0  0  0  0  0  0
  152.3710  140.5828  159.8048 H   0  0  0  0  0  0  0  0  0  0  0  0
  153.2921  141.6048  161.7118 H   0  0  0  0  0  0  0  0  0  0  0  0
  152.3606  142.9818  162.2953 H   0  0  0  0  0  0  0  0  0  0  0  0
  153.9116  143.2370  161.4802 H   0  0  0  0  0  0  0  0  0  0  0  0
  149.9609  143.3792  155.8635 H   0  0  0  0  0  0  0  0  0  0  0  0
  1  2  1  0  0  0  0
  1 25  1  0  0  0  0
  1 26  1  0  0  0  0
  1 27  1  0  0  0  0
  2 23  1  0  0  0  0
  2  3  2  0  0  0  0
  3  4  1  0  0  0  0
  3 28  1  0  0  0  0
  4 21  2  0  0  0  0
  4  5  1  0  0  0  0
  5  6  2  0  0  0  0
  5 42  1  0  0  0  0
  6  7  1  0  0  0  0
  6 29  1  0  0  0  0
  7  8  1  0  0  0  0
  7 21  1  0  0  0  0
  8  9  1  0  0  0  0
  8 30  1  0  0  0  0
  8 31  1  0  0  0  0
  9 10  1  0  0  0  0
  9 11  1  0  0  0  0
  9 32  1  0  0  0  0
 10 33  1  0  0  0  0
 11 12  1  0  0  0  0
 11 34  1  0  0  0  0
 11 35  1  0  0  0  0
 12 20  1  0  0  0  0
 12 13  1  0  0  0  0
 13 14  2  0  0  0  0
 13 36  1  0  0  0  0
 14 15  1  0  0  0  0
 14 37  1  0  0  0  0
 15 16  1  0  0  0  0
 15 20  2  0  0  0  0
 16 17  1  0  0  0  0
 16 18  1  0  0  0  0
 16 19  1  0  0  0  0
 21 22  1  0  0  0  0
 22 23  2  0  0  0  0
 22 38  1  0  0  0  0
 23 24  1  0  0  0  0
 24 39  1  0  0  0  0
 24 40  1  0  0  0  0
 24 41  1  0  0  0  0
M  CHG  1   5   1
M  END
> <s_m_source_file>
AV-unprocessed.smi

> <i_m_source_file_index>
2866

> <i_lp_mmshare_version>
43012

> <i_f3d_flags>
0

> <s_epik_input>
W0NIM11jKFtjSF0xKWMoW0NIM10pW2NIXWMoYzEyKW4oW2NIXW4yKVtDSDJdW0NASF0oW09IXSlbQ0gyXW4zW2NIXVtjSF1jKG4zKUMoRikoRilG

> <s_epik_cmdline>
J2VwaWtfcHl0aG9uJywgJy1waCcsICc3LjAnLCAnLXRuJywgJzgnLCAnLW1hJywgJzIwMCcsICctbWV0YWxfYmluZGluZycsICctaW1hZScsICc8aW5maWxlLm1hZT4nLCAnLW9tYWUnLCAnPG91dGZpbGUubWFlPic=

> <r_lp_tautomer_probability>
1

> <r_epik_Ionization_Penalty>
1.09214

> <r_epik_Ionization_Penalty_Charging>
1.09214

> <r_epik_Ionization_Penalty_Neutral>
2.80082e-06

> <r_epik_State_Penalty>
1.14852

> <r_epik_Charging_Adjusted_Penalty>
2.24066

> <i_epik_Tot_Q>
1

> <i_epik_Tot_abs_Q>
1

> <r_epik_Metal_State_Penalty>
1.23687

> <b_epik_Metal_Only>
0

> <s_lp_Force_Field>
OPLS_2005

> <r_lp_Energy>
15.9965

> <b_lp_Chiralities_Consistent>
1

> <s_lp_Variant>
AV-unprocessed.smi:2866-3

> <Gold.Version>
5.8.1

> <Gold.Id.Protein>
6NUR|6NUR_protein|mol2

> <Gold.PLP.Fitness>
64.1642

> <Gold.PLP.PLP>
-57.2311

> <Gold.PLP.part.hbond>
-2.5035

> <Gold.PLP.part.metal>
0.0000

> <Gold.PLP.part.buried>
-8.4146

> <Gold.PLP.part.nonpolar>
-47.1681

> <Gold.PLP.part.repulsive>
0.0745

> <Gold.PLP.ligand.clash>
0.0000

> <Gold.PLP.ligand.torsion>
0.9009

> <Gold.PLP.Chemscore.Hbond>
2.8960

> <Gold.PLP.Chemscore.CHOScore>
0.0000

> <Gold.PLP.Chemscore.Metal>
0.0000

> <Gold.Chemscore.Hbonds>
donor molecule, donor type, donor heavy atom, donor atom, acceptor molecule, acceptor atom, score
      L1  H     5    42       P1  8028  1.95
      P1  H  6931  6943       L1    20  0.91

> <Gold.PLP.Chemscore.Internal.Correction>
0.0470

> <Gold.Rescore>
     Score         DG    S(hbond)    S(metal)    S(lipo)     H(rot)  DE(clash)    DE(int)     intcor
     16.37     -18.67       1.94        0.00     111.59       2.48       0.07       2.23       ----

> <Gold.Chemscore.Fitness>
16.3684

> <Gold.Chemscore.DG>
-18.6671

> <Gold.Chemscore.ZeroCoef>
-5.4800

> <Gold.Chemscore.Hbond>
1.9419

> <Gold.Chemscore.Metal>
0.0000

> <Gold.Chemscore.Lipo>
111.5923

> <Gold.Chemscore.Internal_Hbond>
0.0000

> <Gold.Chemscore.DEClash>
0.0654

> <Gold.Chemscore.DEInternal>
2.2334

> <Gold.Chemscore.Rot>
2.4825

> <Gold.Chemscore.Internal.Correction>
   9.000000E+99

> <Gold.Chemscore.Hbonds>
donor molecule, donor type, donor heavy atom, donor atom, acceptor molecule, acceptor atom, score
      L1  H     5    42       P1  8028  0.93
      P1  H  6931  6943       L1    20  0.87

> <Gold.Chemscore.Hbond.Weighted>
-6.4859

> <Gold.Chemscore.Metal.Weighted>
-0.0000

> <Gold.Chemscore.Lipo.Weighted>
-13.0563

> <Gold.Chemscore.Internal_Hbond.Weighted>
0.0000

> <Gold.Chemscore.DEClash.Weighted>
0.0654

> <Gold.Chemscore.DEInternal.Weighted>
2.2334

> <Gold.Chemscore.Rot.Weighted>
6.3551

> <Gold.Chemscore.Internal.Correction.Weighted>
   9.000000E+99

> <Gold.Protein.RotatedTorsions>
[ 6907 6896 6895 6894 ] final    3.21 input  -60.11 | X-H torsion
[ 7974 7965 7964 7962 ] final -130.97 input  175.53 | X-H torsion
[ 8008 7997 7996 7995 ] final   69.86 input   59.86 | X-H torsion
[ 10167 10162 10161 10158 ] final  -74.75 input  -65.29 | X-H torsion
[ 10718 10713 10712 10709 ] final  -21.55 input   66.30 | X-H torsion
[ 10763 10752 10751 10750 ] final  -47.41 input  -60.55 | X-H torsion
[ 11005 11000 10999 10996 ] final   26.94 input  -57.11 | X-H torsion

> <Gold.Protein.ActiveResidues>
 VAL166  LYS551  ARG553  GLY616  TRP617  ASP618  TYR619  PRO620  LYS621  CYS622 
 ASP623  PHE694  ASN695  SER759  ASP760  ASP761  ALA762  ILE779  LEU786  VAL792 
 PHE793  MET794  SER795  GLU796  ALA797  LYS798  CYS799  TRP800  GLU811  SER814 

> <Gold.Protein.RotatedAtoms>
  151.6214  135.1031  160.0102 H   0  0  0  0  0  0  0  0  0  0  0  0  # atno 6907 bound_to 6896
  152.4156  133.7028  159.6444 H   0  0  0  0  0  0  0  0  0  0  0  0  # atno 6908 bound_to 6896
  150.8044  133.8464  159.3234 H   0  0  0  0  0  0  0  0  0  0  0  0  # atno 6909 bound_to 6896
  144.9423  140.7253  143.4839 H   0  0  0  0  0  0  0  0  0  0  0  0  # atno 7974 bound_to 7965
  155.7300  140.3492  155.5055 H   0  0  0  0  0  0  0  0  0  0  0  0  # atno 8008 bound_to 7997
  155.9191  140.1064  157.1242 H   0  0  0  0  0  0  0  0  0  0  0  0  # atno 8009 bound_to 7997
  154.4067  140.1253  156.4643 H   0  0  0  0  0  0  0  0  0  0  0  0  # atno 8010 bound_to 7997
  140.5001  143.2363  151.7766 H   0  0  0  0  0  0  0  0  0  0  0  0  # atno 10167 bound_to 10162
  156.5167  130.4622  149.6619 H   0  0  0  0  0  0  0  0  0  0  0  0  # atno 10718 bound_to 10713
  154.0609  135.6618  153.4811 H   0  0  0  0  0  0  0  0  0  0  0  0  # atno 10763 bound_to 10752
  153.0427  135.5134  154.7660 H   0  0  0  0  0  0  0  0  0  0  0  0  # atno 10764 bound_to 10752
  154.6696  135.3027  154.9727 H   0  0  0  0  0  0  0  0  0  0  0  0  # atno 10765 bound_to 10752
  140.3316  134.2432  155.7701 H   0  0  0  0  0  0  0  0  0  0  0  0  # atno 11005 bound_to 11000
  145.2971  139.1863  143.4709 LP  0  0  0  0  0  0  0  0  0  0  0  0  # atno 17320 bound_to 7965
  146.3290  140.2957  142.8618 LP  0  0  0  0  0  0  0  0  0  0  0  0  # atno 17321 bound_to 7965
  139.4870  144.4534  151.9627 LP  0  0  0  0  0  0  0  0  0  0  0  0  # atno 17342 bound_to 10162
  140.3622  144.2958  150.5932 LP  0  0  0  0  0  0  0  0  0  0  0  0  # atno 17343 bound_to 10162
  156.3189  130.7269  151.2177 LP  0  0  0  0  0  0  0  0  0  0  0  0  # atno 17370 bound_to 10713
  157.7443  131.0461  150.4877 LP  0  0  0  0  0  0  0  0  0  0  0  0  # atno 17371 bound_to 10713
  141.2062  133.7840  157.0191 LP  0  0  0  0  0  0  0  0  0  0  0  0  # atno 17394 bound_to 11000
  140.0856  134.9623  157.1695 LP  0  0  0  0  0  0  0  0  0  0  0  0  # atno 17395 bound_to 11000

$$$$
