AV-unprocessed.smi:1820|AV-procd|sdf|7384|dock9
  -GOLD-   22720 9 53D 1   1.00000     0.00000
 Structure written by MMmdl.
 34 35  0  0  0  0  0  0  0  0  1 V2000
  144.4788  136.5563  152.4329 O   0  0  0  0  0  0  0  0  0  0  0  0
  145.6903  136.4024  152.2804 C   0  0  0  0  0  0  0  0  0  0  0  0
  146.6090  137.2615  152.7434 N   0  0  0  0  0  0  0  0  0  0  0  0
  146.3215  138.4697  153.5120 C   0  0  0  0  0  0  0  0  0  0  0  0
  147.1042  139.7109  153.0102 C   0  0  0  0  0  0  0  0  0  0  0  0
  146.8442  139.8726  151.6293 O   0  0  0  0  0  0  0  0  0  0  0  0
  146.8261  141.0076  153.7875 C   0  0  0  0  0  0  0  0  0  0  0  0
  147.7193  140.9198  155.0291 C   0  0  0  0  0  0  0  0  0  0  0  0
  148.9042  140.0238  154.6353 C   0  0  0  0  0  0  0  0  0  0  0  0
  148.6160  139.5299  153.2105 C   0  0  0  0  0  0  0  0  0  0  0  0
  146.2712  135.3815  151.6260 N   0  0  0  0  0  0  0  0  0  0  0  0
  145.6619  134.2652  150.9903 C   0  0  0  0  0  0  0  0  0  0  0  0
  146.5037  133.2188  150.5594 C   0  0  0  0  0  0  0  0  0  0  0  0
  145.9263  132.0936  149.9381 C   0  0  0  0  0  0  0  0  0  0  0  0
  144.5989  131.9567  149.7376 N   0  0  0  0  0  0  0  0  0  0  0  0
  143.7930  132.9524  150.1628 C   0  0  0  0  0  0  0  0  0  0  0  0
  144.2671  134.1189  150.7958 C   0  0  0  0  0  0  0  0  0  0  0  0
  147.5817  137.0574  152.5682 H   0  0  0  0  0  0  0  0  0  0  0  0
  145.2504  138.6452  153.4088 H   0  0  0  0  0  0  0  0  0  0  0  0
  146.4895  138.3096  154.5785 H   0  0  0  0  0  0  0  0  0  0  0  0
  147.6666  139.8609  151.1643 H   0  0  0  0  0  0  0  0  0  0  0  0
  147.1455  141.8649  153.1924 H   0  0  0  0  0  0  0  0  0  0  0  0
  145.7765  141.1693  154.0326 H   0  0  0  0  0  0  0  0  0  0  0  0
  148.0413  141.9063  155.3644 H   0  0  0  0  0  0  0  0  0  0  0  0
  147.1688  140.4597  155.8507 H   0  0  0  0  0  0  0  0  0  0  0  0
  149.8513  140.5623  154.6794 H   0  0  0  0  0  0  0  0  0  0  0  0
  148.9771  139.1809  155.3236 H   0  0  0  0  0  0  0  0  0  0  0  0
  148.9495  138.5045  153.0458 H   0  0  0  0  0  0  0  0  0  0  0  0
  149.1637  140.1614  152.5085 H   0  0  0  0  0  0  0  0  0  0  0  0
  147.2741  135.4367  151.5269 H   0  0  0  0  0  0  0  0  0  0  0  0
  147.5738  133.2743  150.6959 H   0  0  0  0  0  0  0  0  0  0  0  0
  146.5488  131.2809  149.5942 H   0  0  0  0  0  0  0  0  0  0  0  0
  142.7347  132.8130  149.9987 H   0  0  0  0  0  0  0  0  0  0  0  0
  143.5561  134.8611  151.1240 H   0  0  0  0  0  0  0  0  0  0  0  0
  1  2  2  0  0  0  0
  2  3  1  0  0  0  0
  2 11  1  0  0  0  0
  3  4  1  0  0  0  0
  3 18  1  0  0  0  0
  4  5  1  0  0  0  0
  4 19  1  0  0  0  0
  4 20  1  0  0  0  0
  5 10  1  0  0  0  0
  5  6  1  0  0  0  0
  5  7  1  0  0  0  0
  6 21  1  0  0  0  0
  7  8  1  0  0  0  0
  7 22  1  0  0  0  0
  7 23  1  0  0  0  0
  8  9  1  0  0  0  0
  8 24  1  0  0  0  0
  8 25  1  0  0  0  0
  9 10  1  0  0  0  0
  9 26  1  0  0  0  0
  9 27  1  0  0  0  0
 10 28  1  0  0  0  0
 10 29  1  0  0  0  0
 11 12  1  0  0  0  0
 11 30  1  0  0  0  0
 12 17  1  0  0  0  0
 12 13  2  0  0  0  0
 13 14  1  0  0  0  0
 13 31  1  0  0  0  0
 14 15  2  0  0  0  0
 14 32  1  0  0  0  0
 15 16  1  0  0  0  0
 16 17  2  0  0  0  0
 16 33  1  0  0  0  0
 17 34  1  0  0  0  0
M  END
> <s_m_source_file>
AV-unprocessed.smi

> <i_m_source_file_index>
1820

> <i_lp_mmshare_version>
43012

> <i_f3d_flags>
0

> <s_epik_input>
W2NIXTFbY0hdbltjSF1bY0hdYzFbTkhdQyg9TylbTkhdW0NIMl1DMihbT0hdKVtDSDJdW0NIMl1bQ0gyXVtDSDJdMg==

> <s_epik_cmdline>
J2VwaWtfcHl0aG9uJywgJy1waCcsICc3LjAnLCAnLXRuJywgJzgnLCAnLW1hJywgJzIwMCcsICctbWV0YWxfYmluZGluZycsICctaW1hZScsICc8aW5maWxlLm1hZT4nLCAnLW9tYWUnLCAnPG91dGZpbGUubWFlPic=

> <r_epik_Ionization_Penalty>
0.127626

> <r_epik_Ionization_Penalty_Charging>
0

> <r_epik_Ionization_Penalty_Neutral>
0.127626

> <r_epik_State_Penalty>
0.11702

> <r_epik_Charging_Adjusted_Penalty>
0.11702

> <i_epik_Tot_Q>
0

> <i_epik_Tot_abs_Q>
0

> <r_epik_Metal_State_Penalty>
0.0961027

> <b_epik_Metal_Only>
0

> <s_lp_Force_Field>
OPLS_2005

> <r_lp_Energy>
30.5055

> <b_lp_Chiralities_Consistent>
1

> <s_lp_Variant>
AV-unprocessed.smi:1820-1

> <Gold.Version>
5.8.1

> <Gold.Id.Protein>
6NUR|6NUR_protein|mol2

> <Gold.PLP.Fitness>
42.8927

> <Gold.PLP.PLP>
-28.3062

> <Gold.PLP.part.hbond>
-3.6698

> <Gold.PLP.part.metal>
0.0000

> <Gold.PLP.part.buried>
-0.2757

> <Gold.PLP.part.nonpolar>
-24.9424

> <Gold.PLP.part.repulsive>
0.4194

> <Gold.PLP.ligand.clash>
0.0000

> <Gold.PLP.ligand.torsion>
0.1154

> <Gold.PLP.Chemscore.Hbond>
3.0000

> <Gold.PLP.Chemscore.CHOScore>
1.9359

> <Gold.PLP.Chemscore.Metal>
0.0000

> <Gold.Chemscore.Hbonds>
donor molecule, donor type, donor heavy atom, donor atom, acceptor molecule, acceptor atom, score
      L1  H     3    18       P1  7948  1.00
      L1  H     6    21       P1  7957  1.00
      L1  H    11    30       P1  7948  1.00
      L1  C    14    32       P1 10747  0.93
      L1  C    16    33       P1 10186  1.00

> <Gold.PLP.Chemscore.Internal.Correction>
0.0096

> <Gold.Rescore>
     Score         DG    S(hbond)    S(metal)    S(lipo)     H(rot)  DE(clash)    DE(int)     intcor
     16.78     -19.68       2.94        0.00      75.89       1.76       1.58       1.32       ----

> <Gold.Chemscore.Fitness>
16.7803

> <Gold.Chemscore.DG>
-19.6768

> <Gold.Chemscore.ZeroCoef>
-5.4800

> <Gold.Chemscore.Hbond>
2.9382

> <Gold.Chemscore.Metal>
0.0000

> <Gold.Chemscore.Lipo>
75.8932

> <Gold.Chemscore.Internal_Hbond>
0.0000

> <Gold.Chemscore.DEClash>
1.5812

> <Gold.Chemscore.DEInternal>
1.3153

> <Gold.Chemscore.Rot>
1.7564

> <Gold.Chemscore.Internal.Correction>
   9.000000E+99

> <Gold.Chemscore.Hbonds>
donor molecule, donor type, donor heavy atom, donor atom, acceptor molecule, acceptor atom, score
      L1  H     3    18       P1  7948  0.99
      L1  H     6    21       P1  7957  0.93
      L1  H    11    30       P1  7948  0.94
      P1  H 10785 10796       L1    15  0.01

> <Gold.Chemscore.Hbond.Weighted>
-9.8136

> <Gold.Chemscore.Metal.Weighted>
-0.0000

> <Gold.Chemscore.Lipo.Weighted>
-8.8795

> <Gold.Chemscore.Internal_Hbond.Weighted>
0.0000

> <Gold.Chemscore.DEClash.Weighted>
1.5812

> <Gold.Chemscore.DEInternal.Weighted>
1.3153

> <Gold.Chemscore.Rot.Weighted>
4.4963

> <Gold.Chemscore.Internal.Correction.Weighted>
   9.000000E+99

> <Gold.Protein.RotatedTorsions>
[ 6907 6896 6895 6894 ] final   28.84 input  -60.11 | X-H torsion
[ 7974 7965 7964 7962 ] final -103.30 input  175.53 | X-H torsion
[ 8008 7997 7996 7995 ] final -161.38 input   59.86 | X-H torsion
[ 10167 10162 10161 10158 ] final  -39.83 input  -65.29 | X-H torsion
[ 10718 10713 10712 10709 ] final  137.33 input   66.30 | X-H torsion
[ 10763 10752 10751 10750 ] final   65.78 input  -60.55 | X-H torsion
[ 11005 11000 10999 10996 ] final  -59.68 input  -57.11 | X-H torsion

> <Gold.Protein.ActiveResidues>
 VAL166  LYS551  ARG553  GLY616  TRP617  ASP618  TYR619  PRO620  LYS621  CYS622 
 ASP623  PHE694  ASN695  SER759  ASP760  ASP761  ALA762  ILE779  LEU786  VAL792 
 PHE793  MET794  SER795  GLU796  ALA797  LYS798  CYS799  TRP800  GLU811  SER814 

> <Gold.Protein.RotatedAtoms>
  152.0228  134.9813  160.0570 H   0  0  0  0  0  0  0  0  0  0  0  0  # atno 6907 bound_to 6896
  152.1320  133.4409  159.4734 H   0  0  0  0  0  0  0  0  0  0  0  0  # atno 6908 bound_to 6896
  150.6857  134.2327  159.4484 H   0  0  0  0  0  0  0  0  0  0  0  0  # atno 6909 bound_to 6896
  145.2577  140.9259  143.3059 H   0  0  0  0  0  0  0  0  0  0  0  0  # atno 7974 bound_to 7965
  155.7914  140.0879  157.2007 H   0  0  0  0  0  0  0  0  0  0  0  0  # atno 8008 bound_to 7997
  154.3985  140.1489  156.3225 H   0  0  0  0  0  0  0  0  0  0  0  0  # atno 8009 bound_to 7997
  155.8555  140.3432  155.5724 H   0  0  0  0  0  0  0  0  0  0  0  0  # atno 8010 bound_to 7997
  140.7053  143.3190  151.2837 H   0  0  0  0  0  0  0  0  0  0  0  0  # atno 10167 bound_to 10162
  157.4372  131.1054  151.0184 H   0  0  0  0  0  0  0  0  0  0  0  0  # atno 10718 bound_to 10713
  153.0111  135.5344  154.6722 H   0  0  0  0  0  0  0  0  0  0  0  0  # atno 10763 bound_to 10752
  154.5903  135.2858  155.0644 H   0  0  0  0  0  0  0  0  0  0  0  0  # atno 10764 bound_to 10752
  154.1740  135.6527  153.5069 H   0  0  0  0  0  0  0  0  0  0  0  0  # atno 10765 bound_to 10752
  141.1258  133.6617  156.5109 H   0  0  0  0  0  0  0  0  0  0  0  0  # atno 11005 bound_to 11000
  144.9446  139.4150  143.6432 LP  0  0  0  0  0  0  0  0  0  0  0  0  # atno 17320 bound_to 7965
  146.3284  139.8423  142.8888 LP  0  0  0  0  0  0  0  0  0  0  0  0  # atno 17321 bound_to 7965
  139.6638  144.0141  152.2710 LP  0  0  0  0  0  0  0  0  0  0  0  0  # atno 17342 bound_to 10162
  139.9717  144.6489  150.7983 LP  0  0  0  0  0  0  0  0  0  0  0  0  # atno 17343 bound_to 10162
  157.1059  130.6001  149.5471 LP  0  0  0  0  0  0  0  0  0  0  0  0  # atno 17370 bound_to 10713
  155.9935  130.4996  150.7383 LP  0  0  0  0  0  0  0  0  0  0  0  0  # atno 17371 bound_to 10713
  140.4370  134.7050  157.4972 LP  0  0  0  0  0  0  0  0  0  0  0  0  # atno 17394 bound_to 11000
  140.0255  134.6484  155.9179 LP  0  0  0  0  0  0  0  0  0  0  0  0  # atno 17395 bound_to 11000

$$$$
