AV-unprocessed.smi:2599|AV-procd|sdf|10180|dock9
  -GOLD-   2272014193D 1   1.00000     0.00000
 Structure written by MMmdl.
 40 41  0  0  0  0  0  0  0  0  1 V2000
  154.2260  138.0841  158.4017 C   0  0  0  0  0  0  0  0  0  0  0  0
  153.6978  138.6994  157.2318 O   0  0  0  0  0  0  0  0  0  0  0  0
  152.8065  137.9802  156.4627 C   0  0  0  0  0  0  0  0  0  0  0  0
  152.2005  138.6035  155.3585 C   0  0  0  0  0  0  0  0  0  0  0  0
  151.2930  137.8465  154.5989 C   0  0  0  0  0  0  0  0  0  0  0  0
  151.0532  136.5043  154.9830 C   0  0  0  0  0  0  0  0  0  0  0  0
  150.1197  135.6982  154.2795 N   0  0  0  0  0  0  0  0  0  0  0  0
  149.6609  134.4761  154.6005 C   0  0  0  0  0  0  0  0  0  0  0  0
  149.9612  133.8507  155.6176 O   0  0  0  0  0  0  0  0  0  0  0  0
  148.8115  134.0195  153.6680 N   0  0  0  0  0  0  0  0  0  0  0  0
  148.1398  132.7195  153.6784 C   0  0  1  0  0  0  0  0  0  0  0  0
  147.2871  132.6291  154.9558 C   0  0  0  0  0  0  0  0  0  0  0  0
  147.3210  132.5272  152.3743 C   0  0  0  0  0  0  0  0  0  0  0  0
  146.3242  133.6773  152.1241 C   0  0  0  0  0  0  0  0  0  0  0  0
  145.4708  133.4166  150.8721 C   0  0  0  0  0  0  0  0  0  0  0  0
  144.7849  132.1774  150.9980 O   0  0  0  0  0  0  0  0  0  0  0  0
  145.6705  131.0696  151.0982 C   0  0  0  0  0  0  0  0  0  0  0  0
  146.5329  131.1991  152.3635 C   0  0  0  0  0  0  0  0  0  0  0  0
  151.6660  135.9792  156.0710 N   0  0  0  0  0  0  0  0  0  0  0  0
  152.5317  136.6942  156.7963 N   0  0  0  0  0  0  0  0  0  0  0  0
  154.8987  138.7792  158.9038 H   0  0  0  0  0  0  0  0  0  0  0  0
  154.7986  137.1884  158.1565 H   0  0  0  0  0  0  0  0  0  0  0  0
  153.4355  137.8225  159.1066 H   0  0  0  0  0  0  0  0  0  0  0  0
  152.4182  139.6308  155.1073 H   0  0  0  0  0  0  0  0  0  0  0  0
  150.7934  138.3057  153.7598 H   0  0  0  0  0  0  0  0  0  0  0  0
  149.6974  136.1338  153.4728 H   0  0  0  0  0  0  0  0  0  0  0  0
  148.6241  134.6133  152.8734 H   0  0  0  0  0  0  0  0  0  0  0  0
  148.8829  131.9215  153.7241 H   0  0  0  0  0  0  0  0  0  0  0  0
  146.8650  131.6338  155.0907 H   0  0  0  0  0  0  0  0  0  0  0  0
  146.4638  133.3439  154.9373 H   0  0  0  0  0  0  0  0  0  0  0  0
  147.8880  132.8383  155.8414 H   0  0  0  0  0  0  0  0  0  0  0  0
  148.0197  132.5040  151.5362 H   0  0  0  0  0  0  0  0  0  0  0  0
  145.6702  133.7949  152.9892 H   0  0  0  0  0  0  0  0  0  0  0  0
  146.8493  134.6236  151.9978 H   0  0  0  0  0  0  0  0  0  0  0  0
  144.7360  134.2124  150.7486 H   0  0  0  0  0  0  0  0  0  0  0  0
  146.0892  133.4132  149.9731 H   0  0  0  0  0  0  0  0  0  0  0  0
  145.0824  130.1527  151.1392 H   0  0  0  0  0  0  0  0  0  0  0  0
  146.2948  131.0061  150.2056 H   0  0  0  0  0  0  0  0  0  0  0  0
  147.2079  130.3449  152.4184 H   0  0  0  0  0  0  0  0  0  0  0  0
  145.8919  131.1448  153.2445 H   0  0  0  0  0  0  0  0  0  0  0  0
  1  2  1  0  0  0  0
  1 21  1  0  0  0  0
  1 22  1  0  0  0  0
  1 23  1  0  0  0  0
  2  3  1  0  0  0  0
  3 20  1  0  0  0  0
  3  4  2  0  0  0  0
  4  5  1  0  0  0  0
  4 24  1  0  0  0  0
  5  6  2  0  0  0  0
  5 25  1  0  0  0  0
  6  7  1  0  0  0  0
  6 19  1  0  0  0  0
  7  8  1  0  0  0  0
  7 26  1  0  0  0  0
  8  9  2  0  0  0  0
  8 10  1  0  0  0  0
 10 11  1  0  0  0  0
 10 27  1  0  0  0  0
 11 12  1  0  0  0  0
 11 13  1  0  0  0  0
 11 28  1  0  0  0  0
 12 29  1  0  0  0  0
 12 30  1  0  0  0  0
 12 31  1  0  0  0  0
 13 18  1  0  0  0  0
 13 14  1  0  0  0  0
 13 32  1  0  0  0  0
 14 15  1  0  0  0  0
 14 33  1  0  0  0  0
 14 34  1  0  0  0  0
 15 16  1  0  0  0  0
 15 35  1  0  0  0  0
 15 36  1  0  0  0  0
 16 17  1  0  0  0  0
 17 18  1  0  0  0  0
 17 37  1  0  0  0  0
 17 38  1  0  0  0  0
 18 39  1  0  0  0  0
 18 40  1  0  0  0  0
 19 20  2  0  0  0  0
M  END
> <s_m_source_file>
AV-unprocessed.smi

> <i_m_source_file_index>
2599

> <i_lp_mmshare_version>
43012

> <i_f3d_flags>
0

> <s_epik_input>
W0NIM11PYzFbY0hdW2NIXWMobm4xKVtOSF1DKD1PKVtOSF1bQ0BIXShbQ0gzXSlbQ0hdMltDSDJdW0NIMl1PW0NIMl1bQ0gyXTI=

> <s_epik_cmdline>
J2VwaWtfcHl0aG9uJywgJy1waCcsICc3LjAnLCAnLXRuJywgJzgnLCAnLW1hJywgJzIwMCcsICctbWV0YWxfYmluZGluZycsICctaW1hZScsICc8aW5maWxlLm1hZT4nLCAnLW9tYWUnLCAnPG91dGZpbGUubWFlPic=

> <r_lp_tautomer_probability>
1

> <r_epik_Ionization_Penalty>
0.00150063

> <r_epik_Ionization_Penalty_Charging>
0

> <r_epik_Ionization_Penalty_Neutral>
0.00150063

> <r_epik_State_Penalty>
-0

> <r_epik_Charging_Adjusted_Penalty>
0

> <i_epik_Tot_Q>
0

> <i_epik_Tot_abs_Q>
0

> <r_epik_Metal_State_Penalty>
-0

> <b_epik_Metal_Only>
0

> <s_lp_Force_Field>
OPLS_2005

> <r_lp_Energy>
19.9533

> <b_lp_Chiralities_Consistent>
1

> <s_lp_Variant>
AV-unprocessed.smi:2599-2

> <Gold.Version>
5.8.1

> <Gold.Id.Protein>
6NUR|6NUR_protein|mol2

> <Gold.PLP.Fitness>
39.0667

> <Gold.PLP.PLP>
-29.6053

> <Gold.PLP.part.hbond>
-5.6408

> <Gold.PLP.part.metal>
0.0000

> <Gold.PLP.part.buried>
-0.8536

> <Gold.PLP.part.nonpolar>
-22.6250

> <Gold.PLP.part.repulsive>
0.2584

> <Gold.PLP.ligand.clash>
0.0000

> <Gold.PLP.ligand.torsion>
0.0647

> <Gold.PLP.Chemscore.Hbond>
3.1880

> <Gold.PLP.Chemscore.CHOScore>
0.0000

> <Gold.PLP.Chemscore.Metal>
0.0000

> <Gold.Chemscore.Hbonds>
donor molecule, donor type, donor heavy atom, donor atom, acceptor molecule, acceptor atom, score
      L1  H     7    26       P1  7948  0.95
      L1  H    10    27       P1  7948  0.90
      P1  H  7997  8008       L1     2  0.99
      P1  H 10752 10763       L1    19  0.16

> <Gold.PLP.Chemscore.Internal.Correction>
0.0268

> <Gold.Rescore>
     Score         DG    S(hbond)    S(metal)    S(lipo)     H(rot)  DE(clash)    DE(int)     intcor
     14.68     -16.24       2.28        0.00      60.74       1.55       0.03       1.53       ----

> <Gold.Chemscore.Fitness>
14.6787

> <Gold.Chemscore.DG>
-16.2389

> <Gold.Chemscore.ZeroCoef>
-5.4800

> <Gold.Chemscore.Hbond>
2.2807

> <Gold.Chemscore.Metal>
0.0000

> <Gold.Chemscore.Lipo>
60.7447

> <Gold.Chemscore.Internal_Hbond>
0.0000

> <Gold.Chemscore.DEClash>
0.0300

> <Gold.Chemscore.DEInternal>
1.5302

> <Gold.Chemscore.Rot>
1.5492

> <Gold.Chemscore.Internal.Correction>
   9.000000E+99

> <Gold.Chemscore.Hbonds>
donor molecule, donor type, donor heavy atom, donor atom, acceptor molecule, acceptor atom, score
      L1  H     7    26       P1  7948  0.21
      L1  H    10    27       P1  7948  0.17
      P1  H  7997  8008       L1     2  0.79

> <Gold.Chemscore.Hbond.Weighted>
-7.6177

> <Gold.Chemscore.Metal.Weighted>
-0.0000

> <Gold.Chemscore.Lipo.Weighted>
-7.1071

> <Gold.Chemscore.Internal_Hbond.Weighted>
0.0000

> <Gold.Chemscore.DEClash.Weighted>
0.0300

> <Gold.Chemscore.DEInternal.Weighted>
1.5302

> <Gold.Chemscore.Rot.Weighted>
3.9659

> <Gold.Chemscore.Internal.Correction.Weighted>
   9.000000E+99

> <Gold.Protein.RotatedTorsions>
[ 6907 6896 6895 6894 ] final -123.11 input  -60.11 | X-H torsion
[ 7974 7965 7964 7962 ] final  160.16 input  175.53 | X-H torsion
[ 8008 7997 7996 7995 ] final  -72.30 input   59.86 | X-H torsion
[ 10167 10162 10161 10158 ] final  173.18 input  -65.29 | X-H torsion
[ 10718 10713 10712 10709 ] final   72.10 input   66.30 | X-H torsion
[ 10763 10752 10751 10750 ] final   81.33 input  -60.55 | X-H torsion
[ 11005 11000 10999 10996 ] final  112.92 input  -57.11 | X-H torsion

> <Gold.Protein.ActiveResidues>
 VAL166  LYS551  ARG553  GLY616  TRP617  ASP618  TYR619  PRO620  LYS621  CYS622 
 ASP623  PHE694  ASN695  SER759  ASP760  ASP761  ALA762  ILE779  LEU786  VAL792 
 PHE793  MET794  SER795  GLU796  ALA797  LYS798  CYS799  TRP800  GLU811  SER814 

> <Gold.Protein.RotatedAtoms>
  150.8640  133.7602  159.2982 H   0  0  0  0  0  0  0  0  0  0  0  0  # atno 6907 bound_to 6896
  151.5236  135.1066  159.9894 H   0  0  0  0  0  0  0  0  0  0  0  0  # atno 6908 bound_to 6896
  152.4647  133.7853  159.6928 H   0  0  0  0  0  0  0  0  0  0  0  0  # atno 6909 bound_to 6896
  144.7751  139.7719  143.6282 H   0  0  0  0  0  0  0  0  0  0  0  0  # atno 7974 bound_to 7965
  154.5155  140.0800  156.8073 H   0  0  0  0  0  0  0  0  0  0  0  0  # atno 8008 bound_to 7997
  155.3690  140.3422  155.4224 H   0  0  0  0  0  0  0  0  0  0  0  0  # atno 8009 bound_to 7997
  156.1623  140.1592  156.8579 H   0  0  0  0  0  0  0  0  0  0  0  0  # atno 8010 bound_to 7997
  139.5100  144.3290  152.0129 H   0  0  0  0  0  0  0  0  0  0  0  0  # atno 10167 bound_to 10162
  157.6484  130.9562  150.0881 H   0  0  0  0  0  0  0  0  0  0  0  0  # atno 10718 bound_to 10713
  153.1108  135.4769  154.9032 H   0  0  0  0  0  0  0  0  0  0  0  0  # atno 10763 bound_to 10752
  154.7479  135.3098  154.8614 H   0  0  0  0  0  0  0  0  0  0  0  0  # atno 10764 bound_to 10752
  153.9204  135.6855  153.4801 H   0  0  0  0  0  0  0  0  0  0  0  0  # atno 10765 bound_to 10752
  139.8939  134.9540  156.6660 H   0  0  0  0  0  0  0  0  0  0  0  0  # atno 11005 bound_to 11000
  146.1925  139.5174  142.9795 LP  0  0  0  0  0  0  0  0  0  0  0  0  # atno 17320 bound_to 7965
  145.6209  141.0323  143.1915 LP  0  0  0  0  0  0  0  0  0  0  0  0  # atno 17321 bound_to 7965
  140.2730  144.3943  150.6144 LP  0  0  0  0  0  0  0  0  0  0  0  0  # atno 17342 bound_to 10162
  140.6074  143.2168  151.6953 LP  0  0  0  0  0  0  0  0  0  0  0  0  # atno 17343 bound_to 10162
  156.1838  130.3651  149.9000 LP  0  0  0  0  0  0  0  0  0  0  0  0  # atno 17370 bound_to 10713
  156.6945  130.8909  151.3592 LP  0  0  0  0  0  0  0  0  0  0  0  0  # atno 17371 bound_to 10713
  140.7410  133.8978  155.8278 LP  0  0  0  0  0  0  0  0  0  0  0  0  # atno 17394 bound_to 11000
  141.0077  134.1063  157.4253 LP  0  0  0  0  0  0  0  0  0  0  0  0  # atno 17395 bound_to 11000

$$$$
