AV-unprocessed.smi:2561|AV-procd|sdf|10040|dock5
  -GOLD-   2272014 83D 1   1.00000     0.00000
 Structure written by MMmdl.
 32 33  0  0  0  0  0  0  0  0  1 V2000
  146.7680  138.8183  152.0935 C   0  0  0  0  0  0  0  0  0  0  0  0
  147.9902  138.7377  152.8787 N   0  0  0  0  0  0  0  0  0  0  0  0
  148.3074  139.5851  153.8663 C   0  0  0  0  0  0  0  0  0  0  0  0
  147.5905  140.5262  154.2062 O   0  0  0  0  0  0  0  0  0  0  0  0
  149.4995  139.2785  154.4065 N   0  0  0  0  0  0  0  0  0  0  0  0
  150.1860  139.9332  155.4646 C   0  0  0  0  0  0  0  0  0  0  0  0
  149.5570  140.7285  156.4518 C   0  0  0  0  0  0  0  0  0  0  0  0
  150.3472  141.3124  157.4604 C   0  0  0  0  0  0  0  0  0  0  0  0
  151.7375  141.0776  157.4600 C   0  0  0  0  0  0  0  0  0  0  0  0
  152.5220  141.6630  158.4655 N   0  0  0  0  0  0  0  0  0  0  0  0
  151.9345  142.8168  159.1266 C   0  0  0  0  0  0  0  0  0  0  0  0
  152.7633  143.0238  160.3967 C   0  0  0  0  0  0  0  0  0  0  0  0
  153.4118  141.6611  160.6693 C   0  0  0  0  0  0  0  0  0  0  0  0
  152.9287  140.7601  159.5295 C   0  0  0  0  0  0  0  0  0  0  0  0
  152.3436  140.3069  156.5254 N   0  0  0  0  0  0  0  0  0  0  0  0
  151.5809  139.7505  155.5611 C   0  0  0  0  0  0  0  0  0  0  0  0
  146.7471  138.0172  151.3546 H   0  0  0  0  0  0  0  0  0  0  0  0
  146.7070  139.7710  151.5656 H   0  0  0  0  0  0  0  0  0  0  0  0
  145.8893  138.7170  152.7318 H   0  0  0  0  0  0  0  0  0  0  0  0
  148.6341  137.9928  152.6551 H   0  0  0  0  0  0  0  0  0  0  0  0
  150.0039  138.5226  153.9668 H   0  0  0  0  0  0  0  0  0  0  0  0
  148.4905  140.8904  156.4651 H   0  0  0  0  0  0  0  0  0  0  0  0
  149.8903  141.9253  158.2238 H   0  0  0  0  0  0  0  0  0  0  0  0
  151.9619  143.6954  158.4814 H   0  0  0  0  0  0  0  0  0  0  0  0
  150.8935  142.6229  159.3887 H   0  0  0  0  0  0  0  0  0  0  0  0
  153.5359  143.7742  160.2259 H   0  0  0  0  0  0  0  0  0  0  0  0
  152.1461  143.3652  161.2282 H   0  0  0  0  0  0  0  0  0  0  0  0
  154.4980  141.7554  160.6450 H   0  0  0  0  0  0  0  0  0  0  0  0
  153.1356  141.2573  161.6438 H   0  0  0  0  0  0  0  0  0  0  0  0
  152.0831  140.1563  159.8622 H   0  0  0  0  0  0  0  0  0  0  0  0
  153.7145  140.0835  159.1925 H   0  0  0  0  0  0  0  0  0  0  0  0
  152.1052  139.1424  154.8383 H   0  0  0  0  0  0  0  0  0  0  0  0
  1  2  1  0  0  0  0
  1 17  1  0  0  0  0
  1 18  1  0  0  0  0
  1 19  1  0  0  0  0
  2  3  1  0  0  0  0
  2 20  1  0  0  0  0
  3  4  2  0  0  0  0
  3  5  1  0  0  0  0
  5  6  1  0  0  0  0
  5 21  1  0  0  0  0
  6 16  1  0  0  0  0
  6  7  2  0  0  0  0
  7  8  1  0  0  0  0
  7 22  1  0  0  0  0
  8  9  2  0  0  0  0
  8 23  1  0  0  0  0
  9 10  1  0  0  0  0
  9 15  1  0  0  0  0
 10 14  1  0  0  0  0
 10 11  1  0  0  0  0
 11 12  1  0  0  0  0
 11 24  1  0  0  0  0
 11 25  1  0  0  0  0
 12 13  1  0  0  0  0
 12 26  1  0  0  0  0
 12 27  1  0  0  0  0
 13 14  1  0  0  0  0
 13 28  1  0  0  0  0
 13 29  1  0  0  0  0
 14 30  1  0  0  0  0
 14 31  1  0  0  0  0
 15 16  2  0  0  0  0
 16 32  1  0  0  0  0
M  END
> <s_m_source_file>
AV-unprocessed.smi

> <i_m_source_file_index>
2561

> <i_lp_mmshare_version>
43012

> <i_f3d_flags>
0

> <s_epik_input>
W0NIM11bTkhdQyg9TylbTkhdYzFbY0hdW2NIXWMobltjSF0xKU4yW0NIMl1bQ0gyXVtDSDJdW0NIMl0y

> <s_epik_cmdline>
J2VwaWtfcHl0aG9uJywgJy1waCcsICc3LjAnLCAnLXRuJywgJzgnLCAnLW1hJywgJzIwMCcsICctbWV0YWxfYmluZGluZycsICctaW1hZScsICc8aW5maWxlLm1hZT4nLCAnLW9tYWUnLCAnPG91dGZpbGUubWFlPic=

> <r_lp_tautomer_probability>
1

> <r_epik_Ionization_Penalty>
0.281536

> <r_epik_Ionization_Penalty_Charging>
0

> <r_epik_Ionization_Penalty_Neutral>
0.281536

> <r_epik_State_Penalty>
0.27354

> <r_epik_Charging_Adjusted_Penalty>
0.27354

> <i_epik_Tot_Q>
0

> <i_epik_Tot_abs_Q>
0

> <r_epik_Metal_State_Penalty>
0.184484

> <b_epik_Metal_Only>
0

> <s_lp_Force_Field>
OPLS_2005

> <r_lp_Energy>
32.7589

> <b_lp_Chiralities_Consistent>
1

> <s_lp_Variant>
AV-unprocessed.smi:2561-1

> <Gold.Version>
5.8.1

> <Gold.Id.Protein>
6NUR|6NUR_protein|mol2

> <Gold.PLP.Fitness>
35.4967

> <Gold.PLP.PLP>
-30.7812

> <Gold.PLP.part.hbond>
-3.0000

> <Gold.PLP.part.metal>
0.0000

> <Gold.PLP.part.buried>
-0.8937

> <Gold.PLP.part.nonpolar>
-26.7455

> <Gold.PLP.part.repulsive>
0.2625

> <Gold.PLP.ligand.clash>
0.0227

> <Gold.PLP.ligand.torsion>
0.6385

> <Gold.PLP.Chemscore.Hbond>
2.0000

> <Gold.PLP.Chemscore.CHOScore>
0.0000

> <Gold.PLP.Chemscore.Metal>
0.0000

> <Gold.Chemscore.Hbonds>
donor molecule, donor type, donor heavy atom, donor atom, acceptor molecule, acceptor atom, score
      L1  H     2    20       P1  7948  0.99
      P1  H  7997  8009       L1    15  1.00

> <Gold.PLP.Chemscore.Internal.Correction>
0.0152

> <Gold.Rescore>
     Score         DG    S(hbond)    S(metal)    S(lipo)     H(rot)  DE(clash)    DE(int)     intcor
     16.13     -17.47       1.83        0.00      72.21       1.00       0.09       1.25       ----

> <Gold.Chemscore.Fitness>
16.1320

> <Gold.Chemscore.DG>
-17.4681

> <Gold.Chemscore.ZeroCoef>
-5.4800

> <Gold.Chemscore.Hbond>
1.8262

> <Gold.Chemscore.Metal>
0.0000

> <Gold.Chemscore.Lipo>
72.2102

> <Gold.Chemscore.Internal_Hbond>
0.0000

> <Gold.Chemscore.DEClash>
0.0857

> <Gold.Chemscore.DEInternal>
1.2504

> <Gold.Chemscore.Rot>
1.0000

> <Gold.Chemscore.Internal.Correction>
   9.000000E+99

> <Gold.Chemscore.Hbonds>
donor molecule, donor type, donor heavy atom, donor atom, acceptor molecule, acceptor atom, score
      L1  H     2    20       P1  7948  0.94
      P1  H  7997  8009       L1    15  0.89

> <Gold.Chemscore.Hbond.Weighted>
-6.0995

> <Gold.Chemscore.Metal.Weighted>
-0.0000

> <Gold.Chemscore.Lipo.Weighted>
-8.4486

> <Gold.Chemscore.Internal_Hbond.Weighted>
0.0000

> <Gold.Chemscore.DEClash.Weighted>
0.0857

> <Gold.Chemscore.DEInternal.Weighted>
1.2504

> <Gold.Chemscore.Rot.Weighted>
2.5600

> <Gold.Chemscore.Internal.Correction.Weighted>
   9.000000E+99

> <Gold.Protein.RotatedTorsions>
[ 6907 6896 6895 6894 ] final    0.37 input  -60.11 | X-H torsion
[ 7974 7965 7964 7962 ] final   31.37 input  175.53 | X-H torsion
[ 8008 7997 7996 7995 ] final -166.85 input   59.86 | X-H torsion
[ 10167 10162 10161 10158 ] final -109.49 input  -65.29 | X-H torsion
[ 10718 10713 10712 10709 ] final  -11.24 input   66.30 | X-H torsion
[ 10763 10752 10751 10750 ] final   25.26 input  -60.55 | X-H torsion
[ 11005 11000 10999 10996 ] final  170.27 input  -57.11 | X-H torsion

> <Gold.Protein.ActiveResidues>
 VAL166  LYS551  ARG553  GLY616  TRP617  ASP618  TYR619  PRO620  LYS621  CYS622 
 ASP623  PHE694  ASN695  SER759  ASP760  ASP761  ALA762  ILE779  LEU786  VAL792 
 PHE793  MET794  SER795  GLU796  ALA797  LYS798  CYS799  TRP800  GLU811  SER814 

> <Gold.Protein.RotatedAtoms>
  151.5753  135.1061  160.0004 H   0  0  0  0  0  0  0  0  0  0  0  0  # atno 6907 bound_to 6896
  152.4381  133.7393  159.6642 H   0  0  0  0  0  0  0  0  0  0  0  0  # atno 6908 bound_to 6896
  150.8281  133.8067  159.3133 H   0  0  0  0  0  0  0  0  0  0  0  0  # atno 6909 bound_to 6896
  146.1554  139.6666  142.9070 H   0  0  0  0  0  0  0  0  0  0  0  0  # atno 7974 bound_to 7965
  155.8695  140.0991  157.1560 H   0  0  0  0  0  0  0  0  0  0  0  0  # atno 8008 bound_to 7997
  154.3996  140.1350  156.4123 H   0  0  0  0  0  0  0  0  0  0  0  0  # atno 8009 bound_to 7997
  155.7766  140.3459  155.5277 H   0  0  0  0  0  0  0  0  0  0  0  0  # atno 8010 bound_to 7997
  140.1547  143.4170  152.1469 H   0  0  0  0  0  0  0  0  0  0  0  0  # atno 10167 bound_to 10162
  156.6618  130.4984  149.6028 H   0  0  0  0  0  0  0  0  0  0  0  0  # atno 10718 bound_to 10713
  153.0704  135.6587  154.0260 H   0  0  0  0  0  0  0  0  0  0  0  0  # atno 10763 bound_to 10752
  153.9907  135.2946  155.3413 H   0  0  0  0  0  0  0  0  0  0  0  0  # atno 10764 bound_to 10752
  154.7077  135.5218  153.8689 H   0  0  0  0  0  0  0  0  0  0  0  0  # atno 10765 bound_to 10752
  140.3066  134.7551  157.3958 H   0  0  0  0  0  0  0  0  0  0  0  0  # atno 11005 bound_to 11000
  145.4721  141.0436  143.2693 LP  0  0  0  0  0  0  0  0  0  0  0  0  # atno 17320 bound_to 7965
  144.7957  139.6239  143.7094 LP  0  0  0  0  0  0  0  0  0  0  0  0  # atno 17321 bound_to 7965
  139.5409  144.7255  151.4737 LP  0  0  0  0  0  0  0  0  0  0  0  0  # atno 17342 bound_to 10162
  140.6680  143.8355  150.6965 LP  0  0  0  0  0  0  0  0  0  0  0  0  # atno 17343 bound_to 10162
  156.2005  130.6617  151.1162 LP  0  0  0  0  0  0  0  0  0  0  0  0  # atno 17370 bound_to 10713
  157.7107  131.0735  150.6511 LP  0  0  0  0  0  0  0  0  0  0  0  0  # atno 17371 bound_to 10713
  140.1061  134.5407  155.8308 LP  0  0  0  0  0  0  0  0  0  0  0  0  # atno 17394 bound_to 11000
  141.2117  133.6710  156.6602 LP  0  0  0  0  0  0  0  0  0  0  0  0  # atno 17395 bound_to 11000

$$$$
