AV-unprocessed.smi:2062|AV-procd|sdf|8406|dock6
  -GOLD-   2272011 93D 1   1.00000     0.00000
 Structure written by MMmdl.
 41 42  0  0  0  0  0  0  0  0  2 V2000
  151.7094  145.1422  160.1915 C   0  0  0  0  0  0  0  0  0  0  0  0
  152.3125  144.0388  159.3100 C   0  0  0  0  0  0  0  0  0  0  0  0
  152.7922  144.6221  157.9709 C   0  0  0  0  0  0  0  0  0  0  0  0
  151.2938  142.8966  159.1044 C   0  0  0  0  0  0  0  0  0  0  0  0
  151.8596  141.5896  158.7663 N   0  0  0  0  0  0  0  0  0  0  0  0
  152.6387  141.0093  159.8578 C   0  0  0  0  0  0  0  0  0  0  0  0
  153.1915  139.6216  159.4924 C   0  0  0  0  0  0  0  0  0  0  0  0
  152.1182  138.7662  159.1167 O   0  0  0  0  0  0  0  0  0  0  0  0
  151.3716  139.2662  158.0094 C   0  0  1  0  0  0  0  0  0  0  0  0
  150.2524  138.2642  157.6783 C   0  0  0  0  0  0  0  0  0  0  0  0
  149.2911  138.1445  158.7696 N   0  0  0  0  0  0  0  0  0  0  0  0
  148.8766  136.9987  159.3287 C   0  0  0  0  0  0  0  0  0  0  0  0
  149.3115  135.9206  158.9167 O   0  0  0  0  0  0  0  0  0  0  0  0
  147.9860  137.1734  160.3314 N   0  5  0  0  0  0  0  0  0  0  0  0
  147.5002  136.1100  160.9921 C   0  0  0  0  0  0  0  0  0  0  0  0
  147.8561  134.8509  160.7110 N   0  0  0  0  0  0  0  0  0  0  0  0
  147.2233  133.9021  161.5165 C   0  0  0  0  0  0  0  0  0  0  0  0
  146.3581  134.4507  162.4258 C   0  0  0  0  0  0  0  0  0  0  0  0
  146.3128  136.1859  162.2975 S   0  0  0  0  0  0  0  0  0  0  0  0
  150.8091  140.6512  158.3846 C   0  0  0  0  0  0  0  0  0  0  0  0
  150.8316  145.5888  159.7232 H   0  0  0  0  0  0  0  0  0  0  0  0
  152.4308  145.9394  160.3735 H   0  0  0  0  0  0  0  0  0  0  0  0
  151.4051  144.7482  161.1615 H   0  0  0  0  0  0  0  0  0  0  0  0
  153.1821  143.6560  159.8430 H   0  0  0  0  0  0  0  0  0  0  0  0
  151.9602  145.0273  157.3945 H   0  0  0  0  0  0  0  0  0  0  0  0
  153.2822  143.8635  157.3598 H   0  0  0  0  0  0  0  0  0  0  0  0
  153.5112  145.4265  158.1282 H   0  0  0  0  0  0  0  0  0  0  0  0
  150.6781  142.7978  159.9998 H   0  0  0  0  0  0  0  0  0  0  0  0
  150.6107  143.2019  158.3103 H   0  0  0  0  0  0  0  0  0  0  0  0
  153.4761  141.6566  160.1146 H   0  0  0  0  0  0  0  0  0  0  0  0
  152.0191  140.9261  160.7521 H   0  0  0  0  0  0  0  0  0  0  0  0
  153.9120  139.6943  158.6762 H   0  0  0  0  0  0  0  0  0  0  0  0
  153.7140  139.1851  160.3436 H   0  0  0  0  0  0  0  0  0  0  0  0
  152.0335  139.3713  157.1478 H   0  0  0  0  0  0  0  0  0  0  0  0
  149.7174  138.5828  156.7834 H   0  0  0  0  0  0  0  0  0  0  0  0
  150.6744  137.2837  157.4519 H   0  0  0  0  0  0  0  0  0  0  0  0
  148.9128  139.0039  159.1404 H   0  0  0  0  0  0  0  0  0  0  0  0
  147.4476  132.8558  161.3720 H   0  0  0  0  0  0  0  0  0  0  0  0
  145.7477  133.9444  163.1580 H   0  0  0  0  0  0  0  0  0  0  0  0
  150.0963  140.5431  159.2038 H   0  0  0  0  0  0  0  0  0  0  0  0
  150.2503  141.0511  157.5376 H   0  0  0  0  0  0  0  0  0  0  0  0
  1  2  1  0  0  0  0
  1 21  1  0  0  0  0
  1 22  1  0  0  0  0
  1 23  1  0  0  0  0
  2  3  1  0  0  0  0
  2  4  1  0  0  0  0
  2 24  1  0  0  0  0
  3 25  1  0  0  0  0
  3 26  1  0  0  0  0
  3 27  1  0  0  0  0
  4  5  1  0  0  0  0
  4 28  1  0  0  0  0
  4 29  1  0  0  0  0
  5 20  1  0  0  0  0
  5  6  1  0  0  0  0
  6  7  1  0  0  0  0
  6 30  1  0  0  0  0
  6 31  1  0  0  0  0
  7  8  1  0  0  0  0
  7 32  1  0  0  0  0
  7 33  1  0  0  0  0
  8  9  1  0  0  0  0
  9 10  1  0  0  0  0
  9 20  1  0  0  0  0
  9 34  1  0  0  0  0
 10 11  1  0  0  0  0
 10 35  1  0  0  0  0
 10 36  1  0  0  0  0
 11 12  1  0  0  0  0
 11 37  1  0  0  0  0
 12 13  2  0  0  0  0
 12 14  1  0  0  0  0
 14 15  1  0  0  0  0
 15 19  1  0  0  0  0
 15 16  2  0  0  0  0
 16 17  1  0  0  0  0
 17 18  2  0  0  0  0
 17 38  1  0  0  0  0
 18 19  1  0  0  0  0
 18 39  1  0  0  0  0
 20 40  1  0  0  0  0
 20 41  1  0  0  0  0
M  CHG  1  14  -1
M  END
> <s_m_source_file>
AV-unprocessed.smi

> <i_m_source_file_index>
2062

> <i_lp_mmshare_version>
43012

> <i_f3d_flags>
0

> <s_epik_input>
W0NIM11bQ0hdKFtDSDNdKVtDSDJdTjFbQ0gyXVtDSDJdT1tDQEhdKFtDSDJdMSlbQ0gyXVtOSF1DKD1PKVtOSF1jMm5bY0hdW2NIXXMy

> <s_epik_cmdline>
J2VwaWtfcHl0aG9uJywgJy1waCcsICc3LjAnLCAnLXRuJywgJzgnLCAnLW1hJywgJzIwMCcsICctbWV0YWxfYmluZGluZycsICctaW1hZScsICc8aW5maWxlLm1hZT4nLCAnLW9tYWUnLCAnPG91dGZpbGUubWFlPic=

> <r_lp_tautomer_probability>
0.999

> <r_epik_Ionization_Penalty>
7.76343

> <r_epik_Ionization_Penalty_Charging>
5.65212

> <r_epik_Ionization_Penalty_Neutral>
2.11131

> <r_epik_State_Penalty>
6.82229

> <r_epik_Charging_Adjusted_Penalty>
12.4744

> <i_epik_Tot_Q>
-1

> <i_epik_Tot_abs_Q>
1

> <r_epik_Metal_State_Penalty>
2.82401

> <b_epik_Metal_Only>
1

> <s_lp_Force_Field>
OPLS_2005

> <r_lp_Energy>
19.1571

> <b_lp_Chiralities_Consistent>
1

> <s_lp_Variant>
AV-unprocessed.smi:2062-11

> <Gold.Version>
5.8.1

> <Gold.Id.Protein>
6NUR|6NUR_protein|mol2

> <Gold.PLP.Fitness>
52.5916

> <Gold.PLP.PLP>
-41.7811

> <Gold.PLP.part.hbond>
-3.0000

> <Gold.PLP.part.metal>
0.0000

> <Gold.PLP.part.buried>
-5.7673

> <Gold.PLP.part.nonpolar>
-34.3744

> <Gold.PLP.part.repulsive>
0.2284

> <Gold.PLP.ligand.clash>
0.0000

> <Gold.PLP.ligand.torsion>
0.3007

> <Gold.PLP.Chemscore.Hbond>
3.7853

> <Gold.PLP.Chemscore.CHOScore>
0.0000

> <Gold.PLP.Chemscore.Metal>
0.0000

> <Gold.Chemscore.Hbonds>
donor molecule, donor type, donor heavy atom, donor atom, acceptor molecule, acceptor atom, score
      P1  H  6896  6907       L1    13  0.94
      P1  H  6931  6943       L1    14  0.94
      P1  H  6934  6947       L1    14  1.30

> <Gold.PLP.Chemscore.Internal.Correction>
0.0560

> <Gold.Rescore>
     Score         DG    S(hbond)    S(metal)    S(lipo)     H(rot)  DE(clash)    DE(int)     intcor
     17.46     -19.50       1.90        0.00     102.20       1.68       0.14       1.90       ----

> <Gold.Chemscore.Fitness>
17.4630

> <Gold.Chemscore.DG>
-19.4965

> <Gold.Chemscore.ZeroCoef>
-5.4800

> <Gold.Chemscore.Hbond>
1.9024

> <Gold.Chemscore.Metal>
0.0000

> <Gold.Chemscore.Lipo>
102.2033

> <Gold.Chemscore.Internal_Hbond>
0.0000

> <Gold.Chemscore.DEClash>
0.1355

> <Gold.Chemscore.DEInternal>
1.8980

> <Gold.Chemscore.Rot>
1.6779

> <Gold.Chemscore.Internal.Correction>
   9.000000E+99

> <Gold.Chemscore.Hbonds>
donor molecule, donor type, donor heavy atom, donor atom, acceptor molecule, acceptor atom, score
      P1  H  6896  6907       L1    13  0.88
      P1  H  6931  6943       L1    14  0.10
      P1  H  6934  6947       L1    14  0.56

> <Gold.Chemscore.Hbond.Weighted>
-6.3540

> <Gold.Chemscore.Metal.Weighted>
-0.0000

> <Gold.Chemscore.Lipo.Weighted>
-11.9578

> <Gold.Chemscore.Internal_Hbond.Weighted>
0.0000

> <Gold.Chemscore.DEClash.Weighted>
0.1355

> <Gold.Chemscore.DEInternal.Weighted>
1.8980

> <Gold.Chemscore.Rot.Weighted>
4.2953

> <Gold.Chemscore.Internal.Correction.Weighted>
   9.000000E+99

> <Gold.Protein.RotatedTorsions>
[ 6907 6896 6895 6894 ] final  -77.81 input  -60.11 | X-H torsion
[ 7974 7965 7964 7962 ] final   43.91 input  175.53 | X-H torsion
[ 8008 7997 7996 7995 ] final -120.92 input   59.86 | X-H torsion
[ 10167 10162 10161 10158 ] final -125.93 input  -65.29 | X-H torsion
[ 10718 10713 10712 10709 ] final -115.23 input   66.30 | X-H torsion
[ 10763 10752 10751 10750 ] final  177.75 input  -60.55 | X-H torsion
[ 11005 11000 10999 10996 ] final  -61.31 input  -57.11 | X-H torsion

> <Gold.Protein.ActiveResidues>
 VAL166  LYS551  ARG553  GLY616  TRP617  ASP618  TYR619  PRO620  LYS621  CYS622 
 ASP623  PHE694  ASN695  SER759  ASP760  ASP761  ALA762  ILE779  LEU786  VAL792 
 PHE793  MET794  SER795  GLU796  ALA797  LYS798  CYS799  TRP800  GLU811  SER814 

> <Gold.Protein.RotatedAtoms>
  150.6989  134.4367  159.5272 H   0  0  0  0  0  0  0  0  0  0  0  0  # atno 6907 bound_to 6896
  152.2084  134.8521  160.0509 H   0  0  0  0  0  0  0  0  0  0  0  0  # atno 6908 bound_to 6896
  151.9416  133.3604  159.4004 H   0  0  0  0  0  0  0  0  0  0  0  0  # atno 6909 bound_to 6896
  146.0614  139.5133  142.9656 H   0  0  0  0  0  0  0  0  0  0  0  0  # atno 7974 bound_to 7965
  155.1396  140.0401  157.2795 H   0  0  0  0  0  0  0  0  0  0  0  0  # atno 8008 bound_to 7997
  154.6482  140.2563  155.7217 H   0  0  0  0  0  0  0  0  0  0  0  0  # atno 8009 bound_to 7997
  156.2565  140.2841  156.0905 H   0  0  0  0  0  0  0  0  0  0  0  0  # atno 8010 bound_to 7997
  139.9769  143.5784  152.2392 H   0  0  0  0  0  0  0  0  0  0  0  0  # atno 10167 bound_to 10162
  156.0882  130.6070  150.8879 H   0  0  0  0  0  0  0  0  0  0  0  0  # atno 10718 bound_to 10713
  154.4986  135.2782  155.1439 H   0  0  0  0  0  0  0  0  0  0  0  0  # atno 10763 bound_to 10752
  154.3081  135.6234  153.5457 H   0  0  0  0  0  0  0  0  0  0  0  0  # atno 10764 bound_to 10752
  152.9899  135.5713  154.5424 H   0  0  0  0  0  0  0  0  0  0  0  0  # atno 10765 bound_to 10752
  141.1319  133.6629  156.5356 H   0  0  0  0  0  0  0  0  0  0  0  0  # atno 11005 bound_to 11000
  145.6553  141.0253  143.1738 LP  0  0  0  0  0  0  0  0  0  0  0  0  # atno 17320 bound_to 7965
  144.7177  139.8138  143.7393 LP  0  0  0  0  0  0  0  0  0  0  0  0  # atno 17321 bound_to 7965
  139.6439  144.7657  151.2283 LP  0  0  0  0  0  0  0  0  0  0  0  0  # atno 17342 bound_to 10162
  140.7503  143.6272  150.8457 LP  0  0  0  0  0  0  0  0  0  0  0  0  # atno 17343 bound_to 10162
  157.6023  131.0940  150.8939 LP  0  0  0  0  0  0  0  0  0  0  0  0  # atno 17370 bound_to 10713
  156.9093  130.5275  149.5280 LP  0  0  0  0  0  0  0  0  0  0  0  0  # atno 17371 bound_to 10713
  140.4181  134.7212  157.4874 LP  0  0  0  0  0  0  0  0  0  0  0  0  # atno 17394 bound_to 11000
  140.0379  134.6310  155.9019 LP  0  0  0  0  0  0  0  0  0  0  0  0  # atno 17395 bound_to 11000

$$$$
