AV-unprocessed.smi:72|AV-procd|sdf|726|dock6
  -GOLD-   2262017 53D 1   1.00000     0.00000
 Structure written by MMmdl.
 28 29  0  0  0  0  0  0  0  0  2 V2000
  148.2320  136.6728  160.9324 N   0  0  0  0  0  0  0  0  0  0  0  0
  148.5189  136.8547  159.7185 C   0  0  0  0  0  0  0  0  0  0  0  0
  147.9929  138.0023  159.0116 N   0  0  0  0  0  0  0  0  0  0  0  0
  148.3039  138.1349  157.7589 C   0  0  0  0  0  0  0  0  0  0  0  0
  149.1408  137.1634  157.0679 N   0  0  0  0  0  0  0  0  0  0  0  0
  149.5136  137.3383  155.6112 C   0  0  1  0  0  0  0  0  0  0  0  0
  148.9362  138.5152  155.1215 O   0  0  0  0  0  0  0  0  0  0  0  0
  149.9062  139.2770  154.4090 C   0  0  1  0  0  0  0  0  0  0  0  0
  149.5347  140.7673  154.4556 C   0  0  0  0  0  0  0  0  0  0  0  0
  149.0393  141.1865  153.2019 O   0  0  0  0  0  0  0  0  0  0  0  0
  151.1989  138.9450  155.1548 C   0  0  2  0  0  0  0  0  0  0  0  0
  152.3667  139.2391  154.4113 O   0  0  0  0  0  0  0  0  0  0  0  0
  151.0385  137.4609  155.4629 C   0  0  2  0  0  0  0  0  0  0  0  0
  151.5121  136.6283  154.4204 O   0  0  0  0  0  0  0  0  0  0  0  0
  149.6722  136.0659  157.7954 C   0  0  0  0  0  0  0  0  0  0  0  0
  150.4204  135.2852  157.2063 O   0  0  0  0  0  0  0  0  0  0  0  0
  149.3416  135.9321  159.1106 N   0  5  0  0  0  0  0  0  0  0  0  0
  149.0792  136.4897  155.0797 H   0  0  0  0  0  0  0  0  0  0  0  0
  149.9704  138.9123  153.3817 H   0  0  0  0  0  0  0  0  0  0  0  0
  151.2299  139.4996  156.0941 H   0  0  0  0  0  0  0  0  0  0  0  0
  151.5514  137.1830  156.3850 H   0  0  0  0  0  0  0  0  0  0  0  0
  148.6632  135.8405  161.3075 H   0  0  0  0  0  0  0  0  0  0  0  0
  147.9656  138.9766  157.1535 H   0  0  0  0  0  0  0  0  0  0  0  0
  148.8048  140.9696  155.2400 H   0  0  0  0  0  0  0  0  0  0  0  0
  150.4185  141.3675  154.6736 H   0  0  0  0  0  0  0  0  0  0  0  0
  149.1277  140.4720  152.5900 H   0  0  0  0  0  0  0  0  0  0  0  0
  153.1147  139.1381  154.9795 H   0  0  0  0  0  0  0  0  0  0  0  0
  150.9876  136.7893  153.6505 H   0  0  0  0  0  0  0  0  0  0  0  0
  1  2  2  0  0  0  0
  1 22  1  0  0  0  0
  2 17  1  0  0  0  0
  2  3  1  0  0  0  0
  3  4  2  0  0  0  0
  4  5  1  0  0  0  0
  4 23  1  0  0  0  0
  5  6  1  0  0  0  0
  5 15  1  0  0  0  0
  6 18  1  0  0  0  0
  6 13  1  0  0  0  0
  6  7  1  0  0  0  0
  7  8  1  0  0  0  0
  8 19  1  0  0  0  0
  8  9  1  0  0  0  0
  8 11  1  0  0  0  0
  9 10  1  0  0  0  0
  9 24  1  0  0  0  0
  9 25  1  0  0  0  0
 10 26  1  0  0  0  0
 11 20  1  0  0  0  0
 11 12  1  0  0  0  0
 11 13  1  0  0  0  0
 12 27  1  0  0  0  0
 13 21  1  0  0  0  0
 13 14  1  0  0  0  0
 14 28  1  0  0  0  0
 15 16  2  0  0  0  0
 15 17  1  0  0  0  0
M  CHG  1  17  -1
M  END
> <s_m_source_file>
AV-unprocessed.smi

> <i_m_source_file_index>
72

> <i_lp_mmshare_version>
43012

> <i_f3d_flags>
0

> <s_epik_input>
W05IMl1jMW5bY0hdbihjKD1PKW4xKVtDQEBIXTJPW0NASF0oW0NIMl1bT0hdKVtDQEBIXShbT0hdKVtDQEhdMltPSF0=

> <s_epik_cmdline>
J2VwaWtfcHl0aG9uJywgJy1waCcsICc3LjAnLCAnLXRuJywgJzgnLCAnLW1hJywgJzIwMCcsICctbWV0YWxfYmluZGluZycsICctaW1hZScsICc8aW5maWxlLm1hZT4nLCAnLW9tYWUnLCAnPG91dGZpbGUubWFlPic=

> <r_lp_tautomer_probability>
7.17554e-07

> <r_epik_Ionization_Penalty>
12.8705

> <r_epik_Ionization_Penalty_Charging>
5.64144

> <r_epik_Ionization_Penalty_Neutral>
7.22905

> <r_epik_State_Penalty>
3.30104

> <r_epik_Charging_Adjusted_Penalty>
8.94249

> <i_epik_Tot_Q>
-1

> <i_epik_Tot_abs_Q>
1

> <r_epik_Metal_State_Penalty>
0.529074

> <b_epik_Metal_Only>
1

> <s_epik_Chemistry_Notes>
This compound contains an acetal/aminal-like group ( X-CH(R)-Y where X, Y are N, S, or O) that may be acid/base labile, releasing an aldehyde.

> <s_lp_Force_Field>
OPLS_2005

> <r_lp_Energy>
36.315

> <b_lp_Chiralities_Consistent>
1

> <s_lp_Variant>
AV-unprocessed.smi:72-64

> <Gold.Version>
5.8.1

> <Gold.Id.Protein>
6NUR|6NUR_protein|mol2

> <Gold.PLP.Fitness>
42.4177

> <Gold.PLP.PLP>
-23.2268

> <Gold.PLP.part.hbond>
-9.2306

> <Gold.PLP.part.metal>
0.0000

> <Gold.PLP.part.buried>
-1.3280

> <Gold.PLP.part.nonpolar>
-12.5914

> <Gold.PLP.part.repulsive>
0.0887

> <Gold.PLP.ligand.clash>
0.0000

> <Gold.PLP.ligand.torsion>
0.6208

> <Gold.PLP.Chemscore.Hbond>
6.8035

> <Gold.PLP.Chemscore.CHOScore>
0.0000

> <Gold.PLP.Chemscore.Metal>
0.0000

> <Gold.Chemscore.Hbonds>
donor molecule, donor type, donor heavy atom, donor atom, acceptor molecule, acceptor atom, score
      L1  H    10    26       P1  7957  0.90
      L1  H    14    28       P1  7949  0.19
      P1  H  6896  6909       L1    17  2.00
      P1  H  6931  6943       L1     1  1.00
      P1  H  6934  6947       L1     3  0.09
      P1  H  7989  7998       L1    12  0.60
      P1  H  8011  8017       L1    10  1.00
      P1  H 10752 10765       L1    14  1.00

> <Gold.PLP.Chemscore.Internal.Correction>
0.0219

> <Gold.Rescore>
     Score         DG    S(hbond)    S(metal)    S(lipo)     H(rot)  DE(clash)    DE(int)     intcor
      7.73      -9.78       3.45        0.00      26.59       4.04       0.11       1.95       ----

> <Gold.Chemscore.Fitness>
7.7272

> <Gold.Chemscore.DG>
-9.7836

> <Gold.Chemscore.ZeroCoef>
-5.4800

> <Gold.Chemscore.Hbond>
3.4537

> <Gold.Chemscore.Metal>
0.0000

> <Gold.Chemscore.Lipo>
26.5927

> <Gold.Chemscore.Internal_Hbond>
0.0000

> <Gold.Chemscore.DEClash>
0.1068

> <Gold.Chemscore.DEInternal>
1.9496

> <Gold.Chemscore.Rot>
4.0403

> <Gold.Chemscore.Internal.Correction>
   9.000000E+99

> <Gold.Chemscore.Hbonds>
donor molecule, donor type, donor heavy atom, donor atom, acceptor molecule, acceptor atom, score
      L1  H    10    26       P1  7957  0.85
      L1  H    14    28       P1  7949  0.05
      P1  H  6896  6909       L1    17  0.25
      P1  H  6931  6943       L1     1  0.28
      P1  H  6934  6947       L1     3  0.01
      P1  H  7989  7998       L1    12  0.12
      P1  H  8011  8017       L1    10  0.25
      P1  H 10752 10765       L1    14  0.98

> <Gold.Chemscore.Hbond.Weighted>
-11.5354

> <Gold.Chemscore.Metal.Weighted>
-0.0000

> <Gold.Chemscore.Lipo.Weighted>
-3.1113

> <Gold.Chemscore.Internal_Hbond.Weighted>
0.0000

> <Gold.Chemscore.DEClash.Weighted>
0.1068

> <Gold.Chemscore.DEInternal.Weighted>
1.9496

> <Gold.Chemscore.Rot.Weighted>
10.3431

> <Gold.Chemscore.Internal.Correction.Weighted>
   9.000000E+99

> <Gold.Protein.RotatedTorsions>
[ 6907 6896 6895 6894 ] final   70.56 input  -60.11 | X-H torsion
[ 7974 7965 7964 7962 ] final  -91.41 input  175.53 | X-H torsion
[ 8008 7997 7996 7995 ] final -136.87 input   59.86 | X-H torsion
[ 10167 10162 10161 10158 ] final  -37.15 input  -65.29 | X-H torsion
[ 10718 10713 10712 10709 ] final   18.44 input   66.30 | X-H torsion
[ 10763 10752 10751 10750 ] final  165.78 input  -60.55 | X-H torsion
[ 11005 11000 10999 10996 ] final    8.95 input  -57.11 | X-H torsion

> <Gold.Protein.ActiveResidues>
 VAL166  LYS551  ARG553  GLY616  TRP617  ASP618  TYR619  PRO620  LYS621  CYS622 
 ASP623  PHE694  ASN695  SER759  ASP760  ASP761  ALA762  ILE779  LEU786  VAL792 
 PHE793  MET794  SER795  GLU796  ALA797  LYS798  CYS799  TRP800  GLU811  SER814 

> <Gold.Protein.RotatedAtoms>
  152.4757  134.4850  159.9677 H   0  0  0  0  0  0  0  0  0  0  0  0  # atno 6907 bound_to 6896
  151.4867  133.3528  159.2854 H   0  0  0  0  0  0  0  0  0  0  0  0  # atno 6908 bound_to 6896
  150.8794  134.8209  159.7275 H   0  0  0  0  0  0  0  0  0  0  0  0  # atno 6909 bound_to 6896
  145.4134  140.9546  143.2221 H   0  0  0  0  0  0  0  0  0  0  0  0  # atno 7974 bound_to 7965
  155.4024  140.0507  157.3036 H   0  0  0  0  0  0  0  0  0  0  0  0  # atno 8008 bound_to 7997
  154.4984  140.2147  155.9358 H   0  0  0  0  0  0  0  0  0  0  0  0  # atno 8009 bound_to 7997
  156.1436  140.3149  155.8540 H   0  0  0  0  0  0  0  0  0  0  0  0  # atno 8010 bound_to 7997
  140.7125  143.3361  151.2460 H   0  0  0  0  0  0  0  0  0  0  0  0  # atno 10167 bound_to 10162
  157.0963  130.6449  149.5861 H   0  0  0  0  0  0  0  0  0  0  0  0  # atno 10718 bound_to 10713
  154.3291  135.2755  155.2481 H   0  0  0  0  0  0  0  0  0  0  0  0  # atno 10763 bound_to 10752
  154.4800  135.5861  153.6386 H   0  0  0  0  0  0  0  0  0  0  0  0  # atno 10764 bound_to 10752
  152.9868  135.6109  154.3482 H   0  0  0  0  0  0  0  0  0  0  0  0  # atno 10765 bound_to 10752
  140.5312  134.0464  155.7874 H   0  0  0  0  0  0  0  0  0  0  0  0  # atno 11005 bound_to 11000
  144.8293  139.5655  143.6951 LP  0  0  0  0  0  0  0  0  0  0  0  0  # atno 17320 bound_to 7965
  146.2693  139.6596  142.9307 LP  0  0  0  0  0  0  0  0  0  0  0  0  # atno 17321 bound_to 7965
  139.6856  143.9779  152.2832 LP  0  0  0  0  0  0  0  0  0  0  0  0  # atno 17342 bound_to 10162
  139.9423  144.6673  150.8254 LP  0  0  0  0  0  0  0  0  0  0  0  0  # atno 17343 bound_to 10162
  155.9885  130.4928  150.7172 LP  0  0  0  0  0  0  0  0  0  0  0  0  # atno 17370 bound_to 10713
  157.4678  131.0890  151.0675 LP  0  0  0  0  0  0  0  0  0  0  0  0  # atno 17371 bound_to 10713
  141.1280  133.9350  157.2595 LP  0  0  0  0  0  0  0  0  0  0  0  0  # atno 17394 bound_to 11000
  139.9553  135.0167  156.9110 LP  0  0  0  0  0  0  0  0  0  0  0  0  # atno 17395 bound_to 11000

$$$$
