AV-unprocessed.smi:2845|AV-procd|sdf|10943|dock1
  -GOLD-   2272015393D 1   1.00000     0.00000
 Structure written by MMmdl.
 42 44  0  0  0  0  0  0  0  0  1 V2000
  153.2572  142.9516  161.4123 C   0  0  0  0  0  0  0  0  0  0  0  0
  152.6202  142.6011  160.0792 C   0  0  0  0  0  0  0  0  0  0  0  0
  152.9888  141.3978  159.4368 C   0  0  0  0  0  0  0  0  0  0  0  0
  152.4196  141.0351  158.1965 C   0  0  0  0  0  0  0  0  0  0  0  0
  152.6322  139.9217  157.4017 N   0  0  0  0  0  0  0  0  0  0  0  0
  151.8134  140.1608  156.3816 C   0  0  0  0  0  0  0  0  0  0  0  0
  151.0958  141.2997  156.4202 N   0  0  0  0  0  0  0  0  0  0  0  0
  150.1481  141.7663  155.4239 C   0  0  0  0  0  0  0  0  0  0  0  0
  149.4310  140.6070  154.7076 C   0  0  2  0  0  0  0  0  0  0  0  0
  150.3140  139.9964  153.7852 O   0  0  0  0  0  0  0  0  0  0  0  0
  148.1589  141.0806  153.9790 C   0  0  0  0  0  0  0  0  0  0  0  0
  147.2002  141.7007  154.8765 N   0  0  0  0  0  0  0  0  0  0  0  0
  145.9412  142.0944  154.6627 C   0  0  0  0  0  0  0  0  0  0  0  0
  145.3519  142.6215  155.7280 N   0  0  0  0  0  0  0  0  0  0  0  0
  146.3801  142.5062  156.6175 C   0  0  0  0  0  0  0  0  0  0  0  0
  146.2072  143.0626  158.3420 S   0  0  1  0  0  0  0  0  0  0  0  0
  144.5217  143.8064  158.1264 C   0  0  0  0  0  0  0  0  0  0  0  0
  146.0333  141.7946  159.1805 O   0  0  0  0  0  0  0  0  0  0  0  0
  147.5081  141.9579  156.1698 N   0  0  0  0  0  0  0  0  0  0  0  0
  151.4638  141.9163  157.6113 C   0  0  0  0  0  0  0  0  0  0  0  0
  151.0900  143.1171  158.2401 C   0  0  0  0  0  0  0  0  0  0  0  0
  151.6679  143.4639  159.4792 C   0  0  0  0  0  0  0  0  0  0  0  0
  151.2571  144.7623  160.1505 C   0  0  0  0  0  0  0  0  0  0  0  0
  153.9642  142.1846  161.7299 H   0  0  0  0  0  0  0  0  0  0  0  0
  152.4957  143.0451  162.1869 H   0  0  0  0  0  0  0  0  0  0  0  0
  153.7977  143.8957  161.3410 H   0  0  0  0  0  0  0  0  0  0  0  0
  153.7149  140.7411  159.8929 H   0  0  0  0  0  0  0  0  0  0  0  0
  151.7309  139.4689  155.5558 H   0  0  0  0  0  0  0  0  0  0  0  0
  149.4199  142.4073  155.9228 H   0  0  0  0  0  0  0  0  0  0  0  0
  150.6744  142.3959  154.7051 H   0  0  0  0  0  0  0  0  0  0  0  0
  149.1543  139.8537  155.4469 H   0  0  0  0  0  0  0  0  0  0  0  0
  149.8543  139.8656  152.9698 H   0  0  0  0  0  0  0  0  0  0  0  0
  148.4170  141.8096  153.2099 H   0  0  0  0  0  0  0  0  0  0  0  0
  147.6799  140.2437  153.4678 H   0  0  0  0  0  0  0  0  0  0  0  0
  145.4472  141.9951  153.7072 H   0  0  0  0  0  0  0  0  0  0  0  0
  144.3787  144.1652  157.1069 H   0  0  0  0  0  0  0  0  0  0  0  0
  144.3946  144.6471  158.8082 H   0  0  0  0  0  0  0  0  0  0  0  0
  143.7528  143.0654  158.3447 H   0  0  0  0  0  0  0  0  0  0  0  0
  150.3658  143.7667  157.7708 H   0  0  0  0  0  0  0  0  0  0  0  0
  150.5277  145.3071  159.5504 H   0  0  0  0  0  0  0  0  0  0  0  0
  152.1228  145.4093  160.2930 H   0  0  0  0  0  0  0  0  0  0  0  0
  150.8082  144.5638  161.1239 H   0  0  0  0  0  0  0  0  0  0  0  0
  1  2  1  0  0  0  0
  1 24  1  0  0  0  0
  1 25  1  0  0  0  0
  1 26  1  0  0  0  0
  2 22  1  0  0  0  0
  2  3  2  0  0  0  0
  3  4  1  0  0  0  0
  3 27  1  0  0  0  0
  4 20  2  0  0  0  0
  4  5  1  0  0  0  0
  5  6  2  0  0  0  0
  6  7  1  0  0  0  0
  6 28  1  0  0  0  0
  7  8  1  0  0  0  0
  7 20  1  0  0  0  0
  8  9  1  0  0  0  0
  8 29  1  0  0  0  0
  8 30  1  0  0  0  0
  9 10  1  0  0  0  0
  9 11  1  0  0  0  0
  9 31  1  0  0  0  0
 10 32  1  0  0  0  0
 11 12  1  0  0  0  0
 11 33  1  0  0  0  0
 11 34  1  0  0  0  0
 12 19  1  0  0  0  0
 12 13  1  0  0  0  0
 13 14  2  0  0  0  0
 13 35  1  0  0  0  0
 14 15  1  0  0  0  0
 15 16  1  0  0  0  0
 15 19  2  0  0  0  0
 16 17  1  0  0  0  0
 16 18  2  0  0  0  0
 17 36  1  0  0  0  0
 17 37  1  0  0  0  0
 17 38  1  0  0  0  0
 20 21  1  0  0  0  0
 21 22  2  0  0  0  0
 21 39  1  0  0  0  0
 22 23  1  0  0  0  0
 23 40  1  0  0  0  0
 23 41  1  0  0  0  0
 23 42  1  0  0  0  0
M  END
> <s_m_source_file>
AV-unprocessed.smi

> <i_m_source_file_index>
2845

> <i_lp_mmshare_version>
43012

> <i_f3d_flags>
0

> <s_epik_input>
W0NIM11jKFtjSF0xKWMoW0NIM10pW2NIXWMoYzEyKW4oW2NIXW4yKVtDSDJdW0NASF0oW09IXSlbQ0gyXW4zW2NIXW5jKG4zKVtTQF0oPU8pW0NIM10=

> <s_epik_cmdline>
J2VwaWtfcHl0aG9uJywgJy1waCcsICc3LjAnLCAnLXRuJywgJzgnLCAnLW1hJywgJzIwMCcsICctbWV0YWxfYmluZGluZycsICctaW1hZScsICc8aW5maWxlLm1hZT4nLCAnLW9tYWUnLCAnPG91dGZpbGUubWFlPic=

> <r_lp_tautomer_probability>
1

> <r_epik_Ionization_Penalty>
0.0968684

> <r_epik_Ionization_Penalty_Charging>
0

> <r_epik_Ionization_Penalty_Neutral>
0.0968684

> <r_epik_State_Penalty>
0.0870047

> <r_epik_Charging_Adjusted_Penalty>
0.0870047

> <i_epik_Tot_Q>
0

> <i_epik_Tot_abs_Q>
0

> <r_epik_Metal_State_Penalty>
0.0746849

> <b_epik_Metal_Only>
0

> <s_lp_Force_Field>
OPLS_2005

> <r_lp_Energy>
9.4381

> <b_lp_Chiralities_Consistent>
1

> <s_lp_Variant>
AV-unprocessed.smi:2845-1

> <Gold.Version>
5.8.1

> <Gold.Id.Protein>
6NUR|6NUR_protein|mol2

> <Gold.PLP.Fitness>
57.5370

> <Gold.PLP.PLP>
-45.5356

> <Gold.PLP.part.hbond>
-4.0000

> <Gold.PLP.part.metal>
0.0000

> <Gold.PLP.part.buried>
-5.9869

> <Gold.PLP.part.nonpolar>
-36.4758

> <Gold.PLP.part.repulsive>
0.2788

> <Gold.PLP.ligand.clash>
0.0001

> <Gold.PLP.ligand.torsion>
1.2691

> <Gold.PLP.Chemscore.Hbond>
3.9200

> <Gold.PLP.Chemscore.CHOScore>
0.5423

> <Gold.PLP.Chemscore.Metal>
0.0000

> <Gold.Chemscore.Hbonds>
donor molecule, donor type, donor heavy atom, donor atom, acceptor molecule, acceptor atom, score
      L1  H    10    32       P1  7957  1.00
      P1  H  6934  6946       L1    18  0.98
      P1  H  7989  7998       L1    10  0.90
      P1  H  7997  8009       L1     5  1.00
      L1  C    13    35       P1 10175  0.41

> <Gold.PLP.Chemscore.Internal.Correction>
1.1527

> <Gold.Rescore>
     Score         DG    S(hbond)    S(metal)    S(lipo)     H(rot)  DE(clash)    DE(int)     intcor
     17.43     -21.19       3.27        0.00     100.34       2.71       0.10       3.66       ----

> <Gold.Chemscore.Fitness>
17.4306

> <Gold.Chemscore.DG>
-21.1948

> <Gold.Chemscore.ZeroCoef>
-5.4800

> <Gold.Chemscore.Hbond>
3.2679

> <Gold.Chemscore.Metal>
0.0000

> <Gold.Chemscore.Lipo>
100.3401

> <Gold.Chemscore.Internal_Hbond>
0.0000

> <Gold.Chemscore.DEClash>
0.1035

> <Gold.Chemscore.DEInternal>
3.6607

> <Gold.Chemscore.Rot>
2.7108

> <Gold.Chemscore.Internal.Correction>
   9.000000E+99

> <Gold.Chemscore.Hbonds>
donor molecule, donor type, donor heavy atom, donor atom, acceptor molecule, acceptor atom, score
      L1  H    10    32       P1  7957  0.98
      P1  H  6934  6946       L1    18  0.90
      P1  H  7989  7998       L1    10  0.46
      P1  H  7997  8009       L1     5  0.36

> <Gold.Chemscore.Hbond.Weighted>
-10.9147

> <Gold.Chemscore.Metal.Weighted>
-0.0000

> <Gold.Chemscore.Lipo.Weighted>
-11.7398

> <Gold.Chemscore.Internal_Hbond.Weighted>
0.0000

> <Gold.Chemscore.DEClash.Weighted>
0.1035

> <Gold.Chemscore.DEInternal.Weighted>
3.6607

> <Gold.Chemscore.Rot.Weighted>
6.9396

> <Gold.Chemscore.Internal.Correction.Weighted>
   9.000000E+99

> <Gold.Protein.RotatedTorsions>
[ 6907 6896 6895 6894 ] final -159.53 input  -60.11 | X-H torsion
[ 7974 7965 7964 7962 ] final   41.61 input  175.53 | X-H torsion
[ 8008 7997 7996 7995 ] final  172.96 input   59.86 | X-H torsion
[ 10167 10162 10161 10158 ] final  152.07 input  -65.29 | X-H torsion
[ 10718 10713 10712 10709 ] final  -99.55 input   66.30 | X-H torsion
[ 10763 10752 10751 10750 ] final -104.06 input  -60.55 | X-H torsion
[ 11005 11000 10999 10996 ] final   89.04 input  -57.11 | X-H torsion

> <Gold.Protein.ActiveResidues>
 VAL166  LYS551  ARG553  GLY616  TRP617  ASP618  TYR619  PRO620  LYS621  CYS622 
 ASP623  PHE694  ASN695  SER759  ASP760  ASP761  ALA762  ILE779  LEU786  VAL792 
 PHE793  MET794  SER795  GLU796  ALA797  LYS798  CYS799  TRP800  GLU811  SER814 

> <Gold.Protein.RotatedAtoms>
  151.3349  133.3985  159.2665 H   0  0  0  0  0  0  0  0  0  0  0  0  # atno 6907 bound_to 6896
  150.9925  134.9257  159.7918 H   0  0  0  0  0  0  0  0  0  0  0  0  # atno 6908 bound_to 6896
  152.5251  134.3314  159.9237 H   0  0  0  0  0  0  0  0  0  0  0  0  # atno 6909 bound_to 6896
  146.0809  139.5396  142.9537 H   0  0  0  0  0  0  0  0  0  0  0  0  # atno 7974 bound_to 7965
  156.1123  140.1472  156.9321 H   0  0  0  0  0  0  0  0  0  0  0  0  # atno 8008 bound_to 7997
  154.4776  140.0889  156.7342 H   0  0  0  0  0  0  0  0  0  0  0  0  # atno 8009 bound_to 7997
  155.4574  140.3437  155.4310 H   0  0  0  0  0  0  0  0  0  0  0  0  # atno 8010 bound_to 7997
  139.4835  144.5388  151.7599 H   0  0  0  0  0  0  0  0  0  0  0  0  # atno 10167 bound_to 10162
  156.0137  130.5287  150.6687 H   0  0  0  0  0  0  0  0  0  0  0  0  # atno 10718 bound_to 10713
  154.7852  135.4800  153.9930 H   0  0  0  0  0  0  0  0  0  0  0  0  # atno 10763 bound_to 10752
  153.1550  135.6798  153.8833 H   0  0  0  0  0  0  0  0  0  0  0  0  # atno 10764 bound_to 10752
  153.8465  135.3172  155.3408 H   0  0  0  0  0  0  0  0  0  0  0  0  # atno 10765 bound_to 10752
  139.8883  134.8526  156.3086 H   0  0  0  0  0  0  0  0  0  0  0  0  # atno 11005 bound_to 11000
  145.6219  141.0321  143.1910 LP  0  0  0  0  0  0  0  0  0  0  0  0  # atno 17320 bound_to 7965
  144.7293  139.7777  143.7353 LP  0  0  0  0  0  0  0  0  0  0  0  0  # atno 17321 bound_to 7965
  140.4925  144.1289  150.5953 LP  0  0  0  0  0  0  0  0  0  0  0  0  # atno 17342 bound_to 10162
  140.4155  143.2636  151.9780 LP  0  0  0  0  0  0  0  0  0  0  0  0  # atno 17343 bound_to 10162
  157.4414  131.0861  151.0940 LP  0  0  0  0  0  0  0  0  0  0  0  0  # atno 17370 bound_to 10713
  157.1483  130.6173  149.5575 LP  0  0  0  0  0  0  0  0  0  0  0  0  # atno 17371 bound_to 10713
  140.9866  133.7234  156.0750 LP  0  0  0  0  0  0  0  0  0  0  0  0  # atno 17394 bound_to 11000
  140.7680  134.3864  157.5513 LP  0  0  0  0  0  0  0  0  0  0  0  0  # atno 17395 bound_to 11000

$$$$
