AV-unprocessed.smi:486|AV-procd|sdf|2698|dock7
  -GOLD-   2262023133D 1   1.00000     0.00000
 Structure written by MMmdl.
 44 46  0  0  0  0  0  0  0  0  2 V2000
  151.2332  130.7830  157.0746 C   0  0  0  0  0  0  0  0  0  0  0  0
  150.3459  131.3708  156.1343 O   0  0  0  0  0  0  0  0  0  0  0  0
  150.4804  132.7168  155.8689 C   0  0  0  0  0  0  0  0  0  0  0  0
  149.6162  133.2703  154.9040 C   0  0  0  0  0  0  0  0  0  0  0  0
  149.6854  134.6371  154.5742 C   0  0  0  0  0  0  0  0  0  0  0  0
  150.6192  135.4843  155.2020 C   0  0  0  0  0  0  0  0  0  0  0  0
  150.6183  136.8094  154.8218 O   0  0  0  0  0  0  0  0  0  0  0  0
  151.8409  137.5312  154.8918 C   0  0  0  0  0  0  0  0  0  0  0  0
  151.5249  139.0247  155.0678 C   0  0  1  0  0  0  0  0  0  0  0  0
  150.6735  139.4292  154.0140 O   0  0  0  0  0  0  0  0  0  0  0  0
  150.8342  139.3090  156.4165 C   0  0  0  0  0  0  0  0  0  0  0  0
  150.7319  140.7465  156.7167 N   0  0  0  0  0  0  0  0  0  0  0  0
  149.8809  141.6853  156.2127 C   0  0  0  0  0  0  0  0  0  0  0  0
  148.8095  141.4632  155.1989 C   0  0  0  0  0  0  0  0  0  0  0  0
  150.1906  142.8726  156.8053 N   0  3  0  0  0  0  0  0  0  0  0  0
  151.2472  142.6926  157.6986 C   0  0  0  0  0  0  0  0  0  0  0  0
  151.9033  143.5987  158.5261 C   0  0  0  0  0  0  0  0  0  0  0  0
  152.9463  143.0858  159.3247 C   0  0  0  0  0  0  0  0  0  0  0  0
  153.3006  141.7217  159.2821 C   0  0  0  0  0  0  0  0  0  0  0  0
  152.6293  140.8130  158.4375 C   0  0  0  0  0  0  0  0  0  0  0  0
  151.5999  141.3281  157.6493 C   0  0  0  0  0  0  0  0  0  0  0  0
  151.4915  134.9321  156.1722 C   0  0  0  0  0  0  0  0  0  0  0  0
  151.4233  133.5641  156.5012 C   0  0  0  0  0  0  0  0  0  0  0  0
  150.9958  129.7246  157.1798 H   0  0  0  0  0  0  0  0  0  0  0  0
  151.1333  131.2420  158.0590 H   0  0  0  0  0  0  0  0  0  0  0  0
  152.2701  130.8570  156.7442 H   0  0  0  0  0  0  0  0  0  0  0  0
  148.8904  132.6405  154.4108 H   0  0  0  0  0  0  0  0  0  0  0  0
  149.0123  135.0392  153.8313 H   0  0  0  0  0  0  0  0  0  0  0  0
  152.4772  137.1718  155.7029 H   0  0  0  0  0  0  0  0  0  0  0  0
  152.3805  137.3853  153.9545 H   0  0  0  0  0  0  0  0  0  0  0  0
  152.4492  139.6015  155.0151 H   0  0  0  0  0  0  0  0  0  0  0  0
  150.3480  138.6547  153.5801 H   0  0  0  0  0  0  0  0  0  0  0  0
  149.8425  138.8579  156.4576 H   0  0  0  0  0  0  0  0  0  0  0  0
  151.4046  138.8543  157.2273 H   0  0  0  0  0  0  0  0  0  0  0  0
  148.2388  142.3778  155.0364 H   0  0  0  0  0  0  0  0  0  0  0  0
  148.1260  140.6843  155.5369 H   0  0  0  0  0  0  0  0  0  0  0  0
  149.2491  141.1545  154.2503 H   0  0  0  0  0  0  0  0  0  0  0  0
  151.6319  144.6436  158.5616 H   0  0  0  0  0  0  0  0  0  0  0  0
  153.4838  143.7514  159.9847 H   0  0  0  0  0  0  0  0  0  0  0  0
  154.1024  141.3638  159.9114 H   0  0  0  0  0  0  0  0  0  0  0  0
  152.9055  139.7693  158.4188 H   0  0  0  0  0  0  0  0  0  0  0  0
  152.2257  135.5375  156.6812 H   0  0  0  0  0  0  0  0  0  0  0  0
  152.1081  133.1884  157.2460 H   0  0  0  0  0  0  0  0  0  0  0  0
  149.7114  143.7425  156.6114 H   0  0  0  0  0  0  0  0  0  0  0  0
  1  2  1  0  0  0  0
  1 24  1  0  0  0  0
  1 25  1  0  0  0  0
  1 26  1  0  0  0  0
  2  3  1  0  0  0  0
  3 23  1  0  0  0  0
  3  4  2  0  0  0  0
  4  5  1  0  0  0  0
  4 27  1  0  0  0  0
  5  6  2  0  0  0  0
  5 28  1  0  0  0  0
  6  7  1  0  0  0  0
  6 22  1  0  0  0  0
  7  8  1  0  0  0  0
  8  9  1  0  0  0  0
  8 29  1  0  0  0  0
  8 30  1  0  0  0  0
  9 10  1  0  0  0  0
  9 11  1  0  0  0  0
  9 31  1  0  0  0  0
 10 32  1  0  0  0  0
 11 12  1  0  0  0  0
 11 33  1  0  0  0  0
 11 34  1  0  0  0  0
 12 21  1  0  0  0  0
 12 13  1  0  0  0  0
 13 14  1  0  0  0  0
 13 15  2  0  0  0  0
 14 35  1  0  0  0  0
 14 36  1  0  0  0  0
 14 37  1  0  0  0  0
 15 16  1  0  0  0  0
 15 44  1  0  0  0  0
 16 21  2  0  0  0  0
 16 17  1  0  0  0  0
 17 18  2  0  0  0  0
 17 38  1  0  0  0  0
 18 19  1  0  0  0  0
 18 39  1  0  0  0  0
 19 20  2  0  0  0  0
 19 40  1  0  0  0  0
 20 21  1  0  0  0  0
 20 41  1  0  0  0  0
 22 23  2  0  0  0  0
 22 42  1  0  0  0  0
 23 43  1  0  0  0  0
M  CHG  1  15   1
M  END
> <s_m_source_file>
AV-unprocessed.smi

> <i_m_source_file_index>
486

> <i_lp_mmshare_version>
43012

> <i_f3d_flags>
0

> <s_epik_input>
W0NIM11PYzFbY0hdW2NIXWMoW2NIXVtjSF0xKU9bQ0gyXVtDQEhdKFtPSF0pW0NIMl1uKGMobjIpW0NIM10pYyhjMjMpW2NIXVtjSF1bY0hdW2NIXTM=

> <s_epik_cmdline>
J2VwaWtfcHl0aG9uJywgJy1waCcsICc3LjAnLCAnLXRuJywgJzgnLCAnLW1hJywgJzIwMCcsICctbWV0YWxfYmluZGluZycsICctaW1hZScsICc8aW5maWxlLm1hZT4nLCAnLW9tYWUnLCAnPG91dGZpbGUubWFlPic=

> <r_lp_tautomer_probability>
1

> <r_epik_Ionization_Penalty>
1.03234

> <r_epik_Ionization_Penalty_Charging>
1.03234

> <r_epik_Ionization_Penalty_Neutral>
2.3993e-06

> <r_epik_State_Penalty>
1.0836

> <r_epik_Charging_Adjusted_Penalty>
2.11594

> <i_epik_Tot_Q>
1

> <i_epik_Tot_abs_Q>
1

> <r_epik_Metal_State_Penalty>
5.07275

> <b_epik_Metal_Only>
0

> <s_lp_Force_Field>
OPLS_2005

> <r_lp_Energy>
23.3843

> <b_lp_Chiralities_Consistent>
1

> <s_lp_Variant>
AV-unprocessed.smi:486-4

> <Gold.Version>
5.8.1

> <Gold.Id.Protein>
6NUR|6NUR_protein|mol2

> <Gold.PLP.Fitness>
48.3358

> <Gold.PLP.PLP>
-40.8295

> <Gold.PLP.part.hbond>
-2.7409

> <Gold.PLP.part.metal>
0.0000

> <Gold.PLP.part.buried>
-0.8320

> <Gold.PLP.part.nonpolar>
-37.1867

> <Gold.PLP.part.repulsive>
0.2011

> <Gold.PLP.ligand.clash>
0.0000

> <Gold.PLP.ligand.torsion>
0.8038

> <Gold.PLP.Chemscore.Hbond>
3.0000

> <Gold.PLP.Chemscore.CHOScore>
0.0000

> <Gold.PLP.Chemscore.Metal>
0.0000

> <Gold.Chemscore.Hbonds>
donor molecule, donor type, donor heavy atom, donor atom, acceptor molecule, acceptor atom, score
      L1  H    15    44       P1  8028  2.00
      P1  H  7989  7998       L1    10  0.90

> <Gold.PLP.Chemscore.Internal.Correction>
0.1139

> <Gold.Rescore>
     Score         DG    S(hbond)    S(metal)    S(lipo)     H(rot)  DE(clash)    DE(int)     intcor
     17.29     -18.31       1.80        0.00     110.73       2.40       0.19       0.83       ----

> <Gold.Chemscore.Fitness>
17.2937

> <Gold.Chemscore.DG>
-18.3140

> <Gold.Chemscore.ZeroCoef>
-5.4800

> <Gold.Chemscore.Hbond>
1.7993

> <Gold.Chemscore.Metal>
0.0000

> <Gold.Chemscore.Lipo>
110.7348

> <Gold.Chemscore.Internal_Hbond>
0.0000

> <Gold.Chemscore.DEClash>
0.1939

> <Gold.Chemscore.DEInternal>
0.8264

> <Gold.Chemscore.Rot>
2.3952

> <Gold.Chemscore.Internal.Correction>
   9.000000E+99

> <Gold.Chemscore.Hbonds>
donor molecule, donor type, donor heavy atom, donor atom, acceptor molecule, acceptor atom, score
      L1  H    15    44       P1  8028  0.95
      P1  H  7989  7998       L1    10  0.18

> <Gold.Chemscore.Hbond.Weighted>
-6.0097

> <Gold.Chemscore.Metal.Weighted>
-0.0000

> <Gold.Chemscore.Lipo.Weighted>
-12.9560

> <Gold.Chemscore.Internal_Hbond.Weighted>
0.0000

> <Gold.Chemscore.DEClash.Weighted>
0.1939

> <Gold.Chemscore.DEInternal.Weighted>
0.8264

> <Gold.Chemscore.Rot.Weighted>
6.1316

> <Gold.Chemscore.Internal.Correction.Weighted>
   9.000000E+99

> <Gold.Protein.RotatedTorsions>
[ 6907 6896 6895 6894 ] final  -54.98 input  -60.11 | X-H torsion
[ 7974 7965 7964 7962 ] final -178.96 input  175.53 | X-H torsion
[ 8008 7997 7996 7995 ] final -131.64 input   59.86 | X-H torsion
[ 10167 10162 10161 10158 ] final  149.97 input  -65.29 | X-H torsion
[ 10718 10713 10712 10709 ] final  -19.73 input   66.30 | X-H torsion
[ 10763 10752 10751 10750 ] final  117.06 input  -60.55 | X-H torsion
[ 11005 11000 10999 10996 ] final -157.57 input  -57.11 | X-H torsion

> <Gold.Protein.ActiveResidues>
 VAL166  LYS551  ARG553  GLY616  TRP617  ASP618  TYR619  PRO620  LYS621  CYS622 
 ASP623  PHE694  ASN695  SER759  ASP760  ASP761  ALA762  ILE779  LEU786  VAL792 
 PHE793  MET794  SER795  GLU796  ALA797  LYS798  CYS799  TRP800  GLU811  SER814 

> <Gold.Protein.RotatedAtoms>
  150.8291  134.7536  159.6838 H   0  0  0  0  0  0  0  0  0  0  0  0  # atno 6907 bound_to 6896
  152.4398  134.5610  159.9904 H   0  0  0  0  0  0  0  0  0  0  0  0  # atno 6908 bound_to 6896
  151.5775  133.3344  159.3037 H   0  0  0  0  0  0  0  0  0  0  0  0  # atno 6909 bound_to 6896
  144.7133  140.0790  143.6426 H   0  0  0  0  0  0  0  0  0  0  0  0  # atno 7974 bound_to 7965
  155.3156  140.0459  157.3037 H   0  0  0  0  0  0  0  0  0  0  0  0  # atno 8008 bound_to 7997
  154.5408  140.2287  155.8610 H   0  0  0  0  0  0  0  0  0  0  0  0  # atno 8009 bound_to 7997
  156.1879  140.3058  155.9281 H   0  0  0  0  0  0  0  0  0  0  0  0  # atno 8010 bound_to 7997
  139.4855  144.5559  151.7318 H   0  0  0  0  0  0  0  0  0  0  0  0  # atno 10167 bound_to 10162
  156.5416  130.4679  149.6496 H   0  0  0  0  0  0  0  0  0  0  0  0  # atno 10718 bound_to 10713
  153.5467  135.3548  155.2742 H   0  0  0  0  0  0  0  0  0  0  0  0  # atno 10763 bound_to 10752
  154.8711  135.4104  154.2983 H   0  0  0  0  0  0  0  0  0  0  0  0  # atno 10764 bound_to 10752
  153.3701  135.7064  153.6713 H   0  0  0  0  0  0  0  0  0  0  0  0  # atno 10765 bound_to 10752
  140.6631  134.4327  157.5234 H   0  0  0  0  0  0  0  0  0  0  0  0  # atno 11005 bound_to 11000
  145.9718  139.2875  143.1094 LP  0  0  0  0  0  0  0  0  0  0  0  0  # atno 17320 bound_to 7965
  145.9108  140.9181  143.0455 LP  0  0  0  0  0  0  0  0  0  0  0  0  # atno 17321 bound_to 7965
  140.5121  144.1009  150.5998 LP  0  0  0  0  0  0  0  0  0  0  0  0  # atno 17342 bound_to 10162
  140.3938  143.2738  152.0028 LP  0  0  0  0  0  0  0  0  0  0  0  0  # atno 17343 bound_to 10162
  156.2966  130.7154  151.2016 LP  0  0  0  0  0  0  0  0  0  0  0  0  # atno 17370 bound_to 10713
  157.7404  131.0517  150.5167 LP  0  0  0  0  0  0  0  0  0  0  0  0  # atno 17371 bound_to 10713
  139.9006  134.8565  156.1912 LP  0  0  0  0  0  0  0  0  0  0  0  0  # atno 17394 bound_to 11000
  141.0449  133.6918  156.1666 LP  0  0  0  0  0  0  0  0  0  0  0  0  # atno 17395 bound_to 11000

$$$$
