AV-unprocessed.smi:102|AV-procd|sdf|971|dock4
  -GOLD-   2262017523D 1   1.00000     0.00000
 Structure written by MMmdl.
 43 44  0  0  0  0  0  0  0  0  2 V2000
  150.9470  141.7493  154.9682 C   0  0  0  0  0  0  0  0  0  0  0  0
  151.6720  140.4165  154.8342 C   0  0  0  0  0  0  0  0  0  0  0  0
  152.7072  140.1816  155.4581 O   0  0  0  0  0  0  0  0  0  0  0  0
  151.0564  139.5815  153.9841 O   0  0  0  0  0  0  0  0  0  0  0  0
  151.4881  138.2339  153.8917 C   0  0  0  0  0  0  0  0  0  0  0  0
  151.2761  137.5343  155.2411 C   0  0  2  0  0  0  0  0  0  0  0  0
  151.3020  136.1227  155.1015 O   0  0  0  0  0  0  0  0  0  0  0  0
  150.7154  135.5686  156.2351 C   0  0  2  0  0  0  0  0  0  0  0  0
  150.0567  134.2687  155.8275 N   0  0  0  0  0  0  0  0  0  0  0  0
  149.2617  134.2212  154.6940 C   0  0  0  0  0  0  0  0  0  0  0  0
  148.7227  133.0645  154.2595 C   0  0  0  0  0  0  0  0  0  0  0  0
  147.9540  133.0565  153.1568 F   0  0  0  0  0  0  0  0  0  0  0  0
  148.9972  131.8248  154.9818 C   0  0  0  0  0  0  0  0  0  0  0  0
  148.4774  130.7765  154.6020 O   0  0  0  0  0  0  0  0  0  0  0  0
  149.8366  131.8873  156.0553 N   0  5  0  0  0  0  0  0  0  0  0  0
  150.3984  133.0546  156.4879 C   0  0  0  0  0  0  0  0  0  0  0  0
  151.1877  133.1019  157.4311 O   0  0  0  0  0  0  0  0  0  0  0  0
  149.7217  136.5968  156.8134 C   0  0  1  0  0  0  0  0  0  0  0  0
  150.0642  136.9416  158.1493 O   0  0  0  0  0  0  0  0  0  0  0  0
  149.3081  137.8184  158.8328 C   0  0  0  0  0  0  0  0  0  0  0  0
  149.3156  137.5467  160.3311 C   0  0  0  0  0  0  0  0  0  0  0  0
  148.6616  138.7489  158.3511 O   0  0  0  0  0  0  0  0  0  0  0  0
  149.9207  137.8061  155.9046 C   0  0  2  0  0  0  0  0  0  0  0  0
  148.8771  137.8777  154.9381 O   0  0  0  0  0  0  0  0  0  0  0  0
  147.8468  138.7238  155.1098 C   0  0  0  0  0  0  0  0  0  0  0  0
  147.0771  138.9678  153.8188 C   0  0  0  0  0  0  0  0  0  0  0  0
  147.5176  139.2605  156.1676 O   0  0  0  0  0  0  0  0  0  0  0  0
  149.8819  141.5876  155.1363 H   0  0  0  0  0  0  0  0  0  0  0  0
  151.0699  142.3394  154.0599 H   0  0  0  0  0  0  0  0  0  0  0  0
  151.3457  142.3195  155.8076 H   0  0  0  0  0  0  0  0  0  0  0  0
  150.9030  137.7314  153.1203 H   0  0  0  0  0  0  0  0  0  0  0  0
  152.5367  138.1843  153.5945 H   0  0  0  0  0  0  0  0  0  0  0  0
  152.0646  137.8250  155.9380 H   0  0  0  0  0  0  0  0  0  0  0  0
  151.4930  135.3336  156.9623 H   0  0  0  0  0  0  0  0  0  0  0  0
  149.0719  135.1209  154.1292 H   0  0  0  0  0  0  0  0  0  0  0  0
  148.6929  136.2385  156.7742 H   0  0  0  0  0  0  0  0  0  0  0  0
  150.3344  137.5807  160.7173 H   0  0  0  0  0  0  0  0  0  0  0  0
  148.8975  136.5616  160.5385 H   0  0  0  0  0  0  0  0  0  0  0  0
  148.7208  138.2928  160.8584 H   0  0  0  0  0  0  0  0  0  0  0  0
  149.9585  138.7402  156.4677 H   0  0  0  0  0  0  0  0  0  0  0  0
  147.7282  139.4182  153.0695 H   0  0  0  0  0  0  0  0  0  0  0  0
  146.2354  139.6382  153.9942 H   0  0  0  0  0  0  0  0  0  0  0  0
  146.6931  138.0266  153.4246 H   0  0  0  0  0  0  0  0  0  0  0  0
  1  2  1  0  0  0  0
  1 28  1  0  0  0  0
  1 29  1  0  0  0  0
  1 30  1  0  0  0  0
  2  3  2  0  0  0  0
  2  4  1  0  0  0  0
  4  5  1  0  0  0  0
  5  6  1  0  0  0  0
  5 31  1  0  0  0  0
  5 32  1  0  0  0  0
  6 23  1  0  0  0  0
  6  7  1  0  0  0  0
  6 33  1  0  0  0  0
  7  8  1  0  0  0  0
  8  9  1  0  0  0  0
  8 18  1  0  0  0  0
  8 34  1  0  0  0  0
  9 16  1  0  0  0  0
  9 10  1  0  0  0  0
 10 11  2  0  0  0  0
 10 35  1  0  0  0  0
 11 12  1  0  0  0  0
 11 13  1  0  0  0  0
 13 14  2  0  0  0  0
 13 15  1  0  0  0  0
 15 16  1  0  0  0  0
 16 17  2  0  0  0  0
 18 19  1  0  0  0  0
 18 23  1  0  0  0  0
 18 36  1  0  0  0  0
 19 20  1  0  0  0  0
 20 21  1  0  0  0  0
 20 22  2  0  0  0  0
 21 37  1  0  0  0  0
 21 38  1  0  0  0  0
 21 39  1  0  0  0  0
 23 24  1  0  0  0  0
 23 40  1  0  0  0  0
 24 25  1  0  0  0  0
 25 26  1  0  0  0  0
 25 27  2  0  0  0  0
 26 41  1  0  0  0  0
 26 42  1  0  0  0  0
 26 43  1  0  0  0  0
M  CHG  1  15  -1
M  END
> <s_m_source_file>
AV-unprocessed.smi

> <i_m_source_file_index>
102

> <i_lp_mmshare_version>
43012

> <i_f3d_flags>
0

> <s_epik_input>
W0NIM11DKD1PKU9bQ0gyXVtDQEBIXTFPW0NASF0oW0NAQEhdKE9DKD1PKVtDSDNdKVtDQEhdMU9DKD1PKVtDSDNdKW4yW2NIXWMoRiljKD1PKVtuSF1jMj1P

> <s_epik_cmdline>
J2VwaWtfcHl0aG9uJywgJy1waCcsICc3LjAnLCAnLXRuJywgJzgnLCAnLW1hJywgJzIwMCcsICctbWV0YWxfYmluZGluZycsICctaW1hZScsICc8aW5maWxlLm1hZT4nLCAnLW9tYWUnLCAnPG91dGZpbGUubWFlPic=

> <r_epik_Ionization_Penalty>
1.40304

> <r_epik_Ionization_Penalty_Charging>
1.43915e-08

> <r_epik_Ionization_Penalty_Neutral>
1.40304

> <r_epik_State_Penalty>
1.48536

> <r_epik_Charging_Adjusted_Penalty>
1.48536

> <i_epik_Tot_Q>
-1

> <i_epik_Tot_abs_Q>
1

> <r_epik_Metal_State_Penalty>
0.00663881

> <b_epik_Metal_Only>
0

> <s_epik_Chemistry_Notes>
This compound has an ester and may undergo hydrolysis at high or low pH. This compound contains an acetal/aminal-like group ( X-CH(R)-Y where X, Y are N, S, or O) that may be acid/base labile, releasing an aldehyde.

> <s_lp_Force_Field>
OPLS_2005

> <r_lp_Energy>
22.9576

> <b_lp_Chiralities_Consistent>
1

> <s_lp_Variant>
AV-unprocessed.smi:102-27

> <Gold.Version>
5.8.1

> <Gold.Id.Protein>
6NUR|6NUR_protein|mol2

> <Gold.PLP.Fitness>
46.8784

> <Gold.PLP.PLP>
-37.7712

> <Gold.PLP.part.hbond>
-4.7323

> <Gold.PLP.part.metal>
0.0000

> <Gold.PLP.part.buried>
-4.5158

> <Gold.PLP.part.nonpolar>
-28.5804

> <Gold.PLP.part.repulsive>
0.3656

> <Gold.PLP.ligand.clash>
0.0000

> <Gold.PLP.ligand.torsion>
1.5189

> <Gold.PLP.Chemscore.Hbond>
2.9913

> <Gold.PLP.Chemscore.CHOScore>
0.9869

> <Gold.PLP.Chemscore.Metal>
0.0000

> <Gold.Chemscore.Hbonds>
donor molecule, donor type, donor heavy atom, donor atom, acceptor molecule, acceptor atom, score
      P1  H  6896  6908       L1    17  0.85
      P1  H  7997  8010       L1     3  1.00
      P1  H 10752 10763       L1     7  1.00
      L1  C    10    35       P1  7948  1.00

> <Gold.PLP.Chemscore.Internal.Correction>
0.2108

> <Gold.Rescore>
     Score         DG    S(hbond)    S(metal)    S(lipo)     H(rot)  DE(clash)    DE(int)     intcor
      5.57     -10.26       2.82        0.00      47.69       4.00       0.12       4.56       ----

> <Gold.Chemscore.Fitness>
5.5748

> <Gold.Chemscore.DG>
-10.2569

> <Gold.Chemscore.ZeroCoef>
-5.4800

> <Gold.Chemscore.Hbond>
2.8219

> <Gold.Chemscore.Metal>
0.0000

> <Gold.Chemscore.Lipo>
47.6864

> <Gold.Chemscore.Internal_Hbond>
0.0000

> <Gold.Chemscore.DEClash>
0.1215

> <Gold.Chemscore.DEInternal>
4.5606

> <Gold.Chemscore.Rot>
3.9951

> <Gold.Chemscore.Internal.Correction>
   9.000000E+99

> <Gold.Chemscore.Hbonds>
donor molecule, donor type, donor heavy atom, donor atom, acceptor molecule, acceptor atom, score
      P1  H  6896  6908       L1    17  0.83
      P1  H  7997  8010       L1     3  0.98
      P1  H 10752 10763       L1     7  0.71

> <Gold.Chemscore.Hbond.Weighted>
-9.4251

> <Gold.Chemscore.Metal.Weighted>
-0.0000

> <Gold.Chemscore.Lipo.Weighted>
-5.5793

> <Gold.Chemscore.Internal_Hbond.Weighted>
0.0000

> <Gold.Chemscore.DEClash.Weighted>
0.1215

> <Gold.Chemscore.DEInternal.Weighted>
4.5606

> <Gold.Chemscore.Rot.Weighted>
10.2274

> <Gold.Chemscore.Internal.Correction.Weighted>
   9.000000E+99

> <Gold.Protein.RotatedTorsions>
[ 6907 6896 6895 6894 ] final   75.48 input  -60.11 | X-H torsion
[ 7974 7965 7964 7962 ] final -162.07 input  175.53 | X-H torsion
[ 8008 7997 7996 7995 ] final   84.90 input   59.86 | X-H torsion
[ 10167 10162 10161 10158 ] final  -89.71 input  -65.29 | X-H torsion
[ 10718 10713 10712 10709 ] final  130.16 input   66.30 | X-H torsion
[ 10763 10752 10751 10750 ] final   69.39 input  -60.55 | X-H torsion
[ 11005 11000 10999 10996 ] final   55.35 input  -57.11 | X-H torsion

> <Gold.Protein.ActiveResidues>
 VAL166  LYS551  ARG553  GLY616  TRP617  ASP618  TYR619  PRO620  LYS621  CYS622 
 ASP623  PHE694  ASN695  SER759  ASP760  ASP761  ALA762  ILE779  LEU786  VAL792 
 PHE793  MET794  SER795  GLU796  ALA797  LYS798  CYS799  TRP800  GLU811  SER814 

> <Gold.Protein.RotatedAtoms>
  152.5028  134.4113  159.9449 H   0  0  0  0  0  0  0  0  0  0  0  0  # atno 6907 bound_to 6896
  151.4082  133.3729  159.2748 H   0  0  0  0  0  0  0  0  0  0  0  0  # atno 6908 bound_to 6896
  150.9311  134.8748  159.7611 H   0  0  0  0  0  0  0  0  0  0  0  0  # atno 6909 bound_to 6896
  144.7370  140.3306  143.6153 H   0  0  0  0  0  0  0  0  0  0  0  0  # atno 7974 bound_to 7965
  155.9431  140.3406  155.6344 H   0  0  0  0  0  0  0  0  0  0  0  0  # atno 8008 bound_to 7997
  155.7015  140.0761  157.2427 H   0  0  0  0  0  0  0  0  0  0  0  0  # atno 8009 bound_to 7997
  154.4106  140.1639  156.2184 H   0  0  0  0  0  0  0  0  0  0  0  0  # atno 8010 bound_to 7997
  140.3621  143.2836  151.9601 H   0  0  0  0  0  0  0  0  0  0  0  0  # atno 10167 bound_to 10162
  157.5087  131.1096  150.9324 H   0  0  0  0  0  0  0  0  0  0  0  0  # atno 10718 bound_to 10713
  153.0285  135.5212  154.7281 H   0  0  0  0  0  0  0  0  0  0  0  0  # atno 10763 bound_to 10752
  154.6317  135.2901  155.0211 H   0  0  0  0  0  0  0  0  0  0  0  0  # atno 10764 bound_to 10752
  154.1161  135.6614  153.4946 H   0  0  0  0  0  0  0  0  0  0  0  0  # atno 10765 bound_to 10752
  140.0614  134.5598  155.9148 H   0  0  0  0  0  0  0  0  0  0  0  0  # atno 11005 bound_to 11000
  145.7475  139.1783  143.2340 LP  0  0  0  0  0  0  0  0  0  0  0  0  # atno 17320 bound_to 7965
  146.1086  140.7456  142.9514 LP  0  0  0  0  0  0  0  0  0  0  0  0  # atno 17321 bound_to 7965
  139.4813  144.5983  151.7651 LP  0  0  0  0  0  0  0  0  0  0  0  0  # atno 17342 bound_to 10162
  140.5116  144.1016  150.5997 LP  0  0  0  0  0  0  0  0  0  0  0  0  # atno 17343 bound_to 10162
  156.9971  130.5585  149.5308 LP  0  0  0  0  0  0  0  0  0  0  0  0  # atno 17370 bound_to 10713
  156.0275  130.5368  150.8446 LP  0  0  0  0  0  0  0  0  0  0  0  0  # atno 17371 bound_to 10713
  141.1974  133.6596  156.5742 LP  0  0  0  0  0  0  0  0  0  0  0  0  # atno 17394 bound_to 11000
  140.3765  134.7560  157.4633 LP  0  0  0  0  0  0  0  0  0  0  0  0  # atno 17395 bound_to 11000

$$$$
