AV-unprocessed.smi:2655|AV-procd|sdf|10298|dock3
  -GOLD-   2272014313D 1   1.00000     0.00000
 Structure written by MMmdl.
 33 34  0  0  0  0  0  0  0  0  2 V2000
  144.5519  134.9941  150.6059 C   0  0  0  0  0  0  0  0  0  0  0  0
  144.1885  135.7133  151.8728 C   0  0  0  0  0  0  0  0  0  0  0  0
  143.1114  135.3293  152.5504 N   0  0  0  0  0  0  0  0  0  0  0  0
  143.0694  136.1622  153.6076 N   0  0  0  0  0  0  0  0  0  0  0  0
  144.1087  137.0561  153.5932 C   0  0  0  0  0  0  0  0  0  0  0  0
  144.2496  137.9809  154.5604 O   0  5  0  0  0  0  0  0  0  0  0  0
  144.8710  136.8080  152.4888 C   0  0  0  0  0  0  0  0  0  0  0  0
  146.1162  137.5107  152.0225 C   0  0  0  0  0  0  0  0  0  0  0  0
  146.5285  138.6221  153.0001 C   0  0  0  0  0  0  0  0  0  0  0  0
  147.9756  138.7955  153.0334 N   0  0  0  0  0  0  0  0  0  0  0  0
  148.7389  138.6911  154.1304 C   0  0  0  0  0  0  0  0  0  0  0  0
  148.2922  138.4199  155.2451 O   0  0  0  0  0  0  0  0  0  0  0  0
  150.0312  138.9231  153.8443 N   0  0  0  0  0  0  0  0  0  0  0  0
  151.1442  138.9189  154.7240 C   0  0  0  0  0  0  0  0  0  0  0  0
  151.7232  137.7758  155.3482 C   0  0  0  0  0  0  0  0  0  0  0  0
  152.7473  138.3110  156.0772 C   0  0  0  0  0  0  0  0  0  0  0  0
  153.7737  137.7114  156.9761 C   0  0  0  0  0  0  0  0  0  0  0  0
  152.7906  139.6606  155.9139 O   0  0  0  0  0  0  0  0  0  0  0  0
  151.7611  140.0411  155.0452 N   0  0  0  0  0  0  0  0  0  0  0  0
  145.0001  135.6753  149.8824 H   0  0  0  0  0  0  0  0  0  0  0  0
  143.6770  134.5445  150.1353 H   0  0  0  0  0  0  0  0  0  0  0  0
  145.2708  134.1990  150.8030 H   0  0  0  0  0  0  0  0  0  0  0  0
  142.3444  136.1078  154.3084 H   0  0  0  0  0  0  0  0  0  0  0  0
  145.9642  137.9338  151.0291 H   0  0  0  0  0  0  0  0  0  0  0  0
  146.9370  136.8004  151.9170 H   0  0  0  0  0  0  0  0  0  0  0  0
  146.0415  139.5633  152.7388 H   0  0  0  0  0  0  0  0  0  0  0  0
  146.1963  138.3701  154.0077 H   0  0  0  0  0  0  0  0  0  0  0  0
  148.4241  139.0223  152.1579 H   0  0  0  0  0  0  0  0  0  0  0  0
  150.2442  139.1356  152.8809 H   0  0  0  0  0  0  0  0  0  0  0  0
  151.4480  136.7341  155.2843 H   0  0  0  0  0  0  0  0  0  0  0  0
  153.7824  136.6249  156.8867 H   0  0  0  0  0  0  0  0  0  0  0  0
  153.5693  137.9639  158.0167 H   0  0  0  0  0  0  0  0  0  0  0  0
  154.7693  138.0785  156.7268 H   0  0  0  0  0  0  0  0  0  0  0  0
  1 20  1  0  0  0  0
  1 21  1  0  0  0  0
  1 22  1  0  0  0  0
  1  2  1  0  0  0  0
  2  7  1  0  0  0  0
  2  3  2  0  0  0  0
  3  4  1  0  0  0  0
  4 23  1  0  0  0  0
  4  5  1  0  0  0  0
  5  7  2  0  0  0  0
  5  6  1  0  0  0  0
  7  8  1  0  0  0  0
  8  9  1  0  0  0  0
  8 24  1  0  0  0  0
  8 25  1  0  0  0  0
  9 10  1  0  0  0  0
  9 26  1  0  0  0  0
  9 27  1  0  0  0  0
 10 11  1  0  0  0  0
 10 28  1  0  0  0  0
 11 12  2  0  0  0  0
 11 13  1  0  0  0  0
 13 14  1  0  0  0  0
 13 29  1  0  0  0  0
 14 19  2  0  0  0  0
 14 15  1  0  0  0  0
 15 16  2  0  0  0  0
 15 30  1  0  0  0  0
 16 17  1  0  0  0  0
 16 18  1  0  0  0  0
 17 31  1  0  0  0  0
 17 32  1  0  0  0  0
 17 33  1  0  0  0  0
 18 19  1  0  0  0  0
M  CHG  1   6  -1
M  END
> <s_m_source_file>
AV-unprocessed.smi

> <i_m_source_file_index>
2655

> <i_lp_mmshare_version>
43012

> <i_f3d_flags>
0

> <s_epik_input>
W0NIM11DMT1OW05IXUMoPU8pW0NASF0xW0NIMl1bQ0gyXVtOSF1DKD1PKVtOSF1jMltjSF1jKFtDSDNdKW9uMg==

> <s_epik_cmdline>
J2VwaWtfcHl0aG9uJywgJy1waCcsICc3LjAnLCAnLXRuJywgJzgnLCAnLW1hJywgJzIwMCcsICctbWV0YWxfYmluZGluZycsICctaW1hZScsICc8aW5maWxlLm1hZT4nLCAnLW9tYWUnLCAnPG91dGZpbGUubWFlPic=

> <r_lp_tautomer_probability>
0.99495

> <r_epik_Ionization_Penalty>
1.68606

> <r_epik_Ionization_Penalty_Charging>
0.00156442

> <r_epik_Ionization_Penalty_Neutral>
1.68449

> <r_epik_State_Penalty>
0.315845

> <r_epik_Charging_Adjusted_Penalty>
0.31741

> <i_epik_Tot_Q>
-1

> <i_epik_Tot_abs_Q>
1

> <r_epik_Metal_State_Penalty>
0.0445802

> <b_epik_Metal_Only>
0

> <s_lp_Force_Field>
OPLS_2005

> <r_lp_Energy>
-3.25288

> <b_lp_Chiralities_Consistent>
1

> <s_lp_Variant>
AV-unprocessed.smi:2655-1

> <Gold.Version>
5.8.1

> <Gold.Id.Protein>
6NUR|6NUR_protein|mol2

> <Gold.PLP.Fitness>
38.4108

> <Gold.PLP.PLP>
-28.3370

> <Gold.PLP.part.hbond>
-5.0000

> <Gold.PLP.part.metal>
0.0000

> <Gold.PLP.part.buried>
-4.6669

> <Gold.PLP.part.nonpolar>
-20.8108

> <Gold.PLP.part.repulsive>
0.5518

> <Gold.PLP.ligand.clash>
0.0000

> <Gold.PLP.ligand.torsion>
0.8751

> <Gold.PLP.Chemscore.Hbond>
3.9360

> <Gold.PLP.Chemscore.CHOScore>
0.0000

> <Gold.PLP.Chemscore.Metal>
0.0000

> <Gold.Chemscore.Hbonds>
donor molecule, donor type, donor heavy atom, donor atom, acceptor molecule, acceptor atom, score
      L1  H    10    28       P1  7957  1.00
      L1  H    13    29       P1  7957  0.94
      P1  H  7989  7998       L1    19  0.91
      P1  H  7997  8010       L1    18  1.00

> <Gold.PLP.Chemscore.Internal.Correction>
0.0159

> <Gold.Rescore>
     Score         DG    S(hbond)    S(metal)    S(lipo)     H(rot)  DE(clash)    DE(int)     intcor
     15.34     -17.71       3.39        0.00      48.30       1.85       0.09       2.27       ----

> <Gold.Chemscore.Fitness>
15.3449

> <Gold.Chemscore.DG>
-17.7075

> <Gold.Chemscore.ZeroCoef>
-5.4800

> <Gold.Chemscore.Hbond>
3.3872

> <Gold.Chemscore.Metal>
0.0000

> <Gold.Chemscore.Lipo>
48.3003

> <Gold.Chemscore.Internal_Hbond>
0.0000

> <Gold.Chemscore.DEClash>
0.0932

> <Gold.Chemscore.DEInternal>
2.2693

> <Gold.Chemscore.Rot>
1.8504

> <Gold.Chemscore.Internal.Correction>
   9.000000E+99

> <Gold.Chemscore.Hbonds>
donor molecule, donor type, donor heavy atom, donor atom, acceptor molecule, acceptor atom, score
      L1  H    10    28       P1  7957  0.96
      L1  H    13    29       P1  7957  0.63
      P1  H  7989  7998       L1    19  0.20
      P1  H  7997  8010       L1    18  0.65

> <Gold.Chemscore.Hbond.Weighted>
-11.3133

> <Gold.Chemscore.Metal.Weighted>
-0.0000

> <Gold.Chemscore.Lipo.Weighted>
-5.6511

> <Gold.Chemscore.Internal_Hbond.Weighted>
0.0000

> <Gold.Chemscore.DEClash.Weighted>
0.0932

> <Gold.Chemscore.DEInternal.Weighted>
2.2693

> <Gold.Chemscore.Rot.Weighted>
4.7369

> <Gold.Chemscore.Internal.Correction.Weighted>
   9.000000E+99

> <Gold.Protein.RotatedTorsions>
[ 6907 6896 6895 6894 ] final -176.19 input  -60.11 | X-H torsion
[ 7974 7965 7964 7962 ] final -159.38 input  175.53 | X-H torsion
[ 8008 7997 7996 7995 ] final   88.83 input   59.86 | X-H torsion
[ 10167 10162 10161 10158 ] final -117.43 input  -65.29 | X-H torsion
[ 10718 10713 10712 10709 ] final   37.79 input   66.30 | X-H torsion
[ 10763 10752 10751 10750 ] final   -2.07 input  -60.55 | X-H torsion
[ 11005 11000 10999 10996 ] final   50.30 input  -57.11 | X-H torsion

> <Gold.Protein.ActiveResidues>
 VAL166  LYS551  ARG553  GLY616  TRP617  ASP618  TYR619  PRO620  LYS621  CYS622 
 ASP623  PHE694  ASN695  SER759  ASP760  ASP761  ALA762  ILE779  LEU786  VAL792 
 PHE793  MET794  SER795  GLU796  ALA797  LYS798  CYS799  TRP800  GLU811  SER814 

> <Gold.Protein.RotatedAtoms>
  151.6008  133.3356  159.3046 H   0  0  0  0  0  0  0  0  0  0  0  0  # atno 6907 bound_to 6896
  150.8209  134.7419  159.6782 H   0  0  0  0  0  0  0  0  0  0  0  0  # atno 6908 bound_to 6896
  152.4302  134.5797  159.9996 H   0  0  0  0  0  0  0  0  0  0  0  0  # atno 6909 bound_to 6896
  144.7467  140.3693  143.6079 H   0  0  0  0  0  0  0  0  0  0  0  0  # atno 7974 bound_to 7965
  155.9926  140.3367  155.6767 H   0  0  0  0  0  0  0  0  0  0  0  0  # atno 8008 bound_to 7997
  155.6400  140.0694  157.2639 H   0  0  0  0  0  0  0  0  0  0  0  0  # atno 8009 bound_to 7997
  154.4224  140.1744  156.1550 H   0  0  0  0  0  0  0  0  0  0  0  0  # atno 8010 bound_to 7997
  140.0684  143.4901  152.1993 H   0  0  0  0  0  0  0  0  0  0  0  0  # atno 10167 bound_to 10162
  157.3511  130.7599  149.6979 H   0  0  0  0  0  0  0  0  0  0  0  0  # atno 10718 bound_to 10713
  153.3531  135.6986  153.6772 H   0  0  0  0  0  0  0  0  0  0  0  0  # atno 10763 bound_to 10752
  153.5491  135.3557  155.2752 H   0  0  0  0  0  0  0  0  0  0  0  0  # atno 10764 bound_to 10752
  154.8656  135.4222  154.2771 H   0  0  0  0  0  0  0  0  0  0  0  0  # atno 10765 bound_to 10752
  140.1029  134.5057  155.8746 H   0  0  0  0  0  0  0  0  0  0  0  0  # atno 11005 bound_to 11000
  145.7095  139.1681  143.2547 LP  0  0  0  0  0  0  0  0  0  0  0  0  # atno 17320 bound_to 7965
  146.1357  140.7125  142.9391 LP  0  0  0  0  0  0  0  0  0  0  0  0  # atno 17321 bound_to 7965
  139.5851  144.7527  151.3541 LP  0  0  0  0  0  0  0  0  0  0  0  0  # atno 17342 bound_to 10162
  140.7138  143.7321  150.7616 LP  0  0  0  0  0  0  0  0  0  0  0  0  # atno 17343 bound_to 10162
  155.9722  130.4140  150.4111 LP  0  0  0  0  0  0  0  0  0  0  0  0  # atno 17370 bound_to 10713
  157.2174  131.0474  151.2565 LP  0  0  0  0  0  0  0  0  0  0  0  0  # atno 17371 bound_to 10713
  141.2110  133.6702  156.6553 LP  0  0  0  0  0  0  0  0  0  0  0  0  # atno 17394 bound_to 11000
  140.3196  134.8019  157.4241 LP  0  0  0  0  0  0  0  0  0  0  0  0  # atno 17395 bound_to 11000

$$$$
