AV-unprocessed.smi:3303|AV-procd|sdf|12686|dock9
  -GOLD-   2272019 23D 1   1.00000     0.00000
 Structure written by MMmdl.
 44 45  0  0  0  0  0  0  0  0  2 V2000
  149.8060  139.5547  154.3292 C   0  0  0  0  0  0  0  0  0  0  0  0
  149.5533  140.9199  155.0027 C   0  0  1  0  0  0  0  0  0  0  0  0
  148.1583  141.4689  154.6391 C   0  0  0  0  0  0  0  0  0  0  0  0
  147.0765  140.7123  155.3216 N   0  3  2  0  0  0  0  0  0  0  0  0
  145.7274  141.0669  154.8260 C   0  0  0  0  0  0  0  0  0  0  0  0
  147.1993  140.7043  156.8080 C   0  0  2  0  0  0  0  0  0  0  0  0
  146.8913  142.0687  157.4622 C   0  0  0  0  0  0  0  0  0  0  0  0
  148.5788  140.1542  157.2234 C   0  0  0  0  0  0  0  0  0  0  0  0
  149.7333  140.9146  156.5441 C   0  0  1  0  0  0  0  0  0  0  0  0
  150.9972  140.3237  156.9717 N   0  0  0  0  0  0  0  0  0  0  0  0
  151.3032  140.6259  158.3626 C   0  0  0  0  0  0  0  0  0  0  0  0
  151.7702  142.0828  158.4817 C   0  0  0  0  0  0  0  0  0  0  0  0
  152.1290  142.4495  159.9090 C   0  0  0  0  0  0  0  0  0  0  0  0
  153.1769  141.7850  160.5814 C   0  0  0  0  0  0  0  0  0  0  0  0
  153.4770  142.1700  161.9023 C   0  0  0  0  0  0  0  0  0  0  0  0
  152.7226  143.1996  162.4967 C   0  0  0  0  0  0  0  0  0  0  0  0
  151.6973  143.8015  161.7400 C   0  0  0  0  0  0  0  0  0  0  0  0
  151.4017  143.4406  160.4726 N   0  0  0  0  0  0  0  0  0  0  0  0
  149.1170  138.7887  154.6839 H   0  0  0  0  0  0  0  0  0  0  0  0
  150.8200  139.1985  154.5123 H   0  0  0  0  0  0  0  0  0  0  0  0
  149.6855  139.6267  153.2483 H   0  0  0  0  0  0  0  0  0  0  0  0
  150.2770  141.6155  154.5773 H   0  0  0  0  0  0  0  0  0  0  0  0
  148.0903  142.5252  154.9004 H   0  0  0  0  0  0  0  0  0  0  0  0
  148.0145  141.4156  153.5589 H   0  0  0  0  0  0  0  0  0  0  0  0
  145.5125  142.1256  154.9730 H   0  0  0  0  0  0  0  0  0  0  0  0
  144.9604  140.4836  155.3366 H   0  0  0  0  0  0  0  0  0  0  0  0
  145.6490  140.8545  153.7594 H   0  0  0  0  0  0  0  0  0  0  0  0
  146.4544  140.0006  157.1821 H   0  0  0  0  0  0  0  0  0  0  0  0
  147.0011  142.0080  158.5452 H   0  0  0  0  0  0  0  0  0  0  0  0
  145.8675  142.3886  157.2687 H   0  0  0  0  0  0  0  0  0  0  0  0
  147.5576  142.8577  157.1152 H   0  0  0  0  0  0  0  0  0  0  0  0
  148.6836  140.2026  158.3082 H   0  0  0  0  0  0  0  0  0  0  0  0
  148.6330  139.0949  156.9682 H   0  0  0  0  0  0  0  0  0  0  0  0
  149.7094  141.9441  156.9041 H   0  0  0  0  0  0  0  0  0  0  0  0
  150.9501  139.3203  156.8619 H   0  0  0  0  0  0  0  0  0  0  0  0
  150.4229  140.4747  158.9868 H   0  0  0  0  0  0  0  0  0  0  0  0
  152.0831  139.9537  158.7229 H   0  0  0  0  0  0  0  0  0  0  0  0
  152.6388  142.2544  157.8437 H   0  0  0  0  0  0  0  0  0  0  0  0
  150.9895  142.7566  158.1256 H   0  0  0  0  0  0  0  0  0  0  0  0
  153.7400  141.0003  160.0978 H   0  0  0  0  0  0  0  0  0  0  0  0
  154.2720  141.6844  162.4488 H   0  0  0  0  0  0  0  0  0  0  0  0
  152.9251  143.5210  163.5076 H   0  0  0  0  0  0  0  0  0  0  0  0
  151.0992  144.5945  162.1637 H   0  0  0  0  0  0  0  0  0  0  0  0
  147.2138  139.7505  155.0449 H   0  0  0  0  0  0  0  0  0  0  0  0
  1  2  1  0  0  0  0
  1 19  1  0  0  0  0
  1 20  1  0  0  0  0
  1 21  1  0  0  0  0
  2  9  1  0  0  0  0
  2  3  1  0  0  0  0
  2 22  1  0  0  0  0
  3  4  1  0  0  0  0
  3 23  1  0  0  0  0
  3 24  1  0  0  0  0
  4  5  1  0  0  0  0
  4  6  1  0  0  0  0
  4 44  1  0  0  0  0
  5 25  1  0  0  0  0
  5 26  1  0  0  0  0
  5 27  1  0  0  0  0
  6  7  1  0  0  0  0
  6  8  1  0  0  0  0
  6 28  1  0  0  0  0
  7 29  1  0  0  0  0
  7 30  1  0  0  0  0
  7 31  1  0  0  0  0
  8  9  1  0  0  0  0
  8 32  1  0  0  0  0
  8 33  1  0  0  0  0
  9 10  1  0  0  0  0
  9 34  1  0  0  0  0
 10 11  1  0  0  0  0
 10 35  1  0  0  0  0
 11 12  1  0  0  0  0
 11 36  1  0  0  0  0
 11 37  1  0  0  0  0
 12 13  1  0  0  0  0
 12 38  1  0  0  0  0
 12 39  1  0  0  0  0
 13 18  1  0  0  0  0
 13 14  2  0  0  0  0
 14 15  1  0  0  0  0
 14 40  1  0  0  0  0
 15 16  2  0  0  0  0
 15 41  1  0  0  0  0
 16 17  1  0  0  0  0
 16 42  1  0  0  0  0
 17 18  2  0  0  0  0
 17 43  1  0  0  0  0
M  CHG  1   4   1
M  END
> <s_m_source_file>
AV-unprocessed.smi

> <i_m_source_file_index>
3303

> <i_lp_mmshare_version>
43012

> <i_f3d_flags>
0

> <s_epik_input>
W0NIM11bQ0BASF0xW0NIMl1OKFtDSDNdKVtDQEBIXShbQ0gzXSlbQ0gyXVtDQEhdMVtOSF1bQ0gyXVtDSDJdYzJbY0hdW2NIXVtjSF1bY0hdbjI=

> <s_epik_cmdline>
J2VwaWtfcHl0aG9uJywgJy1waCcsICc3LjAnLCAnLXRuJywgJzgnLCAnLW1hJywgJzIwMCcsICctbWV0YWxfYmluZGluZycsICctaW1hZScsICc8aW5maWxlLm1hZT4nLCAnLW9tYWUnLCAnPG91dGZpbGUubWFlPic=

> <r_epik_Ionization_Penalty>
2.31085

> <r_epik_Ionization_Penalty_Charging>
0.000313057

> <r_epik_Ionization_Penalty_Neutral>
2.31054

> <r_epik_State_Penalty>
2.4087

> <r_epik_Charging_Adjusted_Penalty>
2.40902

> <i_epik_Tot_Q>
1

> <i_epik_Tot_abs_Q>
1

> <r_epik_Metal_State_Penalty>
2.30979

> <b_epik_Metal_Only>
0

> <s_lp_Force_Field>
OPLS_2005

> <r_lp_Energy>
26.3275

> <b_lp_Chiralities_Consistent>
1

> <s_lp_Variant>
AV-unprocessed.smi:3303-30

> <Gold.Version>
5.8.1

> <Gold.Id.Protein>
6NUR|6NUR_protein|mol2

> <Gold.PLP.Fitness>
38.2535

> <Gold.PLP.PLP>
-38.5320

> <Gold.PLP.part.hbond>
0.0000

> <Gold.PLP.part.metal>
0.0000

> <Gold.PLP.part.buried>
-3.5213

> <Gold.PLP.part.nonpolar>
-34.1003

> <Gold.PLP.part.repulsive>
0.0694

> <Gold.PLP.ligand.clash>
0.0000

> <Gold.PLP.ligand.torsion>
0.1423

> <Gold.PLP.Chemscore.Hbond>
0.0000

> <Gold.PLP.Chemscore.CHOScore>
0.0000

> <Gold.PLP.Chemscore.Metal>
0.0000

> <Gold.PLP.Chemscore.Internal.Correction>
0.0062

> <Gold.Rescore>
     Score         DG    S(hbond)    S(metal)    S(lipo)     H(rot)  DE(clash)    DE(int)     intcor
     14.30     -14.49       0.00        0.00     106.04       1.33       0.01       0.18       ----

> <Gold.Chemscore.Fitness>
14.3047

> <Gold.Chemscore.DG>
-14.4894

> <Gold.Chemscore.ZeroCoef>
-5.4800

> <Gold.Chemscore.Hbond>
0.0000

> <Gold.Chemscore.Metal>
0.0000

> <Gold.Chemscore.Lipo>
106.0435

> <Gold.Chemscore.Internal_Hbond>
0.0000

> <Gold.Chemscore.DEClash>
0.0089

> <Gold.Chemscore.DEInternal>
0.1759

> <Gold.Chemscore.Rot>
1.3272

> <Gold.Chemscore.Internal.Correction>
   9.000000E+99

> <Gold.Chemscore.Hbond.Weighted>
-0.0000

> <Gold.Chemscore.Metal.Weighted>
-0.0000

> <Gold.Chemscore.Lipo.Weighted>
-12.4071

> <Gold.Chemscore.Internal_Hbond.Weighted>
0.0000

> <Gold.Chemscore.DEClash.Weighted>
0.0089

> <Gold.Chemscore.DEInternal.Weighted>
0.1759

> <Gold.Chemscore.Rot.Weighted>
3.3976

> <Gold.Chemscore.Internal.Correction.Weighted>
   9.000000E+99

> <Gold.Protein.RotatedTorsions>
[ 6907 6896 6895 6894 ] final  -31.48 input  -60.11 | X-H torsion
[ 7974 7965 7964 7962 ] final  -95.46 input  175.53 | X-H torsion
[ 8008 7997 7996 7995 ] final  -71.51 input   59.86 | X-H torsion
[ 10167 10162 10161 10158 ] final   42.59 input  -65.29 | X-H torsion
[ 10718 10713 10712 10709 ] final  -69.66 input   66.30 | X-H torsion
[ 10763 10752 10751 10750 ] final  -36.63 input  -60.55 | X-H torsion
[ 11005 11000 10999 10996 ] final -174.08 input  -57.11 | X-H torsion

> <Gold.Protein.ActiveResidues>
 VAL166  LYS551  ARG553  GLY616  TRP617  ASP618  TYR619  PRO620  LYS621  CYS622 
 ASP623  PHE694  ASN695  SER759  ASP760  ASP761  ALA762  ILE779  LEU786  VAL792 
 PHE793  MET794  SER795  GLU796  ALA797  LYS798  CYS799  TRP800  GLU811  SER814 

> <Gold.Protein.RotatedAtoms>
  151.0915  134.9919  159.8404 H   0  0  0  0  0  0  0  0  0  0  0  0  # atno 6907 bound_to 6896
  152.5429  134.2060  159.8741 H   0  0  0  0  0  0  0  0  0  0  0  0  # atno 6908 bound_to 6896
  151.2097  133.4519  159.2631 H   0  0  0  0  0  0  0  0  0  0  0  0  # atno 6909 bound_to 6896
  145.3598  140.9490  143.2507 H   0  0  0  0  0  0  0  0  0  0  0  0  # atno 7974 bound_to 7965
  154.5094  140.0814  156.7959 H   0  0  0  0  0  0  0  0  0  0  0  0  # atno 8008 bound_to 7997
  155.3820  140.3428  155.4229 H   0  0  0  0  0  0  0  0  0  0  0  0  # atno 8009 bound_to 7997
  156.1555  140.1572  156.8688 H   0  0  0  0  0  0  0  0  0  0  0  0  # atno 8010 bound_to 7997
  140.3528  144.2328  150.6144 H   0  0  0  0  0  0  0  0  0  0  0  0  # atno 10167 bound_to 10162
  156.0445  130.4316  150.2180 H   0  0  0  0  0  0  0  0  0  0  0  0  # atno 10718 bound_to 10713
  153.8828  135.6820  153.4766 H   0  0  0  0  0  0  0  0  0  0  0  0  # atno 10763 bound_to 10752
  153.1224  135.4734  154.9215 H   0  0  0  0  0  0  0  0  0  0  0  0  # atno 10764 bound_to 10752
  154.7660  135.3224  154.8237 H   0  0  0  0  0  0  0  0  0  0  0  0  # atno 10765 bound_to 10752
  140.4785  134.6098  157.4910 H   0  0  0  0  0  0  0  0  0  0  0  0  # atno 11005 bound_to 11000
  144.8655  139.5114  143.6792 LP  0  0  0  0  0  0  0  0  0  0  0  0  # atno 17320 bound_to 7965
  146.2932  139.7201  142.9145 LP  0  0  0  0  0  0  0  0  0  0  0  0  # atno 17321 bound_to 7965
  140.5202  143.2268  151.8400 LP  0  0  0  0  0  0  0  0  0  0  0  0  # atno 17342 bound_to 10162
  139.4824  144.4846  151.9263 LP  0  0  0  0  0  0  0  0  0  0  0  0  # atno 17343 bound_to 10162
  157.0271  130.9996  151.3323 LP  0  0  0  0  0  0  0  0  0  0  0  0  # atno 17370 bound_to 10713
  157.5303  130.8054  149.7910 LP  0  0  0  0  0  0  0  0  0  0  0  0  # atno 17371 bound_to 10713
  139.9841  134.7090  155.9806 LP  0  0  0  0  0  0  0  0  0  0  0  0  # atno 17394 bound_to 11000
  141.1543  133.6544  156.4111 LP  0  0  0  0  0  0  0  0  0  0  0  0  # atno 17395 bound_to 11000

$$$$
