AV-unprocessed.smi:653|AV-procd|sdf|3205|dock3
  -GOLD-   22720 0143D 1   1.00000     0.00000
 Structure written by MMmdl.
 44 45  0  0  0  0  0  0  0  0  1 V2000
  153.1324  142.9279  162.7712 C   0  0  0  0  0  0  0  0  0  0  0  0
  152.6967  143.0900  161.3298 C   0  0  0  0  0  0  0  0  0  0  0  0
  151.9879  144.2379  160.9172 C   0  0  0  0  0  0  0  0  0  0  0  0
  151.6106  144.3431  159.5649 C   0  0  0  0  0  0  0  0  0  0  0  0
  151.9555  143.3010  158.6792 C   0  0  0  0  0  0  0  0  0  0  0  0
  151.5751  143.3678  157.2117 C   0  0  0  0  0  0  0  0  0  0  0  0
  150.7017  142.1707  156.8349 C   0  0  0  0  0  0  0  0  0  0  0  0
  151.2144  141.0635  156.6714 O   0  0  0  0  0  0  0  0  0  0  0  0
  149.3874  142.4078  156.7008 N   0  0  0  0  0  0  0  0  0  0  0  0
  148.3734  141.4104  156.3705 C   0  0  0  0  0  0  0  0  0  0  0  0
  147.2236  142.0025  155.5179 C   0  0  1  0  0  0  0  0  0  0  0  0
  147.6321  142.3004  154.0816 C   0  0  0  0  0  0  0  0  0  0  0  0
  147.4487  140.9540  153.3796 C   0  0  0  0  0  0  0  0  0  0  0  0
  146.5734  140.1953  154.2101 O   0  0  0  0  0  0  0  0  0  0  0  0
  146.0655  141.0241  155.2492 C   0  0  1  0  0  0  0  0  0  0  0  0
  145.5431  140.1872  156.4394 C   0  0  0  0  0  0  0  0  0  0  0  0
  144.3995  139.2585  156.0003 C   0  0  0  0  0  0  0  0  0  0  0  0
  145.0735  141.0791  157.6014 C   0  0  0  0  0  0  0  0  0  0  0  0
  152.6664  142.1960  159.1939 C   0  0  0  0  0  0  0  0  0  0  0  0
  153.0326  142.0867  160.4889 N   0  0  0  0  0  0  0  0  0  0  0  0
  152.4785  143.4887  163.4396 H   0  0  0  0  0  0  0  0  0  0  0  0
  154.1509  143.2951  162.8993 H   0  0  0  0  0  0  0  0  0  0  0  0
  153.1038  141.8800  163.0724 H   0  0  0  0  0  0  0  0  0  0  0  0
  151.7399  145.0216  161.6180 H   0  0  0  0  0  0  0  0  0  0  0  0
  151.0694  145.2099  159.2151 H   0  0  0  0  0  0  0  0  0  0  0  0
  151.0530  144.3039  157.0073 H   0  0  0  0  0  0  0  0  0  0  0  0
  152.4744  143.3676  156.5944 H   0  0  0  0  0  0  0  0  0  0  0  0
  149.0615  143.3511  156.8538 H   0  0  0  0  0  0  0  0  0  0  0  0
  148.8160  140.5435  155.8771 H   0  0  0  0  0  0  0  0  0  0  0  0
  147.9856  141.0464  157.3210 H   0  0  0  0  0  0  0  0  0  0  0  0
  146.8539  142.9068  156.0033 H   0  0  0  0  0  0  0  0  0  0  0  0
  146.9414  143.0283  153.6536 H   0  0  0  0  0  0  0  0  0  0  0  0
  148.6362  142.7065  153.9671 H   0  0  0  0  0  0  0  0  0  0  0  0
  147.0319  141.0758  152.3797 H   0  0  0  0  0  0  0  0  0  0  0  0
  148.3974  140.4238  153.2907 H   0  0  0  0  0  0  0  0  0  0  0  0
  145.2296  141.5876  154.8291 H   0  0  0  0  0  0  0  0  0  0  0  0
  146.3490  139.5494  156.8029 H   0  0  0  0  0  0  0  0  0  0  0  0
  143.5529  139.8269  155.6132 H   0  0  0  0  0  0  0  0  0  0  0  0
  144.0409  138.6551  156.8347 H   0  0  0  0  0  0  0  0  0  0  0  0
  144.7236  138.5706  155.2190 H   0  0  0  0  0  0  0  0  0  0  0  0
  144.2593  141.7349  157.2909 H   0  0  0  0  0  0  0  0  0  0  0  0
  145.8780  141.7085  157.9804 H   0  0  0  0  0  0  0  0  0  0  0  0
  144.7138  140.4771  158.4363 H   0  0  0  0  0  0  0  0  0  0  0  0
  152.9511  141.3779  158.5486 H   0  0  0  0  0  0  0  0  0  0  0  0
  1  2  1  0  0  0  0
  1 21  1  0  0  0  0
  1 22  1  0  0  0  0
  1 23  1  0  0  0  0
  2 20  1  0  0  0  0
  2  3  2  0  0  0  0
  3  4  1  0  0  0  0
  3 24  1  0  0  0  0
  4  5  2  0  0  0  0
  4 25  1  0  0  0  0
  5  6  1  0  0  0  0
  5 19  1  0  0  0  0
  6  7  1  0  0  0  0
  6 26  1  0  0  0  0
  6 27  1  0  0  0  0
  7  8  2  0  0  0  0
  7  9  1  0  0  0  0
  9 10  1  0  0  0  0
  9 28  1  0  0  0  0
 10 11  1  0  0  0  0
 10 29  1  0  0  0  0
 10 30  1  0  0  0  0
 11 15  1  0  0  0  0
 11 12  1  0  0  0  0
 11 31  1  0  0  0  0
 12 13  1  0  0  0  0
 12 32  1  0  0  0  0
 12 33  1  0  0  0  0
 13 14  1  0  0  0  0
 13 34  1  0  0  0  0
 13 35  1  0  0  0  0
 14 15  1  0  0  0  0
 15 16  1  0  0  0  0
 15 36  1  0  0  0  0
 16 17  1  0  0  0  0
 16 18  1  0  0  0  0
 16 37  1  0  0  0  0
 17 38  1  0  0  0  0
 17 39  1  0  0  0  0
 17 40  1  0  0  0  0
 18 41  1  0  0  0  0
 18 42  1  0  0  0  0
 18 43  1  0  0  0  0
 19 20  2  0  0  0  0
 19 44  1  0  0  0  0
M  END
> <s_m_source_file>
AV-unprocessed.smi

> <i_m_source_file_index>
653

> <i_lp_mmshare_version>
43012

> <i_f3d_flags>
0

> <s_epik_input>
W0NIM11jMVtjSF1bY0hdYyhbY0hdbjEpW0NIMl1DKD1PKVtOSF1bQ0gyXVtDQEBIXTJbQ0gyXVtDSDJdT1tDQEhdMltDSF0oW0NIM10pW0NIM10=

> <s_epik_cmdline>
J2VwaWtfcHl0aG9uJywgJy1waCcsICc3LjAnLCAnLXRuJywgJzgnLCAnLW1hJywgJzIwMCcsICctbWV0YWxfYmluZGluZycsICctaW1hZScsICc8aW5maWxlLm1hZT4nLCAnLW9tYWUnLCAnPG91dGZpbGUubWFlPic=

> <r_epik_Ionization_Penalty>
0.0166429

> <r_epik_Ionization_Penalty_Charging>
0

> <r_epik_Ionization_Penalty_Neutral>
0.0166429

> <r_epik_State_Penalty>
0.0131478

> <r_epik_Charging_Adjusted_Penalty>
0.0131478

> <i_epik_Tot_Q>
0

> <i_epik_Tot_abs_Q>
0

> <r_epik_Metal_State_Penalty>
0.012786

> <b_epik_Metal_Only>
0

> <s_lp_Force_Field>
OPLS_2005

> <r_lp_Energy>
21.9695

> <b_lp_Chiralities_Consistent>
1

> <s_lp_Variant>
AV-unprocessed.smi:653-2

> <Gold.Version>
5.8.1

> <Gold.Id.Protein>
6NUR|6NUR_protein|mol2

> <Gold.PLP.Fitness>
39.8621

> <Gold.PLP.PLP>
-38.6970

> <Gold.PLP.part.hbond>
-1.0000

> <Gold.PLP.part.metal>
0.0000

> <Gold.PLP.part.buried>
-5.7571

> <Gold.PLP.part.nonpolar>
-31.9980

> <Gold.PLP.part.repulsive>
0.1521

> <Gold.PLP.ligand.clash>
0.0000

> <Gold.PLP.ligand.torsion>
0.4497

> <Gold.PLP.Chemscore.Hbond>
0.6560

> <Gold.PLP.Chemscore.CHOScore>
0.0000

> <Gold.PLP.Chemscore.Metal>
0.0000

> <Gold.Chemscore.Hbonds>
donor molecule, donor type, donor heavy atom, donor atom, acceptor molecule, acceptor atom, score
      L1  H     9    28       P1  8028  0.61

> <Gold.PLP.Chemscore.Internal.Correction>
0.0965

> <Gold.Rescore>
     Score         DG    S(hbond)    S(metal)    S(lipo)     H(rot)  DE(clash)    DE(int)     intcor
     16.84     -17.43       0.98        0.00     106.60       1.48       0.22       0.37       ----

> <Gold.Chemscore.Fitness>
16.8376

> <Gold.Chemscore.DG>
-17.4284

> <Gold.Chemscore.ZeroCoef>
-5.4800

> <Gold.Chemscore.Hbond>
0.9815

> <Gold.Chemscore.Metal>
0.0000

> <Gold.Chemscore.Lipo>
106.5972

> <Gold.Chemscore.Internal_Hbond>
0.0000

> <Gold.Chemscore.DEClash>
0.2167

> <Gold.Chemscore.DEInternal>
0.3741

> <Gold.Chemscore.Rot>
1.4850

> <Gold.Chemscore.Internal.Correction>
   9.000000E+99

> <Gold.Chemscore.Hbonds>
donor molecule, donor type, donor heavy atom, donor atom, acceptor molecule, acceptor atom, score
      L1  H     9    28       P1  8028  0.53

> <Gold.Chemscore.Hbond.Weighted>
-3.2781

> <Gold.Chemscore.Metal.Weighted>
-0.0000

> <Gold.Chemscore.Lipo.Weighted>
-12.4719

> <Gold.Chemscore.Internal_Hbond.Weighted>
0.0000

> <Gold.Chemscore.DEClash.Weighted>
0.2167

> <Gold.Chemscore.DEInternal.Weighted>
0.3741

> <Gold.Chemscore.Rot.Weighted>
3.8015

> <Gold.Chemscore.Internal.Correction.Weighted>
   9.000000E+99

> <Gold.Protein.RotatedTorsions>
[ 6907 6896 6895 6894 ] final -174.88 input  -60.11 | X-H torsion
[ 7974 7965 7964 7962 ] final -162.93 input  175.53 | X-H torsion
[ 8008 7997 7996 7995 ] final  -68.06 input   59.86 | X-H torsion
[ 10167 10162 10161 10158 ] final   74.39 input  -65.29 | X-H torsion
[ 10718 10713 10712 10709 ] final  -36.78 input   66.30 | X-H torsion
[ 10763 10752 10751 10750 ] final  -64.40 input  -60.55 | X-H torsion
[ 11005 11000 10999 10996 ] final   55.10 input  -57.11 | X-H torsion

> <Gold.Protein.ActiveResidues>
 VAL166  LYS551  ARG553  GLY616  TRP617  ASP618  TYR619  PRO620  LYS621  CYS622 
 ASP623  PHE694  ASN695  SER759  ASP760  ASP761  ALA762  ILE779  LEU786  VAL792 
 PHE793  MET794  SER795  GLU796  ALA797  LYS798  CYS799  TRP800  GLU811  SER814 

> <Gold.Protein.RotatedAtoms>
  151.5795  133.3379  159.3005 H   0  0  0  0  0  0  0  0  0  0  0  0  # atno 6907 bound_to 6896
  150.8321  134.7582  159.6874 H   0  0  0  0  0  0  0  0  0  0  0  0  # atno 6908 bound_to 6896
  152.4403  134.5610  159.9946 H   0  0  0  0  0  0  0  0  0  0  0  0  # atno 6909 bound_to 6896
  144.7342  140.3182  143.6176 H   0  0  0  0  0  0  0  0  0  0  0  0  # atno 7974 bound_to 7965
  154.4842  140.0880  156.7448 H   0  0  0  0  0  0  0  0  0  0  0  0  # atno 8008 bound_to 7997
  155.4392  140.3453  155.4270 H   0  0  0  0  0  0  0  0  0  0  0  0  # atno 8009 bound_to 7997
  156.1237  140.1481  156.9156 H   0  0  0  0  0  0  0  0  0  0  0  0  # atno 8010 bound_to 7997
  140.0142  144.5591  150.7634 H   0  0  0  0  0  0  0  0  0  0  0  0  # atno 10167 bound_to 10162
  156.3229  130.4268  149.7943 H   0  0  0  0  0  0  0  0  0  0  0  0  # atno 10718 bound_to 10713
  154.3295  135.6179  153.5545 H   0  0  0  0  0  0  0  0  0  0  0  0  # atno 10763 bound_to 10752
  152.9812  135.5743  154.4978 H   0  0  0  0  0  0  0  0  0  0  0  0  # atno 10764 bound_to 10752
  154.4661  135.2857  155.1654 H   0  0  0  0  0  0  0  0  0  0  0  0  # atno 10765 bound_to 10752
  140.0634  134.5571  155.9126 H   0  0  0  0  0  0  0  0  0  0  0  0  # atno 11005 bound_to 11000
  145.7596  139.1820  143.2275 LP  0  0  0  0  0  0  0  0  0  0  0  0  # atno 17320 bound_to 7965
  146.0997  140.7559  142.9555 LP  0  0  0  0  0  0  0  0  0  0  0  0  # atno 17321 bound_to 7965
  140.7369  143.2759  151.3744 LP  0  0  0  0  0  0  0  0  0  0  0  0  # atno 17342 bound_to 10162
  139.6184  144.0956  152.2368 LP  0  0  0  0  0  0  0  0  0  0  0  0  # atno 17343 bound_to 10162
  156.5244  130.8230  151.3215 LP  0  0  0  0  0  0  0  0  0  0  0  0  # atno 17370 bound_to 10713
  157.7415  130.9872  150.2452 LP  0  0  0  0  0  0  0  0  0  0  0  0  # atno 17371 bound_to 10713
  141.1982  133.6600  156.5783 LP  0  0  0  0  0  0  0  0  0  0  0  0  # atno 17394 bound_to 11000
  140.3736  134.7584  157.4615 LP  0  0  0  0  0  0  0  0  0  0  0  0  # atno 17395 bound_to 11000

$$$$
