AV-unprocessed.smi:2644|AV-procd|sdf|10277|dock8
  -GOLD-   2272014293D 1   1.00000     0.00000
 Structure written by MMmdl.
 42 44  0  0  0  0  0  0  0  0  1 V2000
  153.6445  135.9881  164.1444 C   0  0  0  0  0  0  0  0  0  0  0  0
  154.2792  137.2411  163.9344 O   0  0  0  0  0  0  0  0  0  0  0  0
  154.4140  137.6886  162.6378 C   0  0  0  0  0  0  0  0  0  0  0  0
  155.0466  138.9342  162.4508 C   0  0  0  0  0  0  0  0  0  0  0  0
  155.2051  139.4741  161.1609 C   0  0  0  0  0  0  0  0  0  0  0  0
  154.7286  138.7712  160.0395 C   0  0  0  0  0  0  0  0  0  0  0  0
  154.0991  137.5192  160.2045 C   0  0  0  0  0  0  0  0  0  0  0  0
  153.5210  136.7756  159.0059 C   0  0  2  0  0  0  0  0  0  0  0  0
  153.8925  135.4122  158.9839 O   0  0  0  0  0  0  0  0  0  0  0  0
  153.9263  137.4184  157.6581 C   0  0  0  0  0  0  0  0  0  0  0  0
  152.9166  138.3624  157.1596 N   0  0  0  0  0  0  0  0  0  0  0  0
  152.8933  139.5726  157.8306 N   0  0  0  0  0  0  0  0  0  0  0  0
  151.9958  140.4659  157.5711 C   0  0  0  0  0  0  0  0  0  0  0  0
  152.0279  141.6694  158.3824 C   0  0  0  0  0  0  0  0  0  0  0  0
  152.6828  141.7020  159.5883 C   0  0  0  0  0  0  0  0  0  0  0  0
  152.5961  142.9873  160.2026 C   0  0  0  0  0  0  0  0  0  0  0  0
  151.8891  143.9025  159.4610 C   0  0  0  0  0  0  0  0  0  0  0  0
  151.6073  145.3270  159.7998 C   0  0  0  0  0  0  0  0  0  0  0  0
  151.3054  143.2033  157.9710 S   0  0  0  0  0  0  0  0  0  0  0  0
  151.0239  140.2150  156.5165 C   0  0  0  0  0  0  0  0  0  0  0  0
  151.0603  139.0377  155.8557 C   0  0  0  0  0  0  0  0  0  0  0  0
  152.0455  138.0057  156.1717 C   0  0  0  0  0  0  0  0  0  0  0  0
  152.0778  136.9093  155.6135 O   0  0  0  0  0  0  0  0  0  0  0  0
  153.9505  136.9804  161.5010 C   0  0  0  0  0  0  0  0  0  0  0  0
  153.5779  135.7929  165.2146 H   0  0  0  0  0  0  0  0  0  0  0  0
  154.2137  135.1728  163.6958 H   0  0  0  0  0  0  0  0  0  0  0  0
  152.6290  135.9837  163.7451 H   0  0  0  0  0  0  0  0  0  0  0  0
  155.4068  139.4860  163.3066 H   0  0  0  0  0  0  0  0  0  0  0  0
  155.6836  140.4338  161.0331 H   0  0  0  0  0  0  0  0  0  0  0  0
  154.8355  139.2028  159.0552 H   0  0  0  0  0  0  0  0  0  0  0  0
  152.4336  136.7933  159.0888 H   0  0  0  0  0  0  0  0  0  0  0  0
  154.8321  135.3576  159.0699 H   0  0  0  0  0  0  0  0  0  0  0  0
  154.8763  137.9430  157.7787 H   0  0  0  0  0  0  0  0  0  0  0  0
  154.1201  136.6439  156.9136 H   0  0  0  0  0  0  0  0  0  0  0  0
  153.2115  140.8890  160.0619 H   0  0  0  0  0  0  0  0  0  0  0  0
  153.0524  143.1948  161.1594 H   0  0  0  0  0  0  0  0  0  0  0  0
  151.9606  145.5700  160.8021 H   0  0  0  0  0  0  0  0  0  0  0  0
  150.5368  145.5292  159.7628 H   0  0  0  0  0  0  0  0  0  0  0  0
  152.1026  145.9964  159.0963 H   0  0  0  0  0  0  0  0  0  0  0  0
  150.2782  140.9496  156.2567 H   0  0  0  0  0  0  0  0  0  0  0  0
  150.3391  138.8500  155.0739 H   0  0  0  0  0  0  0  0  0  0  0  0
  153.4511  136.0289  161.6025 H   0  0  0  0  0  0  0  0  0  0  0  0
  1  2  1  0  0  0  0
  1 25  1  0  0  0  0
  1 26  1  0  0  0  0
  1 27  1  0  0  0  0
  2  3  1  0  0  0  0
  3 24  1  0  0  0  0
  3  4  2  0  0  0  0
  4  5  1  0  0  0  0
  4 28  1  0  0  0  0
  5  6  2  0  0  0  0
  5 29  1  0  0  0  0
  6  7  1  0  0  0  0
  6 30  1  0  0  0  0
  7  8  1  0  0  0  0
  7 24  2  0  0  0  0
  8  9  1  0  0  0  0
  8 10  1  0  0  0  0
  8 31  1  0  0  0  0
  9 32  1  0  0  0  0
 10 11  1  0  0  0  0
 10 33  1  0  0  0  0
 10 34  1  0  0  0  0
 11 22  1  0  0  0  0
 11 12  1  0  0  0  0
 12 13  2  0  0  0  0
 13 14  1  0  0  0  0
 13 20  1  0  0  0  0
 14 19  1  0  0  0  0
 14 15  2  0  0  0  0
 15 16  1  0  0  0  0
 15 35  1  0  0  0  0
 16 17  2  0  0  0  0
 16 36  1  0  0  0  0
 17 18  1  0  0  0  0
 17 19  1  0  0  0  0
 18 37  1  0  0  0  0
 18 38  1  0  0  0  0
 18 39  1  0  0  0  0
 20 21  2  0  0  0  0
 20 40  1  0  0  0  0
 21 22  1  0  0  0  0
 21 41  1  0  0  0  0
 22 23  2  0  0  0  0
 24 42  1  0  0  0  0
M  END
> <s_m_source_file>
AV-unprocessed.smi

> <i_m_source_file_index>
2644

> <i_lp_mmshare_version>
43012

> <i_f3d_flags>
0

> <s_epik_input>
W0NIM11PYzFbY0hdW2NIXVtjSF1jKFtjSF0xKVtDQEhdKFtPSF0pW0NIMl1uMm5jKFtjSF1bY0hdYzI9TyktYzNbY0hdW2NIXWMoczMpW0NIM10=

> <s_epik_cmdline>
J2VwaWtfcHl0aG9uJywgJy1waCcsICc3LjAnLCAnLXRuJywgJzgnLCAnLW1hJywgJzIwMCcsICctbWV0YWxfYmluZGluZycsICctaW1hZScsICc8aW5maWxlLm1hZT4nLCAnLW9tYWUnLCAnPG91dGZpbGUubWFlPic=

> <r_lp_tautomer_probability>
1

> <r_epik_Ionization_Penalty>
1.30631e-07

> <r_epik_Ionization_Penalty_Charging>
5.89185e-08

> <r_epik_Ionization_Penalty_Neutral>
7.1713e-08

> <r_epik_State_Penalty>
-0

> <r_epik_Charging_Adjusted_Penalty>
5.89185e-08

> <i_epik_Tot_Q>
0

> <i_epik_Tot_abs_Q>
0

> <r_epik_Metal_State_Penalty>
-0

> <b_epik_Metal_Only>
0

> <s_lp_Force_Field>
OPLS_2005

> <r_lp_Energy>
28.4714

> <b_lp_Chiralities_Consistent>
1

> <s_lp_Variant>
AV-unprocessed.smi:2644-1

> <Gold.Version>
5.8.1

> <Gold.Id.Protein>
6NUR|6NUR_protein|mol2

> <Gold.PLP.Fitness>
51.5911

> <Gold.PLP.PLP>
-45.7578

> <Gold.PLP.part.hbond>
-3.0000

> <Gold.PLP.part.metal>
0.0000

> <Gold.PLP.part.buried>
-4.8888

> <Gold.PLP.part.nonpolar>
-37.7809

> <Gold.PLP.part.repulsive>
0.0679

> <Gold.PLP.ligand.clash>
0.0000

> <Gold.PLP.ligand.torsion>
1.0915

> <Gold.PLP.Chemscore.Hbond>
2.6500

> <Gold.PLP.Chemscore.CHOScore>
0.0000

> <Gold.PLP.Chemscore.Metal>
0.0000

> <Gold.Chemscore.Hbonds>
donor molecule, donor type, donor heavy atom, donor atom, acceptor molecule, acceptor atom, score
      P1  H  6896  6909       L1     9  0.93
      P1  H  7997  8010       L1    12  0.50
      P1  H 10752 10765       L1    23  1.00

> <Gold.PLP.Chemscore.Internal.Correction>
0.0664

> <Gold.Rescore>
     Score         DG    S(hbond)    S(metal)    S(lipo)     H(rot)  DE(clash)    DE(int)     intcor
     22.48     -23.58       2.06        0.00     139.17       1.98       0.08       1.03       ----

> <Gold.Chemscore.Fitness>
22.4754

> <Gold.Chemscore.DG>
-23.5847

> <Gold.Chemscore.ZeroCoef>
-5.4800

> <Gold.Chemscore.Hbond>
2.0613

> <Gold.Chemscore.Metal>
0.0000

> <Gold.Chemscore.Lipo>
139.1680

> <Gold.Chemscore.Internal_Hbond>
0.0000

> <Gold.Chemscore.DEClash>
0.0798

> <Gold.Chemscore.DEInternal>
1.0294

> <Gold.Chemscore.Rot>
1.9777

> <Gold.Chemscore.Internal.Correction>
   9.000000E+99

> <Gold.Chemscore.Hbonds>
donor molecule, donor type, donor heavy atom, donor atom, acceptor molecule, acceptor atom, score
      P1  H  6896  6909       L1     9  0.23
      P1  H  7997  8010       L1    12  0.02
      P1  H 10752 10765       L1    23  0.95

> <Gold.Chemscore.Hbond.Weighted>
-6.8849

> <Gold.Chemscore.Metal.Weighted>
-0.0000

> <Gold.Chemscore.Lipo.Weighted>
-16.2827

> <Gold.Chemscore.Internal_Hbond.Weighted>
0.0000

> <Gold.Chemscore.DEClash.Weighted>
0.0798

> <Gold.Chemscore.DEInternal.Weighted>
1.0294

> <Gold.Chemscore.Rot.Weighted>
5.0629

> <Gold.Chemscore.Internal.Correction.Weighted>
   9.000000E+99

> <Gold.Protein.RotatedTorsions>
[ 6907 6896 6895 6894 ] final -179.12 input  -60.11 | X-H torsion
[ 7974 7965 7964 7962 ] final -133.33 input  175.53 | X-H torsion
[ 8008 7997 7996 7995 ] final   31.86 input   59.86 | X-H torsion
[ 10167 10162 10161 10158 ] final -166.17 input  -65.29 | X-H torsion
[ 10718 10713 10712 10709 ] final  -94.38 input   66.30 | X-H torsion
[ 10763 10752 10751 10750 ] final -165.62 input  -60.55 | X-H torsion
[ 11005 11000 10999 10996 ] final   45.33 input  -57.11 | X-H torsion

> <Gold.Protein.ActiveResidues>
 VAL166  LYS551  ARG553  GLY616  TRP617  ASP618  TYR619  PRO620  LYS621  CYS622 
 ASP623  PHE694  ASN695  SER759  ASP760  ASP761  ALA762  ILE779  LEU786  VAL792 
 PHE793  MET794  SER795  GLU796  ALA797  LYS798  CYS799  TRP800  GLU811  SER814 

> <Gold.Protein.RotatedAtoms>
  151.6482  133.3322  159.3145 H   0  0  0  0  0  0  0  0  0  0  0  0  # atno 6907 bound_to 6896
  150.7973  134.7046  159.6579 H   0  0  0  0  0  0  0  0  0  0  0  0  # atno 6908 bound_to 6896
  152.4062  134.6207  160.0101 H   0  0  0  0  0  0  0  0  0  0  0  0  # atno 6909 bound_to 6896
  144.9203  140.7005  143.4969 H   0  0  0  0  0  0  0  0  0  0  0  0  # atno 7974 bound_to 7965
  155.1131  140.3241  155.4516 H   0  0  0  0  0  0  0  0  0  0  0  0  # atno 8008 bound_to 7997
  156.2684  140.2040  156.6203 H   0  0  0  0  0  0  0  0  0  0  0  0  # atno 8009 bound_to 7997
  154.6740  140.0533  157.0183 H   0  0  0  0  0  0  0  0  0  0  0  0  # atno 8010 bound_to 7997
  139.6133  144.0770  152.1863 H   0  0  0  0  0  0  0  0  0  0  0  0  # atno 10167 bound_to 10162
  156.0026  130.5065  150.5918 H   0  0  0  0  0  0  0  0  0  0  0  0  # atno 10718 bound_to 10713
  154.6914  135.2971  154.9474 H   0  0  0  0  0  0  0  0  0  0  0  0  # atno 10763 bound_to 10752
  154.0436  135.6654  153.4796 H   0  0  0  0  0  0  0  0  0  0  0  0  # atno 10764 bound_to 10752
  153.0615  135.5113  154.8009 H   0  0  0  0  0  0  0  0  0  0  0  0  # atno 10765 bound_to 10752
  140.1470  134.4510  155.8408 H   0  0  0  0  0  0  0  0  0  0  0  0  # atno 11005 bound_to 11000
  145.3308  139.1760  143.4538 LP  0  0  0  0  0  0  0  0  0  0  0  0  # atno 17320 bound_to 7965
  146.3201  140.3337  142.8642 LP  0  0  0  0  0  0  0  0  0  0  0  0  # atno 17321 bound_to 7965
  140.0394  144.6019  150.7423 LP  0  0  0  0  0  0  0  0  0  0  0  0  # atno 17342 bound_to 10162
  140.7334  143.2716  151.3869 LP  0  0  0  0  0  0  0  0  0  0  0  0  # atno 17343 bound_to 10162
  157.3781  131.0776  151.1500 LP  0  0  0  0  0  0  0  0  0  0  0  0  # atno 17370 bound_to 10713
  157.2231  130.6490  149.5819 LP  0  0  0  0  0  0  0  0  0  0  0  0  # atno 17371 bound_to 10713
  141.2194  133.6856  156.7352 LP  0  0  0  0  0  0  0  0  0  0  0  0  # atno 17394 bound_to 11000
  140.2651  134.8436  157.3795 LP  0  0  0  0  0  0  0  0  0  0  0  0  # atno 17395 bound_to 11000

$$$$
