AV-unprocessed.smi:1413|AV-procd|sdf|5757|dock10
  -GOLD-   22720 5393D 1   1.00000     0.00000
 Structure written by MMmdl.
 53 55  0  0  0  0  0  0  0  0  1 V2000
  153.7417  141.7205  160.7352 C   0  0  0  0  0  0  0  0  0  0  0  0
  152.9849  142.0635  159.4478 C   0  0  1  0  0  0  0  0  0  0  0  0
  152.4249  140.8071  158.7570 C   0  0  0  0  0  0  0  0  0  0  0  0
  151.6250  141.1892  157.6023 N   0  0  0  0  0  0  0  0  0  0  0  0
  151.2143  140.1007  156.8216 C   0  0  0  0  0  0  0  0  0  0  0  0
  151.5233  140.0177  155.4448 C   0  0  0  0  0  0  0  0  0  0  0  0
  151.0662  138.9033  154.7166 C   0  0  0  0  0  0  0  0  0  0  0  0
  150.3100  137.9136  155.3756 C   0  0  0  0  0  0  0  0  0  0  0  0
  149.8674  136.7961  154.6174 N   0  0  0  0  0  0  0  0  0  0  0  0
  149.6147  135.5464  155.0429 C   0  0  0  0  0  0  0  0  0  0  0  0
  149.7332  135.1544  156.2035 O   0  0  0  0  0  0  0  0  0  0  0  0
  149.1924  134.7705  154.0341 N   0  0  0  0  0  0  0  0  0  0  0  0
  148.8330  133.3570  154.1325 C   0  0  1  0  0  0  0  0  0  0  0  0
  148.0309  132.9616  152.8824 C   0  0  0  0  0  0  0  0  0  0  0  0
  150.1128  132.5159  154.3058 C   0  0  2  0  0  0  0  0  0  0  0  0
  149.8825  131.0035  154.3355 C   0  0  0  0  0  0  0  0  0  0  0  0
  151.0876  130.5232  155.1101 C   0  0  0  0  0  0  0  0  0  0  0  0
  151.2356  131.6189  156.1600 C   0  0  0  0  0  0  0  0  0  0  0  0
  150.7358  132.8090  155.5561 O   0  0  0  0  0  0  0  0  0  0  0  0
  150.0716  138.0811  156.7617 C   0  0  0  0  0  0  0  0  0  0  0  0
  150.5086  139.1470  157.4662 N   0  0  0  0  0  0  0  0  0  0  0  0
  150.5423  142.0995  157.9502 C   0  0  0  0  0  0  0  0  0  0  0  0
  151.0895  143.3404  158.6840 C   0  0  2  0  0  0  0  0  0  0  0  0
  151.8135  144.3326  157.7564 C   0  0  0  0  0  0  0  0  0  0  0  0
  151.9082  142.9389  159.7865 O   0  0  0  0  0  0  0  0  0  0  0  0
  154.5821  141.0564  160.5314 H   0  0  0  0  0  0  0  0  0  0  0  0
  153.0905  141.2256  161.4562 H   0  0  0  0  0  0  0  0  0  0  0  0
  154.1367  142.6213  161.2058 H   0  0  0  0  0  0  0  0  0  0  0  0
  153.6756  142.5734  158.7760 H   0  0  0  0  0  0  0  0  0  0  0  0
  153.2413  140.1569  158.4396 H   0  0  0  0  0  0  0  0  0  0  0  0
  151.8117  140.2383  159.4575 H   0  0  0  0  0  0  0  0  0  0  0  0
  152.0954  140.7902  154.9523 H   0  0  0  0  0  0  0  0  0  0  0  0
  151.2883  138.8173  153.6630 H   0  0  0  0  0  0  0  0  0  0  0  0
  149.6513  136.9872  153.6502 H   0  0  0  0  0  0  0  0  0  0  0  0
  149.1262  135.1867  153.1170 H   0  0  0  0  0  0  0  0  0  0  0  0
  148.1970  133.1888  155.0034 H   0  0  0  0  0  0  0  0  0  0  0  0
  147.6984  131.9248  152.9342 H   0  0  0  0  0  0  0  0  0  0  0  0
  148.6250  133.0758  151.9750 H   0  0  0  0  0  0  0  0  0  0  0  0
  147.1402  133.5819  152.7772 H   0  0  0  0  0  0  0  0  0  0  0  0
  150.8308  132.7512  153.5179 H   0  0  0  0  0  0  0  0  0  0  0  0
  148.9694  130.7620  154.8822 H   0  0  0  0  0  0  0  0  0  0  0  0
  149.8137  130.5627  153.3407 H   0  0  0  0  0  0  0  0  0  0  0  0
  150.9547  129.5317  155.5432 H   0  0  0  0  0  0  0  0  0  0  0  0
  151.9649  130.5007  154.4622 H   0  0  0  0  0  0  0  0  0  0  0  0
  150.6246  131.3936  157.0348 H   0  0  0  0  0  0  0  0  0  0  0  0
  152.2675  131.7424  156.4897 H   0  0  0  0  0  0  0  0  0  0  0  0
  149.5362  137.3471  157.3432 H   0  0  0  0  0  0  0  0  0  0  0  0
  149.9992  142.3971  157.0520 H   0  0  0  0  0  0  0  0  0  0  0  0
  149.8314  141.5819  158.5957 H   0  0  0  0  0  0  0  0  0  0  0  0
  150.2405  143.8729  159.1133 H   0  0  0  0  0  0  0  0  0  0  0  0
  151.1326  144.7169  156.9968 H   0  0  0  0  0  0  0  0  0  0  0  0
  152.6533  143.8747  157.2344 H   0  0  0  0  0  0  0  0  0  0  0  0
  152.1937  145.1848  158.3199 H   0  0  0  0  0  0  0  0  0  0  0  0
  1  2  1  0  0  0  0
  1 26  1  0  0  0  0
  1 27  1  0  0  0  0
  1 28  1  0  0  0  0
  2 25  1  0  0  0  0
  2  3  1  0  0  0  0
  2 29  1  0  0  0  0
  3  4  1  0  0  0  0
  3 30  1  0  0  0  0
  3 31  1  0  0  0  0
  4  5  1  0  0  0  0
  4 22  1  0  0  0  0
  5 21  1  0  0  0  0
  5  6  2  0  0  0  0
  6  7  1  0  0  0  0
  6 32  1  0  0  0  0
  7  8  2  0  0  0  0
  7 33  1  0  0  0  0
  8  9  1  0  0  0  0
  8 20  1  0  0  0  0
  9 10  1  0  0  0  0
  9 34  1  0  0  0  0
 10 11  2  0  0  0  0
 10 12  1  0  0  0  0
 12 13  1  0  0  0  0
 12 35  1  0  0  0  0
 13 14  1  0  0  0  0
 13 15  1  0  0  0  0
 13 36  1  0  0  0  0
 14 37  1  0  0  0  0
 14 38  1  0  0  0  0
 14 39  1  0  0  0  0
 15 19  1  0  0  0  0
 15 16  1  0  0  0  0
 15 40  1  0  0  0  0
 16 17  1  0  0  0  0
 16 41  1  0  0  0  0
 16 42  1  0  0  0  0
 17 18  1  0  0  0  0
 17 43  1  0  0  0  0
 17 44  1  0  0  0  0
 18 19  1  0  0  0  0
 18 45  1  0  0  0  0
 18 46  1  0  0  0  0
 20 21  2  0  0  0  0
 20 47  1  0  0  0  0
 22 23  1  0  0  0  0
 22 48  1  0  0  0  0
 22 49  1  0  0  0  0
 23 24  1  0  0  0  0
 23 25  1  0  0  0  0
 23 50  1  0  0  0  0
 24 51  1  0  0  0  0
 24 52  1  0  0  0  0
 24 53  1  0  0  0  0
M  END
> <s_m_source_file>
AV-unprocessed.smi

> <i_m_source_file_index>
1413

> <i_lp_mmshare_version>
43012

> <i_f3d_flags>
0

> <s_epik_input>
W0NIM11bQ0BASF0xW0NIMl1OKFtDSDJdW0NASF0oTzEpW0NIM10pYzJbY0hdW2NIXWMoW2NIXW4yKVtOSF1DKD1PKVtOSF1bQ0BIXShbQ0gzXSlbQ0BASF0zW0NIMl1bQ0gyXVtDSDJdTzM=

> <s_epik_cmdline>
J2VwaWtfcHl0aG9uJywgJy1waCcsICc3LjAnLCAnLXRuJywgJzgnLCAnLW1hJywgJzIwMCcsICctbWV0YWxfYmluZGluZycsICctaW1hZScsICc8aW5maWxlLm1hZT4nLCAnLW9tYWUnLCAnPG91dGZpbGUubWFlPic=

> <r_lp_tautomer_probability>
1

> <r_epik_Ionization_Penalty>
0.00271172

> <r_epik_Ionization_Penalty_Charging>
0

> <r_epik_Ionization_Penalty_Neutral>
0.00271172

> <r_epik_State_Penalty>
0.00186503

> <r_epik_Charging_Adjusted_Penalty>
0.00186503

> <i_epik_Tot_Q>
0

> <i_epik_Tot_abs_Q>
0

> <r_epik_Metal_State_Penalty>
-0

> <b_epik_Metal_Only>
0

> <s_lp_Force_Field>
OPLS_2005

> <r_lp_Energy>
38.2473

> <b_lp_Chiralities_Consistent>
1

> <s_lp_Variant>
AV-unprocessed.smi:1413-10

> <Gold.Version>
5.8.1

> <Gold.Id.Protein>
6NUR|6NUR_protein|mol2

> <Gold.PLP.Fitness>
49.9153

> <Gold.PLP.PLP>
-45.0309

> <Gold.PLP.part.hbond>
-2.0000

> <Gold.PLP.part.metal>
0.0000

> <Gold.PLP.part.buried>
-4.7527

> <Gold.PLP.part.nonpolar>
-38.5584

> <Gold.PLP.part.repulsive>
0.0643

> <Gold.PLP.ligand.clash>
0.0000

> <Gold.PLP.ligand.torsion>
0.5339

> <Gold.PLP.Chemscore.Hbond>
1.9440

> <Gold.PLP.Chemscore.CHOScore>
0.0000

> <Gold.PLP.Chemscore.Metal>
0.0000

> <Gold.Chemscore.Hbonds>
donor molecule, donor type, donor heavy atom, donor atom, acceptor molecule, acceptor atom, score
      L1  H     9    34       P1  7948  0.94
      L1  H    12    35       P1  7948  0.85

> <Gold.PLP.Chemscore.Internal.Correction>
0.1202

> <Gold.Rescore>
     Score         DG    S(hbond)    S(metal)    S(lipo)     H(rot)  DE(clash)    DE(int)     intcor
     18.25     -20.35       1.57        0.00     111.70       1.35       0.01       2.10       ----

> <Gold.Chemscore.Fitness>
18.2489

> <Gold.Chemscore.DG>
-20.3530

> <Gold.Chemscore.ZeroCoef>
-5.4800

> <Gold.Chemscore.Hbond>
1.5725

> <Gold.Chemscore.Metal>
0.0000

> <Gold.Chemscore.Lipo>
111.7050

> <Gold.Chemscore.Internal_Hbond>
0.0000

> <Gold.Chemscore.DEClash>
0.0063

> <Gold.Chemscore.DEInternal>
2.0979

> <Gold.Chemscore.Rot>
1.3471

> <Gold.Chemscore.Internal.Correction>
   9.000000E+99

> <Gold.Chemscore.Hbonds>
donor molecule, donor type, donor heavy atom, donor atom, acceptor molecule, acceptor atom, score
      L1  H     9    34       P1  7948  0.63
      L1  H    12    35       P1  7948  0.14

> <Gold.Chemscore.Hbond.Weighted>
-5.2521

> <Gold.Chemscore.Metal.Weighted>
-0.0000

> <Gold.Chemscore.Lipo.Weighted>
-13.0695

> <Gold.Chemscore.Internal_Hbond.Weighted>
0.0000

> <Gold.Chemscore.DEClash.Weighted>
0.0063

> <Gold.Chemscore.DEInternal.Weighted>
2.0979

> <Gold.Chemscore.Rot.Weighted>
3.4485

> <Gold.Chemscore.Internal.Correction.Weighted>
   9.000000E+99

> <Gold.Protein.RotatedTorsions>
[ 6907 6896 6895 6894 ] final  -43.88 input  -60.11 | X-H torsion
[ 7974 7965 7964 7962 ] final -150.39 input  175.53 | X-H torsion
[ 8008 7997 7996 7995 ] final  -23.02 input   59.86 | X-H torsion
[ 10167 10162 10161 10158 ] final    8.33 input  -65.29 | X-H torsion
[ 10718 10713 10712 10709 ] final   71.16 input   66.30 | X-H torsion
[ 10763 10752 10751 10750 ] final -177.10 input  -60.55 | X-H torsion
[ 11005 11000 10999 10996 ] final  -25.52 input  -57.11 | X-H torsion

> <Gold.Protein.ActiveResidues>
 VAL166  LYS551  ARG553  GLY616  TRP617  ASP618  TYR619  PRO620  LYS621  CYS622 
 ASP623  PHE694  ASN695  SER759  ASP760  ASP761  ALA762  ILE779  LEU786  VAL792 
 PHE793  MET794  SER795  GLU796  ALA797  LYS798  CYS799  TRP800  GLU811  SER814 

> <Gold.Protein.RotatedAtoms>
  150.9390  134.8801  159.7599 H   0  0  0  0  0  0  0  0  0  0  0  0  # atno 6907 bound_to 6896
  152.5072  134.3969  159.9413 H   0  0  0  0  0  0  0  0  0  0  0  0  # atno 6908 bound_to 6896
  151.3991  133.3723  159.2765 H   0  0  0  0  0  0  0  0  0  0  0  0  # atno 6909 bound_to 6896
  144.7910  140.4938  143.5772 H   0  0  0  0  0  0  0  0  0  0  0  0  # atno 7974 bound_to 7965
  154.4609  140.1992  156.0247 H   0  0  0  0  0  0  0  0  0  0  0  0  # atno 8008 bound_to 7997
  156.0838  140.3268  155.7699 H   0  0  0  0  0  0  0  0  0  0  0  0  # atno 8009 bound_to 7997
  155.5068  140.0558  157.2921 H   0  0  0  0  0  0  0  0  0  0  0  0  # atno 8010 bound_to 7997
  140.6320  143.7972  150.7308 H   0  0  0  0  0  0  0  0  0  0  0  0  # atno 10167 bound_to 10162
  157.6437  130.9514  150.0751 H   0  0  0  0  0  0  0  0  0  0  0  0  # atno 10718 bound_to 10713
  154.5643  135.2822  155.0889 H   0  0  0  0  0  0  0  0  0  0  0  0  # atno 10763 bound_to 10752
  154.2286  135.6378  153.5171 H   0  0  0  0  0  0  0  0  0  0  0  0  # atno 10764 bound_to 10752
  153.0038  135.5531  154.6247 H   0  0  0  0  0  0  0  0  0  0  0  0  # atno 10765 bound_to 10752
  140.8946  133.7565  156.0464 H   0  0  0  0  0  0  0  0  0  0  0  0  # atno 11005 bound_to 11000
  145.5793  139.1488  143.3244 LP  0  0  0  0  0  0  0  0  0  0  0  0  # atno 17320 bound_to 7965
  146.2162  140.5924  142.9037 LP  0  0  0  0  0  0  0  0  0  0  0  0  # atno 17321 bound_to 7965
  140.1585  143.4296  152.2083 LP  0  0  0  0  0  0  0  0  0  0  0  0  # atno 17342 bound_to 10162
  139.5533  144.7354  151.4368 LP  0  0  0  0  0  0  0  0  0  0  0  0  # atno 17343 bound_to 10162
  156.1743  130.3647  149.9121 LP  0  0  0  0  0  0  0  0  0  0  0  0  # atno 17370 bound_to 10713
  156.7089  130.8962  151.3607 LP  0  0  0  0  0  0  0  0  0  0  0  0  # atno 17371 bound_to 10713
  140.8305  134.3183  157.5350 LP  0  0  0  0  0  0  0  0  0  0  0  0  # atno 17394 bound_to 11000
  139.8734  134.9361  156.3650 LP  0  0  0  0  0  0  0  0  0  0  0  0  # atno 17395 bound_to 11000

$$$$
