AV-unprocessed.smi:801|AV-procd|sdf|3790|dock5
  -GOLD-   22720 1223D 1   1.00000     0.00000
 Structure written by MMmdl.
 43 44  0  0  0  0  0  0  0  0  2 V2000
  146.8058  138.5349  157.8507 C   0  0  0  0  0  0  0  0  0  0  0  0
  147.1911  137.2253  158.2294 O   0  0  0  0  0  0  0  0  0  0  0  0
  147.5955  136.4381  157.1222 C   0  0  0  0  0  0  0  0  0  0  0  0
  148.7203  137.1701  156.3754 C   0  0  0  0  0  0  0  0  0  0  0  0
  149.8429  137.4970  157.2808 N   0  0  0  0  0  0  0  0  0  0  0  0
  150.2807  138.8446  157.3842 C   0  0  0  0  0  0  0  0  0  0  0  0
  149.6697  139.8160  156.5731 N   0  0  0  0  0  0  0  0  0  0  0  0
  150.0585  140.1485  155.3288 C   0  0  0  0  0  0  0  0  0  0  0  0
  149.3110  141.3116  154.6865 C   0  0  0  0  0  0  0  0  0  0  0  0
  150.9635  139.5853  154.7130 O   0  0  0  0  0  0  0  0  0  0  0  0
  151.3119  139.1801  158.2121 C   0  0  0  0  0  0  0  0  0  0  0  0
  151.7911  140.4908  158.2858 N   0  0  0  0  0  0  0  0  0  0  0  0
  152.8571  141.0922  159.0730 C   0  0  0  0  0  0  0  0  0  0  0  0
  152.5052  142.4656  159.6187 C   0  0  0  0  0  0  0  0  0  0  0  0
  152.1453  143.5154  158.7449 C   0  0  0  0  0  0  0  0  0  0  0  0
  151.8252  144.7877  159.2578 C   0  0  0  0  0  0  0  0  0  0  0  0
  151.8670  145.0185  160.6462 C   0  0  0  0  0  0  0  0  0  0  0  0
  152.2318  143.9773  161.5212 C   0  0  0  0  0  0  0  0  0  0  0  0
  152.5523  142.7049  161.0087 C   0  0  0  0  0  0  0  0  0  0  0  0
  151.9328  138.1061  159.0087 C   0  0  0  0  0  0  0  0  0  0  0  0
  152.8376  138.3429  159.8079 O   0  0  0  0  0  0  0  0  0  0  0  0
  151.4764  136.8378  158.8335 N   0  5  0  0  0  0  0  0  0  0  0  0
  150.4643  136.5064  157.9854 C   0  0  0  0  0  0  0  0  0  0  0  0
  150.0991  135.3392  157.8380 O   0  0  0  0  0  0  0  0  0  0  0  0
  146.5028  139.0974  158.7338 H   0  0  0  0  0  0  0  0  0  0  0  0
  145.9623  138.5138  157.1595 H   0  0  0  0  0  0  0  0  0  0  0  0
  147.6323  139.0682  157.3789 H   0  0  0  0  0  0  0  0  0  0  0  0
  147.9428  135.4617  157.4638 H   0  0  0  0  0  0  0  0  0  0  0  0
  146.7464  136.2715  156.4577 H   0  0  0  0  0  0  0  0  0  0  0  0
  149.0573  136.5705  155.5300 H   0  0  0  0  0  0  0  0  0  0  0  0
  148.3176  138.0678  155.9034 H   0  0  0  0  0  0  0  0  0  0  0  0
  148.9899  140.4094  157.0256 H   0  0  0  0  0  0  0  0  0  0  0  0
  149.5083  142.2353  155.2311 H   0  0  0  0  0  0  0  0  0  0  0  0
  148.2364  141.1266  154.6954 H   0  0  0  0  0  0  0  0  0  0  0  0
  149.6247  141.4504  153.6513 H   0  0  0  0  0  0  0  0  0  0  0  0
  151.3079  141.1557  157.6999 H   0  0  0  0  0  0  0  0  0  0  0  0
  153.1016  140.4261  159.9014 H   0  0  0  0  0  0  0  0  0  0  0  0
  153.7510  141.1913  158.4565 H   0  0  0  0  0  0  0  0  0  0  0  0
  152.1147  143.3500  157.6777 H   0  0  0  0  0  0  0  0  0  0  0  0
  151.5493  145.5869  158.5857 H   0  0  0  0  0  0  0  0  0  0  0  0
  151.6219  145.9940  161.0398 H   0  0  0  0  0  0  0  0  0  0  0  0
  152.2662  144.1545  162.5860 H   0  0  0  0  0  0  0  0  0  0  0  0
  152.8325  141.9129  161.6877 H   0  0  0  0  0  0  0  0  0  0  0  0
  1  2  1  0  0  0  0
  1 25  1  0  0  0  0
  1 26  1  0  0  0  0
  1 27  1  0  0  0  0
  2  3  1  0  0  0  0
  3  4  1  0  0  0  0
  3 28  1  0  0  0  0
  3 29  1  0  0  0  0
  4  5  1  0  0  0  0
  4 30  1  0  0  0  0
  4 31  1  0  0  0  0
  5 23  1  0  0  0  0
  5  6  1  0  0  0  0
  6  7  1  0  0  0  0
  6 11  2  0  0  0  0
  7  8  1  0  0  0  0
  7 32  1  0  0  0  0
  8  9  1  0  0  0  0
  8 10  2  0  0  0  0
  9 33  1  0  0  0  0
  9 34  1  0  0  0  0
  9 35  1  0  0  0  0
 11 12  1  0  0  0  0
 11 20  1  0  0  0  0
 12 13  1  0  0  0  0
 12 36  1  0  0  0  0
 13 14  1  0  0  0  0
 13 37  1  0  0  0  0
 13 38  1  0  0  0  0
 14 19  1  0  0  0  0
 14 15  2  0  0  0  0
 15 16  1  0  0  0  0
 15 39  1  0  0  0  0
 16 17  2  0  0  0  0
 16 40  1  0  0  0  0
 17 18  1  0  0  0  0
 17 41  1  0  0  0  0
 18 19  2  0  0  0  0
 18 42  1  0  0  0  0
 19 43  1  0  0  0  0
 20 21  2  0  0  0  0
 20 22  1  0  0  0  0
 22 23  1  0  0  0  0
 23 24  2  0  0  0  0
M  CHG  1  22  -1
M  END
> <s_m_source_file>
AV-unprocessed.smi

> <i_m_source_file_index>
801

> <i_lp_mmshare_version>
43012

> <i_f3d_flags>
0

> <s_epik_input>
W0NIM11PW0NIMl1bQ0gyXW4xYyhbTkhdQyg9TylbQ0gzXSljKGMoPU8pW25IXWMxPU8pW05IXVtDSDJdYzJbY0hdW2NIXVtjSF1bY0hdW2NIXTI=

> <s_epik_cmdline>
J2VwaWtfcHl0aG9uJywgJy1waCcsICc3LjAnLCAnLXRuJywgJzgnLCAnLW1hJywgJzIwMCcsICctbWV0YWxfYmluZGluZycsICctaW1hZScsICc8aW5maWxlLm1hZT4nLCAnLW9tYWUnLCAnPG91dGZpbGUubWFlPic=

> <r_lp_tautomer_probability>
0.999901

> <r_epik_Ionization_Penalty>
3.93073

> <r_epik_Ionization_Penalty_Charging>
1.379e-07

> <r_epik_Ionization_Penalty_Neutral>
3.93073

> <r_epik_State_Penalty>
3.9304

> <r_epik_Charging_Adjusted_Penalty>
3.9304

> <i_epik_Tot_Q>
-1

> <i_epik_Tot_abs_Q>
1

> <r_epik_Metal_State_Penalty>
0.600886

> <b_epik_Metal_Only>
1

> <s_lp_Force_Field>
OPLS_2005

> <r_lp_Energy>
31.5589

> <b_lp_Chiralities_Consistent>
1

> <s_lp_Variant>
AV-unprocessed.smi:801-2

> <Gold.Version>
5.8.1

> <Gold.Id.Protein>
6NUR|6NUR_protein|mol2

> <Gold.PLP.Fitness>
48.9588

> <Gold.PLP.PLP>
-40.7247

> <Gold.PLP.part.hbond>
-3.0000

> <Gold.PLP.part.metal>
0.0000

> <Gold.PLP.part.buried>
-5.4784

> <Gold.PLP.part.nonpolar>
-33.3828

> <Gold.PLP.part.repulsive>
0.1962

> <Gold.PLP.ligand.clash>
0.0000

> <Gold.PLP.ligand.torsion>
0.9228

> <Gold.PLP.Chemscore.Hbond>
2.9840

> <Gold.PLP.Chemscore.CHOScore>
0.0000

> <Gold.PLP.Chemscore.Metal>
0.0000

> <Gold.Chemscore.Hbonds>
donor molecule, donor type, donor heavy atom, donor atom, acceptor molecule, acceptor atom, score
      P1  H  6896  6908       L1    24  0.02
      P1  H  6896  6909       L1    22  1.28
      P1  H  7989  7998       L1    10  1.00

> <Gold.PLP.Chemscore.Internal.Correction>
1.1278

> <Gold.Rescore>
     Score         DG    S(hbond)    S(metal)    S(lipo)     H(rot)  DE(clash)    DE(int)     intcor
     13.05     -16.70       1.68        0.00      91.35       1.98       0.07       3.58       ----

> <Gold.Chemscore.Fitness>
13.0514

> <Gold.Chemscore.DG>
-16.7040

> <Gold.Chemscore.ZeroCoef>
-5.4800

> <Gold.Chemscore.Hbond>
1.6798

> <Gold.Chemscore.Metal>
0.0000

> <Gold.Chemscore.Lipo>
91.3545

> <Gold.Chemscore.Internal_Hbond>
0.0000

> <Gold.Chemscore.DEClash>
0.0736

> <Gold.Chemscore.DEInternal>
3.5790

> <Gold.Chemscore.Rot>
1.9824

> <Gold.Chemscore.Internal.Correction>
   9.000000E+99

> <Gold.Chemscore.Hbonds>
donor molecule, donor type, donor heavy atom, donor atom, acceptor molecule, acceptor atom, score
      P1  H  6896  6908       L1    24  0.02
      P1  H  6896  6909       L1    22  0.06
      P1  H  7989  7998       L1    10  0.55

> <Gold.Chemscore.Hbond.Weighted>
-5.6104

> <Gold.Chemscore.Metal.Weighted>
-0.0000

> <Gold.Chemscore.Lipo.Weighted>
-10.6885

> <Gold.Chemscore.Internal_Hbond.Weighted>
0.0000

> <Gold.Chemscore.DEClash.Weighted>
0.0736

> <Gold.Chemscore.DEInternal.Weighted>
3.5790

> <Gold.Chemscore.Rot.Weighted>
5.0749

> <Gold.Chemscore.Internal.Correction.Weighted>
   9.000000E+99

> <Gold.Protein.RotatedTorsions>
[ 6907 6896 6895 6894 ] final  103.67 input  -60.11 | X-H torsion
[ 7974 7965 7964 7962 ] final -176.51 input  175.53 | X-H torsion
[ 8008 7997 7996 7995 ] final   38.37 input   59.86 | X-H torsion
[ 10167 10162 10161 10158 ] final  -77.56 input  -65.29 | X-H torsion
[ 10718 10713 10712 10709 ] final  -64.31 input   66.30 | X-H torsion
[ 10763 10752 10751 10750 ] final  173.94 input  -60.55 | X-H torsion
[ 11005 11000 10999 10996 ] final  -86.36 input  -57.11 | X-H torsion

> <Gold.Protein.ActiveResidues>
 VAL166  LYS551  ARG553  GLY616  TRP617  ASP618  TYR619  PRO620  LYS621  CYS622 
 ASP623  PHE694  ASN695  SER759  ASP760  ASP761  ALA762  ILE779  LEU786  VAL792 
 PHE793  MET794  SER795  GLU796  ALA797  LYS798  CYS799  TRP800  GLU811  SER814 

> <Gold.Protein.RotatedAtoms>
  152.5288  133.9792  159.7798 H   0  0  0  0  0  0  0  0  0  0  0  0  # atno 6907 bound_to 6896
  151.0048  133.6013  159.2697 H   0  0  0  0  0  0  0  0  0  0  0  0  # atno 6908 bound_to 6896
  151.3109  135.0800  159.9325 H   0  0  0  0  0  0  0  0  0  0  0  0  # atno 6909 bound_to 6896
  144.7127  140.1159  143.6408 H   0  0  0  0  0  0  0  0  0  0  0  0  # atno 7974 bound_to 7965
  155.2191  140.3329  155.4318 H   0  0  0  0  0  0  0  0  0  0  0  0  # atno 8008 bound_to 7997
  156.2340  140.1864  156.7215 H   0  0  0  0  0  0  0  0  0  0  0  0  # atno 8009 bound_to 7997
  154.6027  140.0620  156.9376 H   0  0  0  0  0  0  0  0  0  0  0  0  # atno 8010 bound_to 7997
  140.4759  143.2414  151.8133 H   0  0  0  0  0  0  0  0  0  0  0  0  # atno 10167 bound_to 10162
  156.0737  130.4232  150.1402 H   0  0  0  0  0  0  0  0  0  0  0  0  # atno 10718 bound_to 10713
  154.4470  135.2763  155.1808 H   0  0  0  0  0  0  0  0  0  0  0  0  # atno 10763 bound_to 10752
  154.3650  135.6121  153.5714 H   0  0  0  0  0  0  0  0  0  0  0  0  # atno 10764 bound_to 10752
  152.9844  135.5843  154.4808 H   0  0  0  0  0  0  0  0  0  0  0  0  # atno 10765 bound_to 10752
  141.1631  133.7450  156.9150 H   0  0  0  0  0  0  0  0  0  0  0  0  # atno 11005 bound_to 11000
  145.9414  139.2671  143.1267 LP  0  0  0  0  0  0  0  0  0  0  0  0  # atno 17320 bound_to 7965
  145.9420  140.8972  143.0303 LP  0  0  0  0  0  0  0  0  0  0  0  0  # atno 17321 bound_to 7965
  139.4825  144.4833  151.9278 LP  0  0  0  0  0  0  0  0  0  0  0  0  # atno 17342 bound_to 10162
  140.3919  144.2605  150.5899 LP  0  0  0  0  0  0  0  0  0  0  0  0  # atno 17343 bound_to 10162
  156.9447  130.9756  151.3509 LP  0  0  0  0  0  0  0  0  0  0  0  0  # atno 17370 bound_to 10713
  157.5821  130.8384  149.8538 LP  0  0  0  0  0  0  0  0  0  0  0  0  # atno 17371 bound_to 10713
  140.1490  134.9243  157.2568 LP  0  0  0  0  0  0  0  0  0  0  0  0  # atno 17394 bound_to 11000
  140.2745  134.3421  155.7362 LP  0  0  0  0  0  0  0  0  0  0  0  0  # atno 17395 bound_to 11000

$$$$
