AV-unprocessed.smi:3278|AV-procd|sdf|12543|dock7
  -GOLD-   2272018463D 1   1.00000     0.00000
 Structure written by MMmdl.
 39 40  0  0  0  0  0  0  0  0  2 V2000
  153.9425  138.1162  156.5455 C   0  0  0  0  0  0  0  0  0  0  0  0
  152.7715  138.4322  155.7559 N   0  0  0  0  0  0  0  0  0  0  0  0
  151.7979  139.3754  156.0002 C   0  0  0  0  0  0  0  0  0  0  0  0
  150.8920  139.3125  154.9767 C   0  0  0  0  0  0  0  0  0  0  0  0
  149.6453  140.1467  154.7703 C   0  0  2  0  0  0  0  0  0  0  0  0
  148.4472  139.2314  154.4644 C   0  0  0  0  0  0  0  0  0  0  0  0
  149.7672  141.0136  153.6577 O   0  0  0  0  0  0  0  0  0  0  0  0
  149.3561  141.0245  156.0073 C   0  0  0  0  0  0  0  0  0  0  0  0
  150.2333  142.2171  156.0483 N   0  3  0  0  0  0  0  0  0  0  0  0
  150.6675  142.6455  157.3959 C   0  0  1  0  0  0  0  0  0  0  0  0
  151.6035  141.5968  158.0374 C   0  0  0  0  0  0  0  0  0  0  0  0
  152.0428  141.9790  159.4607 C   0  0  0  0  0  0  0  0  0  0  0  0
  152.8172  143.3030  159.5038 C   0  0  0  0  0  0  0  0  0  0  0  0
  151.7886  144.6775  158.9239 S   0  0  0  0  0  0  0  0  0  0  0  0
  151.3584  144.0171  157.2909 C   0  0  0  0  0  0  0  0  0  0  0  0
  151.4116  138.2728  154.1501 C   0  0  0  0  0  0  0  0  0  0  0  0
  152.5359  137.7544  154.6152 N   0  0  0  0  0  0  0  0  0  0  0  0
  153.9840  138.7576  157.4263 H   0  0  0  0  0  0  0  0  0  0  0  0
  154.8427  138.2725  155.9503 H   0  0  0  0  0  0  0  0  0  0  0  0
  153.9011  137.0750  156.8670 H   0  0  0  0  0  0  0  0  0  0  0  0
  151.8299  140.0110  156.8729 H   0  0  0  0  0  0  0  0  0  0  0  0
  148.2538  138.5414  155.2865 H   0  0  0  0  0  0  0  0  0  0  0  0
  148.6245  138.6328  153.5698 H   0  0  0  0  0  0  0  0  0  0  0  0
  147.5352  139.8068  154.3001 H   0  0  0  0  0  0  0  0  0  0  0  0
  149.4285  140.5750  152.8916 H   0  0  0  0  0  0  0  0  0  0  0  0
  148.3124  141.3427  156.0142 H   0  0  0  0  0  0  0  0  0  0  0  0
  149.5084  140.4348  156.9111 H   0  0  0  0  0  0  0  0  0  0  0  0
  151.0498  142.0475  155.4784 H   0  0  0  0  0  0  0  0  0  0  0  0
  149.7774  142.7637  158.0158 H   0  0  0  0  0  0  0  0  0  0  0  0
  151.1084  140.6274  158.0864 H   0  0  0  0  0  0  0  0  0  0  0  0
  152.4846  141.4543  157.4101 H   0  0  0  0  0  0  0  0  0  0  0  0
  151.1702  142.0424  160.1120 H   0  0  0  0  0  0  0  0  0  0  0  0
  152.6692  141.1849  159.8681 H   0  0  0  0  0  0  0  0  0  0  0  0
  153.1450  143.5165  160.5214 H   0  0  0  0  0  0  0  0  0  0  0  0
  153.7132  143.2417  158.8852 H   0  0  0  0  0  0  0  0  0  0  0  0
  152.2656  143.9468  156.6894 H   0  0  0  0  0  0  0  0  0  0  0  0
  150.7037  144.7364  156.7975 H   0  0  0  0  0  0  0  0  0  0  0  0
  151.0094  137.8851  153.2254 H   0  0  0  0  0  0  0  0  0  0  0  0
  149.7125  142.9774  155.6346 H   0  0  0  0  0  0  0  0  0  0  0  0
  1  2  1  0  0  0  0
  1 18  1  0  0  0  0
  1 19  1  0  0  0  0
  1 20  1  0  0  0  0
  2 17  1  0  0  0  0
  2  3  1  0  0  0  0
  3  4  2  0  0  0  0
  3 21  1  0  0  0  0
  4  5  1  0  0  0  0
  4 16  1  0  0  0  0
  5  6  1  0  0  0  0
  5  7  1  0  0  0  0
  5  8  1  0  0  0  0
  6 22  1  0  0  0  0
  6 23  1  0  0  0  0
  6 24  1  0  0  0  0
  7 25  1  0  0  0  0
  8  9  1  0  0  0  0
  8 26  1  0  0  0  0
  8 27  1  0  0  0  0
  9 10  1  0  0  0  0
  9 28  1  0  0  0  0
  9 39  1  0  0  0  0
 10 15  1  0  0  0  0
 10 11  1  0  0  0  0
 10 29  1  0  0  0  0
 11 12  1  0  0  0  0
 11 30  1  0  0  0  0
 11 31  1  0  0  0  0
 12 13  1  0  0  0  0
 12 32  1  0  0  0  0
 12 33  1  0  0  0  0
 13 14  1  0  0  0  0
 13 34  1  0  0  0  0
 13 35  1  0  0  0  0
 14 15  1  0  0  0  0
 15 36  1  0  0  0  0
 15 37  1  0  0  0  0
 16 17  2  0  0  0  0
 16 38  1  0  0  0  0
M  CHG  1   9   1
M  END
> <s_m_source_file>
AV-unprocessed.smi

> <i_m_source_file_index>
3278

> <i_lp_mmshare_version>
43012

> <i_f3d_flags>
0

> <s_epik_input>
W0NIM11uMVtjSF1jKFtjSF1uMSlbQ0BAXShbQ0gzXSkoW09IXSlbQ0gyXVtOSF1bQ0BASF0yW0NIMl1bQ0gyXVtDSDJdU1tDSDJdMg==

> <s_epik_cmdline>
J2VwaWtfcHl0aG9uJywgJy1waCcsICc3LjAnLCAnLXRuJywgJzgnLCAnLW1hJywgJzIwMCcsICctbWV0YWxfYmluZGluZycsICctaW1hZScsICc8aW5maWxlLm1hZT4nLCAnLW9tYWUnLCAnPG91dGZpbGUubWFlPic=

> <r_lp_tautomer_probability>
1

> <r_epik_Ionization_Penalty>
0.0185703

> <r_epik_Ionization_Penalty_Charging>
0.0185619

> <r_epik_Ionization_Penalty_Neutral>
8.47286e-06

> <r_epik_State_Penalty>
0.0147768

> <r_epik_Charging_Adjusted_Penalty>
0.0333386

> <i_epik_Tot_Q>
1

> <i_epik_Tot_abs_Q>
1

> <r_epik_Metal_State_Penalty>
0.0147782

> <b_epik_Metal_Only>
0

> <s_lp_Force_Field>
OPLS_2005

> <r_lp_Energy>
8.58851

> <b_lp_Chiralities_Consistent>
1

> <s_lp_Variant>
AV-unprocessed.smi:3278-4

> <Gold.Version>
5.8.1

> <Gold.Id.Protein>
6NUR|6NUR_protein|mol2

> <Gold.PLP.Fitness>
52.6210

> <Gold.PLP.PLP>
-38.8505

> <Gold.PLP.part.hbond>
-4.6918

> <Gold.PLP.part.metal>
0.0000

> <Gold.PLP.part.buried>
-3.2697

> <Gold.PLP.part.nonpolar>
-31.3285

> <Gold.PLP.part.repulsive>
0.2093

> <Gold.PLP.ligand.clash>
0.0000

> <Gold.PLP.ligand.torsion>
0.7337

> <Gold.PLP.Chemscore.Hbond>
4.0160

> <Gold.PLP.Chemscore.CHOScore>
1.0543

> <Gold.PLP.Chemscore.Metal>
0.0000

> <Gold.Chemscore.Hbonds>
donor molecule, donor type, donor heavy atom, donor atom, acceptor molecule, acceptor atom, score
      L1  H     7    25       P1  7957  1.00
      L1  H     9    39       P1  8028  2.00
      P1  H  7989  7998       L1     7  0.29
      P1  H 10752 10764       L1    17  0.40
      L1  C    16    38       P1  7948  0.02
      L1  C    16    38       P1  7949  0.90

> <Gold.PLP.Chemscore.Internal.Correction>
0.0270

> <Gold.Rescore>
     Score         DG    S(hbond)    S(metal)    S(lipo)     H(rot)  DE(clash)    DE(int)     intcor
     20.69     -21.40       2.56        0.00     106.86       2.00       0.03       0.68       ----

> <Gold.Chemscore.Fitness>
20.6885

> <Gold.Chemscore.DG>
-21.3993

> <Gold.Chemscore.ZeroCoef>
-5.4800

> <Gold.Chemscore.Hbond>
2.5589

> <Gold.Chemscore.Metal>
0.0000

> <Gold.Chemscore.Lipo>
106.8552

> <Gold.Chemscore.Internal_Hbond>
0.0000

> <Gold.Chemscore.DEClash>
0.0340

> <Gold.Chemscore.DEInternal>
0.6768

> <Gold.Chemscore.Rot>
2.0038

> <Gold.Chemscore.Internal.Correction>
   9.000000E+99

> <Gold.Chemscore.Hbonds>
donor molecule, donor type, donor heavy atom, donor atom, acceptor molecule, acceptor atom, score
      L1  H     7    25       P1  7957  0.94
      L1  H     9    39       P1  8028  0.97
      P1  H  7989  7998       L1     7  0.03
      P1  H 10752 10764       L1    17  0.38

> <Gold.Chemscore.Hbond.Weighted>
-8.5469

> <Gold.Chemscore.Metal.Weighted>
-0.0000

> <Gold.Chemscore.Lipo.Weighted>
-12.5021

> <Gold.Chemscore.Internal_Hbond.Weighted>
0.0000

> <Gold.Chemscore.DEClash.Weighted>
0.0340

> <Gold.Chemscore.DEInternal.Weighted>
0.6768

> <Gold.Chemscore.Rot.Weighted>
5.1296

> <Gold.Chemscore.Internal.Correction.Weighted>
   9.000000E+99

> <Gold.Protein.RotatedTorsions>
[ 6907 6896 6895 6894 ] final  107.88 input  -60.11 | X-H torsion
[ 7974 7965 7964 7962 ] final -134.31 input  175.53 | X-H torsion
[ 8008 7997 7996 7995 ] final -154.92 input   59.86 | X-H torsion
[ 10167 10162 10161 10158 ] final -145.35 input  -65.29 | X-H torsion
[ 10718 10713 10712 10709 ] final   25.85 input   66.30 | X-H torsion
[ 10763 10752 10751 10750 ] final  -78.41 input  -60.55 | X-H torsion
[ 11005 11000 10999 10996 ] final -136.79 input  -57.11 | X-H torsion

> <Gold.Protein.ActiveResidues>
 VAL166  LYS551  ARG553  GLY616  TRP617  ASP618  TYR619  PRO620  LYS621  CYS622 
 ASP623  PHE694  ASN695  SER759  ASP760  ASP761  ALA762  ILE779  LEU786  VAL792 
 PHE793  MET794  SER795  GLU796  ALA797  LYS798  CYS799  TRP800  GLU811  SER814 

> <Gold.Protein.RotatedAtoms>
  152.5136  133.9170  159.7515 H   0  0  0  0  0  0  0  0  0  0  0  0  # atno 6907 bound_to 6896
  150.9550  133.6499  159.2771 H   0  0  0  0  0  0  0  0  0  0  0  0  # atno 6908 bound_to 6896
  151.3764  135.0937  159.9535 H   0  0  0  0  0  0  0  0  0  0  0  0  # atno 6909 bound_to 6896
  144.9114  140.6900  143.5022 H   0  0  0  0  0  0  0  0  0  0  0  0  # atno 7974 bound_to 7965
  155.6939  140.0758  157.2437 H   0  0  0  0  0  0  0  0  0  0  0  0  # atno 8008 bound_to 7997
  154.4084  140.1659  156.2169 H   0  0  0  0  0  0  0  0  0  0  0  0  # atno 8009 bound_to 7997
  155.9428  140.3383  155.6344 H   0  0  0  0  0  0  0  0  0  0  0  0  # atno 8010 bound_to 7997
  139.7814  143.8095  152.2639 H   0  0  0  0  0  0  0  0  0  0  0  0  # atno 10167 bound_to 10162
  157.1990  130.6881  149.6180 H   0  0  0  0  0  0  0  0  0  0  0  0  # atno 10718 bound_to 10713
  154.5255  135.5731  153.6716 H   0  0  0  0  0  0  0  0  0  0  0  0  # atno 10763 bound_to 10752
  152.9927  135.6192  154.2697 H   0  0  0  0  0  0  0  0  0  0  0  0  # atno 10764 bound_to 10752
  154.2621  135.2856  155.2753 H   0  0  0  0  0  0  0  0  0  0  0  0  # atno 10765 bound_to 10752
  140.8772  134.1977  157.4614 H   0  0  0  0  0  0  0  0  0  0  0  0  # atno 11005 bound_to 11000
  145.3447  139.1722  143.4466 LP  0  0  0  0  0  0  0  0  0  0  0  0  # atno 17320 bound_to 7965
  146.3160  140.3493  142.8654 LP  0  0  0  0  0  0  0  0  0  0  0  0  # atno 17321 bound_to 7965
  139.8159  144.7316  150.9636 LP  0  0  0  0  0  0  0  0  0  0  0  0  # atno 17342 bound_to 10162
  140.7818  143.4205  151.0849 LP  0  0  0  0  0  0  0  0  0  0  0  0  # atno 17343 bound_to 10162
  155.9702  130.4589  150.6017 LP  0  0  0  0  0  0  0  0  0  0  0  0  # atno 17370 bound_to 10713
  157.3786  131.0777  151.1496 LP  0  0  0  0  0  0  0  0  0  0  0  0  # atno 17371 bound_to 10713
  139.8716  134.9801  156.5063 LP  0  0  0  0  0  0  0  0  0  0  0  0  # atno 17394 bound_to 11000
  140.8504  133.8137  155.9163 LP  0  0  0  0  0  0  0  0  0  0  0  0  # atno 17395 bound_to 11000

$$$$
