AV-unprocessed.smi:1196|AV-procd|sdf|5004|dock3
  -GOLD-   22720 4 13D 1   1.00000     0.00000
 Structure written by MMmdl.
 36 37  0  0  0  0  0  0  0  0  2 V2000
  150.0835  141.5832  157.3063 C   0  0  0  0  0  0  0  0  0  0  0  0
  151.1159  140.7693  158.0979 C   0  0  2  0  0  0  0  0  0  0  0  0
  152.3986  141.5869  158.3608 C   0  0  0  0  0  0  0  0  0  0  0  0
  152.1201  142.8968  158.9250 N   0  0  0  0  0  0  0  0  0  0  0  0
  152.3779  144.1368  158.3799 C   0  0  0  0  0  0  0  0  0  0  0  0
  151.9172  145.0720  159.2618 C   0  0  0  0  0  0  0  0  0  0  0  0
  151.3900  144.2969  160.3323 C   0  0  0  0  0  0  0  0  0  0  0  0
  151.5189  142.9955  160.1308 N   0  0  0  0  0  0  0  0  0  0  0  0
  151.4265  139.5436  157.3629 N   0  0  0  0  0  0  0  0  0  0  0  0
  151.6651  139.4627  156.0439 C   0  0  0  0  0  0  0  0  0  0  0  0
  151.7197  140.4439  155.3020 O   0  0  0  0  0  0  0  0  0  0  0  0
  151.8502  138.0570  155.4707 C   0  0  0  0  0  0  0  0  0  0  0  0
  150.5045  137.4151  155.0858 C   0  0  0  0  0  0  0  0  0  0  0  0
  150.6043  135.8931  154.8668 C   0  0  2  0  0  0  0  0  0  0  0  0
  149.3234  135.3336  154.4925 N   0  0  0  0  0  0  0  0  0  0  0  0
  148.9357  134.3919  155.3502 C   0  0  0  0  0  0  0  0  0  0  0  0
  147.8816  133.7775  155.2026 O   0  0  0  0  0  0  0  0  0  0  0  0
  149.8459  134.2568  156.3341 N   0  5  0  0  0  0  0  0  0  0  0  0
  150.8775  135.1089  156.1499 C   0  0  0  0  0  0  0  0  0  0  0  0
  151.8917  135.2874  156.8225 O   0  0  0  0  0  0  0  0  0  0  0  0
  149.8064  142.4912  157.8424 H   0  0  0  0  0  0  0  0  0  0  0  0
  149.1716  141.0080  157.1425 H   0  0  0  0  0  0  0  0  0  0  0  0
  150.4721  141.8785  156.3310 H   0  0  0  0  0  0  0  0  0  0  0  0
  150.6607  140.5227  159.0588 H   0  0  0  0  0  0  0  0  0  0  0  0
  153.0697  141.0438  159.0287 H   0  0  0  0  0  0  0  0  0  0  0  0
  152.9439  141.7357  157.4281 H   0  0  0  0  0  0  0  0  0  0  0  0
  152.8547  144.2483  157.4172 H   0  0  0  0  0  0  0  0  0  0  0  0
  151.9483  146.1461  159.1566 H   0  0  0  0  0  0  0  0  0  0  0  0
  150.9217  144.6388  161.2435 H   0  0  0  0  0  0  0  0  0  0  0  0
  151.3996  138.6814  157.8875 H   0  0  0  0  0  0  0  0  0  0  0  0
  152.5006  138.1235  154.5983 H   0  0  0  0  0  0  0  0  0  0  0  0
  152.3641  137.4262  156.1976 H   0  0  0  0  0  0  0  0  0  0  0  0
  149.7834  137.6097  155.8818 H   0  0  0  0  0  0  0  0  0  0  0  0
  150.1023  137.8932  154.1906 H   0  0  0  0  0  0  0  0  0  0  0  0
  151.3583  135.6462  154.1182 H   0  0  0  0  0  0  0  0  0  0  0  0
  148.8087  135.6161  153.6717 H   0  0  0  0  0  0  0  0  0  0  0  0
  1  2  1  0  0  0  0
  1 21  1  0  0  0  0
  1 22  1  0  0  0  0
  1 23  1  0  0  0  0
  2  3  1  0  0  0  0
  2  9  1  0  0  0  0
  2 24  1  0  0  0  0
  3  4  1  0  0  0  0
  3 25  1  0  0  0  0
  3 26  1  0  0  0  0
  4  8  1  0  0  0  0
  4  5  1  0  0  0  0
  5  6  2  0  0  0  0
  5 27  1  0  0  0  0
  6  7  1  0  0  0  0
  6 28  1  0  0  0  0
  7  8  2  0  0  0  0
  7 29  1  0  0  0  0
  9 10  1  0  0  0  0
  9 30  1  0  0  0  0
 10 11  2  0  0  0  0
 10 12  1  0  0  0  0
 12 13  1  0  0  0  0
 12 31  1  0  0  0  0
 12 32  1  0  0  0  0
 13 14  1  0  0  0  0
 13 33  1  0  0  0  0
 13 34  1  0  0  0  0
 14 19  1  0  0  0  0
 14 15  1  0  0  0  0
 14 35  1  0  0  0  0
 15 16  1  0  0  0  0
 15 36  1  0  0  0  0
 16 17  2  0  0  0  0
 16 18  1  0  0  0  0
 18 19  1  0  0  0  0
 19 20  2  0  0  0  0
M  CHG  1  18  -1
M  END
> <s_m_source_file>
AV-unprocessed.smi

> <i_m_source_file_index>
1196

> <i_lp_mmshare_version>
43012

> <i_f3d_flags>
0

> <s_epik_input>
bjFbY0hdW2NIXVtjSF1uMVtDSDJdW0NAQEhdKFtDSDNdKVtOSF1DKD1PKVtDSDJdW0NIMl1bQ0BASF0yW05IXUMoPU8pW05IXUMyPU8=

> <s_epik_cmdline>
J2VwaWtfcHl0aG9uJywgJy1waCcsICc3LjAnLCAnLXRuJywgJzgnLCAnLW1hJywgJzIwMCcsICctbWV0YWxfYmluZGluZycsICctaW1hZScsICc8aW5maWxlLm1hZT4nLCAnLW9tYWUnLCAnPG91dGZpbGUubWFlPic=

> <r_lp_tautomer_probability>
1

> <r_epik_Ionization_Penalty>
2.57056

> <r_epik_Ionization_Penalty_Charging>
2.57023

> <r_epik_Ionization_Penalty_Neutral>
0.000331301

> <r_epik_State_Penalty>
2.56828

> <r_epik_Charging_Adjusted_Penalty>
5.13851

> <i_epik_Tot_Q>
-1

> <i_epik_Tot_abs_Q>
1

> <r_epik_Metal_State_Penalty>
0.444883

> <b_epik_Metal_Only>
1

> <s_lp_Force_Field>
OPLS_2005

> <r_lp_Energy>
6.89561

> <b_lp_Chiralities_Consistent>
1

> <s_lp_Variant>
AV-unprocessed.smi:1196-9

> <Gold.Version>
5.8.1

> <Gold.Id.Protein>
6NUR|6NUR_protein|mol2

> <Gold.PLP.Fitness>
42.9468

> <Gold.PLP.PLP>
-36.2140

> <Gold.PLP.part.hbond>
-3.4110

> <Gold.PLP.part.metal>
0.0000

> <Gold.PLP.part.buried>
-3.5546

> <Gold.PLP.part.nonpolar>
-27.8765

> <Gold.PLP.part.repulsive>
0.1834

> <Gold.PLP.ligand.clash>
0.0000

> <Gold.PLP.ligand.torsion>
0.7099

> <Gold.PLP.Chemscore.Hbond>
2.6800

> <Gold.PLP.Chemscore.CHOScore>
0.0000

> <Gold.PLP.Chemscore.Metal>
0.0000

> <Gold.Chemscore.Hbonds>
donor molecule, donor type, donor heavy atom, donor atom, acceptor molecule, acceptor atom, score
      L1  H    15    36       P1  7948  0.88
      P1  H  7989  7998       L1    11  0.78
      P1  H 10752 10764       L1    20  0.63

> <Gold.PLP.Chemscore.Internal.Correction>
0.1125

> <Gold.Rescore>
     Score         DG    S(hbond)    S(metal)    S(lipo)     H(rot)  DE(clash)    DE(int)     intcor
     12.29     -14.49       2.28        0.00      75.20       2.89       0.13       2.07       ----

> <Gold.Chemscore.Fitness>
12.2923

> <Gold.Chemscore.DG>
-14.4924

> <Gold.Chemscore.ZeroCoef>
-5.4800

> <Gold.Chemscore.Hbond>
2.2828

> <Gold.Chemscore.Metal>
0.0000

> <Gold.Chemscore.Lipo>
75.1952

> <Gold.Chemscore.Internal_Hbond>
0.0000

> <Gold.Chemscore.DEClash>
0.1265

> <Gold.Chemscore.DEInternal>
2.0736

> <Gold.Chemscore.Rot>
2.8946

> <Gold.Chemscore.Internal.Correction>
   9.000000E+99

> <Gold.Chemscore.Hbonds>
donor molecule, donor type, donor heavy atom, donor atom, acceptor molecule, acceptor atom, score
      L1  H    15    36       P1  7948  0.81
      P1  H  7989  7998       L1    11  0.78
      P1  H 10752 10764       L1    20  0.21

> <Gold.Chemscore.Hbond.Weighted>
-7.6247

> <Gold.Chemscore.Metal.Weighted>
-0.0000

> <Gold.Chemscore.Lipo.Weighted>
-8.7978

> <Gold.Chemscore.Internal_Hbond.Weighted>
0.0000

> <Gold.Chemscore.DEClash.Weighted>
0.1265

> <Gold.Chemscore.DEInternal.Weighted>
2.0736

> <Gold.Chemscore.Rot.Weighted>
7.4101

> <Gold.Chemscore.Internal.Correction.Weighted>
   9.000000E+99

> <Gold.Protein.RotatedTorsions>
[ 6907 6896 6895 6894 ] final   60.68 input  -60.11 | X-H torsion
[ 7974 7965 7964 7962 ] final -169.82 input  175.53 | X-H torsion
[ 8008 7997 7996 7995 ] final  -53.91 input   59.86 | X-H torsion
[ 10167 10162 10161 10158 ] final -130.42 input  -65.29 | X-H torsion
[ 10718 10713 10712 10709 ] final   55.85 input   66.30 | X-H torsion
[ 10763 10752 10751 10750 ] final   -5.66 input  -60.55 | X-H torsion
[ 11005 11000 10999 10996 ] final  124.42 input  -57.11 | X-H torsion

> <Gold.Protein.ActiveResidues>
 VAL166  LYS551  ARG553  GLY616  TRP617  ASP618  TYR619  PRO620  LYS621  CYS622 
 ASP623  PHE694  ASN695  SER759  ASP760  ASP761  ALA762  ILE779  LEU786  VAL792 
 PHE793  MET794  SER795  GLU796  ALA797  LYS798  CYS799  TRP800  GLU811  SER814 

> <Gold.Protein.RotatedAtoms>
  152.4024  134.6264  160.0063 H   0  0  0  0  0  0  0  0  0  0  0  0  # atno 6907 bound_to 6896
  151.6465  133.3317  159.3150 H   0  0  0  0  0  0  0  0  0  0  0  0  # atno 6908 bound_to 6896
  150.7923  134.6998  159.6588 H   0  0  0  0  0  0  0  0  0  0  0  0  # atno 6909 bound_to 6896
  144.7179  140.2164  143.6321 H   0  0  0  0  0  0  0  0  0  0  0  0  # atno 7974 bound_to 7965
  154.4147  140.1189  156.5229 H   0  0  0  0  0  0  0  0  0  0  0  0  # atno 8008 bound_to 7997
  155.6684  140.3496  155.4789 H   0  0  0  0  0  0  0  0  0  0  0  0  # atno 8009 bound_to 7997
  155.9654  140.1131  157.0849 H   0  0  0  0  0  0  0  0  0  0  0  0  # atno 8010 bound_to 7997
  139.9295  143.6289  152.2533 H   0  0  0  0  0  0  0  0  0  0  0  0  # atno 10167 bound_to 10162
  157.5381  130.8677  149.8782 H   0  0  0  0  0  0  0  0  0  0  0  0  # atno 10718 bound_to 10713
  153.4016  135.7005  153.6422 H   0  0  0  0  0  0  0  0  0  0  0  0  # atno 10763 bound_to 10752
  153.4953  135.3664  155.2513 H   0  0  0  0  0  0  0  0  0  0  0  0  # atno 10764 bound_to 10752
  154.8711  135.4099  154.3352 H   0  0  0  0  0  0  0  0  0  0  0  0  # atno 10765 bound_to 10752
  139.9358  134.9639  156.8407 H   0  0  0  0  0  0  0  0  0  0  0  0  # atno 11005 bound_to 11000
  145.8542  139.2190  143.1754 LP  0  0  0  0  0  0  0  0  0  0  0  0  # atno 17320 bound_to 7965
  146.0233  140.8328  142.9912 LP  0  0  0  0  0  0  0  0  0  0  0  0  # atno 17321 bound_to 7965
  139.6794  144.7656  151.1636 LP  0  0  0  0  0  0  0  0  0  0  0  0  # atno 17342 bound_to 10162
  140.7641  143.5747  150.8958 LP  0  0  0  0  0  0  0  0  0  0  0  0  # atno 17343 bound_to 10162
  156.0474  130.3725  150.1283 LP  0  0  0  0  0  0  0  0  0  0  0  0  # atno 17370 bound_to 10713
  156.9465  130.9761  151.3506 LP  0  0  0  0  0  0  0  0  0  0  0  0  # atno 17371 bound_to 10713
  140.6080  134.0109  155.7565 LP  0  0  0  0  0  0  0  0  0  0  0  0  # atno 17394 bound_to 11000
  141.0971  133.9827  157.3142 LP  0  0  0  0  0  0  0  0  0  0  0  0  # atno 17395 bound_to 11000

$$$$
