AV-unprocessed.smi:1768|AV-procd|sdf|7144|dock7
  -GOLD-   22720 8383D 1   1.00000     0.00000
 Structure written by MMmdl.
 33 34  0  0  0  0  0  0  0  0  1 V2000
  148.8970  130.4462  153.3674 C   0  0  0  0  0  0  0  0  0  0  0  0
  149.4175  131.7569  153.8498 C   0  0  0  0  0  0  0  0  0  0  0  0
  150.1285  131.8858  154.9767 N   0  0  0  0  0  0  0  0  0  0  0  0
  150.5045  133.2003  155.2136 N   0  0  0  0  0  0  0  0  0  0  0  0
  150.0645  134.0267  154.2549 C   0  0  0  0  0  0  0  0  0  0  0  0
  150.3111  135.4247  154.2434 N   0  0  0  0  0  0  0  0  0  0  0  0
  151.1250  136.1338  155.0448 C   0  0  0  0  0  0  0  0  0  0  0  0
  151.7962  135.6692  155.9665 O   0  0  0  0  0  0  0  0  0  0  0  0
  151.1153  137.4325  154.7115 N   0  0  0  0  0  0  0  0  0  0  0  0
  151.8673  138.4929  155.3792 C   0  0  1  0  0  0  0  0  0  0  0  0
  153.0971  138.8380  154.5251 C   0  0  0  0  0  0  0  0  0  0  0  0
  150.9444  139.7059  155.6081 C   0  0  2  0  0  0  0  0  0  0  0  0
  149.7045  139.4127  156.4553 C   0  0  0  0  0  0  0  0  0  0  0  0
  148.7534  140.4920  155.9928 C   0  0  0  0  0  0  0  0  0  0  0  0
  149.0565  140.5491  154.4996 C   0  0  0  0  0  0  0  0  0  0  0  0
  150.4263  140.1799  154.3655 O   0  0  0  0  0  0  0  0  0  0  0  0
  149.1427  133.2579  152.9742 S   0  0  0  0  0  0  0  0  0  0  0  0
  149.1624  129.6472  154.0605 H   0  0  0  0  0  0  0  0  0  0  0  0
  149.3200  130.2158  152.3896 H   0  0  0  0  0  0  0  0  0  0  0  0
  147.8114  130.4866  153.2790 H   0  0  0  0  0  0  0  0  0  0  0  0
  149.8165  135.9455  153.5344 H   0  0  0  0  0  0  0  0  0  0  0  0
  150.5282  137.7163  153.9411 H   0  0  0  0  0  0  0  0  0  0  0  0
  152.2235  138.1491  156.3518 H   0  0  0  0  0  0  0  0  0  0  0  0
  153.7156  139.5957  155.0060 H   0  0  0  0  0  0  0  0  0  0  0  0
  152.8071  139.2167  153.5444 H   0  0  0  0  0  0  0  0  0  0  0  0
  153.7239  137.9590  154.3706 H   0  0  0  0  0  0  0  0  0  0  0  0
  151.5025  140.5250  156.0654 H   0  0  0  0  0  0  0  0  0  0  0  0
  149.2959  138.4300  156.2149 H   0  0  0  0  0  0  0  0  0  0  0  0
  149.9017  139.4496  157.5270 H   0  0  0  0  0  0  0  0  0  0  0  0
  147.7083  140.2676  156.2082 H   0  0  0  0  0  0  0  0  0  0  0  0
  149.0060  141.4420  156.4656 H   0  0  0  0  0  0  0  0  0  0  0  0
  148.4487  139.8224  153.9592 H   0  0  0  0  0  0  0  0  0  0  0  0
  148.8652  141.5342  154.0735 H   0  0  0  0  0  0  0  0  0  0  0  0
  1  2  1  0  0  0  0
  1 18  1  0  0  0  0
  1 19  1  0  0  0  0
  1 20  1  0  0  0  0
  2 17  1  0  0  0  0
  2  3  2  0  0  0  0
  3  4  1  0  0  0  0
  4  5  2  0  0  0  0
  5  6  1  0  0  0  0
  5 17  1  0  0  0  0
  6  7  1  0  0  0  0
  6 21  1  0  0  0  0
  7  8  2  0  0  0  0
  7  9  1  0  0  0  0
  9 10  1  0  0  0  0
  9 22  1  0  0  0  0
 10 11  1  0  0  0  0
 10 12  1  0  0  0  0
 10 23  1  0  0  0  0
 11 24  1  0  0  0  0
 11 25  1  0  0  0  0
 11 26  1  0  0  0  0
 12 16  1  0  0  0  0
 12 13  1  0  0  0  0
 12 27  1  0  0  0  0
 13 14  1  0  0  0  0
 13 28  1  0  0  0  0
 13 29  1  0  0  0  0
 14 15  1  0  0  0  0
 14 30  1  0  0  0  0
 14 31  1  0  0  0  0
 15 16  1  0  0  0  0
 15 32  1  0  0  0  0
 15 33  1  0  0  0  0
M  END
> <s_m_source_file>
AV-unprocessed.smi

> <i_m_source_file_index>
1768

> <i_lp_mmshare_version>
43012

> <i_f3d_flags>
0

> <s_epik_input>
W0NIM11jMW5uYyhzMSlbTkhdQyg9TylbTkhdW0NASF0oW0NIM10pW0NAQEhdMltDSDJdW0NIMl1bQ0gyXU8y

> <s_epik_cmdline>
J2VwaWtfcHl0aG9uJywgJy1waCcsICc3LjAnLCAnLXRuJywgJzgnLCAnLW1hJywgJzIwMCcsICctbWV0YWxfYmluZGluZycsICctaW1hZScsICc8aW5maWxlLm1hZT4nLCAnLW9tYWUnLCAnPG91dGZpbGUubWFlPic=

> <r_lp_tautomer_probability>
1

> <r_epik_Ionization_Penalty>
0.000523083

> <r_epik_Ionization_Penalty_Charging>
0

> <r_epik_Ionization_Penalty_Neutral>
0.000523083

> <r_epik_State_Penalty>
-0

> <r_epik_Charging_Adjusted_Penalty>
0

> <i_epik_Tot_Q>
0

> <i_epik_Tot_abs_Q>
0

> <r_epik_Metal_State_Penalty>
0.223408

> <b_epik_Metal_Only>
0

> <s_lp_Force_Field>
OPLS_2005

> <r_lp_Energy>
16.97

> <b_lp_Chiralities_Consistent>
1

> <s_lp_Variant>
AV-unprocessed.smi:1768-2

> <Gold.Version>
5.8.1

> <Gold.Id.Protein>
6NUR|6NUR_protein|mol2

> <Gold.PLP.Fitness>
36.6590

> <Gold.PLP.PLP>
-28.1047

> <Gold.PLP.part.hbond>
-3.5746

> <Gold.PLP.part.metal>
0.0000

> <Gold.PLP.part.buried>
-2.8347

> <Gold.PLP.part.nonpolar>
-21.3617

> <Gold.PLP.part.repulsive>
0.3048

> <Gold.PLP.ligand.clash>
0.0000

> <Gold.PLP.ligand.torsion>
0.2290

> <Gold.PLP.Chemscore.Hbond>
3.0000

> <Gold.PLP.Chemscore.CHOScore>
0.0000

> <Gold.PLP.Chemscore.Metal>
0.0000

> <Gold.Chemscore.Hbonds>
donor molecule, donor type, donor heavy atom, donor atom, acceptor molecule, acceptor atom, score
      L1  H     6    21       P1  7948  0.75
      P1  H  7989  7998       L1    16  1.00
      P1  H 10752 10764       L1     8  0.98

> <Gold.PLP.Chemscore.Internal.Correction>
0.0124

> <Gold.Rescore>
     Score         DG    S(hbond)    S(metal)    S(lipo)     H(rot)  DE(clash)    DE(int)     intcor
     13.63     -15.25       2.05        0.00      53.24       1.29       0.08       1.54       ----

> <Gold.Chemscore.Fitness>
13.6323

> <Gold.Chemscore.DG>
-15.2489

> <Gold.Chemscore.ZeroCoef>
-5.4800

> <Gold.Chemscore.Hbond>
2.0499

> <Gold.Chemscore.Metal>
0.0000

> <Gold.Chemscore.Lipo>
53.2414

> <Gold.Chemscore.Internal_Hbond>
0.0000

> <Gold.Chemscore.DEClash>
0.0751

> <Gold.Chemscore.DEInternal>
1.5415

> <Gold.Chemscore.Rot>
1.2919

> <Gold.Chemscore.Internal.Correction>
   9.000000E+99

> <Gold.Chemscore.Hbonds>
donor molecule, donor type, donor heavy atom, donor atom, acceptor molecule, acceptor atom, score
      L1  H     6    21       P1  7948  0.09
      P1  H  7989  7998       L1    16  0.73
      P1  H 10752 10764       L1     8  0.32

> <Gold.Chemscore.Hbond.Weighted>
-6.8468

> <Gold.Chemscore.Metal.Weighted>
-0.0000

> <Gold.Chemscore.Lipo.Weighted>
-6.2292

> <Gold.Chemscore.Internal_Hbond.Weighted>
0.0000

> <Gold.Chemscore.DEClash.Weighted>
0.0751

> <Gold.Chemscore.DEInternal.Weighted>
1.5415

> <Gold.Chemscore.Rot.Weighted>
3.3072

> <Gold.Chemscore.Internal.Correction.Weighted>
   9.000000E+99

> <Gold.Protein.RotatedTorsions>
[ 6907 6896 6895 6894 ] final  -33.00 input  -60.11 | X-H torsion
[ 7974 7965 7964 7962 ] final  122.22 input  175.53 | X-H torsion
[ 8008 7997 7996 7995 ] final    3.55 input   59.86 | X-H torsion
[ 10167 10162 10161 10158 ] final  119.24 input  -65.29 | X-H torsion
[ 10718 10713 10712 10709 ] final   48.38 input   66.30 | X-H torsion
[ 10763 10752 10751 10750 ] final  -14.58 input  -60.55 | X-H torsion
[ 11005 11000 10999 10996 ] final    3.27 input  -57.11 | X-H torsion

> <Gold.Protein.ActiveResidues>
 VAL166  LYS551  ARG553  GLY616  TRP617  ASP618  TYR619  PRO620  LYS621  CYS622 
 ASP623  PHE694  ASN695  SER759  ASP760  ASP761  ALA762  ILE779  LEU786  VAL792 
 PHE793  MET794  SER795  GLU796  ALA797  LYS798  CYS799  TRP800  GLU811  SER814 

> <Gold.Protein.RotatedAtoms>
  151.0713  134.9800  159.8309 H   0  0  0  0  0  0  0  0  0  0  0  0  # atno 6907 bound_to 6896
  152.5408  134.2296  159.8829 H   0  0  0  0  0  0  0  0  0  0  0  0  # atno 6908 bound_to 6896
  151.2320  133.4401  159.2637 H   0  0  0  0  0  0  0  0  0  0  0  0  # atno 6909 bound_to 6896
  145.1101  139.3458  143.4767 H   0  0  0  0  0  0  0  0  0  0  0  0  # atno 7974 bound_to 7965
  154.7050  140.2681  155.6683 H   0  0  0  0  0  0  0  0  0  0  0  0  # atno 8008 bound_to 7997
  156.2777  140.2764  156.1598 H   0  0  0  0  0  0  0  0  0  0  0  0  # atno 8009 bound_to 7997
  155.0712  140.0372  157.2599 H   0  0  0  0  0  0  0  0  0  0  0  0  # atno 8010 bound_to 7997
  139.6059  144.7069  151.2955 H   0  0  0  0  0  0  0  0  0  0  0  0  # atno 10167 bound_to 10162
  157.4681  130.8238  149.7957 H   0  0  0  0  0  0  0  0  0  0  0  0  # atno 10718 bound_to 10713
  153.5304  135.7014  153.5686 H   0  0  0  0  0  0  0  0  0  0  0  0  # atno 10763 bound_to 10752
  153.3696  135.3948  155.1779 H   0  0  0  0  0  0  0  0  0  0  0  0  # atno 10764 bound_to 10752
  154.8685  135.3808  154.4800 H   0  0  0  0  0  0  0  0  0  0  0  0  # atno 10765 bound_to 10752
  140.5950  133.9889  155.8106 H   0  0  0  0  0  0  0  0  0  0  0  0  # atno 11005 bound_to 11000
  146.3526  140.1016  142.8608 LP  0  0  0  0  0  0  0  0  0  0  0  0  # atno 17320 bound_to 7965
  145.0856  140.9250  143.4799 LP  0  0  0  0  0  0  0  0  0  0  0  0  # atno 17321 bound_to 7965
  140.7284  143.6936  150.7902 LP  0  0  0  0  0  0  0  0  0  0  0  0  # atno 17342 bound_to 10162
  140.0521  143.5239  152.2668 LP  0  0  0  0  0  0  0  0  0  0  0  0  # atno 17343 bound_to 10162
  156.0060  130.3855  150.2431 LP  0  0  0  0  0  0  0  0  0  0  0  0  # atno 17370 bound_to 10713
  157.0612  131.0090  151.3222 LP  0  0  0  0  0  0  0  0  0  0  0  0  # atno 17371 bound_to 10713
  141.0910  133.9917  157.3237 LP  0  0  0  0  0  0  0  0  0  0  0  0  # atno 17394 bound_to 11000
  139.9257  135.0201  156.8226 LP  0  0  0  0  0  0  0  0  0  0  0  0  # atno 17395 bound_to 11000

$$$$
