AV-unprocessed.smi:735|AV-procd|sdf|3534|dock4
  -GOLD-   22720 0523D 1   1.00000     0.00000
 Structure written by MMmdl.
 16 16  0  0  0  0  0  0  0  0  3 V2000
  150.9485  139.9020  154.7094 O   0  0  0  0  0  0  0  0  0  0  0  0
  151.9961  139.3839  155.1579 C   0  0  0  0  0  0  0  0  0  0  0  0
  153.1474  139.6250  154.7279 O   0  5  0  0  0  0  0  0  0  0  0  0
  151.8456  138.4407  156.3653 C   0  0  0  0  0  0  0  0  0  0  0  0
  153.0828  138.1058  156.7406 F   0  0  0  0  0  0  0  0  0  0  0  0
  151.3121  139.1246  157.3813 F   0  0  0  0  0  0  0  0  0  0  0  0
  151.0427  137.1703  156.0482 C   0  0  0  0  0  0  0  0  0  0  0  0
  150.5437  136.9393  154.8120 C   0  0  0  0  0  0  0  0  0  0  0  0
  149.8530  135.7672  154.5006 N   0  0  0  0  0  0  0  0  0  0  0  0
  149.6664  134.7911  155.4130 C   0  0  0  0  0  0  0  0  0  0  0  0
  149.0582  133.7854  155.0531 O   0  0  0  0  0  0  0  0  0  0  0  0
  150.1624  134.9801  156.6727 N   0  5  0  0  0  0  0  0  0  0  0  0
  150.8290  136.1128  157.0558 C   0  0  0  0  0  0  0  0  0  0  0  0
  151.2273  136.2605  158.2106 O   0  0  0  0  0  0  0  0  0  0  0  0
  149.4966  135.6587  153.5624 H   0  0  0  0  0  0  0  0  0  0  0  0
  150.6429  137.6218  153.9811 H   0  0  0  0  0  0  0  0  0  0  0  0
  1  2  2  0  0  0  0
  2  3  1  0  0  0  0
  2  4  1  0  0  0  0
  4  5  1  0  0  0  0
  4  6  1  0  0  0  0
  4  7  1  0  0  0  0
  7 13  1  0  0  0  0
  7  8  2  0  0  0  0
  8  9  1  0  0  0  0
  8 16  1  0  0  0  0
  9 15  1  0  0  0  0
  9 10  1  0  0  0  0
 10 11  2  0  0  0  0
 10 12  1  0  0  0  0
 12 13  1  0  0  0  0
 13 14  2  0  0  0  0
M  CHG  1   3  -1
M  CHG  1  12  -1
M  END
> <s_m_source_file>
AV-unprocessed.smi

> <i_m_source_file_index>
735

> <i_lp_mmshare_version>
43012

> <i_f3d_flags>
0

> <s_epik_input>
Tz1DKFtPSF0pQyhGKShGKWMxW2NIXVtuSF1jKD1PKVtuSF1jMT1P

> <s_epik_cmdline>
J2VwaWtfcHl0aG9uJywgJy1waCcsICc3LjAnLCAnLXRuJywgJzgnLCAnLW1hJywgJzIwMCcsICctbWV0YWxfYmluZGluZycsICctaW1hZScsICc8aW5maWxlLm1hZT4nLCAnLW9tYWUnLCAnPG91dGZpbGUubWFlPic=

> <r_lp_tautomer_probability>
0.999514

> <r_epik_Ionization_Penalty>
1.58373

> <r_epik_Ionization_Penalty_Charging>
0.000433443

> <r_epik_Ionization_Penalty_Neutral>
1.5833

> <r_epik_State_Penalty>
2.35383

> <r_epik_Charging_Adjusted_Penalty>
2.35426

> <i_epik_Tot_Q>
-2

> <i_epik_Tot_abs_Q>
2

> <r_epik_Metal_State_Penalty>
1.75831

> <b_epik_Metal_Only>
1

> <s_lp_Force_Field>
OPLS_2005

> <r_lp_Energy>
21.8504

> <b_lp_Chiralities_Consistent>
1

> <s_lp_Variant>
AV-unprocessed.smi:735-3

> <Gold.Version>
5.8.1

> <Gold.Id.Protein>
6NUR|6NUR_protein|mol2

> <Gold.PLP.Fitness>
31.6285

> <Gold.PLP.PLP>
-17.8758

> <Gold.PLP.part.hbond>
-5.1603

> <Gold.PLP.part.metal>
0.0000

> <Gold.PLP.part.buried>
-2.5989

> <Gold.PLP.part.nonpolar>
-10.2438

> <Gold.PLP.part.repulsive>
0.2194

> <Gold.PLP.ligand.clash>
0.0000

> <Gold.PLP.ligand.torsion>
0.0495

> <Gold.PLP.Chemscore.Hbond>
4.5920

> <Gold.PLP.Chemscore.CHOScore>
0.0000

> <Gold.PLP.Chemscore.Metal>
0.0000

> <Gold.Chemscore.Hbonds>
donor molecule, donor type, donor heavy atom, donor atom, acceptor molecule, acceptor atom, score
      L1  H     9    15       P1  7948  1.00
      P1  H  6896  6907       L1    14  0.54
      P1  H  7989  7998       L1     1  0.95
      P1  H  7997  8008       L1     3  2.00

> <Gold.PLP.Chemscore.Internal.Correction>
0.0756

> <Gold.Rescore>
     Score         DG    S(hbond)    S(metal)    S(lipo)     H(rot)  DE(clash)    DE(int)     intcor
     12.81     -15.15       3.84        0.00      12.71       1.81       0.00       2.34       ----

> <Gold.Chemscore.Fitness>
12.8123

> <Gold.Chemscore.DG>
-15.1528

> <Gold.Chemscore.ZeroCoef>
-5.4800

> <Gold.Chemscore.Hbond>
3.8354

> <Gold.Chemscore.Metal>
0.0000

> <Gold.Chemscore.Lipo>
12.7090

> <Gold.Chemscore.Internal_Hbond>
0.0000

> <Gold.Chemscore.DEClash>
0.0000

> <Gold.Chemscore.DEInternal>
2.3405

> <Gold.Chemscore.Rot>
1.8064

> <Gold.Chemscore.Internal.Correction>
   9.000000E+99

> <Gold.Chemscore.Hbonds>
donor molecule, donor type, donor heavy atom, donor atom, acceptor molecule, acceptor atom, score
      L1  H     9    15       P1  7948  0.25
      P1  H  6896  6907       L1    14  0.51
      P1  H  7989  7998       L1     1  0.22
      P1  H  7997  8008       L1     3  0.98

> <Gold.Chemscore.Hbond.Weighted>
-12.8103

> <Gold.Chemscore.Metal.Weighted>
-0.0000

> <Gold.Chemscore.Lipo.Weighted>
-1.4870

> <Gold.Chemscore.Internal_Hbond.Weighted>
0.0000

> <Gold.Chemscore.DEClash.Weighted>
0.0000

> <Gold.Chemscore.DEInternal.Weighted>
2.3405

> <Gold.Chemscore.Rot.Weighted>
4.6244

> <Gold.Chemscore.Internal.Correction.Weighted>
   9.000000E+99

> <Gold.Protein.RotatedTorsions>
[ 6907 6896 6895 6894 ] final  -36.89 input  -60.11 | X-H torsion
[ 7974 7965 7964 7962 ] final   41.51 input  175.53 | X-H torsion
[ 8008 7997 7996 7995 ] final  -14.12 input   59.86 | X-H torsion
[ 10167 10162 10161 10158 ] final  -79.19 input  -65.29 | X-H torsion
[ 10718 10713 10712 10709 ] final -105.01 input   66.30 | X-H torsion
[ 10763 10752 10751 10750 ] final   85.31 input  -60.55 | X-H torsion
[ 11005 11000 10999 10996 ] final  -91.53 input  -57.11 | X-H torsion

> <Gold.Protein.ActiveResidues>
 VAL166  LYS551  ARG553  GLY616  TRP617  ASP618  TYR619  PRO620  LYS621  CYS622 
 ASP623  PHE694  ASN695  SER759  ASP760  ASP761  ALA762  ILE779  LEU786  VAL792 
 PHE793  MET794  SER795  GLU796  ALA797  LYS798  CYS799  TRP800  GLU811  SER814 

> <Gold.Protein.RotatedAtoms>
  151.0216  134.9473  159.8062 H   0  0  0  0  0  0  0  0  0  0  0  0  # atno 6907 bound_to 6896
  152.5326  134.2897  159.9048 H   0  0  0  0  0  0  0  0  0  0  0  0  # atno 6908 bound_to 6896
  151.2904  133.4126  159.2667 H   0  0  0  0  0  0  0  0  0  0  0  0  # atno 6909 bound_to 6896
  146.0817  139.5407  142.9532 H   0  0  0  0  0  0  0  0  0  0  0  0  # atno 7974 bound_to 7965
  154.5236  140.2231  155.8931 H   0  0  0  0  0  0  0  0  0  0  0  0  # atno 8008 bound_to 7997
  156.1688  140.3126  155.8902 H   0  0  0  0  0  0  0  0  0  0  0  0  # atno 8009 bound_to 7997
  155.3600  140.0460  157.3037 H   0  0  0  0  0  0  0  0  0  0  0  0  # atno 8010 bound_to 7997
  140.4615  143.2452  151.8342 H   0  0  0  0  0  0  0  0  0  0  0  0  # atno 10167 bound_to 10162
  156.0328  130.5543  150.7478 H   0  0  0  0  0  0  0  0  0  0  0  0  # atno 10718 bound_to 10713
  153.1463  135.4622  154.9571 H   0  0  0  0  0  0  0  0  0  0  0  0  # atno 10763 bound_to 10752
  154.7789  135.3182  154.8035 H   0  0  0  0  0  0  0  0  0  0  0  0  # atno 10764 bound_to 10752
  153.8548  135.6918  153.4843 H   0  0  0  0  0  0  0  0  0  0  0  0  # atno 10765 bound_to 10752
  141.1542  133.7762  156.9892 H   0  0  0  0  0  0  0  0  0  0  0  0  # atno 11005 bound_to 11000
  145.6205  141.0323  143.1917 LP  0  0  0  0  0  0  0  0  0  0  0  0  # atno 17320 bound_to 7965
  144.7298  139.7762  143.7351 LP  0  0  0  0  0  0  0  0  0  0  0  0  # atno 17321 bound_to 7965
  139.4807  144.5002  151.9070 LP  0  0  0  0  0  0  0  0  0  0  0  0  # atno 17342 bound_to 10162
  140.4088  144.2397  150.5889 LP  0  0  0  0  0  0  0  0  0  0  0  0  # atno 17343 bound_to 10162
  157.5030  131.0920  151.0291 LP  0  0  0  0  0  0  0  0  0  0  0  0  # atno 17370 bound_to 10713
  157.0666  130.5847  149.5395 LP  0  0  0  0  0  0  0  0  0  0  0  0  # atno 17371 bound_to 10713
  140.1014  134.9533  157.1928 LP  0  0  0  0  0  0  0  0  0  0  0  0  # atno 17394 bound_to 11000
  140.3314  134.2806  155.7227 LP  0  0  0  0  0  0  0  0  0  0  0  0  # atno 17395 bound_to 11000

$$$$
