AV-unprocessed.smi:676|AV-procd|sdf|3307|dock3
  -GOLD-   22720 0273D 1   1.00000     0.00000
 Structure written by MMmdl.
 42 43  0  0  0  0  0  0  0  0  1 V2000
  151.8416  139.6340  155.5755 C   0  0  0  0  0  0  0  0  0  0  0  0
  150.7621  140.2387  154.8737 O   0  0  0  0  0  0  0  0  0  0  0  0
  149.4536  139.6872  155.0723 C   0  0  1  0  0  0  0  0  0  0  0  0
  149.2967  138.3911  154.2663 C   0  0  0  0  0  0  0  0  0  0  0  0
  149.0928  139.6930  156.5708 C   0  0  0  0  0  0  0  0  0  0  0  0
  148.5404  141.1107  156.4003 C   0  0  1  0  0  0  0  0  0  0  0  0
  149.5451  142.1246  156.7183 N   0  0  0  0  0  0  0  0  0  0  0  0
  150.4147  142.0500  157.7347 C   0  0  0  0  0  0  0  0  0  0  0  0
  150.4643  141.0967  158.5127 O   0  0  0  0  0  0  0  0  0  0  0  0
  151.3928  143.2243  157.8715 C   0  0  0  0  0  0  0  0  0  0  0  0
  151.7996  143.4696  159.2645 N   0  0  0  0  0  0  0  0  0  0  0  0
  152.4779  142.4286  159.9295 C   0  0  0  0  0  0  0  0  0  0  0  0
  152.8905  142.5490  161.2012 C   0  0  0  0  0  0  0  0  0  0  0  0
  152.6244  143.7894  161.8907 C   0  0  0  0  0  0  0  0  0  0  0  0
  151.9726  144.7897  161.2652 C   0  0  0  0  0  0  0  0  0  0  0  0
  151.5145  144.6602  159.8769 C   0  0  0  0  0  0  0  0  0  0  0  0
  150.9135  145.5671  159.2998 O   0  0  0  0  0  0  0  0  0  0  0  0
  148.4019  140.8289  154.8817 C   0  0  0  0  0  0  0  0  0  0  0  0
  148.7606  141.9569  153.9000 C   0  0  0  0  0  0  0  0  0  0  0  0
  146.9908  140.3751  154.4784 C   0  0  0  0  0  0  0  0  0  0  0  0
  152.7324  140.2498  155.4533 H   0  0  0  0  0  0  0  0  0  0  0  0
  152.0772  138.6468  155.1779 H   0  0  0  0  0  0  0  0  0  0  0  0
  151.6475  139.5445  156.6438 H   0  0  0  0  0  0  0  0  0  0  0  0
  148.2811  138.0007  154.3175 H   0  0  0  0  0  0  0  0  0  0  0  0
  149.9425  137.5970  154.6400 H   0  0  0  0  0  0  0  0  0  0  0  0
  149.5335  138.5487  153.2139 H   0  0  0  0  0  0  0  0  0  0  0  0
  148.3106  138.9726  156.8148 H   0  0  0  0  0  0  0  0  0  0  0  0
  149.9248  139.6065  157.2695 H   0  0  0  0  0  0  0  0  0  0  0  0
  147.5823  141.2639  156.9003 H   0  0  0  0  0  0  0  0  0  0  0  0
  149.5801  142.9350  156.1166 H   0  0  0  0  0  0  0  0  0  0  0  0
  152.2635  143.0133  157.2494 H   0  0  0  0  0  0  0  0  0  0  0  0
  150.9505  144.1268  157.4445 H   0  0  0  0  0  0  0  0  0  0  0  0
  152.6305  141.5321  159.3461 H   0  0  0  0  0  0  0  0  0  0  0  0
  153.4040  141.7381  161.6965 H   0  0  0  0  0  0  0  0  0  0  0  0
  152.9495  143.9158  162.9129 H   0  0  0  0  0  0  0  0  0  0  0  0
  151.7824  145.7107  161.7965 H   0  0  0  0  0  0  0  0  0  0  0  0
  148.0557  142.7859  153.9719 H   0  0  0  0  0  0  0  0  0  0  0  0
  148.7483  141.6041  152.8684 H   0  0  0  0  0  0  0  0  0  0  0  0
  149.7522  142.3727  154.0772 H   0  0  0  0  0  0  0  0  0  0  0  0
  146.2728  141.1923  154.5554 H   0  0  0  0  0  0  0  0  0  0  0  0
  146.6220  139.5720  155.1171 H   0  0  0  0  0  0  0  0  0  0  0  0
  146.9614  140.0108  153.4509 H   0  0  0  0  0  0  0  0  0  0  0  0
  1  2  1  0  0  0  0
  1 21  1  0  0  0  0
  1 22  1  0  0  0  0
  1 23  1  0  0  0  0
  2  3  1  0  0  0  0
  3 18  1  0  0  0  0
  3  4  1  0  0  0  0
  3  5  1  0  0  0  0
  4 24  1  0  0  0  0
  4 25  1  0  0  0  0
  4 26  1  0  0  0  0
  5  6  1  0  0  0  0
  5 27  1  0  0  0  0
  5 28  1  0  0  0  0
  6  7  1  0  0  0  0
  6 18  1  0  0  0  0
  6 29  1  0  0  0  0
  7  8  1  0  0  0  0
  7 30  1  0  0  0  0
  8  9  2  0  0  0  0
  8 10  1  0  0  0  0
 10 11  1  0  0  0  0
 10 31  1  0  0  0  0
 10 32  1  0  0  0  0
 11 16  1  0  0  0  0
 11 12  1  0  0  0  0
 12 13  2  0  0  0  0
 12 33  1  0  0  0  0
 13 14  1  0  0  0  0
 13 34  1  0  0  0  0
 14 15  2  0  0  0  0
 14 35  1  0  0  0  0
 15 16  1  0  0  0  0
 15 36  1  0  0  0  0
 16 17  2  0  0  0  0
 18 19  1  0  0  0  0
 18 20  1  0  0  0  0
 19 37  1  0  0  0  0
 19 38  1  0  0  0  0
 19 39  1  0  0  0  0
 20 40  1  0  0  0  0
 20 41  1  0  0  0  0
 20 42  1  0  0  0  0
M  END
> <s_m_source_file>
AV-unprocessed.smi

> <i_m_source_file_index>
676

> <i_lp_mmshare_version>
43012

> <i_f3d_flags>
0

> <s_epik_input>
W0NIM11PW0NAQF0xKFtDSDNdKVtDSDJdW0NASF0oQzEoW0NIM10pW0NIM10pW05IXUMoPU8pW0NIMl1uMltjSF1bY0hdW2NIXVtjSF1jMj1P

> <s_epik_cmdline>
J2VwaWtfcHl0aG9uJywgJy1waCcsICc3LjAnLCAnLXRuJywgJzgnLCAnLW1hJywgJzIwMCcsICctbWV0YWxfYmluZGluZycsICctaW1hZScsICc8aW5maWxlLm1hZT4nLCAnLW9tYWUnLCAnPG91dGZpbGUubWFlPic=

> <r_lp_tautomer_probability>
1

> <r_epik_Ionization_Penalty>
4.09771e-07

> <r_epik_Ionization_Penalty_Charging>
3.90712e-07

> <r_epik_Ionization_Penalty_Neutral>
1.90591e-08

> <r_epik_State_Penalty>
-0

> <r_epik_Charging_Adjusted_Penalty>
3.90712e-07

> <i_epik_Tot_Q>
0

> <i_epik_Tot_abs_Q>
0

> <r_epik_Metal_State_Penalty>
-0

> <b_epik_Metal_Only>
0

> <s_lp_Force_Field>
OPLS_2005

> <r_lp_Energy>
33.6273

> <b_lp_Chiralities_Consistent>
1

> <s_lp_Variant>
AV-unprocessed.smi:676-1

> <Gold.Version>
5.8.1

> <Gold.Id.Protein>
6NUR|6NUR_protein|mol2

> <Gold.PLP.Fitness>
43.1686

> <Gold.PLP.PLP>
-38.5947

> <Gold.PLP.part.hbond>
-3.3702

> <Gold.PLP.part.metal>
0.0000

> <Gold.PLP.part.buried>
0.4058

> <Gold.PLP.part.nonpolar>
-36.3891

> <Gold.PLP.part.repulsive>
0.2851

> <Gold.PLP.ligand.clash>
0.0000

> <Gold.PLP.ligand.torsion>
0.8953

> <Gold.PLP.Chemscore.Hbond>
1.9920

> <Gold.PLP.Chemscore.CHOScore>
0.0000

> <Gold.PLP.Chemscore.Metal>
0.0000

> <Gold.Chemscore.Hbonds>
donor molecule, donor type, donor heavy atom, donor atom, acceptor molecule, acceptor atom, score
      L1  H     7    30       P1  8028  0.98
      P1  H  7989  7998       L1     2  1.00

> <Gold.PLP.Chemscore.Internal.Correction>
0.3884

> <Gold.Rescore>
     Score         DG    S(hbond)    S(metal)    S(lipo)     H(rot)  DE(clash)    DE(int)     intcor
     14.10     -19.61       1.83        0.00     103.84       1.62       1.65       3.86       ----

> <Gold.Chemscore.Fitness>
14.1026

> <Gold.Chemscore.DG>
-19.6135

> <Gold.Chemscore.ZeroCoef>
-5.4800

> <Gold.Chemscore.Hbond>
1.8338

> <Gold.Chemscore.Metal>
0.0000

> <Gold.Chemscore.Lipo>
103.8391

> <Gold.Chemscore.Internal_Hbond>
0.0000

> <Gold.Chemscore.DEClash>
1.6540

> <Gold.Chemscore.DEInternal>
3.8569

> <Gold.Chemscore.Rot>
1.6175

> <Gold.Chemscore.Internal.Correction>
   9.000000E+99

> <Gold.Chemscore.Hbonds>
donor molecule, donor type, donor heavy atom, donor atom, acceptor molecule, acceptor atom, score
      L1  H     7    30       P1  8028  0.92
      P1  H  7989  7998       L1     2  0.25

> <Gold.Chemscore.Hbond.Weighted>
-6.1250

> <Gold.Chemscore.Metal.Weighted>
-0.0000

> <Gold.Chemscore.Lipo.Weighted>
-12.1492

> <Gold.Chemscore.Internal_Hbond.Weighted>
0.0000

> <Gold.Chemscore.DEClash.Weighted>
1.6540

> <Gold.Chemscore.DEInternal.Weighted>
3.8569

> <Gold.Chemscore.Rot.Weighted>
4.1408

> <Gold.Chemscore.Internal.Correction.Weighted>
   9.000000E+99

> <Gold.Protein.RotatedTorsions>
[ 6907 6896 6895 6894 ] final  -55.06 input  -60.11 | X-H torsion
[ 7974 7965 7964 7962 ] final  159.33 input  175.53 | X-H torsion
[ 8008 7997 7996 7995 ] final  139.05 input   59.86 | X-H torsion
[ 10167 10162 10161 10158 ] final   70.91 input  -65.29 | X-H torsion
[ 10718 10713 10712 10709 ] final  -50.36 input   66.30 | X-H torsion
[ 10763 10752 10751 10750 ] final  164.06 input  -60.55 | X-H torsion
[ 11005 11000 10999 10996 ] final  118.35 input  -57.11 | X-H torsion

> <Gold.Protein.ActiveResidues>
 VAL166  LYS551  ARG553  GLY616  TRP617  ASP618  TYR619  PRO620  LYS621  CYS622 
 ASP623  PHE694  ASN695  SER759  ASP760  ASP761  ALA762  ILE779  LEU786  VAL792 
 PHE793  MET794  SER795  GLU796  ALA797  LYS798  CYS799  TRP800  GLU811  SER814 

> <Gold.Protein.RotatedAtoms>
  150.8284  134.7525  159.6831 H   0  0  0  0  0  0  0  0  0  0  0  0  # atno 6907 bound_to 6896
  152.4391  134.5623  159.9907 H   0  0  0  0  0  0  0  0  0  0  0  0  # atno 6908 bound_to 6896
  151.5790  133.3342  159.3040 H   0  0  0  0  0  0  0  0  0  0  0  0  # atno 6909 bound_to 6896
  144.7796  139.7602  143.6265 H   0  0  0  0  0  0  0  0  0  0  0  0  # atno 7974 bound_to 7965
  156.2993  140.2378  156.4173 H   0  0  0  0  0  0  0  0  0  0  0  0  # atno 8008 bound_to 7997
  154.8387  140.0429  157.1547 H   0  0  0  0  0  0  0  0  0  0  0  0  # atno 8009 bound_to 7997
  154.9127  140.2992  155.5261 H   0  0  0  0  0  0  0  0  0  0  0  0  # atno 8010 bound_to 7997
  140.0519  144.5305  150.7357 H   0  0  0  0  0  0  0  0  0  0  0  0  # atno 10167 bound_to 10162
  156.1807  130.4150  149.9511 H   0  0  0  0  0  0  0  0  0  0  0  0  # atno 10718 bound_to 10713
  154.3032  135.2758  155.2601 H   0  0  0  0  0  0  0  0  0  0  0  0  # atno 10763 bound_to 10752
  154.5029  135.5803  153.6548 H   0  0  0  0  0  0  0  0  0  0  0  0  # atno 10764 bound_to 10752
  152.9898  135.6162  154.3204 H   0  0  0  0  0  0  0  0  0  0  0  0  # atno 10765 bound_to 10752
  139.9106  134.9619  156.7490 H   0  0  0  0  0  0  0  0  0  0  0  0  # atno 11005 bound_to 11000
  146.1997  139.5284  142.9751 LP  0  0  0  0  0  0  0  0  0  0  0  0  # atno 17320 bound_to 7965
  145.6087  141.0343  143.1978 LP  0  0  0  0  0  0  0  0  0  0  0  0  # atno 17321 bound_to 7965
  140.7213  143.2591  151.4269 LP  0  0  0  0  0  0  0  0  0  0  0  0  # atno 17342 bound_to 10162
  139.5948  144.1421  152.2131 LP  0  0  0  0  0  0  0  0  0  0  0  0  # atno 17343 bound_to 10162
  156.7282  130.9033  151.3623 LP  0  0  0  0  0  0  0  0  0  0  0  0  # atno 17370 bound_to 10713
  157.6866  130.9192  150.0403 LP  0  0  0  0  0  0  0  0  0  0  0  0  # atno 17371 bound_to 10713
  140.6789  133.9492  155.7899 LP  0  0  0  0  0  0  0  0  0  0  0  0  # atno 17394 bound_to 11000
  141.0524  134.0465  157.3766 LP  0  0  0  0  0  0  0  0  0  0  0  0  # atno 17395 bound_to 11000

$$$$
