AV-unprocessed.smi:2708|AV-procd|sdf|10459|dock7
  -GOLD-   2272014503D 1   1.00000     0.00000
 Structure written by MMmdl.
 35 35  0  0  0  0  0  0  0  0  2 V2000
  152.6880  139.0320  157.8503 C   0  0  0  0  0  0  0  0  0  0  0  0
  152.1503  138.1133  156.7396 C   0  0  1  0  0  0  0  0  0  0  0  0
  150.7339  137.8654  156.9994 N   0  0  0  0  0  0  0  0  0  0  0  0
  150.2277  137.2865  158.1003 C   0  0  0  0  0  0  0  0  0  0  0  0
  150.9145  136.9019  159.0470 O   0  0  0  0  0  0  0  0  0  0  0  0
  148.7080  137.1224  158.1415 C   0  0  0  0  0  0  0  0  0  0  0  0
  148.3218  136.1796  159.2438 C   0  0  0  0  0  0  0  0  0  0  0  0
  148.5879  134.8352  159.3079 C   0  0  0  0  0  0  0  0  0  0  0  0
  147.9717  134.1212  160.7713 S   0  0  0  0  0  0  0  0  0  0  0  0
  147.3528  135.7032  161.2598 C   0  0  0  0  0  0  0  0  0  0  0  0
  146.6271  135.9893  162.5524 C   0  0  0  0  0  0  0  0  0  0  0  0
  146.5053  134.6938  163.3781 C   0  0  0  0  0  0  0  0  0  0  0  0
  145.1991  136.5149  162.2896 C   0  0  0  0  0  0  0  0  0  0  0  0
  147.3814  137.0719  163.3485 C   0  0  0  0  0  0  0  0  0  0  0  0
  147.6134  136.6520  160.3534 N   0  0  0  0  0  0  0  0  0  0  0  0
  152.3306  138.8247  155.3890 C   0  0  0  0  0  0  0  0  0  0  0  0
  153.5045  139.0173  155.0037 O   0  0  0  0  0  0  0  0  0  0  0  0
  151.2997  139.1683  154.7674 O   0  5  0  0  0  0  0  0  0  0  0  0
  152.7054  137.1731  156.7432 H   0  0  0  0  0  0  0  0  0  0  0  0
  153.7426  139.2636  157.6959 H   0  0  0  0  0  0  0  0  0  0  0  0
  152.6006  138.5521  158.8257 H   0  0  0  0  0  0  0  0  0  0  0  0
  152.1430  139.9762  157.8993 H   0  0  0  0  0  0  0  0  0  0  0  0
  150.0896  138.1380  156.2717 H   0  0  0  0  0  0  0  0  0  0  0  0
  148.2386  138.0973  158.2801 H   0  0  0  0  0  0  0  0  0  0  0  0
  148.3618  136.7496  157.1767 H   0  0  0  0  0  0  0  0  0  0  0  0
  149.1142  134.2263  158.5880 H   0  0  0  0  0  0  0  0  0  0  0  0
  145.9701  134.8655  164.3125 H   0  0  0  0  0  0  0  0  0  0  0  0
  147.4853  134.2893  163.6349 H   0  0  0  0  0  0  0  0  0  0  0  0
  145.9668  133.9223  162.8267 H   0  0  0  0  0  0  0  0  0  0  0  0
  144.5957  135.7877  161.7449 H   0  0  0  0  0  0  0  0  0  0  0  0
  145.2111  137.4392  161.7105 H   0  0  0  0  0  0  0  0  0  0  0  0
  144.6771  136.7280  163.2232 H   0  0  0  0  0  0  0  0  0  0  0  0
  146.8687  137.3103  164.2811 H   0  0  0  0  0  0  0  0  0  0  0  0
  147.4708  137.9956  162.7753 H   0  0  0  0  0  0  0  0  0  0  0  0
  148.3898  136.7475  163.6082 H   0  0  0  0  0  0  0  0  0  0  0  0
  1  2  1  0  0  0  0
  1 20  1  0  0  0  0
  1 21  1  0  0  0  0
  1 22  1  0  0  0  0
  2 19  1  0  0  0  0
  2  3  1  0  0  0  0
  2 16  1  0  0  0  0
  3  4  1  0  0  0  0
  3 23  1  0  0  0  0
  4  5  2  0  0  0  0
  4  6  1  0  0  0  0
  6  7  1  0  0  0  0
  6 24  1  0  0  0  0
  6 25  1  0  0  0  0
  7 15  1  0  0  0  0
  7  8  2  0  0  0  0
  8  9  1  0  0  0  0
  8 26  1  0  0  0  0
  9 10  1  0  0  0  0
 10 11  1  0  0  0  0
 10 15  2  0  0  0  0
 11 12  1  0  0  0  0
 11 13  1  0  0  0  0
 11 14  1  0  0  0  0
 12 27  1  0  0  0  0
 12 28  1  0  0  0  0
 12 29  1  0  0  0  0
 13 30  1  0  0  0  0
 13 31  1  0  0  0  0
 13 32  1  0  0  0  0
 14 33  1  0  0  0  0
 14 34  1  0  0  0  0
 14 35  1  0  0  0  0
 16 17  2  0  0  0  0
 16 18  1  0  0  0  0
M  CHG  1  18  -1
M  END
> <s_m_source_file>
AV-unprocessed.smi

> <i_m_source_file_index>
2708

> <i_lp_mmshare_version>
43012

> <i_f3d_flags>
0

> <s_epik_input>
Tz1DKFtPSF0pW0NASF0oW0NIM10pW05IXUMoPU8pW0NIMl1jMVtjSF1zYyhuMSlDKFtDSDNdKShbQ0gzXSlbQ0gzXQ==

> <s_epik_cmdline>
J2VwaWtfcHl0aG9uJywgJy1waCcsICc3LjAnLCAnLXRuJywgJzgnLCAnLW1hJywgJzIwMCcsICctbWV0YWxfYmluZGluZycsICctaW1hZScsICc8aW5maWxlLm1hZT4nLCAnLW9tYWUnLCAnPG91dGZpbGUubWFlPic=

> <r_lp_tautomer_probability>
1

> <r_epik_Ionization_Penalty>
0.000214174

> <r_epik_Ionization_Penalty_Charging>
0.000167453

> <r_epik_Ionization_Penalty_Neutral>
4.67216e-05

> <r_epik_State_Penalty>
-0

> <r_epik_Charging_Adjusted_Penalty>
0.000167453

> <i_epik_Tot_Q>
-1

> <i_epik_Tot_abs_Q>
1

> <r_epik_Metal_State_Penalty>
-0

> <b_epik_Metal_Only>
0

> <s_lp_Force_Field>
OPLS_2005

> <r_lp_Energy>
-5.21837

> <b_lp_Chiralities_Consistent>
1

> <s_lp_Variant>
AV-unprocessed.smi:2708-2

> <Gold.Version>
5.8.1

> <Gold.Id.Protein>
6NUR|6NUR_protein|mol2

> <Gold.PLP.Fitness>
43.6960

> <Gold.PLP.PLP>
-28.9578

> <Gold.PLP.part.hbond>
-5.0000

> <Gold.PLP.part.metal>
0.0000

> <Gold.PLP.part.buried>
-2.4732

> <Gold.PLP.part.nonpolar>
-22.3651

> <Gold.PLP.part.repulsive>
0.0445

> <Gold.PLP.ligand.clash>
0.0000

> <Gold.PLP.ligand.torsion>
0.2850

> <Gold.PLP.Chemscore.Hbond>
5.0927

> <Gold.PLP.Chemscore.CHOScore>
0.0000

> <Gold.PLP.Chemscore.Metal>
0.0000

> <Gold.Chemscore.Hbonds>
donor molecule, donor type, donor heavy atom, donor atom, acceptor molecule, acceptor atom, score
      P1  H  6896  6907       L1     5  1.00
      P1  H  7989  7998       L1    18  0.71
      P1  H  7997  8010       L1    17  2.00

> <Gold.PLP.Chemscore.Internal.Correction>
0.0299

> <Gold.Rescore>
     Score         DG    S(hbond)    S(metal)    S(lipo)     H(rot)  DE(clash)    DE(int)     intcor
     19.65     -20.25       3.86        0.00      65.11       2.25       0.12       0.48       ----

> <Gold.Chemscore.Fitness>
19.6468

> <Gold.Chemscore.DG>
-20.2503

> <Gold.Chemscore.ZeroCoef>
-5.4800

> <Gold.Chemscore.Hbond>
3.8642

> <Gold.Chemscore.Metal>
0.0000

> <Gold.Chemscore.Lipo>
65.1149

> <Gold.Chemscore.Internal_Hbond>
0.0000

> <Gold.Chemscore.DEClash>
0.1233

> <Gold.Chemscore.DEInternal>
0.4801

> <Gold.Chemscore.Rot>
2.2478

> <Gold.Chemscore.Internal.Correction>
   9.000000E+99

> <Gold.Chemscore.Hbonds>
donor molecule, donor type, donor heavy atom, donor atom, acceptor molecule, acceptor atom, score
      P1  H  6896  6907       L1     5  0.92
      P1  H  6934  6947       L1    15  0.02
      P1  H  7989  7998       L1    18  0.60
      P1  H  7997  8010       L1    17  0.96

> <Gold.Chemscore.Hbond.Weighted>
-12.9063

> <Gold.Chemscore.Metal.Weighted>
-0.0000

> <Gold.Chemscore.Lipo.Weighted>
-7.6184

> <Gold.Chemscore.Internal_Hbond.Weighted>
0.0000

> <Gold.Chemscore.DEClash.Weighted>
0.1233

> <Gold.Chemscore.DEInternal.Weighted>
0.4801

> <Gold.Chemscore.Rot.Weighted>
5.7544

> <Gold.Chemscore.Internal.Correction.Weighted>
   9.000000E+99

> <Gold.Protein.RotatedTorsions>
[ 6907 6896 6895 6894 ] final  -33.19 input  -60.11 | X-H torsion
[ 7974 7965 7964 7962 ] final -112.69 input  175.53 | X-H torsion
[ 8008 7997 7996 7995 ] final  117.00 input   59.86 | X-H torsion
[ 10167 10162 10161 10158 ] final   94.87 input  -65.29 | X-H torsion
[ 10718 10713 10712 10709 ] final  174.69 input   66.30 | X-H torsion
[ 10763 10752 10751 10750 ] final  160.86 input  -60.55 | X-H torsion
[ 11005 11000 10999 10996 ] final  -64.05 input  -57.11 | X-H torsion

> <Gold.Protein.ActiveResidues>
 VAL166  LYS551  ARG553  GLY616  TRP617  ASP618  TYR619  PRO620  LYS621  CYS622 
 ASP623  PHE694  ASN695  SER759  ASP760  ASP761  ALA762  ILE779  LEU786  VAL792 
 PHE793  MET794  SER795  GLU796  ALA797  LYS798  CYS799  TRP800  GLU811  SER814 

> <Gold.Protein.RotatedAtoms>
  151.0689  134.9785  159.8298 H   0  0  0  0  0  0  0  0  0  0  0  0  # atno 6907 bound_to 6896
  152.5406  134.2324  159.8840 H   0  0  0  0  0  0  0  0  0  0  0  0  # atno 6908 bound_to 6896
  151.2348  133.4388  159.2638 H   0  0  0  0  0  0  0  0  0  0  0  0  # atno 6909 bound_to 6896
  145.1409  140.8777  143.3702 H   0  0  0  0  0  0  0  0  0  0  0  0  # atno 7974 bound_to 7965
  156.2470  140.2905  156.0610 H   0  0  0  0  0  0  0  0  0  0  0  0  # atno 8008 bound_to 7997
  155.1775  140.0403  157.2893 H   0  0  0  0  0  0  0  0  0  0  0  0  # atno 8009 bound_to 7997
  154.6283  140.2493  155.7472 H   0  0  0  0  0  0  0  0  0  0  0  0  # atno 8010 bound_to 7997
  139.8042  144.6801  150.9724 H   0  0  0  0  0  0  0  0  0  0  0  0  # atno 10167 bound_to 10162
  156.9459  131.0016  151.2959 H   0  0  0  0  0  0  0  0  0  0  0  0  # atno 10718 bound_to 10713
  154.2540  135.2770  155.2805 H   0  0  0  0  0  0  0  0  0  0  0  0  # atno 10763 bound_to 10752
  154.5440  135.5694  153.6868 H   0  0  0  0  0  0  0  0  0  0  0  0  # atno 10764 bound_to 10752
  152.9975  135.6258  154.2688 H   0  0  0  0  0  0  0  0  0  0  0  0  # atno 10765 bound_to 10752
  141.1413  133.6660  156.5774 H   0  0  0  0  0  0  0  0  0  0  0  0  # atno 11005 bound_to 11000
  145.0533  139.3164  143.5917 LP  0  0  0  0  0  0  0  0  0  0  0  0  # atno 17320 bound_to 7965
  146.3505  139.9949  142.8682 LP  0  0  0  0  0  0  0  0  0  0  0  0  # atno 17321 bound_to 7965
  140.7819  143.4250  151.0782 LP  0  0  0  0  0  0  0  0  0  0  0  0  # atno 17342 bound_to 10162
  139.7920  143.8205  152.3153 LP  0  0  0  0  0  0  0  0  0  0  0  0  # atno 17343 bound_to 10162
  157.5754  130.8339  149.8448 LP  0  0  0  0  0  0  0  0  0  0  0  0  # atno 17370 bound_to 10713
  156.0384  130.3745  150.1500 LP  0  0  0  0  0  0  0  0  0  0  0  0  # atno 17371 bound_to 10713
  140.3865  134.7478  157.4694 LP  0  0  0  0  0  0  0  0  0  0  0  0  # atno 17394 bound_to 11000
  140.0598  134.6011  155.8762 LP  0  0  0  0  0  0  0  0  0  0  0  0  # atno 17395 bound_to 11000

$$$$
