AV-unprocessed.smi:348|AV-procd|sdf|2395|dock10
  -GOLD-   2262022323D 1   1.00000     0.00000
 Structure written by MMmdl.
 39 40  0  0  0  0  0  0  0  0  1 V2000
  146.4095  142.4078  154.5551 C   0  0  0  0  0  0  0  0  0  0  0  0
  147.3331  141.5184  153.9478 O   0  0  0  0  0  0  0  0  0  0  0  0
  148.2498  140.9254  154.8563 C   0  0  0  0  0  0  0  0  0  0  0  0
  149.5113  141.7904  155.0360 C   0  0  0  0  0  0  0  0  0  0  0  0
  150.4925  141.1661  155.9014 N   0  0  0  0  0  0  0  0  0  0  0  0
  150.8685  141.6814  157.1451 C   0  0  0  0  0  0  0  0  0  0  0  0
  150.2502  142.8450  157.5800 N   0  0  0  0  0  0  0  0  0  0  0  0
  151.7998  141.0726  157.9372 C   0  0  0  0  0  0  0  0  0  0  0  0
  152.1465  141.6199  159.1734 N   0  0  0  0  0  0  0  0  0  0  0  0
  153.0934  141.1680  160.1821 C   0  0  0  0  0  0  0  0  0  0  0  0
  153.1843  142.1010  161.3747 C   0  0  0  0  0  0  0  0  0  0  0  0
  152.4868  143.3281  161.3705 C   0  0  0  0  0  0  0  0  0  0  0  0
  152.5692  144.1942  162.4782 C   0  0  0  0  0  0  0  0  0  0  0  0
  153.3477  143.8366  163.5959 C   0  0  0  0  0  0  0  0  0  0  0  0
  154.0429  142.6120  163.6056 C   0  0  0  0  0  0  0  0  0  0  0  0
  153.9605  141.7453  162.4983 C   0  0  0  0  0  0  0  0  0  0  0  0
  152.4384  139.8220  157.4882 C   0  0  0  0  0  0  0  0  0  0  0  0
  153.2946  139.1754  158.0895 O   0  0  0  0  0  0  0  0  0  0  0  0
  151.9993  139.3464  156.2550 N   0  0  0  0  0  0  0  0  0  0  0  0
  151.0470  139.9489  155.4433 C   0  0  0  0  0  0  0  0  0  0  0  0
  150.7297  139.4110  154.3819 O   0  0  0  0  0  0  0  0  0  0  0  0
  152.4053  138.4834  155.9241 H   0  0  0  0  0  0  0  0  0  0  0  0
  145.7213  142.7858  153.7992 H   0  0  0  0  0  0  0  0  0  0  0  0
  146.9066  143.2660  155.0066 H   0  0  0  0  0  0  0  0  0  0  0  0
  145.8197  141.9018  155.3203 H   0  0  0  0  0  0  0  0  0  0  0  0
  147.7691  140.7218  155.8146 H   0  0  0  0  0  0  0  0  0  0  0  0
  148.5320  139.9575  154.4417 H   0  0  0  0  0  0  0  0  0  0  0  0
  149.9904  142.0128  154.0811 H   0  0  0  0  0  0  0  0  0  0  0  0
  149.2867  142.7637  155.4701 H   0  0  0  0  0  0  0  0  0  0  0  0
  149.5492  143.3154  157.0262 H   0  0  0  0  0  0  0  0  0  0  0  0
  150.4601  143.2560  158.4783 H   0  0  0  0  0  0  0  0  0  0  0  0
  151.6967  142.4930  159.4058 H   0  0  0  0  0  0  0  0  0  0  0  0
  152.7935  140.1841  160.5445 H   0  0  0  0  0  0  0  0  0  0  0  0
  154.0779  141.0608  159.7246 H   0  0  0  0  0  0  0  0  0  0  0  0
  151.8855  143.6073  160.5174 H   0  0  0  0  0  0  0  0  0  0  0  0
  152.0345  145.1325  162.4704 H   0  0  0  0  0  0  0  0  0  0  0  0
  153.4106  144.5006  164.4453 H   0  0  0  0  0  0  0  0  0  0  0  0
  154.6396  142.3371  164.4628 H   0  0  0  0  0  0  0  0  0  0  0  0
  154.4974  140.8080  162.5155 H   0  0  0  0  0  0  0  0  0  0  0  0
  1  2  1  0  0  0  0
  1 23  1  0  0  0  0
  1 24  1  0  0  0  0
  1 25  1  0  0  0  0
  2  3  1  0  0  0  0
  3  4  1  0  0  0  0
  3 26  1  0  0  0  0
  3 27  1  0  0  0  0
  4  5  1  0  0  0  0
  4 28  1  0  0  0  0
  4 29  1  0  0  0  0
  5 20  1  0  0  0  0
  5  6  1  0  0  0  0
  6  7  1  0  0  0  0
  6  8  2  0  0  0  0
  7 30  1  0  0  0  0
  7 31  1  0  0  0  0
  8  9  1  0  0  0  0
  8 17  1  0  0  0  0
  9 10  1  0  0  0  0
  9 32  1  0  0  0  0
 10 11  1  0  0  0  0
 10 33  1  0  0  0  0
 10 34  1  0  0  0  0
 11 16  1  0  0  0  0
 11 12  2  0  0  0  0
 12 13  1  0  0  0  0
 12 35  1  0  0  0  0
 13 14  2  0  0  0  0
 13 36  1  0  0  0  0
 14 15  1  0  0  0  0
 14 37  1  0  0  0  0
 15 16  2  0  0  0  0
 15 38  1  0  0  0  0
 16 39  1  0  0  0  0
 17 18  2  0  0  0  0
 17 19  1  0  0  0  0
 19 22  1  0  0  0  0
 19 20  1  0  0  0  0
 20 21  2  0  0  0  0
M  END
> <s_m_source_file>
AV-unprocessed.smi

> <i_m_source_file_index>
348

> <i_lp_mmshare_version>
43012

> <i_f3d_flags>
0

> <s_epik_input>
W0NIM11PW0NIMl1bQ0gyXW4xYyhbTkgyXSljKGMoPU8pW25IXWMxPU8pW05IXVtDSDJdYzJbY0hdW2NIXVtjSF1bY0hdW2NIXTI=

> <s_epik_cmdline>
J2VwaWtfcHl0aG9uJywgJy1waCcsICc3LjAnLCAnLXRuJywgJzgnLCAnLW1hJywgJzIwMCcsICctbWV0YWxfYmluZGluZycsICctaW1hZScsICc8aW5maWxlLm1hZT4nLCAnLW9tYWUnLCAnPG91dGZpbGUubWFlPic=

> <r_lp_tautomer_probability>
1

> <r_epik_Ionization_Penalty>
5.85579e-06

> <r_epik_Ionization_Penalty_Charging>
2.30036e-06

> <r_epik_Ionization_Penalty_Neutral>
3.55543e-06

> <r_epik_State_Penalty>
-0

> <r_epik_Charging_Adjusted_Penalty>
2.30036e-06

> <i_epik_Tot_Q>
0

> <i_epik_Tot_abs_Q>
0

> <r_epik_Metal_State_Penalty>
-0

> <b_epik_Metal_Only>
0

> <s_epik_Chemistry_Notes>
This compound has an imine and may undergo hydrolysis.

> <s_lp_Force_Field>
OPLS_2005

> <r_lp_Energy>
18.6076

> <b_lp_Chiralities_Consistent>
1

> <s_lp_Variant>
AV-unprocessed.smi:348-1

> <Gold.Version>
5.8.1

> <Gold.Id.Protein>
6NUR|6NUR_protein|mol2

> <Gold.PLP.Fitness>
50.1580

> <Gold.PLP.PLP>
-44.4533

> <Gold.PLP.part.hbond>
-3.0000

> <Gold.PLP.part.metal>
0.0000

> <Gold.PLP.part.buried>
1.0496

> <Gold.PLP.part.nonpolar>
-41.0000

> <Gold.PLP.part.repulsive>
0.9314

> <Gold.PLP.ligand.clash>
0.0000

> <Gold.PLP.ligand.torsion>
0.2345

> <Gold.PLP.Chemscore.Hbond>
2.0500

> <Gold.PLP.Chemscore.CHOScore>
0.0000

> <Gold.PLP.Chemscore.Metal>
0.0000

> <Gold.Chemscore.Hbonds>
donor molecule, donor type, donor heavy atom, donor atom, acceptor molecule, acceptor atom, score
      L1  H     7    30       P1  8028  0.93
      P1  H  7989  7998       L1    21  0.40
      P1  H  7997  8008       L1    18  0.50

> <Gold.PLP.Chemscore.Internal.Correction>
0.0238

> <Gold.Rescore>
     Score         DG    S(hbond)    S(metal)    S(lipo)     H(rot)  DE(clash)    DE(int)     intcor
     12.20     -15.56       0.96        0.00     104.49       2.10       0.90       2.46       ----

> <Gold.Chemscore.Fitness>
12.2030

> <Gold.Chemscore.DG>
-15.5596

> <Gold.Chemscore.ZeroCoef>
-5.4800

> <Gold.Chemscore.Hbond>
0.9645

> <Gold.Chemscore.Metal>
0.0000

> <Gold.Chemscore.Lipo>
104.4944

> <Gold.Chemscore.Internal_Hbond>
0.0000

> <Gold.Chemscore.DEClash>
0.8992

> <Gold.Chemscore.DEInternal>
2.4573

> <Gold.Chemscore.Rot>
2.0968

> <Gold.Chemscore.Internal.Correction>
   9.000000E+99

> <Gold.Chemscore.Hbonds>
donor molecule, donor type, donor heavy atom, donor atom, acceptor molecule, acceptor atom, score
      L1  H     7    30       P1  8028  0.84
      P1  H  7989  7998       L1    21  0.01
      P1  H  7997  8008       L1    18  0.02

> <Gold.Chemscore.Hbond.Weighted>
-3.2214

> <Gold.Chemscore.Metal.Weighted>
-0.0000

> <Gold.Chemscore.Lipo.Weighted>
-12.2258

> <Gold.Chemscore.Internal_Hbond.Weighted>
0.0000

> <Gold.Chemscore.DEClash.Weighted>
0.8992

> <Gold.Chemscore.DEInternal.Weighted>
2.4573

> <Gold.Chemscore.Rot.Weighted>
5.3677

> <Gold.Chemscore.Internal.Correction.Weighted>
   9.000000E+99

> <Gold.Protein.RotatedTorsions>
[ 6907 6896 6895 6894 ] final -107.73 input  -60.11 | X-H torsion
[ 7974 7965 7964 7962 ] final  177.90 input  175.53 | X-H torsion
[ 8008 7997 7996 7995 ] final  -89.16 input   59.86 | X-H torsion
[ 10167 10162 10161 10158 ] final -104.52 input  -65.29 | X-H torsion
[ 10718 10713 10712 10709 ] final  -63.66 input   66.30 | X-H torsion
[ 10763 10752 10751 10750 ] final -168.54 input  -60.55 | X-H torsion
[ 11005 11000 10999 10996 ] final  145.73 input  -57.11 | X-H torsion

> <Gold.Protein.ActiveResidues>
 VAL166  LYS551  ARG553  GLY616  TRP617  ASP618  TYR619  PRO620  LYS621  CYS622 
 ASP623  PHE694  ASN695  SER759  ASP760  ASP761  ALA762  ILE779  LEU786  VAL792 
 PHE793  MET794  SER795  GLU796  ALA797  LYS798  CYS799  TRP800  GLU811  SER814 

> <Gold.Protein.RotatedAtoms>
  150.7461  133.9782  159.3567 H   0  0  0  0  0  0  0  0  0  0  0  0  # atno 6907 bound_to 6896
  151.7721  135.0781  160.0371 H   0  0  0  0  0  0  0  0  0  0  0  0  # atno 6908 bound_to 6896
  152.3331  133.5944  159.5860 H   0  0  0  0  0  0  0  0  0  0  0  0  # atno 6909 bound_to 6896
  144.7163  140.0317  143.6439 H   0  0  0  0  0  0  0  0  0  0  0  0  # atno 7974 bound_to 7965
  154.6833  140.0545  157.0288 H   0  0  0  0  0  0  0  0  0  0  0  0  # atno 8008 bound_to 7997
  155.0920  140.3220  155.4552 H   0  0  0  0  0  0  0  0  0  0  0  0  # atno 8009 bound_to 7997
  156.2702  140.2046  156.6047 H   0  0  0  0  0  0  0  0  0  0  0  0  # atno 8010 bound_to 7997
  140.2084  143.3765  152.1071 H   0  0  0  0  0  0  0  0  0  0  0  0  # atno 10167 bound_to 10162
  156.0777  130.4223  150.1309 H   0  0  0  0  0  0  0  0  0  0  0  0  # atno 10718 bound_to 10713
  154.6617  135.2926  154.9857 H   0  0  0  0  0  0  0  0  0  0  0  0  # atno 10763 bound_to 10752
  154.0914  135.6590  153.4857 H   0  0  0  0  0  0  0  0  0  0  0  0  # atno 10764 bound_to 10752
  153.0434  135.5221  154.7572 H   0  0  0  0  0  0  0  0  0  0  0  0  # atno 10765 bound_to 10752
  140.0735  134.9138  157.1385 H   0  0  0  0  0  0  0  0  0  0  0  0  # atno 11005 bound_to 11000
  146.0097  139.3159  143.0878 LP  0  0  0  0  0  0  0  0  0  0  0  0  # atno 17320 bound_to 7965
  145.8696  140.9427  143.0657 LP  0  0  0  0  0  0  0  0  0  0  0  0  # atno 17321 bound_to 7965
  139.5189  144.7013  151.5486 LP  0  0  0  0  0  0  0  0  0  0  0  0  # atno 17342 bound_to 10162
  140.6341  143.9019  150.6631 LP  0  0  0  0  0  0  0  0  0  0  0  0  # atno 17343 bound_to 10162
  156.9347  130.9725  151.3527 LP  0  0  0  0  0  0  0  0  0  0  0  0  # atno 17370 bound_to 10713
  157.5880  130.8423  149.8617 LP  0  0  0  0  0  0  0  0  0  0  0  0  # atno 17371 bound_to 10713
  140.3591  134.2513  155.7189 LP  0  0  0  0  0  0  0  0  0  0  0  0  # atno 17394 bound_to 11000
  141.2021  133.7946  157.0408 LP  0  0  0  0  0  0  0  0  0  0  0  0  # atno 17395 bound_to 11000

$$$$
