AV-unprocessed.smi:2889|AV-procd|sdf|11114|dock5
  -GOLD-   2272015583D 1   1.00000     0.00000
 Structure written by MMmdl.
 35 36  0  0  0  0  0  0  0  0  2 V2000
  151.6005  144.0829  157.6909 C   0  0  0  0  0  0  0  0  0  0  0  0
  151.0530  142.3834  157.3636 S   0  0  0  0  0  0  0  0  0  0  0  0
  151.8061  141.4758  158.7573 C   0  0  2  0  0  0  0  0  0  0  0  0
  153.1177  142.1708  159.2157 C   0  0  0  0  0  0  0  0  0  0  0  0
  153.7589  141.4901  160.4431 C   0  0  0  0  0  0  0  0  0  0  0  0
  153.9623  139.9879  160.1597 C   0  0  0  0  0  0  0  0  0  0  0  0
  152.6599  139.2847  159.6963 C   0  0  0  0  0  0  0  0  0  0  0  0
  151.9804  139.9531  158.4730 C   0  0  2  0  0  0  0  0  0  0  0  0
  152.7851  139.7368  157.2766 N   0  5  0  0  0  0  0  0  0  0  0  0
  152.2325  138.7796  156.0911 S   0  0  0  0  0  0  0  0  0  0  0  0
  151.8970  139.5232  154.8650 O   0  0  0  0  0  0  0  0  0  0  0  0
  153.0500  137.5655  155.9351 O   0  0  0  0  0  0  0  0  0  0  0  0
  150.6321  138.2180  156.8223 C   0  0  0  0  0  0  0  0  0  0  0  0
  150.5738  136.7162  156.8835 C   0  0  0  0  0  0  0  0  0  0  0  0
  150.7025  135.7828  155.8176 C   0  0  0  0  0  0  0  0  0  0  0  0
  150.5704  134.5729  156.4351 C   0  0  0  0  0  0  0  0  0  0  0  0
  150.3879  134.7371  157.7693 O   0  0  0  0  0  0  0  0  0  0  0  0
  150.3973  136.1086  158.0471 N   0  0  0  0  0  0  0  0  0  0  0  0
  151.2587  144.7435  156.8945 H   0  0  0  0  0  0  0  0  0  0  0  0
  152.6884  144.1318  157.7356 H   0  0  0  0  0  0  0  0  0  0  0  0
  151.1943  144.4484  158.6338 H   0  0  0  0  0  0  0  0  0  0  0  0
  151.1047  141.5724  159.5869 H   0  0  0  0  0  0  0  0  0  0  0  0
  153.8400  142.1972  158.3972 H   0  0  0  0  0  0  0  0  0  0  0  0
  152.9094  143.2132  159.4582 H   0  0  0  0  0  0  0  0  0  0  0  0
  154.7102  141.9637  160.6871 H   0  0  0  0  0  0  0  0  0  0  0  0
  153.1120  141.6155  161.3120 H   0  0  0  0  0  0  0  0  0  0  0  0
  154.7447  139.8627  159.4083 H   0  0  0  0  0  0  0  0  0  0  0  0
  154.3370  139.4983  161.0588 H   0  0  0  0  0  0  0  0  0  0  0  0
  152.8625  138.2329  159.4915 H   0  0  0  0  0  0  0  0  0  0  0  0
  151.9540  139.2897  160.5277 H   0  0  0  0  0  0  0  0  0  0  0  0
  150.9870  139.5180  158.3576 H   0  0  0  0  0  0  0  0  0  0  0  0
  150.5656  138.6359  157.8261 H   0  0  0  0  0  0  0  0  0  0  0  0
  149.8131  138.6388  156.2385 H   0  0  0  0  0  0  0  0  0  0  0  0
  150.8571  135.9739  154.7664 H   0  0  0  0  0  0  0  0  0  0  0  0
  150.5850  133.5534  156.0796 H   0  0  0  0  0  0  0  0  0  0  0  0
  1  2  1  0  0  0  0
  1 19  1  0  0  0  0
  1 20  1  0  0  0  0
  1 21  1  0  0  0  0
  2  3  1  0  0  0  0
  3  8  1  0  0  0  0
  3  4  1  0  0  0  0
  3 22  1  0  0  0  0
  4  5  1  0  0  0  0
  4 23  1  0  0  0  0
  4 24  1  0  0  0  0
  5  6  1  0  0  0  0
  5 25  1  0  0  0  0
  5 26  1  0  0  0  0
  6  7  1  0  0  0  0
  6 27  1  0  0  0  0
  6 28  1  0  0  0  0
  7  8  1  0  0  0  0
  7 29  1  0  0  0  0
  7 30  1  0  0  0  0
  8  9  1  0  0  0  0
  8 31  1  0  0  0  0
  9 10  1  0  0  0  0
 10 11  2  0  0  0  0
 10 12  2  0  0  0  0
 10 13  1  0  0  0  0
 13 14  1  0  0  0  0
 13 32  1  0  0  0  0
 13 33  1  0  0  0  0
 14 18  2  0  0  0  0
 14 15  1  0  0  0  0
 15 16  2  0  0  0  0
 15 34  1  0  0  0  0
 16 17  1  0  0  0  0
 16 35  1  0  0  0  0
 17 18  1  0  0  0  0
M  CHG  1   9  -1
M  END
> <s_m_source_file>
AV-unprocessed.smi

> <i_m_source_file_index>
2889

> <i_lp_mmshare_version>
43012

> <i_f3d_flags>
0

> <s_epik_input>
W0NIM11TW0NAQEhdMVtDSDJdW0NIMl1bQ0gyXVtDSDJdW0NASF0xW05IXVMoPU8pKD1PKVtDSDJdYzJbY0hdW2NIXW9uMg==

> <s_epik_cmdline>
J2VwaWtfcHl0aG9uJywgJy1waCcsICc3LjAnLCAnLXRuJywgJzgnLCAnLW1hJywgJzIwMCcsICctbWV0YWxfYmluZGluZycsICctaW1hZScsICc8aW5maWxlLm1hZT4nLCAnLW9tYWUnLCAnPG91dGZpbGUubWFlPic=

> <r_lp_tautomer_probability>
1

> <r_epik_Ionization_Penalty>
4.65467

> <r_epik_Ionization_Penalty_Charging>
4.65467

> <r_epik_Ionization_Penalty_Neutral>
2.71476e-10

> <r_epik_State_Penalty>
4.65444

> <r_epik_Charging_Adjusted_Penalty>
9.30911

> <i_epik_Tot_Q>
-1

> <i_epik_Tot_abs_Q>
1

> <r_epik_Metal_State_Penalty>
0.901484

> <b_epik_Metal_Only>
1

> <s_lp_Force_Field>
OPLS_2005

> <r_lp_Energy>
12.0464

> <b_lp_Chiralities_Consistent>
1

> <s_lp_Variant>
AV-unprocessed.smi:2889-7

> <Gold.Version>
5.8.1

> <Gold.Id.Protein>
6NUR|6NUR_protein|mol2

> <Gold.PLP.Fitness>
43.3909

> <Gold.PLP.PLP>
-32.9916

> <Gold.PLP.part.hbond>
-4.8070

> <Gold.PLP.part.metal>
0.0000

> <Gold.PLP.part.buried>
-5.3790

> <Gold.PLP.part.nonpolar>
-23.7848

> <Gold.PLP.part.repulsive>
0.0527

> <Gold.PLP.ligand.clash>
0.0618

> <Gold.PLP.ligand.torsion>
1.0416

> <Gold.PLP.Chemscore.Hbond>
3.8280

> <Gold.PLP.Chemscore.CHOScore>
0.0000

> <Gold.PLP.Chemscore.Metal>
0.0000

> <Gold.Chemscore.Hbonds>
donor molecule, donor type, donor heavy atom, donor atom, acceptor molecule, acceptor atom, score
      P1  H  6896  6908       L1    17  0.62
      P1  H  7989  7998       L1    11  0.98
      P1  H  7997  8010       L1     9  2.00
      P1  H 10752 10765       L1    12  0.23

> <Gold.PLP.Chemscore.Internal.Correction>
1.0601

> <Gold.Rescore>
     Score         DG    S(hbond)    S(metal)    S(lipo)     H(rot)  DE(clash)    DE(int)     intcor
     19.30     -21.60       3.14        0.00      81.60       1.53       1.44       0.86       ----

> <Gold.Chemscore.Fitness>
19.2996

> <Gold.Chemscore.DG>
-21.6014

> <Gold.Chemscore.ZeroCoef>
-5.4800

> <Gold.Chemscore.Hbond>
3.1421

> <Gold.Chemscore.Metal>
0.0000

> <Gold.Chemscore.Lipo>
81.6015

> <Gold.Chemscore.Internal_Hbond>
0.0000

> <Gold.Chemscore.DEClash>
1.4407

> <Gold.Chemscore.DEInternal>
0.8612

> <Gold.Chemscore.Rot>
1.5314

> <Gold.Chemscore.Internal.Correction>
   9.000000E+99

> <Gold.Chemscore.Hbonds>
donor molecule, donor type, donor heavy atom, donor atom, acceptor molecule, acceptor atom, score
      P1  H  6896  6908       L1    17  0.22
      P1  H  7989  7998       L1    11  0.93
      P1  H  7997  8010       L1     9  0.30
      P1  H 10752 10765       L1    12  0.24

> <Gold.Chemscore.Hbond.Weighted>
-10.4945

> <Gold.Chemscore.Metal.Weighted>
-0.0000

> <Gold.Chemscore.Lipo.Weighted>
-9.5474

> <Gold.Chemscore.Internal_Hbond.Weighted>
0.0000

> <Gold.Chemscore.DEClash.Weighted>
1.4407

> <Gold.Chemscore.DEInternal.Weighted>
0.8612

> <Gold.Chemscore.Rot.Weighted>
3.9205

> <Gold.Chemscore.Internal.Correction.Weighted>
   9.000000E+99

> <Gold.Protein.RotatedTorsions>
[ 6907 6896 6895 6894 ] final  135.98 input  -60.11 | X-H torsion
[ 7974 7965 7964 7962 ] final -149.15 input  175.53 | X-H torsion
[ 8008 7997 7996 7995 ] final   56.51 input   59.86 | X-H torsion
[ 10167 10162 10161 10158 ] final   36.61 input  -65.29 | X-H torsion
[ 10718 10713 10712 10709 ] final   24.40 input   66.30 | X-H torsion
[ 10763 10752 10751 10750 ] final -152.27 input  -60.55 | X-H torsion
[ 11005 11000 10999 10996 ] final -167.28 input  -57.11 | X-H torsion

> <Gold.Protein.ActiveResidues>
 VAL166  LYS551  ARG553  GLY616  TRP617  ASP618  TYR619  PRO620  LYS621  CYS622 
 ASP623  PHE694  ASN695  SER759  ASP760  ASP761  ALA762  ILE779  LEU786  VAL792 
 PHE793  MET794  SER795  GLU796  ALA797  LYS798  CYS799  TRP800  GLU811  SER814 

> <Gold.Protein.RotatedAtoms>
  152.2945  133.5594  159.5578 H   0  0  0  0  0  0  0  0  0  0  0  0  # atno 6907 bound_to 6896
  150.7250  134.0381  159.3765 H   0  0  0  0  0  0  0  0  0  0  0  0  # atno 6908 bound_to 6896
  151.8285  135.0629  160.0485 H   0  0  0  0  0  0  0  0  0  0  0  0  # atno 6909 bound_to 6896
  144.7985  140.5103  143.5723 H   0  0  0  0  0  0  0  0  0  0  0  0  # atno 7974 bound_to 7965
  155.5187  140.3479  155.4402 H   0  0  0  0  0  0  0  0  0  0  0  0  # atno 8008 bound_to 7997
  156.0799  140.1384  156.9752 H   0  0  0  0  0  0  0  0  0  0  0  0  # atno 8009 bound_to 7997
  154.4574  140.0948  156.6772 H   0  0  0  0  0  0  0  0  0  0  0  0  # atno 8010 bound_to 7997
  140.4111  144.1591  150.6139 H   0  0  0  0  0  0  0  0  0  0  0  0  # atno 10167 bound_to 10162
  157.1793  130.6795  149.6107 H   0  0  0  0  0  0  0  0  0  0  0  0  # atno 10718 bound_to 10713
  154.8005  135.3240  154.7562 H   0  0  0  0  0  0  0  0  0  0  0  0  # atno 10763 bound_to 10752
  153.8231  135.6886  153.4829 H   0  0  0  0  0  0  0  0  0  0  0  0  # atno 10764 bound_to 10752
  153.1719  135.4620  154.9856 H   0  0  0  0  0  0  0  0  0  0  0  0  # atno 10765 bound_to 10752
  140.5551  134.5390  157.5131 H   0  0  0  0  0  0  0  0  0  0  0  0  # atno 11005 bound_to 11000
  145.5612  139.1479  143.3340 LP  0  0  0  0  0  0  0  0  0  0  0  0  # atno 17320 bound_to 7965
  146.2260  140.5748  142.8996 LP  0  0  0  0  0  0  0  0  0  0  0  0  # atno 17321 bound_to 7965
  140.4637  143.2439  151.9185 LP  0  0  0  0  0  0  0  0  0  0  0  0  # atno 17342 bound_to 10162
  139.4782  144.5442  151.8483 LP  0  0  0  0  0  0  0  0  0  0  0  0  # atno 17343 bound_to 10162
  155.9727  130.4652  150.6246 LP  0  0  0  0  0  0  0  0  0  0  0  0  # atno 17370 bound_to 10713
  157.3968  131.0804  151.1344 LP  0  0  0  0  0  0  0  0  0  0  0  0  # atno 17371 bound_to 10713
  139.9436  134.7743  156.0618 LP  0  0  0  0  0  0  0  0  0  0  0  0  # atno 17394 bound_to 11000
  141.1148  133.6631  156.3068 LP  0  0  0  0  0  0  0  0  0  0  0  0  # atno 17395 bound_to 11000

$$$$
