AV-unprocessed.smi:3170|AV-procd|sdf|12108|dock9
  -GOLD-   2272017543D 1   1.00000     0.00000
 Structure written by MMmdl.
 36 37  0  0  0  0  0  0  0  0  2 V2000
  146.2996  138.9554  154.0230 O   0  0  0  0  0  0  0  0  0  0  0  0
  147.0916  138.1873  153.4764 C   0  0  0  0  0  0  0  0  0  0  0  0
  146.7223  137.1660  152.6910 N   0  0  0  0  0  0  0  0  0  0  0  0
  145.3418  136.8249  152.3691 C   0  0  0  0  0  0  0  0  0  0  0  0
  145.2524  135.9760  151.0901 C   0  0  0  0  0  0  0  0  0  0  0  0
  144.6438  134.6709  151.3498 N   0  0  0  0  0  0  0  0  0  0  0  0
  144.4995  133.6294  150.4699 C   0  0  0  0  0  0  0  0  0  0  0  0
  143.8717  132.6224  151.1572 C   0  0  0  0  0  0  0  0  0  0  0  0
  143.6590  133.0923  152.4257 N   0  3  0  0  0  0  0  0  0  0  0  0
  144.1287  134.3389  152.5405 C   0  0  0  0  0  0  0  0  0  0  0  0
  148.4235  138.2682  153.5985 N   0  0  0  0  0  0  0  0  0  0  0  0
  149.1299  139.2686  154.3916 C   0  0  0  0  0  0  0  0  0  0  0  0
  150.6578  139.0791  154.3363 C   0  0  1  0  0  0  0  0  0  0  0  0
  151.4109  139.6188  155.5364 C   0  0  0  0  0  0  0  0  0  0  0  0
  152.7413  138.8804  155.4272 C   0  0  0  0  0  0  0  0  0  0  0  0
  152.4374  137.6180  154.8402 O   0  0  0  0  0  0  0  0  0  0  0  0
  151.1020  137.6169  154.3434 C   0  0  0  0  0  0  0  0  0  0  0  0
  147.4448  136.5900  152.2842 H   0  0  0  0  0  0  0  0  0  0  0  0
  144.8847  136.3014  153.2106 H   0  0  0  0  0  0  0  0  0  0  0  0
  144.7832  137.7523  152.2407 H   0  0  0  0  0  0  0  0  0  0  0  0
  144.6530  136.4816  150.3320 H   0  0  0  0  0  0  0  0  0  0  0  0
  146.2403  135.8076  150.6582 H   0  0  0  0  0  0  0  0  0  0  0  0
  144.8445  133.6811  149.4473 H   0  0  0  0  0  0  0  0  0  0  0  0
  143.5680  131.6333  150.8467 H   0  0  0  0  0  0  0  0  0  0  0  0
  144.0970  134.9561  153.4210 H   0  0  0  0  0  0  0  0  0  0  0  0
  148.9909  137.5906  153.1106 H   0  0  0  0  0  0  0  0  0  0  0  0
  148.8591  140.2536  154.0102 H   0  0  0  0  0  0  0  0  0  0  0  0
  148.7829  139.2341  155.4258 H   0  0  0  0  0  0  0  0  0  0  0  0
  151.0543  139.5519  153.4361 H   0  0  0  0  0  0  0  0  0  0  0  0
  151.5267  140.7029  155.5208 H   0  0  0  0  0  0  0  0  0  0  0  0
  150.9041  139.3412  156.4619 H   0  0  0  0  0  0  0  0  0  0  0  0
  153.4200  139.4165  154.7629 H   0  0  0  0  0  0  0  0  0  0  0  0
  153.2339  138.7636  156.3927 H   0  0  0  0  0  0  0  0  0  0  0  0
  150.4854  137.0273  155.0234 H   0  0  0  0  0  0  0  0  0  0  0  0
  151.0454  137.1598  153.3554 H   0  0  0  0  0  0  0  0  0  0  0  0
  143.2106  132.5742  153.1708 H   0  0  0  0  0  0  0  0  0  0  0  0
  1  2  2  0  0  0  0
  2  3  1  0  0  0  0
  2 11  1  0  0  0  0
  3  4  1  0  0  0  0
  3 18  1  0  0  0  0
  4  5  1  0  0  0  0
  4 19  1  0  0  0  0
  4 20  1  0  0  0  0
  5  6  1  0  0  0  0
  5 21  1  0  0  0  0
  5 22  1  0  0  0  0
  6 10  1  0  0  0  0
  6  7  1  0  0  0  0
  7  8  2  0  0  0  0
  7 23  1  0  0  0  0
  8  9  1  0  0  0  0
  8 24  1  0  0  0  0
  9 10  2  0  0  0  0
  9 36  1  0  0  0  0
 10 25  1  0  0  0  0
 11 12  1  0  0  0  0
 11 26  1  0  0  0  0
 12 13  1  0  0  0  0
 12 27  1  0  0  0  0
 12 28  1  0  0  0  0
 13 17  1  0  0  0  0
 13 14  1  0  0  0  0
 13 29  1  0  0  0  0
 14 15  1  0  0  0  0
 14 30  1  0  0  0  0
 14 31  1  0  0  0  0
 15 16  1  0  0  0  0
 15 32  1  0  0  0  0
 15 33  1  0  0  0  0
 16 17  1  0  0  0  0
 17 34  1  0  0  0  0
 17 35  1  0  0  0  0
M  CHG  1   9   1
M  END
> <s_m_source_file>
AV-unprocessed.smi

> <i_m_source_file_index>
3170

> <i_lp_mmshare_version>
43012

> <i_f3d_flags>
0

> <s_epik_input>
W0NIMl0xT1tDSDJdW0NIMl1bQ0BIXTFbQ0gyXVtOSF1DKD1PKVtOSF1bQ0gyXVtDSDJdbjJbY0hdW2NIXW5bY0hdMg==

> <s_epik_cmdline>
J2VwaWtfcHl0aG9uJywgJy1waCcsICc3LjAnLCAnLXRuJywgJzgnLCAnLW1hJywgJzIwMCcsICctbWV0YWxfYmluZGluZycsICctaW1hZScsICc8aW5maWxlLm1hZT4nLCAnLW9tYWUnLCAnPG91dGZpbGUubWFlPic=

> <r_lp_tautomer_probability>
1

> <r_epik_Ionization_Penalty>
0.255699

> <r_epik_Ionization_Penalty_Charging>
0

> <r_epik_Ionization_Penalty_Neutral>
0.255699

> <r_epik_State_Penalty>
0.247169

> <r_epik_Charging_Adjusted_Penalty>
0.247169

> <i_epik_Tot_Q>
1

> <i_epik_Tot_abs_Q>
1

> <r_epik_Metal_State_Penalty>
0.536793

> <b_epik_Metal_Only>
0

> <s_lp_Force_Field>
OPLS_2005

> <r_lp_Energy>
18.8209

> <b_lp_Chiralities_Consistent>
1

> <s_lp_Variant>
AV-unprocessed.smi:3170-2

> <Gold.Version>
5.8.1

> <Gold.Id.Protein>
6NUR|6NUR_protein|mol2

> <Gold.PLP.Fitness>
48.3176

> <Gold.PLP.PLP>
-33.1181

> <Gold.PLP.part.hbond>
-4.4826

> <Gold.PLP.part.metal>
0.0000

> <Gold.PLP.part.buried>
-2.7359

> <Gold.PLP.part.nonpolar>
-27.0872

> <Gold.PLP.part.repulsive>
0.3006

> <Gold.PLP.ligand.clash>
0.0000

> <Gold.PLP.ligand.torsion>
0.8084

> <Gold.PLP.Chemscore.Hbond>
4.6000

> <Gold.PLP.Chemscore.CHOScore>
1.0000

> <Gold.PLP.Chemscore.Metal>
0.0000

> <Gold.Chemscore.Hbonds>
donor molecule, donor type, donor heavy atom, donor atom, acceptor molecule, acceptor atom, score
      L1  H     3    18       P1  7948  1.00
      L1  H     9    36       P1 10957  1.80
      L1  H    11    26       P1  7948  0.91
      P1  H 10752 10764       L1    16  0.51
      L1  C     7    23       P1  7921  1.00

> <Gold.PLP.Chemscore.Internal.Correction>
0.0163

> <Gold.Rescore>
     Score         DG    S(hbond)    S(metal)    S(lipo)     H(rot)  DE(clash)    DE(int)     intcor
     17.76     -18.67       3.53        0.00      62.92       2.33       0.07       0.84       ----

> <Gold.Chemscore.Fitness>
17.7561

> <Gold.Chemscore.DG>
-18.6716

> <Gold.Chemscore.ZeroCoef>
-5.4800

> <Gold.Chemscore.Hbond>
3.5303

> <Gold.Chemscore.Metal>
0.0000

> <Gold.Chemscore.Lipo>
62.9245

> <Gold.Chemscore.Internal_Hbond>
0.0000

> <Gold.Chemscore.DEClash>
0.0728

> <Gold.Chemscore.DEInternal>
0.8427

> <Gold.Chemscore.Rot>
2.3288

> <Gold.Chemscore.Internal.Correction>
   9.000000E+99

> <Gold.Chemscore.Hbonds>
donor molecule, donor type, donor heavy atom, donor atom, acceptor molecule, acceptor atom, score
      L1  H     3    18       P1  7948  0.96
      L1  H     9    36       P1 10957  0.18
      L1  H    11    26       P1  7948  0.88
      P1  H 10752 10764       L1    16  0.15

> <Gold.Chemscore.Hbond.Weighted>
-11.7911

> <Gold.Chemscore.Metal.Weighted>
-0.0000

> <Gold.Chemscore.Lipo.Weighted>
-7.3622

> <Gold.Chemscore.Internal_Hbond.Weighted>
0.0000

> <Gold.Chemscore.DEClash.Weighted>
0.0728

> <Gold.Chemscore.DEInternal.Weighted>
0.8427

> <Gold.Chemscore.Rot.Weighted>
5.9617

> <Gold.Chemscore.Internal.Correction.Weighted>
   9.000000E+99

> <Gold.Protein.RotatedTorsions>
[ 6907 6896 6895 6894 ] final   28.05 input  -60.11 | X-H torsion
[ 7974 7965 7964 7962 ] final -136.39 input  175.53 | X-H torsion
[ 8008 7997 7996 7995 ] final -143.10 input   59.86 | X-H torsion
[ 10167 10162 10161 10158 ] final   62.30 input  -65.29 | X-H torsion
[ 10718 10713 10712 10709 ] final  117.90 input   66.30 | X-H torsion
[ 10763 10752 10751 10750 ] final  -59.89 input  -60.55 | X-H torsion
[ 11005 11000 10999 10996 ] final  -93.74 input  -57.11 | X-H torsion

> <Gold.Protein.ActiveResidues>
 VAL166  LYS551  ARG553  GLY616  TRP617  ASP618  TYR619  PRO620  LYS621  CYS622 
 ASP623  PHE694  ASN695  SER759  ASP760  ASP761  ALA762  ILE779  LEU786  VAL792 
 PHE793  MET794  SER795  GLU796  ALA797  LYS798  CYS799  TRP800  GLU811  SER814 

> <Gold.Protein.RotatedAtoms>
  152.0113  134.9874  160.0567 H   0  0  0  0  0  0  0  0  0  0  0  0  # atno 6907 bound_to 6896
  152.1426  133.4468  159.4782 H   0  0  0  0  0  0  0  0  0  0  0  0  # atno 6908 bound_to 6896
  150.6866  134.2205  159.4438 H   0  0  0  0  0  0  0  0  0  0  0  0  # atno 6909 bound_to 6896
  144.8931  140.6669  143.5133 H   0  0  0  0  0  0  0  0  0  0  0  0  # atno 7974 bound_to 7965
  155.5051  140.0579  157.2933 H   0  0  0  0  0  0  0  0  0  0  0  0  # atno 8008 bound_to 7997
  154.4572  140.1979  156.0294 H   0  0  0  0  0  0  0  0  0  0  0  0  # atno 8009 bound_to 7997
  156.0822  140.3245  155.7713 H   0  0  0  0  0  0  0  0  0  0  0  0  # atno 8010 bound_to 7997
  140.1454  144.4514  150.6788 H   0  0  0  0  0  0  0  0  0  0  0  0  # atno 10167 bound_to 10162
  157.6066  131.1042  150.7680 H   0  0  0  0  0  0  0  0  0  0  0  0  # atno 10718 bound_to 10713
  154.2607  135.6308  153.5274 H   0  0  0  0  0  0  0  0  0  0  0  0  # atno 10763 bound_to 10752
  152.9896  135.5587  154.5707 H   0  0  0  0  0  0  0  0  0  0  0  0  # atno 10764 bound_to 10752
  154.5255  135.2885  155.1201 H   0  0  0  0  0  0  0  0  0  0  0  0  # atno 10765 bound_to 10752
  141.1489  133.7908  157.0202 H   0  0  0  0  0  0  0  0  0  0  0  0  # atno 11005 bound_to 11000
  145.3748  139.1650  143.4312 LP  0  0  0  0  0  0  0  0  0  0  0  0  # atno 17320 bound_to 7965
  146.3065  140.3823  142.8685 LP  0  0  0  0  0  0  0  0  0  0  0  0  # atno 17321 bound_to 7965
  140.6735  143.2295  151.5566 LP  0  0  0  0  0  0  0  0  0  0  0  0  # atno 17342 bound_to 10162
  139.5452  144.2541  152.1427 LP  0  0  0  0  0  0  0  0  0  0  0  0  # atno 17343 bound_to 10162
  156.8067  130.4939  149.5362 LP  0  0  0  0  0  0  0  0  0  0  0  0  # atno 17370 bound_to 10713
  156.1154  130.6071  151.0113 LP  0  0  0  0  0  0  0  0  0  0  0  0  # atno 17371 bound_to 10713
  140.0821  134.9642  157.1640 LP  0  0  0  0  0  0  0  0  0  0  0  0  # atno 17394 bound_to 11000
  140.3563  134.2544  155.7192 LP  0  0  0  0  0  0  0  0  0  0  0  0  # atno 17395 bound_to 11000

$$$$
