AV-unprocessed.smi:213|AV-procd|sdf|1644|dock6
  -GOLD-   2262020 13D 1   1.00000     0.00000
 Structure written by MMmdl.
 58 61  0  0  0  0  0  0  0  0  1 V2000
  151.7022  139.7440  155.5477 C   0  0  0  0  0  0  0  0  0  0  0  0
  150.4451  140.5167  155.9955 C   0  0  1  0  0  0  0  0  0  0  0  0
  150.6953  142.0389  156.1246 C   0  0  0  0  0  0  0  0  0  0  0  0
  151.6497  142.4455  157.1578 N   0  0  0  0  0  0  0  0  0  0  0  0
  151.3858  141.7436  158.4094 C   0  0  0  0  0  0  0  0  0  0  0  0
  152.3837  142.1335  159.5127 C   0  0  0  0  0  0  0  0  0  0  0  0
  152.3439  143.5426  159.7099 O   0  0  0  0  0  0  0  0  0  0  0  0
  152.6491  144.2681  158.5238 C   0  0  0  0  0  0  0  0  0  0  0  0
  151.6623  143.8839  157.4069 C   0  0  0  0  0  0  0  0  0  0  0  0
  149.3424  140.2461  155.0686 N   0  0  0  0  0  0  0  0  0  0  0  0
  148.7282  141.3220  154.2934 C   0  0  0  0  0  0  0  0  0  0  0  0
  148.7490  139.0235  155.0308 C   0  0  0  0  0  0  0  0  0  0  0  0
  149.2321  138.0609  155.8605 N   0  0  0  0  0  0  0  0  0  0  0  0
  148.6854  136.8423  155.8801 C   0  0  0  0  0  0  0  0  0  0  0  0
  147.6667  136.3741  155.1587 N   0  0  0  0  0  0  0  0  0  0  0  0
  147.1848  137.3261  154.3107 C   0  0  0  0  0  0  0  0  0  0  0  0
  147.6597  138.6635  154.1808 C   0  0  0  0  0  0  0  0  0  0  0  0
  146.9255  139.3207  153.1987 N   0  0  0  0  0  0  0  0  0  0  0  0
  146.0657  138.4331  152.7829 C   0  0  0  0  0  0  0  0  0  0  0  0
  146.1561  137.2043  153.3935 N   0  0  0  0  0  0  0  0  0  0  0  0
  145.3402  136.0349  153.1207 C   0  0  0  0  0  0  0  0  0  0  0  0
  144.9812  135.8789  151.6273 C   0  0  1  0  0  0  0  0  0  0  0  0
  146.1619  136.1109  150.8855 O   0  0  0  0  0  0  0  0  0  0  0  0
  144.4098  134.4947  151.2467 C   0  0  2  0  0  0  0  0  0  0  0  0
  145.3816  133.3303  151.4533 C   0  0  0  0  0  0  0  0  0  0  0  0
  144.8916  132.2684  150.4812 C   0  0  0  0  0  0  0  0  0  0  0  0
  143.9604  133.0321  149.5373 C   0  0  0  0  0  0  0  0  0  0  0  0
  144.1658  134.4010  149.8511 O   0  0  0  0  0  0  0  0  0  0  0  0
  152.5212  139.8428  156.2573 H   0  0  0  0  0  0  0  0  0  0  0  0
  152.0712  140.0928  154.5830 H   0  0  0  0  0  0  0  0  0  0  0  0
  151.4881  138.6788  155.4534 H   0  0  0  0  0  0  0  0  0  0  0  0
  150.1751  140.1176  156.9729 H   0  0  0  0  0  0  0  0  0  0  0  0
  150.9865  142.4528  155.1580 H   0  0  0  0  0  0  0  0  0  0  0  0
  149.7411  142.5124  156.3616 H   0  0  0  0  0  0  0  0  0  0  0  0
  150.3721  141.9622  158.7486 H   0  0  0  0  0  0  0  0  0  0  0  0
  151.4345  140.6663  158.2472 H   0  0  0  0  0  0  0  0  0  0  0  0
  152.1293  141.6346  160.4478 H   0  0  0  0  0  0  0  0  0  0  0  0
  153.3953  141.8225  159.2472 H   0  0  0  0  0  0  0  0  0  0  0  0
  152.5880  145.3362  158.7325 H   0  0  0  0  0  0  0  0  0  0  0  0
  153.6757  144.0603  158.2181 H   0  0  0  0  0  0  0  0  0  0  0  0
  151.9553  144.4160  156.5035 H   0  0  0  0  0  0  0  0  0  0  0  0
  150.6604  144.2251  157.6709 H   0  0  0  0  0  0  0  0  0  0  0  0
  147.6402  141.2476  154.3145 H   0  0  0  0  0  0  0  0  0  0  0  0
  149.0580  141.2770  153.2553 H   0  0  0  0  0  0  0  0  0  0  0  0
  148.9970  142.2999  154.6928 H   0  0  0  0  0  0  0  0  0  0  0  0
  149.1281  136.1425  156.5735 H   0  0  0  0  0  0  0  0  0  0  0  0
  145.3467  138.6498  152.0063 H   0  0  0  0  0  0  0  0  0  0  0  0
  145.8821  135.1560  153.4726 H   0  0  0  0  0  0  0  0  0  0  0  0
  144.4320  136.1024  153.7215 H   0  0  0  0  0  0  0  0  0  0  0  0
  144.2640  136.6505  151.3449 H   0  0  0  0  0  0  0  0  0  0  0  0
  146.9045  135.9826  151.4554 H   0  0  0  0  0  0  0  0  0  0  0  0
  143.4802  134.3037  151.7865 H   0  0  0  0  0  0  0  0  0  0  0  0
  146.3933  133.6336  151.1800 H   0  0  0  0  0  0  0  0  0  0  0  0
  145.4047  132.9792  152.4853 H   0  0  0  0  0  0  0  0  0  0  0  0
  145.7271  131.8152  149.9466 H   0  0  0  0  0  0  0  0  0  0  0  0
  144.3501  131.4741  150.9955 H   0  0  0  0  0  0  0  0  0  0  0  0
  144.1729  132.8350  148.4863 H   0  0  0  0  0  0  0  0  0  0  0  0
  142.9185  132.7718  149.7298 H   0  0  0  0  0  0  0  0  0  0  0  0
  1  2  1  0  0  0  0
  1 29  1  0  0  0  0
  1 30  1  0  0  0  0
  1 31  1  0  0  0  0
  2  3  1  0  0  0  0
  2 10  1  0  0  0  0
  2 32  1  0  0  0  0
  3  4  1  0  0  0  0
  3 33  1  0  0  0  0
  3 34  1  0  0  0  0
  4  9  1  0  0  0  0
  4  5  1  0  0  0  0
  5  6  1  0  0  0  0
  5 35  1  0  0  0  0
  5 36  1  0  0  0  0
  6  7  1  0  0  0  0
  6 37  1  0  0  0  0
  6 38  1  0  0  0  0
  7  8  1  0  0  0  0
  8  9  1  0  0  0  0
  8 39  1  0  0  0  0
  8 40  1  0  0  0  0
  9 41  1  0  0  0  0
  9 42  1  0  0  0  0
 10 11  1  0  0  0  0
 10 12  1  0  0  0  0
 11 43  1  0  0  0  0
 11 44  1  0  0  0  0
 11 45  1  0  0  0  0
 12 17  1  0  0  0  0
 12 13  2  0  0  0  0
 13 14  1  0  0  0  0
 14 15  2  0  0  0  0
 14 46  1  0  0  0  0
 15 16  1  0  0  0  0
 16 20  1  0  0  0  0
 16 17  2  0  0  0  0
 17 18  1  0  0  0  0
 18 19  2  0  0  0  0
 19 20  1  0  0  0  0
 19 47  1  0  0  0  0
 20 21  1  0  0  0  0
 21 22  1  0  0  0  0
 21 48  1  0  0  0  0
 21 49  1  0  0  0  0
 22 23  1  0  0  0  0
 22 24  1  0  0  0  0
 22 50  1  0  0  0  0
 23 51  1  0  0  0  0
 24 28  1  0  0  0  0
 24 25  1  0  0  0  0
 24 52  1  0  0  0  0
 25 26  1  0  0  0  0
 25 53  1  0  0  0  0
 25 54  1  0  0  0  0
 26 27  1  0  0  0  0
 26 55  1  0  0  0  0
 26 56  1  0  0  0  0
 27 28  1  0  0  0  0
 27 57  1  0  0  0  0
 27 58  1  0  0  0  0
M  END
> <s_m_source_file>
AV-unprocessed.smi

> <i_m_source_file_index>
213

> <i_lp_mmshare_version>
43012

> <i_f3d_flags>
0

> <s_epik_input>
W0NIMl0xW0NIMl1PW0NIMl1bQ0gyXU4xW0NIMl1bQ0BASF0oW0NIM10pTihbQ0gzXSljKG5bY0hdbjIpYyhjMjMpbltjSF1uM1tDSDJdW0NASF0oW09IXSlbQ0BASF00W0NIMl1bQ0gyXVtDSDJdTzQ=

> <s_epik_cmdline>
J2VwaWtfcHl0aG9uJywgJy1waCcsICc3LjAnLCAnLXRuJywgJzgnLCAnLW1hJywgJzIwMCcsICctbWV0YWxfYmluZGluZycsICctaW1hZScsICc8aW5maWxlLm1hZT4nLCAnLW9tYWUnLCAnPG91dGZpbGUubWFlPic=

> <r_lp_tautomer_probability>
1

> <r_epik_Ionization_Penalty>
0.423322

> <r_epik_Ionization_Penalty_Charging>
0

> <r_epik_Ionization_Penalty_Neutral>
0.423322

> <r_epik_State_Penalty>
0.569486

> <r_epik_Charging_Adjusted_Penalty>
0.569486

> <i_epik_Tot_Q>
0

> <i_epik_Tot_abs_Q>
0

> <r_epik_Metal_State_Penalty>
0.568671

> <b_epik_Metal_Only>
0

> <s_lp_Force_Field>
OPLS_2005

> <r_lp_Energy>
52.699

> <b_lp_Chiralities_Consistent>
1

> <s_lp_Variant>
AV-unprocessed.smi:213-12

> <Gold.Version>
5.8.1

> <Gold.Id.Protein>
6NUR|6NUR_protein|mol2

> <Gold.PLP.Fitness>
48.7525

> <Gold.PLP.PLP>
-42.7391

> <Gold.PLP.part.hbond>
-1.0000

> <Gold.PLP.part.metal>
0.0000

> <Gold.PLP.part.buried>
-3.2121

> <Gold.PLP.part.nonpolar>
-40.1031

> <Gold.PLP.part.repulsive>
2.0266

> <Gold.PLP.ligand.clash>
0.0000

> <Gold.PLP.ligand.torsion>
0.7225

> <Gold.PLP.Chemscore.Hbond>
0.9920

> <Gold.PLP.Chemscore.CHOScore>
1.4091

> <Gold.PLP.Chemscore.Metal>
0.0000

> <Gold.Chemscore.Hbonds>
donor molecule, donor type, donor heavy atom, donor atom, acceptor molecule, acceptor atom, score
      L1  H    23    51       P1  7948  0.89
      L1  C    19    47       P1 10171  0.74
      L1  C    19    47       P1 10175  0.76

> <Gold.PLP.Chemscore.Internal.Correction>
0.2553

> <Gold.Rescore>
     Score         DG    S(hbond)    S(metal)    S(lipo)     H(rot)  DE(clash)    DE(int)     intcor
     11.74     -14.06       0.76        0.00     111.64       2.74       0.23       2.09       ----

> <Gold.Chemscore.Fitness>
11.7379

> <Gold.Chemscore.DG>
-14.0638

> <Gold.Chemscore.ZeroCoef>
-5.4800

> <Gold.Chemscore.Hbond>
0.7578

> <Gold.Chemscore.Metal>
0.0000

> <Gold.Chemscore.Lipo>
111.6354

> <Gold.Chemscore.Internal_Hbond>
0.0000

> <Gold.Chemscore.DEClash>
0.2332

> <Gold.Chemscore.DEInternal>
2.0927

> <Gold.Chemscore.Rot>
2.7378

> <Gold.Chemscore.Internal.Correction>
   9.000000E+99

> <Gold.Chemscore.Hbonds>
donor molecule, donor type, donor heavy atom, donor atom, acceptor molecule, acceptor atom, score
      L1  H    23    51       P1  7948  0.83

> <Gold.Chemscore.Hbond.Weighted>
-2.5311

> <Gold.Chemscore.Metal.Weighted>
-0.0000

> <Gold.Chemscore.Lipo.Weighted>
-13.0613

> <Gold.Chemscore.Internal_Hbond.Weighted>
0.0000

> <Gold.Chemscore.DEClash.Weighted>
0.2332

> <Gold.Chemscore.DEInternal.Weighted>
2.0927

> <Gold.Chemscore.Rot.Weighted>
7.0087

> <Gold.Chemscore.Internal.Correction.Weighted>
   9.000000E+99

> <Gold.Protein.RotatedTorsions>
[ 6907 6896 6895 6894 ] final   97.47 input  -60.11 | X-H torsion
[ 7974 7965 7964 7962 ] final   16.92 input  175.53 | X-H torsion
[ 8008 7997 7996 7995 ] final -131.32 input   59.86 | X-H torsion
[ 10167 10162 10161 10158 ] final -131.14 input  -65.29 | X-H torsion
[ 10718 10713 10712 10709 ] final   74.74 input   66.30 | X-H torsion
[ 10763 10752 10751 10750 ] final -101.64 input  -60.55 | X-H torsion
[ 11005 11000 10999 10996 ] final   43.46 input  -57.11 | X-H torsion

> <Gold.Protein.ActiveResidues>
 VAL166  LYS551  ARG553  GLY616  TRP617  ASP618  TYR619  PRO620  LYS621  CYS622 
 ASP623  PHE694  ASN695  SER759  ASP760  ASP761  ALA762  ILE779  LEU786  VAL792 
 PHE793  MET794  SER795  GLU796  ALA797  LYS798  CYS799  TRP800  GLU811  SER814 

> <Gold.Protein.RotatedAtoms>
  152.5423  134.0729  159.8201 H   0  0  0  0  0  0  0  0  0  0  0  0  # atno 6907 bound_to 6896
  151.0841  133.5360  159.2626 H   0  0  0  0  0  0  0  0  0  0  0  0  # atno 6908 bound_to 6896
  151.2176  135.0514  159.8990 H   0  0  0  0  0  0  0  0  0  0  0  0  # atno 6909 bound_to 6896
  146.2235  139.8678  142.8593 H   0  0  0  0  0  0  0  0  0  0  0  0  # atno 7974 bound_to 7965
  155.3105  140.0457  157.3034 H   0  0  0  0  0  0  0  0  0  0  0  0  # atno 8008 bound_to 7997
  154.5436  140.2295  155.8567 H   0  0  0  0  0  0  0  0  0  0  0  0  # atno 8009 bound_to 7997
  156.1903  140.3052  155.9326 H   0  0  0  0  0  0  0  0  0  0  0  0  # atno 8010 bound_to 7997
  139.9220  143.6371  152.2551 H   0  0  0  0  0  0  0  0  0  0  0  0  # atno 10167 bound_to 10162
  157.6605  130.9692  150.1254 H   0  0  0  0  0  0  0  0  0  0  0  0  # atno 10718 bound_to 10713
  154.7673  135.4890  153.9579 H   0  0  0  0  0  0  0  0  0  0  0  0  # atno 10763 bound_to 10752
  153.1323  135.6755  153.9165 H   0  0  0  0  0  0  0  0  0  0  0  0  # atno 10764 bound_to 10752
  153.8865  135.3126  155.3425 H   0  0  0  0  0  0  0  0  0  0  0  0  # atno 10765 bound_to 10752
  140.1643  134.4302  155.8297 H   0  0  0  0  0  0  0  0  0  0  0  0  # atno 11005 bound_to 11000
  145.2639  141.0086  143.3811 LP  0  0  0  0  0  0  0  0  0  0  0  0  # atno 17320 bound_to 7965
  144.9277  139.4336  143.6510 LP  0  0  0  0  0  0  0  0  0  0  0  0  # atno 17321 bound_to 7965
  139.6854  144.7652  151.1534 LP  0  0  0  0  0  0  0  0  0  0  0  0  # atno 17342 bound_to 10162
  140.7660  143.5665  150.9042 LP  0  0  0  0  0  0  0  0  0  0  0  0  # atno 17343 bound_to 10162
  156.2114  130.3667  149.8665 LP  0  0  0  0  0  0  0  0  0  0  0  0  # atno 17370 bound_to 10713
  156.6543  130.8756  151.3536 LP  0  0  0  0  0  0  0  0  0  0  0  0  # atno 17371 bound_to 10713
  141.2212  133.6927  156.7650 LP  0  0  0  0  0  0  0  0  0  0  0  0  # atno 17394 bound_to 11000
  140.2452  134.8583  157.3613 LP  0  0  0  0  0  0  0  0  0  0  0  0  # atno 17395 bound_to 11000

$$$$
