AV-unprocessed.smi:2083|AV-procd|sdf|8496|dock6
  -GOLD-   2272011203D 1   1.00000     0.00000
 Structure written by MMmdl.
 45 46  0  0  0  0  0  0  0  0  2 V2000
  152.0670  140.9587  158.6650 C   0  0  0  0  0  0  0  0  0  0  0  0
  151.6420  140.3680  157.3646 C   0  0  0  0  0  0  0  0  0  0  0  0
  150.5124  139.7096  156.9670 C   0  0  0  0  0  0  0  0  0  0  0  0
  150.7738  139.4227  155.6011 C   0  0  0  0  0  0  0  0  0  0  0  0
  149.8229  138.7315  154.8081 N   0  0  0  0  0  0  0  0  0  0  0  0
  148.5703  138.3862  155.1505 C   0  0  0  0  0  0  0  0  0  0  0  0
  148.0342  138.6363  156.2305 O   0  0  0  0  0  0  0  0  0  0  0  0
  147.9560  137.7227  154.1602 N   0  0  0  0  0  0  0  0  0  0  0  0
  146.5851  137.2226  154.2186 C   0  0  0  0  0  0  0  0  0  0  0  0
  146.4924  135.6750  154.0884 C   0  0  2  0  0  0  0  0  0  0  0  0
  147.7686  135.0167  154.6603 C   0  0  0  0  0  0  0  0  0  0  0  0
  146.2480  135.1867  152.6901 N   0  3  2  0  0  0  0  0  0  0  0  0
  145.1472  135.8664  151.9457 C   0  0  0  0  0  0  0  0  0  0  0  0
  145.0592  135.3798  150.4896 C   0  0  0  0  0  0  0  0  0  0  0  0
  144.8991  133.8590  150.4163 C   0  0  0  0  0  0  0  0  0  0  0  0
  146.0379  133.1783  151.1887 C   0  0  2  0  0  0  0  0  0  0  0  0
  145.9057  131.6492  151.1485 C   0  0  0  0  0  0  0  0  0  0  0  0
  146.0793  133.7049  152.6367 C   0  0  0  0  0  0  0  0  0  0  0  0
  151.9543  139.8687  155.1996 N   0  0  0  0  0  0  0  0  0  0  0  0
  152.5172  140.4760  156.3283 O   0  0  0  0  0  0  0  0  0  0  0  0
  151.2414  140.9690  159.3766 H   0  0  0  0  0  0  0  0  0  0  0  0
  152.4104  141.9845  158.5311 H   0  0  0  0  0  0  0  0  0  0  0  0
  152.8823  140.3823  159.1019 H   0  0  0  0  0  0  0  0  0  0  0  0
  149.6423  139.4719  157.5608 H   0  0  0  0  0  0  0  0  0  0  0  0
  150.1309  138.4734  153.8824 H   0  0  0  0  0  0  0  0  0  0  0  0
  148.4674  137.5590  153.3050 H   0  0  0  0  0  0  0  0  0  0  0  0
  146.1571  137.5710  155.1596 H   0  0  0  0  0  0  0  0  0  0  0  0
  146.0210  137.7018  153.4177 H   0  0  0  0  0  0  0  0  0  0  0  0
  145.6428  135.3546  154.6936 H   0  0  0  0  0  0  0  0  0  0  0  0
  147.9422  135.3035  155.6974 H   0  0  0  0  0  0  0  0  0  0  0  0
  148.6493  135.3087  154.0877 H   0  0  0  0  0  0  0  0  0  0  0  0
  147.7201  133.9293  154.6549 H   0  0  0  0  0  0  0  0  0  0  0  0
  144.1989  135.7002  152.4597 H   0  0  0  0  0  0  0  0  0  0  0  0
  145.3124  136.9422  151.9037 H   0  0  0  0  0  0  0  0  0  0  0  0
  144.2231  135.8658  149.9856 H   0  0  0  0  0  0  0  0  0  0  0  0
  145.9590  135.6783  149.9504 H   0  0  0  0  0  0  0  0  0  0  0  0
  143.9342  133.5690  150.8349 H   0  0  0  0  0  0  0  0  0  0  0  0
  144.8988  133.5353  149.3747 H   0  0  0  0  0  0  0  0  0  0  0  0
  146.9813  133.4387  150.7061 H   0  0  0  0  0  0  0  0  0  0  0  0
  144.9809  131.3179  151.6217 H   0  0  0  0  0  0  0  0  0  0  0  0
  146.7357  131.1689  151.6672 H   0  0  0  0  0  0  0  0  0  0  0  0
  145.9040  131.2824  150.1216 H   0  0  0  0  0  0  0  0  0  0  0  0
  146.8934  133.2069  153.1602 H   0  0  0  0  0  0  0  0  0  0  0  0
  145.1626  133.4283  153.1605 H   0  0  0  0  0  0  0  0  0  0  0  0
  147.0900  135.4014  152.1754 H   0  0  0  0  0  0  0  0  0  0  0  0
  1  2  1  0  0  0  0
  1 21  1  0  0  0  0
  1 22  1  0  0  0  0
  1 23  1  0  0  0  0
  2 20  1  0  0  0  0
  2  3  2  0  0  0  0
  3  4  1  0  0  0  0
  3 24  1  0  0  0  0
  4  5  1  0  0  0  0
  4 19  2  0  0  0  0
  5  6  1  0  0  0  0
  5 25  1  0  0  0  0
  6  7  2  0  0  0  0
  6  8  1  0  0  0  0
  8  9  1  0  0  0  0
  8 26  1  0  0  0  0
  9 10  1  0  0  0  0
  9 27  1  0  0  0  0
  9 28  1  0  0  0  0
 10 11  1  0  0  0  0
 10 12  1  0  0  0  0
 10 29  1  0  0  0  0
 11 30  1  0  0  0  0
 11 31  1  0  0  0  0
 11 32  1  0  0  0  0
 12 18  1  0  0  0  0
 12 13  1  0  0  0  0
 12 45  1  0  0  0  0
 13 14  1  0  0  0  0
 13 33  1  0  0  0  0
 13 34  1  0  0  0  0
 14 15  1  0  0  0  0
 14 35  1  0  0  0  0
 14 36  1  0  0  0  0
 15 16  1  0  0  0  0
 15 37  1  0  0  0  0
 15 38  1  0  0  0  0
 16 17  1  0  0  0  0
 16 18  1  0  0  0  0
 16 39  1  0  0  0  0
 17 40  1  0  0  0  0
 17 41  1  0  0  0  0
 17 42  1  0  0  0  0
 18 43  1  0  0  0  0
 18 44  1  0  0  0  0
 19 20  1  0  0  0  0
M  CHG  1  12   1
M  END
> <s_m_source_file>
AV-unprocessed.smi

> <i_m_source_file_index>
2083

> <i_lp_mmshare_version>
43012

> <i_f3d_flags>
0

> <s_epik_input>
W0NIM11jMVtjSF1jKG5vMSlbTkhdQyg9TylbTkhdW0NIMl1bQ0BIXShbQ0gzXSlOMltDSDJdW0NIMl1bQ0gyXVtDQEBIXShbQ0gzXSlbQ0gyXTI=

> <s_epik_cmdline>
J2VwaWtfcHl0aG9uJywgJy1waCcsICc3LjAnLCAnLXRuJywgJzgnLCAnLW1hJywgJzIwMCcsICctbWV0YWxfYmluZGluZycsICctaW1hZScsICc8aW5maWxlLm1hZT4nLCAnLW9tYWUnLCAnPG91dGZpbGUubWFlPic=

> <r_epik_Ionization_Penalty>
0.00216453

> <r_epik_Ionization_Penalty_Charging>
0.00212879

> <r_epik_Ionization_Penalty_Neutral>
3.57418e-05

> <r_epik_State_Penalty>
0.00146033

> <r_epik_Charging_Adjusted_Penalty>
0.00358912

> <i_epik_Tot_Q>
1

> <i_epik_Tot_abs_Q>
1

> <r_epik_Metal_State_Penalty>
0.0215827

> <b_epik_Metal_Only>
0

> <s_lp_Force_Field>
OPLS_2005

> <r_lp_Energy>
18.748

> <b_lp_Chiralities_Consistent>
1

> <s_lp_Variant>
AV-unprocessed.smi:2083-7

> <Gold.Version>
5.8.1

> <Gold.Id.Protein>
6NUR|6NUR_protein|mol2

> <Gold.PLP.Fitness>
36.0639

> <Gold.PLP.PLP>
-22.5687

> <Gold.PLP.part.hbond>
-4.0000

> <Gold.PLP.part.metal>
0.0000

> <Gold.PLP.part.buried>
1.4460

> <Gold.PLP.part.nonpolar>
-19.1050

> <Gold.PLP.part.repulsive>
0.0614

> <Gold.PLP.ligand.clash>
0.0000

> <Gold.PLP.ligand.torsion>
0.4836

> <Gold.PLP.Chemscore.Hbond>
4.8000

> <Gold.PLP.Chemscore.CHOScore>
0.0000

> <Gold.PLP.Chemscore.Metal>
0.0000

> <Gold.Chemscore.Hbonds>
donor molecule, donor type, donor heavy atom, donor atom, acceptor molecule, acceptor atom, score
      L1  H     8    26       P1  7948  0.94
      L1  H    12    45       P1  7948  1.98
      P1  H  7989  7998       L1    19  0.90
      P1  H  7997  8010       L1    20  0.94

> <Gold.PLP.Chemscore.Internal.Correction>
0.0623

> <Gold.Rescore>
     Score         DG    S(hbond)    S(metal)    S(lipo)     H(rot)  DE(clash)    DE(int)     intcor
     16.24     -19.29       3.26        0.00      58.90       1.55       1.16       1.89       ----

> <Gold.Chemscore.Fitness>
16.2357

> <Gold.Chemscore.DG>
-19.2857

> <Gold.Chemscore.ZeroCoef>
-5.4800

> <Gold.Chemscore.Hbond>
3.2561

> <Gold.Chemscore.Metal>
0.0000

> <Gold.Chemscore.Lipo>
58.9023

> <Gold.Chemscore.Internal_Hbond>
0.0000

> <Gold.Chemscore.DEClash>
1.1644

> <Gold.Chemscore.DEInternal>
1.8856

> <Gold.Chemscore.Rot>
1.5474

> <Gold.Chemscore.Internal.Correction>
   9.000000E+99

> <Gold.Chemscore.Hbonds>
donor molecule, donor type, donor heavy atom, donor atom, acceptor molecule, acceptor atom, score
      L1  H     8    26       P1  7948  0.87
      L1  H    12    45       P1  7948  0.92
      P1  H  7989  7998       L1    19  0.54
      P1  H  7997  8010       L1    20  0.68

> <Gold.Chemscore.Hbond.Weighted>
-10.8754

> <Gold.Chemscore.Metal.Weighted>
-0.0000

> <Gold.Chemscore.Lipo.Weighted>
-6.8916

> <Gold.Chemscore.Internal_Hbond.Weighted>
0.0000

> <Gold.Chemscore.DEClash.Weighted>
1.1644

> <Gold.Chemscore.DEInternal.Weighted>
1.8856

> <Gold.Chemscore.Rot.Weighted>
3.9612

> <Gold.Chemscore.Internal.Correction.Weighted>
   9.000000E+99

> <Gold.Protein.RotatedTorsions>
[ 6907 6896 6895 6894 ] final  -25.56 input  -60.11 | X-H torsion
[ 7974 7965 7964 7962 ] final  -17.69 input  175.53 | X-H torsion
[ 8008 7997 7996 7995 ] final   73.97 input   59.86 | X-H torsion
[ 10167 10162 10161 10158 ] final  143.46 input  -65.29 | X-H torsion
[ 10718 10713 10712 10709 ] final   93.42 input   66.30 | X-H torsion
[ 10763 10752 10751 10750 ] final -175.08 input  -60.55 | X-H torsion
[ 11005 11000 10999 10996 ] final  156.43 input  -57.11 | X-H torsion

> <Gold.Protein.ActiveResidues>
 VAL166  LYS551  ARG553  GLY616  TRP617  ASP618  TYR619  PRO620  LYS621  CYS622 
 ASP623  PHE694  ASN695  SER759  ASP760  ASP761  ALA762  ILE779  LEU786  VAL792 
 PHE793  MET794  SER795  GLU796  ALA797  LYS798  CYS799  TRP800  GLU811  SER814 

> <Gold.Protein.RotatedAtoms>
  151.1735  135.0329  159.8761 H   0  0  0  0  0  0  0  0  0  0  0  0  # atno 6907 bound_to 6896
  152.5448  134.1143  159.8382 H   0  0  0  0  0  0  0  0  0  0  0  0  # atno 6908 bound_to 6896
  151.1252  133.5029  159.2633 H   0  0  0  0  0  0  0  0  0  0  0  0  # atno 6909 bound_to 6896
  146.1929  140.3815  142.8451 H   0  0  0  0  0  0  0  0  0  0  0  0  # atno 7974 bound_to 7965
  155.7915  140.3479  155.5352 H   0  0  0  0  0  0  0  0  0  0  0  0  # atno 8008 bound_to 7997
  155.8629  140.0974  157.1622 H   0  0  0  0  0  0  0  0  0  0  0  0  # atno 8009 bound_to 7997
  154.4013  140.1355  156.3970 H   0  0  0  0  0  0  0  0  0  0  0  0  # atno 8010 bound_to 7997
  139.4969  144.6039  151.6421 H   0  0  0  0  0  0  0  0  0  0  0  0  # atno 10167 bound_to 10162
  157.6954  131.0477  150.4032 H   0  0  0  0  0  0  0  0  0  0  0  0  # atno 10718 bound_to 10713
  154.5887  135.2843  155.0658 H   0  0  0  0  0  0  0  0  0  0  0  0  # atno 10763 bound_to 10752
  154.1967  135.6431  153.5079 H   0  0  0  0  0  0  0  0  0  0  0  0  # atno 10764 bound_to 10752
  153.0113  135.5459  154.6565 H   0  0  0  0  0  0  0  0  0  0  0  0  # atno 10765 bound_to 10752
  140.1674  134.8567  157.2649 H   0  0  0  0  0  0  0  0  0  0  0  0  # atno 11005 bound_to 11000
  144.8521  140.7017  143.6161 LP  0  0  0  0  0  0  0  0  0  0  0  0  # atno 17320 bound_to 7965
  145.3737  139.1652  143.4318 LP  0  0  0  0  0  0  0  0  0  0  0  0  # atno 17321 bound_to 7965
  140.5696  144.0132  150.6210 LP  0  0  0  0  0  0  0  0  0  0  0  0  # atno 17342 bound_to 10162
  140.3245  143.3116  152.0751 LP  0  0  0  0  0  0  0  0  0  0  0  0  # atno 17343 bound_to 10162
  156.4423  130.3994  149.6689 LP  0  0  0  0  0  0  0  0  0  0  0  0  # atno 17370 bound_to 10713
  156.3868  130.7607  151.2605 LP  0  0  0  0  0  0  0  0  0  0  0  0  # atno 17371 bound_to 10713
  140.2417  134.3787  155.7478 LP  0  0  0  0  0  0  0  0  0  0  0  0  # atno 17394 bound_to 11000
  141.2215  133.7269  156.8800 LP  0  0  0  0  0  0  0  0  0  0  0  0  # atno 17395 bound_to 11000

$$$$
