AV-unprocessed.smi:877|AV-procd|sdf|4028|dock5
  -GOLD-   22720 1523D 1   1.00000     0.00000
 Structure written by MMmdl.
 43 45  0  0  0  0  0  0  0  0  1 V2000
  144.0447  143.3684  155.9965 C   0  0  0  0  0  0  0  0  0  0  0  0
  144.7441  142.8928  154.8558 O   0  0  0  0  0  0  0  0  0  0  0  0
  146.0141  142.3887  155.0378 C   0  0  0  0  0  0  0  0  0  0  0  0
  146.6055  142.1581  156.3057 C   0  0  0  0  0  0  0  0  0  0  0  0
  147.9119  141.6405  156.3997 C   0  0  0  0  0  0  0  0  0  0  0  0
  148.6463  141.3463  155.2335 C   0  0  0  0  0  0  0  0  0  0  0  0
  150.0572  140.7937  155.3434 C   0  0  0  0  0  0  0  0  0  0  0  0
  150.7971  141.2657  156.5661 C   0  0  0  0  0  0  0  0  0  0  0  0
  150.7284  142.5275  156.9982 N   0  0  0  0  0  0  0  0  0  0  0  0
  151.5412  142.5175  158.1134 C   0  0  0  0  0  0  0  0  0  0  0  0
  151.8751  143.5518  159.0166 C   0  0  0  0  0  0  0  0  0  0  0  0
  152.7423  143.3010  160.1001 C   0  0  0  0  0  0  0  0  0  0  0  0
  153.2879  142.0155  160.2945 C   0  0  0  0  0  0  0  0  0  0  0  0
  152.9682  140.9712  159.4055 C   0  0  0  0  0  0  0  0  0  0  0  0
  152.1007  141.2270  158.3265 C   0  0  0  0  0  0  0  0  0  0  0  0
  151.5952  140.4422  157.2949 N   0  0  0  0  0  0  0  0  0  0  0  0
  151.8921  139.0313  157.0821 C   0  0  0  0  0  0  0  0  0  0  0  0
  152.3622  138.7368  155.6432 C   0  0  1  0  0  0  0  0  0  0  0  0
  153.7563  138.4981  155.6408 O   0  0  0  0  0  0  0  0  0  0  0  0
  151.6532  137.5077  155.0506 C   0  0  0  0  0  0  0  0  0  0  0  0
  152.1847  137.2040  153.7775 O   0  0  0  0  0  0  0  0  0  0  0  0
  148.0640  141.5726  153.9702 C   0  0  0  0  0  0  0  0  0  0  0  0
  146.7579  142.0903  153.8775 C   0  0  0  0  0  0  0  0  0  0  0  0
  143.0629  143.7305  155.6917 H   0  0  0  0  0  0  0  0  0  0  0  0
  144.5697  144.1995  156.4694 H   0  0  0  0  0  0  0  0  0  0  0  0
  143.8907  142.5740  156.7283 H   0  0  0  0  0  0  0  0  0  0  0  0
  146.0784  142.3714  157.2229 H   0  0  0  0  0  0  0  0  0  0  0  0
  148.3519  141.4728  157.3720 H   0  0  0  0  0  0  0  0  0  0  0  0
  149.9820  139.7072  155.3399 H   0  0  0  0  0  0  0  0  0  0  0  0
  150.6338  141.0693  154.4599 H   0  0  0  0  0  0  0  0  0  0  0  0
  151.4629  144.5398  158.8752 H   0  0  0  0  0  0  0  0  0  0  0  0
  152.9902  144.0989  160.7845 H   0  0  0  0  0  0  0  0  0  0  0  0
  153.9519  141.8316  161.1265 H   0  0  0  0  0  0  0  0  0  0  0  0
  153.3833  139.9851  159.5517 H   0  0  0  0  0  0  0  0  0  0  0  0
  152.6257  138.6915  157.8129 H   0  0  0  0  0  0  0  0  0  0  0  0
  150.9841  138.4652  157.2934 H   0  0  0  0  0  0  0  0  0  0  0  0
  152.1599  139.6107  155.0217 H   0  0  0  0  0  0  0  0  0  0  0  0
  154.0629  138.5466  154.7480 H   0  0  0  0  0  0  0  0  0  0  0  0
  151.7361  136.6420  155.7093 H   0  0  0  0  0  0  0  0  0  0  0  0
  150.5900  137.7125  154.9214 H   0  0  0  0  0  0  0  0  0  0  0  0
  151.4862  136.8795  153.2297 H   0  0  0  0  0  0  0  0  0  0  0  0
  148.6187  141.3553  153.0689 H   0  0  0  0  0  0  0  0  0  0  0  0
  146.3225  142.2613  152.9038 H   0  0  0  0  0  0  0  0  0  0  0  0
  1  2  1  0  0  0  0
  1 24  1  0  0  0  0
  1 25  1  0  0  0  0
  1 26  1  0  0  0  0
  2  3  1  0  0  0  0
  3 23  1  0  0  0  0
  3  4  2  0  0  0  0
  4  5  1  0  0  0  0
  4 27  1  0  0  0  0
  5  6  2  0  0  0  0
  5 28  1  0  0  0  0
  6  7  1  0  0  0  0
  6 22  1  0  0  0  0
  7  8  1  0  0  0  0
  7 29  1  0  0  0  0
  7 30  1  0  0  0  0
  8 16  1  0  0  0  0
  8  9  2  0  0  0  0
  9 10  1  0  0  0  0
 10 15  2  0  0  0  0
 10 11  1  0  0  0  0
 11 12  2  0  0  0  0
 11 31  1  0  0  0  0
 12 13  1  0  0  0  0
 12 32  1  0  0  0  0
 13 14  2  0  0  0  0
 13 33  1  0  0  0  0
 14 15  1  0  0  0  0
 14 34  1  0  0  0  0
 15 16  1  0  0  0  0
 16 17  1  0  0  0  0
 17 18  1  0  0  0  0
 17 35  1  0  0  0  0
 17 36  1  0  0  0  0
 18 19  1  0  0  0  0
 18 20  1  0  0  0  0
 18 37  1  0  0  0  0
 19 38  1  0  0  0  0
 20 21  1  0  0  0  0
 20 39  1  0  0  0  0
 20 40  1  0  0  0  0
 21 41  1  0  0  0  0
 22 23  2  0  0  0  0
 22 42  1  0  0  0  0
 23 43  1  0  0  0  0
M  END
> <s_m_source_file>
AV-unprocessed.smi

> <i_m_source_file_index>
877

> <i_lp_mmshare_version>
43012

> <i_f3d_flags>
0

> <s_epik_input>
W0NIM11PYzFbY0hdW2NIXWMoW2NIXVtjSF0xKVtDSDJdYyhuMiluKFtDSDJdW0NASF0oW09IXSlbQ0gyXVtPSF0pYyhjMjMpW2NIXVtjSF1bY0hdW2NIXTM=

> <s_epik_cmdline>
J2VwaWtfcHl0aG9uJywgJy1waCcsICc3LjAnLCAnLXRuJywgJzgnLCAnLW1hJywgJzIwMCcsICctbWV0YWxfYmluZGluZycsICctaW1hZScsICc8aW5maWxlLm1hZT4nLCAnLW9tYWUnLCAnPG91dGZpbGUubWFlPic=

> <r_lp_tautomer_probability>
1

> <r_epik_Ionization_Penalty>
0.0616669

> <r_epik_Ionization_Penalty_Charging>
0

> <r_epik_Ionization_Penalty_Neutral>
0.0616669

> <r_epik_State_Penalty>
0.0535415

> <r_epik_Charging_Adjusted_Penalty>
0.0535415

> <i_epik_Tot_Q>
0

> <i_epik_Tot_abs_Q>
0

> <r_epik_Metal_State_Penalty>
5.60326e-05

> <b_epik_Metal_Only>
0

> <s_lp_Force_Field>
OPLS_2005

> <r_lp_Energy>
19.9882

> <b_lp_Chiralities_Consistent>
1

> <s_lp_Variant>
AV-unprocessed.smi:877-2

> <Gold.Version>
5.8.1

> <Gold.Id.Protein>
6NUR|6NUR_protein|mol2

> <Gold.PLP.Fitness>
53.8882

> <Gold.PLP.PLP>
-49.3609

> <Gold.PLP.part.hbond>
-3.0000

> <Gold.PLP.part.metal>
0.0000

> <Gold.PLP.part.buried>
-6.2049

> <Gold.PLP.part.nonpolar>
-40.4576

> <Gold.PLP.part.repulsive>
0.3179

> <Gold.PLP.ligand.clash>
0.0000

> <Gold.PLP.ligand.torsion>
1.4437

> <Gold.PLP.Chemscore.Hbond>
2.4400

> <Gold.PLP.Chemscore.CHOScore>
0.0000

> <Gold.PLP.Chemscore.Metal>
0.0000

> <Gold.Chemscore.Hbonds>
donor molecule, donor type, donor heavy atom, donor atom, acceptor molecule, acceptor atom, score
      L1  H    21    41       P1  7949  0.82
      P1  H  7997  8009       L1    19  0.62
      P1  H 10752 10763       L1    21  0.94

> <Gold.PLP.Chemscore.Internal.Correction>
0.0946

> <Gold.Rescore>
     Score         DG    S(hbond)    S(metal)    S(lipo)     H(rot)  DE(clash)    DE(int)     intcor
     15.28     -16.75       1.63        0.00     118.55       3.15       0.21       1.26       ----

> <Gold.Chemscore.Fitness>
15.2796

> <Gold.Chemscore.DG>
-16.7455

> <Gold.Chemscore.ZeroCoef>
-5.4800

> <Gold.Chemscore.Hbond>
1.6335

> <Gold.Chemscore.Metal>
0.0000

> <Gold.Chemscore.Lipo>
118.5500

> <Gold.Chemscore.Internal_Hbond>
0.0000

> <Gold.Chemscore.DEClash>
0.2104

> <Gold.Chemscore.DEInternal>
1.2555

> <Gold.Chemscore.Rot>
3.1488

> <Gold.Chemscore.Internal.Correction>
   9.000000E+99

> <Gold.Chemscore.Hbonds>
donor molecule, donor type, donor heavy atom, donor atom, acceptor molecule, acceptor atom, score
      L1  H    21    41       P1  7949  0.70
      P1  H  7997  8009       L1    19  0.06
      P1  H 10752 10763       L1    21  0.08

> <Gold.Chemscore.Hbond.Weighted>
-5.4560

> <Gold.Chemscore.Metal.Weighted>
-0.0000

> <Gold.Chemscore.Lipo.Weighted>
-13.8704

> <Gold.Chemscore.Internal_Hbond.Weighted>
0.0000

> <Gold.Chemscore.DEClash.Weighted>
0.2104

> <Gold.Chemscore.DEInternal.Weighted>
1.2555

> <Gold.Chemscore.Rot.Weighted>
8.0608

> <Gold.Chemscore.Internal.Correction.Weighted>
   9.000000E+99

> <Gold.Protein.RotatedTorsions>
[ 6907 6896 6895 6894 ] final    5.97 input  -60.11 | X-H torsion
[ 7974 7965 7964 7962 ] final -140.04 input  175.53 | X-H torsion
[ 8008 7997 7996 7995 ] final -164.46 input   59.86 | X-H torsion
[ 10167 10162 10161 10158 ] final -137.65 input  -65.29 | X-H torsion
[ 10718 10713 10712 10709 ] final -118.93 input   66.30 | X-H torsion
[ 10763 10752 10751 10750 ] final   28.12 input  -60.55 | X-H torsion
[ 11005 11000 10999 10996 ] final   27.90 input  -57.11 | X-H torsion

> <Gold.Protein.ActiveResidues>
 VAL166  LYS551  ARG553  GLY616  TRP617  ASP618  TYR619  PRO620  LYS621  CYS622 
 ASP623  PHE694  ASN695  SER759  ASP760  ASP761  ALA762  ILE779  LEU786  VAL792 
 PHE793  MET794  SER795  GLU796  ALA797  LYS798  CYS799  TRP800  GLU811  SER814 

> <Gold.Protein.RotatedAtoms>
  151.6661  135.0982  160.0188 H   0  0  0  0  0  0  0  0  0  0  0  0  # atno 6907 bound_to 6896
  152.3919  133.6686  159.6253 H   0  0  0  0  0  0  0  0  0  0  0  0  # atno 6908 bound_to 6896
  150.7833  133.8857  159.3340 H   0  0  0  0  0  0  0  0  0  0  0  0  # atno 6909 bound_to 6896
  144.8628  140.6247  143.5317 H   0  0  0  0  0  0  0  0  0  0  0  0  # atno 7974 bound_to 7965
  155.8359  140.0941  157.1764 H   0  0  0  0  0  0  0  0  0  0  0  0  # atno 8008 bound_to 7997
  154.3980  140.1410  156.3731 H   0  0  0  0  0  0  0  0  0  0  0  0  # atno 8009 bound_to 7997
  155.8116  140.3449  155.5463 H   0  0  0  0  0  0  0  0  0  0  0  0  # atno 8010 bound_to 7997
  139.8557  143.7142  152.2654 H   0  0  0  0  0  0  0  0  0  0  0  0  # atno 10167 bound_to 10162
  156.1143  130.6273  150.9353 H   0  0  0  0  0  0  0  0  0  0  0  0  # atno 10718 bound_to 10713
  153.0512  135.6521  154.0689 H   0  0  0  0  0  0  0  0  0  0  0  0  # atno 10763 bound_to 10752
  154.0377  135.2906  155.3361 H   0  0  0  0  0  0  0  0  0  0  0  0  # atno 10764 bound_to 10752
  154.6802  135.5323  153.8319 H   0  0  0  0  0  0  0  0  0  0  0  0  # atno 10765 bound_to 10752
  140.3213  134.2540  155.7717 H   0  0  0  0  0  0  0  0  0  0  0  0  # atno 11005 bound_to 11000
  145.4278  139.1554  143.4039 LP  0  0  0  0  0  0  0  0  0  0  0  0  # atno 17320 bound_to 7965
  146.2874  140.4393  142.8753 LP  0  0  0  0  0  0  0  0  0  0  0  0  # atno 17321 bound_to 7965
  139.7422  144.7556  151.0634 LP  0  0  0  0  0  0  0  0  0  0  0  0  # atno 17342 bound_to 10162
  140.7782  143.4958  150.9834 LP  0  0  0  0  0  0  0  0  0  0  0  0  # atno 17343 bound_to 10162
  157.6326  131.0919  150.8412 LP  0  0  0  0  0  0  0  0  0  0  0  0  # atno 17370 bound_to 10713
  156.8518  130.5083  149.5311 LP  0  0  0  0  0  0  0  0  0  0  0  0  # atno 17371 bound_to 10713
  141.2086  133.7773  157.0050 LP  0  0  0  0  0  0  0  0  0  0  0  0  # atno 17394 bound_to 11000
  140.0939  134.9576  157.1820 LP  0  0  0  0  0  0  0  0  0  0  0  0  # atno 17395 bound_to 11000

$$$$
