AV-unprocessed.smi:771|AV-procd|sdf|3683|dock8
  -GOLD-   22720 1103D 1   1.00000     0.00000
 Structure written by MMmdl.
 41 42  0  0  0  0  0  0  0  0  3 V2000
  145.8139  138.3914  154.9127 O   0  0  0  0  0  0  0  0  0  0  0  0
  146.5851  138.1389  153.9857 C   0  0  0  0  0  0  0  0  0  0  0  0
  147.3581  139.2584  153.2736 C   0  0  0  0  0  0  0  0  0  0  0  0
  148.5120  139.7554  154.0423 N   0  0  0  0  0  0  0  0  0  0  0  0
  149.6179  138.8912  154.1655 C   0  0  0  0  0  0  0  0  0  0  0  0
  150.7247  139.2382  154.8513 C   0  0  0  0  0  0  0  0  0  0  0  0
  151.8496  138.3368  154.9707 N   0  3  0  0  0  0  0  0  0  0  0  0
  152.9025  138.7681  155.4295 O   0  0  0  0  0  0  0  0  0  0  0  0
  151.7197  137.1707  154.6104 O   0  5  0  0  0  0  0  0  0  0  0  0
  150.7506  140.5491  155.4708 C   0  0  0  0  0  0  0  0  0  0  0  0
  149.6943  141.3785  155.3604 C   0  0  0  0  0  0  0  0  0  0  0  0
  148.4890  140.9969  154.6170 C   0  0  0  0  0  0  0  0  0  0  0  0
  147.5180  141.7472  154.5182 O   0  0  0  0  0  0  0  0  0  0  0  0
  146.8238  136.8937  153.5462 N   0  0  0  0  0  0  0  0  0  0  0  0
  146.2154  135.6750  154.0729 C   0  0  0  0  0  0  0  0  0  0  0  0
  145.5728  134.8086  152.9658 C   0  0  2  0  0  0  0  0  0  0  0  0
  146.5519  133.7235  152.4693 C   0  0  0  0  0  0  0  0  0  0  0  0
  145.9014  132.8041  151.4234 C   0  0  0  0  0  0  0  0  0  0  0  0
  145.3540  133.6100  150.2367 C   0  0  0  0  0  0  0  0  0  0  0  0
  144.3749  134.6988  150.7073 C   0  0  0  0  0  0  0  0  0  0  0  0
  144.9958  135.6202  151.7754 C   0  0  2  0  0  0  0  0  0  0  0  0
  145.9944  136.4230  151.1743 O   0  0  0  0  0  0  0  0  0  0  0  0
  147.6828  138.8829  152.3020 H   0  0  0  0  0  0  0  0  0  0  0  0
  146.6732  140.0776  153.0468 H   0  0  0  0  0  0  0  0  0  0  0  0
  149.4973  137.9366  153.6737 H   0  0  0  0  0  0  0  0  0  0  0  0
  151.6159  140.8751  156.0288 H   0  0  0  0  0  0  0  0  0  0  0  0
  149.7344  142.3498  155.8310 H   0  0  0  0  0  0  0  0  0  0  0  0
  147.4761  136.7804  152.7836 H   0  0  0  0  0  0  0  0  0  0  0  0
  146.9345  135.0916  154.6503 H   0  0  0  0  0  0  0  0  0  0  0  0
  145.4469  135.9829  154.7826 H   0  0  0  0  0  0  0  0  0  0  0  0
  144.7336  134.2848  153.4265 H   0  0  0  0  0  0  0  0  0  0  0  0
  147.4401  134.1912  152.0421 H   0  0  0  0  0  0  0  0  0  0  0  0
  146.8983  133.1222  153.3104 H   0  0  0  0  0  0  0  0  0  0  0  0
  146.6274  132.0711  151.0704 H   0  0  0  0  0  0  0  0  0  0  0  0
  145.0918  132.2386  151.8862 H   0  0  0  0  0  0  0  0  0  0  0  0
  146.1817  134.0675  149.6933 H   0  0  0  0  0  0  0  0  0  0  0  0
  144.8561  132.9429  149.5323 H   0  0  0  0  0  0  0  0  0  0  0  0
  144.0302  135.2859  149.8552 H   0  0  0  0  0  0  0  0  0  0  0  0
  143.4876  134.2198  151.1233 H   0  0  0  0  0  0  0  0  0  0  0  0
  144.2170  136.2939  152.1333 H   0  0  0  0  0  0  0  0  0  0  0  0
  146.8415  136.0862  151.4258 H   0  0  0  0  0  0  0  0  0  0  0  0
  1  2  2  0  0  0  0
  2  3  1  0  0  0  0
  2 14  1  0  0  0  0
  3  4  1  0  0  0  0
  3 23  1  0  0  0  0
  3 24  1  0  0  0  0
  4 12  1  0  0  0  0
  4  5  1  0  0  0  0
  5  6  2  0  0  0  0
  5 25  1  0  0  0  0
  6  7  1  0  0  0  0
  6 10  1  0  0  0  0
  7  8  2  0  0  0  0
  7  9  1  0  0  0  0
 10 11  2  0  0  0  0
 10 26  1  0  0  0  0
 11 12  1  0  0  0  0
 11 27  1  0  0  0  0
 12 13  2  0  0  0  0
 14 15  1  0  0  0  0
 14 28  1  0  0  0  0
 15 16  1  0  0  0  0
 15 29  1  0  0  0  0
 15 30  1  0  0  0  0
 16 21  1  0  0  0  0
 16 17  1  0  0  0  0
 16 31  1  0  0  0  0
 17 18  1  0  0  0  0
 17 32  1  0  0  0  0
 17 33  1  0  0  0  0
 18 19  1  0  0  0  0
 18 34  1  0  0  0  0
 18 35  1  0  0  0  0
 19 20  1  0  0  0  0
 19 36  1  0  0  0  0
 19 37  1  0  0  0  0
 20 21  1  0  0  0  0
 20 38  1  0  0  0  0
 20 39  1  0  0  0  0
 21 22  1  0  0  0  0
 21 40  1  0  0  0  0
 22 41  1  0  0  0  0
M  CHG  1   7   1
M  CHG  1   9  -1
M  END
> <s_m_source_file>
AV-unprocessed.smi

> <i_m_source_file_index>
771

> <i_lp_mmshare_version>
43012

> <i_f3d_flags>
0

> <s_epik_input>
Tz1jMVtjSF1bY0hdYyhbTitdKD1PKVtPLV0pW2NIXW4xW0NIMl1DKD1PKVtOSF1bQ0gyXVtDQEBIXTJbQ0gyXVtDSDJdW0NIMl1bQ0gyXVtDQEhdMltPSF0=

> <s_epik_cmdline>
J2VwaWtfcHl0aG9uJywgJy1waCcsICc3LjAnLCAnLXRuJywgJzgnLCAnLW1hJywgJzIwMCcsICctbWV0YWxfYmluZGluZycsICctaW1hZScsICc8aW5maWxlLm1hZT4nLCAnLW9tYWUnLCAnPG91dGZpbGUubWFlPic=

> <r_lp_tautomer_probability>
1

> <r_epik_Ionization_Penalty>
3.77175e-07

> <r_epik_Ionization_Penalty_Charging>
7.70067e-11

> <r_epik_Ionization_Penalty_Neutral>
3.77098e-07

> <r_epik_State_Penalty>
-0

> <r_epik_Charging_Adjusted_Penalty>
7.70067e-11

> <i_epik_Tot_Q>
0

> <i_epik_Tot_abs_Q>
2

> <r_epik_Metal_State_Penalty>
-0

> <b_epik_Metal_Only>
0

> <s_lp_Force_Field>
OPLS_2005

> <r_lp_Energy>
25.3676

> <b_lp_Chiralities_Consistent>
1

> <s_lp_Variant>
AV-unprocessed.smi:771-3

> <Gold.Version>
5.8.1

> <Gold.Id.Protein>
6NUR|6NUR_protein|mol2

> <Gold.PLP.Fitness>
50.5143

> <Gold.PLP.PLP>
-37.2057

> <Gold.PLP.part.hbond>
-4.0000

> <Gold.PLP.part.metal>
0.0000

> <Gold.PLP.part.buried>
0.5311

> <Gold.PLP.part.nonpolar>
-32.5561

> <Gold.PLP.part.repulsive>
0.3458

> <Gold.PLP.ligand.clash>
0.0000

> <Gold.PLP.ligand.torsion>
0.8222

> <Gold.PLP.Chemscore.Hbond>
3.9760

> <Gold.PLP.Chemscore.CHOScore>
1.0000

> <Gold.PLP.Chemscore.Metal>
0.0000

> <Gold.Chemscore.Hbonds>
donor molecule, donor type, donor heavy atom, donor atom, acceptor molecule, acceptor atom, score
      L1  H    14    28       P1  7948  1.00
      L1  H    22    41       P1  7948  0.76
      P1  H  7997  8008       L1     8  0.73
      P1  H 10752 10763       L1     9  1.00
      L1  C     5    25       P1  7948  1.00

> <Gold.PLP.Chemscore.Internal.Correction>
0.0250

> <Gold.Rescore>
     Score         DG    S(hbond)    S(metal)    S(lipo)     H(rot)  DE(clash)    DE(int)     intcor
     17.23     -19.90       3.85        0.00      67.55       2.48       0.05       2.62       ----

> <Gold.Chemscore.Fitness>
17.2261

> <Gold.Chemscore.DG>
-19.8983

> <Gold.Chemscore.ZeroCoef>
-5.4800

> <Gold.Chemscore.Hbond>
3.8480

> <Gold.Chemscore.Metal>
0.0000

> <Gold.Chemscore.Lipo>
67.5471

> <Gold.Chemscore.Internal_Hbond>
0.0000

> <Gold.Chemscore.DEClash>
0.0477

> <Gold.Chemscore.DEInternal>
2.6245

> <Gold.Chemscore.Rot>
2.4753

> <Gold.Chemscore.Internal.Correction>
   9.000000E+99

> <Gold.Chemscore.Hbonds>
donor molecule, donor type, donor heavy atom, donor atom, acceptor molecule, acceptor atom, score
      L1  H    14    28       P1  7948  1.00
      L1  H    22    41       P1  7948  0.75
      P1  H  7997  8008       L1     8  0.72
      P1  H 10752 10763       L1     9  0.95

> <Gold.Chemscore.Hbond.Weighted>
-12.8522

> <Gold.Chemscore.Metal.Weighted>
-0.0000

> <Gold.Chemscore.Lipo.Weighted>
-7.9030

> <Gold.Chemscore.Internal_Hbond.Weighted>
0.0000

> <Gold.Chemscore.DEClash.Weighted>
0.0477

> <Gold.Chemscore.DEInternal.Weighted>
2.6245

> <Gold.Chemscore.Rot.Weighted>
6.3369

> <Gold.Chemscore.Internal.Correction.Weighted>
   9.000000E+99

> <Gold.Protein.RotatedTorsions>
[ 6907 6896 6895 6894 ] final -172.64 input  -60.11 | X-H torsion
[ 7974 7965 7964 7962 ] final   96.72 input  175.53 | X-H torsion
[ 8008 7997 7996 7995 ] final  -19.37 input   59.86 | X-H torsion
[ 10167 10162 10161 10158 ] final  -77.19 input  -65.29 | X-H torsion
[ 10718 10713 10712 10709 ] final -139.33 input   66.30 | X-H torsion
[ 10763 10752 10751 10750 ] final   42.48 input  -60.55 | X-H torsion
[ 11005 11000 10999 10996 ] final   53.32 input  -57.11 | X-H torsion

> <Gold.Protein.ActiveResidues>
 VAL166  LYS551  ARG553  GLY616  TRP617  ASP618  TYR619  PRO620  LYS621  CYS622 
 ASP623  PHE694  ASN695  SER759  ASP760  ASP761  ALA762  ILE779  LEU786  VAL792 
 PHE793  MET794  SER795  GLU796  ALA797  LYS798  CYS799  TRP800  GLU811  SER814 

> <Gold.Protein.RotatedAtoms>
  151.5432  133.3429  159.2939 H   0  0  0  0  0  0  0  0  0  0  0  0  # atno 6907 bound_to 6896
  150.8523  134.7854  159.7029 H   0  0  0  0  0  0  0  0  0  0  0  0  # atno 6908 bound_to 6896
  152.4566  134.5287  159.9856 H   0  0  0  0  0  0  0  0  0  0  0  0  # atno 6909 bound_to 6896
  145.4351  139.2306  143.3123 H   0  0  0  0  0  0  0  0  0  0  0  0  # atno 7974 bound_to 7965
  154.4841  140.2090  155.9695 H   0  0  0  0  0  0  0  0  0  0  0  0  # atno 8008 bound_to 7997
  156.1210  140.3213  155.8177 H   0  0  0  0  0  0  0  0  0  0  0  0  # atno 8009 bound_to 7997
  155.4468  140.0514  157.2996 H   0  0  0  0  0  0  0  0  0  0  0  0  # atno 8010 bound_to 7997
  140.4791  143.2406  151.8086 H   0  0  0  0  0  0  0  0  0  0  0  0  # atno 10167 bound_to 10162
  156.3095  130.7474  151.1546 H   0  0  0  0  0  0  0  0  0  0  0  0  # atno 10718 bound_to 10713
  152.9882  135.6130  154.2957 H   0  0  0  0  0  0  0  0  0  0  0  0  # atno 10763 bound_to 10752
  154.2680  135.2780  155.2752 H   0  0  0  0  0  0  0  0  0  0  0  0  # atno 10764 bound_to 10752
  154.5148  135.5831  153.6690 H   0  0  0  0  0  0  0  0  0  0  0  0  # atno 10765 bound_to 10752
  140.0777  134.5382  155.8979 H   0  0  0  0  0  0  0  0  0  0  0  0  # atno 11005 bound_to 11000
  146.2586  140.5093  142.8863 LP  0  0  0  0  0  0  0  0  0  0  0  0  # atno 17320 bound_to 7965
  144.8157  140.6464  143.6385 LP  0  0  0  0  0  0  0  0  0  0  0  0  # atno 17321 bound_to 7965
  139.4830  144.4795  151.9325 LP  0  0  0  0  0  0  0  0  0  0  0  0  # atno 17342 bound_to 10162
  140.3880  144.2651  150.5902 LP  0  0  0  0  0  0  0  0  0  0  0  0  # atno 17343 bound_to 10162
  157.7387  131.0537  150.5275 LP  0  0  0  0  0  0  0  0  0  0  0  0  # atno 17370 bound_to 10713
  156.5412  130.4208  149.6153 LP  0  0  0  0  0  0  0  0  0  0  0  0  # atno 17371 bound_to 10713
  141.2035  133.6632  156.6069 LP  0  0  0  0  0  0  0  0  0  0  0  0  # atno 17394 bound_to 11000
  140.3533  134.7750  157.4483 LP  0  0  0  0  0  0  0  0  0  0  0  0  # atno 17395 bound_to 11000

$$$$
