AV-unprocessed.smi:2879|AV-procd|sdf|11050|dock2
  -GOLD-   2272015513D 1   1.00000     0.00000
 Structure written by MMmdl.
 44 45  0  0  0  0  0  0  0  0  1 V2000
  146.8219  142.4853  155.3656 C   0  0  0  0  0  0  0  0  0  0  0  0
  147.9300  141.6366  154.8152 C   0  0  0  0  0  0  0  0  0  0  0  0
  148.6875  140.6328  155.4868 C   0  0  0  0  0  0  0  0  0  0  0  0
  149.5590  140.1746  154.5387 C   0  0  0  0  0  0  0  0  0  0  0  0
  150.6175  139.1186  154.5991 C   0  0  0  0  0  0  0  0  0  0  0  0
  151.7310  139.4779  155.5874 C   0  0  0  0  0  0  0  0  0  0  0  0
  152.8649  139.7360  155.1820 O   0  0  0  0  0  0  0  0  0  0  0  0
  151.3883  139.4993  156.8851 N   0  0  0  0  0  0  0  0  0  0  0  0
  152.2841  139.7998  157.9985 C   0  0  0  0  0  0  0  0  0  0  0  0
  151.8928  141.0961  158.7394 C   0  0  0  0  0  0  0  0  0  0  0  0
  151.1039  142.0817  157.8513 C   0  0  0  0  0  0  0  0  0  0  0  0
  150.7583  143.3825  158.5983 C   0  0  0  0  0  0  0  0  0  0  0  0
  151.9928  144.0956  159.2002 C   0  0  0  0  0  0  0  0  0  0  0  0
  152.8802  144.6961  158.0879 C   0  0  0  0  0  0  0  0  0  0  0  0
  151.5135  145.2524  160.0984 C   0  0  0  0  0  0  0  0  0  0  0  0
  152.7899  143.0872  160.0622 C   0  0  0  0  0  0  0  0  0  0  0  0
  153.1429  141.7901  159.3126 C   0  0  0  0  0  0  0  0  0  0  0  0
  149.2897  140.8918  153.3941 N   0  0  0  0  0  0  0  0  0  0  0  0
  148.2989  141.7887  153.5520 N   0  0  0  0  0  0  0  0  0  0  0  0
  149.7711  140.7853  152.5126 H   0  0  0  0  0  0  0  0  0  0  0  0
  146.5848  142.2062  156.3924 H   0  0  0  0  0  0  0  0  0  0  0  0
  145.9124  142.3767  154.7743 H   0  0  0  0  0  0  0  0  0  0  0  0
  147.0979  143.5400  155.3634 H   0  0  0  0  0  0  0  0  0  0  0  0
  148.6033  140.3001  156.5110 H   0  0  0  0  0  0  0  0  0  0  0  0
  151.0347  138.9612  153.6032 H   0  0  0  0  0  0  0  0  0  0  0  0
  150.1778  138.1691  154.9056 H   0  0  0  0  0  0  0  0  0  0  0  0
  150.4313  139.2817  157.1227 H   0  0  0  0  0  0  0  0  0  0  0  0
  152.2301  138.9561  158.6872 H   0  0  0  0  0  0  0  0  0  0  0  0
  153.3225  139.8492  157.6657 H   0  0  0  0  0  0  0  0  0  0  0  0
  151.2551  140.8194  159.5807 H   0  0  0  0  0  0  0  0  0  0  0  0
  151.6736  142.3074  156.9496 H   0  0  0  0  0  0  0  0  0  0  0  0
  150.1754  141.6226  157.5127 H   0  0  0  0  0  0  0  0  0  0  0  0
  150.2245  144.0574  157.9280 H   0  0  0  0  0  0  0  0  0  0  0  0
  150.0561  143.1401  159.3973 H   0  0  0  0  0  0  0  0  0  0  0  0
  153.7446  145.2112  158.5085 H   0  0  0  0  0  0  0  0  0  0  0  0
  152.3267  145.4227  157.4919 H   0  0  0  0  0  0  0  0  0  0  0  0
  153.2593  143.9406  157.4012 H   0  0  0  0  0  0  0  0  0  0  0  0
  152.3550  145.7789  160.5503 H   0  0  0  0  0  0  0  0  0  0  0  0
  150.8792  144.8937  160.9098 H   0  0  0  0  0  0  0  0  0  0  0  0
  150.9356  145.9826  159.5308 H   0  0  0  0  0  0  0  0  0  0  0  0
  153.7023  143.5520  160.4378 H   0  0  0  0  0  0  0  0  0  0  0  0
  152.2045  142.8238  160.9445 H   0  0  0  0  0  0  0  0  0  0  0  0
  153.6572  141.1134  159.9959 H   0  0  0  0  0  0  0  0  0  0  0  0
  153.8514  142.0021  158.5116 H   0  0  0  0  0  0  0  0  0  0  0  0
  1 21  1  0  0  0  0
  1 22  1  0  0  0  0
  1 23  1  0  0  0  0
  1  2  1  0  0  0  0
  2 19  2  0  0  0  0
  2  3  1  0  0  0  0
  3  4  2  0  0  0  0
  3 24  1  0  0  0  0
  4 18  1  0  0  0  0
  4  5  1  0  0  0  0
  5  6  1  0  0  0  0
  5 25  1  0  0  0  0
  5 26  1  0  0  0  0
  6  7  2  0  0  0  0
  6  8  1  0  0  0  0
  8  9  1  0  0  0  0
  8 27  1  0  0  0  0
  9 10  1  0  0  0  0
  9 28  1  0  0  0  0
  9 29  1  0  0  0  0
 10 17  1  0  0  0  0
 10 11  1  0  0  0  0
 10 30  1  0  0  0  0
 11 12  1  0  0  0  0
 11 31  1  0  0  0  0
 11 32  1  0  0  0  0
 12 13  1  0  0  0  0
 12 33  1  0  0  0  0
 12 34  1  0  0  0  0
 13 14  1  0  0  0  0
 13 15  1  0  0  0  0
 13 16  1  0  0  0  0
 14 35  1  0  0  0  0
 14 36  1  0  0  0  0
 14 37  1  0  0  0  0
 15 38  1  0  0  0  0
 15 39  1  0  0  0  0
 15 40  1  0  0  0  0
 16 17  1  0  0  0  0
 16 41  1  0  0  0  0
 16 42  1  0  0  0  0
 17 43  1  0  0  0  0
 17 44  1  0  0  0  0
 18 19  1  0  0  0  0
 18 20  1  0  0  0  0
M  END
> <s_m_source_file>
AV-unprocessed.smi

> <i_m_source_file_index>
2879

> <i_lp_mmshare_version>
43012

> <i_f3d_flags>
0

> <s_epik_input>
W0NIM11jMVtjSF1jKG5bbkhdMSlbQ0gyXUMoPU8pW05IXVtDSDJdW0NIXShbQ0gyXVtDSDJdMilbQ0gyXVtDSDJdQzIoW0NIM10pW0NIM10=

> <s_epik_cmdline>
J2VwaWtfcHl0aG9uJywgJy1waCcsICc3LjAnLCAnLXRuJywgJzgnLCAnLW1hJywgJzIwMCcsICctbWV0YWxfYmluZGluZycsICctaW1hZScsICc8aW5maWxlLm1hZT4nLCAnLW9tYWUnLCAnPG91dGZpbGUubWFlPic=

> <r_lp_tautomer_probability>
0.5

> <r_epik_Ionization_Penalty>
0.000119486

> <r_epik_Ionization_Penalty_Charging>
0

> <r_epik_Ionization_Penalty_Neutral>
0.000119486

> <r_epik_State_Penalty>
0.41068

> <r_epik_Charging_Adjusted_Penalty>
0.41068

> <i_epik_Tot_Q>
0

> <i_epik_Tot_abs_Q>
0

> <r_epik_Metal_State_Penalty>
0.41066

> <b_epik_Metal_Only>
0

> <s_lp_Force_Field>
OPLS_2005

> <r_lp_Energy>
12.3825

> <b_lp_Chiralities_Consistent>
1

> <s_lp_Variant>
AV-unprocessed.smi:2879-2

> <Gold.Version>
5.8.1

> <Gold.Id.Protein>
6NUR|6NUR_protein|mol2

> <Gold.PLP.Fitness>
50.2097

> <Gold.PLP.PLP>
-45.0775

> <Gold.PLP.part.hbond>
-3.7751

> <Gold.PLP.part.metal>
0.0000

> <Gold.PLP.part.buried>
-5.9166

> <Gold.PLP.part.nonpolar>
-36.7631

> <Gold.PLP.part.repulsive>
1.1445

> <Gold.PLP.ligand.clash>
0.0000

> <Gold.PLP.ligand.torsion>
0.5139

> <Gold.PLP.Chemscore.Hbond>
2.0450

> <Gold.PLP.Chemscore.CHOScore>
0.0000

> <Gold.PLP.Chemscore.Metal>
0.0000

> <Gold.Chemscore.Hbonds>
donor molecule, donor type, donor heavy atom, donor atom, acceptor molecule, acceptor atom, score
      L1  H    18    20       P1  7957  0.82
      P1  H  7989  7998       L1     7  0.02
      P1  H  7997  8008       L1     7  1.00

> <Gold.PLP.Chemscore.Internal.Correction>
0.0249

> <Gold.Rescore>
     Score         DG    S(hbond)    S(metal)    S(lipo)     H(rot)  DE(clash)    DE(int)     intcor
     21.96     -22.33       1.99        0.00     121.08       1.55       0.01       0.37       ----

> <Gold.Chemscore.Fitness>
21.9585

> <Gold.Chemscore.DG>
-22.3348

> <Gold.Chemscore.ZeroCoef>
-5.4800

> <Gold.Chemscore.Hbond>
1.9922

> <Gold.Chemscore.Metal>
0.0000

> <Gold.Chemscore.Lipo>
121.0781

> <Gold.Chemscore.Internal_Hbond>
0.0000

> <Gold.Chemscore.DEClash>
0.0075

> <Gold.Chemscore.DEInternal>
0.3689

> <Gold.Chemscore.Rot>
1.5489

> <Gold.Chemscore.Internal.Correction>
   9.000000E+99

> <Gold.Chemscore.Hbonds>
donor molecule, donor type, donor heavy atom, donor atom, acceptor molecule, acceptor atom, score
      L1  H    18    20       P1  7957  0.77
      P1  H  7997  8008       L1     7  1.00

> <Gold.Chemscore.Hbond.Weighted>
-6.6539

> <Gold.Chemscore.Metal.Weighted>
-0.0000

> <Gold.Chemscore.Lipo.Weighted>
-14.1661

> <Gold.Chemscore.Internal_Hbond.Weighted>
0.0000

> <Gold.Chemscore.DEClash.Weighted>
0.0075

> <Gold.Chemscore.DEInternal.Weighted>
0.3689

> <Gold.Chemscore.Rot.Weighted>
3.9652

> <Gold.Chemscore.Internal.Correction.Weighted>
   9.000000E+99

> <Gold.Protein.RotatedTorsions>
[ 6907 6896 6895 6894 ] final  -10.95 input  -60.11 | X-H torsion
[ 7974 7965 7964 7962 ] final  150.66 input  175.53 | X-H torsion
[ 8008 7997 7996 7995 ] final  -28.03 input   59.86 | X-H torsion
[ 10167 10162 10161 10158 ] final   11.22 input  -65.29 | X-H torsion
[ 10718 10713 10712 10709 ] final   76.35 input   66.30 | X-H torsion
[ 10763 10752 10751 10750 ] final  126.82 input  -60.55 | X-H torsion
[ 11005 11000 10999 10996 ] final  157.15 input  -57.11 | X-H torsion

> <Gold.Protein.ActiveResidues>
 VAL166  LYS551  ARG553  GLY616  TRP617  ASP618  TYR619  PRO620  LYS621  CYS622 
 ASP623  PHE694  ASN695  SER759  ASP760  ASP761  ALA762  ILE779  LEU786  VAL792 
 PHE793  MET794  SER795  GLU796  ALA797  LYS798  CYS799  TRP800  GLU811  SER814 

> <Gold.Protein.RotatedAtoms>
  151.3939  135.0960  159.9534 H   0  0  0  0  0  0  0  0  0  0  0  0  # atno 6907 bound_to 6896
  152.5071  133.8953  159.7424 H   0  0  0  0  0  0  0  0  0  0  0  0  # atno 6908 bound_to 6896
  150.9412  133.6598  159.2819 H   0  0  0  0  0  0  0  0  0  0  0  0  # atno 6909 bound_to 6896
  144.8348  139.6437  143.6043 H   0  0  0  0  0  0  0  0  0  0  0  0  # atno 7974 bound_to 7965
  154.4350  140.1856  156.1026 H   0  0  0  0  0  0  0  0  0  0  0  0  # atno 8008 bound_to 7997
  156.0280  140.3333  155.7083 H   0  0  0  0  0  0  0  0  0  0  0  0  # atno 8009 bound_to 7997
  155.5880  140.0628  157.2757 H   0  0  0  0  0  0  0  0  0  0  0  0  # atno 8010 bound_to 7997
  140.6146  143.8336  150.7103 H   0  0  0  0  0  0  0  0  0  0  0  0  # atno 10167 bound_to 10162
  157.6670  130.9770  150.1485 H   0  0  0  0  0  0  0  0  0  0  0  0  # atno 10718 bound_to 10713
  153.6995  135.3286  155.3221 H   0  0  0  0  0  0  0  0  0  0  0  0  # atno 10763 bound_to 10752
  154.8417  135.4451  154.1425 H   0  0  0  0  0  0  0  0  0  0  0  0  # atno 10764 bound_to 10752
  153.2489  135.6979  153.7779 H   0  0  0  0  0  0  0  0  0  0  0  0  # atno 10765 bound_to 10752
  140.1742  134.8521  157.2727 H   0  0  0  0  0  0  0  0  0  0  0  0  # atno 11005 bound_to 11000
  146.2648  139.6493  142.9337 LP  0  0  0  0  0  0  0  0  0  0  0  0  # atno 17320 bound_to 7965
  145.4818  141.0438  143.2641 LP  0  0  0  0  0  0  0  0  0  0  0  0  # atno 17321 bound_to 7965
  140.1912  143.4035  152.1861 LP  0  0  0  0  0  0  0  0  0  0  0  0  # atno 17342 bound_to 10162
  139.5388  144.7236  151.4803 LP  0  0  0  0  0  0  0  0  0  0  0  0  # atno 17343 bound_to 10162
  156.2290  130.3680  149.8467 LP  0  0  0  0  0  0  0  0  0  0  0  0  # atno 17370 bound_to 10713
  156.6299  130.8661  151.3493 LP  0  0  0  0  0  0  0  0  0  0  0  0  # atno 17371 bound_to 10713
  140.2342  134.3873  155.7508 LP  0  0  0  0  0  0  0  0  0  0  0  0  # atno 17394 bound_to 11000
  141.2219  133.7231  156.8688 LP  0  0  0  0  0  0  0  0  0  0  0  0  # atno 17395 bound_to 11000

$$$$
