AV-unprocessed.smi:2974|AV-procd|sdf|11353|dock7
  -GOLD-   2272016273D 1   1.00000     0.00000
 Structure written by MMmdl.
 27 28  0  0  0  0  0  0  0  0  3 V2000
  153.5697  138.6734  154.8007 O   0  0  0  0  0  0  0  0  0  0  0  0
  152.3605  138.3771  154.9187 C   0  0  0  0  0  0  0  0  0  0  0  0
  151.8732  137.3205  154.4583 O   0  5  0  0  0  0  0  0  0  0  0  0
  151.4522  139.3266  155.6428 C   0  0  0  0  0  0  0  0  0  0  0  0
  151.9464  140.3059  156.5352 C   0  0  0  0  0  0  0  0  0  0  0  0
  151.0463  141.1733  157.1901 C   0  0  0  0  0  0  0  0  0  0  0  0
  151.5470  142.1416  158.0710 N   0  0  0  0  0  0  0  0  0  0  0  0
  150.5934  143.2026  158.3697 C   0  0  0  0  0  0  0  0  0  0  0  0
  151.2624  144.2827  159.2378 C   0  0  0  0  0  0  0  0  0  0  0  0
  151.7981  143.6845  160.4148 O   0  0  0  0  0  0  0  0  0  0  0  0
  152.7869  142.7040  160.1135 C   0  0  0  0  0  0  0  0  0  0  0  0
  152.1585  141.5812  159.2697 C   0  0  0  0  0  0  0  0  0  0  0  0
  149.6608  141.0403  156.9350 C   0  0  0  0  0  0  0  0  0  0  0  0
  149.2195  140.0486  156.0369 C   0  0  0  0  0  0  0  0  0  0  0  0
  150.1182  139.2417  155.4340 N   0  3  0  0  0  0  0  0  0  0  0  0
  153.0080  140.3944  156.7187 H   0  0  0  0  0  0  0  0  0  0  0  0
  150.2267  143.6434  157.4418 H   0  0  0  0  0  0  0  0  0  0  0  0
  149.7312  142.7898  158.8951 H   0  0  0  0  0  0  0  0  0  0  0  0
  152.0521  144.7932  158.6844 H   0  0  0  0  0  0  0  0  0  0  0  0
  150.5331  145.0404  159.5245 H   0  0  0  0  0  0  0  0  0  0  0  0
  153.6238  143.1655  159.5865 H   0  0  0  0  0  0  0  0  0  0  0  0
  153.1815  142.2990  161.0454 H   0  0  0  0  0  0  0  0  0  0  0  0
  151.4069  141.0548  159.8595 H   0  0  0  0  0  0  0  0  0  0  0  0
  152.9205  140.8522  158.9906 H   0  0  0  0  0  0  0  0  0  0  0  0
  148.9437  141.6876  157.4181 H   0  0  0  0  0  0  0  0  0  0  0  0
  148.1836  139.8775  155.7836 H   0  0  0  0  0  0  0  0  0  0  0  0
  149.7835  138.5279  154.7856 H   0  0  0  0  0  0  0  0  0  0  0  0
  1  2  2  0  0  0  0
  2  3  1  0  0  0  0
  2  4  1  0  0  0  0
  4 15  1  0  0  0  0
  4  5  2  0  0  0  0
  5  6  1  0  0  0  0
  5 16  1  0  0  0  0
  6  7  1  0  0  0  0
  6 13  2  0  0  0  0
  7 12  1  0  0  0  0
  7  8  1  0  0  0  0
  8  9  1  0  0  0  0
  8 17  1  0  0  0  0
  8 18  1  0  0  0  0
  9 10  1  0  0  0  0
  9 19  1  0  0  0  0
  9 20  1  0  0  0  0
 10 11  1  0  0  0  0
 11 12  1  0  0  0  0
 11 21  1  0  0  0  0
 11 22  1  0  0  0  0
 12 23  1  0  0  0  0
 12 24  1  0  0  0  0
 13 14  1  0  0  0  0
 13 25  1  0  0  0  0
 14 15  2  0  0  0  0
 14 26  1  0  0  0  0
 15 27  1  0  0  0  0
M  CHG  1   3  -1
M  CHG  1  15   1
M  END
> <s_m_source_file>
AV-unprocessed.smi

> <i_m_source_file_index>
2974

> <i_lp_mmshare_version>
43012

> <i_f3d_flags>
0

> <s_epik_input>
Tz1DKFtPSF0pYzFbY0hdYyhbY0hdW2NIXW4xKU4yW0NIMl1bQ0gyXU9bQ0gyXVtDSDJdMg==

> <s_epik_cmdline>
J2VwaWtfcHl0aG9uJywgJy1waCcsICc3LjAnLCAnLXRuJywgJzgnLCAnLW1hJywgJzIwMCcsICctbWV0YWxfYmluZGluZycsICctaW1hZScsICc8aW5maWxlLm1hZT4nLCAnLW9tYWUnLCAnPG91dGZpbGUubWFlPic=

> <r_epik_Ionization_Penalty>
0.0248724

> <r_epik_Ionization_Penalty_Charging>
0.0248724

> <r_epik_Ionization_Penalty_Neutral>
3.18831e-12

> <r_epik_State_Penalty>
0.0202062

> <r_epik_Charging_Adjusted_Penalty>
0.0450787

> <i_epik_Tot_Q>
0

> <i_epik_Tot_abs_Q>
2

> <r_epik_Metal_State_Penalty>
2.1181

> <b_epik_Metal_Only>
0

> <s_lp_Force_Field>
OPLS_2005

> <r_lp_Energy>
18.0137

> <b_lp_Chiralities_Consistent>
1

> <s_lp_Variant>
AV-unprocessed.smi:2974-1

> <Gold.Version>
5.8.1

> <Gold.Id.Protein>
6NUR|6NUR_protein|mol2

> <Gold.PLP.Fitness>
38.3157

> <Gold.PLP.PLP>
-27.2354

> <Gold.PLP.part.hbond>
-2.0000

> <Gold.PLP.part.metal>
0.0000

> <Gold.PLP.part.buried>
-6.4270

> <Gold.PLP.part.nonpolar>
-20.4226

> <Gold.PLP.part.repulsive>
0.3255

> <Gold.PLP.ligand.clash>
0.0000

> <Gold.PLP.ligand.torsion>
0.4435

> <Gold.PLP.Chemscore.Hbond>
3.9520

> <Gold.PLP.Chemscore.CHOScore>
0.0000

> <Gold.PLP.Chemscore.Metal>
0.0000

> <Gold.Chemscore.Hbonds>
donor molecule, donor type, donor heavy atom, donor atom, acceptor molecule, acceptor atom, score
      P1  H  7997  8009       L1     1  1.84
      P1  H 10752 10765       L1     3  1.95

> <Gold.PLP.Chemscore.Internal.Correction>
0.1113

> <Gold.Rescore>
     Score         DG    S(hbond)    S(metal)    S(lipo)     H(rot)  DE(clash)    DE(int)     intcor
     16.47     -16.81       1.79        0.00      67.56       1.00       0.01       0.33       ----

> <Gold.Chemscore.Fitness>
16.4743

> <Gold.Chemscore.DG>
-16.8144

> <Gold.Chemscore.ZeroCoef>
-5.4800

> <Gold.Chemscore.Hbond>
1.7933

> <Gold.Chemscore.Metal>
0.0000

> <Gold.Chemscore.Lipo>
67.5627

> <Gold.Chemscore.Internal_Hbond>
0.0000

> <Gold.Chemscore.DEClash>
0.0149

> <Gold.Chemscore.DEInternal>
0.3252

> <Gold.Chemscore.Rot>
1.0000

> <Gold.Chemscore.Internal.Correction>
   9.000000E+99

> <Gold.Chemscore.Hbonds>
donor molecule, donor type, donor heavy atom, donor atom, acceptor molecule, acceptor atom, score
      P1  H  7997  8009       L1     1  0.84
      P1  H 10752 10765       L1     3  0.90

> <Gold.Chemscore.Hbond.Weighted>
-5.9895

> <Gold.Chemscore.Metal.Weighted>
-0.0000

> <Gold.Chemscore.Lipo.Weighted>
-7.9048

> <Gold.Chemscore.Internal_Hbond.Weighted>
0.0000

> <Gold.Chemscore.DEClash.Weighted>
0.0149

> <Gold.Chemscore.DEInternal.Weighted>
0.3252

> <Gold.Chemscore.Rot.Weighted>
2.5600

> <Gold.Chemscore.Internal.Correction.Weighted>
   9.000000E+99

> <Gold.Protein.RotatedTorsions>
[ 6907 6896 6895 6894 ] final  -90.83 input  -60.11 | X-H torsion
[ 7974 7965 7964 7962 ] final   56.95 input  175.53 | X-H torsion
[ 8008 7997 7996 7995 ] final -128.54 input   59.86 | X-H torsion
[ 10167 10162 10161 10158 ] final  -34.31 input  -65.29 | X-H torsion
[ 10718 10713 10712 10709 ] final   36.83 input   66.30 | X-H torsion
[ 10763 10752 10751 10750 ] final  158.03 input  -60.55 | X-H torsion
[ 11005 11000 10999 10996 ] final   39.40 input  -57.11 | X-H torsion

> <Gold.Protein.ActiveResidues>
 VAL166  LYS551  ARG553  GLY616  TRP617  ASP618  TYR619  PRO620  LYS621  CYS622 
 ASP623  PHE694  ASN695  SER759  ASP760  ASP761  ALA762  ILE779  LEU786  VAL792 
 PHE793  MET794  SER795  GLU796  ALA797  LYS798  CYS799  TRP800  GLU811  SER814 

> <Gold.Protein.RotatedAtoms>
  150.6886  134.2371  159.4457 H   0  0  0  0  0  0  0  0  0  0  0  0  # atno 6907 bound_to 6896
  152.0317  134.9761  160.0582 H   0  0  0  0  0  0  0  0  0  0  0  0  # atno 6908 bound_to 6896
  152.1297  133.4366  159.4752 H   0  0  0  0  0  0  0  0  0  0  0  0  # atno 6909 bound_to 6896
  145.9343  139.3834  143.0402 H   0  0  0  0  0  0  0  0  0  0  0  0  # atno 7974 bound_to 7965
  155.2644  140.0437  157.3000 H   0  0  0  0  0  0  0  0  0  0  0  0  # atno 8008 bound_to 7997
  154.5691  140.2368  155.8187 H   0  0  0  0  0  0  0  0  0  0  0  0  # atno 8009 bound_to 7997
  156.2108  140.2999  155.9737 H   0  0  0  0  0  0  0  0  0  0  0  0  # atno 8010 bound_to 7997
  140.7188  143.3557  151.2064 H   0  0  0  0  0  0  0  0  0  0  0  0  # atno 10167 bound_to 10162
  157.3396  130.7541  149.6903 H   0  0  0  0  0  0  0  0  0  0  0  0  # atno 10718 bound_to 10713
  154.2096  135.2786  155.2963 H   0  0  0  0  0  0  0  0  0  0  0  0  # atno 10763 bound_to 10752
  154.5789  135.5595  153.7169 H   0  0  0  0  0  0  0  0  0  0  0  0  # atno 10764 bound_to 10752
  153.0067  135.6340  154.2235 H   0  0  0  0  0  0  0  0  0  0  0  0  # atno 10765 bound_to 10752
  140.2031  134.3846  155.8086 H   0  0  0  0  0  0  0  0  0  0  0  0  # atno 11005 bound_to 11000
  145.8385  140.9593  143.0812 LP  0  0  0  0  0  0  0  0  0  0  0  0  # atno 17320 bound_to 7965
  144.6769  140.0253  143.7483 LP  0  0  0  0  0  0  0  0  0  0  0  0  # atno 17321 bound_to 7965
  139.7098  143.9395  152.2942 LP  0  0  0  0  0  0  0  0  0  0  0  0  # atno 17342 bound_to 10162
  139.9116  144.6853  150.8556 LP  0  0  0  0  0  0  0  0  0  0  0  0  # atno 17343 bound_to 10162
  155.9706  130.4171  150.4265 LP  0  0  0  0  0  0  0  0  0  0  0  0  # atno 17370 bound_to 10713
  157.2310  131.0504  151.2492 LP  0  0  0  0  0  0  0  0  0  0  0  0  # atno 17371 bound_to 10713
  141.2227  133.7104  156.8292 LP  0  0  0  0  0  0  0  0  0  0  0  0  # atno 17394 bound_to 11000
  140.2032  134.8882  157.3192 LP  0  0  0  0  0  0  0  0  0  0  0  0  # atno 17395 bound_to 11000

$$$$
