AV-unprocessed.smi:100|AV-procd|sdf|909|dock7
  -GOLD-   2262017403D 1   1.00000     0.00000
 Structure written by MMmdl.
 31 33  0  0  0  0  0  0  0  0  1 V2000
  149.5712  138.3816  153.3886 N   0  0  0  0  0  0  0  0  0  0  0  0
  149.8828  138.4874  154.6876 C   0  0  0  0  0  0  0  0  0  0  0  0
  149.9586  137.3549  155.4247 N   0  0  0  0  0  0  0  0  0  0  0  0
  150.2672  137.4349  156.7227 C   0  0  0  0  0  0  0  0  0  0  0  0
  150.5301  138.5217  157.4528 N   0  0  0  0  0  0  0  0  0  0  0  0
  150.4539  139.6645  156.7097 C   0  0  0  0  0  0  0  0  0  0  0  0
  150.1347  139.7288  155.3243 C   0  0  0  0  0  0  0  0  0  0  0  0
  150.1424  141.0489  154.8966 N   0  0  0  0  0  0  0  0  0  0  0  0
  150.4494  141.7239  155.9712 C   0  0  0  0  0  0  0  0  0  0  0  0
  150.6547  140.9727  157.1085 N   0  0  0  0  0  0  0  0  0  0  0  0
  151.0150  141.4848  158.4726 C   0  0  2  0  0  0  0  0  0  0  0  0
  151.1233  142.8788  158.4441 O   0  0  0  0  0  0  0  0  0  0  0  0
  152.4532  143.2711  158.7742 C   0  0  1  0  0  0  0  0  0  0  0  0
  152.4696  144.6701  159.4090 C   0  0  0  0  0  0  0  0  0  0  0  0
  151.7528  144.6659  160.6254 O   0  0  0  0  0  0  0  0  0  0  0  0
  152.9670  142.1332  159.6595 C   0  0  1  0  0  0  0  0  0  0  0  0
  152.4991  142.2485  160.9046 F   0  0  0  0  0  0  0  0  0  0  0  0
  152.3466  140.9136  159.0035 C   0  0  2  0  0  0  0  0  0  0  0  0
  153.2003  140.3840  158.0042 O   0  0  0  0  0  0  0  0  0  0  0  0
  149.5075  139.2123  152.8178 H   0  0  0  0  0  0  0  0  0  0  0  0
  149.4019  137.4725  152.9832 H   0  0  0  0  0  0  0  0  0  0  0  0
  150.3092  136.4951  157.2530 H   0  0  0  0  0  0  0  0  0  0  0  0
  150.5342  142.8009  155.9643 H   0  0  0  0  0  0  0  0  0  0  0  0
  150.1632  141.2182  159.0999 H   0  0  0  0  0  0  0  0  0  0  0  0
  153.0374  143.2892  157.8538 H   0  0  0  0  0  0  0  0  0  0  0  0
  153.4965  144.9710  159.6177 H   0  0  0  0  0  0  0  0  0  0  0  0
  152.0479  145.4172  158.7361 H   0  0  0  0  0  0  0  0  0  0  0  0
  151.4598  145.5463  160.8046 H   0  0  0  0  0  0  0  0  0  0  0  0
  154.0551  142.0930  159.7249 H   0  0  0  0  0  0  0  0  0  0  0  0
  152.1430  140.1218  159.7254 H   0  0  0  0  0  0  0  0  0  0  0  0
  152.6726  139.9069  157.3818 H   0  0  0  0  0  0  0  0  0  0  0  0
  1  2  1  0  0  0  0
  1 20  1  0  0  0  0
  1 21  1  0  0  0  0
  2  7  1  0  0  0  0
  2  3  2  0  0  0  0
  3  4  1  0  0  0  0
  4  5  2  0  0  0  0
  4 22  1  0  0  0  0
  5  6  1  0  0  0  0
  6 10  1  0  0  0  0
  6  7  2  0  0  0  0
  7  8  1  0  0  0  0
  8  9  2  0  0  0  0
  9 10  1  0  0  0  0
  9 23  1  0  0  0  0
 10 11  1  0  0  0  0
 11 18  1  0  0  0  0
 11 12  1  0  0  0  0
 11 24  1  0  0  0  0
 12 13  1  0  0  0  0
 13 14  1  0  0  0  0
 13 16  1  0  0  0  0
 13 25  1  0  0  0  0
 14 15  1  0  0  0  0
 14 26  1  0  0  0  0
 14 27  1  0  0  0  0
 15 28  1  0  0  0  0
 16 17  1  0  0  0  0
 16 18  1  0  0  0  0
 16 29  1  0  0  0  0
 18 19  1  0  0  0  0
 18 30  1  0  0  0  0
 19 31  1  0  0  0  0
M  END
> <s_m_source_file>
AV-unprocessed.smi

> <i_m_source_file_index>
100

> <i_lp_mmshare_version>
43012

> <i_f3d_flags>
0

> <s_epik_input>
bjFbY0hdbmMoW05IMl0pYyhjMTIpbltjSF1uMltDQEBIXTNPW0NAQEhdKFtDSDJdW09IXSlbQ0BIXShGKVtDQEhdM1tPSF0=

> <s_epik_cmdline>
J2VwaWtfcHl0aG9uJywgJy1waCcsICc3LjAnLCAnLXRuJywgJzgnLCAnLW1hJywgJzIwMCcsICctbWV0YWxfYmluZGluZycsICctaW1hZScsICc8aW5maWxlLm1hZT4nLCAnLW9tYWUnLCAnPG91dGZpbGUubWFlPic=

> <r_lp_tautomer_probability>
1

> <r_epik_Ionization_Penalty>
0.000750324

> <r_epik_Ionization_Penalty_Charging>
0

> <r_epik_Ionization_Penalty_Neutral>
0.000750324

> <r_epik_State_Penalty>
-0

> <r_epik_Charging_Adjusted_Penalty>
0

> <i_epik_Tot_Q>
0

> <i_epik_Tot_abs_Q>
0

> <r_epik_Metal_State_Penalty>
-0

> <b_epik_Metal_Only>
0

> <s_epik_Chemistry_Notes>
This compound contains an acetal/aminal-like group ( X-CH(R)-Y where X, Y are N, S, or O) that may be acid/base labile, releasing an aldehyde.

> <s_lp_Force_Field>
OPLS_2005

> <r_lp_Energy>
35.7638

> <b_lp_Chiralities_Consistent>
1

> <s_lp_Variant>
AV-unprocessed.smi:100-13

> <Gold.Version>
5.8.1

> <Gold.Id.Protein>
6NUR|6NUR_protein|mol2

> <Gold.PLP.Fitness>
44.5859

> <Gold.PLP.PLP>
-32.3159

> <Gold.PLP.part.hbond>
-4.0000

> <Gold.PLP.part.metal>
0.0000

> <Gold.PLP.part.buried>
-2.8677

> <Gold.PLP.part.nonpolar>
-25.1728

> <Gold.PLP.part.repulsive>
0.3572

> <Gold.PLP.ligand.clash>
0.0000

> <Gold.PLP.ligand.torsion>
0.0084

> <Gold.PLP.Chemscore.Hbond>
3.1280

> <Gold.PLP.Chemscore.CHOScore>
0.9670

> <Gold.PLP.Chemscore.Metal>
0.0000

> <Gold.Chemscore.Hbonds>
donor molecule, donor type, donor heavy atom, donor atom, acceptor molecule, acceptor atom, score
      L1  H     1    20       P1  7957  0.99
      L1  H     1    21       P1  7948  1.00
      P1  H  7989  7998       L1     8  0.63
      P1  H  7997  8010       L1    19  0.50
      L1  C     9    23       P1  8028  0.97

> <Gold.PLP.Chemscore.Internal.Correction>
0.0016

> <Gold.Rescore>
     Score         DG    S(hbond)    S(metal)    S(lipo)     H(rot)  DE(clash)    DE(int)     intcor
     11.63     -13.29       3.14        0.00      46.86       3.19       0.01       1.65       ----

> <Gold.Chemscore.Fitness>
11.6321

> <Gold.Chemscore.DG>
-13.2945

> <Gold.Chemscore.ZeroCoef>
-5.4800

> <Gold.Chemscore.Hbond>
3.1432

> <Gold.Chemscore.Metal>
0.0000

> <Gold.Chemscore.Lipo>
46.8617

> <Gold.Chemscore.Internal_Hbond>
0.0000

> <Gold.Chemscore.DEClash>
0.0104

> <Gold.Chemscore.DEInternal>
1.6520

> <Gold.Chemscore.Rot>
3.1901

> <Gold.Chemscore.Internal.Correction>
   9.000000E+99

> <Gold.Chemscore.Hbonds>
donor molecule, donor type, donor heavy atom, donor atom, acceptor molecule, acceptor atom, score
      L1  H     1    20       P1  7957  0.93
      L1  H     1    21       P1  7948  0.90
      P1  H  7989  7998       L1     8  0.12
      P1  H  7997  8010       L1    19  0.09

> <Gold.Chemscore.Hbond.Weighted>
-10.4984

> <Gold.Chemscore.Metal.Weighted>
-0.0000

> <Gold.Chemscore.Lipo.Weighted>
-5.4828

> <Gold.Chemscore.Internal_Hbond.Weighted>
0.0000

> <Gold.Chemscore.DEClash.Weighted>
0.0104

> <Gold.Chemscore.DEInternal.Weighted>
1.6520

> <Gold.Chemscore.Rot.Weighted>
8.1667

> <Gold.Chemscore.Internal.Correction.Weighted>
   9.000000E+99

> <Gold.Protein.RotatedTorsions>
[ 6907 6896 6895 6894 ] final  128.53 input  -60.11 | X-H torsion
[ 7974 7965 7964 7962 ] final   87.36 input  175.53 | X-H torsion
[ 8008 7997 7996 7995 ] final   16.32 input   59.86 | X-H torsion
[ 10167 10162 10161 10158 ] final   37.77 input  -65.29 | X-H torsion
[ 10718 10713 10712 10709 ] final  159.37 input   66.30 | X-H torsion
[ 10763 10752 10751 10750 ] final -132.50 input  -60.55 | X-H torsion
[ 11005 11000 10999 10996 ] final   25.22 input  -57.11 | X-H torsion

> <Gold.Protein.ActiveResidues>
 VAL166  LYS551  ARG553  GLY616  TRP617  ASP618  TYR619  PRO620  LYS621  CYS622 
 ASP623  PHE694  ASN695  SER759  ASP760  ASP761  ALA762  ILE779  LEU786  VAL792 
 PHE793  MET794  SER795  GLU796  ALA797  LYS798  CYS799  TRP800  GLU811  SER814 

> <Gold.Protein.RotatedAtoms>
  152.3711  133.6420  159.6087 H   0  0  0  0  0  0  0  0  0  0  0  0  # atno 6907 bound_to 6896
  150.7669  133.9269  159.3424 H   0  0  0  0  0  0  0  0  0  0  0  0  # atno 6908 bound_to 6896
  151.7092  135.0917  160.0316 H   0  0  0  0  0  0  0  0  0  0  0  0  # atno 6909 bound_to 6896
  145.5601  139.2303  143.2464 H   0  0  0  0  0  0  0  0  0  0  0  0  # atno 7974 bound_to 7965
  154.8752  140.2965  155.5457 H   0  0  0  0  0  0  0  0  0  0  0  0  # atno 8008 bound_to 7997
  156.3022  140.2452  156.3680 H   0  0  0  0  0  0  0  0  0  0  0  0  # atno 8009 bound_to 7997
  154.8774  140.0399  157.1751 H   0  0  0  0  0  0  0  0  0  0  0  0  # atno 8010 bound_to 7997
  140.4001  144.1735  150.6133 H   0  0  0  0  0  0  0  0  0  0  0  0  # atno 10167 bound_to 10162
  157.1650  131.0596  151.2212 H   0  0  0  0  0  0  0  0  0  0  0  0  # atno 10718 bound_to 10713
  154.8742  135.3796  154.4419 H   0  0  0  0  0  0  0  0  0  0  0  0  # atno 10763 bound_to 10752
  153.5103  135.7029  153.5789 H   0  0  0  0  0  0  0  0  0  0  0  0  # atno 10764 bound_to 10752
  153.4082  135.3931  155.1999 H   0  0  0  0  0  0  0  0  0  0  0  0  # atno 10765 bound_to 10752
  140.3502  134.2237  155.7681 H   0  0  0  0  0  0  0  0  0  0  0  0  # atno 11005 bound_to 11000
  146.1857  140.6425  142.9168 LP  0  0  0  0  0  0  0  0  0  0  0  0  # atno 17320 bound_to 7965
  144.7487  140.5135  143.6817 LP  0  0  0  0  0  0  0  0  0  0  0  0  # atno 17321 bound_to 7965
  140.4749  143.2399  151.9037 LP  0  0  0  0  0  0  0  0  0  0  0  0  # atno 17342 bound_to 10162
  139.4785  144.5331  151.8638 LP  0  0  0  0  0  0  0  0  0  0  0  0  # atno 17343 bound_to 10162
  157.4096  130.7378  149.6829 LP  0  0  0  0  0  0  0  0  0  0  0  0  # atno 17370 bound_to 10713
  155.9747  130.4099  150.3901 LP  0  0  0  0  0  0  0  0  0  0  0  0  # atno 17371 bound_to 10713
  141.2014  133.7963  157.0441 LP  0  0  0  0  0  0  0  0  0  0  0  0  # atno 17394 bound_to 11000
  140.0709  134.9702  157.1466 LP  0  0  0  0  0  0  0  0  0  0  0  0  # atno 17395 bound_to 11000

$$$$
