AV-unprocessed.smi:1518|AV-procd|sdf|6125|dock10
  -GOLD-   22720 6263D 1   1.00000     0.00000
 Structure written by MMmdl.
 45 47  0  0  0  0  0  0  0  0  1 V2000
  147.7182  131.3691  161.4177 C   0  0  0  0  0  0  0  0  0  0  0  0
  147.5517  132.4947  160.3979 C   0  0  0  0  0  0  0  0  0  0  0  0
  147.4763  132.2020  159.2048 O   0  0  0  0  0  0  0  0  0  0  0  0
  147.4872  133.8953  160.9069 C   0  0  0  0  0  0  0  0  0  0  0  0
  147.1819  134.1202  162.2682 C   0  0  0  0  0  0  0  0  0  0  0  0
  147.1159  135.4294  162.7774 C   0  0  0  0  0  0  0  0  0  0  0  0
  147.3526  136.5269  161.9310 C   0  0  0  0  0  0  0  0  0  0  0  0
  147.6561  136.3324  160.5693 C   0  0  0  0  0  0  0  0  0  0  0  0
  147.8693  137.4655  159.8131 O   0  0  0  0  0  0  0  0  0  0  0  0
  148.0316  137.3236  158.4077 C   0  0  0  0  0  0  0  0  0  0  0  0
  149.5018  137.5903  158.0467 C   0  0  1  0  0  0  0  0  0  0  0  0
  150.3220  136.7948  158.8797 O   0  0  0  0  0  0  0  0  0  0  0  0
  149.8008  137.2522  156.5713 C   0  0  0  0  0  0  0  0  0  0  0  0
  149.7853  138.4233  155.7021 N   0  0  0  0  0  0  0  0  0  0  0  0
  150.7265  138.8238  154.8082 C   0  0  0  0  0  0  0  0  0  0  0  0
  152.0021  138.0698  154.5828 C   0  0  0  0  0  0  0  0  0  0  0  0
  151.7914  136.7704  154.0757 O   0  0  0  0  0  0  0  0  0  0  0  0
  150.4507  139.9435  154.1386 N   0  0  0  0  0  0  0  0  0  0  0  0
  149.2214  140.3098  154.6493 C   0  0  0  0  0  0  0  0  0  0  0  0
  148.3949  141.4158  154.3475 C   0  0  0  0  0  0  0  0  0  0  0  0
  147.1624  141.5878  155.0107 C   0  0  0  0  0  0  0  0  0  0  0  0
  146.7393  140.6581  155.9824 C   0  0  0  0  0  0  0  0  0  0  0  0
  147.5477  139.5489  156.2975 C   0  0  0  0  0  0  0  0  0  0  0  0
  148.7773  139.3814  155.6326 C   0  0  0  0  0  0  0  0  0  0  0  0
  147.7228  135.0087  160.0634 C   0  0  0  0  0  0  0  0  0  0  0  0
  146.8866  131.3663  162.1224 H   0  0  0  0  0  0  0  0  0  0  0  0
  148.6494  131.4887  161.9716 H   0  0  0  0  0  0  0  0  0  0  0  0
  147.7424  130.4012  160.9164 H   0  0  0  0  0  0  0  0  0  0  0  0
  146.9961  133.2919  162.9371 H   0  0  0  0  0  0  0  0  0  0  0  0
  146.8832  135.5921  163.8196 H   0  0  0  0  0  0  0  0  0  0  0  0
  147.2998  137.5290  162.3309 H   0  0  0  0  0  0  0  0  0  0  0  0
  147.7183  136.3368  158.0618 H   0  0  0  0  0  0  0  0  0  0  0  0
  147.4015  138.0661  157.9150 H   0  0  0  0  0  0  0  0  0  0  0  0
  149.7323  138.6392  158.2302 H   0  0  0  0  0  0  0  0  0  0  0  0
  151.1496  136.6606  158.4431 H   0  0  0  0  0  0  0  0  0  0  0  0
  150.7767  136.7721  156.4873 H   0  0  0  0  0  0  0  0  0  0  0  0
  149.0819  136.5242  156.1972 H   0  0  0  0  0  0  0  0  0  0  0  0
  152.6210  138.6185  153.8718 H   0  0  0  0  0  0  0  0  0  0  0  0
  152.5737  138.0157  155.5088 H   0  0  0  0  0  0  0  0  0  0  0  0
  151.5115  136.8416  153.1760 H   0  0  0  0  0  0  0  0  0  0  0  0
  148.7108  142.1333  153.6047 H   0  0  0  0  0  0  0  0  0  0  0  0
  146.5390  142.4371  154.7726 H   0  0  0  0  0  0  0  0  0  0  0  0
  145.7938  140.7966  156.4856 H   0  0  0  0  0  0  0  0  0  0  0  0
  147.2253  138.8340  157.0402 H   0  0  0  0  0  0  0  0  0  0  0  0
  147.9555  134.8439  159.0235 H   0  0  0  0  0  0  0  0  0  0  0  0
  1  2  1  0  0  0  0
  1 26  1  0  0  0  0
  1 27  1  0  0  0  0
  1 28  1  0  0  0  0
  2  3  2  0  0  0  0
  2  4  1  0  0  0  0
  4 25  1  0  0  0  0
  4  5  2  0  0  0  0
  5  6  1  0  0  0  0
  5 29  1  0  0  0  0
  6  7  2  0  0  0  0
  6 30  1  0  0  0  0
  7  8  1  0  0  0  0
  7 31  1  0  0  0  0
  8  9  1  0  0  0  0
  8 25  2  0  0  0  0
  9 10  1  0  0  0  0
 10 11  1  0  0  0  0
 10 32  1  0  0  0  0
 10 33  1  0  0  0  0
 11 12  1  0  0  0  0
 11 13  1  0  0  0  0
 11 34  1  0  0  0  0
 12 35  1  0  0  0  0
 13 14  1  0  0  0  0
 13 36  1  0  0  0  0
 13 37  1  0  0  0  0
 14 24  1  0  0  0  0
 14 15  1  0  0  0  0
 15 16  1  0  0  0  0
 15 18  2  0  0  0  0
 16 17  1  0  0  0  0
 16 38  1  0  0  0  0
 16 39  1  0  0  0  0
 17 40  1  0  0  0  0
 18 19  1  0  0  0  0
 19 24  2  0  0  0  0
 19 20  1  0  0  0  0
 20 21  2  0  0  0  0
 20 41  1  0  0  0  0
 21 22  1  0  0  0  0
 21 42  1  0  0  0  0
 22 23  2  0  0  0  0
 22 43  1  0  0  0  0
 23 24  1  0  0  0  0
 23 44  1  0  0  0  0
 25 45  1  0  0  0  0
M  END
> <s_m_source_file>
AV-unprocessed.smi

> <i_m_source_file_index>
1518

> <i_lp_mmshare_version>
43012

> <i_f3d_flags>
0

> <s_epik_input>
W0NIM11DKD1PKWMxW2NIXVtjSF1bY0hdYyhbY0hdMSlPW0NIMl1bQ0BIXShbT0hdKVtDSDJdbihjKG4yKVtDSDJdW09IXSljKGMyMylbY0hdW2NIXVtjSF1bY0hdMw==

> <s_epik_cmdline>
J2VwaWtfcHl0aG9uJywgJy1waCcsICc3LjAnLCAnLXRuJywgJzgnLCAnLW1hJywgJzIwMCcsICctbWV0YWxfYmluZGluZycsICctaW1hZScsICc8aW5maWxlLm1hZT4nLCAnLW9tYWUnLCAnPG91dGZpbGUubWFlPic=

> <r_lp_tautomer_probability>
0.99995

> <r_epik_Ionization_Penalty>
0.0583159

> <r_epik_Ionization_Penalty_Charging>
0

> <r_epik_Ionization_Penalty_Neutral>
0.0583159

> <r_epik_State_Penalty>
0.0503525

> <r_epik_Charging_Adjusted_Penalty>
0.0503525

> <i_epik_Tot_Q>
0

> <i_epik_Tot_abs_Q>
0

> <r_epik_Metal_State_Penalty>
5.25517e-05

> <b_epik_Metal_Only>
0

> <s_lp_Force_Field>
OPLS_2005

> <r_lp_Energy>
23.8716

> <b_lp_Chiralities_Consistent>
1

> <s_lp_Variant>
AV-unprocessed.smi:1518-2

> <Gold.Version>
5.8.1

> <Gold.Id.Protein>
6NUR|6NUR_protein|mol2

> <Gold.PLP.Fitness>
53.6770

> <Gold.PLP.PLP>
-45.1242

> <Gold.PLP.part.hbond>
-5.7691

> <Gold.PLP.part.metal>
0.0000

> <Gold.PLP.part.buried>
-6.8722

> <Gold.PLP.part.nonpolar>
-33.9205

> <Gold.PLP.part.repulsive>
0.3600

> <Gold.PLP.ligand.clash>
0.0000

> <Gold.PLP.ligand.torsion>
1.2052

> <Gold.PLP.Chemscore.Hbond>
3.6300

> <Gold.PLP.Chemscore.CHOScore>
0.0000

> <Gold.PLP.Chemscore.Metal>
0.0000

> <Gold.Chemscore.Hbonds>
donor molecule, donor type, donor heavy atom, donor atom, acceptor molecule, acceptor atom, score
      L1  H    17    40       P1  7949  0.98
      P1  H  6934  6947       L1     9  0.67
      P1  H  7989  7998       L1    18  1.00
      P1  H 10752 10765       L1    17  1.00

> <Gold.PLP.Chemscore.Internal.Correction>
0.0731

> <Gold.Rescore>
     Score         DG    S(hbond)    S(metal)    S(lipo)     H(rot)  DE(clash)    DE(int)     intcor
     16.70     -18.03       3.04        0.00      91.47       3.25       0.01       1.32       ----

> <Gold.Chemscore.Fitness>
16.7023

> <Gold.Chemscore.DG>
-18.0292

> <Gold.Chemscore.ZeroCoef>
-5.4800

> <Gold.Chemscore.Hbond>
3.0427

> <Gold.Chemscore.Metal>
0.0000

> <Gold.Chemscore.Lipo>
91.4697

> <Gold.Chemscore.Internal_Hbond>
0.0000

> <Gold.Chemscore.DEClash>
0.0089

> <Gold.Chemscore.DEInternal>
1.3180

> <Gold.Chemscore.Rot>
3.2482

> <Gold.Chemscore.Internal.Correction>
   9.000000E+99

> <Gold.Chemscore.Hbonds>
donor molecule, donor type, donor heavy atom, donor atom, acceptor molecule, acceptor atom, score
      L1  H    17    40       P1  7949  0.84
      P1  H  6934  6947       L1     9  0.39
      P1  H  7989  7998       L1    18  0.97
      P1  H 10752 10765       L1    17  0.33

> <Gold.Chemscore.Hbond.Weighted>
-10.1628

> <Gold.Chemscore.Metal.Weighted>
-0.0000

> <Gold.Chemscore.Lipo.Weighted>
-10.7020

> <Gold.Chemscore.Internal_Hbond.Weighted>
0.0000

> <Gold.Chemscore.DEClash.Weighted>
0.0089

> <Gold.Chemscore.DEInternal.Weighted>
1.3180

> <Gold.Chemscore.Rot.Weighted>
8.3155

> <Gold.Chemscore.Internal.Correction.Weighted>
   9.000000E+99

> <Gold.Protein.RotatedTorsions>
[ 6907 6896 6895 6894 ] final  100.21 input  -60.11 | X-H torsion
[ 7974 7965 7964 7962 ] final  -12.44 input  175.53 | X-H torsion
[ 8008 7997 7996 7995 ] final  -38.81 input   59.86 | X-H torsion
[ 10167 10162 10161 10158 ] final   61.65 input  -65.29 | X-H torsion
[ 10718 10713 10712 10709 ] final   71.80 input   66.30 | X-H torsion
[ 10763 10752 10751 10750 ] final  140.90 input  -60.55 | X-H torsion
[ 11005 11000 10999 10996 ] final   84.78 input  -57.11 | X-H torsion

> <Gold.Protein.ActiveResidues>
 VAL166  LYS551  ARG553  GLY616  TRP617  ASP618  TYR619  PRO620  LYS621  CYS622 
 ASP623  PHE694  ASN695  SER759  ASP760  ASP761  ALA762  ILE779  LEU786  VAL792 
 PHE793  MET794  SER795  GLU796  ALA797  LYS798  CYS799  TRP800  GLU811  SER814 

> <Gold.Protein.RotatedAtoms>
  152.5377  134.0311  159.8024 H   0  0  0  0  0  0  0  0  0  0  0  0  # atno 6907 bound_to 6896
  151.0482  133.5639  159.2652 H   0  0  0  0  0  0  0  0  0  0  0  0  # atno 6908 bound_to 6896
  151.2584  135.0653  159.9142 H   0  0  0  0  0  0  0  0  0  0  0  0  # atno 6909 bound_to 6896
  146.2152  140.3058  142.8378 H   0  0  0  0  0  0  0  0  0  0  0  0  # atno 7974 bound_to 7965
  154.4031  140.1568  156.2760 H   0  0  0  0  0  0  0  0  0  0  0  0  # atno 8008 bound_to 7997
  155.8911  140.3438  155.5935 H   0  0  0  0  0  0  0  0  0  0  0  0  # atno 8009 bound_to 7997
  155.7557  140.0811  157.2170 H   0  0  0  0  0  0  0  0  0  0  0  0  # atno 8010 bound_to 7997
  140.1524  144.4449  150.6752 H   0  0  0  0  0  0  0  0  0  0  0  0  # atno 10167 bound_to 10162
  157.6470  130.9547  150.0840 H   0  0  0  0  0  0  0  0  0  0  0  0  # atno 10718 bound_to 10713
  153.9304  135.2991  155.3446 H   0  0  0  0  0  0  0  0  0  0  0  0  # atno 10763 bound_to 10752
  154.7530  135.4971  153.9326 H   0  0  0  0  0  0  0  0  0  0  0  0  # atno 10764 bound_to 10752
  153.1095  135.6755  153.9631 H   0  0  0  0  0  0  0  0  0  0  0  0  # atno 10765 bound_to 10752
  139.8990  134.8240  156.2491 H   0  0  0  0  0  0  0  0  0  0  0  0  # atno 11005 bound_to 11000
  144.9024  140.7659  143.5858 LP  0  0  0  0  0  0  0  0  0  0  0  0  # atno 17320 bound_to 7965
  145.2985  139.1859  143.4702 LP  0  0  0  0  0  0  0  0  0  0  0  0  # atno 17321 bound_to 7965
  140.6694  143.2280  151.5663 LP  0  0  0  0  0  0  0  0  0  0  0  0  # atno 17342 bound_to 10162
  139.5419  144.2624  152.1368 LP  0  0  0  0  0  0  0  0  0  0  0  0  # atno 17343 bound_to 10162
  156.1808  130.3650  149.9038 LP  0  0  0  0  0  0  0  0  0  0  0  0  # atno 17370 bound_to 10713
  156.6991  130.8926  151.3597 LP  0  0  0  0  0  0  0  0  0  0  0  0  # atno 17371 bound_to 10713
  141.0235  133.7028  156.1308 LP  0  0  0  0  0  0  0  0  0  0  0  0  # atno 17394 bound_to 11000
  140.7199  134.4369  157.5575 LP  0  0  0  0  0  0  0  0  0  0  0  0  # atno 17395 bound_to 11000

$$$$
