AV-unprocessed.smi:1791|AV-procd|sdf|7220|dock2
  -GOLD-   22720 8463D 1   1.00000     0.00000
 Structure written by MMmdl.
 38 39  0  0  0  0  0  0  0  0  1 V2000
  152.6633  139.8537  158.8206 C   0  0  0  0  0  0  0  0  0  0  0  0
  152.9762  139.7498  157.4360 O   0  0  0  0  0  0  0  0  0  0  0  0
  152.2308  138.8874  156.6585 C   0  0  0  0  0  0  0  0  0  0  0  0
  152.3372  138.9800  155.2566 C   0  0  0  0  0  0  0  0  0  0  0  0
  151.5843  138.0999  154.4559 C   0  0  0  0  0  0  0  0  0  0  0  0
  150.7504  137.1458  155.0865 C   0  0  0  0  0  0  0  0  0  0  0  0
  149.9328  136.2126  154.3936 N   0  0  0  0  0  0  0  0  0  0  0  0
  149.3735  135.0823  154.8583 C   0  0  0  0  0  0  0  0  0  0  0  0
  149.4904  134.6500  156.0045 O   0  0  0  0  0  0  0  0  0  0  0  0
  148.6401  134.4839  153.9089 N   0  0  0  0  0  0  0  0  0  0  0  0
  147.8693  133.2508  154.0655 C   0  0  2  0  0  0  0  0  0  0  0  0
  148.7826  132.1397  154.6027 C   0  0  0  0  0  0  0  0  0  0  0  0
  147.1942  132.8541  152.7366 C   0  0  1  0  0  0  0  0  0  0  0  0
  146.3326  131.5897  152.7885 C   0  0  0  0  0  0  0  0  0  0  0  0
  145.4175  131.8038  151.6048 C   0  0  0  0  0  0  0  0  0  0  0  0
  145.1561  133.3057  151.6808 C   0  0  0  0  0  0  0  0  0  0  0  0
  146.3206  133.8804  152.2689 O   0  0  0  0  0  0  0  0  0  0  0  0
  150.7017  137.1470  156.4956 C   0  0  0  0  0  0  0  0  0  0  0  0
  151.4216  137.9868  157.2689 N   0  0  0  0  0  0  0  0  0  0  0  0
  153.3442  140.5622  159.2919 H   0  0  0  0  0  0  0  0  0  0  0  0
  152.7796  138.8954  159.3291 H   0  0  0  0  0  0  0  0  0  0  0  0
  151.6469  140.2198  158.9735 H   0  0  0  0  0  0  0  0  0  0  0  0
  152.9840  139.7161  154.8025 H   0  0  0  0  0  0  0  0  0  0  0  0
  151.6537  138.1838  153.3827 H   0  0  0  0  0  0  0  0  0  0  0  0
  149.6849  136.4730  153.4503 H   0  0  0  0  0  0  0  0  0  0  0  0
  148.5984  134.9219  153.0001 H   0  0  0  0  0  0  0  0  0  0  0  0
  147.0764  133.3958  154.8012 H   0  0  0  0  0  0  0  0  0  0  0  0
  148.2251  131.2160  154.7591 H   0  0  0  0  0  0  0  0  0  0  0  0
  149.2238  132.4228  155.5590 H   0  0  0  0  0  0  0  0  0  0  0  0
  149.5975  131.9235  153.9110 H   0  0  0  0  0  0  0  0  0  0  0  0
  147.9591  132.7107  151.9715 H   0  0  0  0  0  0  0  0  0  0  0  0
  146.9189  130.6732  152.7158 H   0  0  0  0  0  0  0  0  0  0  0  0
  145.7418  131.5435  153.7038 H   0  0  0  0  0  0  0  0  0  0  0  0
  145.9403  131.5590  150.6791 H   0  0  0  0  0  0  0  0  0  0  0  0
  144.5053  131.2085  151.6521 H   0  0  0  0  0  0  0  0  0  0  0  0
  144.9487  133.7404  150.7029 H   0  0  0  0  0  0  0  0  0  0  0  0
  144.3047  133.5115  152.3307 H   0  0  0  0  0  0  0  0  0  0  0  0
  150.0697  136.4471  157.0230 H   0  0  0  0  0  0  0  0  0  0  0  0
  1  2  1  0  0  0  0
  1 20  1  0  0  0  0
  1 21  1  0  0  0  0
  1 22  1  0  0  0  0
  2  3  1  0  0  0  0
  3 19  1  0  0  0  0
  3  4  2  0  0  0  0
  4  5  1  0  0  0  0
  4 23  1  0  0  0  0
  5  6  2  0  0  0  0
  5 24  1  0  0  0  0
  6  7  1  0  0  0  0
  6 18  1  0  0  0  0
  7  8  1  0  0  0  0
  7 25  1  0  0  0  0
  8  9  2  0  0  0  0
  8 10  1  0  0  0  0
 10 11  1  0  0  0  0
 10 26  1  0  0  0  0
 11 12  1  0  0  0  0
 11 13  1  0  0  0  0
 11 27  1  0  0  0  0
 12 28  1  0  0  0  0
 12 29  1  0  0  0  0
 12 30  1  0  0  0  0
 13 17  1  0  0  0  0
 13 14  1  0  0  0  0
 13 31  1  0  0  0  0
 14 15  1  0  0  0  0
 14 32  1  0  0  0  0
 14 33  1  0  0  0  0
 15 16  1  0  0  0  0
 15 34  1  0  0  0  0
 15 35  1  0  0  0  0
 16 17  1  0  0  0  0
 16 36  1  0  0  0  0
 16 37  1  0  0  0  0
 18 19  2  0  0  0  0
 18 38  1  0  0  0  0
M  END
> <s_m_source_file>
AV-unprocessed.smi

> <i_m_source_file_index>
1791

> <i_lp_mmshare_version>
43012

> <i_f3d_flags>
0

> <s_epik_input>
W0NIM11PYzFbY0hdW2NIXWMoW2NIXW4xKVtOSF1DKD1PKVtOSF1bQ0BIXShbQ0gzXSlbQ0BASF0yW0NIMl1bQ0gyXVtDSDJdTzI=

> <s_epik_cmdline>
J2VwaWtfcHl0aG9uJywgJy1waCcsICc3LjAnLCAnLXRuJywgJzgnLCAnLW1hJywgJzIwMCcsICctbWV0YWxfYmluZGluZycsICctaW1hZScsICc8aW5maWxlLm1hZT4nLCAnLW9tYWUnLCAnPG91dGZpbGUubWFlPic=

> <r_lp_tautomer_probability>
1

> <r_epik_Ionization_Penalty>
9.18737e-05

> <r_epik_Ionization_Penalty_Charging>
0

> <r_epik_Ionization_Penalty_Neutral>
9.18737e-05

> <r_epik_State_Penalty>
-0

> <r_epik_Charging_Adjusted_Penalty>
0

> <i_epik_Tot_Q>
0

> <i_epik_Tot_abs_Q>
0

> <r_epik_Metal_State_Penalty>
-0

> <b_epik_Metal_Only>
0

> <s_lp_Force_Field>
OPLS_2005

> <r_lp_Energy>
21.9226

> <b_lp_Chiralities_Consistent>
1

> <s_lp_Variant>
AV-unprocessed.smi:1791-3

> <Gold.Version>
5.8.1

> <Gold.Id.Protein>
6NUR|6NUR_protein|mol2

> <Gold.PLP.Fitness>
39.1885

> <Gold.PLP.PLP>
-30.6369

> <Gold.PLP.part.hbond>
-3.9328

> <Gold.PLP.part.metal>
0.0000

> <Gold.PLP.part.buried>
-1.9050

> <Gold.PLP.part.nonpolar>
-24.4806

> <Gold.PLP.part.repulsive>
0.2139

> <Gold.PLP.ligand.clash>
0.0000

> <Gold.PLP.ligand.torsion>
0.2466

> <Gold.PLP.Chemscore.Hbond>
3.0000

> <Gold.PLP.Chemscore.CHOScore>
0.0000

> <Gold.PLP.Chemscore.Metal>
0.0000

> <Gold.Chemscore.Hbonds>
donor molecule, donor type, donor heavy atom, donor atom, acceptor molecule, acceptor atom, score
      L1  H     7    25       P1  7948  1.00
      L1  H    10    26       P1  7948  1.00
      P1  H  7997  8009       L1     2  1.00

> <Gold.PLP.Chemscore.Internal.Correction>
0.0449

> <Gold.Rescore>
     Score         DG    S(hbond)    S(metal)    S(lipo)     H(rot)  DE(clash)    DE(int)     intcor
     14.23     -16.77       2.33        0.00      62.18       1.47       0.02       2.52       ----

> <Gold.Chemscore.Fitness>
14.2291

> <Gold.Chemscore.DG>
-16.7684

> <Gold.Chemscore.ZeroCoef>
-5.4800

> <Gold.Chemscore.Hbond>
2.3276

> <Gold.Chemscore.Metal>
0.0000

> <Gold.Chemscore.Lipo>
62.1837

> <Gold.Chemscore.Internal_Hbond>
0.0000

> <Gold.Chemscore.DEClash>
0.0186

> <Gold.Chemscore.DEInternal>
2.5206

> <Gold.Chemscore.Rot>
1.4693

> <Gold.Chemscore.Internal.Correction>
   9.000000E+99

> <Gold.Chemscore.Hbonds>
donor molecule, donor type, donor heavy atom, donor atom, acceptor molecule, acceptor atom, score
      L1  H     7    25       P1  7948  0.39
      L1  H    10    26       P1  7948  0.49
      P1  H  7997  8009       L1     2  0.53

> <Gold.Chemscore.Hbond.Weighted>
-7.7742

> <Gold.Chemscore.Metal.Weighted>
-0.0000

> <Gold.Chemscore.Lipo.Weighted>
-7.2755

> <Gold.Chemscore.Internal_Hbond.Weighted>
0.0000

> <Gold.Chemscore.DEClash.Weighted>
0.0186

> <Gold.Chemscore.DEInternal.Weighted>
2.5206

> <Gold.Chemscore.Rot.Weighted>
3.7613

> <Gold.Chemscore.Internal.Correction.Weighted>
   9.000000E+99

> <Gold.Protein.RotatedTorsions>
[ 6907 6896 6895 6894 ] final  -92.12 input  -60.11 | X-H torsion
[ 7974 7965 7964 7962 ] final -147.92 input  175.53 | X-H torsion
[ 8008 7997 7996 7995 ] final -173.57 input   59.86 | X-H torsion
[ 10167 10162 10161 10158 ] final   11.09 input  -65.29 | X-H torsion
[ 10718 10713 10712 10709 ] final  -42.66 input   66.30 | X-H torsion
[ 10763 10752 10751 10750 ] final   89.18 input  -60.55 | X-H torsion
[ 11005 11000 10999 10996 ] final  153.38 input  -57.11 | X-H torsion

> <Gold.Protein.ActiveResidues>
 VAL166  LYS551  ARG553  GLY616  TRP617  ASP618  TYR619  PRO620  LYS621  CYS622 
 ASP623  PHE694  ASN695  SER759  ASP760  ASP761  ALA762  ILE779  LEU786  VAL792 
 PHE793  MET794  SER795  GLU796  ALA797  LYS798  CYS799  TRP800  GLU811  SER814 

> <Gold.Protein.RotatedAtoms>
  150.6901  134.2171  159.4381 H   0  0  0  0  0  0  0  0  0  0  0  0  # atno 6907 bound_to 6896
  152.0129  134.9863  160.0578 H   0  0  0  0  0  0  0  0  0  0  0  0  # atno 6908 bound_to 6896
  152.1471  133.4464  159.4832 H   0  0  0  0  0  0  0  0  0  0  0  0  # atno 6909 bound_to 6896
  144.8062  140.5264  143.5673 H   0  0  0  0  0  0  0  0  0  0  0  0  # atno 7974 bound_to 7965
  155.9591  140.1141  157.0911 H   0  0  0  0  0  0  0  0  0  0  0  0  # atno 8008 bound_to 7997
  154.4127  140.1185  156.5221 H   0  0  0  0  0  0  0  0  0  0  0  0  # atno 8009 bound_to 7997
  155.6744  140.3473  155.4833 H   0  0  0  0  0  0  0  0  0  0  0  0  # atno 8010 bound_to 7997
  140.6153  143.8320  150.7112 H   0  0  0  0  0  0  0  0  0  0  0  0  # atno 10167 bound_to 10162
  156.2572  130.4193  149.8583 H   0  0  0  0  0  0  0  0  0  0  0  0  # atno 10718 bound_to 10713
  153.1845  135.4479  155.0070 H   0  0  0  0  0  0  0  0  0  0  0  0  # atno 10763 bound_to 10752
  154.8051  135.3271  154.7454 H   0  0  0  0  0  0  0  0  0  0  0  0  # atno 10764 bound_to 10752
  153.7914  135.6970  153.4926 H   0  0  0  0  0  0  0  0  0  0  0  0  # atno 10765 bound_to 10752
  140.1392  134.8750  157.2309 H   0  0  0  0  0  0  0  0  0  0  0  0  # atno 11005 bound_to 11000
  145.5432  139.1475  143.3435 LP  0  0  0  0  0  0  0  0  0  0  0  0  # atno 17320 bound_to 7965
  146.2354  140.5571  142.8957 LP  0  0  0  0  0  0  0  0  0  0  0  0  # atno 17321 bound_to 7965
  140.1898  143.4046  152.1871 LP  0  0  0  0  0  0  0  0  0  0  0  0  # atno 17342 bound_to 10162
  139.5394  144.7242  151.4784 LP  0  0  0  0  0  0  0  0  0  0  0  0  # atno 17343 bound_to 10162
  156.6111  130.8587  151.3454 LP  0  0  0  0  0  0  0  0  0  0  0  0  # atno 17370 bound_to 10713
  157.7237  130.9593  150.1544 LP  0  0  0  0  0  0  0  0  0  0  0  0  # atno 17371 bound_to 10713
  140.2743  134.3424  155.7363 LP  0  0  0  0  0  0  0  0  0  0  0  0  # atno 17394 bound_to 11000
  141.2183  133.7441  156.9269 LP  0  0  0  0  0  0  0  0  0  0  0  0  # atno 17395 bound_to 11000

$$$$
