AV-unprocessed.smi:72|AV-procd|sdf|714|dock8
  -GOLD-   2262017 43D 1   1.00000     0.00000
 Structure written by MMmdl.
 28 29  0  0  0  0  0  0  0  0  2 V2000
  154.4058  137.6806  155.9583 N   0  0  0  0  0  0  0  0  0  0  0  0
  153.1841  137.9701  155.8452 C   0  0  0  0  0  0  0  0  0  0  0  0
  152.7837  139.3281  155.5476 N   0  0  0  0  0  0  0  0  0  0  0  0
  151.5138  139.5759  155.4504 C   0  0  0  0  0  0  0  0  0  0  0  0
  150.5107  138.5361  155.6342 N   0  0  0  0  0  0  0  0  0  0  0  0
  149.0313  138.8486  155.5106 C   0  0  1  0  0  0  0  0  0  0  0  0
  148.7897  140.1197  156.0390 O   0  0  0  0  0  0  0  0  0  0  0  0
  147.8688  140.8185  155.2081 C   0  0  1  0  0  0  0  0  0  0  0  0
  147.9774  142.3399  155.4141 C   0  0  0  0  0  0  0  0  0  0  0  0
  147.7124  143.0159  154.2032 O   0  0  0  0  0  0  0  0  0  0  0  0
  148.2105  140.3151  153.7988 C   0  0  1  0  0  0  0  0  0  0  0  0
  149.3120  141.0258  153.2568 O   0  0  0  0  0  0  0  0  0  0  0  0
  148.5296  138.8451  154.0501 C   0  0  1  0  0  0  0  0  0  0  0  0
  149.4138  138.2929  153.0894 O   0  0  0  0  0  0  0  0  0  0  0  0
  150.9330  137.2074  155.9071 C   0  0  0  0  0  0  0  0  0  0  0  0
  150.0729  136.3347  156.0270 O   0  0  0  0  0  0  0  0  0  0  0  0
  152.2680  136.9551  156.0126 N   0  5  0  0  0  0  0  0  0  0  0  0
  148.5067  138.1259  156.1368 H   0  0  0  0  0  0  0  0  0  0  0  0
  146.8605  140.4777  155.4526 H   0  0  0  0  0  0  0  0  0  0  0  0
  147.3681  140.4303  153.1161 H   0  0  0  0  0  0  0  0  0  0  0  0
  147.6008  138.2735  154.0316 H   0  0  0  0  0  0  0  0  0  0  0  0
  154.5504  136.7028  156.1648 H   0  0  0  0  0  0  0  0  0  0  0  0
  151.1205  140.5675  155.2239 H   0  0  0  0  0  0  0  0  0  0  0  0
  147.3002  142.6842  156.1965 H   0  0  0  0  0  0  0  0  0  0  0  0
  148.9900  142.6060  155.7189 H   0  0  0  0  0  0  0  0  0  0  0  0
  146.8001  143.2617  154.1901 H   0  0  0  0  0  0  0  0  0  0  0  0
  149.7439  140.4676  152.6280 H   0  0  0  0  0  0  0  0  0  0  0  0
  148.9417  137.6438  152.5901 H   0  0  0  0  0  0  0  0  0  0  0  0
  1  2  2  0  0  0  0
  1 22  1  0  0  0  0
  2 17  1  0  0  0  0
  2  3  1  0  0  0  0
  3  4  2  0  0  0  0
  4  5  1  0  0  0  0
  4 23  1  0  0  0  0
  5  6  1  0  0  0  0
  5 15  1  0  0  0  0
  6 18  1  0  0  0  0
  6 13  1  0  0  0  0
  6  7  1  0  0  0  0
  7  8  1  0  0  0  0
  8 19  1  0  0  0  0
  8  9  1  0  0  0  0
  8 11  1  0  0  0  0
  9 10  1  0  0  0  0
  9 24  1  0  0  0  0
  9 25  1  0  0  0  0
 10 26  1  0  0  0  0
 11 20  1  0  0  0  0
 11 12  1  0  0  0  0
 11 13  1  0  0  0  0
 12 27  1  0  0  0  0
 13 21  1  0  0  0  0
 13 14  1  0  0  0  0
 14 28  1  0  0  0  0
 15 16  2  0  0  0  0
 15 17  1  0  0  0  0
M  CHG  1  17  -1
M  END
> <s_m_source_file>
AV-unprocessed.smi

> <i_m_source_file_index>
72

> <i_lp_mmshare_version>
43012

> <i_f3d_flags>
0

> <s_epik_input>
W05IMl1jMW5bY0hdbihjKD1PKW4xKVtDQEBIXTJPW0NASF0oW0NIMl1bT0hdKVtDQEBIXShbT0hdKVtDQEhdMltPSF0=

> <s_epik_cmdline>
J2VwaWtfcHl0aG9uJywgJy1waCcsICc3LjAnLCAnLXRuJywgJzgnLCAnLW1hJywgJzIwMCcsICctbWV0YWxfYmluZGluZycsICctaW1hZScsICc8aW5maWxlLm1hZT4nLCAnLW9tYWUnLCAnPG91dGZpbGUubWFlPic=

> <r_lp_tautomer_probability>
7.17554e-07

> <r_epik_Ionization_Penalty>
12.8705

> <r_epik_Ionization_Penalty_Charging>
5.64144

> <r_epik_Ionization_Penalty_Neutral>
7.22905

> <r_epik_State_Penalty>
3.30104

> <r_epik_Charging_Adjusted_Penalty>
8.94249

> <i_epik_Tot_Q>
-1

> <i_epik_Tot_abs_Q>
1

> <r_epik_Metal_State_Penalty>
0.529074

> <b_epik_Metal_Only>
1

> <s_epik_Chemistry_Notes>
This compound contains an acetal/aminal-like group ( X-CH(R)-Y where X, Y are N, S, or O) that may be acid/base labile, releasing an aldehyde.

> <s_lp_Force_Field>
OPLS_2005

> <r_lp_Energy>
43.693

> <b_lp_Chiralities_Consistent>
1

> <s_lp_Variant>
AV-unprocessed.smi:72-52

> <Gold.Version>
5.8.1

> <Gold.Id.Protein>
6NUR|6NUR_protein|mol2

> <Gold.PLP.Fitness>
34.6624

> <Gold.PLP.PLP>
-19.0111

> <Gold.PLP.part.hbond>
-10.7397

> <Gold.PLP.part.metal>
0.0000

> <Gold.PLP.part.buried>
3.8961

> <Gold.PLP.part.nonpolar>
-13.1987

> <Gold.PLP.part.repulsive>
0.0643

> <Gold.PLP.ligand.clash>
0.0000

> <Gold.PLP.ligand.torsion>
1.0847

> <Gold.PLP.Chemscore.Hbond>
5.9390

> <Gold.PLP.Chemscore.CHOScore>
0.0000

> <Gold.PLP.Chemscore.Metal>
0.0000

> <Gold.Chemscore.Hbonds>
donor molecule, donor type, donor heavy atom, donor atom, acceptor molecule, acceptor atom, score
      L1  H    12    27       P1  7957  0.79
      L1  H    14    28       P1  7948  0.94
      P1  H  7997  8008       L1     3  0.90
      P1  H  8011  8017       L1    12  0.45
      P1  H  8022  8030       L1    10  0.81
      P1  H 10752 10764       L1    17  1.95

> <Gold.PLP.Chemscore.Internal.Correction>
0.0037

> <Gold.Rescore>
     Score         DG    S(hbond)    S(metal)    S(lipo)     H(rot)  DE(clash)    DE(int)     intcor
      5.16      -7.79       3.04        0.00      21.48       4.04       1.60       1.03       ----

> <Gold.Chemscore.Fitness>
5.1639

> <Gold.Chemscore.DG>
-7.7929

> <Gold.Chemscore.ZeroCoef>
-5.4800

> <Gold.Chemscore.Hbond>
3.0369

> <Gold.Chemscore.Metal>
0.0000

> <Gold.Chemscore.Lipo>
21.4769

> <Gold.Chemscore.Internal_Hbond>
0.0000

> <Gold.Chemscore.DEClash>
1.6021

> <Gold.Chemscore.DEInternal>
1.0270

> <Gold.Chemscore.Rot>
4.0403

> <Gold.Chemscore.Internal.Correction>
   9.000000E+99

> <Gold.Chemscore.Hbonds>
donor molecule, donor type, donor heavy atom, donor atom, acceptor molecule, acceptor atom, score
      L1  H    12    27       P1  7957  0.73
      L1  H    14    28       P1  7948  0.87
      P1  H  7997  8008       L1     3  0.18
      P1  H  8011  8017       L1    12  0.02
      P1  H  8022  8030       L1    10  0.19
      P1  H 10752 10764       L1    17  0.27

> <Gold.Chemscore.Hbond.Weighted>
-10.1432

> <Gold.Chemscore.Metal.Weighted>
-0.0000

> <Gold.Chemscore.Lipo.Weighted>
-2.5128

> <Gold.Chemscore.Internal_Hbond.Weighted>
0.0000

> <Gold.Chemscore.DEClash.Weighted>
1.6021

> <Gold.Chemscore.DEInternal.Weighted>
1.0270

> <Gold.Chemscore.Rot.Weighted>
10.3431

> <Gold.Chemscore.Internal.Correction.Weighted>
   9.000000E+99

> <Gold.Protein.RotatedTorsions>
[ 6907 6896 6895 6894 ] final   52.69 input  -60.11 | X-H torsion
[ 7974 7965 7964 7962 ] final -142.76 input  175.53 | X-H torsion
[ 8008 7997 7996 7995 ] final  -14.08 input   59.86 | X-H torsion
[ 10167 10162 10161 10158 ] final  -58.37 input  -65.29 | X-H torsion
[ 10718 10713 10712 10709 ] final  -77.36 input   66.30 | X-H torsion
[ 10763 10752 10751 10750 ] final  -32.80 input  -60.55 | X-H torsion
[ 11005 11000 10999 10996 ] final -133.25 input  -57.11 | X-H torsion

> <Gold.Protein.ActiveResidues>
 VAL166  LYS551  ARG553  GLY616  TRP617  ASP618  TYR619  PRO620  LYS621  CYS622 
 ASP623  PHE694  ASN695  SER759  ASP760  ASP761  ALA762  ILE779  LEU786  VAL792 
 PHE793  MET794  SER795  GLU796  ALA797  LYS798  CYS799  TRP800  GLU811  SER814 

> <Gold.Protein.RotatedAtoms>
  152.3259  134.7321  160.0301 H   0  0  0  0  0  0  0  0  0  0  0  0  # atno 6907 bound_to 6896
  151.7754  133.3339  159.3464 H   0  0  0  0  0  0  0  0  0  0  0  0  # atno 6908 bound_to 6896
  150.7395  134.5912  159.6033 H   0  0  0  0  0  0  0  0  0  0  0  0  # atno 6909 bound_to 6896
  144.8419  140.5918  143.5447 H   0  0  0  0  0  0  0  0  0  0  0  0  # atno 7974 bound_to 7965
  154.5239  140.2232  155.8925 H   0  0  0  0  0  0  0  0  0  0  0  0  # atno 8008 bound_to 7997
  156.1692  140.3125  155.8908 H   0  0  0  0  0  0  0  0  0  0  0  0  # atno 8009 bound_to 7997
  155.3592  140.0460  157.3037 H   0  0  0  0  0  0  0  0  0  0  0  0  # atno 8010 bound_to 7997
  140.6201  143.2416  151.5500 H   0  0  0  0  0  0  0  0  0  0  0  0  # atno 10167 bound_to 10162
  156.0147  130.4489  150.3333 H   0  0  0  0  0  0  0  0  0  0  0  0  # atno 10718 bound_to 10713
  153.8197  135.6875  153.4829 H   0  0  0  0  0  0  0  0  0  0  0  0  # atno 10763 bound_to 10752
  153.1577  135.4592  154.9725 H   0  0  0  0  0  0  0  0  0  0  0  0  # atno 10764 bound_to 10752
  154.7932  135.3309  154.7671 H   0  0  0  0  0  0  0  0  0  0  0  0  # atno 10765 bound_to 10752
  140.9097  134.1583  157.4398 H   0  0  0  0  0  0  0  0  0  0  0  0  # atno 11005 bound_to 11000
  145.4676  139.1506  143.3832 LP  0  0  0  0  0  0  0  0  0  0  0  0  # atno 17320 bound_to 7965
  146.2710  140.4808  142.8814 LP  0  0  0  0  0  0  0  0  0  0  0  0  # atno 17321 bound_to 7965
  139.5432  144.2592  152.1391 LP  0  0  0  0  0  0  0  0  0  0  0  0  # atno 17342 bound_to 10162
  140.1810  144.4844  150.6528 LP  0  0  0  0  0  0  0  0  0  0  0  0  # atno 17343 bound_to 10162
  157.1430  131.0301  151.2919 LP  0  0  0  0  0  0  0  0  0  0  0  0  # atno 17370 bound_to 10713
  157.4456  130.7569  149.7106 LP  0  0  0  0  0  0  0  0  0  0  0  0  # atno 17371 bound_to 10713
  139.8755  134.9931  156.5627 LP  0  0  0  0  0  0  0  0  0  0  0  0  # atno 17394 bound_to 11000
  140.8125  133.8417  155.8823 LP  0  0  0  0  0  0  0  0  0  0  0  0  # atno 17395 bound_to 11000

$$$$
