AV-unprocessed.smi:2508|AV-procd|sdf|9865|dock3
  -GOLD-   2272013493D 1   1.00000     0.00000
 Structure written by MMmdl.
 46 47  0  0  0  0  0  0  0  0  1 V2000
  145.8878  131.1325  151.7089 C   0  0  0  0  0  0  0  0  0  0  0  0
  145.4126  132.4610  151.3129 N   0  0  0  0  0  0  0  0  0  0  0  0
  146.1509  133.5794  151.7474 C   0  0  0  0  0  0  0  0  0  0  0  0
  145.7935  134.8452  151.4364 C   0  0  0  0  0  0  0  0  0  0  0  0
  146.4770  136.0072  151.8259 N   0  0  0  0  0  0  0  0  0  0  0  0
  145.9914  137.1834  152.2773 C   0  0  0  0  0  0  0  0  0  0  0  0
  144.8015  137.4593  152.4119 O   0  0  0  0  0  0  0  0  0  0  0  0
  146.9438  138.0841  152.5752 N   0  0  0  0  0  0  0  0  0  0  0  0
  146.7594  139.4447  153.0837 C   0  0  0  0  0  0  0  0  0  0  0  0
  147.6291  139.7368  154.3397 C   0  0  0  0  0  0  0  0  0  0  0  0
  147.4723  141.2204  154.7452 C   0  0  0  0  0  0  0  0  0  0  0  0
  147.1434  138.8695  155.5239 C   0  0  0  0  0  0  0  0  0  0  0  0
  149.1449  139.4439  154.0970 C   0  0  0  0  0  0  0  0  0  0  0  0
  149.5837  137.9719  154.1196 C   0  0  0  0  0  0  0  0  0  0  0  0
  151.1133  138.0201  154.1937 C   0  0  0  0  0  0  0  0  0  0  0  0
  151.4723  139.3777  154.8163 C   0  0  0  0  0  0  0  0  0  0  0  0
  150.1464  140.1103  155.0533 C   0  0  0  0  0  0  0  0  0  0  0  0
  144.6072  135.0079  150.6229 C   0  0  0  0  0  0  0  0  0  0  0  0
  143.8956  133.9437  150.2033 C   0  0  0  0  0  0  0  0  0  0  0  0
  144.2884  132.5757  150.5482 C   0  0  0  0  0  0  0  0  0  0  0  0
  143.6476  131.5936  150.1729 O   0  0  0  0  0  0  0  0  0  0  0  0
  146.8011  131.1679  152.3037 H   0  0  0  0  0  0  0  0  0  0  0  0
  146.0984  130.5227  150.8291 H   0  0  0  0  0  0  0  0  0  0  0  0
  145.1322  130.6187  152.3051 H   0  0  0  0  0  0  0  0  0  0  0  0
  147.0143  133.3190  152.3374 H   0  0  0  0  0  0  0  0  0  0  0  0
  147.4822  135.9473  151.7526 H   0  0  0  0  0  0  0  0  0  0  0  0
  147.9000  137.7989  152.4205 H   0  0  0  0  0  0  0  0  0  0  0  0
  147.0019  140.1397  152.2800 H   0  0  0  0  0  0  0  0  0  0  0  0
  145.7020  139.5756  153.3123 H   0  0  0  0  0  0  0  0  0  0  0  0
  148.1155  141.4723  155.5892 H   0  0  0  0  0  0  0  0  0  0  0  0
  146.4502  141.4558  155.0431 H   0  0  0  0  0  0  0  0  0  0  0  0
  147.7297  141.8902  153.9245 H   0  0  0  0  0  0  0  0  0  0  0  0
  147.7740  139.0088  156.4026 H   0  0  0  0  0  0  0  0  0  0  0  0
  147.1558  137.8079  155.2758 H   0  0  0  0  0  0  0  0  0  0  0  0
  146.1242  139.1177  155.8208 H   0  0  0  0  0  0  0  0  0  0  0  0
  149.3866  139.8164  153.0994 H   0  0  0  0  0  0  0  0  0  0  0  0
  149.2088  137.4641  155.0073 H   0  0  0  0  0  0  0  0  0  0  0  0
  149.2365  137.4147  153.2489 H   0  0  0  0  0  0  0  0  0  0  0  0
  151.5116  137.1861  154.7723 H   0  0  0  0  0  0  0  0  0  0  0  0
  151.5380  137.9532  153.1914 H   0  0  0  0  0  0  0  0  0  0  0  0
  152.0320  139.2636  155.7452 H   0  0  0  0  0  0  0  0  0  0  0  0
  152.0988  139.9452  154.1270 H   0  0  0  0  0  0  0  0  0  0  0  0
  150.2407  141.1830  154.8826 H   0  0  0  0  0  0  0  0  0  0  0  0
  149.8515  139.9683  156.0919 H   0  0  0  0  0  0  0  0  0  0  0  0
  144.2816  135.9999  150.3448 H   0  0  0  0  0  0  0  0  0  0  0  0
  143.0149  134.1009  149.5982 H   0  0  0  0  0  0  0  0  0  0  0  0
  1  2  1  0  0  0  0
  1 22  1  0  0  0  0
  1 23  1  0  0  0  0
  1 24  1  0  0  0  0
  2 20  1  0  0  0  0
  2  3  1  0  0  0  0
  3  4  2  0  0  0  0
  3 25  1  0  0  0  0
  4  5  1  0  0  0  0
  4 18  1  0  0  0  0
  5  6  1  0  0  0  0
  5 26  1  0  0  0  0
  6  7  2  0  0  0  0
  6  8  1  0  0  0  0
  8  9  1  0  0  0  0
  8 27  1  0  0  0  0
  9 10  1  0  0  0  0
  9 28  1  0  0  0  0
  9 29  1  0  0  0  0
 10 11  1  0  0  0  0
 10 12  1  0  0  0  0
 10 13  1  0  0  0  0
 11 30  1  0  0  0  0
 11 31  1  0  0  0  0
 11 32  1  0  0  0  0
 12 33  1  0  0  0  0
 12 34  1  0  0  0  0
 12 35  1  0  0  0  0
 13 17  1  0  0  0  0
 13 14  1  0  0  0  0
 13 36  1  0  0  0  0
 14 15  1  0  0  0  0
 14 37  1  0  0  0  0
 14 38  1  0  0  0  0
 15 16  1  0  0  0  0
 15 39  1  0  0  0  0
 15 40  1  0  0  0  0
 16 17  1  0  0  0  0
 16 41  1  0  0  0  0
 16 42  1  0  0  0  0
 17 43  1  0  0  0  0
 17 44  1  0  0  0  0
 18 19  2  0  0  0  0
 18 45  1  0  0  0  0
 19 20  1  0  0  0  0
 19 46  1  0  0  0  0
 20 21  2  0  0  0  0
M  END
> <s_m_source_file>
AV-unprocessed.smi

> <i_m_source_file_index>
2508

> <i_lp_mmshare_version>
43012

> <i_f3d_flags>
0

> <s_epik_input>
Tz1jMVtjSF1bY0hdYyhbY0hdbjFbQ0gzXSlbTkhdQyg9TylbTkhdW0NIMl1DKFtDSDNdKShbQ0gzXSlbQ0hdMltDSDJdW0NIMl1bQ0gyXVtDSDJdMg==

> <s_epik_cmdline>
J2VwaWtfcHl0aG9uJywgJy1waCcsICc3LjAnLCAnLXRuJywgJzgnLCAnLW1hJywgJzIwMCcsICctbWV0YWxfYmluZGluZycsICctaW1hZScsICc8aW5maWxlLm1hZT4nLCAnLW9tYWUnLCAnPG91dGZpbGUubWFlPic=

> <r_lp_tautomer_probability>
1

> <r_epik_Ionization_Penalty>
2.69566e-05

> <r_epik_Ionization_Penalty_Charging>
5.95678e-06

> <r_epik_Ionization_Penalty_Neutral>
2.09998e-05

> <r_epik_State_Penalty>
-0

> <r_epik_Charging_Adjusted_Penalty>
5.95678e-06

> <i_epik_Tot_Q>
0

> <i_epik_Tot_abs_Q>
0

> <r_epik_Metal_State_Penalty>
-0

> <b_epik_Metal_Only>
0

> <s_lp_Force_Field>
OPLS_2005

> <r_lp_Energy>
55.0143

> <b_lp_Chiralities_Consistent>
1

> <s_lp_Variant>
AV-unprocessed.smi:2508-1

> <Gold.Version>
5.8.1

> <Gold.Id.Protein>
6NUR|6NUR_protein|mol2

> <Gold.PLP.Fitness>
40.3499

> <Gold.PLP.PLP>
-34.3761

> <Gold.PLP.part.hbond>
-2.7469

> <Gold.PLP.part.metal>
0.0000

> <Gold.PLP.part.buried>
-1.3665

> <Gold.PLP.part.nonpolar>
-33.6988

> <Gold.PLP.part.repulsive>
2.1096

> <Gold.PLP.ligand.clash>
0.0000

> <Gold.PLP.ligand.torsion>
0.9033

> <Gold.PLP.Chemscore.Hbond>
2.5890

> <Gold.PLP.Chemscore.CHOScore>
0.0000

> <Gold.PLP.Chemscore.Metal>
0.0000

> <Gold.Chemscore.Hbonds>
donor molecule, donor type, donor heavy atom, donor atom, acceptor molecule, acceptor atom, score
      L1  H     5    26       P1  7948  0.84
      L1  H     8    27       P1  7948  0.83
      P1  H 10785 10796       L1    21  0.77

> <Gold.PLP.Chemscore.Internal.Correction>
0.0133

> <Gold.Rescore>
     Score         DG    S(hbond)    S(metal)    S(lipo)     H(rot)  DE(clash)    DE(int)     intcor
     18.35     -20.04       2.56        0.00      81.51       1.37       0.59       1.10       ----

> <Gold.Chemscore.Fitness>
18.3484

> <Gold.Chemscore.DG>
-20.0398

> <Gold.Chemscore.ZeroCoef>
-5.4800

> <Gold.Chemscore.Hbond>
2.5572

> <Gold.Chemscore.Metal>
0.0000

> <Gold.Chemscore.Lipo>
81.5105

> <Gold.Chemscore.Internal_Hbond>
0.0000

> <Gold.Chemscore.DEClash>
0.5874

> <Gold.Chemscore.DEInternal>
1.1040

> <Gold.Chemscore.Rot>
1.3742

> <Gold.Chemscore.Internal.Correction>
   9.000000E+99

> <Gold.Chemscore.Hbonds>
donor molecule, donor type, donor heavy atom, donor atom, acceptor molecule, acceptor atom, score
      L1  H     5    26       P1  7948  0.82
      L1  H     8    27       P1  7948  0.81
      P1  H 10785 10796       L1    21  0.74

> <Gold.Chemscore.Hbond.Weighted>
-8.5410

> <Gold.Chemscore.Metal.Weighted>
-0.0000

> <Gold.Chemscore.Lipo.Weighted>
-9.5367

> <Gold.Chemscore.Internal_Hbond.Weighted>
0.0000

> <Gold.Chemscore.DEClash.Weighted>
0.5874

> <Gold.Chemscore.DEInternal.Weighted>
1.1040

> <Gold.Chemscore.Rot.Weighted>
3.5179

> <Gold.Chemscore.Internal.Correction.Weighted>
   9.000000E+99

> <Gold.Protein.RotatedTorsions>
[ 6907 6896 6895 6894 ] final  -50.65 input  -60.11 | X-H torsion
[ 7974 7965 7964 7962 ] final -160.75 input  175.53 | X-H torsion
[ 8008 7997 7996 7995 ] final  -84.76 input   59.86 | X-H torsion
[ 10167 10162 10161 10158 ] final -129.15 input  -65.29 | X-H torsion
[ 10718 10713 10712 10709 ] final -135.73 input   66.30 | X-H torsion
[ 10763 10752 10751 10750 ] final   46.73 input  -60.55 | X-H torsion
[ 11005 11000 10999 10996 ] final   94.76 input  -57.11 | X-H torsion

> <Gold.Protein.ActiveResidues>
 VAL166  LYS551  ARG553  GLY616  TRP617  ASP618  TYR619  PRO620  LYS621  CYS622 
 ASP623  PHE694  ASN695  SER759  ASP760  ASP761  ALA762  ILE779  LEU786  VAL792 
 PHE793  MET794  SER795  GLU796  ALA797  LYS798  CYS799  TRP800  GLU811  SER814 

> <Gold.Protein.RotatedAtoms>
  150.8686  134.8055  159.7137 H   0  0  0  0  0  0  0  0  0  0  0  0  # atno 6907 bound_to 6896
  152.4699  134.4983  159.9726 H   0  0  0  0  0  0  0  0  0  0  0  0  # atno 6908 bound_to 6896
  151.5075  133.3453  159.2915 H   0  0  0  0  0  0  0  0  0  0  0  0  # atno 6909 bound_to 6896
  144.7415  140.3496  143.6118 H   0  0  0  0  0  0  0  0  0  0  0  0  # atno 7974 bound_to 7965
  154.6333  140.0600  156.9758 H   0  0  0  0  0  0  0  0  0  0  0  0  # atno 8008 bound_to 7997
  155.1631  140.3284  155.4389 H   0  0  0  0  0  0  0  0  0  0  0  0  # atno 8009 bound_to 7997
  156.2494  140.1927  156.6737 H   0  0  0  0  0  0  0  0  0  0  0  0  # atno 8010 bound_to 7997
  139.9428  143.6144  152.2499 H   0  0  0  0  0  0  0  0  0  0  0  0  # atno 10167 bound_to 10162
  156.2694  130.7256  151.1218 H   0  0  0  0  0  0  0  0  0  0  0  0  # atno 10718 bound_to 10713
  152.9807  135.5999  154.3647 H   0  0  0  0  0  0  0  0  0  0  0  0  # atno 10763 bound_to 10752
  154.3326  135.2768  155.2466 H   0  0  0  0  0  0  0  0  0  0  0  0  # atno 10764 bound_to 10752
  154.4583  135.5972  153.6294 H   0  0  0  0  0  0  0  0  0  0  0  0  # atno 10765 bound_to 10752
  139.8795  134.8863  156.3912 H   0  0  0  0  0  0  0  0  0  0  0  0  # atno 11005 bound_to 11000
  145.7290  139.1731  143.2441 LP  0  0  0  0  0  0  0  0  0  0  0  0  # atno 17320 bound_to 7965
  146.1220  140.7296  142.9453 LP  0  0  0  0  0  0  0  0  0  0  0  0  # atno 17321 bound_to 7965
  139.6691  144.7661  151.1817 LP  0  0  0  0  0  0  0  0  0  0  0  0  # atno 17342 bound_to 10162
  140.7606  143.5892  150.8814 LP  0  0  0  0  0  0  0  0  0  0  0  0  # atno 17343 bound_to 10162
  157.7278  131.0636  150.5847 LP  0  0  0  0  0  0  0  0  0  0  0  0  # atno 17370 bound_to 10713
  156.5942  130.4337  149.5924 LP  0  0  0  0  0  0  0  0  0  0  0  0  # atno 17371 bound_to 10713
  140.9332  133.7565  156.0051 LP  0  0  0  0  0  0  0  0  0  0  0  0  # atno 17394 bound_to 11000
  140.8306  134.3182  157.5350 LP  0  0  0  0  0  0  0  0  0  0  0  0  # atno 17395 bound_to 11000

$$$$
