AV-unprocessed.smi:3186|AV-procd|sdf|12174|dock6
  -GOLD-   2272018 13D 1   1.00000     0.00000
 Structure written by MMmdl.
 37 38  0  0  0  0  0  0  0  0  2 V2000
  150.9444  145.3532  159.8597 C   0  0  0  0  0  0  0  0  0  0  0  0
  151.8015  144.1359  160.1589 C   0  0  0  0  0  0  0  0  0  0  0  0
  152.2920  143.9313  161.4674 C   0  0  0  0  0  0  0  0  0  0  0  0
  153.0606  142.8802  161.8212 N   0  0  0  0  0  0  0  0  0  0  0  0
  153.3761  141.9801  160.8677 C   0  0  0  0  0  0  0  0  0  0  0  0
  152.9418  142.0856  159.5321 C   0  0  0  0  0  0  0  0  0  0  0  0
  152.1381  143.1849  159.1635 C   0  0  0  0  0  0  0  0  0  0  0  0
  151.6570  143.3074  157.7264 C   0  0  0  0  0  0  0  0  0  0  0  0
  150.8324  142.0897  157.2863 C   0  0  0  0  0  0  0  0  0  0  0  0
  150.1719  142.3389  155.9878 N   0  3  0  0  0  0  0  0  0  0  0  0
  149.2632  141.2658  155.5256 C   0  0  1  0  0  0  0  0  0  0  0  0
  148.3514  141.7668  154.3828 C   0  0  0  0  0  0  0  0  0  0  0  0
  147.3521  140.7007  153.9043 C   0  0  0  0  0  0  0  0  0  0  0  0
  148.0457  139.4462  153.3566 C   0  0  0  0  0  0  0  0  0  0  0  0
  149.0438  138.6420  154.6379 S   0  0  0  0  0  0  0  0  0  0  0  0
  150.0969  140.0503  155.0808 C   0  0  0  0  0  0  0  0  0  0  0  0
  150.7050  145.9003  160.7723 H   0  0  0  0  0  0  0  0  0  0  0  0
  150.0043  145.0628  159.3913 H   0  0  0  0  0  0  0  0  0  0  0  0
  151.4716  146.0331  159.1902 H   0  0  0  0  0  0  0  0  0  0  0  0
  152.0618  144.6316  162.2570 H   0  0  0  0  0  0  0  0  0  0  0  0
  153.9922  141.1490  161.1779 H   0  0  0  0  0  0  0  0  0  0  0  0
  153.2228  141.3342  158.8087 H   0  0  0  0  0  0  0  0  0  0  0  0
  151.0778  144.2231  157.6054 H   0  0  0  0  0  0  0  0  0  0  0  0
  152.5253  143.4184  157.0752 H   0  0  0  0  0  0  0  0  0  0  0  0
  151.4791  141.2158  157.1967 H   0  0  0  0  0  0  0  0  0  0  0  0
  150.0858  141.8576  158.0447 H   0  0  0  0  0  0  0  0  0  0  0  0
  149.6540  143.2047  156.0351 H   0  0  0  0  0  0  0  0  0  0  0  0
  148.6462  140.9582  156.3716 H   0  0  0  0  0  0  0  0  0  0  0  0
  147.7852  142.6395  154.7067 H   0  0  0  0  0  0  0  0  0  0  0  0
  148.9612  142.0974  153.5408 H   0  0  0  0  0  0  0  0  0  0  0  0
  146.6847  140.4255  154.7220 H   0  0  0  0  0  0  0  0  0  0  0  0
  146.7186  141.1272  153.1258 H   0  0  0  0  0  0  0  0  0  0  0  0
  147.3055  138.7338  152.9914 H   0  0  0  0  0  0  0  0  0  0  0  0
  148.6871  139.7026  152.5127 H   0  0  0  0  0  0  0  0  0  0  0  0
  150.7243  140.3042  154.2253 H   0  0  0  0  0  0  0  0  0  0  0  0
  150.7645  139.7329  155.8825 H   0  0  0  0  0  0  0  0  0  0  0  0
  150.9023  142.4409  155.2974 H   0  0  0  0  0  0  0  0  0  0  0  0
  1  2  1  0  0  0  0
  1 17  1  0  0  0  0
  1 18  1  0  0  0  0
  1 19  1  0  0  0  0
  2  7  1  0  0  0  0
  2  3  2  0  0  0  0
  3  4  1  0  0  0  0
  3 20  1  0  0  0  0
  4  5  2  0  0  0  0
  5  6  1  0  0  0  0
  5 21  1  0  0  0  0
  6  7  2  0  0  0  0
  6 22  1  0  0  0  0
  7  8  1  0  0  0  0
  8  9  1  0  0  0  0
  8 23  1  0  0  0  0
  8 24  1  0  0  0  0
  9 10  1  0  0  0  0
  9 25  1  0  0  0  0
  9 26  1  0  0  0  0
 10 11  1  0  0  0  0
 10 27  1  0  0  0  0
 10 37  1  0  0  0  0
 11 16  1  0  0  0  0
 11 12  1  0  0  0  0
 11 28  1  0  0  0  0
 12 13  1  0  0  0  0
 12 29  1  0  0  0  0
 12 30  1  0  0  0  0
 13 14  1  0  0  0  0
 13 31  1  0  0  0  0
 13 32  1  0  0  0  0
 14 15  1  0  0  0  0
 14 33  1  0  0  0  0
 14 34  1  0  0  0  0
 15 16  1  0  0  0  0
 16 35  1  0  0  0  0
 16 36  1  0  0  0  0
M  CHG  1  10   1
M  END
> <s_m_source_file>
AV-unprocessed.smi

> <i_m_source_file_index>
3186

> <i_lp_mmshare_version>
43012

> <i_f3d_flags>
0

> <s_epik_input>
W0NIM11jMVtjSF1uW2NIXVtjSF1jMVtDSDJdW0NIMl1bTkhdW0NAQEhdMltDSDJdW0NIMl1bQ0gyXVNbQ0gyXTI=

> <s_epik_cmdline>
J2VwaWtfcHl0aG9uJywgJy1waCcsICc3LjAnLCAnLXRuJywgJzgnLCAnLW1hJywgJzIwMCcsICctbWV0YWxfYmluZGluZycsICctaW1hZScsICc8aW5maWxlLm1hZT4nLCAnLW9tYWUnLCAnPG91dGZpbGUubWFlPic=

> <r_epik_Ionization_Penalty>
0.00563987

> <r_epik_Ionization_Penalty_Charging>
0.00306352

> <r_epik_Ionization_Penalty_Neutral>
0.00257635

> <r_epik_State_Penalty>
0.00506628

> <r_epik_Charging_Adjusted_Penalty>
0.0081298

> <i_epik_Tot_Q>
1

> <i_epik_Tot_abs_Q>
1

> <r_epik_Metal_State_Penalty>
-0

> <b_epik_Metal_Only>
0

> <s_lp_Force_Field>
OPLS_2005

> <r_lp_Energy>
10.8164

> <b_lp_Chiralities_Consistent>
1

> <s_lp_Variant>
AV-unprocessed.smi:3186-2

> <Gold.Version>
5.8.1

> <Gold.Id.Protein>
6NUR|6NUR_protein|mol2

> <Gold.PLP.Fitness>
46.4369

> <Gold.PLP.PLP>
-40.6830

> <Gold.PLP.part.hbond>
-1.0000

> <Gold.PLP.part.metal>
0.0000

> <Gold.PLP.part.buried>
-0.6248

> <Gold.PLP.part.nonpolar>
-39.3911

> <Gold.PLP.part.repulsive>
0.2081

> <Gold.PLP.ligand.clash>
0.0000

> <Gold.PLP.ligand.torsion>
0.1279

> <Gold.PLP.Chemscore.Hbond>
2.0000

> <Gold.PLP.Chemscore.CHOScore>
0.0000

> <Gold.PLP.Chemscore.Metal>
0.0000

> <Gold.Chemscore.Hbonds>
donor molecule, donor type, donor heavy atom, donor atom, acceptor molecule, acceptor atom, score
      L1  H    10    27       P1  8028  2.00

> <Gold.PLP.Chemscore.Internal.Correction>
0.0098

> <Gold.Rescore>
     Score         DG    S(hbond)    S(metal)    S(lipo)     H(rot)  DE(clash)    DE(int)     intcor
     19.39     -19.67       1.00        0.00     121.35       1.30       0.16       0.12       ----

> <Gold.Chemscore.Fitness>
19.3911

> <Gold.Chemscore.DG>
-19.6707

> <Gold.Chemscore.ZeroCoef>
-5.4800

> <Gold.Chemscore.Hbond>
0.9965

> <Gold.Chemscore.Metal>
0.0000

> <Gold.Chemscore.Lipo>
121.3529

> <Gold.Chemscore.Internal_Hbond>
0.0000

> <Gold.Chemscore.DEClash>
0.1625

> <Gold.Chemscore.DEInternal>
0.1171

> <Gold.Chemscore.Rot>
1.3031

> <Gold.Chemscore.Internal.Correction>
   9.000000E+99

> <Gold.Chemscore.Hbonds>
donor molecule, donor type, donor heavy atom, donor atom, acceptor molecule, acceptor atom, score
      L1  H    10    27       P1  8028  1.00

> <Gold.Chemscore.Hbond.Weighted>
-3.3284

> <Gold.Chemscore.Metal.Weighted>
-0.0000

> <Gold.Chemscore.Lipo.Weighted>
-14.1983

> <Gold.Chemscore.Internal_Hbond.Weighted>
0.0000

> <Gold.Chemscore.DEClash.Weighted>
0.1625

> <Gold.Chemscore.DEInternal.Weighted>
0.1171

> <Gold.Chemscore.Rot.Weighted>
3.3361

> <Gold.Chemscore.Internal.Correction.Weighted>
   9.000000E+99

> <Gold.Protein.RotatedTorsions>
[ 6907 6896 6895 6894 ] final -139.28 input  -60.11 | X-H torsion
[ 7974 7965 7964 7962 ] final   65.77 input  175.53 | X-H torsion
[ 8008 7997 7996 7995 ] final   43.80 input   59.86 | X-H torsion
[ 10167 10162 10161 10158 ] final  105.83 input  -65.29 | X-H torsion
[ 10718 10713 10712 10709 ] final  173.37 input   66.30 | X-H torsion
[ 10763 10752 10751 10750 ] final  154.72 input  -60.55 | X-H torsion
[ 11005 11000 10999 10996 ] final   41.63 input  -57.11 | X-H torsion

> <Gold.Protein.ActiveResidues>
 VAL166  LYS551  ARG553  GLY616  TRP617  ASP618  TYR619  PRO620  LYS621  CYS622 
 ASP623  PHE694  ASN695  SER759  ASP760  ASP761  ALA762  ILE779  LEU786  VAL792 
 PHE793  MET794  SER795  GLU796  ALA797  LYS798  CYS799  TRP800  GLU811  SER814 

> <Gold.Protein.RotatedAtoms>
  151.0458  133.5666  159.2646 H   0  0  0  0  0  0  0  0  0  0  0  0  # atno 6907 bound_to 6896
  151.2696  135.0679  159.9139 H   0  0  0  0  0  0  0  0  0  0  0  0  # atno 6908 bound_to 6896
  152.5373  134.0190  159.8027 H   0  0  0  0  0  0  0  0  0  0  0  0  # atno 6909 bound_to 6896
  145.8345  139.3159  143.0967 H   0  0  0  0  0  0  0  0  0  0  0  0  # atno 7974 bound_to 7965
  155.3087  140.3389  155.4245 H   0  0  0  0  0  0  0  0  0  0  0  0  # atno 8008 bound_to 7997
  156.1966  140.1717  156.8023 H   0  0  0  0  0  0  0  0  0  0  0  0  # atno 8009 bound_to 7997
  154.5507  140.0706  156.8646 H   0  0  0  0  0  0  0  0  0  0  0  0  # atno 8010 bound_to 7997
  139.7060  144.7086  151.1106 H   0  0  0  0  0  0  0  0  0  0  0  0  # atno 10167 bound_to 10162
  156.9653  131.0073  151.2918 H   0  0  0  0  0  0  0  0  0  0  0  0  # atno 10718 bound_to 10713
  154.1568  135.2812  155.3120 H   0  0  0  0  0  0  0  0  0  0  0  0  # atno 10763 bound_to 10752
  154.6176  135.5478  153.7544 H   0  0  0  0  0  0  0  0  0  0  0  0  # atno 10764 bound_to 10752
  153.0204  135.6431  154.1711 H   0  0  0  0  0  0  0  0  0  0  0  0  # atno 10765 bound_to 10752
  140.1816  134.4096  155.8197 H   0  0  0  0  0  0  0  0  0  0  0  0  # atno 11005 bound_to 11000
  145.9534  140.8891  143.0248 LP  0  0  0  0  0  0  0  0  0  0  0  0  # atno 17320 bound_to 7965
  144.6737  140.1711  143.7414 LP  0  0  0  0  0  0  0  0  0  0  0  0  # atno 17321 bound_to 7965
  140.7722  143.5358  150.9370 LP  0  0  0  0  0  0  0  0  0  0  0  0  # atno 17342 bound_to 10162
  139.9041  143.6800  152.3126 LP  0  0  0  0  0  0  0  0  0  0  0  0  # atno 17343 bound_to 10162
  157.5630  130.8258  149.8290 LP  0  0  0  0  0  0  0  0  0  0  0  0  # atno 17370 bound_to 10713
  156.0305  130.3766  150.1701 LP  0  0  0  0  0  0  0  0  0  0  0  0  # atno 17371 bound_to 10713
  141.2223  133.7003  156.7941 LP  0  0  0  0  0  0  0  0  0  0  0  0  # atno 17394 bound_to 11000
  140.2261  134.8721  157.3428 LP  0  0  0  0  0  0  0  0  0  0  0  0  # atno 17395 bound_to 11000

$$$$
