AV-unprocessed.smi:227|AV-procd|sdf|1739|dock3
  -GOLD-   2262020243D 1   1.00000     0.00000
 Structure written by MMmdl.
 54 58  0  0  0  0  0  0  0  0  1 V2000
  148.8898  142.2528  153.8966 O   0  0  0  0  0  0  0  0  0  0  0  0
  149.4390  141.1334  154.5614 C   0  0  0  0  0  0  0  0  0  0  0  0
  148.9141  139.8016  153.9662 C   0  0  2  0  0  0  0  0  0  0  0  0
  147.3599  139.7280  154.0372 C   0  0  0  0  0  0  0  0  0  0  0  0
  146.7811  138.6119  153.3030 N   0  0  0  0  0  0  0  0  0  0  0  0
  146.4936  138.5739  151.9578 C   0  0  0  0  0  0  0  0  0  0  0  0
  145.9656  137.4596  151.5329 N   0  0  0  0  0  0  0  0  0  0  0  0
  145.8953  136.6578  152.6662 C   0  0  0  0  0  0  0  0  0  0  0  0
  145.4230  135.3383  152.9272 C   0  0  0  0  0  0  0  0  0  0  0  0
  144.8610  134.5365  151.9828 N   0  0  0  0  0  0  0  0  0  0  0  0
  145.5266  134.2821  150.7144 C   0  0  2  0  0  0  0  0  0  0  0  0
  144.4363  133.5433  149.9193 C   0  0  0  0  0  0  0  0  0  0  0  0
  143.7443  132.7397  151.0331 C   0  0  0  0  0  0  0  0  0  0  0  0
  144.5874  133.1334  152.2599 C   0  0  1  0  0  0  0  0  0  0  0  0
  145.9616  132.4240  152.1564 C   0  0  2  0  0  0  0  0  0  0  0  0
  146.7324  132.3420  153.4889 C   0  0  0  0  0  0  0  0  0  0  0  0
  148.0263  131.8217  153.2710 O   0  0  0  0  0  0  0  0  0  0  0  0
  146.6492  133.2882  151.0795 C   0  0  0  0  0  0  0  0  0  0  0  0
  145.5618  134.8679  154.1952 N   0  0  0  0  0  0  0  0  0  0  0  0
  146.0913  135.6368  155.1499 C   0  0  0  0  0  0  0  0  0  0  0  0
  146.5456  136.8864  155.0556 N   0  0  0  0  0  0  0  0  0  0  0  0
  146.4277  137.3625  153.7838 C   0  0  0  0  0  0  0  0  0  0  0  0
  149.6047  138.5629  154.6205 C   0  0  1  0  0  0  0  0  0  0  0  0
  151.1139  138.5057  154.4006 C   0  0  0  0  0  0  0  0  0  0  0  0
  151.6821  139.3656  155.5300 C   0  0  0  0  0  0  0  0  0  0  0  0
  150.6750  139.4065  156.5346 O   0  0  0  0  0  0  0  0  0  0  0  0
  149.6077  138.5498  156.1563 C   0  0  0  0  0  0  0  0  0  0  0  0
  149.0082  143.0149  154.4432 H   0  0  0  0  0  0  0  0  0  0  0  0
  150.5170  141.2227  154.4490 H   0  0  0  0  0  0  0  0  0  0  0  0
  149.2264  141.2024  155.6281 H   0  0  0  0  0  0  0  0  0  0  0  0
  149.1799  139.8049  152.9082 H   0  0  0  0  0  0  0  0  0  0  0  0
  147.0311  139.6516  155.0737 H   0  0  0  0  0  0  0  0  0  0  0  0
  146.9045  140.6488  153.6768 H   0  0  0  0  0  0  0  0  0  0  0  0
  146.6805  139.4088  151.2982 H   0  0  0  0  0  0  0  0  0  0  0  0
  145.8866  135.1727  150.1981 H   0  0  0  0  0  0  0  0  0  0  0  0
  143.7379  134.2473  149.4651 H   0  0  0  0  0  0  0  0  0  0  0  0
  144.8461  132.9120  149.1302 H   0  0  0  0  0  0  0  0  0  0  0  0
  142.7108  133.0672  151.1535 H   0  0  0  0  0  0  0  0  0  0  0  0
  143.7372  131.6657  150.8435 H   0  0  0  0  0  0  0  0  0  0  0  0
  144.0626  132.9259  153.1908 H   0  0  0  0  0  0  0  0  0  0  0  0
  145.8174  131.4061  151.7908 H   0  0  0  0  0  0  0  0  0  0  0  0
  146.8240  133.3166  153.9673 H   0  0  0  0  0  0  0  0  0  0  0  0
  146.2105  131.6882  154.1879 H   0  0  0  0  0  0  0  0  0  0  0  0
  148.0761  131.5007  152.3835 H   0  0  0  0  0  0  0  0  0  0  0  0
  146.9877  132.7037  150.2235 H   0  0  0  0  0  0  0  0  0  0  0  0
  147.5150  133.8144  151.4839 H   0  0  0  0  0  0  0  0  0  0  0  0
  146.1565  135.1876  156.1299 H   0  0  0  0  0  0  0  0  0  0  0  0
  149.1279  137.6543  154.2513 H   0  0  0  0  0  0  0  0  0  0  0  0
  151.4537  137.4764  154.5264 H   0  0  0  0  0  0  0  0  0  0  0  0
  151.4568  138.8308  153.4209 H   0  0  0  0  0  0  0  0  0  0  0  0
  152.6132  138.9555  155.9218 H   0  0  0  0  0  0  0  0  0  0  0  0
  151.8760  140.3826  155.1878 H   0  0  0  0  0  0  0  0  0  0  0  0
  148.6729  138.8376  156.6315 H   0  0  0  0  0  0  0  0  0  0  0  0
  149.8394  137.5450  156.5136 H   0  0  0  0  0  0  0  0  0  0  0  0
  1  2  1  0  0  0  0
  1 28  1  0  0  0  0
  2  3  1  0  0  0  0
  2 29  1  0  0  0  0
  2 30  1  0  0  0  0
  3  4  1  0  0  0  0
  3 23  1  0  0  0  0
  3 31  1  0  0  0  0
  4  5  1  0  0  0  0
  4 32  1  0  0  0  0
  4 33  1  0  0  0  0
  5 22  1  0  0  0  0
  5  6  1  0  0  0  0
  6  7  2  0  0  0  0
  6 34  1  0  0  0  0
  7  8  1  0  0  0  0
  8 22  2  0  0  0  0
  8  9  1  0  0  0  0
  9 10  1  0  0  0  0
  9 19  2  0  0  0  0
 10 14  1  0  0  0  0
 10 11  1  0  0  0  0
 11 18  1  0  0  0  0
 11 12  1  0  0  0  0
 11 35  1  0  0  0  0
 12 13  1  0  0  0  0
 12 36  1  0  0  0  0
 12 37  1  0  0  0  0
 13 14  1  0  0  0  0
 13 38  1  0  0  0  0
 13 39  1  0  0  0  0
 14 15  1  0  0  0  0
 14 40  1  0  0  0  0
 15 16  1  0  0  0  0
 15 18  1  0  0  0  0
 15 41  1  0  0  0  0
 16 17  1  0  0  0  0
 16 42  1  0  0  0  0
 16 43  1  0  0  0  0
 17 44  1  0  0  0  0
 18 45  1  0  0  0  0
 18 46  1  0  0  0  0
 19 20  1  0  0  0  0
 20 21  2  0  0  0  0
 20 47  1  0  0  0  0
 21 22  1  0  0  0  0
 23 27  1  0  0  0  0
 23 24  1  0  0  0  0
 23 48  1  0  0  0  0
 24 25  1  0  0  0  0
 24 49  1  0  0  0  0
 24 50  1  0  0  0  0
 25 26  1  0  0  0  0
 25 51  1  0  0  0  0
 25 52  1  0  0  0  0
 26 27  1  0  0  0  0
 27 53  1  0  0  0  0
 27 54  1  0  0  0  0
M  END
> <s_m_source_file>
AV-unprocessed.smi

> <i_m_source_file_index>
227

> <i_lp_mmshare_version>
43012

> <i_f3d_flags>
0

> <s_epik_input>
W0NIMl0xT1tDSDJdW0NIMl1bQ0BIXTFbQ0BIXShbQ0gyXVtPSF0pW0NIMl1uKFtjSF1uMiljKGMyMyluW2NIXW5jM04oW0NASF00NSlbQ0BASF0oW0NIMl1bQ0gyXTQpW0NASF0oW0NIMl01KVtDSDJdW09IXQ==

> <s_epik_cmdline>
J2VwaWtfcHl0aG9uJywgJy1waCcsICc3LjAnLCAnLXRuJywgJzgnLCAnLW1hJywgJzIwMCcsICctbWV0YWxfYmluZGluZycsICctaW1hZScsICc8aW5maWxlLm1hZT4nLCAnLW9tYWUnLCAnPG91dGZpbGUubWFlPic=

> <r_lp_tautomer_probability>
1

> <r_epik_Ionization_Penalty>
0.0055791

> <r_epik_Ionization_Penalty_Charging>
0

> <r_epik_Ionization_Penalty_Neutral>
0.0055791

> <r_epik_State_Penalty>
0.00401299

> <r_epik_Charging_Adjusted_Penalty>
0.00401299

> <i_epik_Tot_Q>
0

> <i_epik_Tot_abs_Q>
0

> <r_epik_Metal_State_Penalty>
-0

> <b_epik_Metal_Only>
0

> <s_lp_Force_Field>
OPLS_2005

> <r_lp_Energy>
89.9209

> <b_lp_Chiralities_Consistent>
1

> <s_lp_Variant>
AV-unprocessed.smi:227-13

> <Gold.Version>
5.8.1

> <Gold.Id.Protein>
6NUR|6NUR_protein|mol2

> <Gold.PLP.Fitness>
44.5812

> <Gold.PLP.PLP>
-38.6872

> <Gold.PLP.part.hbond>
-3.0000

> <Gold.PLP.part.metal>
0.0000

> <Gold.PLP.part.buried>
-3.1924

> <Gold.PLP.part.nonpolar>
-33.2106

> <Gold.PLP.part.repulsive>
1.3245

> <Gold.PLP.ligand.clash>
0.0000

> <Gold.PLP.ligand.torsion>
0.6283

> <Gold.PLP.Chemscore.Hbond>
2.3068

> <Gold.PLP.Chemscore.CHOScore>
0.0000

> <Gold.PLP.Chemscore.Metal>
0.0000

> <Gold.Chemscore.Hbonds>
donor molecule, donor type, donor heavy atom, donor atom, acceptor molecule, acceptor atom, score
      L1  H     1    28       P1  8028  0.89
      L1  H    17    44       P1 10747  0.15
      P1  H  8011  8017       L1     1  0.29

> <Gold.PLP.Chemscore.Internal.Correction>
0.2303

> <Gold.Rescore>
     Score         DG    S(hbond)    S(metal)    S(lipo)     H(rot)  DE(clash)    DE(int)     intcor
      6.70     -13.99       1.99        0.00      94.68       3.61       3.16       4.13       ----

> <Gold.Chemscore.Fitness>
6.7005

> <Gold.Chemscore.DG>
-13.9854

> <Gold.Chemscore.ZeroCoef>
-5.4800

> <Gold.Chemscore.Hbond>
1.9946

> <Gold.Chemscore.Metal>
0.0000

> <Gold.Chemscore.Lipo>
94.6798

> <Gold.Chemscore.Internal_Hbond>
0.0000

> <Gold.Chemscore.DEClash>
3.1560

> <Gold.Chemscore.DEInternal>
4.1288

> <Gold.Chemscore.Rot>
3.6071

> <Gold.Chemscore.Internal.Correction>
   9.000000E+99

> <Gold.Chemscore.Hbonds>
donor molecule, donor type, donor heavy atom, donor atom, acceptor molecule, acceptor atom, score
      L1  H     1    28       P1  8028  0.87
      L1  H    17    44       P1 10747  0.17
      P1  H  8011  8017       L1     1  0.13

> <Gold.Chemscore.Hbond.Weighted>
-6.6620

> <Gold.Chemscore.Metal.Weighted>
-0.0000

> <Gold.Chemscore.Lipo.Weighted>
-11.0775

> <Gold.Chemscore.Internal_Hbond.Weighted>
0.0000

> <Gold.Chemscore.DEClash.Weighted>
3.1560

> <Gold.Chemscore.DEInternal.Weighted>
4.1288

> <Gold.Chemscore.Rot.Weighted>
9.2342

> <Gold.Chemscore.Internal.Correction.Weighted>
   9.000000E+99

> <Gold.Protein.RotatedTorsions>
[ 6907 6896 6895 6894 ] final -127.56 input  -60.11 | X-H torsion
[ 7974 7965 7964 7962 ] final   90.23 input  175.53 | X-H torsion
[ 8008 7997 7996 7995 ] final -138.66 input   59.86 | X-H torsion
[ 10167 10162 10161 10158 ] final  -18.63 input  -65.29 | X-H torsion
[ 10718 10713 10712 10709 ] final  -71.21 input   66.30 | X-H torsion
[ 10763 10752 10751 10750 ] final   10.34 input  -60.55 | X-H torsion
[ 11005 11000 10999 10996 ] final -158.97 input  -57.11 | X-H torsion

> <Gold.Protein.ActiveResidues>
 VAL166  LYS551  ARG553  GLY616  TRP617  ASP618  TYR619  PRO620  LYS621  CYS622 
 ASP623  PHE694  ASN695  SER759  ASP760  ASP761  ALA762  ILE779  LEU786  VAL792 
 PHE793  MET794  SER795  GLU796  ALA797  LYS798  CYS799  TRP800  GLU811  SER814 

> <Gold.Protein.RotatedAtoms>
  150.9086  133.7026  159.2860 H   0  0  0  0  0  0  0  0  0  0  0  0  # atno 6907 bound_to 6896
  151.4520  135.1029  159.9710 H   0  0  0  0  0  0  0  0  0  0  0  0  # atno 6908 bound_to 6896
  152.4917  133.8470  159.7237 H   0  0  0  0  0  0  0  0  0  0  0  0  # atno 6909 bound_to 6896
  145.5218  139.2279  143.2667 H   0  0  0  0  0  0  0  0  0  0  0  0  # atno 7974 bound_to 7965
  155.4320  140.0526  157.3017 H   0  0  0  0  0  0  0  0  0  0  0  0  # atno 8008 bound_to 7997
  154.4855  140.2099  155.9622 H   0  0  0  0  0  0  0  0  0  0  0  0  # atno 8009 bound_to 7997
  156.1269  140.3178  155.8295 H   0  0  0  0  0  0  0  0  0  0  0  0  # atno 8010 bound_to 7997
  140.7260  143.4897  151.0008 H   0  0  0  0  0  0  0  0  0  0  0  0  # atno 10167 bound_to 10162
  156.0373  130.4347  150.2410 H   0  0  0  0  0  0  0  0  0  0  0  0  # atno 10718 bound_to 10713
  153.2043  135.6860  153.8192 H   0  0  0  0  0  0  0  0  0  0  0  0  # atno 10763 bound_to 10752
  153.7447  135.3233  155.3311 H   0  0  0  0  0  0  0  0  0  0  0  0  # atno 10764 bound_to 10752
  154.8188  135.4667  154.0823 H   0  0  0  0  0  0  0  0  0  0  0  0  # atno 10765 bound_to 10752
  140.6477  134.4483  157.5234 H   0  0  0  0  0  0  0  0  0  0  0  0  # atno 11005 bound_to 11000
  146.2101  140.6031  142.9063 LP  0  0  0  0  0  0  0  0  0  0  0  0  # atno 17320 bound_to 7965
  144.7672  140.5556  143.6695 LP  0  0  0  0  0  0  0  0  0  0  0  0  # atno 17321 bound_to 7965
  139.8601  143.7326  152.3174 LP  0  0  0  0  0  0  0  0  0  0  0  0  # atno 17342 bound_to 10162
  139.7538  144.7526  151.0466 LP  0  0  0  0  0  0  0  0  0  0  0  0  # atno 17343 bound_to 10162
  157.0508  131.0062  151.3254 LP  0  0  0  0  0  0  0  0  0  0  0  0  # atno 17370 bound_to 10713
  157.5141  130.7957  149.7737 LP  0  0  0  0  0  0  0  0  0  0  0  0  # atno 17371 bound_to 10713
  139.9057  134.8455  156.1717 LP  0  0  0  0  0  0  0  0  0  0  0  0  # atno 17394 bound_to 11000
  141.0560  133.6865  156.1861 LP  0  0  0  0  0  0  0  0  0  0  0  0  # atno 17395 bound_to 11000

$$$$
