AV-unprocessed.smi:1604|AV-procd|sdf|6449|dock6
  -GOLD-   22720 7103D 1   1.00000     0.00000
 Structure written by MMmdl.
 47 49  0  0  0  0  0  0  0  0  2 V2000
  144.7035  136.3168  153.6780 O   0  0  0  0  0  0  0  0  0  0  0  0
  145.8607  136.2972  153.2584 C   0  0  0  0  0  0  0  0  0  0  0  0
  146.7914  137.2270  153.5258 N   0  0  0  0  0  0  0  0  0  0  0  0
  146.6072  138.4446  154.2360 C   0  0  0  0  0  0  0  0  0  0  0  0
  145.3164  138.8429  154.6671 C   0  0  0  0  0  0  0  0  0  0  0  0
  145.1630  140.0136  155.4331 C   0  0  0  0  0  0  0  0  0  0  0  0
  146.3052  140.7603  155.7694 C   0  0  0  0  0  0  0  0  0  0  0  0
  147.5207  140.3491  155.3523 N   0  3  0  0  0  0  0  0  0  0  0  0
  147.7321  139.2401  154.5996 C   0  0  0  0  0  0  0  0  0  0  0  0
  149.0609  138.9410  154.2205 N   0  0  0  0  0  0  0  0  0  0  0  0
  149.7616  137.8095  154.8164 C   0  0  0  0  0  0  0  0  0  0  0  0
  151.2283  138.0133  154.4467 C   0  0  0  0  0  0  0  0  0  0  0  0
  151.3683  139.5320  154.4880 C   0  0  0  0  0  0  0  0  0  0  0  0
  150.0028  140.0369  154.0097 C   0  0  0  0  0  0  0  0  0  0  0  0
  146.3434  135.3471  152.4439 N   0  0  0  0  0  0  0  0  0  0  0  0
  145.5665  134.2441  151.8739 C   0  0  2  0  0  0  0  0  0  0  0  0
  146.5065  133.4410  150.9459 C   0  0  0  0  0  0  0  0  0  0  0  0
  146.0417  131.9965  150.6915 C   0  0  0  0  0  0  0  0  0  0  0  0
  144.7186  131.8660  149.9217 C   0  0  0  0  0  0  0  0  0  0  0  0
  143.5121  132.4739  150.6572 C   0  0  0  0  0  0  0  0  0  0  0  0
  143.4801  133.9267  150.5513 N   0  0  0  0  0  0  0  0  0  0  0  0
  144.3797  134.7905  151.0456 C   0  0  0  0  0  0  0  0  0  0  0  0
  144.2624  135.9987  150.8373 O   0  0  0  0  0  0  0  0  0  0  0  0
  147.6708  137.1307  153.0394 H   0  0  0  0  0  0  0  0  0  0  0  0
  144.4424  138.2517  154.4365 H   0  0  0  0  0  0  0  0  0  0  0  0
  144.1845  140.3262  155.7673 H   0  0  0  0  0  0  0  0  0  0  0  0
  146.2853  141.6663  156.3577 H   0  0  0  0  0  0  0  0  0  0  0  0
  149.6530  137.8242  155.9016 H   0  0  0  0  0  0  0  0  0  0  0  0
  149.3782  136.8594  154.4434 H   0  0  0  0  0  0  0  0  0  0  0  0
  151.9127  137.5017  155.1237 H   0  0  0  0  0  0  0  0  0  0  0  0
  151.4140  137.6494  153.4351 H   0  0  0  0  0  0  0  0  0  0  0  0
  151.5396  139.8546  155.5159 H   0  0  0  0  0  0  0  0  0  0  0  0
  152.1939  139.9012  153.8787 H   0  0  0  0  0  0  0  0  0  0  0  0
  150.0438  140.2650  152.9443 H   0  0  0  0  0  0  0  0  0  0  0  0
  149.7074  140.9429  154.5412 H   0  0  0  0  0  0  0  0  0  0  0  0
  147.3061  135.4171  152.1492 H   0  0  0  0  0  0  0  0  0  0  0  0
  145.2008  133.6082  152.6823 H   0  0  0  0  0  0  0  0  0  0  0  0
  146.6591  133.9605  149.9980 H   0  0  0  0  0  0  0  0  0  0  0  0
  147.4942  133.3807  151.4061 H   0  0  0  0  0  0  0  0  0  0  0  0
  146.8196  131.4764  150.1316 H   0  0  0  0  0  0  0  0  0  0  0  0
  145.9604  131.4698  151.6431 H   0  0  0  0  0  0  0  0  0  0  0  0
  144.8149  132.3056  148.9279 H   0  0  0  0  0  0  0  0  0  0  0  0
  144.5247  130.8049  149.7604 H   0  0  0  0  0  0  0  0  0  0  0  0
  142.5924  132.0995  150.2073 H   0  0  0  0  0  0  0  0  0  0  0  0
  143.4894  132.1651  151.7032 H   0  0  0  0  0  0  0  0  0  0  0  0
  142.7120  134.3168  150.0244 H   0  0  0  0  0  0  0  0  0  0  0  0
  148.3298  140.9134  155.6120 H   0  0  0  0  0  0  0  0  0  0  0  0
  1  2  2  0  0  0  0
  2  3  1  0  0  0  0
  2 15  1  0  0  0  0
  3  4  1  0  0  0  0
  3 24  1  0  0  0  0
  4  9  1  0  0  0  0
  4  5  2  0  0  0  0
  5  6  1  0  0  0  0
  5 25  1  0  0  0  0
  6  7  2  0  0  0  0
  6 26  1  0  0  0  0
  7  8  1  0  0  0  0
  7 27  1  0  0  0  0
  8  9  2  0  0  0  0
  8 47  1  0  0  0  0
  9 10  1  0  0  0  0
 10 14  1  0  0  0  0
 10 11  1  0  0  0  0
 11 12  1  0  0  0  0
 11 28  1  0  0  0  0
 11 29  1  0  0  0  0
 12 13  1  0  0  0  0
 12 30  1  0  0  0  0
 12 31  1  0  0  0  0
 13 14  1  0  0  0  0
 13 32  1  0  0  0  0
 13 33  1  0  0  0  0
 14 34  1  0  0  0  0
 14 35  1  0  0  0  0
 15 16  1  0  0  0  0
 15 36  1  0  0  0  0
 16 22  1  0  0  0  0
 16 17  1  0  0  0  0
 16 37  1  0  0  0  0
 17 18  1  0  0  0  0
 17 38  1  0  0  0  0
 17 39  1  0  0  0  0
 18 19  1  0  0  0  0
 18 40  1  0  0  0  0
 18 41  1  0  0  0  0
 19 20  1  0  0  0  0
 19 42  1  0  0  0  0
 19 43  1  0  0  0  0
 20 21  1  0  0  0  0
 20 44  1  0  0  0  0
 20 45  1  0  0  0  0
 21 22  1  0  0  0  0
 21 46  1  0  0  0  0
 22 23  2  0  0  0  0
M  CHG  1   8   1
M  END
> <s_m_source_file>
AV-unprocessed.smi

> <i_m_source_file_index>
1604

> <i_lp_mmshare_version>
43012

> <i_f3d_flags>
0

> <s_epik_input>
Tz1DMVtOSF1bQ0gyXVtDSDJdW0NIMl1bQ0gyXVtDQEhdMVtOSF1DKD1PKVtOSF1jMltjSF1bY0hdW2NIXW5jMk4zW0NIMl1bQ0gyXVtDSDJdW0NIMl0z

> <s_epik_cmdline>
J2VwaWtfcHl0aG9uJywgJy1waCcsICc3LjAnLCAnLXRuJywgJzgnLCAnLW1hJywgJzIwMCcsICctbWV0YWxfYmluZGluZycsICctaW1hZScsICc8aW5maWxlLm1hZT4nLCAnLW9tYWUnLCAnPG91dGZpbGUubWFlPic=

> <r_lp_tautomer_probability>
0.999994

> <r_epik_Ionization_Penalty>
1.20452

> <r_epik_Ionization_Penalty_Charging>
1.2045

> <r_epik_Ionization_Penalty_Neutral>
1.88134e-05

> <r_epik_State_Penalty>
1.2704

> <r_epik_Charging_Adjusted_Penalty>
2.4749

> <i_epik_Tot_Q>
1

> <i_epik_Tot_abs_Q>
1

> <r_epik_Metal_State_Penalty>
1.34433

> <b_epik_Metal_Only>
0

> <s_lp_Force_Field>
OPLS_2005

> <r_lp_Energy>
45.117

> <b_lp_Chiralities_Consistent>
1

> <s_lp_Variant>
AV-unprocessed.smi:1604-3

> <Gold.Version>
5.8.1

> <Gold.Id.Protein>
6NUR|6NUR_protein|mol2

> <Gold.PLP.Fitness>
39.7162

> <Gold.PLP.PLP>
-31.3500

> <Gold.PLP.part.hbond>
-3.0000

> <Gold.PLP.part.metal>
0.0000

> <Gold.PLP.part.buried>
-3.9642

> <Gold.PLP.part.nonpolar>
-25.2995

> <Gold.PLP.part.repulsive>
0.3930

> <Gold.PLP.ligand.clash>
0.0000

> <Gold.PLP.ligand.torsion>
0.5063

> <Gold.PLP.Chemscore.Hbond>
3.0000

> <Gold.PLP.Chemscore.CHOScore>
0.0000

> <Gold.PLP.Chemscore.Metal>
0.0000

> <Gold.Chemscore.Hbonds>
donor molecule, donor type, donor heavy atom, donor atom, acceptor molecule, acceptor atom, score
      L1  H     3    24       P1  7948  1.00
      L1  H    15    36       P1  7948  1.00
      L1  H    21    46       P1 10186  1.00

> <Gold.PLP.Chemscore.Internal.Correction>
0.3788

> <Gold.Rescore>
     Score         DG    S(hbond)    S(metal)    S(lipo)     H(rot)  DE(clash)    DE(int)     intcor
     18.36     -20.43       2.85        0.00      73.84       1.26       0.16       1.91       ----

> <Gold.Chemscore.Fitness>
18.3632

> <Gold.Chemscore.DG>
-20.4259

> <Gold.Chemscore.ZeroCoef>
-5.4800

> <Gold.Chemscore.Hbond>
2.8514

> <Gold.Chemscore.Metal>
0.0000

> <Gold.Chemscore.Lipo>
73.8386

> <Gold.Chemscore.Internal_Hbond>
0.0000

> <Gold.Chemscore.DEClash>
0.1577

> <Gold.Chemscore.DEInternal>
1.9050

> <Gold.Chemscore.Rot>
1.2566

> <Gold.Chemscore.Internal.Correction>
   9.000000E+99

> <Gold.Chemscore.Hbonds>
donor molecule, donor type, donor heavy atom, donor atom, acceptor molecule, acceptor atom, score
      L1  H     3    24       P1  7948  0.97
      L1  H    15    36       P1  7948  0.99
      L1  H    21    46       P1 10186  0.90

> <Gold.Chemscore.Hbond.Weighted>
-9.5236

> <Gold.Chemscore.Metal.Weighted>
-0.0000

> <Gold.Chemscore.Lipo.Weighted>
-8.6391

> <Gold.Chemscore.Internal_Hbond.Weighted>
0.0000

> <Gold.Chemscore.DEClash.Weighted>
0.1577

> <Gold.Chemscore.DEInternal.Weighted>
1.9050

> <Gold.Chemscore.Rot.Weighted>
3.2168

> <Gold.Chemscore.Internal.Correction.Weighted>
   9.000000E+99

> <Gold.Protein.RotatedTorsions>
[ 6907 6896 6895 6894 ] final   52.57 input  -60.11 | X-H torsion
[ 7974 7965 7964 7962 ] final -162.52 input  175.53 | X-H torsion
[ 8008 7997 7996 7995 ] final  126.81 input   59.86 | X-H torsion
[ 10167 10162 10161 10158 ] final    5.91 input  -65.29 | X-H torsion
[ 10718 10713 10712 10709 ] final -158.35 input   66.30 | X-H torsion
[ 10763 10752 10751 10750 ] final  -12.95 input  -60.55 | X-H torsion
[ 11005 11000 10999 10996 ] final   52.56 input  -57.11 | X-H torsion

> <Gold.Protein.ActiveResidues>
 VAL166  LYS551  ARG553  GLY616  TRP617  ASP618  TYR619  PRO620  LYS621  CYS622 
 ASP623  PHE694  ASN695  SER759  ASP760  ASP761  ALA762  ILE779  LEU786  VAL792 
 PHE793  MET794  SER795  GLU796  ALA797  LYS798  CYS799  TRP800  GLU811  SER814 

> <Gold.Protein.RotatedAtoms>
  152.3246  134.7337  160.0304 H   0  0  0  0  0  0  0  0  0  0  0  0  # atno 6907 bound_to 6896
  151.7774  133.3341  159.3470 H   0  0  0  0  0  0  0  0  0  0  0  0  # atno 6908 bound_to 6896
  150.7389  134.5894  159.6024 H   0  0  0  0  0  0  0  0  0  0  0  0  # atno 6909 bound_to 6896
  144.7355  140.3240  143.6165 H   0  0  0  0  0  0  0  0  0  0  0  0  # atno 7974 bound_to 7965
  156.2874  140.2684  156.2171 H   0  0  0  0  0  0  0  0  0  0  0  0  # atno 8008 bound_to 7997
  155.0206  140.0386  157.2454 H   0  0  0  0  0  0  0  0  0  0  0  0  # atno 8009 bound_to 7997
  154.7439  140.2730  155.6355 H   0  0  0  0  0  0  0  0  0  0  0  0  # atno 8010 bound_to 7997
  140.6456  143.7669  150.7494 H   0  0  0  0  0  0  0  0  0  0  0  0  # atno 10167 bound_to 10162
  156.5529  130.8613  151.2786 H   0  0  0  0  0  0  0  0  0  0  0  0  # atno 10718 bound_to 10713
  153.5060  135.7017  153.5806 H   0  0  0  0  0  0  0  0  0  0  0  0  # atno 10763 bound_to 10752
  153.3917  135.3894  155.1927 H   0  0  0  0  0  0  0  0  0  0  0  0  # atno 10764 bound_to 10752
  154.8707  135.3860  154.4536 H   0  0  0  0  0  0  0  0  0  0  0  0  # atno 10765 bound_to 10752
  140.0839  134.5301  155.8919 H   0  0  0  0  0  0  0  0  0  0  0  0  # atno 11005 bound_to 11000
  145.7539  139.1802  143.2305 LP  0  0  0  0  0  0  0  0  0  0  0  0  # atno 17320 bound_to 7965
  146.1039  140.7511  142.9536 LP  0  0  0  0  0  0  0  0  0  0  0  0  # atno 17321 bound_to 7965
  140.1309  143.4527  152.2255 LP  0  0  0  0  0  0  0  0  0  0  0  0  # atno 17342 bound_to 10162
  139.5667  144.7439  151.4003 LP  0  0  0  0  0  0  0  0  0  0  0  0  # atno 17343 bound_to 10162
  157.7384  130.9812  150.2249 LP  0  0  0  0  0  0  0  0  0  0  0  0  # atno 17370 bound_to 10713
  156.2868  130.3740  149.7881 LP  0  0  0  0  0  0  0  0  0  0  0  0  # atno 17371 bound_to 10713
  141.2056  133.6648  156.6190 LP  0  0  0  0  0  0  0  0  0  0  0  0  # atno 17394 bound_to 11000
  140.3449  134.7818  157.4424 LP  0  0  0  0  0  0  0  0  0  0  0  0  # atno 17395 bound_to 11000

$$$$
