AV-unprocessed.smi:36|AV-procd|sdf|291|dock1
  -GOLD-   2262016 83D 1   1.00000     0.00000
 Structure written by MMmdl.
 64 67  0  0  0  0  0  0  0  0  1 V2000
  144.3014  132.9125  151.2570 C   0  0  0  0  0  0  0  0  0  0  0  0
  144.8083  134.2382  151.8488 C   0  0  0  0  0  0  0  0  0  0  0  0
  144.9482  135.2840  150.7291 C   0  0  0  0  0  0  0  0  0  0  0  0
  143.8262  134.7434  152.9190 C   0  0  0  0  0  0  0  0  0  0  0  0
  146.5214  133.9530  152.6436 Si  0  0  0  0  0  0  0  0  0  0  0  0
  146.3691  132.9099  154.2267 C   0  0  0  0  0  0  0  0  0  0  0  0
  147.7116  133.1015  151.4328 C   0  0  0  0  0  0  0  0  0  0  0  0
  147.1681  135.4697  153.0298 O   0  0  0  0  0  0  0  0  0  0  0  0
  146.5236  136.4265  153.8462 C   0  0  0  0  0  0  0  0  0  0  0  0
  147.1891  137.7957  153.6366 C   0  0  2  0  0  0  0  0  0  0  0  0
  146.8238  138.7068  154.6654 O   0  0  0  0  0  0  0  0  0  0  0  0
  147.0184  140.0181  154.2270 C   0  0  1  0  0  0  0  0  0  0  0  0
  148.2675  140.5570  154.8517 N   0  0  0  0  0  0  0  0  0  0  0  0
  148.9474  141.6767  154.5322 C   0  0  0  0  0  0  0  0  0  0  0  0
  150.0341  141.9114  155.2641 N   0  0  0  0  0  0  0  0  0  0  0  0
  150.0522  140.8297  156.1384 C   0  0  0  0  0  0  0  0  0  0  0  0
  151.0064  140.4811  157.2139 C   0  0  0  0  0  0  0  0  0  0  0  0
  152.0025  141.2881  157.4227 N   0  0  0  0  0  0  0  0  0  0  0  0
  152.9401  140.9991  158.4063 C   0  0  0  0  0  0  0  0  0  0  0  0
  153.7841  140.0987  158.4268 O   0  0  0  0  0  0  0  0  0  0  0  0
  152.8221  141.8740  159.6131 C   0  0  0  0  0  0  0  0  0  0  0  0
  152.1445  143.1097  159.5327 C   0  0  0  0  0  0  0  0  0  0  0  0
  152.0333  143.9301  160.6723 C   0  0  0  0  0  0  0  0  0  0  0  0
  152.5993  143.5195  161.8947 C   0  0  0  0  0  0  0  0  0  0  0  0
  153.2764  142.2876  161.9785 C   0  0  0  0  0  0  0  0  0  0  0  0
  153.3867  141.4651  160.8402 C   0  0  0  0  0  0  0  0  0  0  0  0
  150.6161  139.2825  157.8253 N   0  0  0  0  0  0  0  0  0  0  0  0
  149.4891  138.5159  157.4906 C   0  0  0  0  0  0  0  0  0  0  0  0
  148.6371  138.8130  156.5460 N   0  0  0  0  0  0  0  0  0  0  0  0
  148.9833  139.9925  155.9021 C   0  0  0  0  0  0  0  0  0  0  0  0
  147.1707  139.9772  152.6984 C   0  0  0  0  0  0  0  0  0  0  0  0
  146.8062  138.5433  152.3558 C   0  0  2  0  0  0  0  0  0  0  0  0
  145.4251  138.4297  152.0683 O   0  0  0  0  0  0  0  0  0  0  0  0
  143.3327  133.0392  150.7728 H   0  0  0  0  0  0  0  0  0  0  0  0
  144.1852  132.1505  152.0280 H   0  0  0  0  0  0  0  0  0  0  0  0
  144.9939  132.5219  150.5106 H   0  0  0  0  0  0  0  0  0  0  0  0
  145.6562  134.9560  149.9671 H   0  0  0  0  0  0  0  0  0  0  0  0
  145.3033  136.2391  151.1168 H   0  0  0  0  0  0  0  0  0  0  0  0
  143.9937  135.4663  150.2344 H   0  0  0  0  0  0  0  0  0  0  0  0
  142.8356  134.9164  152.4973 H   0  0  0  0  0  0  0  0  0  0  0  0
  144.1645  135.6828  153.3573 H   0  0  0  0  0  0  0  0  0  0  0  0
  143.7167  134.0224  153.7296 H   0  0  0  0  0  0  0  0  0  0  0  0
  145.9943  131.9099  154.0099 H   0  0  0  0  0  0  0  0  0  0  0  0
  145.6844  133.3619  154.9438 H   0  0  0  0  0  0  0  0  0  0  0  0
  147.3309  132.7927  154.7252 H   0  0  0  0  0  0  0  0  0  0  0  0
  147.3412  132.1231  151.1272 H   0  0  0  0  0  0  0  0  0  0  0  0
  148.6946  132.9521  151.8787 H   0  0  0  0  0  0  0  0  0  0  0  0
  147.8539  133.6929  150.5286 H   0  0  0  0  0  0  0  0  0  0  0  0
  145.4663  136.4728  153.5831 H   0  0  0  0  0  0  0  0  0  0  0  0
  146.5835  136.1140  154.8889 H   0  0  0  0  0  0  0  0  0  0  0  0
  148.2736  137.6841  153.6500 H   0  0  0  0  0  0  0  0  0  0  0  0
  146.2183  140.6687  154.5818 H   0  0  0  0  0  0  0  0  0  0  0  0
  148.6419  142.3426  153.7388 H   0  0  0  0  0  0  0  0  0  0  0  0
  151.7058  143.4316  158.5992 H   0  0  0  0  0  0  0  0  0  0  0  0
  151.5131  144.8747  160.6086 H   0  0  0  0  0  0  0  0  0  0  0  0
  152.5139  144.1494  162.7680 H   0  0  0  0  0  0  0  0  0  0  0  0
  153.7107  141.9723  162.9157 H   0  0  0  0  0  0  0  0  0  0  0  0
  153.9069  140.5209  160.9134 H   0  0  0  0  0  0  0  0  0  0  0  0
  149.3677  137.6179  158.0980 H   0  0  0  0  0  0  0  0  0  0  0  0
  146.5340  140.7223  152.2198 H   0  0  0  0  0  0  0  0  0  0  0  0
  148.2070  140.1789  152.4217 H   0  0  0  0  0  0  0  0  0  0  0  0
  147.3670  138.1782  151.4950 H   0  0  0  0  0  0  0  0  0  0  0  0
  145.0117  139.2616  152.2416 H   0  0  0  0  0  0  0  0  0  0  0  0
  151.1971  138.9422  158.5780 H   0  0  0  0  0  0  0  0  0  0  0  0
  1  2  1  0  0  0  0
  1 34  1  0  0  0  0
  1 35  1  0  0  0  0
  1 36  1  0  0  0  0
  2  3  1  0  0  0  0
  2  4  1  0  0  0  0
  2  5  1  0  0  0  0
  3 37  1  0  0  0  0
  3 38  1  0  0  0  0
  3 39  1  0  0  0  0
  4 40  1  0  0  0  0
  4 41  1  0  0  0  0
  4 42  1  0  0  0  0
  5  6  1  0  0  0  0
  5  7  1  0  0  0  0
  5  8  1  0  0  0  0
  6 43  1  0  0  0  0
  6 44  1  0  0  0  0
  6 45  1  0  0  0  0
  7 46  1  0  0  0  0
  7 47  1  0  0  0  0
  7 48  1  0  0  0  0
  8  9  1  0  0  0  0
  9 10  1  0  0  0  0
  9 49  1  0  0  0  0
  9 50  1  0  0  0  0
 10 32  1  0  0  0  0
 10 11  1  0  0  0  0
 10 51  1  0  0  0  0
 11 12  1  0  0  0  0
 12 13  1  0  0  0  0
 12 31  1  0  0  0  0
 12 52  1  0  0  0  0
 13 30  1  0  0  0  0
 13 14  1  0  0  0  0
 14 15  2  0  0  0  0
 14 53  1  0  0  0  0
 15 16  1  0  0  0  0
 16 30  2  0  0  0  0
 16 17  1  0  0  0  0
 17 18  2  0  0  0  0
 17 27  1  0  0  0  0
 18 19  1  0  0  0  0
 19 20  2  0  0  0  0
 19 21  1  0  0  0  0
 21 26  1  0  0  0  0
 21 22  2  0  0  0  0
 22 23  1  0  0  0  0
 22 54  1  0  0  0  0
 23 24  2  0  0  0  0
 23 55  1  0  0  0  0
 24 25  1  0  0  0  0
 24 56  1  0  0  0  0
 25 26  2  0  0  0  0
 25 57  1  0  0  0  0
 26 58  1  0  0  0  0
 27 28  1  0  0  0  0
 27 64  1  0  0  0  0
 28 29  2  0  0  0  0
 28 59  1  0  0  0  0
 29 30  1  0  0  0  0
 31 32  1  0  0  0  0
 31 60  1  0  0  0  0
 31 61  1  0  0  0  0
 32 33  1  0  0  0  0
 32 62  1  0  0  0  0
 33 63  1  0  0  0  0
M  END
> <s_m_source_file>
AV-unprocessed.smi

> <i_m_source_file_index>
36

> <i_lp_mmshare_version>
43012

> <i_f3d_flags>
0

> <s_epik_input>
W0NIM11DKFtDSDNdKShbQ0gzXSlbU2ldKFtDSDNdKShbQ0gzXSlPW0NIMl1bQ0BASF0xT1tDQEhdKFtDSDJdW0NASF0xW09IXSluKFtjSF1uMiljKGMyMyluW2NIXW5jM1tOSF1DKD1PKWM0W2NIXVtjSF1bY0hdW2NIXVtjSF00

> <s_epik_cmdline>
J2VwaWtfcHl0aG9uJywgJy1waCcsICc3LjAnLCAnLXRuJywgJzgnLCAnLW1hJywgJzIwMCcsICctbWV0YWxfYmluZGluZycsICctaW1hZScsICc8aW5maWxlLm1hZT4nLCAnLW9tYWUnLCAnPG91dGZpbGUubWFlPic=

> <r_epik_Ionization_Penalty>
0.0850405

> <r_epik_Ionization_Penalty_Charging>
0.0850403

> <r_epik_Ionization_Penalty_Neutral>
1.47497e-07

> <r_epik_State_Penalty>
2.6133

> <r_epik_Charging_Adjusted_Penalty>
2.69834

> <i_epik_Tot_Q>
0

> <i_epik_Tot_abs_Q>
0

> <r_epik_Metal_State_Penalty>
2.92945

> <b_epik_Metal_Only>
0

> <s_epik_Chemistry_Notes>
This compound contains an acetal/aminal-like group ( X-CH(R)-Y where X, Y are N, S, or O) that may be acid/base labile, releasing an aldehyde.

> <s_lp_Force_Field>
OPLS_2005

> <r_lp_Energy>
50.6146

> <b_lp_Chiralities_Consistent>
1

> <s_lp_Variant>
AV-unprocessed.smi:36-13

> <Gold.Version>
5.8.1

> <Gold.Id.Protein>
6NUR|6NUR_protein|mol2

> <Gold.PLP.Fitness>
55.6390

> <Gold.PLP.PLP>
-52.3805

> <Gold.PLP.part.hbond>
-3.6511

> <Gold.PLP.part.metal>
0.0000

> <Gold.PLP.part.buried>
-2.5139

> <Gold.PLP.part.nonpolar>
-48.2687

> <Gold.PLP.part.repulsive>
2.7873

> <Gold.PLP.ligand.clash>
0.0000

> <Gold.PLP.ligand.torsion>
1.4646

> <Gold.PLP.Chemscore.Hbond>
1.9360

> <Gold.PLP.Chemscore.CHOScore>
0.0000

> <Gold.PLP.Chemscore.Metal>
0.0000

> <Gold.Chemscore.Hbonds>
donor molecule, donor type, donor heavy atom, donor atom, acceptor molecule, acceptor atom, score
      L1  H    33    63       P1 10175  1.00
      P1  H  7997  8009       L1    20  0.88

> <Gold.PLP.Chemscore.Internal.Correction>
0.3798

> <Gold.Rescore>
     Score         DG    S(hbond)    S(metal)    S(lipo)     H(rot)  DE(clash)    DE(int)     intcor
     13.34     -17.80       1.68        0.00     116.55       2.70       1.54       2.91       ----

> <Gold.Chemscore.Fitness>
13.3447

> <Gold.Chemscore.DG>
-17.7974

> <Gold.Chemscore.ZeroCoef>
-5.4800

> <Gold.Chemscore.Hbond>
1.6777

> <Gold.Chemscore.Metal>
0.0000

> <Gold.Chemscore.Lipo>
116.5498

> <Gold.Chemscore.Internal_Hbond>
0.0000

> <Gold.Chemscore.DEClash>
1.5379

> <Gold.Chemscore.DEInternal>
2.9148

> <Gold.Chemscore.Rot>
2.7041

> <Gold.Chemscore.Internal.Correction>
   9.000000E+99

> <Gold.Chemscore.Hbonds>
donor molecule, donor type, donor heavy atom, donor atom, acceptor molecule, acceptor atom, score
      L1  H    33    63       P1 10175  0.99
      P1  H  7997  8009       L1    20  0.83

> <Gold.Chemscore.Hbond.Weighted>
-5.6036

> <Gold.Chemscore.Metal.Weighted>
-0.0000

> <Gold.Chemscore.Lipo.Weighted>
-13.6363

> <Gold.Chemscore.Internal_Hbond.Weighted>
0.0000

> <Gold.Chemscore.DEClash.Weighted>
1.5379

> <Gold.Chemscore.DEInternal.Weighted>
2.9148

> <Gold.Chemscore.Rot.Weighted>
6.9225

> <Gold.Chemscore.Internal.Correction.Weighted>
   9.000000E+99

> <Gold.Protein.RotatedTorsions>
[ 6907 6896 6895 6894 ] final  110.82 input  -60.11 | X-H torsion
[ 7974 7965 7964 7962 ] final -110.95 input  175.53 | X-H torsion
[ 8008 7997 7996 7995 ] final  131.04 input   59.86 | X-H torsion
[ 10167 10162 10161 10158 ] final  -21.43 input  -65.29 | X-H torsion
[ 10718 10713 10712 10709 ] final  -85.49 input   66.30 | X-H torsion
[ 10763 10752 10751 10750 ] final -171.08 input  -60.55 | X-H torsion
[ 11005 11000 10999 10996 ] final  -37.99 input  -57.11 | X-H torsion

> <Gold.Protein.ActiveResidues>
 VAL166  LYS551  ARG553  GLY616  TRP617  ASP618  TYR619  PRO620  LYS621  CYS622 
 ASP623  PHE694  ASN695  SER759  ASP760  ASP761  ALA762  ILE779  LEU786  VAL792 
 PHE793  MET794  SER795  GLU796  ALA797  LYS798  CYS799  TRP800  GLU811  SER814 

> <Gold.Protein.RotatedAtoms>
  152.5001  133.8746  159.7315 H   0  0  0  0  0  0  0  0  0  0  0  0  # atno 6907 bound_to 6896
  150.9224  133.6855  159.2836 H   0  0  0  0  0  0  0  0  0  0  0  0  # atno 6908 bound_to 6896
  151.4228  135.1004  159.9671 H   0  0  0  0  0  0  0  0  0  0  0  0  # atno 6909 bound_to 6896
  145.1620  140.8883  143.3585 H   0  0  0  0  0  0  0  0  0  0  0  0  # atno 7974 bound_to 7965
  156.2964  140.2581  156.2860 H   0  0  0  0  0  0  0  0  0  0  0  0  # atno 8008 bound_to 7997
  154.9555  140.0393  157.2183 H   0  0  0  0  0  0  0  0  0  0  0  0  # atno 8009 bound_to 7997
  154.7995  140.2826  155.5936 H   0  0  0  0  0  0  0  0  0  0  0  0  # atno 8010 bound_to 7997
  140.7282  143.4628  151.0355 H   0  0  0  0  0  0  0  0  0  0  0  0  # atno 10167 bound_to 10162
  155.9996  130.4732  150.4569 H   0  0  0  0  0  0  0  0  0  0  0  0  # atno 10718 bound_to 10713
  154.6345  135.2890  155.0177 H   0  0  0  0  0  0  0  0  0  0  0  0  # atno 10763 bound_to 10752
  154.1326  135.6531  153.4929 H   0  0  0  0  0  0  0  0  0  0  0  0  # atno 10764 bound_to 10752
  153.0296  135.5314  154.7186 H   0  0  0  0  0  0  0  0  0  0  0  0  # atno 10765 bound_to 10752
  140.9994  133.6963  156.1994 H   0  0  0  0  0  0  0  0  0  0  0  0  # atno 11005 bound_to 11000
  145.0321  139.3332  143.6019 LP  0  0  0  0  0  0  0  0  0  0  0  0  # atno 17320 bound_to 7965
  146.3481  139.9663  142.8711 LP  0  0  0  0  0  0  0  0  0  0  0  0  # atno 17321 bound_to 7965
  139.8314  143.7685  152.3180 LP  0  0  0  0  0  0  0  0  0  0  0  0  # atno 17342 bound_to 10162
  139.7802  144.7447  151.0098 LP  0  0  0  0  0  0  0  0  0  0  0  0  # atno 17343 bound_to 10162
  157.2597  131.0564  151.2328 LP  0  0  0  0  0  0  0  0  0  0  0  0  # atno 17370 bound_to 10713
  157.3447  130.7051  149.6403 LP  0  0  0  0  0  0  0  0  0  0  0  0  # atno 17371 bound_to 10713
  140.6913  134.4662  157.5588 LP  0  0  0  0  0  0  0  0  0  0  0  0  # atno 17394 bound_to 11000
  139.9031  134.8510  156.1814 LP  0  0  0  0  0  0  0  0  0  0  0  0  # atno 17395 bound_to 11000

$$$$
