AV-unprocessed.smi:2279|AV-procd|sdf|9190|dock2
  -GOLD-   2272012403D 1   1.00000     0.00000
 Structure written by MMmdl.
 57 59  0  0  0  0  0  0  0  0  2 V2000
  154.0217  141.3079  161.3399 C   0  0  0  0  0  0  0  0  0  0  0  0
  153.1705  141.9858  160.2866 C   0  0  0  0  0  0  0  0  0  0  0  0
  152.9711  143.3795  160.3044 C   0  0  0  0  0  0  0  0  0  0  0  0
  152.1695  143.9488  159.2958 C   0  0  0  0  0  0  0  0  0  0  0  0
  151.9118  145.4403  159.2550 C   0  0  0  0  0  0  0  0  0  0  0  0
  151.5834  143.2204  158.3218 N   0  0  0  0  0  0  0  0  0  0  0  0
  151.7666  141.8771  158.2957 C   0  0  0  0  0  0  0  0  0  0  0  0
  151.1873  141.0224  157.3198 N   0  0  0  0  0  0  0  0  0  0  0  0
  149.9876  141.1392  156.7234 C   0  0  0  0  0  0  0  0  0  0  0  0
  149.1888  142.0590  156.9025 O   0  0  0  0  0  0  0  0  0  0  0  0
  149.7522  140.1130  155.8919 N   0  0  0  0  0  0  0  0  0  0  0  0
  148.5357  139.9401  155.1026 C   0  0  2  0  0  0  0  0  0  0  0  0
  148.4832  140.9504  153.9377 C   0  0  0  0  0  0  0  0  0  0  0  0
  147.1402  140.8611  153.1897 C   0  0  0  0  0  0  0  0  0  0  0  0
  145.9840  141.0891  154.1027 N   0  3  2  0  0  0  0  0  0  0  0  0
  145.8074  142.5024  154.5811 C   0  0  0  0  0  0  0  0  0  0  0  0
  144.5805  142.6495  155.5125 C   0  0  0  0  0  0  0  0  0  0  0  0
  144.3256  144.1125  155.9124 C   0  0  0  0  0  0  0  0  0  0  0  0
  144.1148  144.9297  154.7212 N   0  0  0  0  0  0  0  0  0  0  0  0
  143.8050  146.2947  155.1231 C   0  0  0  0  0  0  0  0  0  0  0  0
  145.3295  144.9288  153.9114 C   0  0  0  0  0  0  0  0  0  0  0  0
  145.6330  143.5053  153.4149 C   0  0  0  0  0  0  0  0  0  0  0  0
  145.9968  140.0537  155.1763 C   0  0  0  0  0  0  0  0  0  0  0  0
  147.2971  140.0966  156.0038 C   0  0  0  0  0  0  0  0  0  0  0  0
  152.5599  141.2272  159.2676 C   0  0  0  0  0  0  0  0  0  0  0  0
  154.4250  142.0305  162.0501 H   0  0  0  0  0  0  0  0  0  0  0  0
  154.8572  140.7867  160.8722 H   0  0  0  0  0  0  0  0  0  0  0  0
  153.4286  140.5797  161.8937 H   0  0  0  0  0  0  0  0  0  0  0  0
  153.4201  143.9957  161.0699 H   0  0  0  0  0  0  0  0  0  0  0  0
  152.5807  145.9750  159.9299 H   0  0  0  0  0  0  0  0  0  0  0  0
  150.8843  145.6534  159.5507 H   0  0  0  0  0  0  0  0  0  0  0  0
  152.0668  145.8280  158.2474 H   0  0  0  0  0  0  0  0  0  0  0  0
  151.7428  140.2202  157.0627 H   0  0  0  0  0  0  0  0  0  0  0  0
  150.4633  139.4024  155.7985 H   0  0  0  0  0  0  0  0  0  0  0  0
  148.5259  138.9289  154.6905 H   0  0  0  0  0  0  0  0  0  0  0  0
  148.6386  141.9641  154.3090 H   0  0  0  0  0  0  0  0  0  0  0  0
  149.2967  140.7571  153.2378 H   0  0  0  0  0  0  0  0  0  0  0  0
  147.1248  141.5278  152.3298 H   0  0  0  0  0  0  0  0  0  0  0  0
  147.0423  139.8622  152.7622 H   0  0  0  0  0  0  0  0  0  0  0  0
  146.6935  142.8000  155.1418 H   0  0  0  0  0  0  0  0  0  0  0  0
  143.6912  142.2440  155.0272 H   0  0  0  0  0  0  0  0  0  0  0  0
  144.7191  142.0869  156.4342 H   0  0  0  0  0  0  0  0  0  0  0  0
  143.4415  144.1638  156.5495 H   0  0  0  0  0  0  0  0  0  0  0  0
  145.1634  144.4991  156.4955 H   0  0  0  0  0  0  0  0  0  0  0  0
  143.6401  146.9237  154.2476 H   0  0  0  0  0  0  0  0  0  0  0  0
  144.6140  146.7316  155.7104 H   0  0  0  0  0  0  0  0  0  0  0  0
  142.8949  146.3195  155.7236 H   0  0  0  0  0  0  0  0  0  0  0  0
  145.1954  145.5896  153.0539 H   0  0  0  0  0  0  0  0  0  0  0  0
  146.1708  145.3187  154.4872 H   0  0  0  0  0  0  0  0  0  0  0  0
  146.5398  143.5660  152.8144 H   0  0  0  0  0  0  0  0  0  0  0  0
  144.8343  143.1727  152.7500 H   0  0  0  0  0  0  0  0  0  0  0  0
  145.1238  140.1200  155.8218 H   0  0  0  0  0  0  0  0  0  0  0  0
  145.9142  139.0745  154.7022 H   0  0  0  0  0  0  0  0  0  0  0  0
  147.2812  139.2998  156.7484 H   0  0  0  0  0  0  0  0  0  0  0  0
  147.3522  141.0307  156.5638 H   0  0  0  0  0  0  0  0  0  0  0  0
  152.6986  140.1561  159.2363 H   0  0  0  0  0  0  0  0  0  0  0  0
  145.1610  140.8993  153.5485 H   0  0  0  0  0  0  0  0  0  0  0  0
  1  2  1  0  0  0  0
  1 26  1  0  0  0  0
  1 27  1  0  0  0  0
  1 28  1  0  0  0  0
  2 25  1  0  0  0  0
  2  3  2  0  0  0  0
  3  4  1  0  0  0  0
  3 29  1  0  0  0  0
  4  5  1  0  0  0  0
  4  6  2  0  0  0  0
  5 30  1  0  0  0  0
  5 31  1  0  0  0  0
  5 32  1  0  0  0  0
  6  7  1  0  0  0  0
  7  8  1  0  0  0  0
  7 25  2  0  0  0  0
  8  9  1  0  0  0  0
  8 33  1  0  0  0  0
  9 10  2  0  0  0  0
  9 11  1  0  0  0  0
 11 12  1  0  0  0  0
 11 34  1  0  0  0  0
 12 24  1  0  0  0  0
 12 13  1  0  0  0  0
 12 35  1  0  0  0  0
 13 14  1  0  0  0  0
 13 36  1  0  0  0  0
 13 37  1  0  0  0  0
 14 15  1  0  0  0  0
 14 38  1  0  0  0  0
 14 39  1  0  0  0  0
 15 16  1  0  0  0  0
 15 23  1  0  0  0  0
 15 57  1  0  0  0  0
 16 22  1  0  0  0  0
 16 17  1  0  0  0  0
 16 40  1  0  0  0  0
 17 18  1  0  0  0  0
 17 41  1  0  0  0  0
 17 42  1  0  0  0  0
 18 19  1  0  0  0  0
 18 43  1  0  0  0  0
 18 44  1  0  0  0  0
 19 20  1  0  0  0  0
 19 21  1  0  0  0  0
 20 45  1  0  0  0  0
 20 46  1  0  0  0  0
 20 47  1  0  0  0  0
 21 22  1  0  0  0  0
 21 48  1  0  0  0  0
 21 49  1  0  0  0  0
 22 50  1  0  0  0  0
 22 51  1  0  0  0  0
 23 24  1  0  0  0  0
 23 52  1  0  0  0  0
 23 53  1  0  0  0  0
 24 54  1  0  0  0  0
 24 55  1  0  0  0  0
 25 56  1  0  0  0  0
M  CHG  1  15   1
M  END
> <s_m_source_file>
AV-unprocessed.smi

> <i_m_source_file_index>
2279

> <i_lp_mmshare_version>
43012

> <i_f3d_flags>
0

> <s_epik_input>
W0NIM11jMVtjSF1jKFtDSDNdKW5jKFtjSF0xKVtOSF1DKD1PKVtOSF1bQ0hdMltDSDJdW0NIMl1OKFtDSDJdW0NIMl0yKVtDSF0zW0NIMl1bQ0gyXU4oW0NIM10pW0NIMl1bQ0gyXTM=

> <s_epik_cmdline>
J2VwaWtfcHl0aG9uJywgJy1waCcsICc3LjAnLCAnLXRuJywgJzgnLCAnLW1hJywgJzIwMCcsICctbWV0YWxfYmluZGluZycsICctaW1hZScsICc8aW5maWxlLm1hZT4nLCAnLW9tYWUnLCAnPG91dGZpbGUubWFlPic=

> <r_epik_Ionization_Penalty>
1.37263

> <r_epik_Ionization_Penalty_Charging>
0.00081195

> <r_epik_Ionization_Penalty_Neutral>
1.37182

> <r_epik_State_Penalty>
1.55149

> <r_epik_Charging_Adjusted_Penalty>
1.5523

> <i_epik_Tot_Q>
1

> <i_epik_Tot_abs_Q>
1

> <r_epik_Metal_State_Penalty>
1.5515

> <b_epik_Metal_Only>
0

> <s_lp_Force_Field>
OPLS_2005

> <r_lp_Energy>
33.7825

> <b_lp_Chiralities_Consistent>
1

> <s_lp_Variant>
AV-unprocessed.smi:2279-8

> <Gold.Version>
5.8.1

> <Gold.Id.Protein>
6NUR|6NUR_protein|mol2

> <Gold.PLP.Fitness>
49.7673

> <Gold.PLP.PLP>
-44.4941

> <Gold.PLP.part.hbond>
-1.0000

> <Gold.PLP.part.metal>
0.0000

> <Gold.PLP.part.buried>
-7.8406

> <Gold.PLP.part.nonpolar>
-36.5017

> <Gold.PLP.part.repulsive>
1.0912

> <Gold.PLP.ligand.clash>
0.0000

> <Gold.PLP.ligand.torsion>
0.3872

> <Gold.PLP.Chemscore.Hbond>
2.0000

> <Gold.PLP.Chemscore.CHOScore>
0.0000

> <Gold.PLP.Chemscore.Metal>
0.0000

> <Gold.Chemscore.Hbonds>
donor molecule, donor type, donor heavy atom, donor atom, acceptor molecule, acceptor atom, score
      L1  H    15    57       P1 10175  2.00

> <Gold.PLP.Chemscore.Internal.Correction>
0.0476

> <Gold.Rescore>
     Score         DG    S(hbond)    S(metal)    S(lipo)     H(rot)  DE(clash)    DE(int)     intcor
     15.63     -19.90       0.94        0.00     122.51       1.19       1.74       2.54       ----

> <Gold.Chemscore.Fitness>
15.6280

> <Gold.Chemscore.DG>
-19.9011

> <Gold.Chemscore.ZeroCoef>
-5.4800

> <Gold.Chemscore.Hbond>
0.9393

> <Gold.Chemscore.Metal>
0.0000

> <Gold.Chemscore.Lipo>
122.5084

> <Gold.Chemscore.Internal_Hbond>
0.0000

> <Gold.Chemscore.DEClash>
1.7370

> <Gold.Chemscore.DEInternal>
2.5362

> <Gold.Chemscore.Rot>
1.1913

> <Gold.Chemscore.Internal.Correction>
   9.000000E+99

> <Gold.Chemscore.Hbonds>
donor molecule, donor type, donor heavy atom, donor atom, acceptor molecule, acceptor atom, score
      L1  H    15    57       P1 10175  0.78

> <Gold.Chemscore.Hbond.Weighted>
-3.1373

> <Gold.Chemscore.Metal.Weighted>
-0.0000

> <Gold.Chemscore.Lipo.Weighted>
-14.3335

> <Gold.Chemscore.Internal_Hbond.Weighted>
0.0000

> <Gold.Chemscore.DEClash.Weighted>
1.7370

> <Gold.Chemscore.DEInternal.Weighted>
2.5362

> <Gold.Chemscore.Rot.Weighted>
3.0497

> <Gold.Chemscore.Internal.Correction.Weighted>
   9.000000E+99

> <Gold.Protein.RotatedTorsions>
[ 6907 6896 6895 6894 ] final -119.36 input  -60.11 | X-H torsion
[ 7974 7965 7964 7962 ] final   42.89 input  175.53 | X-H torsion
[ 8008 7997 7996 7995 ] final  108.31 input   59.86 | X-H torsion
[ 10167 10162 10161 10158 ] final  110.15 input  -65.29 | X-H torsion
[ 10718 10713 10712 10709 ] final   98.60 input   66.30 | X-H torsion
[ 10763 10752 10751 10750 ] final   30.06 input  -60.55 | X-H torsion
[ 11005 11000 10999 10996 ] final -139.29 input  -57.11 | X-H torsion

> <Gold.Protein.ActiveResidues>
 VAL166  LYS551  ARG553  GLY616  TRP617  ASP618  TYR619  PRO620  LYS621  CYS622 
 ASP623  PHE694  ASN695  SER759  ASP760  ASP761  ALA762  ILE779  LEU786  VAL792 
 PHE793  MET794  SER795  GLU796  ALA797  LYS798  CYS799  TRP800  GLU811  SER814 

> <Gold.Protein.RotatedAtoms>
  150.8299  133.8109  159.3102 H   0  0  0  0  0  0  0  0  0  0  0  0  # atno 6907 bound_to 6896
  151.5842  135.1055  160.0034 H   0  0  0  0  0  0  0  0  0  0  0  0  # atno 6908 bound_to 6896
  152.4379  133.7353  159.6667 H   0  0  0  0  0  0  0  0  0  0  0  0  # atno 6909 bound_to 6896
  146.0702  139.5249  142.9602 H   0  0  0  0  0  0  0  0  0  0  0  0  # atno 7974 bound_to 7965
  156.1893  140.3079  155.9300 H   0  0  0  0  0  0  0  0  0  0  0  0  # atno 8008 bound_to 7997
  155.3210  140.0456  157.3056 H   0  0  0  0  0  0  0  0  0  0  0  0  # atno 8009 bound_to 7997
  154.5433  140.2268  155.8614 H   0  0  0  0  0  0  0  0  0  0  0  0  # atno 8010 bound_to 7997
  139.6711  144.7125  151.1686 H   0  0  0  0  0  0  0  0  0  0  0  0  # atno 10167 bound_to 10162
  157.6892  131.0645  150.4821 H   0  0  0  0  0  0  0  0  0  0  0  0  # atno 10718 bound_to 10713
  153.0394  135.6473  154.0986 H   0  0  0  0  0  0  0  0  0  0  0  0  # atno 10763 bound_to 10752
  154.0695  135.2881  155.3312 H   0  0  0  0  0  0  0  0  0  0  0  0  # atno 10764 bound_to 10752
  154.6603  135.5394  153.8075 H   0  0  0  0  0  0  0  0  0  0  0  0  # atno 10765 bound_to 10752
  140.8534  134.2258  157.4748 H   0  0  0  0  0  0  0  0  0  0  0  0  # atno 11005 bound_to 11000
  145.6404  141.0285  143.1814 LP  0  0  0  0  0  0  0  0  0  0  0  0  # atno 17320 bound_to 7965
  144.7227  139.7976  143.7376 LP  0  0  0  0  0  0  0  0  0  0  0  0  # atno 17321 bound_to 7965
  140.7618  143.5843  150.8862 LP  0  0  0  0  0  0  0  0  0  0  0  0  # atno 17342 bound_to 10162
  139.9508  143.6274  152.3029 LP  0  0  0  0  0  0  0  0  0  0  0  0  # atno 17343 bound_to 10162
  156.5152  130.4149  149.6280 LP  0  0  0  0  0  0  0  0  0  0  0  0  # atno 17370 bound_to 10713
  156.3204  130.7277  151.2188 LP  0  0  0  0  0  0  0  0  0  0  0  0  # atno 17371 bound_to 10713
  139.8704  134.9694  156.4665 LP  0  0  0  0  0  0  0  0  0  0  0  0  # atno 17394 bound_to 11000
  140.8765  133.7949  155.9420 LP  0  0  0  0  0  0  0  0  0  0  0  0  # atno 17395 bound_to 11000

$$$$
