AV-unprocessed.smi:1195|AV-procd|sdf|4995|dock8
  -GOLD-   22720 4 03D 1   1.00000     0.00000
 Structure written by MMmdl.
 39 40  0  0  0  0  0  0  0  0  1 V2000
  153.8925  131.2844  157.0104 N   0  0  0  0  0  0  0  0  0  0  0  0
  153.0095  132.2057  157.4032 C   0  0  0  0  0  0  0  0  0  0  0  0
  153.3513  133.3512  157.6940 O   0  0  0  0  0  0  0  0  0  0  0  0
  151.5430  131.7589  157.4717 C   0  0  0  0  0  0  0  0  0  0  0  0
  151.0089  131.3717  156.1759 N   0  0  0  0  0  0  0  0  0  0  0  0
  150.0213  131.9967  155.4397 C   0  0  0  0  0  0  0  0  0  0  0  0
  149.8848  131.2561  154.2998 C   0  0  0  0  0  0  0  0  0  0  0  0
  149.0155  131.4546  153.1975 N   0  0  0  0  0  0  0  0  0  0  0  0
  147.7869  131.9973  153.2171 C   0  0  0  0  0  0  0  0  0  0  0  0
  147.2108  132.4073  154.2251 O   0  0  0  0  0  0  0  0  0  0  0  0
  147.2522  132.0385  151.9883 N   0  0  0  0  0  0  0  0  0  0  0  0
  145.9287  132.5622  151.6644 C   0  0  2  0  0  0  0  0  0  0  0  0
  145.0926  131.4677  150.9772 C   0  0  0  0  0  0  0  0  0  0  0  0
  143.7001  131.9876  150.5780 C   0  0  0  0  0  0  0  0  0  0  0  0
  143.7767  133.2581  149.7099 C   0  0  2  0  0  0  0  0  0  0  0  0
  144.2779  132.9391  148.4268 O   0  0  0  0  0  0  0  0  0  0  0  0
  144.6545  134.3412  150.3650 C   0  0  0  0  0  0  0  0  0  0  0  0
  146.0418  133.8073  150.7623 C   0  0  0  0  0  0  0  0  0  0  0  0
  150.8218  130.1963  154.4121 C   0  0  0  0  0  0  0  0  0  0  0  0
  151.4952  130.2705  155.5500 N   0  0  0  0  0  0  0  0  0  0  0  0
  154.8711  131.5255  156.9468 H   0  0  0  0  0  0  0  0  0  0  0  0
  153.5816  130.3527  156.7778 H   0  0  0  0  0  0  0  0  0  0  0  0
  151.4494  130.9211  158.1644 H   0  0  0  0  0  0  0  0  0  0  0  0
  150.9321  132.5719  157.8661 H   0  0  0  0  0  0  0  0  0  0  0  0
  149.5257  132.8905  155.7887 H   0  0  0  0  0  0  0  0  0  0  0  0
  149.3648  131.1491  152.3009 H   0  0  0  0  0  0  0  0  0  0  0  0
  147.7999  131.6826  151.2186 H   0  0  0  0  0  0  0  0  0  0  0  0
  145.4230  132.8416  152.5908 H   0  0  0  0  0  0  0  0  0  0  0  0
  145.6137  131.1063  150.0895 H   0  0  0  0  0  0  0  0  0  0  0  0
  144.9842  130.6087  151.6404 H   0  0  0  0  0  0  0  0  0  0  0  0
  143.1439  131.2069  150.0577 H   0  0  0  0  0  0  0  0  0  0  0  0
  143.1340  132.2104  151.4833 H   0  0  0  0  0  0  0  0  0  0  0  0
  142.7702  133.6527  149.5682 H   0  0  0  0  0  0  0  0  0  0  0  0
  144.8899  133.6109  148.1677 H   0  0  0  0  0  0  0  0  0  0  0  0
  144.7591  135.1986  149.6991 H   0  0  0  0  0  0  0  0  0  0  0  0
  144.1522  134.7118  151.2593 H   0  0  0  0  0  0  0  0  0  0  0  0
  146.5993  134.5936  151.2724 H   0  0  0  0  0  0  0  0  0  0  0  0
  146.6106  133.5626  149.8641 H   0  0  0  0  0  0  0  0  0  0  0  0
  151.0308  129.3922  153.7220 H   0  0  0  0  0  0  0  0  0  0  0  0
  1  2  1  0  0  0  0
  1 21  1  0  0  0  0
  1 22  1  0  0  0  0
  2  3  2  0  0  0  0
  2  4  1  0  0  0  0
  4  5  1  0  0  0  0
  4 23  1  0  0  0  0
  4 24  1  0  0  0  0
  5 20  1  0  0  0  0
  5  6  1  0  0  0  0
  6  7  2  0  0  0  0
  6 25  1  0  0  0  0
  7  8  1  0  0  0  0
  7 19  1  0  0  0  0
  8  9  1  0  0  0  0
  8 26  1  0  0  0  0
  9 10  2  0  0  0  0
  9 11  1  0  0  0  0
 11 12  1  0  0  0  0
 11 27  1  0  0  0  0
 12 18  1  0  0  0  0
 12 13  1  0  0  0  0
 12 28  1  0  0  0  0
 13 14  1  0  0  0  0
 13 29  1  0  0  0  0
 13 30  1  0  0  0  0
 14 15  1  0  0  0  0
 14 31  1  0  0  0  0
 14 32  1  0  0  0  0
 15 16  1  0  0  0  0
 15 17  1  0  0  0  0
 15 33  1  0  0  0  0
 16 34  1  0  0  0  0
 17 18  1  0  0  0  0
 17 35  1  0  0  0  0
 17 36  1  0  0  0  0
 18 37  1  0  0  0  0
 18 38  1  0  0  0  0
 19 20  2  0  0  0  0
 19 39  1  0  0  0  0
M  END
> <s_m_source_file>
AV-unprocessed.smi

> <i_m_source_file_index>
1195

> <i_lp_mmshare_version>
43012

> <i_f3d_flags>
0

> <s_epik_input>
W05IMl1DKD1PKVtDSDJdbjFbY0hdYyhbY0hdbjEpW05IXUMoPU8pW05IXVtDQEBIXTJbQ0gyXVtDSDJdW0NAQEhdKFtPSF0pW0NIMl1bQ0gyXTI=

> <s_epik_cmdline>
J2VwaWtfcHl0aG9uJywgJy1waCcsICc3LjAnLCAnLXRuJywgJzgnLCAnLW1hJywgJzIwMCcsICctbWV0YWxfYmluZGluZycsICctaW1hZScsICc8aW5maWxlLm1hZT4nLCAnLW9tYWUnLCAnPG91dGZpbGUubWFlPic=

> <r_lp_tautomer_probability>
1

> <r_epik_Ionization_Penalty>
4.75851e-05

> <r_epik_Ionization_Penalty_Charging>
0

> <r_epik_Ionization_Penalty_Neutral>
4.75851e-05

> <r_epik_State_Penalty>
-0

> <r_epik_Charging_Adjusted_Penalty>
0

> <i_epik_Tot_Q>
0

> <i_epik_Tot_abs_Q>
0

> <r_epik_Metal_State_Penalty>
-0

> <b_epik_Metal_Only>
0

> <s_lp_Force_Field>
OPLS_2005

> <r_lp_Energy>
14.5792

> <b_lp_Chiralities_Consistent>
1

> <s_lp_Variant>
AV-unprocessed.smi:1195-2

> <Gold.Version>
5.8.1

> <Gold.Id.Protein>
6NUR|6NUR_protein|mol2

> <Gold.PLP.Fitness>
46.1058

> <Gold.PLP.PLP>
-32.4082

> <Gold.PLP.part.hbond>
-4.6400

> <Gold.PLP.part.metal>
0.0000

> <Gold.PLP.part.buried>
-2.0164

> <Gold.PLP.part.nonpolar>
-25.2236

> <Gold.PLP.part.repulsive>
0.1294

> <Gold.PLP.ligand.clash>
0.0000

> <Gold.PLP.ligand.torsion>
0.2672

> <Gold.PLP.Chemscore.Hbond>
3.8432

> <Gold.PLP.Chemscore.CHOScore>
0.8950

> <Gold.PLP.Chemscore.Metal>
0.0000

> <Gold.Chemscore.Hbonds>
donor molecule, donor type, donor heavy atom, donor atom, acceptor molecule, acceptor atom, score
      L1  H     8    26       P1 10747  0.81
      L1  H    11    27       P1 10747  1.00
      L1  H    16    34       P1  7921  1.00
      P1  H  6896  6907       L1     3  0.52
      L1  C    19    39       P1 10737  0.38

> <Gold.PLP.Chemscore.Internal.Correction>
0.0173

> <Gold.Rescore>
     Score         DG    S(hbond)    S(metal)    S(lipo)     H(rot)  DE(clash)    DE(int)     intcor
     16.06     -16.98       3.05        0.00      68.66       2.62       0.48       0.44       ----

> <Gold.Chemscore.Fitness>
16.0557

> <Gold.Chemscore.DG>
-16.9750

> <Gold.Chemscore.ZeroCoef>
-5.4800

> <Gold.Chemscore.Hbond>
3.0455

> <Gold.Chemscore.Metal>
0.0000

> <Gold.Chemscore.Lipo>
68.6615

> <Gold.Chemscore.Internal_Hbond>
0.0000

> <Gold.Chemscore.DEClash>
0.4787

> <Gold.Chemscore.DEInternal>
0.4406

> <Gold.Chemscore.Rot>
2.6212

> <Gold.Chemscore.Internal.Correction>
   9.000000E+99

> <Gold.Chemscore.Hbonds>
donor molecule, donor type, donor heavy atom, donor atom, acceptor molecule, acceptor atom, score
      L1  H     8    26       P1 10747  0.12
      L1  H    11    27       P1 10747  1.00
      L1  H    16    34       P1  7921  0.88
      P1  H  6896  6907       L1     3  0.06

> <Gold.Chemscore.Hbond.Weighted>
-10.1719

> <Gold.Chemscore.Metal.Weighted>
-0.0000

> <Gold.Chemscore.Lipo.Weighted>
-8.0334

> <Gold.Chemscore.Internal_Hbond.Weighted>
0.0000

> <Gold.Chemscore.DEClash.Weighted>
0.4787

> <Gold.Chemscore.DEInternal.Weighted>
0.4406

> <Gold.Chemscore.Rot.Weighted>
6.7103

> <Gold.Chemscore.Internal.Correction.Weighted>
   9.000000E+99

> <Gold.Protein.RotatedTorsions>
[ 6907 6896 6895 6894 ] final  148.15 input  -60.11 | X-H torsion
[ 7974 7965 7964 7962 ] final  171.94 input  175.53 | X-H torsion
[ 8008 7997 7996 7995 ] final  129.17 input   59.86 | X-H torsion
[ 10167 10162 10161 10158 ] final  136.92 input  -65.29 | X-H torsion
[ 10718 10713 10712 10709 ] final  127.83 input   66.30 | X-H torsion
[ 10763 10752 10751 10750 ] final   34.65 input  -60.55 | X-H torsion
[ 11005 11000 10999 10996 ] final   90.40 input  -57.11 | X-H torsion

> <Gold.Protein.ActiveResidues>
 VAL166  LYS551  ARG553  GLY616  TRP617  ASP618  TYR619  PRO620  LYS621  CYS622 
 ASP623  PHE694  ASN695  SER759  ASP760  ASP761  ALA762  ILE779  LEU786  VAL792 
 PHE793  MET794  SER795  GLU796  ALA797  LYS798  CYS799  TRP800  GLU811  SER814 

> <Gold.Protein.RotatedAtoms>
  152.1453  133.4488  159.4786 H   0  0  0  0  0  0  0  0  0  0  0  0  # atno 6907 bound_to 6896
  150.6890  134.2256  159.4423 H   0  0  0  0  0  0  0  0  0  0  0  0  # atno 6908 bound_to 6896
  152.0149  134.9855  160.0620 H   0  0  0  0  0  0  0  0  0  0  0  0  # atno 6909 bound_to 6896
  144.7281  139.9425  143.6429 H   0  0  0  0  0  0  0  0  0  0  0  0  # atno 7974 bound_to 7965
  156.2930  140.2627  156.2555 H   0  0  0  0  0  0  0  0  0  0  0  0  # atno 8008 bound_to 7997
  154.9840  140.0389  157.2308 H   0  0  0  0  0  0  0  0  0  0  0  0  # atno 8009 bound_to 7997
  154.7746  140.2784  155.6116 H   0  0  0  0  0  0  0  0  0  0  0  0  # atno 8010 bound_to 7997
  139.5162  144.6438  151.5496 H   0  0  0  0  0  0  0  0  0  0  0  0  # atno 10167 bound_to 10162
  157.5298  131.1098  150.9027 H   0  0  0  0  0  0  0  0  0  0  0  0  # atno 10718 bound_to 10713
  153.0154  135.6354  154.1702 H   0  0  0  0  0  0  0  0  0  0  0  0  # atno 10763 bound_to 10752
  154.1442  135.2833  155.3154 H   0  0  0  0  0  0  0  0  0  0  0  0  # atno 10764 bound_to 10752
  154.6102  135.5559  153.7526 H   0  0  0  0  0  0  0  0  0  0  0  0  # atno 10765 bound_to 10752
  139.8857  134.8611  156.3279 H   0  0  0  0  0  0  0  0  0  0  0  0  # atno 11005 bound_to 11000
  146.0773  139.3761  143.0486 LP  0  0  0  0  0  0  0  0  0  0  0  0  # atno 17320 bound_to 7965
  145.7887  140.9824  143.1060 LP  0  0  0  0  0  0  0  0  0  0  0  0  # atno 17321 bound_to 7965
  140.6215  143.9249  150.6530 LP  0  0  0  0  0  0  0  0  0  0  0  0  # atno 17342 bound_to 10162
  140.2524  143.3583  152.1394 LP  0  0  0  0  0  0  0  0  0  0  0  0  # atno 17343 bound_to 10162
  156.9611  130.5456  149.5286 LP  0  0  0  0  0  0  0  0  0  0  0  0  # atno 17370 bound_to 10713
  156.0414  130.5496  150.8779 LP  0  0  0  0  0  0  0  0  0  0  0  0  # atno 17371 bound_to 10713
  140.9743  133.7307  156.0579 LP  0  0  0  0  0  0  0  0  0  0  0  0  # atno 17394 bound_to 11000
  140.7831  134.3703  157.5482 LP  0  0  0  0  0  0  0  0  0  0  0  0  # atno 17395 bound_to 11000

$$$$
