AV-unprocessed.smi:2792|AV-procd|sdf|10773|dock3
  -GOLD-   2272015213D 1   1.00000     0.00000
 Structure written by MMmdl.
 44 46  0  0  0  0  0  0  0  0  1 V2000
  143.8797  142.1655  158.3428 C   0  0  0  0  0  0  0  0  0  0  0  0
  144.4407  142.6355  156.9905 C   0  0  0  0  0  0  0  0  0  0  0  0
  144.5919  141.5339  155.9092 C   0  0  2  0  0  0  0  0  0  0  0  0
  145.1147  142.0944  154.5731 C   0  0  0  0  0  0  0  0  0  0  0  0
  143.3088  140.9900  155.6631 O   0  0  0  0  0  0  0  0  0  0  0  0
  145.5206  140.3832  156.3777 C   0  0  0  0  0  0  0  0  0  0  0  0
  146.8742  140.8002  156.7120 N   0  0  0  0  0  0  0  0  0  0  0  0
  147.2714  141.4888  157.8370 C   0  0  0  0  0  0  0  0  0  0  0  0
  148.5490  141.7462  157.9122 N   0  0  0  0  0  0  0  0  0  0  0  0
  149.0686  141.2046  156.7436 C   0  0  0  0  0  0  0  0  0  0  0  0
  150.3729  141.1259  156.1915 C   0  0  0  0  0  0  0  0  0  0  0  0
  151.4381  141.6499  156.8369 N   0  0  0  0  0  0  0  0  0  0  0  0
  151.5889  141.4665  158.2769 C   0  0  0  0  0  0  0  0  0  0  0  0
  151.5843  142.7510  159.0908 C   0  0  0  0  0  0  0  0  0  0  0  0
  151.2016  143.9734  158.4973 C   0  0  0  0  0  0  0  0  0  0  0  0
  151.1957  145.1590  159.2574 C   0  0  0  0  0  0  0  0  0  0  0  0
  151.5745  145.1283  160.6133 C   0  0  0  0  0  0  0  0  0  0  0  0
  151.9601  143.9115  161.2085 C   0  0  0  0  0  0  0  0  0  0  0  0
  151.9668  142.7257  160.4483 C   0  0  0  0  0  0  0  0  0  0  0  0
  150.5143  140.5134  154.9865 N   0  0  0  0  0  0  0  0  0  0  0  0
  149.4466  140.0015  154.3662 C   0  0  0  0  0  0  0  0  0  0  0  0
  148.1723  139.9952  154.7648 N   0  0  0  0  0  0  0  0  0  0  0  0
  148.0293  140.6123  155.9732 C   0  0  0  0  0  0  0  0  0  0  0  0
  143.8839  142.9842  159.0624 H   0  0  0  0  0  0  0  0  0  0  0  0
  144.4756  141.3560  158.7647 H   0  0  0  0  0  0  0  0  0  0  0  0
  142.8501  141.8194  158.2550 H   0  0  0  0  0  0  0  0  0  0  0  0
  143.7985  143.4292  156.6070 H   0  0  0  0  0  0  0  0  0  0  0  0
  145.4092  143.0997  157.1790 H   0  0  0  0  0  0  0  0  0  0  0  0
  146.0781  142.5877  154.7047 H   0  0  0  0  0  0  0  0  0  0  0  0
  144.4277  142.8188  154.1353 H   0  0  0  0  0  0  0  0  0  0  0  0
  145.2507  141.3013  153.8370 H   0  0  0  0  0  0  0  0  0  0  0  0
  143.0016  141.3080  154.8278 H   0  0  0  0  0  0  0  0  0  0  0  0
  145.0963  139.8828  157.2496 H   0  0  0  0  0  0  0  0  0  0  0  0
  145.5885  139.6226  155.5985 H   0  0  0  0  0  0  0  0  0  0  0  0
  146.5792  141.7879  158.6105 H   0  0  0  0  0  0  0  0  0  0  0  0
  152.0319  142.3534  156.4219 H   0  0  0  0  0  0  0  0  0  0  0  0
  150.8102  140.7935  158.6380 H   0  0  0  0  0  0  0  0  0  0  0  0
  152.5365  140.9577  158.4542 H   0  0  0  0  0  0  0  0  0  0  0  0
  150.9087  144.0048  157.4580 H   0  0  0  0  0  0  0  0  0  0  0  0
  150.8995  146.0916  158.8004 H   0  0  0  0  0  0  0  0  0  0  0  0
  151.5685  146.0372  161.1969 H   0  0  0  0  0  0  0  0  0  0  0  0
  152.2498  143.8869  162.2486 H   0  0  0  0  0  0  0  0  0  0  0  0
  152.2609  141.7958  160.9125 H   0  0  0  0  0  0  0  0  0  0  0  0
  149.6413  139.5298  153.4145 H   0  0  0  0  0  0  0  0  0  0  0  0
  1  2  1  0  0  0  0
  1 24  1  0  0  0  0
  1 25  1  0  0  0  0
  1 26  1  0  0  0  0
  2  3  1  0  0  0  0
  2 27  1  0  0  0  0
  2 28  1  0  0  0  0
  3  4  1  0  0  0  0
  3  5  1  0  0  0  0
  3  6  1  0  0  0  0
  4 29  1  0  0  0  0
  4 30  1  0  0  0  0
  4 31  1  0  0  0  0
  5 32  1  0  0  0  0
  6  7  1  0  0  0  0
  6 33  1  0  0  0  0
  6 34  1  0  0  0  0
  7 23  1  0  0  0  0
  7  8  1  0  0  0  0
  8  9  2  0  0  0  0
  8 35  1  0  0  0  0
  9 10  1  0  0  0  0
 10 23  2  0  0  0  0
 10 11  1  0  0  0  0
 11 12  1  0  0  0  0
 11 20  2  0  0  0  0
 12 13  1  0  0  0  0
 12 36  1  0  0  0  0
 13 14  1  0  0  0  0
 13 37  1  0  0  0  0
 13 38  1  0  0  0  0
 14 19  1  0  0  0  0
 14 15  2  0  0  0  0
 15 16  1  0  0  0  0
 15 39  1  0  0  0  0
 16 17  2  0  0  0  0
 16 40  1  0  0  0  0
 17 18  1  0  0  0  0
 17 41  1  0  0  0  0
 18 19  2  0  0  0  0
 18 42  1  0  0  0  0
 19 43  1  0  0  0  0
 20 21  1  0  0  0  0
 21 22  2  0  0  0  0
 21 44  1  0  0  0  0
 22 23  1  0  0  0  0
M  END
> <s_m_source_file>
AV-unprocessed.smi

> <i_m_source_file_index>
2792

> <i_lp_mmshare_version>
43012

> <i_f3d_flags>
0

> <s_epik_input>
W0NIM11bQ0gyXVtDQEBdKFtDSDNdKShbT0hdKVtDSDJdbihbY0hdbjEpYyhjMTIpbltjSF1uYzJbTkhdW0NIMl1jM1tjSF1bY0hdW2NIXVtjSF1bY0hdMw==

> <s_epik_cmdline>
J2VwaWtfcHl0aG9uJywgJy1waCcsICc3LjAnLCAnLXRuJywgJzgnLCAnLW1hJywgJzIwMCcsICctbWV0YWxfYmluZGluZycsICctaW1hZScsICc8aW5maWxlLm1hZT4nLCAnLW9tYWUnLCAnPG91dGZpbGUubWFlPic=

> <r_lp_tautomer_probability>
1

> <r_epik_Ionization_Penalty>
0.00163025

> <r_epik_Ionization_Penalty_Charging>
0

> <r_epik_Ionization_Penalty_Neutral>
0.00163025

> <r_epik_State_Penalty>
-0

> <r_epik_Charging_Adjusted_Penalty>
0

> <i_epik_Tot_Q>
0

> <i_epik_Tot_abs_Q>
0

> <r_epik_Metal_State_Penalty>
-0

> <b_epik_Metal_Only>
0

> <s_lp_Force_Field>
OPLS_2005

> <r_lp_Energy>
12.9035

> <b_lp_Chiralities_Consistent>
1

> <s_lp_Variant>
AV-unprocessed.smi:2792-2

> <Gold.Version>
5.8.1

> <Gold.Id.Protein>
6NUR|6NUR_protein|mol2

> <Gold.PLP.Fitness>
49.4517

> <Gold.PLP.PLP>
-42.0755

> <Gold.PLP.part.hbond>
-2.8900

> <Gold.PLP.part.metal>
0.0000

> <Gold.PLP.part.buried>
-3.2725

> <Gold.PLP.part.nonpolar>
-36.6750

> <Gold.PLP.part.repulsive>
1.2254

> <Gold.PLP.ligand.clash>
0.0000

> <Gold.PLP.ligand.torsion>
0.6569

> <Gold.PLP.Chemscore.Hbond>
1.8420

> <Gold.PLP.Chemscore.CHOScore>
1.0000

> <Gold.PLP.Chemscore.Metal>
0.0000

> <Gold.Chemscore.Hbonds>
donor molecule, donor type, donor heavy atom, donor atom, acceptor molecule, acceptor atom, score
      P1  H  7989  7998       L1    20  1.00
      L1  C    21    44       P1  7957  1.00

> <Gold.PLP.Chemscore.Internal.Correction>
0.1639

> <Gold.Rescore>
     Score         DG    S(hbond)    S(metal)    S(lipo)     H(rot)  DE(clash)    DE(int)     intcor
     10.84     -12.33       0.58        0.00      97.12       2.52       0.67       0.82       ----

> <Gold.Chemscore.Fitness>
10.8425

> <Gold.Chemscore.DG>
-12.3306

> <Gold.Chemscore.ZeroCoef>
-5.4800

> <Gold.Chemscore.Hbond>
0.5841

> <Gold.Chemscore.Metal>
0.0000

> <Gold.Chemscore.Lipo>
97.1242

> <Gold.Chemscore.Internal_Hbond>
0.0000

> <Gold.Chemscore.DEClash>
0.6730

> <Gold.Chemscore.DEInternal>
0.8151

> <Gold.Chemscore.Rot>
2.5250

> <Gold.Chemscore.Internal.Correction>
   9.000000E+99

> <Gold.Chemscore.Hbonds>
donor molecule, donor type, donor heavy atom, donor atom, acceptor molecule, acceptor atom, score
      P1  H  7989  7998       L1    20  0.24

> <Gold.Chemscore.Hbond.Weighted>
-1.9510

> <Gold.Chemscore.Metal.Weighted>
-0.0000

> <Gold.Chemscore.Lipo.Weighted>
-11.3635

> <Gold.Chemscore.Internal_Hbond.Weighted>
0.0000

> <Gold.Chemscore.DEClash.Weighted>
0.6730

> <Gold.Chemscore.DEInternal.Weighted>
0.8151

> <Gold.Chemscore.Rot.Weighted>
6.4639

> <Gold.Chemscore.Internal.Correction.Weighted>
   9.000000E+99

> <Gold.Protein.RotatedTorsions>
[ 6907 6896 6895 6894 ] final  131.01 input  -60.11 | X-H torsion
[ 7974 7965 7964 7962 ] final  145.64 input  175.53 | X-H torsion
[ 8008 7997 7996 7995 ] final  -89.77 input   59.86 | X-H torsion
[ 10167 10162 10161 10158 ] final -105.13 input  -65.29 | X-H torsion
[ 10718 10713 10712 10709 ] final   50.88 input   66.30 | X-H torsion
[ 10763 10752 10751 10750 ] final  156.57 input  -60.55 | X-H torsion
[ 11005 11000 10999 10996 ] final   53.91 input  -57.11 | X-H torsion

> <Gold.Protein.ActiveResidues>
 VAL166  LYS551  ARG553  GLY616  TRP617  ASP618  TYR619  PRO620  LYS621  CYS622 
 ASP623  PHE694  ASN695  SER759  ASP760  ASP761  ALA762  ILE779  LEU786  VAL792 
 PHE793  MET794  SER795  GLU796  ALA797  LYS798  CYS799  TRP800  GLU811  SER814 

> <Gold.Protein.RotatedAtoms>
  152.3469  133.6133  159.5916 H   0  0  0  0  0  0  0  0  0  0  0  0  # atno 6907 bound_to 6896
  150.7513  133.9634  159.3532 H   0  0  0  0  0  0  0  0  0  0  0  0  # atno 6908 bound_to 6896
  151.7491  135.0837  160.0379 H   0  0  0  0  0  0  0  0  0  0  0  0  # atno 6909 bound_to 6896
  144.8736  139.5808  143.5875 H   0  0  0  0  0  0  0  0  0  0  0  0  # atno 7974 bound_to 7965
  154.6905  140.0538  157.0358 H   0  0  0  0  0  0  0  0  0  0  0  0  # atno 8008 bound_to 7997
  155.0823  140.3211  155.4579 H   0  0  0  0  0  0  0  0  0  0  0  0  # atno 8009 bound_to 7997
  156.2726  140.2062  156.5951 H   0  0  0  0  0  0  0  0  0  0  0  0  # atno 8010 bound_to 7997
  140.2018  143.3812  152.1123 H   0  0  0  0  0  0  0  0  0  0  0  0  # atno 10167 bound_to 10162
  157.4928  130.8387  149.8222 H   0  0  0  0  0  0  0  0  0  0  0  0  # atno 10718 bound_to 10713
  154.1865  135.2797  155.3036 H   0  0  0  0  0  0  0  0  0  0  0  0  # atno 10763 bound_to 10752
  154.5962  135.5544  153.7331 H   0  0  0  0  0  0  0  0  0  0  0  0  # atno 10764 bound_to 10752
  153.0124  135.6380  154.2003 H   0  0  0  0  0  0  0  0  0  0  0  0  # atno 10765 bound_to 10752
  140.0729  134.5445  155.9027 H   0  0  0  0  0  0  0  0  0  0  0  0  # atno 11005 bound_to 11000
  146.2947  139.7242  142.9135 LP  0  0  0  0  0  0  0  0  0  0  0  0  # atno 17320 bound_to 7965
  145.4085  141.0394  143.3030 LP  0  0  0  0  0  0  0  0  0  0  0  0  # atno 17321 bound_to 7965
  139.5214  144.7045  151.5394 LP  0  0  0  0  0  0  0  0  0  0  0  0  # atno 17342 bound_to 10162
  140.6385  143.8937  150.6669 LP  0  0  0  0  0  0  0  0  0  0  0  0  # atno 17343 bound_to 10162
  156.0183  130.3805  150.2041 LP  0  0  0  0  0  0  0  0  0  0  0  0  # atno 17370 bound_to 10713
  157.0230  130.9985  151.3334 LP  0  0  0  0  0  0  0  0  0  0  0  0  # atno 17371 bound_to 10713
  141.2018  133.6621  156.5974 LP  0  0  0  0  0  0  0  0  0  0  0  0  # atno 17394 bound_to 11000
  140.3600  134.7695  157.4527 LP  0  0  0  0  0  0  0  0  0  0  0  0  # atno 17395 bound_to 11000

$$$$
