AV-unprocessed.smi:1973|AV-procd|sdf|7979|dock9
  -GOLD-   2272010153D 1   1.00000     0.00000
 Structure written by MMmdl.
 48 50  0  0  0  0  0  0  0  0  2 V2000
  152.0417  143.3770  158.6477 C   0  0  0  0  0  0  0  0  0  0  0  0
  150.9421  142.4996  158.8178 O   0  0  0  0  0  0  0  0  0  0  0  0
  151.0352  141.3475  157.9973 C   0  0  0  0  0  0  0  0  0  0  0  0
  150.7237  141.7426  156.5458 C   0  0  0  0  0  0  0  0  0  0  0  0
  150.4784  140.5647  155.7074 N   0  0  0  0  0  0  0  0  0  0  0  0
  149.2509  140.5727  155.0651 N   0  0  0  0  0  0  0  0  0  0  0  0
  148.9129  139.5872  154.2974 C   0  0  0  0  0  0  0  0  0  0  0  0
  147.6032  139.5566  153.5883 C   0  0  0  0  0  0  0  0  0  0  0  0
  146.8025  140.4904  153.6594 O   0  0  0  0  0  0  0  0  0  0  0  0
  147.3599  138.4443  152.8718 N   0  0  0  0  0  0  0  0  0  0  0  0
  146.1543  138.1969  152.0877 C   0  0  0  0  0  0  0  0  0  0  0  0
  145.7740  136.7043  152.0631 C   0  0  1  0  0  0  0  0  0  0  0  0
  144.3865  136.4067  152.6238 C   0  0  0  0  0  0  0  0  0  0  0  0
  144.0875  135.0259  152.0476 C   0  0  0  0  0  0  0  0  0  0  0  0
  144.6815  135.0295  150.6936 N   0  3  2  0  0  0  0  0  0  0  0  0
  145.1377  133.7001  150.2357 C   0  0  0  0  0  0  0  0  0  0  0  0
  144.3150  133.1385  149.1007 C   0  0  0  0  0  0  0  0  0  0  0  0
  144.1435  132.5958  150.5031 C   0  0  0  0  0  0  0  0  0  0  0  0
  145.7312  136.0751  150.6621 C   0  0  0  0  0  0  0  0  0  0  0  0
  149.8080  138.4602  154.0953 C   0  0  0  0  0  0  0  0  0  0  0  0
  150.9983  138.4634  154.7344 C   0  0  0  0  0  0  0  0  0  0  0  0
  151.4035  139.5625  155.6117 C   0  0  0  0  0  0  0  0  0  0  0  0
  152.4772  139.5829  156.2126 O   0  0  0  0  0  0  0  0  0  0  0  0
  151.9273  144.2401  159.3035 H   0  0  0  0  0  0  0  0  0  0  0  0
  152.1004  143.7406  157.6210 H   0  0  0  0  0  0  0  0  0  0  0  0
  152.9823  142.8853  158.8994 H   0  0  0  0  0  0  0  0  0  0  0  0
  152.0372  140.9212  158.0680 H   0  0  0  0  0  0  0  0  0  0  0  0
  150.3291  140.5894  158.3401 H   0  0  0  0  0  0  0  0  0  0  0  0
  149.8525  142.4000  156.5280 H   0  0  0  0  0  0  0  0  0  0  0  0
  151.5427  142.3369  156.1367 H   0  0  0  0  0  0  0  0  0  0  0  0
  148.0709  137.7269  152.8593 H   0  0  0  0  0  0  0  0  0  0  0  0
  145.3281  138.7909  152.4817 H   0  0  0  0  0  0  0  0  0  0  0  0
  146.3327  138.5549  151.0733 H   0  0  0  0  0  0  0  0  0  0  0  0
  146.4937  136.1430  152.6620 H   0  0  0  0  0  0  0  0  0  0  0  0
  144.3562  136.4246  153.7136 H   0  0  0  0  0  0  0  0  0  0  0  0
  143.6606  137.1313  152.2518 H   0  0  0  0  0  0  0  0  0  0  0  0
  144.5708  134.2648  152.6629 H   0  0  0  0  0  0  0  0  0  0  0  0
  143.0203  134.8047  152.0166 H   0  0  0  0  0  0  0  0  0  0  0  0
  146.2081  133.5083  150.2898 H   0  0  0  0  0  0  0  0  0  0  0  0
  143.5104  133.7500  148.6956 H   0  0  0  0  0  0  0  0  0  0  0  0
  144.8223  132.5014  148.3792 H   0  0  0  0  0  0  0  0  0  0  0  0
  144.5391  131.6022  150.7044 H   0  0  0  0  0  0  0  0  0  0  0  0
  143.2244  132.8458  151.0300 H   0  0  0  0  0  0  0  0  0  0  0  0
  145.4452  136.8119  149.9106 H   0  0  0  0  0  0  0  0  0  0  0  0
  146.7076  135.6798  150.3771 H   0  0  0  0  0  0  0  0  0  0  0  0
  149.5350  137.6346  153.4541 H   0  0  0  0  0  0  0  0  0  0  0  0
  151.6725  137.6312  154.5954 H   0  0  0  0  0  0  0  0  0  0  0  0
  143.9579  135.3362  150.0591 H   0  0  0  0  0  0  0  0  0  0  0  0
  1  2  1  0  0  0  0
  1 24  1  0  0  0  0
  1 25  1  0  0  0  0
  1 26  1  0  0  0  0
  2  3  1  0  0  0  0
  3  4  1  0  0  0  0
  3 27  1  0  0  0  0
  3 28  1  0  0  0  0
  4  5  1  0  0  0  0
  4 29  1  0  0  0  0
  4 30  1  0  0  0  0
  5 22  1  0  0  0  0
  5  6  1  0  0  0  0
  6  7  2  0  0  0  0
  7  8  1  0  0  0  0
  7 20  1  0  0  0  0
  8  9  2  0  0  0  0
  8 10  1  0  0  0  0
 10 11  1  0  0  0  0
 10 31  1  0  0  0  0
 11 12  1  0  0  0  0
 11 32  1  0  0  0  0
 11 33  1  0  0  0  0
 12 19  1  0  0  0  0
 12 13  1  0  0  0  0
 12 34  1  0  0  0  0
 13 14  1  0  0  0  0
 13 35  1  0  0  0  0
 13 36  1  0  0  0  0
 14 15  1  0  0  0  0
 14 37  1  0  0  0  0
 14 38  1  0  0  0  0
 15 16  1  0  0  0  0
 15 19  1  0  0  0  0
 15 48  1  0  0  0  0
 16 18  1  0  0  0  0
 16 17  1  0  0  0  0
 16 39  1  0  0  0  0
 17 18  1  0  0  0  0
 17 40  1  0  0  0  0
 17 41  1  0  0  0  0
 18 42  1  0  0  0  0
 18 43  1  0  0  0  0
 19 44  1  0  0  0  0
 19 45  1  0  0  0  0
 20 21  2  0  0  0  0
 20 46  1  0  0  0  0
 21 22  1  0  0  0  0
 21 47  1  0  0  0  0
 22 23  2  0  0  0  0
M  CHG  1  15   1
M  END
> <s_m_source_file>
AV-unprocessed.smi

> <i_m_source_file_index>
1973

> <i_lp_mmshare_version>
43012

> <i_f3d_flags>
0

> <s_epik_input>
W0NIM11PW0NIMl1bQ0gyXW4xbmMoW2NIXVtjSF1jMT1PKUMoPU8pW05IXVtDSDJdW0NAQEhdMltDSDJdW0NIMl1OKFtDSDJdMilbQ0hdM1tDSDJdW0NIMl0z

> <s_epik_cmdline>
J2VwaWtfcHl0aG9uJywgJy1waCcsICc3LjAnLCAnLXRuJywgJzgnLCAnLW1hJywgJzIwMCcsICctbWV0YWxfYmluZGluZycsICctaW1hZScsICc8aW5maWxlLm1hZT4nLCAnLW9tYWUnLCAnPG91dGZpbGUubWFlPic=

> <r_lp_tautomer_probability>
1

> <r_epik_Ionization_Penalty>
0.000225706

> <r_epik_Ionization_Penalty_Charging>
0.000223776

> <r_epik_Ionization_Penalty_Neutral>
1.93004e-06

> <r_epik_State_Penalty>
-0

> <r_epik_Charging_Adjusted_Penalty>
0.000223776

> <i_epik_Tot_Q>
1

> <i_epik_Tot_abs_Q>
1

> <r_epik_Metal_State_Penalty>
-0

> <b_epik_Metal_Only>
0

> <s_lp_Force_Field>
OPLS_2005

> <r_lp_Energy>
57.1885

> <b_lp_Chiralities_Consistent>
1

> <s_lp_Variant>
AV-unprocessed.smi:1973-4

> <Gold.Version>
5.8.1

> <Gold.Id.Protein>
6NUR|6NUR_protein|mol2

> <Gold.PLP.Fitness>
48.9878

> <Gold.PLP.PLP>
-45.9403

> <Gold.PLP.part.hbond>
-2.2690

> <Gold.PLP.part.metal>
0.0000

> <Gold.PLP.part.buried>
-4.4585

> <Gold.PLP.part.nonpolar>
-40.7366

> <Gold.PLP.part.repulsive>
0.3893

> <Gold.PLP.ligand.clash>
0.4774

> <Gold.PLP.ligand.torsion>
1.8596

> <Gold.PLP.Chemscore.Hbond>
1.9280

> <Gold.PLP.Chemscore.CHOScore>
0.0000

> <Gold.PLP.Chemscore.Metal>
0.0000

> <Gold.Chemscore.Hbonds>
donor molecule, donor type, donor heavy atom, donor atom, acceptor molecule, acceptor atom, score
      L1  H    10    31       P1  7948  0.94
      P1  H  7997  8010       L1    23  1.00

> <Gold.PLP.Chemscore.Internal.Correction>
1.4602

> <Gold.Rescore>
     Score         DG    S(hbond)    S(metal)    S(lipo)     H(rot)  DE(clash)    DE(int)     intcor
     15.95     -18.71       1.89        0.00     102.39       1.97       0.16       2.59       ----

> <Gold.Chemscore.Fitness>
15.9545

> <Gold.Chemscore.DG>
-18.7117

> <Gold.Chemscore.ZeroCoef>
-5.4800

> <Gold.Chemscore.Hbond>
1.8856

> <Gold.Chemscore.Metal>
0.0000

> <Gold.Chemscore.Lipo>
102.3921

> <Gold.Chemscore.Internal_Hbond>
0.0000

> <Gold.Chemscore.DEClash>
0.1643

> <Gold.Chemscore.DEInternal>
2.5929

> <Gold.Chemscore.Rot>
1.9711

> <Gold.Chemscore.Internal.Correction>
   9.000000E+99

> <Gold.Chemscore.Hbonds>
donor molecule, donor type, donor heavy atom, donor atom, acceptor molecule, acceptor atom, score
      L1  H    10    31       P1  7948  0.89
      P1  H  7997  8010       L1    23  0.98

> <Gold.Chemscore.Hbond.Weighted>
-6.2978

> <Gold.Chemscore.Metal.Weighted>
-0.0000

> <Gold.Chemscore.Lipo.Weighted>
-11.9799

> <Gold.Chemscore.Internal_Hbond.Weighted>
0.0000

> <Gold.Chemscore.DEClash.Weighted>
0.1643

> <Gold.Chemscore.DEInternal.Weighted>
2.5929

> <Gold.Chemscore.Rot.Weighted>
5.0460

> <Gold.Chemscore.Internal.Correction.Weighted>
   9.000000E+99

> <Gold.Protein.RotatedTorsions>
[ 6907 6896 6895 6894 ] final  -57.48 input  -60.11 | X-H torsion
[ 7974 7965 7964 7962 ] final -149.01 input  175.53 | X-H torsion
[ 8008 7997 7996 7995 ] final   89.48 input   59.86 | X-H torsion
[ 10167 10162 10161 10158 ] final   -8.66 input  -65.29 | X-H torsion
[ 10718 10713 10712 10709 ] final  -47.98 input   66.30 | X-H torsion
[ 10763 10752 10751 10750 ] final  -49.32 input  -60.55 | X-H torsion
[ 11005 11000 10999 10996 ] final   41.29 input  -57.11 | X-H torsion

> <Gold.Protein.ActiveResidues>
 VAL166  LYS551  ARG553  GLY616  TRP617  ASP618  TYR619  PRO620  LYS621  CYS622 
 ASP623  PHE694  ASN695  SER759  ASP760  ASP761  ALA762  ILE779  LEU786  VAL792 
 PHE793  MET794  SER795  GLU796  ALA797  LYS798  CYS799  TRP800  GLU811  SER814 

> <Gold.Protein.RotatedAtoms>
  150.8083  134.7221  159.6663 H   0  0  0  0  0  0  0  0  0  0  0  0  # atno 6907 bound_to 6896
  152.4202  134.5965  159.9998 H   0  0  0  0  0  0  0  0  0  0  0  0  # atno 6908 bound_to 6896
  151.6182  133.3304  159.3118 H   0  0  0  0  0  0  0  0  0  0  0  0  # atno 6909 bound_to 6896
  144.7994  140.5121  143.5718 H   0  0  0  0  0  0  0  0  0  0  0  0  # atno 7974 bound_to 7965
  156.0005  140.3360  155.6840 H   0  0  0  0  0  0  0  0  0  0  0  0  # atno 8008 bound_to 7997
  155.6297  140.0684  157.2670 H   0  0  0  0  0  0  0  0  0  0  0  0  # atno 8009 bound_to 7997
  154.4247  140.1762  156.1447 H   0  0  0  0  0  0  0  0  0  0  0  0  # atno 8010 bound_to 7997
  140.7065  143.5944  150.8860 H   0  0  0  0  0  0  0  0  0  0  0  0  # atno 10167 bound_to 10162
  156.2032  130.4157  149.9213 H   0  0  0  0  0  0  0  0  0  0  0  0  # atno 10718 bound_to 10713
  154.0922  135.6575  153.4854 H   0  0  0  0  0  0  0  0  0  0  0  0  # atno 10763 bound_to 10752
  153.0317  135.5205  154.7369 H   0  0  0  0  0  0  0  0  0  0  0  0  # atno 10764 bound_to 10752
  154.6496  135.2999  154.9972 H   0  0  0  0  0  0  0  0  0  0  0  0  # atno 10765 bound_to 10752
  140.1849  134.4058  155.8179 H   0  0  0  0  0  0  0  0  0  0  0  0  # atno 11005 bound_to 11000
  145.5592  139.1479  143.3351 LP  0  0  0  0  0  0  0  0  0  0  0  0  # atno 17320 bound_to 7965
  146.2271  140.5728  142.8991 LP  0  0  0  0  0  0  0  0  0  0  0  0  # atno 17321 bound_to 7965
  139.9670  143.6100  152.2985 LP  0  0  0  0  0  0  0  0  0  0  0  0  # atno 17342 bound_to 10162
  139.6673  144.7662  151.1849 LP  0  0  0  0  0  0  0  0  0  0  0  0  # atno 17343 bound_to 10162
  156.6916  130.8898  151.3589 LP  0  0  0  0  0  0  0  0  0  0  0  0  # atno 17370 bound_to 10713
  157.6997  130.9320  150.0749 LP  0  0  0  0  0  0  0  0  0  0  0  0  # atno 17371 bound_to 10713
  141.2224  133.7018  156.7994 LP  0  0  0  0  0  0  0  0  0  0  0  0  # atno 17394 bound_to 11000
  140.2225  134.8746  157.3392 LP  0  0  0  0  0  0  0  0  0  0  0  0  # atno 17395 bound_to 11000

$$$$
