AV-unprocessed.smi:2784|AV-procd|sdf|10726|dock5
  -GOLD-   2272015163D 1   1.00000     0.00000
 Structure written by MMmdl.
 31 32  0  0  0  0  0  0  0  0  1 V2000
  153.3728  141.8264  161.1760 C   0  0  0  0  0  0  0  0  0  0  0  0
  152.8023  143.1170  161.0272 O   0  0  0  0  0  0  0  0  0  0  0  0
  152.6155  143.5048  159.6730 C   0  0  2  0  0  0  0  0  0  0  0  0
  152.1914  144.9751  159.6178 C   0  0  0  0  0  0  0  0  0  0  0  0
  151.3702  145.0851  158.3380 C   0  0  0  0  0  0  0  0  0  0  0  0
  150.5845  143.7751  158.2944 C   0  0  0  0  0  0  0  0  0  0  0  0
  151.4837  142.7206  158.9693 C   0  0  1  0  0  0  0  0  0  0  0  0
  152.0369  141.7981  157.9806 N   0  0  0  0  0  0  0  0  0  0  0  0
  151.3146  140.9966  157.1850 C   0  0  0  0  0  0  0  0  0  0  0  0
  150.0838  140.9587  157.1943 O   0  0  0  0  0  0  0  0  0  0  0  0
  152.1059  140.2576  156.3897 N   0  0  0  0  0  0  0  0  0  0  0  0
  151.7067  139.2829  155.4407 C   0  0  0  0  0  0  0  0  0  0  0  0
  152.2009  138.0507  155.3110 N   0  0  0  0  0  0  0  0  0  0  0  0
  151.4952  137.5007  154.2507 C   0  0  0  0  0  0  0  0  0  0  0  0
  150.6061  138.4402  153.7956 C   0  0  0  0  0  0  0  0  0  0  0  0
  150.7301  139.5805  154.5433 O   0  0  0  0  0  0  0  0  0  0  0  0
  153.5144  141.6112  162.2350 H   0  0  0  0  0  0  0  0  0  0  0  0
  154.3468  141.7669  160.6891 H   0  0  0  0  0  0  0  0  0  0  0  0
  152.7280  141.0505  160.7625 H   0  0  0  0  0  0  0  0  0  0  0  0
  153.5541  143.4084  159.1227 H   0  0  0  0  0  0  0  0  0  0  0  0
  151.5566  145.2126  160.4728 H   0  0  0  0  0  0  0  0  0  0  0  0
  153.0410  145.6581  159.6356 H   0  0  0  0  0  0  0  0  0  0  0  0
  150.7245  145.9635  158.3259 H   0  0  0  0  0  0  0  0  0  0  0  0
  152.0362  145.1459  157.4764 H   0  0  0  0  0  0  0  0  0  0  0  0
  149.6681  143.8877  158.8754 H   0  0  0  0  0  0  0  0  0  0  0  0
  150.2869  143.5091  157.2792 H   0  0  0  0  0  0  0  0  0  0  0  0
  150.8952  142.1733  159.7083 H   0  0  0  0  0  0  0  0  0  0  0  0
  153.0429  141.7660  157.9039 H   0  0  0  0  0  0  0  0  0  0  0  0
  153.1010  140.4001  156.4776 H   0  0  0  0  0  0  0  0  0  0  0  0
  151.6792  136.4940  153.9058 H   0  0  0  0  0  0  0  0  0  0  0  0
  149.8695  138.4546  153.0059 H   0  0  0  0  0  0  0  0  0  0  0  0
  1  2  1  0  0  0  0
  1 17  1  0  0  0  0
  1 18  1  0  0  0  0
  1 19  1  0  0  0  0
  2  3  1  0  0  0  0
  3  7  1  0  0  0  0
  3  4  1  0  0  0  0
  3 20  1  0  0  0  0
  4  5  1  0  0  0  0
  4 21  1  0  0  0  0
  4 22  1  0  0  0  0
  5  6  1  0  0  0  0
  5 23  1  0  0  0  0
  5 24  1  0  0  0  0
  6  7  1  0  0  0  0
  6 25  1  0  0  0  0
  6 26  1  0  0  0  0
  7  8  1  0  0  0  0
  7 27  1  0  0  0  0
  8  9  1  0  0  0  0
  8 28  1  0  0  0  0
  9 10  2  0  0  0  0
  9 11  1  0  0  0  0
 11 12  1  0  0  0  0
 11 29  1  0  0  0  0
 12 16  1  0  0  0  0
 12 13  2  0  0  0  0
 13 14  1  0  0  0  0
 14 15  2  0  0  0  0
 14 30  1  0  0  0  0
 15 16  1  0  0  0  0
 15 31  1  0  0  0  0
M  END
> <s_m_source_file>
AV-unprocessed.smi

> <i_m_source_file_index>
2784

> <i_lp_mmshare_version>
43012

> <i_f3d_flags>
0

> <s_epik_input>
W0NIM11PW0NAQEhdMVtDSDJdW0NIMl1bQ0gyXVtDQEhdMVtOSF1DKD1PKVtOSF1jMm5bY0hdW2NIXW8y

> <s_epik_cmdline>
J2VwaWtfcHl0aG9uJywgJy1waCcsICc3LjAnLCAnLXRuJywgJzgnLCAnLW1hJywgJzIwMCcsICctbWV0YWxfYmluZGluZycsICctaW1hZScsICc8aW5maWxlLm1hZT4nLCAnLW9tYWUnLCAnPG91dGZpbGUubWFlPic=

> <r_lp_tautomer_probability>
0.785861

> <r_epik_Ionization_Penalty>
4.58897e-05

> <r_epik_Ionization_Penalty_Charging>
0

> <r_epik_Ionization_Penalty_Neutral>
4.58897e-05

> <r_epik_State_Penalty>
0.0380021

> <r_epik_Charging_Adjusted_Penalty>
0.0380021

> <i_epik_Tot_Q>
0

> <i_epik_Tot_abs_Q>
0

> <r_epik_Metal_State_Penalty>
0.0585611

> <b_epik_Metal_Only>
0

> <s_lp_Force_Field>
OPLS_2005

> <r_lp_Energy>
17.9939

> <b_lp_Chiralities_Consistent>
1

> <s_lp_Variant>
AV-unprocessed.smi:2784-1

> <Gold.Version>
5.8.1

> <Gold.Id.Protein>
6NUR|6NUR_protein|mol2

> <Gold.PLP.Fitness>
40.5396

> <Gold.PLP.PLP>
-31.2154

> <Gold.PLP.part.hbond>
-1.0000

> <Gold.PLP.part.metal>
0.0000

> <Gold.PLP.part.buried>
-2.4066

> <Gold.PLP.part.nonpolar>
-26.2240

> <Gold.PLP.part.repulsive>
0.4560

> <Gold.PLP.ligand.clash>
0.0000

> <Gold.PLP.ligand.torsion>
0.4721

> <Gold.PLP.Chemscore.Hbond>
1.0000

> <Gold.PLP.Chemscore.CHOScore>
2.4209

> <Gold.PLP.Chemscore.Metal>
0.0000

> <Gold.Chemscore.Hbonds>
donor molecule, donor type, donor heavy atom, donor atom, acceptor molecule, acceptor atom, score
      P1  H  7989  7998       L1    16  1.00
      L1  C    14    30       P1  7949  0.76
      L1  C    15    31       P1  7948  0.67
      L1  C    15    31       P1  7957  0.99

> <Gold.PLP.Chemscore.Internal.Correction>
0.0056

> <Gold.Rescore>
     Score         DG    S(hbond)    S(metal)    S(lipo)     H(rot)  DE(clash)    DE(int)     intcor
     14.21     -14.93       0.92        0.00      83.41       1.32       0.04       0.69       ----

> <Gold.Chemscore.Fitness>
14.2071

> <Gold.Chemscore.DG>
-14.9318

> <Gold.Chemscore.ZeroCoef>
-5.4800

> <Gold.Chemscore.Hbond>
0.9224

> <Gold.Chemscore.Metal>
0.0000

> <Gold.Chemscore.Lipo>
83.4110

> <Gold.Chemscore.Internal_Hbond>
0.0000

> <Gold.Chemscore.DEClash>
0.0370

> <Gold.Chemscore.DEInternal>
0.6877

> <Gold.Chemscore.Rot>
1.3235

> <Gold.Chemscore.Internal.Correction>
   9.000000E+99

> <Gold.Chemscore.Hbonds>
donor molecule, donor type, donor heavy atom, donor atom, acceptor molecule, acceptor atom, score
      P1  H  7989  7998       L1    16  0.15

> <Gold.Chemscore.Hbond.Weighted>
-3.0808

> <Gold.Chemscore.Metal.Weighted>
-0.0000

> <Gold.Chemscore.Lipo.Weighted>
-9.7591

> <Gold.Chemscore.Internal_Hbond.Weighted>
0.0000

> <Gold.Chemscore.DEClash.Weighted>
0.0370

> <Gold.Chemscore.DEInternal.Weighted>
0.6877

> <Gold.Chemscore.Rot.Weighted>
3.3882

> <Gold.Chemscore.Internal.Correction.Weighted>
   9.000000E+99

> <Gold.Protein.RotatedTorsions>
[ 6907 6896 6895 6894 ] final  -25.46 input  -60.11 | X-H torsion
[ 7974 7965 7964 7962 ] final   93.78 input  175.53 | X-H torsion
[ 8008 7997 7996 7995 ] final  -29.08 input   59.86 | X-H torsion
[ 10167 10162 10161 10158 ] final  121.45 input  -65.29 | X-H torsion
[ 10718 10713 10712 10709 ] final   98.62 input   66.30 | X-H torsion
[ 10763 10752 10751 10750 ] final  -28.71 input  -60.55 | X-H torsion
[ 11005 11000 10999 10996 ] final  -52.49 input  -57.11 | X-H torsion

> <Gold.Protein.ActiveResidues>
 VAL166  LYS551  ARG553  GLY616  TRP617  ASP618  TYR619  PRO620  LYS621  CYS622 
 ASP623  PHE694  ASN695  SER759  ASP760  ASP761  ALA762  ILE779  LEU786  VAL792 
 PHE793  MET794  SER795  GLU796  ALA797  LYS798  CYS799  TRP800  GLU811  SER814 

> <Gold.Protein.RotatedAtoms>
  151.1748  135.0334  159.8766 H   0  0  0  0  0  0  0  0  0  0  0  0  # atno 6907 bound_to 6896
  152.5447  134.1129  159.8376 H   0  0  0  0  0  0  0  0  0  0  0  0  # atno 6908 bound_to 6896
  151.1239  133.5038  159.2633 H   0  0  0  0  0  0  0  0  0  0  0  0  # atno 6909 bound_to 6896
  145.4743  139.2280  143.2917 H   0  0  0  0  0  0  0  0  0  0  0  0  # atno 7974 bound_to 7965
  154.4304  140.1828  156.1192 H   0  0  0  0  0  0  0  0  0  0  0  0  # atno 8008 bound_to 7997
  156.0157  140.3346  155.6961 H   0  0  0  0  0  0  0  0  0  0  0  0  # atno 8009 bound_to 7997
  155.6048  140.0644  157.2713 H   0  0  0  0  0  0  0  0  0  0  0  0  # atno 8010 bound_to 7997
  139.5919  144.7028  151.3270 H   0  0  0  0  0  0  0  0  0  0  0  0  # atno 10167 bound_to 10162
  157.6892  131.0645  150.4824 H   0  0  0  0  0  0  0  0  0  0  0  0  # atno 10718 bound_to 10713
  153.7527  135.6925  153.4942 H   0  0  0  0  0  0  0  0  0  0  0  0  # atno 10763 bound_to 10752
  153.1992  135.4443  155.0244 H   0  0  0  0  0  0  0  0  0  0  0  0  # atno 10764 bound_to 10752
  154.8181  135.3409  154.7047 H   0  0  0  0  0  0  0  0  0  0  0  0  # atno 10765 bound_to 10752
  141.0927  133.6630  156.4033 H   0  0  0  0  0  0  0  0  0  0  0  0  # atno 11005 bound_to 11000
  146.2378  140.5524  142.8947 LP  0  0  0  0  0  0  0  0  0  0  0  0  # atno 17320 bound_to 7965
  144.7926  140.6062  143.6531 LP  0  0  0  0  0  0  0  0  0  0  0  0  # atno 17321 bound_to 7965
  140.7180  143.7214  150.7693 LP  0  0  0  0  0  0  0  0  0  0  0  0  # atno 17342 bound_to 10162
  140.0772  143.5004  152.2549 LP  0  0  0  0  0  0  0  0  0  0  0  0  # atno 17343 bound_to 10162
  156.5156  130.4149  149.6278 LP  0  0  0  0  0  0  0  0  0  0  0  0  # atno 17370 bound_to 10713
  156.3201  130.7276  151.2186 LP  0  0  0  0  0  0  0  0  0  0  0  0  # atno 17371 bound_to 10713
  140.5213  134.6301  157.5319 LP  0  0  0  0  0  0  0  0  0  0  0  0  # atno 17394 bound_to 11000
  139.9756  134.7220  155.9955 LP  0  0  0  0  0  0  0  0  0  0  0  0  # atno 17395 bound_to 11000

$$$$
