AV-unprocessed.smi:3236|AV-procd|sdf|12362|dock10
  -GOLD-   2272018223D 1   1.00000     0.00000
 Structure written by MMmdl.
 40 41  0  0  0  0  0  0  0  0  1 V2000
  154.3144  140.3308  161.8820 C   0  0  0  0  0  0  0  0  0  0  0  0
  154.0128  141.7391  161.3513 C   0  0  0  0  0  0  0  0  0  0  0  0
  152.6969  142.2994  161.9329 C   0  0  0  0  0  0  0  0  0  0  0  0
  152.3564  143.6695  161.3192 C   0  0  0  0  0  0  0  0  0  0  0  0
  152.2841  143.5279  159.8586 N   0  0  0  0  0  0  0  0  0  0  0  0
  151.1544  143.6026  159.1129 C   0  0  0  0  0  0  0  0  0  0  0  0
  150.0568  143.8617  159.6114 O   0  0  0  0  0  0  0  0  0  0  0  0
  151.2471  143.3637  157.5958 C   0  0  0  0  0  0  0  0  0  0  0  0
  150.1048  142.6144  157.0582 N   0  0  0  0  0  0  0  0  0  0  0  0
  150.5244  141.7289  155.9813 C   0  0  0  0  0  0  0  0  0  0  0  0
  149.5805  140.5181  155.8884 C   0  0  0  0  0  0  0  0  0  0  0  0
  148.4058  140.7910  155.0796 N   0  0  0  0  0  0  0  0  0  0  0  0
  148.0861  141.9447  154.3954 C   0  0  0  0  0  0  0  0  0  0  0  0
  146.8834  141.7342  153.7841 C   0  0  0  0  0  0  0  0  0  0  0  0
  146.5419  140.4047  154.1588 C   0  0  0  0  0  0  0  0  0  0  0  0
  147.4561  139.8416  154.9326 N   0  0  0  0  0  0  0  0  0  0  0  0
  153.5886  143.1675  159.2883 C   0  0  0  0  0  0  0  0  0  0  0  0
  153.9921  141.7756  159.8082 C   0  0  0  0  0  0  0  0  0  0  0  0
  153.5413  139.6212  161.5858 H   0  0  0  0  0  0  0  0  0  0  0  0
  154.3718  140.3258  162.9707 H   0  0  0  0  0  0  0  0  0  0  0  0
  155.2674  139.9636  161.5004 H   0  0  0  0  0  0  0  0  0  0  0  0
  154.8206  142.3933  161.6824 H   0  0  0  0  0  0  0  0  0  0  0  0
  151.8793  141.6037  161.7380 H   0  0  0  0  0  0  0  0  0  0  0  0
  152.7756  142.3890  163.0168 H   0  0  0  0  0  0  0  0  0  0  0  0
  151.4455  144.0585  161.7706 H   0  0  0  0  0  0  0  0  0  0  0  0
  153.1338  144.3927  161.5700 H   0  0  0  0  0  0  0  0  0  0  0  0
  151.3120  144.3278  157.0891 H   0  0  0  0  0  0  0  0  0  0  0  0
  152.1638  142.8103  157.3864 H   0  0  0  0  0  0  0  0  0  0  0  0
  149.3827  143.2351  156.7214 H   0  0  0  0  0  0  0  0  0  0  0  0
  150.5046  142.2771  155.0384 H   0  0  0  0  0  0  0  0  0  0  0  0
  151.5515  141.3966  156.1398 H   0  0  0  0  0  0  0  0  0  0  0  0
  150.1015  139.6541  155.4737 H   0  0  0  0  0  0  0  0  0  0  0  0
  149.2485  140.2297  156.8867 H   0  0  0  0  0  0  0  0  0  0  0  0
  148.7320  142.8103  154.4036 H   0  0  0  0  0  0  0  0  0  0  0  0
  146.3309  142.4257  153.1658 H   0  0  0  0  0  0  0  0  0  0  0  0
  145.6627  139.8364  153.8933 H   0  0  0  0  0  0  0  0  0  0  0  0
  153.5912  143.1689  158.1976 H   0  0  0  0  0  0  0  0  0  0  0  0
  154.3306  143.9095  159.5864 H   0  0  0  0  0  0  0  0  0  0  0  0
  154.9719  141.5040  159.4140 H   0  0  0  0  0  0  0  0  0  0  0  0
  153.2892  141.0317  159.4296 H   0  0  0  0  0  0  0  0  0  0  0  0
  1  2  1  0  0  0  0
  1 19  1  0  0  0  0
  1 20  1  0  0  0  0
  1 21  1  0  0  0  0
  2 18  1  0  0  0  0
  2  3  1  0  0  0  0
  2 22  1  0  0  0  0
  3  4  1  0  0  0  0
  3 23  1  0  0  0  0
  3 24  1  0  0  0  0
  4  5  1  0  0  0  0
  4 25  1  0  0  0  0
  4 26  1  0  0  0  0
  5  6  1  0  0  0  0
  5 17  1  0  0  0  0
  6  7  2  0  0  0  0
  6  8  1  0  0  0  0
  8  9  1  0  0  0  0
  8 27  1  0  0  0  0
  8 28  1  0  0  0  0
  9 10  1  0  0  0  0
  9 29  1  0  0  0  0
 10 11  1  0  0  0  0
 10 30  1  0  0  0  0
 10 31  1  0  0  0  0
 11 12  1  0  0  0  0
 11 32  1  0  0  0  0
 11 33  1  0  0  0  0
 12 16  1  0  0  0  0
 12 13  1  0  0  0  0
 13 14  2  0  0  0  0
 13 34  1  0  0  0  0
 14 15  1  0  0  0  0
 14 35  1  0  0  0  0
 15 16  2  0  0  0  0
 15 36  1  0  0  0  0
 17 18  1  0  0  0  0
 17 37  1  0  0  0  0
 17 38  1  0  0  0  0
 18 39  1  0  0  0  0
 18 40  1  0  0  0  0
M  END
> <s_m_source_file>
AV-unprocessed.smi

> <i_m_source_file_index>
3236

> <i_lp_mmshare_version>
43012

> <i_f3d_flags>
0

> <s_epik_input>
W0NIM11bQ0hdMVtDSDJdW0NIMl1OKFtDSDJdW0NIMl0xKUMoPU8pW0NIMl1bTkhdW0NIMl1bQ0gyXW4yW2NIXVtjSF1bY0hdbjI=

> <s_epik_cmdline>
J2VwaWtfcHl0aG9uJywgJy1waCcsICc3LjAnLCAnLXRuJywgJzgnLCAnLW1hJywgJzIwMCcsICctbWV0YWxfYmluZGluZycsICctaW1hZScsICc8aW5maWxlLm1hZT4nLCAnLW9tYWUnLCAnPG91dGZpbGUubWFlPic=

> <r_lp_tautomer_probability>
1

> <r_epik_Ionization_Penalty>
0.778591

> <r_epik_Ionization_Penalty_Charging>
0

> <r_epik_Ionization_Penalty_Neutral>
0.778591

> <r_epik_State_Penalty>
0.806071

> <r_epik_Charging_Adjusted_Penalty>
0.806071

> <i_epik_Tot_Q>
0

> <i_epik_Tot_abs_Q>
0

> <r_epik_Metal_State_Penalty>
0.80479

> <b_epik_Metal_Only>
0

> <s_lp_Force_Field>
OPLS_2005

> <r_lp_Energy>
26.1059

> <b_lp_Chiralities_Consistent>
1

> <s_lp_Variant>
AV-unprocessed.smi:3236-2

> <Gold.Version>
5.8.1

> <Gold.Id.Protein>
6NUR|6NUR_protein|mol2

> <Gold.PLP.Fitness>
49.1868

> <Gold.PLP.PLP>
-41.8920

> <Gold.PLP.part.hbond>
-1.2555

> <Gold.PLP.part.metal>
0.0000

> <Gold.PLP.part.buried>
-3.5576

> <Gold.PLP.part.nonpolar>
-37.3004

> <Gold.PLP.part.repulsive>
0.1879

> <Gold.PLP.ligand.clash>
0.0000

> <Gold.PLP.ligand.torsion>
0.8585

> <Gold.PLP.Chemscore.Hbond>
0.9920

> <Gold.PLP.Chemscore.CHOScore>
2.0000

> <Gold.PLP.Chemscore.Metal>
0.0000

> <Gold.Chemscore.Hbonds>
donor molecule, donor type, donor heavy atom, donor atom, acceptor molecule, acceptor atom, score
      L1  H     9    29       P1  8028  0.99
      L1  C    13    34       P1  8028  1.00
      L1  C    15    36       P1 10175  1.00

> <Gold.PLP.Chemscore.Internal.Correction>
0.0356

> <Gold.Rescore>
     Score         DG    S(hbond)    S(metal)    S(lipo)     H(rot)  DE(clash)    DE(int)     intcor
     16.40     -17.40       0.99        0.00     111.47       1.73       0.04       0.96       ----

> <Gold.Chemscore.Fitness>
16.3990

> <Gold.Chemscore.DG>
-17.4014

> <Gold.Chemscore.ZeroCoef>
-5.4800

> <Gold.Chemscore.Hbond>
0.9903

> <Gold.Chemscore.Metal>
0.0000

> <Gold.Chemscore.Lipo>
111.4666

> <Gold.Chemscore.Internal_Hbond>
0.0000

> <Gold.Chemscore.DEClash>
0.0389

> <Gold.Chemscore.DEInternal>
0.9635

> <Gold.Chemscore.Rot>
1.7296

> <Gold.Chemscore.Internal.Correction>
   9.000000E+99

> <Gold.Chemscore.Hbonds>
donor molecule, donor type, donor heavy atom, donor atom, acceptor molecule, acceptor atom, score
      L1  H     9    29       P1  8028  0.93

> <Gold.Chemscore.Hbond.Weighted>
-3.3076

> <Gold.Chemscore.Metal.Weighted>
-0.0000

> <Gold.Chemscore.Lipo.Weighted>
-13.0416

> <Gold.Chemscore.Internal_Hbond.Weighted>
0.0000

> <Gold.Chemscore.DEClash.Weighted>
0.0389

> <Gold.Chemscore.DEInternal.Weighted>
0.9635

> <Gold.Chemscore.Rot.Weighted>
4.4278

> <Gold.Chemscore.Internal.Correction.Weighted>
   9.000000E+99

> <Gold.Protein.RotatedTorsions>
[ 6907 6896 6895 6894 ] final   69.13 input  -60.11 | X-H torsion
[ 7974 7965 7964 7962 ] final   68.49 input  175.53 | X-H torsion
[ 8008 7997 7996 7995 ] final  -37.15 input   59.86 | X-H torsion
[ 10167 10162 10161 10158 ] final  148.61 input  -65.29 | X-H torsion
[ 10718 10713 10712 10709 ] final  -55.24 input   66.30 | X-H torsion
[ 10763 10752 10751 10750 ] final  -36.62 input  -60.55 | X-H torsion
[ 11005 11000 10999 10996 ] final  133.62 input  -57.11 | X-H torsion

> <Gold.Protein.ActiveResidues>
 VAL166  LYS551  ARG553  GLY616  TRP617  ASP618  TYR619  PRO620  LYS621  CYS622 
 ASP623  PHE694  ASN695  SER759  ASP760  ASP761  ALA762  ILE779  LEU786  VAL792 
 PHE793  MET794  SER795  GLU796  ALA797  LYS798  CYS799  TRP800  GLU811  SER814 

> <Gold.Protein.RotatedAtoms>
  152.4666  134.5061  159.9739 H   0  0  0  0  0  0  0  0  0  0  0  0  # atno 6907 bound_to 6896
  151.5097  133.3481  159.2891 H   0  0  0  0  0  0  0  0  0  0  0  0  # atno 6908 bound_to 6896
  150.8653  134.8044  159.7176 H   0  0  0  0  0  0  0  0  0  0  0  0  # atno 6909 bound_to 6896
  145.8020  139.2987  143.1149 H   0  0  0  0  0  0  0  0  0  0  0  0  # atno 7974 bound_to 7965
  154.4059  140.1612  156.2489 H   0  0  0  0  0  0  0  0  0  0  0  0  # atno 8008 bound_to 7997
  155.9136  140.3426  155.6095 H   0  0  0  0  0  0  0  0  0  0  0  0  # atno 8009 bound_to 7997
  155.7306  140.0780  157.2281 H   0  0  0  0  0  0  0  0  0  0  0  0  # atno 8010 bound_to 7997
  139.4872  144.5666  151.7133 H   0  0  0  0  0  0  0  0  0  0  0  0  # atno 10167 bound_to 10162
  156.1384  130.4155  150.0145 H   0  0  0  0  0  0  0  0  0  0  0  0  # atno 10718 bound_to 10713
  153.8827  135.6820  153.4766 H   0  0  0  0  0  0  0  0  0  0  0  0  # atno 10763 bound_to 10752
  153.1224  135.4734  154.9215 H   0  0  0  0  0  0  0  0  0  0  0  0  # atno 10764 bound_to 10752
  154.7661  135.3224  154.8236 H   0  0  0  0  0  0  0  0  0  0  0  0  # atno 10765 bound_to 10752
  139.9863  134.9531  156.9750 H   0  0  0  0  0  0  0  0  0  0  0  0  # atno 11005 bound_to 11000
  145.9868  140.8636  143.0086 LP  0  0  0  0  0  0  0  0  0  0  0  0  # atno 17320 bound_to 7965
  144.6767  140.2158  143.7372 LP  0  0  0  0  0  0  0  0  0  0  0  0  # atno 17321 bound_to 7965
  140.5245  144.0827  150.6033 LP  0  0  0  0  0  0  0  0  0  0  0  0  # atno 17342 bound_to 10162
  140.3796  143.2810  152.0186 LP  0  0  0  0  0  0  0  0  0  0  0  0  # atno 17343 bound_to 10162
  156.8037  130.9300  151.3645 LP  0  0  0  0  0  0  0  0  0  0  0  0  # atno 17370 bound_to 10713
  157.6554  130.8920  149.9717 LP  0  0  0  0  0  0  0  0  0  0  0  0  # atno 17371 bound_to 10713
  140.4996  134.1111  155.7248 LP  0  0  0  0  0  0  0  0  0  0  0  0  # atno 17394 bound_to 11000
  141.1527  133.8939  157.2056 LP  0  0  0  0  0  0  0  0  0  0  0  0  # atno 17395 bound_to 11000

$$$$
