AV-unprocessed.smi:2501|AV-procd|sdf|9843|dock8
  -GOLD-   2272013473D 1   1.00000     0.00000
 Structure written by MMmdl.
 43 44  0  0  0  0  0  0  0  0  1 V2000
  153.9719  141.2722  160.6031 C   0  0  0  0  0  0  0  0  0  0  0  0
  153.3676  142.6613  160.4984 C   0  0  0  0  0  0  0  0  0  0  0  0
  153.2130  143.2640  159.2308 C   0  0  0  0  0  0  0  0  0  0  0  0
  152.6847  144.4922  159.0461 N   0  0  0  0  0  0  0  0  0  0  0  0
  152.2853  145.1766  160.1378 C   0  0  0  0  0  0  0  0  0  0  0  0
  152.3926  144.6722  161.4483 C   0  0  0  0  0  0  0  0  0  0  0  0
  152.9432  143.3875  161.6392 C   0  0  0  0  0  0  0  0  0  0  0  0
  153.0662  142.8305  163.0489 C   0  0  0  0  0  0  0  0  0  0  0  0
  154.5057  142.4218  163.3907 C   0  0  0  0  0  0  0  0  0  0  0  0
  154.6635  142.2669  164.8306 N   0  0  0  0  0  0  0  0  0  0  0  0
  155.2642  143.1551  165.6390 C   0  0  0  0  0  0  0  0  0  0  0  0
  155.7368  144.2100  165.2133 O   0  0  0  0  0  0  0  0  0  0  0  0
  155.3038  142.7975  166.9479 N   0  0  0  0  0  0  0  0  0  0  0  0
  155.1661  141.4355  167.4889 C   0  0  0  0  0  0  0  0  0  0  0  0
  156.5464  140.9509  167.9726 C   0  0  0  0  0  0  0  0  0  0  0  0
  157.1847  141.9198  169.0023 C   0  0  0  0  0  0  0  0  0  0  0  0
  156.4444  141.8177  170.2064 O   0  0  0  0  0  0  0  0  0  0  0  0
  158.6438  141.5217  169.3311 C   0  0  0  0  0  0  0  0  0  0  0  0
  159.1916  142.4194  170.1511 F   0  0  0  0  0  0  0  0  0  0  0  0
  158.6847  140.3313  169.9314 F   0  0  0  0  0  0  0  0  0  0  0  0
  159.3778  141.4739  168.2182 F   0  0  0  0  0  0  0  0  0  0  0  0
  157.0880  143.3885  168.5140 C   0  0  0  0  0  0  0  0  0  0  0  0
  155.6784  143.7453  168.0032 C   0  0  0  0  0  0  0  0  0  0  0  0
  154.3258  140.9224  159.6328 H   0  0  0  0  0  0  0  0  0  0  0  0
  153.2296  140.5606  160.9653 H   0  0  0  0  0  0  0  0  0  0  0  0
  154.8207  141.2673  161.2864 H   0  0  0  0  0  0  0  0  0  0  0  0
  153.5212  142.7459  158.3346 H   0  0  0  0  0  0  0  0  0  0  0  0
  151.8676  146.1569  159.9622 H   0  0  0  0  0  0  0  0  0  0  0  0
  152.0584  145.2634  162.2882 H   0  0  0  0  0  0  0  0  0  0  0  0
  152.7231  143.5883  163.7549 H   0  0  0  0  0  0  0  0  0  0  0  0
  152.3913  141.9837  163.1742 H   0  0  0  0  0  0  0  0  0  0  0  0
  154.7585  141.4894  162.8839 H   0  0  0  0  0  0  0  0  0  0  0  0
  155.2077  143.1785  163.0378 H   0  0  0  0  0  0  0  0  0  0  0  0
  154.2940  141.4233  165.2444 H   0  0  0  0  0  0  0  0  0  0  0  0
  154.4615  141.4516  168.3216 H   0  0  0  0  0  0  0  0  0  0  0  0
  154.7503  140.7181  166.7814 H   0  0  0  0  0  0  0  0  0  0  0  0
  156.4603  139.9491  168.3950 H   0  0  0  0  0  0  0  0  0  0  0  0
  157.2017  140.8574  167.1058 H   0  0  0  0  0  0  0  0  0  0  0  0
  156.9497  141.3134  170.8259 H   0  0  0  0  0  0  0  0  0  0  0  0
  157.3777  144.0742  169.3112 H   0  0  0  0  0  0  0  0  0  0  0  0
  157.8002  143.5498  167.7038 H   0  0  0  0  0  0  0  0  0  0  0  0
  155.6584  144.7825  167.6657 H   0  0  0  0  0  0  0  0  0  0  0  0
  154.9540  143.6899  168.8169 H   0  0  0  0  0  0  0  0  0  0  0  0
  1  2  1  0  0  0  0
  1 24  1  0  0  0  0
  1 25  1  0  0  0  0
  1 26  1  0  0  0  0
  2  7  1  0  0  0  0
  2  3  2  0  0  0  0
  3  4  1  0  0  0  0
  3 27  1  0  0  0  0
  4  5  2  0  0  0  0
  5  6  1  0  0  0  0
  5 28  1  0  0  0  0
  6  7  2  0  0  0  0
  6 29  1  0  0  0  0
  7  8  1  0  0  0  0
  8  9  1  0  0  0  0
  8 30  1  0  0  0  0
  8 31  1  0  0  0  0
  9 10  1  0  0  0  0
  9 32  1  0  0  0  0
  9 33  1  0  0  0  0
 10 11  1  0  0  0  0
 10 34  1  0  0  0  0
 11 12  2  0  0  0  0
 11 13  1  0  0  0  0
 13 23  1  0  0  0  0
 13 14  1  0  0  0  0
 14 15  1  0  0  0  0
 14 35  1  0  0  0  0
 14 36  1  0  0  0  0
 15 16  1  0  0  0  0
 15 37  1  0  0  0  0
 15 38  1  0  0  0  0
 16 17  1  0  0  0  0
 16 18  1  0  0  0  0
 16 22  1  0  0  0  0
 17 39  1  0  0  0  0
 18 19  1  0  0  0  0
 18 20  1  0  0  0  0
 18 21  1  0  0  0  0
 22 23  1  0  0  0  0
 22 40  1  0  0  0  0
 22 41  1  0  0  0  0
 23 42  1  0  0  0  0
 23 43  1  0  0  0  0
M  END
> <s_m_source_file>
AV-unprocessed.smi

> <i_m_source_file_index>
2501

> <i_lp_mmshare_version>
43012

> <i_f3d_flags>
0

> <s_epik_input>
W0NIM11jMVtjSF1uW2NIXVtjSF1jMVtDSDJdW0NIMl1bTkhdQyg9TylOKFtDSDJdW0NIMl0yKVtDSDJdW0NIMl1DMihbT0hdKUMoRikoRilG

> <s_epik_cmdline>
J2VwaWtfcHl0aG9uJywgJy1waCcsICc3LjAnLCAnLXRuJywgJzgnLCAnLW1hJywgJzIwMCcsICctbWV0YWxfYmluZGluZycsICctaW1hZScsICc8aW5maWxlLm1hZT4nLCAnLW9tYWUnLCAnPG91dGZpbGUubWFlPic=

> <r_epik_Ionization_Penalty>
0.105852

> <r_epik_Ionization_Penalty_Charging>
0

> <r_epik_Ionization_Penalty_Neutral>
0.105852

> <r_epik_State_Penalty>
0.0956543

> <r_epik_Charging_Adjusted_Penalty>
0.0956543

> <i_epik_Tot_Q>
0

> <i_epik_Tot_abs_Q>
0

> <r_epik_Metal_State_Penalty>
0.0810448

> <b_epik_Metal_Only>
0

> <s_lp_Force_Field>
OPLS_2005

> <r_lp_Energy>
37.1862

> <b_lp_Chiralities_Consistent>
1

> <s_lp_Variant>
AV-unprocessed.smi:2501-1

> <Gold.Version>
5.8.1

> <Gold.Id.Protein>
6NUR|6NUR_protein|mol2

> <Gold.PLP.Fitness>
47.8580

> <Gold.PLP.PLP>
-48.6307

> <Gold.PLP.part.hbond>
-2.0000

> <Gold.PLP.part.metal>
0.0000

> <Gold.PLP.part.buried>
-4.9006

> <Gold.PLP.part.nonpolar>
-40.8692

> <Gold.PLP.part.repulsive>
0.1876

> <Gold.PLP.ligand.clash>
0.0000

> <Gold.PLP.ligand.torsion>
0.4191

> <Gold.PLP.Chemscore.Hbond>
0.0000

> <Gold.PLP.Chemscore.CHOScore>
0.0000

> <Gold.PLP.Chemscore.Metal>
0.0000

> <Gold.PLP.Chemscore.Internal.Correction>
0.0654

> <Gold.Rescore>
     Score         DG    S(hbond)    S(metal)    S(lipo)     H(rot)  DE(clash)    DE(int)     intcor
     12.76     -14.42       0.00        0.00     119.05       1.95       1.34       0.32       ----

> <Gold.Chemscore.Fitness>
12.7641

> <Gold.Chemscore.DG>
-14.4176

> <Gold.Chemscore.ZeroCoef>
-5.4800

> <Gold.Chemscore.Hbond>
0.0000

> <Gold.Chemscore.Metal>
0.0000

> <Gold.Chemscore.Lipo>
119.0454

> <Gold.Chemscore.Internal_Hbond>
0.0000

> <Gold.Chemscore.DEClash>
1.3374

> <Gold.Chemscore.DEInternal>
0.3161

> <Gold.Chemscore.Rot>
1.9495

> <Gold.Chemscore.Internal.Correction>
   9.000000E+99

> <Gold.Chemscore.Hbond.Weighted>
-0.0000

> <Gold.Chemscore.Metal.Weighted>
-0.0000

> <Gold.Chemscore.Lipo.Weighted>
-13.9283

> <Gold.Chemscore.Internal_Hbond.Weighted>
0.0000

> <Gold.Chemscore.DEClash.Weighted>
1.3374

> <Gold.Chemscore.DEInternal.Weighted>
0.3161

> <Gold.Chemscore.Rot.Weighted>
4.9907

> <Gold.Chemscore.Internal.Correction.Weighted>
   9.000000E+99

> <Gold.Protein.RotatedTorsions>
[ 6907 6896 6895 6894 ] final   16.98 input  -60.11 | X-H torsion
[ 7974 7965 7964 7962 ] final   46.66 input  175.53 | X-H torsion
[ 8008 7997 7996 7995 ] final  -97.04 input   59.86 | X-H torsion
[ 10167 10162 10161 10158 ] final  173.74 input  -65.29 | X-H torsion
[ 10718 10713 10712 10709 ] final  172.16 input   66.30 | X-H torsion
[ 10763 10752 10751 10750 ] final  176.77 input  -60.55 | X-H torsion
[ 11005 11000 10999 10996 ] final   10.02 input  -57.11 | X-H torsion

> <Gold.Protein.ActiveResidues>
 VAL166  LYS551  ARG553  GLY616  TRP617  ASP618  TYR619  PRO620  LYS621  CYS622 
 ASP623  PHE694  ASN695  SER759  ASP760  ASP761  ALA762  ILE779  LEU786  VAL792 
 PHE793  MET794  SER795  GLU796  ALA797  LYS798  CYS799  TRP800  GLU811  SER814 

> <Gold.Protein.RotatedAtoms>
  151.8424  135.0586  160.0449 H   0  0  0  0  0  0  0  0  0  0  0  0  # atno 6907 bound_to 6896
  152.2799  133.5456  159.5499 H   0  0  0  0  0  0  0  0  0  0  0  0  # atno 6908 bound_to 6896
  150.7185  134.0495  159.3835 H   0  0  0  0  0  0  0  0  0  0  0  0  # atno 6909 bound_to 6896
  146.0369  139.4832  142.9802 H   0  0  0  0  0  0  0  0  0  0  0  0  # atno 7974 bound_to 7965
  154.7824  140.0466  157.1138 H   0  0  0  0  0  0  0  0  0  0  0  0  # atno 8008 bound_to 7997
  154.9688  140.3087  155.4977 H   0  0  0  0  0  0  0  0  0  0  0  0  # atno 8009 bound_to 7997
  156.2938  140.2257  156.4779 H   0  0  0  0  0  0  0  0  0  0  0  0  # atno 8010 bound_to 7997
  139.5118  144.3227  152.0187 H   0  0  0  0  0  0  0  0  0  0  0  0  # atno 10167 bound_to 10162
  156.9830  131.0125  151.2876 H   0  0  0  0  0  0  0  0  0  0  0  0  # atno 10718 bound_to 10713
  154.4856  135.2776  155.1537 H   0  0  0  0  0  0  0  0  0  0  0  0  # atno 10763 bound_to 10752
  154.3229  135.6206  153.5520 H   0  0  0  0  0  0  0  0  0  0  0  0  # atno 10764 bound_to 10752
  152.9881  135.5747  154.5266 H   0  0  0  0  0  0  0  0  0  0  0  0  # atno 10765 bound_to 10752
  140.5192  134.0575  155.7840 H   0  0  0  0  0  0  0  0  0  0  0  0  # atno 11005 bound_to 11000
  145.6948  141.0153  143.1536 LP  0  0  0  0  0  0  0  0  0  0  0  0  # atno 17320 bound_to 7965
  144.7056  139.8575  143.7431 LP  0  0  0  0  0  0  0  0  0  0  0  0  # atno 17321 bound_to 7965
  140.2668  144.4007  150.6165 LP  0  0  0  0  0  0  0  0  0  0  0  0  # atno 17342 bound_to 10162
  140.6117  143.2170  151.6872 LP  0  0  0  0  0  0  0  0  0  0  0  0  # atno 17343 bound_to 10162
  157.5512  130.8184  149.8148 LP  0  0  0  0  0  0  0  0  0  0  0  0  # atno 17370 bound_to 10713
  156.0237  130.3787  150.1887 LP  0  0  0  0  0  0  0  0  0  0  0  0  # atno 17371 bound_to 10713
  141.1343  133.9248  157.2467 LP  0  0  0  0  0  0  0  0  0  0  0  0  # atno 17394 bound_to 11000
  139.9615  135.0153  156.9274 LP  0  0  0  0  0  0  0  0  0  0  0  0  # atno 17395 bound_to 11000

$$$$
