AV-unprocessed.smi:1778|AV-procd|sdf|7180|dock7
  -GOLD-   22720 8423D 1   1.00000     0.00000
 Structure written by MMmdl.
 34 35  0  0  0  0  0  0  0  0  1 V2000
  153.0286  138.1766  154.7815 C   0  0  0  0  0  0  0  0  0  0  0  0
  151.5608  137.8980  154.9358 C   0  0  0  0  0  0  0  0  0  0  0  0
  151.1350  136.6466  154.9011 N   0  0  0  0  0  0  0  0  0  0  0  0
  149.7468  136.7088  155.0556 O   0  0  0  0  0  0  0  0  0  0  0  0
  149.3866  138.0117  155.1774 C   0  0  0  0  0  0  0  0  0  0  0  0
  147.9320  138.2947  155.3445 C   0  0  0  0  0  0  0  0  0  0  0  0
  150.4877  138.8202  155.1109 C   0  0  0  0  0  0  0  0  0  0  0  0
  150.5484  140.3241  155.1943 C   0  0  0  0  0  0  0  0  0  0  0  0
  151.1092  140.7417  156.5533 C   0  0  0  0  0  0  0  0  0  0  0  0
  151.9812  140.0632  157.0953 O   0  0  0  0  0  0  0  0  0  0  0  0
  150.5979  141.8592  157.0921 N   0  0  0  0  0  0  0  0  0  0  0  0
  150.9760  142.4177  158.3851 C   0  0  1  0  0  0  0  0  0  0  0  0
  152.5063  142.4790  158.5658 C   0  0  0  0  0  0  0  0  0  0  0  0
  152.8243  143.4047  159.7463 C   0  0  0  0  0  0  0  0  0  0  0  0
  151.4912  144.6623  159.7799 S   0  0  0  0  0  0  0  0  0  0  0  0
  150.8336  144.6260  161.0949 O   0  0  0  0  0  0  0  0  0  0  0  0
  151.9913  145.9262  159.2182 O   0  0  0  0  0  0  0  0  0  0  0  0
  150.4217  143.8407  158.5395 C   0  0  0  0  0  0  0  0  0  0  0  0
  153.3251  138.1275  153.7337 H   0  0  0  0  0  0  0  0  0  0  0  0
  153.6298  137.4531  155.3327 H   0  0  0  0  0  0  0  0  0  0  0  0
  153.2885  139.1677  155.1523 H   0  0  0  0  0  0  0  0  0  0  0  0
  147.5547  138.8756  154.5027 H   0  0  0  0  0  0  0  0  0  0  0  0
  147.7522  138.8647  156.2558 H   0  0  0  0  0  0  0  0  0  0  0  0
  147.3548  137.3718  155.4046 H   0  0  0  0  0  0  0  0  0  0  0  0
  151.1810  140.7384  154.4083 H   0  0  0  0  0  0  0  0  0  0  0  0
  149.5658  140.7759  155.0557 H   0  0  0  0  0  0  0  0  0  0  0  0
  149.8866  142.3519  156.5716 H   0  0  0  0  0  0  0  0  0  0  0  0
  150.5571  141.8052  159.1861 H   0  0  0  0  0  0  0  0  0  0  0  0
  152.9402  141.4887  158.7083 H   0  0  0  0  0  0  0  0  0  0  0  0
  152.9574  142.8967  157.6645 H   0  0  0  0  0  0  0  0  0  0  0  0
  152.7908  142.8547  160.6870 H   0  0  0  0  0  0  0  0  0  0  0  0
  153.7979  143.8874  159.6595 H   0  0  0  0  0  0  0  0  0  0  0  0
  150.5043  144.4033  157.6089 H   0  0  0  0  0  0  0  0  0  0  0  0
  149.3820  143.8605  158.8667 H   0  0  0  0  0  0  0  0  0  0  0  0
  1  2  1  0  0  0  0
  1 19  1  0  0  0  0
  1 20  1  0  0  0  0
  1 21  1  0  0  0  0
  2  7  1  0  0  0  0
  2  3  2  0  0  0  0
  3  4  1  0  0  0  0
  4  5  1  0  0  0  0
  5  6  1  0  0  0  0
  5  7  2  0  0  0  0
  6 22  1  0  0  0  0
  6 23  1  0  0  0  0
  6 24  1  0  0  0  0
  7  8  1  0  0  0  0
  8  9  1  0  0  0  0
  8 25  1  0  0  0  0
  8 26  1  0  0  0  0
  9 10  2  0  0  0  0
  9 11  1  0  0  0  0
 11 12  1  0  0  0  0
 11 27  1  0  0  0  0
 12 18  1  0  0  0  0
 12 13  1  0  0  0  0
 12 28  1  0  0  0  0
 13 14  1  0  0  0  0
 13 29  1  0  0  0  0
 13 30  1  0  0  0  0
 14 15  1  0  0  0  0
 14 31  1  0  0  0  0
 14 32  1  0  0  0  0
 15 16  2  0  0  0  0
 15 17  2  0  0  0  0
 15 18  1  0  0  0  0
 18 33  1  0  0  0  0
 18 34  1  0  0  0  0
M  END
> <s_m_source_file>
AV-unprocessed.smi

> <i_m_source_file_index>
1778

> <i_lp_mmshare_version>
43012

> <i_f3d_flags>
0

> <s_epik_input>
W0NIM11jMW5vYyhbQ0gzXSljMVtDSDJdQyg9TylbTkhdW0NAQEhdKFtDSDJdMilbQ0gyXVtDSDJdUzIoPU8pPU8=

> <s_epik_cmdline>
J2VwaWtfcHl0aG9uJywgJy1waCcsICc3LjAnLCAnLXRuJywgJzgnLCAnLW1hJywgJzIwMCcsICctbWV0YWxfYmluZGluZycsICctaW1hZScsICc8aW5maWxlLm1hZT4nLCAnLW9tYWUnLCAnPG91dGZpbGUubWFlPic=

> <r_lp_tautomer_probability>
1

> <r_epik_Ionization_Penalty>
1.26334e-07

> <r_epik_Ionization_Penalty_Charging>
0

> <r_epik_Ionization_Penalty_Neutral>
1.26334e-07

> <r_epik_State_Penalty>
-0

> <r_epik_Charging_Adjusted_Penalty>
0

> <i_epik_Tot_Q>
0

> <i_epik_Tot_abs_Q>
0

> <r_epik_Metal_State_Penalty>
-0

> <b_epik_Metal_Only>
0

> <s_lp_Force_Field>
OPLS_2005

> <r_lp_Energy>
-2.84578

> <b_lp_Chiralities_Consistent>
1

> <s_lp_Variant>
AV-unprocessed.smi:1778-2

> <Gold.Version>
5.8.1

> <Gold.Id.Protein>
6NUR|6NUR_protein|mol2

> <Gold.PLP.Fitness>
36.1985

> <Gold.PLP.PLP>
-31.5340

> <Gold.PLP.part.hbond>
-3.6636

> <Gold.PLP.part.metal>
0.0000

> <Gold.PLP.part.buried>
-2.8957

> <Gold.PLP.part.nonpolar>
-25.0872

> <Gold.PLP.part.repulsive>
1.4373

> <Gold.PLP.ligand.clash>
0.0000

> <Gold.PLP.ligand.torsion>
0.6557

> <Gold.PLP.Chemscore.Hbond>
1.9913

> <Gold.PLP.Chemscore.CHOScore>
0.0000

> <Gold.PLP.Chemscore.Metal>
0.0000

> <Gold.Chemscore.Hbonds>
donor molecule, donor type, donor heavy atom, donor atom, acceptor molecule, acceptor atom, score
      P1  H 10752 10763       L1     3  0.80

> <Gold.PLP.Chemscore.Internal.Correction>
0.0022

> <Gold.Rescore>
     Score         DG    S(hbond)    S(metal)    S(lipo)     H(rot)  DE(clash)    DE(int)     intcor
     13.27     -17.90       1.95        0.00      83.50       1.51       2.78       1.85       ----

> <Gold.Chemscore.Fitness>
13.2657

> <Gold.Chemscore.DG>
-17.8983

> <Gold.Chemscore.ZeroCoef>
-5.4800

> <Gold.Chemscore.Hbond>
1.9468

> <Gold.Chemscore.Metal>
0.0000

> <Gold.Chemscore.Lipo>
83.4981

> <Gold.Chemscore.Internal_Hbond>
0.0000

> <Gold.Chemscore.DEClash>
2.7788

> <Gold.Chemscore.DEInternal>
1.8538

> <Gold.Chemscore.Rot>
1.5051

> <Gold.Chemscore.Internal.Correction>
   9.000000E+99

> <Gold.Chemscore.Hbonds>
donor molecule, donor type, donor heavy atom, donor atom, acceptor molecule, acceptor atom, score
      P1  H  7997  8009       L1    10  0.06
      P1  H 10752 10763       L1     3  0.24

> <Gold.Chemscore.Hbond.Weighted>
-6.5021

> <Gold.Chemscore.Metal.Weighted>
-0.0000

> <Gold.Chemscore.Lipo.Weighted>
-9.7693

> <Gold.Chemscore.Internal_Hbond.Weighted>
0.0000

> <Gold.Chemscore.DEClash.Weighted>
2.7788

> <Gold.Chemscore.DEInternal.Weighted>
1.8538

> <Gold.Chemscore.Rot.Weighted>
3.8531

> <Gold.Chemscore.Internal.Correction.Weighted>
   9.000000E+99

> <Gold.Protein.RotatedTorsions>
[ 6907 6896 6895 6894 ] final  -11.56 input  -60.11 | X-H torsion
[ 7974 7965 7964 7962 ] final  -73.88 input  175.53 | X-H torsion
[ 8008 7997 7996 7995 ] final -168.52 input   59.86 | X-H torsion
[ 10167 10162 10161 10158 ] final -151.77 input  -65.29 | X-H torsion
[ 10718 10713 10712 10709 ] final   37.75 input   66.30 | X-H torsion
[ 10763 10752 10751 10750 ] final   48.93 input  -60.55 | X-H torsion
[ 11005 11000 10999 10996 ] final  -45.40 input  -57.11 | X-H torsion

> <Gold.Protein.ActiveResidues>
 VAL166  LYS551  ARG553  GLY616  TRP617  ASP618  TYR619  PRO620  LYS621  CYS622 
 ASP623  PHE694  ASN695  SER759  ASP760  ASP761  ALA762  ILE779  LEU786  VAL792 
 PHE793  MET794  SER795  GLU796  ALA797  LYS798  CYS799  TRP800  GLU811  SER814 

> <Gold.Protein.RotatedAtoms>
  151.3843  135.0945  159.9505 H   0  0  0  0  0  0  0  0  0  0  0  0  # atno 6907 bound_to 6896
  152.5099  133.9042  159.7466 H   0  0  0  0  0  0  0  0  0  0  0  0  # atno 6908 bound_to 6896
  150.9482  133.6524  159.2806 H   0  0  0  0  0  0  0  0  0  0  0  0  # atno 6909 bound_to 6896
  145.6464  140.9296  143.1008 H   0  0  0  0  0  0  0  0  0  0  0  0  # atno 7974 bound_to 7965
  155.8926  140.1027  157.1408 H   0  0  0  0  0  0  0  0  0  0  0  0  # atno 8008 bound_to 7997
  154.4016  140.1308  156.4398 H   0  0  0  0  0  0  0  0  0  0  0  0  # atno 8009 bound_to 7997
  155.7516  140.3465  155.5156 H   0  0  0  0  0  0  0  0  0  0  0  0  # atno 8010 bound_to 7997
  139.7239  143.8914  152.2512 H   0  0  0  0  0  0  0  0  0  0  0  0  # atno 10167 bound_to 10162
  157.3506  130.7596  149.6976 H   0  0  0  0  0  0  0  0  0  0  0  0  # atno 10718 bound_to 10713
  152.9789  135.5928  154.4006 H   0  0  0  0  0  0  0  0  0  0  0  0  # atno 10763 bound_to 10752
  154.3652  135.2767  155.2299 H   0  0  0  0  0  0  0  0  0  0  0  0  # atno 10764 bound_to 10752
  154.4279  135.6043  153.6105 H   0  0  0  0  0  0  0  0  0  0  0  0  # atno 10765 bound_to 10752
  141.0513  133.6742  156.3007 H   0  0  0  0  0  0  0  0  0  0  0  0  # atno 11005 bound_to 11000
  144.7138  139.8270  143.7405 LP  0  0  0  0  0  0  0  0  0  0  0  0  # atno 17320 bound_to 7965
  146.1239  139.4262  143.0211 LP  0  0  0  0  0  0  0  0  0  0  0  0  # atno 17321 bound_to 7965
  139.8818  144.7013  150.8869 LP  0  0  0  0  0  0  0  0  0  0  0  0  # atno 17342 bound_to 10162
  140.7759  143.3655  151.1747 LP  0  0  0  0  0  0  0  0  0  0  0  0  # atno 17343 bound_to 10162
  155.9721  130.4141  150.4118 LP  0  0  0  0  0  0  0  0  0  0  0  0  # atno 17370 bound_to 10713
  157.2180  131.0476  151.2562 LP  0  0  0  0  0  0  0  0  0  0  0  0  # atno 17371 bound_to 10713
  140.6050  134.5516  157.5524 LP  0  0  0  0  0  0  0  0  0  0  0  0  # atno 17394 bound_to 11000
  139.9352  134.7888  156.0821 LP  0  0  0  0  0  0  0  0  0  0  0  0  # atno 17395 bound_to 11000

$$$$
