AV-unprocessed.smi:813|AV-procd|sdf|3817|dock8
  -GOLD-   22720 1253D 1   1.00000     0.00000
 Structure written by MMmdl.
 36 37  0  0  0  0  0  0  0  0  1 V2000
  149.9765  133.8690  155.4118 C   0  0  0  0  0  0  0  0  0  0  0  0
  149.0227  135.0734  155.3504 C   0  0  2  0  0  0  0  0  0  0  0  0
  148.2846  135.0046  154.0896 N   0  0  0  0  0  0  0  0  0  0  0  0
  147.1556  134.3076  153.8904 C   0  0  0  0  0  0  0  0  0  0  0  0
  146.6263  133.6116  154.7576 O   0  0  0  0  0  0  0  0  0  0  0  0
  146.6935  134.4787  152.6395 N   0  0  0  0  0  0  0  0  0  0  0  0
  145.5225  133.9325  152.0509 C   0  0  0  0  0  0  0  0  0  0  0  0
  145.4621  132.7033  151.5146 N   0  0  0  0  0  0  0  0  0  0  0  0
  144.1997  132.4178  151.0102 N   0  0  0  0  0  0  0  0  0  0  0  0
  143.3592  133.4414  151.1855 C   0  0  0  0  0  0  0  0  0  0  0  0
  144.0276  134.8549  151.9831 S   0  0  0  0  0  0  0  0  0  0  0  0
  149.8642  136.3580  155.4196 C   0  0  0  0  0  0  0  0  0  0  0  0
  150.4542  136.6678  156.4563 O   0  0  0  0  0  0  0  0  0  0  0  0
  149.8992  137.1013  154.3035 N   0  0  0  0  0  0  0  0  0  0  0  0
  150.6525  138.3417  154.1458 C   0  0  0  0  0  0  0  0  0  0  0  0
  152.1477  138.1055  154.4249 C   0  0  0  0  0  0  0  0  0  0  0  0
  152.4288  138.7554  155.7796 C   0  0  0  0  0  0  0  0  0  0  0  0
  151.4610  139.9333  155.8335 C   0  0  0  0  0  0  0  0  0  0  0  0
  150.1919  139.4143  155.1548 C   0  0  0  0  0  0  0  0  0  0  0  0
  150.5580  133.8699  156.3347 H   0  0  0  0  0  0  0  0  0  0  0  0
  150.6784  133.8630  154.5762 H   0  0  0  0  0  0  0  0  0  0  0  0
  149.4205  132.9313  155.3816 H   0  0  0  0  0  0  0  0  0  0  0  0
  148.3266  135.0326  156.1908 H   0  0  0  0  0  0  0  0  0  0  0  0
  148.6474  135.5527  153.3238 H   0  0  0  0  0  0  0  0  0  0  0  0
  147.2367  135.0826  152.0406 H   0  0  0  0  0  0  0  0  0  0  0  0
  142.3379  133.3634  150.8432 H   0  0  0  0  0  0  0  0  0  0  0  0
  149.3842  136.7743  153.4990 H   0  0  0  0  0  0  0  0  0  0  0  0
  150.5408  138.7106  153.1243 H   0  0  0  0  0  0  0  0  0  0  0  0
  152.4325  137.0527  154.4063 H   0  0  0  0  0  0  0  0  0  0  0  0
  152.7386  138.6093  153.6586 H   0  0  0  0  0  0  0  0  0  0  0  0
  152.1975  138.0521  156.5808 H   0  0  0  0  0  0  0  0  0  0  0  0
  153.4695  139.0603  155.8918 H   0  0  0  0  0  0  0  0  0  0  0  0
  151.2799  140.2824  156.8505 H   0  0  0  0  0  0  0  0  0  0  0  0
  151.8681  140.7683  155.2619 H   0  0  0  0  0  0  0  0  0  0  0  0
  149.6313  140.2162  154.6736 H   0  0  0  0  0  0  0  0  0  0  0  0
  149.5386  138.9765  155.9114 H   0  0  0  0  0  0  0  0  0  0  0  0
  1  2  1  0  0  0  0
  1 20  1  0  0  0  0
  1 21  1  0  0  0  0
  1 22  1  0  0  0  0
  2  3  1  0  0  0  0
  2 12  1  0  0  0  0
  2 23  1  0  0  0  0
  3  4  1  0  0  0  0
  3 24  1  0  0  0  0
  4  5  2  0  0  0  0
  4  6  1  0  0  0  0
  6  7  1  0  0  0  0
  6 25  1  0  0  0  0
  7 11  1  0  0  0  0
  7  8  2  0  0  0  0
  8  9  1  0  0  0  0
  9 10  2  0  0  0  0
 10 11  1  0  0  0  0
 10 26  1  0  0  0  0
 12 13  2  0  0  0  0
 12 14  1  0  0  0  0
 14 15  1  0  0  0  0
 14 27  1  0  0  0  0
 15 19  1  0  0  0  0
 15 16  1  0  0  0  0
 15 28  1  0  0  0  0
 16 17  1  0  0  0  0
 16 29  1  0  0  0  0
 16 30  1  0  0  0  0
 17 18  1  0  0  0  0
 17 31  1  0  0  0  0
 17 32  1  0  0  0  0
 18 19  1  0  0  0  0
 18 33  1  0  0  0  0
 18 34  1  0  0  0  0
 19 35  1  0  0  0  0
 19 36  1  0  0  0  0
M  END
> <s_m_source_file>
AV-unprocessed.smi

> <i_m_source_file_index>
813

> <i_lp_mmshare_version>
43012

> <i_f3d_flags>
0

> <s_epik_input>
W0NIMl0xW0NIMl1bQ0gyXVtDSDJdW0NIXTFbTkhdQyg9TylbQ0BIXShbQ0gzXSlbTkhdQyg9TylbTkhdYzJubltjSF1zMg==

> <s_epik_cmdline>
J2VwaWtfcHl0aG9uJywgJy1waCcsICc3LjAnLCAnLXRuJywgJzgnLCAnLW1hJywgJzIwMCcsICctbWV0YWxfYmluZGluZycsICctaW1hZScsICc8aW5maWxlLm1hZT4nLCAnLW9tYWUnLCAnPG91dGZpbGUubWFlPic=

> <r_lp_tautomer_probability>
1

> <r_epik_Ionization_Penalty>
0.00321247

> <r_epik_Ionization_Penalty_Charging>
0

> <r_epik_Ionization_Penalty_Neutral>
0.00321247

> <r_epik_State_Penalty>
-0

> <r_epik_Charging_Adjusted_Penalty>
0

> <i_epik_Tot_Q>
0

> <i_epik_Tot_abs_Q>
0

> <r_epik_Metal_State_Penalty>
0.363968

> <b_epik_Metal_Only>
0

> <s_lp_Force_Field>
OPLS_2005

> <r_lp_Energy>
16.3209

> <b_lp_Chiralities_Consistent>
1

> <s_lp_Variant>
AV-unprocessed.smi:813-1

> <Gold.Version>
5.8.1

> <Gold.Id.Protein>
6NUR|6NUR_protein|mol2

> <Gold.PLP.Fitness>
39.6652

> <Gold.PLP.PLP>
-30.2488

> <Gold.PLP.part.hbond>
-3.6781

> <Gold.PLP.part.metal>
0.0000

> <Gold.PLP.part.buried>
-4.8259

> <Gold.PLP.part.nonpolar>
-23.1362

> <Gold.PLP.part.repulsive>
0.3568

> <Gold.PLP.ligand.clash>
0.0000

> <Gold.PLP.ligand.torsion>
1.2142

> <Gold.PLP.Chemscore.Hbond>
2.9440

> <Gold.PLP.Chemscore.CHOScore>
0.9985

> <Gold.PLP.Chemscore.Metal>
0.0000

> <Gold.Chemscore.Hbonds>
donor molecule, donor type, donor heavy atom, donor atom, acceptor molecule, acceptor atom, score
      L1  H     3    24       P1  7948  1.00
      L1  H     6    25       P1  7948  0.94
      L1  H    14    27       P1  7948  1.00
      L1  C    10    26       P1 10186  1.00

> <Gold.PLP.Chemscore.Internal.Correction>
0.0173

> <Gold.Rescore>
     Score         DG    S(hbond)    S(metal)    S(lipo)     H(rot)  DE(clash)    DE(int)     intcor
     14.40     -16.90       2.78        0.00      56.37       1.74       0.00       2.50       ----

> <Gold.Chemscore.Fitness>
14.3968

> <Gold.Chemscore.DG>
-16.9040

> <Gold.Chemscore.ZeroCoef>
-5.4800

> <Gold.Chemscore.Hbond>
2.7820

> <Gold.Chemscore.Metal>
0.0000

> <Gold.Chemscore.Lipo>
56.3661

> <Gold.Chemscore.Internal_Hbond>
0.0000

> <Gold.Chemscore.DEClash>
0.0029

> <Gold.Chemscore.DEInternal>
2.5043

> <Gold.Chemscore.Rot>
1.7433

> <Gold.Chemscore.Internal.Correction>
   9.000000E+99

> <Gold.Chemscore.Hbonds>
donor molecule, donor type, donor heavy atom, donor atom, acceptor molecule, acceptor atom, score
      L1  H     3    24       P1  7948  0.96
      L1  H     6    25       P1  7948  0.83
      L1  H    14    27       P1  7948  0.90

> <Gold.Chemscore.Hbond.Weighted>
-9.2919

> <Gold.Chemscore.Metal.Weighted>
-0.0000

> <Gold.Chemscore.Lipo.Weighted>
-6.5948

> <Gold.Chemscore.Internal_Hbond.Weighted>
0.0000

> <Gold.Chemscore.DEClash.Weighted>
0.0029

> <Gold.Chemscore.DEInternal.Weighted>
2.5043

> <Gold.Chemscore.Rot.Weighted>
4.4628

> <Gold.Chemscore.Internal.Correction.Weighted>
   9.000000E+99

> <Gold.Protein.RotatedTorsions>
[ 6907 6896 6895 6894 ] final -108.08 input  -60.11 | X-H torsion
[ 7974 7965 7964 7962 ] final -114.93 input  175.53 | X-H torsion
[ 8008 7997 7996 7995 ] final  113.05 input   59.86 | X-H torsion
[ 10167 10162 10161 10158 ] final   71.15 input  -65.29 | X-H torsion
[ 10718 10713 10712 10709 ] final   60.92 input   66.30 | X-H torsion
[ 10763 10752 10751 10750 ] final   82.20 input  -60.55 | X-H torsion
[ 11005 11000 10999 10996 ] final  108.98 input  -57.11 | X-H torsion

> <Gold.Protein.ActiveResidues>
 VAL166  LYS551  ARG553  GLY616  TRP617  ASP618  TYR619  PRO620  LYS621  CYS622 
 ASP623  PHE694  ASN695  SER759  ASP760  ASP761  ALA762  ILE779  LEU786  VAL792 
 PHE793  MET794  SER795  GLU796  ALA797  LYS798  CYS799  TRP800  GLU811  SER814 

> <Gold.Protein.RotatedAtoms>
  150.7481  133.9731  159.3551 H   0  0  0  0  0  0  0  0  0  0  0  0  # atno 6907 bound_to 6896
  151.7667  135.0795  160.0363 H   0  0  0  0  0  0  0  0  0  0  0  0  # atno 6908 bound_to 6896
  152.3367  133.5983  159.5883 H   0  0  0  0  0  0  0  0  0  0  0  0  # atno 6909 bound_to 6896
  145.1144  140.8631  143.3851 H   0  0  0  0  0  0  0  0  0  0  0  0  # atno 7974 bound_to 7965
  156.2233  140.2987  156.0005 H   0  0  0  0  0  0  0  0  0  0  0  0  # atno 8008 bound_to 7997
  155.2424  140.0423  157.2994 H   0  0  0  0  0  0  0  0  0  0  0  0  # atno 8009 bound_to 7997
  154.5875  140.2392  155.7975 H   0  0  0  0  0  0  0  0  0  0  0  0  # atno 8010 bound_to 7997
  140.0493  144.5325  150.7375 H   0  0  0  0  0  0  0  0  0  0  0  0  # atno 10167 bound_to 10162
  157.5789  130.8966  149.9396 H   0  0  0  0  0  0  0  0  0  0  0  0  # atno 10718 bound_to 10713
  153.1182  135.4737  154.9151 H   0  0  0  0  0  0  0  0  0  0  0  0  # atno 10763 bound_to 10752
  154.7549  135.3116  154.8490 H   0  0  0  0  0  0  0  0  0  0  0  0  # atno 10764 bound_to 10752
  153.9062  135.6870  153.4806 H   0  0  0  0  0  0  0  0  0  0  0  0  # atno 10765 bound_to 10752
  139.8853  134.9445  156.6055 H   0  0  0  0  0  0  0  0  0  0  0  0  # atno 11005 bound_to 11000
  145.0811  139.2959  143.5783 LP  0  0  0  0  0  0  0  0  0  0  0  0  # atno 17320 bound_to 7965
  146.3524  140.0317  142.8650 LP  0  0  0  0  0  0  0  0  0  0  0  0  # atno 17321 bound_to 7965
  140.7224  143.2602  151.4233 LP  0  0  0  0  0  0  0  0  0  0  0  0  # atno 17342 bound_to 10162
  139.5963  144.1389  152.2148 LP  0  0  0  0  0  0  0  0  0  0  0  0  # atno 17343 bound_to 10162
  156.0835  130.3670  150.0534 LP  0  0  0  0  0  0  0  0  0  0  0  0  # atno 17370 bound_to 10713
  156.8676  130.9513  151.3612 LP  0  0  0  0  0  0  0  0  0  0  0  0  # atno 17371 bound_to 10713
  140.7851  133.8628  155.8599 LP  0  0  0  0  0  0  0  0  0  0  0  0  # atno 17394 bound_to 11000
  140.9726  134.1511  157.4563 LP  0  0  0  0  0  0  0  0  0  0  0  0  # atno 17395 bound_to 11000

$$$$
