AV-unprocessed.smi:2892|AV-procd|sdf|11120|dock8
  -GOLD-   2272015593D 1   1.00000     0.00000
 Structure written by MMmdl.
 42 42  0  0  0  0  0  0  0  0  2 V2000
  147.6085  139.8153  153.8894 C   0  0  0  0  0  0  0  0  0  0  0  0
  148.9353  140.1877  154.5677 C   0  0  0  0  0  0  0  0  0  0  0  0
  149.9963  139.0551  154.5670 C   0  0  2  0  0  0  0  0  0  0  0  0
  149.4645  137.8222  155.3348 C   0  0  0  0  0  0  0  0  0  0  0  0
  151.3698  139.5235  155.1420 C   0  0  1  0  0  0  0  0  0  0  0  0
  151.2910  139.5564  156.6015 N   0  0  0  0  0  0  0  0  0  0  0  0
  152.3269  139.6502  157.4515 C   0  0  0  0  0  0  0  0  0  0  0  0
  153.5021  139.6873  157.0877 O   0  0  0  0  0  0  0  0  0  0  0  0
  151.9898  139.7106  158.9459 C   0  0  0  0  0  0  0  0  0  0  0  0
  152.3341  141.0572  159.5315 C   0  0  0  0  0  0  0  0  0  0  0  0
  152.9975  141.3336  160.7609 C   0  0  0  0  0  0  0  0  0  0  0  0
  153.0175  142.6970  160.8264 C   0  0  0  0  0  0  0  0  0  0  0  0
  152.4053  143.1739  159.6868 N   0  0  0  0  0  0  0  0  0  0  0  0
  152.1552  144.5573  159.3109 C   0  0  0  0  0  0  0  0  0  0  0  0
  151.2925  145.2659  160.3676 C   0  0  0  0  0  0  0  0  0  0  0  0
  151.5383  144.6554  157.9060 C   0  0  0  0  0  0  0  0  0  0  0  0
  151.9924  142.1649  158.8882 N   0  0  0  0  0  0  0  0  0  0  0  0
  152.4933  138.5413  154.7621 C   0  0  0  0  0  0  0  0  0  0  0  0
  152.1992  137.3284  154.6644 O   0  0  0  0  0  0  0  0  0  0  0  0
  153.6305  139.0257  154.5737 O   0  5  0  0  0  0  0  0  0  0  0  0
  146.9534  140.6844  153.8282 H   0  0  0  0  0  0  0  0  0  0  0  0
  147.0694  139.0453  154.4402 H   0  0  0  0  0  0  0  0  0  0  0  0
  147.7734  139.4547  152.8738 H   0  0  0  0  0  0  0  0  0  0  0  0
  149.3158  141.0650  154.0455 H   0  0  0  0  0  0  0  0  0  0  0  0
  148.7441  140.5133  155.5908 H   0  0  0  0  0  0  0  0  0  0  0  0
  150.1494  138.7460  153.5316 H   0  0  0  0  0  0  0  0  0  0  0  0
  149.2897  138.0571  156.3851 H   0  0  0  0  0  0  0  0  0  0  0  0
  150.1594  136.9833  155.2967 H   0  0  0  0  0  0  0  0  0  0  0  0
  148.5290  137.4548  154.9155 H   0  0  0  0  0  0  0  0  0  0  0  0
  151.6042  140.5155  154.7507 H   0  0  0  0  0  0  0  0  0  0  0  0
  150.3633  139.5108  156.9966 H   0  0  0  0  0  0  0  0  0  0  0  0
  150.9268  139.5016  159.0698 H   0  0  0  0  0  0  0  0  0  0  0  0
  152.5262  138.9197  159.4717 H   0  0  0  0  0  0  0  0  0  0  0  0
  153.3841  140.6365  161.4895 H   0  0  0  0  0  0  0  0  0  0  0  0
  153.4073  143.3598  161.5848 H   0  0  0  0  0  0  0  0  0  0  0  0
  153.1226  145.0604  159.2813 H   0  0  0  0  0  0  0  0  0  0  0  0
  151.1586  146.3191  160.1206 H   0  0  0  0  0  0  0  0  0  0  0  0
  151.7577  145.2153  161.3525 H   0  0  0  0  0  0  0  0  0  0  0  0
  150.3023  144.8154  160.4446 H   0  0  0  0  0  0  0  0  0  0  0  0
  151.4300  145.6962  157.6004 H   0  0  0  0  0  0  0  0  0  0  0  0
  150.5497  144.1963  157.8673 H   0  0  0  0  0  0  0  0  0  0  0  0
  152.1668  144.1584  157.1664 H   0  0  0  0  0  0  0  0  0  0  0  0
  1  2  1  0  0  0  0
  1 21  1  0  0  0  0
  1 22  1  0  0  0  0
  1 23  1  0  0  0  0
  2  3  1  0  0  0  0
  2 24  1  0  0  0  0
  2 25  1  0  0  0  0
  3  4  1  0  0  0  0
  3  5  1  0  0  0  0
  3 26  1  0  0  0  0
  4 27  1  0  0  0  0
  4 28  1  0  0  0  0
  4 29  1  0  0  0  0
  5  6  1  0  0  0  0
  5 18  1  0  0  0  0
  5 30  1  0  0  0  0
  6  7  1  0  0  0  0
  6 31  1  0  0  0  0
  7  8  2  0  0  0  0
  7  9  1  0  0  0  0
  9 10  1  0  0  0  0
  9 32  1  0  0  0  0
  9 33  1  0  0  0  0
 10 17  2  0  0  0  0
 10 11  1  0  0  0  0
 11 12  2  0  0  0  0
 11 34  1  0  0  0  0
 12 13  1  0  0  0  0
 12 35  1  0  0  0  0
 13 14  1  0  0  0  0
 13 17  1  0  0  0  0
 14 15  1  0  0  0  0
 14 16  1  0  0  0  0
 14 36  1  0  0  0  0
 15 37  1  0  0  0  0
 15 38  1  0  0  0  0
 15 39  1  0  0  0  0
 16 40  1  0  0  0  0
 16 41  1  0  0  0  0
 16 42  1  0  0  0  0
 18 19  2  0  0  0  0
 18 20  1  0  0  0  0
M  CHG  1  20  -1
M  END
> <s_m_source_file>
AV-unprocessed.smi

> <i_m_source_file_index>
2892

> <i_lp_mmshare_version>
43012

> <i_f3d_flags>
0

> <s_epik_input>
W0NIM11bQ0gyXVtDQEhdKFtDSDNdKVtDQEBIXShDKD1PKVtPSF0pW05IXUMoPU8pW0NIMl1jMVtjSF1bY0hdbihuMSlbQ0hdKFtDSDNdKVtDSDNd

> <s_epik_cmdline>
J2VwaWtfcHl0aG9uJywgJy1waCcsICc3LjAnLCAnLXRuJywgJzgnLCAnLW1hJywgJzIwMCcsICctbWV0YWxfYmluZGluZycsICctaW1hZScsICc8aW5maWxlLm1hZT4nLCAnLW9tYWUnLCAnPG91dGZpbGUubWFlPic=

> <r_lp_tautomer_probability>
1

> <r_epik_Ionization_Penalty>
0.000286846

> <r_epik_Ionization_Penalty_Charging>
0.000224481

> <r_epik_Ionization_Penalty_Neutral>
6.23655e-05

> <r_epik_State_Penalty>
-0

> <r_epik_Charging_Adjusted_Penalty>
0.000224481

> <i_epik_Tot_Q>
-1

> <i_epik_Tot_abs_Q>
1

> <r_epik_Metal_State_Penalty>
-0

> <b_epik_Metal_Only>
0

> <s_lp_Force_Field>
OPLS_2005

> <r_lp_Energy>
13.0415

> <b_lp_Chiralities_Consistent>
1

> <s_lp_Variant>
AV-unprocessed.smi:2892-3

> <Gold.Version>
5.8.1

> <Gold.Id.Protein>
6NUR|6NUR_protein|mol2

> <Gold.PLP.Fitness>
54.6665

> <Gold.PLP.PLP>
-45.4536

> <Gold.PLP.part.hbond>
-2.2499

> <Gold.PLP.part.metal>
0.0000

> <Gold.PLP.part.buried>
-5.4931

> <Gold.PLP.part.nonpolar>
-39.1520

> <Gold.PLP.part.repulsive>
0.1745

> <Gold.PLP.ligand.clash>
0.0000

> <Gold.PLP.ligand.torsion>
1.4059

> <Gold.PLP.Chemscore.Hbond>
3.9520

> <Gold.PLP.Chemscore.CHOScore>
0.0000

> <Gold.PLP.Chemscore.Metal>
0.0000

> <Gold.Chemscore.Hbonds>
donor molecule, donor type, donor heavy atom, donor atom, acceptor molecule, acceptor atom, score
      P1  H  7997  8010       L1    20  2.00
      P1  H 10752 10763       L1    19  1.54

> <Gold.PLP.Chemscore.Internal.Correction>
0.1687

> <Gold.Rescore>
     Score         DG    S(hbond)    S(metal)    S(lipo)     H(rot)  DE(clash)    DE(int)     intcor
     11.74     -17.33       1.82        0.00     101.56       2.39       0.01       5.59       ----

> <Gold.Chemscore.Fitness>
11.7366

> <Gold.Chemscore.DG>
-17.3317

> <Gold.Chemscore.ZeroCoef>
-5.4800

> <Gold.Chemscore.Hbond>
1.8198

> <Gold.Chemscore.Metal>
0.0000

> <Gold.Chemscore.Lipo>
101.5619

> <Gold.Chemscore.Internal_Hbond>
0.0000

> <Gold.Chemscore.DEClash>
0.0073

> <Gold.Chemscore.DEInternal>
5.5878

> <Gold.Chemscore.Rot>
2.3865

> <Gold.Chemscore.Internal.Correction>
   9.000000E+99

> <Gold.Chemscore.Hbonds>
donor molecule, donor type, donor heavy atom, donor atom, acceptor molecule, acceptor atom, score
      P1  H  7997  8009       L1     8  0.02
      P1  H  7997  8010       L1    20  0.98
      P1  H 10752 10763       L1    19  0.78

> <Gold.Chemscore.Hbond.Weighted>
-6.0783

> <Gold.Chemscore.Metal.Weighted>
-0.0000

> <Gold.Chemscore.Lipo.Weighted>
-11.8827

> <Gold.Chemscore.Internal_Hbond.Weighted>
0.0000

> <Gold.Chemscore.DEClash.Weighted>
0.0073

> <Gold.Chemscore.DEInternal.Weighted>
5.5878

> <Gold.Chemscore.Rot.Weighted>
6.1093

> <Gold.Chemscore.Internal.Correction.Weighted>
   9.000000E+99

> <Gold.Protein.RotatedTorsions>
[ 6907 6896 6895 6894 ] final -149.47 input  -60.11 | X-H torsion
[ 7974 7965 7964 7962 ] final  -43.09 input  175.53 | X-H torsion
[ 8008 7997 7996 7995 ] final  113.29 input   59.86 | X-H torsion
[ 10167 10162 10161 10158 ] final   78.54 input  -65.29 | X-H torsion
[ 10718 10713 10712 10709 ] final  152.66 input   66.30 | X-H torsion
[ 10763 10752 10751 10750 ] final   54.02 input  -60.55 | X-H torsion
[ 11005 11000 10999 10996 ] final  129.33 input  -57.11 | X-H torsion

> <Gold.Protein.ActiveResidues>
 VAL166  LYS551  ARG553  GLY616  TRP617  ASP618  TYR619  PRO620  LYS621  CYS622 
 ASP623  PHE694  ASN695  SER759  ASP760  ASP761  ALA762  ILE779  LEU786  VAL792 
 PHE793  MET794  SER795  GLU796  ALA797  LYS798  CYS799  TRP800  GLU811  SER814 

> <Gold.Protein.RotatedAtoms>
  151.1846  133.4704  159.2594 H   0  0  0  0  0  0  0  0  0  0  0  0  # atno 6907 bound_to 6896
  151.1224  135.0086  159.8555 H   0  0  0  0  0  0  0  0  0  0  0  0  # atno 6908 bound_to 6896
  152.5456  134.1756  159.8668 H   0  0  0  0  0  0  0  0  0  0  0  0  # atno 6909 bound_to 6896
  146.0052  140.7028  142.9251 H   0  0  0  0  0  0  0  0  0  0  0  0  # atno 7974 bound_to 7965
  156.2248  140.2982  156.0040 H   0  0  0  0  0  0  0  0  0  0  0  0  # atno 8008 bound_to 7997
  155.2385  140.0421  157.2989 H   0  0  0  0  0  0  0  0  0  0  0  0  # atno 8009 bound_to 7997
  154.5898  140.2398  155.7944 H   0  0  0  0  0  0  0  0  0  0  0  0  # atno 8010 bound_to 7997
  139.9698  144.5902  150.7995 H   0  0  0  0  0  0  0  0  0  0  0  0  # atno 10167 bound_to 10162
  157.2548  131.0786  151.1705 H   0  0  0  0  0  0  0  0  0  0  0  0  # atno 10718 bound_to 10713
  152.9800  135.5759  154.4837 H   0  0  0  0  0  0  0  0  0  0  0  0  # atno 10763 bound_to 10752
  154.4382  135.2775  155.1868 H   0  0  0  0  0  0  0  0  0  0  0  0  # atno 10764 bound_to 10752
  154.3547  135.6201  153.5714 H   0  0  0  0  0  0  0  0  0  0  0  0  # atno 10765 bound_to 10752
  139.9610  134.9602  156.9133 H   0  0  0  0  0  0  0  0  0  0  0  0  # atno 11005 bound_to 11000
  144.6933  140.3303  143.7217 LP  0  0  0  0  0  0  0  0  0  0  0  0  # atno 17320 bound_to 7965
  145.7426  139.1769  143.2367 LP  0  0  0  0  0  0  0  0  0  0  0  0  # atno 17321 bound_to 7965
  140.7525  143.2992  151.3124 LP  0  0  0  0  0  0  0  0  0  0  0  0  # atno 17342 bound_to 10162
  139.6490  144.0398  152.2612 LP  0  0  0  0  0  0  0  0  0  0  0  0  # atno 17343 bound_to 10162
  157.3239  130.6951  149.6285 LP  0  0  0  0  0  0  0  0  0  0  0  0  # atno 17370 bound_to 10713
  155.9665  130.4327  150.4976 LP  0  0  0  0  0  0  0  0  0  0  0  0  # atno 17371 bound_to 10713
  140.5501  134.0635  155.7367 LP  0  0  0  0  0  0  0  0  0  0  0  0  # atno 17394 bound_to 11000
  141.1286  133.9340  157.2582 LP  0  0  0  0  0  0  0  0  0  0  0  0  # atno 17395 bound_to 11000

$$$$
