AV-unprocessed.smi:34|AV-procd|sdf|240|dock1
  -GOLD-   2262015583D 1   1.00000     0.00000
 Structure written by MMmdl.
 54 58  0  0  0  0  0  0  0  0  2 V2000
  152.5728  140.0290  158.2370 O   0  0  0  0  0  0  0  0  0  0  0  0
  151.7207  140.8643  157.9269 C   0  0  0  0  0  0  0  0  0  0  0  0
  150.7207  140.7382  157.0182 N   0  5  0  0  0  0  0  0  0  0  0  0
  150.6671  139.6541  156.2295 C   0  0  0  0  0  0  0  0  0  0  0  0
  150.7719  139.7794  154.8818 N   0  0  0  0  0  0  0  0  0  0  0  0
  150.7147  138.6982  154.0958 C   0  0  0  0  0  0  0  0  0  0  0  0
  150.5544  137.4168  154.4402 N   0  0  0  0  0  0  0  0  0  0  0  0
  150.4366  137.2781  155.7927 C   0  0  0  0  0  0  0  0  0  0  0  0
  150.4788  138.3410  156.7416 C   0  0  0  0  0  0  0  0  0  0  0  0
  150.3214  137.8556  158.0315 N   0  0  0  0  0  0  0  0  0  0  0  0
  150.1951  136.5485  157.8133 C   0  0  0  0  0  0  0  0  0  0  0  0
  150.2562  136.1229  156.5360 N   0  0  0  0  0  0  0  0  0  0  0  0
  150.1451  134.7188  156.0409 C   0  0  1  0  0  0  0  0  0  0  0  0
  149.9712  133.8870  157.1445 O   0  0  0  0  0  0  0  0  0  0  0  0
  149.1403  132.8035  156.7592 C   0  0  1  0  0  0  0  0  0  0  0  0
  148.5375  132.1093  157.9865 C   0  0  0  0  0  0  0  0  0  0  0  0
  148.2306  133.0828  158.9713 O   0  0  0  0  0  0  0  0  0  0  0  0
  147.5660  132.7255  160.0876 C   0  0  0  0  0  0  0  0  0  0  0  0
  147.3191  131.5560  160.3899 O   0  0  0  0  0  0  0  0  0  0  0  0
  147.1601  133.8941  160.9211 C   0  0  0  0  0  0  0  0  0  0  0  0
  147.5733  135.1926  160.5414 C   0  0  0  0  0  0  0  0  0  0  0  0
  147.2056  136.3155  161.3081 C   0  0  0  0  0  0  0  0  0  0  0  0
  146.4202  136.1538  162.4641 C   0  0  0  0  0  0  0  0  0  0  0  0
  146.0029  134.8674  162.8528 C   0  0  0  0  0  0  0  0  0  0  0  0
  146.3696  133.7431  162.0873 C   0  0  0  0  0  0  0  0  0  0  0  0
  148.1124  133.4660  155.8399 C   0  0  1  0  0  0  0  0  0  0  0  0
  147.1344  134.0327  156.5486 F   0  0  0  0  0  0  0  0  0  0  0  0
  148.9169  134.5475  155.1281 C   0  0  2  0  0  0  0  0  0  0  0  0
  149.2789  134.1010  153.8371 O   0  0  0  0  0  0  0  0  0  0  0  0
  151.7850  142.2318  158.5517 C   0  0  0  0  0  0  0  0  0  0  0  0
  152.5019  142.4186  159.7557 C   0  0  0  0  0  0  0  0  0  0  0  0
  152.5543  143.6856  160.3686 C   0  0  0  0  0  0  0  0  0  0  0  0
  151.8808  144.7775  159.7897 C   0  0  0  0  0  0  0  0  0  0  0  0
  151.1515  144.6005  158.5990 C   0  0  0  0  0  0  0  0  0  0  0  0
  151.0999  143.3340  157.9845 C   0  0  0  0  0  0  0  0  0  0  0  0
  150.8099  138.8875  153.0368 H   0  0  0  0  0  0  0  0  0  0  0  0
  150.0530  135.8589  158.6323 H   0  0  0  0  0  0  0  0  0  0  0  0
  151.0953  134.5099  155.5465 H   0  0  0  0  0  0  0  0  0  0  0  0
  149.7328  132.0955  156.1763 H   0  0  0  0  0  0  0  0  0  0  0  0
  147.6449  131.5469  157.7076 H   0  0  0  0  0  0  0  0  0  0  0  0
  149.2570  131.4030  158.4032 H   0  0  0  0  0  0  0  0  0  0  0  0
  148.1770  135.3419  159.6579 H   0  0  0  0  0  0  0  0  0  0  0  0
  147.5271  137.3021  161.0083 H   0  0  0  0  0  0  0  0  0  0  0  0
  146.1384  137.0150  163.0518 H   0  0  0  0  0  0  0  0  0  0  0  0
  145.3999  134.7419  163.7402 H   0  0  0  0  0  0  0  0  0  0  0  0
  146.0324  132.7701  162.4137 H   0  0  0  0  0  0  0  0  0  0  0  0
  147.6338  132.7575  155.1628 H   0  0  0  0  0  0  0  0  0  0  0  0
  148.3531  135.4777  155.0394 H   0  0  0  0  0  0  0  0  0  0  0  0
  149.2240  134.8328  153.2415 H   0  0  0  0  0  0  0  0  0  0  0  0
  153.0228  141.5900  160.2134 H   0  0  0  0  0  0  0  0  0  0  0  0
  153.1112  143.8187  161.2842 H   0  0  0  0  0  0  0  0  0  0  0  0
  151.9202  145.7486  160.2603 H   0  0  0  0  0  0  0  0  0  0  0  0
  150.6289  145.4356  158.1566 H   0  0  0  0  0  0  0  0  0  0  0  0
  150.5268  143.2169  157.0761 H   0  0  0  0  0  0  0  0  0  0  0  0
  1  2  2  0  0  0  0
  2  3  1  0  0  0  0
  2 30  1  0  0  0  0
  3  4  1  0  0  0  0
  4  9  1  0  0  0  0
  4  5  2  0  0  0  0
  5  6  1  0  0  0  0
  6  7  2  0  0  0  0
  6 36  1  0  0  0  0
  7  8  1  0  0  0  0
  8 12  1  0  0  0  0
  8  9  2  0  0  0  0
  9 10  1  0  0  0  0
 10 11  2  0  0  0  0
 11 12  1  0  0  0  0
 11 37  1  0  0  0  0
 12 13  1  0  0  0  0
 13 28  1  0  0  0  0
 13 14  1  0  0  0  0
 13 38  1  0  0  0  0
 14 15  1  0  0  0  0
 15 16  1  0  0  0  0
 15 26  1  0  0  0  0
 15 39  1  0  0  0  0
 16 17  1  0  0  0  0
 16 40  1  0  0  0  0
 16 41  1  0  0  0  0
 17 18  1  0  0  0  0
 18 19  2  0  0  0  0
 18 20  1  0  0  0  0
 20 25  1  0  0  0  0
 20 21  2  0  0  0  0
 21 22  1  0  0  0  0
 21 42  1  0  0  0  0
 22 23  2  0  0  0  0
 22 43  1  0  0  0  0
 23 24  1  0  0  0  0
 23 44  1  0  0  0  0
 24 25  2  0  0  0  0
 24 45  1  0  0  0  0
 25 46  1  0  0  0  0
 26 27  1  0  0  0  0
 26 28  1  0  0  0  0
 26 47  1  0  0  0  0
 28 29  1  0  0  0  0
 28 48  1  0  0  0  0
 29 49  1  0  0  0  0
 30 35  1  0  0  0  0
 30 31  2  0  0  0  0
 31 32  1  0  0  0  0
 31 50  1  0  0  0  0
 32 33  2  0  0  0  0
 32 51  1  0  0  0  0
 33 34  1  0  0  0  0
 33 52  1  0  0  0  0
 34 35  2  0  0  0  0
 34 53  1  0  0  0  0
 35 54  1  0  0  0  0
M  CHG  1   3  -1
M  END
> <s_m_source_file>
AV-unprocessed.smi

> <i_m_source_file_index>
34

> <i_lp_mmshare_version>
43012

> <i_f3d_flags>
0

> <s_epik_input>
W2NIXTFbY0hdW2NIXVtjSF1bY0hdYzFDKD1PKVtOSF1jKG5bY0hdbjIpYyhjMjMpbltjSF1uM1tDQEBIXTRPW0NASF0oW0NAQEhdKEYpW0NASF00W09IXSlbQ0gyXU9DKD1PKWM1W2NIXVtjSF1bY0hdW2NIXVtjSF01

> <s_epik_cmdline>
J2VwaWtfcHl0aG9uJywgJy1waCcsICc3LjAnLCAnLXRuJywgJzgnLCAnLW1hJywgJzIwMCcsICctbWV0YWxfYmluZGluZycsICctaW1hZScsICc8aW5maWxlLm1hZT4nLCAnLW9tYWUnLCAnPG91dGZpbGUubWFlPic=

> <r_lp_tautomer_probability>
1

> <r_epik_Ionization_Penalty>
4.33227

> <r_epik_Ionization_Penalty_Charging>
3.41027

> <r_epik_Ionization_Penalty_Neutral>
0.922001

> <r_epik_State_Penalty>
3.41358

> <r_epik_Charging_Adjusted_Penalty>
6.82385

> <i_epik_Tot_Q>
-1

> <i_epik_Tot_abs_Q>
1

> <r_epik_Metal_State_Penalty>
0.496292

> <b_epik_Metal_Only>
1

> <s_epik_Chemistry_Notes>
This compound has an ester and may undergo hydrolysis at high or low pH. This compound contains an acetal/aminal-like group ( X-CH(R)-Y where X, Y are N, S, or O) that may be acid/base labile, releasing an aldehyde.

> <s_lp_Force_Field>
OPLS_2005

> <r_lp_Energy>
44.0615

> <b_lp_Chiralities_Consistent>
1

> <s_lp_Variant>
AV-unprocessed.smi:34-26

> <Gold.Version>
5.8.1

> <Gold.Id.Protein>
6NUR|6NUR_protein|mol2

> <Gold.PLP.Fitness>
66.0752

> <Gold.PLP.PLP>
-55.0919

> <Gold.PLP.part.hbond>
-4.6746

> <Gold.PLP.part.metal>
0.0000

> <Gold.PLP.part.buried>
-8.4345

> <Gold.PLP.part.nonpolar>
-44.5032

> <Gold.PLP.part.repulsive>
0.3173

> <Gold.PLP.ligand.clash>
0.0000

> <Gold.PLP.ligand.torsion>
1.0515

> <Gold.PLP.Chemscore.Hbond>
3.1902

> <Gold.PLP.Chemscore.CHOScore>
0.9673

> <Gold.PLP.Chemscore.Metal>
0.0000

> <Gold.Chemscore.Hbonds>
donor molecule, donor type, donor heavy atom, donor atom, acceptor molecule, acceptor atom, score
      L1  H    29    49       P1  7948  0.60
      P1  H  6896  6907       L1    14  0.41
      P1  H  7989  7998       L1     5  0.65
      P1  H  7997  8009       L1     1  0.21
      L1  C     6    36       P1  7957  1.00

> <Gold.PLP.Chemscore.Internal.Correction>
0.6138

> <Gold.Rescore>
     Score         DG    S(hbond)    S(metal)    S(lipo)     H(rot)  DE(clash)    DE(int)     intcor
     19.61     -22.56       2.59        0.00     130.95       2.69       0.38       2.56       ----

> <Gold.Chemscore.Fitness>
19.6077

> <Gold.Chemscore.DG>
-22.5560

> <Gold.Chemscore.ZeroCoef>
-5.4800

> <Gold.Chemscore.Hbond>
2.5905

> <Gold.Chemscore.Metal>
0.0000

> <Gold.Chemscore.Lipo>
130.9504

> <Gold.Chemscore.Internal_Hbond>
0.0000

> <Gold.Chemscore.DEClash>
0.3841

> <Gold.Chemscore.DEInternal>
2.5643

> <Gold.Chemscore.Rot>
2.6944

> <Gold.Chemscore.Internal.Correction>
   9.000000E+99

> <Gold.Chemscore.Hbonds>
donor molecule, donor type, donor heavy atom, donor atom, acceptor molecule, acceptor atom, score
      L1  H    29    49       P1  7948  0.04
      P1  H  6896  6907       L1    14  0.36
      P1  H  7989  7998       L1     5  0.06
      P1  H  7997  8009       L1     1  0.19

> <Gold.Chemscore.Hbond.Weighted>
-8.6524

> <Gold.Chemscore.Metal.Weighted>
-0.0000

> <Gold.Chemscore.Lipo.Weighted>
-15.3212

> <Gold.Chemscore.Internal_Hbond.Weighted>
0.0000

> <Gold.Chemscore.DEClash.Weighted>
0.3841

> <Gold.Chemscore.DEInternal.Weighted>
2.5643

> <Gold.Chemscore.Rot.Weighted>
6.8975

> <Gold.Chemscore.Internal.Correction.Weighted>
   9.000000E+99

> <Gold.Protein.RotatedTorsions>
[ 6907 6896 6895 6894 ] final -117.98 input  -60.11 | X-H torsion
[ 7974 7965 7964 7962 ] final  -74.36 input  175.53 | X-H torsion
[ 8008 7997 7996 7995 ] final  169.04 input   59.86 | X-H torsion
[ 10167 10162 10161 10158 ] final -177.63 input  -65.29 | X-H torsion
[ 10718 10713 10712 10709 ] final  132.50 input   66.30 | X-H torsion
[ 10763 10752 10751 10750 ] final  160.02 input  -60.55 | X-H torsion
[ 11005 11000 10999 10996 ] final   31.59 input  -57.11 | X-H torsion

> <Gold.Protein.ActiveResidues>
 VAL166  LYS551  ARG553  GLY616  TRP617  ASP618  TYR619  PRO620  LYS621  CYS622 
 ASP623  PHE694  ASN695  SER759  ASP760  ASP761  ALA762  ILE779  LEU786  VAL792 
 PHE793  MET794  SER795  GLU796  ALA797  LYS798  CYS799  TRP800  GLU811  SER814 

> <Gold.Protein.RotatedAtoms>
  150.8181  133.8301  159.3151 H   0  0  0  0  0  0  0  0  0  0  0  0  # atno 6907 bound_to 6896
  151.6067  135.1041  160.0082 H   0  0  0  0  0  0  0  0  0  0  0  0  # atno 6908 bound_to 6896
  152.4271  133.7174  159.6570 H   0  0  0  0  0  0  0  0  0  0  0  0  # atno 6909 bound_to 6896
  145.6401  140.9313  143.1040 H   0  0  0  0  0  0  0  0  0  0  0  0  # atno 7974 bound_to 7965
  156.1493  140.1574  156.8795 H   0  0  0  0  0  0  0  0  0  0  0  0  # atno 8008 bound_to 7997
  154.5057  140.0814  156.7926 H   0  0  0  0  0  0  0  0  0  0  0  0  # atno 8009 bound_to 7997
  155.3927  140.3410  155.4254 H   0  0  0  0  0  0  0  0  0  0  0  0  # atno 8010 bound_to 7997
  139.5471  144.2208  152.1008 H   0  0  0  0  0  0  0  0  0  0  0  0  # atno 10167 bound_to 10162
  157.4865  131.1088  150.9614 H   0  0  0  0  0  0  0  0  0  0  0  0  # atno 10718 bound_to 10713
  154.2409  135.2775  155.2854 H   0  0  0  0  0  0  0  0  0  0  0  0  # atno 10763 bound_to 10752
  154.5546  135.5665  153.6956 H   0  0  0  0  0  0  0  0  0  0  0  0  # atno 10764 bound_to 10752
  153.0000  135.6283  154.2553 H   0  0  0  0  0  0  0  0  0  0  0  0  # atno 10765 bound_to 10752
  140.2823  134.2959  155.7797 H   0  0  0  0  0  0  0  0  0  0  0  0  # atno 11005 bound_to 11000
  144.7161  139.8193  143.7398 LP  0  0  0  0  0  0  0  0  0  0  0  0  # atno 17320 bound_to 7965
  146.1288  139.4319  143.0182 LP  0  0  0  0  0  0  0  0  0  0  0  0  # atno 17321 bound_to 7965
  140.1696  144.4948  150.6587 LP  0  0  0  0  0  0  0  0  0  0  0  0  # atno 17342 bound_to 10162
  140.6722  143.2290  151.5597 LP  0  0  0  0  0  0  0  0  0  0  0  0  # atno 17343 bound_to 10162
  157.0330  130.5718  149.5345 LP  0  0  0  0  0  0  0  0  0  0  0  0  # atno 17370 bound_to 10713
  156.0149  130.5243  150.8105 LP  0  0  0  0  0  0  0  0  0  0  0  0  # atno 17371 bound_to 10713
  141.2160  133.7533  156.9499 LP  0  0  0  0  0  0  0  0  0  0  0  0  # atno 17394 bound_to 11000
  140.1272  134.9379  157.2286 LP  0  0  0  0  0  0  0  0  0  0  0  0  # atno 17395 bound_to 11000

$$$$
