AV-unprocessed.smi:1984|AV-procd|sdf|8040|dock7
  -GOLD-   2272010233D 1   1.00000     0.00000
 Structure written by MMmdl.
 38 39  0  0  0  0  0  0  0  0  1 V2000
  153.1882  143.1829  162.7402 C   0  0  0  0  0  0  0  0  0  0  0  0
  152.5351  143.4313  161.4126 C   0  0  0  0  0  0  0  0  0  0  0  0
  152.8816  142.8868  160.1448 C   0  0  0  0  0  0  0  0  0  0  0  0
  151.9870  143.4500  159.2789 C   0  0  0  0  0  0  0  0  0  0  0  0
  151.8427  143.2805  157.8022 C   0  0  0  0  0  0  0  0  0  0  0  0
  151.1688  144.2776  160.0279 N   0  0  0  0  0  0  0  0  0  0  0  0
  150.0750  145.1357  159.5906 C   0  0  0  0  0  0  0  0  0  0  0  0
  148.8949  145.0644  160.5630 C   0  0  0  0  0  0  0  0  0  0  0  0
  149.0661  144.6597  161.7125 O   0  0  0  0  0  0  0  0  0  0  0  0
  147.7098  145.4910  160.0993 N   0  0  0  0  0  0  0  0  0  0  0  0
  146.5230  145.7159  160.9147 C   0  0  0  0  0  0  0  0  0  0  0  0
  145.4299  144.6713  160.6107 C   0  0  2  0  0  0  0  0  0  0  0  0
  144.3790  144.5638  161.7317 C   0  0  0  0  0  0  0  0  0  0  0  0
  143.5069  143.3339  161.4596 C   0  0  0  0  0  0  0  0  0  0  0  0
  144.6293  142.0906  160.7188 S   0  0  0  0  0  0  0  0  0  0  0  0
  145.0794  141.1556  161.7610 O   0  0  0  0  0  0  0  0  0  0  0  0
  144.0431  141.5998  159.4625 O   0  0  0  0  0  0  0  0  0  0  0  0
  145.9890  143.2611  160.3470 C   0  0  0  0  0  0  0  0  0  0  0  0
  151.5056  144.2580  161.3369 N   0  0  0  0  0  0  0  0  0  0  0  0
  153.8407  142.3105  162.7006 H   0  0  0  0  0  0  0  0  0  0  0  0
  152.4471  143.0062  163.5204 H   0  0  0  0  0  0  0  0  0  0  0  0
  153.7940  144.0375  163.0421 H   0  0  0  0  0  0  0  0  0  0  0  0
  153.6724  142.1912  159.9062 H   0  0  0  0  0  0  0  0  0  0  0  0
  152.6420  142.6565  157.4020 H   0  0  0  0  0  0  0  0  0  0  0  0
  151.8832  144.2427  157.2918 H   0  0  0  0  0  0  0  0  0  0  0  0
  150.8926  142.8050  157.5584 H   0  0  0  0  0  0  0  0  0  0  0  0
  150.4229  146.1654  159.5076 H   0  0  0  0  0  0  0  0  0  0  0  0
  149.7588  144.8245  158.5937 H   0  0  0  0  0  0  0  0  0  0  0  0
  147.6607  145.7881  159.1355 H   0  0  0  0  0  0  0  0  0  0  0  0
  146.8189  145.6534  161.9623 H   0  0  0  0  0  0  0  0  0  0  0  0
  146.1441  146.7271  160.7578 H   0  0  0  0  0  0  0  0  0  0  0  0
  144.8965  144.9798  159.7100 H   0  0  0  0  0  0  0  0  0  0  0  0
  144.8855  144.4335  162.6888 H   0  0  0  0  0  0  0  0  0  0  0  0
  143.7763  145.4690  161.8100 H   0  0  0  0  0  0  0  0  0  0  0  0
  143.0353  142.9333  162.3568 H   0  0  0  0  0  0  0  0  0  0  0  0
  142.7313  143.5653  160.7291 H   0  0  0  0  0  0  0  0  0  0  0  0
  146.3285  143.1256  159.3195 H   0  0  0  0  0  0  0  0  0  0  0  0
  146.8174  143.0327  161.0180 H   0  0  0  0  0  0  0  0  0  0  0  0
  1  2  1  0  0  0  0
  1 20  1  0  0  0  0
  1 21  1  0  0  0  0
  1 22  1  0  0  0  0
  2 19  2  0  0  0  0
  2  3  1  0  0  0  0
  3  4  2  0  0  0  0
  3 23  1  0  0  0  0
  4  5  1  0  0  0  0
  4  6  1  0  0  0  0
  5 24  1  0  0  0  0
  5 25  1  0  0  0  0
  5 26  1  0  0  0  0
  6  7  1  0  0  0  0
  6 19  1  0  0  0  0
  7  8  1  0  0  0  0
  7 27  1  0  0  0  0
  7 28  1  0  0  0  0
  8  9  2  0  0  0  0
  8 10  1  0  0  0  0
 10 11  1  0  0  0  0
 10 29  1  0  0  0  0
 11 12  1  0  0  0  0
 11 30  1  0  0  0  0
 11 31  1  0  0  0  0
 12 18  1  0  0  0  0
 12 13  1  0  0  0  0
 12 32  1  0  0  0  0
 13 14  1  0  0  0  0
 13 33  1  0  0  0  0
 13 34  1  0  0  0  0
 14 15  1  0  0  0  0
 14 35  1  0  0  0  0
 14 36  1  0  0  0  0
 15 16  2  0  0  0  0
 15 17  2  0  0  0  0
 15 18  1  0  0  0  0
 18 37  1  0  0  0  0
 18 38  1  0  0  0  0
M  END
> <s_m_source_file>
AV-unprocessed.smi

> <i_m_source_file_index>
1984

> <i_lp_mmshare_version>
43012

> <i_f3d_flags>
0

> <s_epik_input>
W0NIM11jMVtjSF1jKFtDSDNdKW4objEpW0NIMl1DKD1PKVtOSF1bQ0gyXVtDQEBIXShbQ0gyXTIpW0NIMl1bQ0gyXVMyKD1PKT1P

> <s_epik_cmdline>
J2VwaWtfcHl0aG9uJywgJy1waCcsICc3LjAnLCAnLXRuJywgJzgnLCAnLW1hJywgJzIwMCcsICctbWV0YWxfYmluZGluZycsICctaW1hZScsICc8aW5maWxlLm1hZT4nLCAnLW9tYWUnLCAnPG91dGZpbGUubWFlPic=

> <r_lp_tautomer_probability>
1

> <r_epik_Ionization_Penalty>
0.000335865

> <r_epik_Ionization_Penalty_Charging>
0

> <r_epik_Ionization_Penalty_Neutral>
0.000335865

> <r_epik_State_Penalty>
-0

> <r_epik_Charging_Adjusted_Penalty>
0

> <i_epik_Tot_Q>
0

> <i_epik_Tot_abs_Q>
0

> <r_epik_Metal_State_Penalty>
-0

> <b_epik_Metal_Only>
0

> <s_lp_Force_Field>
OPLS_2005

> <r_lp_Energy>
1.39039

> <b_lp_Chiralities_Consistent>
1

> <s_lp_Variant>
AV-unprocessed.smi:1984-1

> <Gold.Version>
5.8.1

> <Gold.Id.Protein>
6NUR|6NUR_protein|mol2

> <Gold.PLP.Fitness>
44.3783

> <Gold.PLP.PLP>
-40.3686

> <Gold.PLP.part.hbond>
-4.0800

> <Gold.PLP.part.metal>
0.0000

> <Gold.PLP.part.buried>
-7.2518

> <Gold.PLP.part.nonpolar>
-29.8253

> <Gold.PLP.part.repulsive>
0.9889

> <Gold.PLP.ligand.clash>
0.0000

> <Gold.PLP.ligand.torsion>
0.7537

> <Gold.PLP.Chemscore.Hbond>
1.8367

> <Gold.PLP.Chemscore.CHOScore>
0.0000

> <Gold.PLP.Chemscore.Metal>
0.0000

> <Gold.Chemscore.Hbonds>
donor molecule, donor type, donor heavy atom, donor atom, acceptor molecule, acceptor atom, score
      L1  H    10    29       P1  8029  1.00
      P1  H  6933  6944       L1     9  0.11
      P1  H  6934  6946       L1    16  0.19

> <Gold.PLP.Chemscore.Internal.Correction>
0.0070

> <Gold.Rescore>
     Score         DG    S(hbond)    S(metal)    S(lipo)     H(rot)  DE(clash)    DE(int)     intcor
     15.36     -18.26       2.00        0.00      88.95       1.68       0.58       2.32       ----

> <Gold.Chemscore.Fitness>
15.3613

> <Gold.Chemscore.DG>
-18.2620

> <Gold.Chemscore.ZeroCoef>
-5.4800

> <Gold.Chemscore.Hbond>
1.9985

> <Gold.Chemscore.Metal>
0.0000

> <Gold.Chemscore.Lipo>
88.9453

> <Gold.Chemscore.Internal_Hbond>
0.0000

> <Gold.Chemscore.DEClash>
0.5802

> <Gold.Chemscore.DEInternal>
2.3205

> <Gold.Chemscore.Rot>
1.6795

> <Gold.Chemscore.Internal.Correction>
   9.000000E+99

> <Gold.Chemscore.Hbonds>
donor molecule, donor type, donor heavy atom, donor atom, acceptor molecule, acceptor atom, score
      L1  H    10    29       P1  8029  1.00
      P1  H  6933  6944       L1     9  0.03
      P1  H  6934  6946       L1    16  0.01

> <Gold.Chemscore.Hbond.Weighted>
-6.6749

> <Gold.Chemscore.Metal.Weighted>
-0.0000

> <Gold.Chemscore.Lipo.Weighted>
-10.4066

> <Gold.Chemscore.Internal_Hbond.Weighted>
0.0000

> <Gold.Chemscore.DEClash.Weighted>
0.5802

> <Gold.Chemscore.DEInternal.Weighted>
2.3205

> <Gold.Chemscore.Rot.Weighted>
4.2995

> <Gold.Chemscore.Internal.Correction.Weighted>
   9.000000E+99

> <Gold.Protein.RotatedTorsions>
[ 6907 6896 6895 6894 ] final  106.01 input  -60.11 | X-H torsion
[ 7974 7965 7964 7962 ] final   61.41 input  175.53 | X-H torsion
[ 8008 7997 7996 7995 ] final -146.23 input   59.86 | X-H torsion
[ 10167 10162 10161 10158 ] final  -70.21 input  -65.29 | X-H torsion
[ 10718 10713 10712 10709 ] final  -76.69 input   66.30 | X-H torsion
[ 10763 10752 10751 10750 ] final   54.39 input  -60.55 | X-H torsion
[ 11005 11000 10999 10996 ] final  -23.39 input  -57.11 | X-H torsion

> <Gold.Protein.ActiveResidues>
 VAL166  LYS551  ARG553  GLY616  TRP617  ASP618  TYR619  PRO620  LYS621  CYS622 
 ASP623  PHE694  ASN695  SER759  ASP760  ASP761  ALA762  ILE779  LEU786  VAL792 
 PHE793  MET794  SER795  GLU796  ALA797  LYS798  CYS799  TRP800  GLU811  SER814 

> <Gold.Protein.RotatedAtoms>
  152.5210  133.9445  159.7641 H   0  0  0  0  0  0  0  0  0  0  0  0  # atno 6907 bound_to 6896
  150.9768  133.6279  159.2736 H   0  0  0  0  0  0  0  0  0  0  0  0  # atno 6908 bound_to 6896
  151.3471  135.0882  159.9443 H   0  0  0  0  0  0  0  0  0  0  0  0  # atno 6909 bound_to 6896
  145.8850  139.3470  143.0683 H   0  0  0  0  0  0  0  0  0  0  0  0  # atno 7974 bound_to 7965
  155.5560  140.0621  157.2839 H   0  0  0  0  0  0  0  0  0  0  0  0  # atno 8008 bound_to 7997
  154.4405  140.1894  156.0779 H   0  0  0  0  0  0  0  0  0  0  0  0  # atno 8009 bound_to 7997
  156.0482  140.3287  155.7324 H   0  0  0  0  0  0  0  0  0  0  0  0  # atno 8010 bound_to 7997
  140.5371  143.2317  151.7158 H   0  0  0  0  0  0  0  0  0  0  0  0  # atno 10167 bound_to 10162
  156.0167  130.4472  150.3231 H   0  0  0  0  0  0  0  0  0  0  0  0  # atno 10718 bound_to 10713
  152.9804  135.5746  154.4897 H   0  0  0  0  0  0  0  0  0  0  0  0  # atno 10763 bound_to 10752
  154.4433  135.2776  155.1834 H   0  0  0  0  0  0  0  0  0  0  0  0  # atno 10764 bound_to 10752
  154.3493  135.6212  153.5688 H   0  0  0  0  0  0  0  0  0  0  0  0  # atno 10765 bound_to 10752
  140.8747  133.7695  156.0229 H   0  0  0  0  0  0  0  0  0  0  0  0  # atno 11005 bound_to 11000
  145.8977  140.9263  143.0519 LP  0  0  0  0  0  0  0  0  0  0  0  0  # atno 17320 bound_to 7965
  144.6728  140.0991  143.7461 LP  0  0  0  0  0  0  0  0  0  0  0  0  # atno 17321 bound_to 7965
  139.4975  144.4026  152.0165 LP  0  0  0  0  0  0  0  0  0  0  0  0  # atno 17342 bound_to 10162
  140.3133  144.3513  150.6028 LP  0  0  0  0  0  0  0  0  0  0  0  0  # atno 17343 bound_to 10162
  157.1331  131.0277  151.2960 LP  0  0  0  0  0  0  0  0  0  0  0  0  # atno 17370 bound_to 10713
  157.4534  130.7611  149.7171 LP  0  0  0  0  0  0  0  0  0  0  0  0  # atno 17371 bound_to 10713
  140.8532  134.2929  157.5266 LP  0  0  0  0  0  0  0  0  0  0  0  0  # atno 17394 bound_to 11000
  139.8714  134.9479  156.3980 LP  0  0  0  0  0  0  0  0  0  0  0  0  # atno 17395 bound_to 11000

$$$$
