AV-unprocessed.smi:3252|AV-procd|sdf|12439|dock3
  -GOLD-   2272018333D 1   1.00000     0.00000
 Structure written by MMmdl.
 37 38  0  0  0  0  0  0  0  0  2 V2000
  141.4022  134.4276  153.1659 C   0  0  0  0  0  0  0  0  0  0  0  0
  142.8874  134.8115  153.2293 C   0  0  0  0  0  0  0  0  0  0  0  0
  143.7818  133.7097  152.7941 N   0  3  1  0  0  0  0  0  0  0  0  0
  143.3460  133.1049  151.5132 C   0  0  0  0  0  0  0  0  0  0  0  0
  144.2729  131.9421  151.1231 C   0  0  0  0  0  0  0  0  0  0  0  0
  145.6144  132.4079  151.0540 O   0  0  0  0  0  0  0  0  0  0  0  0
  146.0813  132.8952  152.3080 C   0  0  1  0  0  0  0  0  0  0  0  0
  147.5590  133.2935  152.1513 C   0  0  0  0  0  0  0  0  0  0  0  0
  148.4714  132.2079  152.4903 N   0  0  0  0  0  0  0  0  0  0  0  0
  149.2035  132.2028  153.6867 C   0  0  0  0  0  0  0  0  0  0  0  0
  149.5027  133.4386  154.2980 C   0  0  0  0  0  0  0  0  0  0  0  0
  150.2383  133.4436  155.4994 C   0  0  0  0  0  0  0  0  0  0  0  0
  150.6503  132.2127  156.0469 C   0  0  0  0  0  0  0  0  0  0  0  0
  151.4135  132.1645  157.2822 C   0  0  0  0  0  0  0  0  0  0  0  0
  152.0212  132.1262  158.2659 N   0  0  0  0  0  0  0  0  0  0  0  0
  150.3038  131.0288  155.3649 C   0  0  0  0  0  0  0  0  0  0  0  0
  149.5981  131.0184  154.2131 N   0  0  0  0  0  0  0  0  0  0  0  0
  145.2119  134.0991  152.7193 C   0  0  0  0  0  0  0  0  0  0  0  0
  140.7754  135.2885  153.3985 H   0  0  0  0  0  0  0  0  0  0  0  0
  141.1500  133.6450  153.8809 H   0  0  0  0  0  0  0  0  0  0  0  0
  141.1265  134.0782  152.1707 H   0  0  0  0  0  0  0  0  0  0  0  0
  143.0384  135.6702  152.5736 H   0  0  0  0  0  0  0  0  0  0  0  0
  143.1569  135.1389  154.2344 H   0  0  0  0  0  0  0  0  0  0  0  0
  142.3212  132.7424  151.6022 H   0  0  0  0  0  0  0  0  0  0  0  0
  143.3515  133.8646  150.7298 H   0  0  0  0  0  0  0  0  0  0  0  0
  144.1942  131.1212  151.8380 H   0  0  0  0  0  0  0  0  0  0  0  0
  143.9869  131.5444  150.1493 H   0  0  0  0  0  0  0  0  0  0  0  0
  145.9877  132.1127  153.0631 H   0  0  0  0  0  0  0  0  0  0  0  0
  147.7534  133.5990  151.1228 H   0  0  0  0  0  0  0  0  0  0  0  0
  147.7857  134.1605  152.7730 H   0  0  0  0  0  0  0  0  0  0  0  0
  148.5591  131.4321  151.8494 H   0  0  0  0  0  0  0  0  0  0  0  0
  149.1760  134.3697  153.8580 H   0  0  0  0  0  0  0  0  0  0  0  0
  150.4795  134.3780  155.9859 H   0  0  0  0  0  0  0  0  0  0  0  0
  150.5993  130.0622  155.7468 H   0  0  0  0  0  0  0  0  0  0  0  0
  145.3319  134.9130  152.0022 H   0  0  0  0  0  0  0  0  0  0  0  0
  145.5521  134.4715  153.6852 H   0  0  0  0  0  0  0  0  0  0  0  0
  143.7086  132.9828  153.4917 H   0  0  0  0  0  0  0  0  0  0  0  0
  1  2  1  0  0  0  0
  1 19  1  0  0  0  0
  1 20  1  0  0  0  0
  1 21  1  0  0  0  0
  2  3  1  0  0  0  0
  2 22  1  0  0  0  0
  2 23  1  0  0  0  0
  3 18  1  0  0  0  0
  3  4  1  0  0  0  0
  3 37  1  0  0  0  0
  4  5  1  0  0  0  0
  4 24  1  0  0  0  0
  4 25  1  0  0  0  0
  5  6  1  0  0  0  0
  5 26  1  0  0  0  0
  5 27  1  0  0  0  0
  6  7  1  0  0  0  0
  7  8  1  0  0  0  0
  7 18  1  0  0  0  0
  7 28  1  0  0  0  0
  8  9  1  0  0  0  0
  8 29  1  0  0  0  0
  8 30  1  0  0  0  0
  9 10  1  0  0  0  0
  9 31  1  0  0  0  0
 10 17  1  0  0  0  0
 10 11  2  0  0  0  0
 11 12  1  0  0  0  0
 11 32  1  0  0  0  0
 12 13  2  0  0  0  0
 12 33  1  0  0  0  0
 13 14  1  0  0  0  0
 13 16  1  0  0  0  0
 14 15  3  0  0  0  0
 16 17  2  0  0  0  0
 16 34  1  0  0  0  0
 18 35  1  0  0  0  0
 18 36  1  0  0  0  0
M  CHG  1   3   1
M  END
> <s_m_source_file>
AV-unprocessed.smi

> <i_m_source_file_index>
3252

> <i_lp_mmshare_version>
43012

> <i_f3d_flags>
0

> <s_epik_input>
W0NIM11bQ0gyXU4xW0NIMl1bQ0gyXU9bQ0BIXShbQ0gyXTEpW0NIMl1bTkhdYzJbY0hdW2NIXWMoQyNOKVtjSF1uMg==

> <s_epik_cmdline>
J2VwaWtfcHl0aG9uJywgJy1waCcsICc3LjAnLCAnLXRuJywgJzgnLCAnLW1hJywgJzIwMCcsICctbWV0YWxfYmluZGluZycsICctaW1hZScsICc8aW5maWxlLm1hZT4nLCAnLW9tYWUnLCAnPG91dGZpbGUubWFlPic=

> <r_epik_Ionization_Penalty>
0.178512

> <r_epik_Ionization_Penalty_Charging>
0.178504

> <r_epik_Ionization_Penalty_Neutral>
8.15545e-06

> <r_epik_State_Penalty>
0.167974

> <r_epik_Charging_Adjusted_Penalty>
0.346478

> <i_epik_Tot_Q>
1

> <i_epik_Tot_abs_Q>
1

> <r_epik_Metal_State_Penalty>
0.167974

> <b_epik_Metal_Only>
0

> <s_lp_Force_Field>
OPLS_2005

> <r_lp_Energy>
17.3379

> <b_lp_Chiralities_Consistent>
1

> <s_lp_Variant>
AV-unprocessed.smi:3252-1

> <Gold.Version>
5.8.1

> <Gold.Id.Protein>
6NUR|6NUR_protein|mol2

> <Gold.PLP.Fitness>
44.1525

> <Gold.PLP.PLP>
-33.6303

> <Gold.PLP.part.hbond>
-2.9166

> <Gold.PLP.part.metal>
0.0000

> <Gold.PLP.part.buried>
-4.8224

> <Gold.PLP.part.nonpolar>
-26.9423

> <Gold.PLP.part.repulsive>
0.2056

> <Gold.PLP.ligand.clash>
0.0000

> <Gold.PLP.ligand.torsion>
0.6876

> <Gold.PLP.Chemscore.Hbond>
3.9600

> <Gold.PLP.Chemscore.CHOScore>
0.0000

> <Gold.PLP.Chemscore.Metal>
0.0000

> <Gold.Chemscore.Hbonds>
donor molecule, donor type, donor heavy atom, donor atom, acceptor molecule, acceptor atom, score
      L1  H     3    37       P1 10957  1.89
      L1  H     9    31       P1 10747  0.98
      P1  H  6896  6908       L1    15  1.00

> <Gold.PLP.Chemscore.Internal.Correction>
0.0174

> <Gold.Rescore>
     Score         DG    S(hbond)    S(metal)    S(lipo)     H(rot)  DE(clash)    DE(int)     intcor
     18.17     -18.84       2.83        0.00      65.44       1.47       0.01       0.66       ----

> <Gold.Chemscore.Fitness>
18.1680

> <Gold.Chemscore.DG>
-18.8371

> <Gold.Chemscore.ZeroCoef>
-5.4800

> <Gold.Chemscore.Hbond>
2.8320

> <Gold.Chemscore.Metal>
0.0000

> <Gold.Chemscore.Lipo>
65.4412

> <Gold.Chemscore.Internal_Hbond>
0.0000

> <Gold.Chemscore.DEClash>
0.0126

> <Gold.Chemscore.DEInternal>
0.6564

> <Gold.Chemscore.Rot>
1.4681

> <Gold.Chemscore.Internal.Correction>
   9.000000E+99

> <Gold.Chemscore.Hbonds>
donor molecule, donor type, donor heavy atom, donor atom, acceptor molecule, acceptor atom, score
      L1  H     3    37       P1 10957  0.72
      L1  H     9    31       P1 10747  0.93
      P1  H  6896  6908       L1    15  0.97

> <Gold.Chemscore.Hbond.Weighted>
-9.4589

> <Gold.Chemscore.Metal.Weighted>
-0.0000

> <Gold.Chemscore.Lipo.Weighted>
-7.6566

> <Gold.Chemscore.Internal_Hbond.Weighted>
0.0000

> <Gold.Chemscore.DEClash.Weighted>
0.0126

> <Gold.Chemscore.DEInternal.Weighted>
0.6564

> <Gold.Chemscore.Rot.Weighted>
3.7584

> <Gold.Chemscore.Internal.Correction.Weighted>
   9.000000E+99

> <Gold.Protein.RotatedTorsions>
[ 6907 6896 6895 6894 ] final   39.82 input  -60.11 | X-H torsion
[ 7974 7965 7964 7962 ] final   31.68 input  175.53 | X-H torsion
[ 8008 7997 7996 7995 ] final   -6.62 input   59.86 | X-H torsion
[ 10167 10162 10161 10158 ] final   85.69 input  -65.29 | X-H torsion
[ 10718 10713 10712 10709 ] final -122.80 input   66.30 | X-H torsion
[ 10763 10752 10751 10750 ] final   75.26 input  -60.55 | X-H torsion
[ 11005 11000 10999 10996 ] final   71.00 input  -57.11 | X-H torsion

> <Gold.Protein.ActiveResidues>
 VAL166  LYS551  ARG553  GLY616  TRP617  ASP618  TYR619  PRO620  LYS621  CYS622 
 ASP623  PHE694  ASN695  SER759  ASP760  ASP761  ALA762  ILE779  LEU786  VAL792 
 PHE793  MET794  SER795  GLU796  ALA797  LYS798  CYS799  TRP800  GLU811  SER814 

> <Gold.Protein.RotatedAtoms>
  152.1745  134.8807  160.0531 H   0  0  0  0  0  0  0  0  0  0  0  0  # atno 6907 bound_to 6896
  151.9754  133.3735  159.4095 H   0  0  0  0  0  0  0  0  0  0  0  0  # atno 6908 bound_to 6896
  150.6907  134.4018  159.5166 H   0  0  0  0  0  0  0  0  0  0  0  0  # atno 6909 bound_to 6896
  146.1535  139.6625  142.9083 H   0  0  0  0  0  0  0  0  0  0  0  0  # atno 7974 bound_to 7965
  154.5919  140.2428  155.7909 H   0  0  0  0  0  0  0  0  0  0  0  0  # atno 8008 bound_to 7997
  156.2253  140.2984  156.0006 H   0  0  0  0  0  0  0  0  0  0  0  0  # atno 8009 bound_to 7997
  155.2359  140.0405  157.2959 H   0  0  0  0  0  0  0  0  0  0  0  0  # atno 8010 bound_to 7997
  139.8952  144.6362  150.8696 H   0  0  0  0  0  0  0  0  0  0  0  0  # atno 10167 bound_to 10162
  156.1449  130.6493  150.9827 H   0  0  0  0  0  0  0  0  0  0  0  0  # atno 10718 bound_to 10713
  153.0643  135.4995  154.8163 H   0  0  0  0  0  0  0  0  0  0  0  0  # atno 10763 bound_to 10752
  154.6929  135.2987  154.9455 H   0  0  0  0  0  0  0  0  0  0  0  0  # atno 10764 bound_to 10752
  154.0204  135.6743  153.4825 H   0  0  0  0  0  0  0  0  0  0  0  0  # atno 10765 bound_to 10752
  139.9567  134.7131  156.0737 H   0  0  0  0  0  0  0  0  0  0  0  0  # atno 11005 bound_to 11000
  145.4766  141.0437  143.2669 LP  0  0  0  0  0  0  0  0  0  0  0  0  # atno 17320 bound_to 7965
  144.7933  139.6284  143.7103 LP  0  0  0  0  0  0  0  0  0  0  0  0  # atno 17321 bound_to 7965
  140.7718  143.3479  151.2073 LP  0  0  0  0  0  0  0  0  0  0  0  0  # atno 17342 bound_to 10162
  139.7074  143.9432  152.2933 LP  0  0  0  0  0  0  0  0  0  0  0  0  # atno 17343 bound_to 10162
  157.6608  131.0881  150.7843 LP  0  0  0  0  0  0  0  0  0  0  0  0  # atno 17370 bound_to 10713
  156.7916  130.4892  149.5384 LP  0  0  0  0  0  0  0  0  0  0  0  0  # atno 17371 bound_to 10713
  141.1239  133.6604  156.3287 LP  0  0  0  0  0  0  0  0  0  0  0  0  # atno 17394 bound_to 11000
  140.5593  134.5950  157.5429 LP  0  0  0  0  0  0  0  0  0  0  0  0  # atno 17395 bound_to 11000

$$$$
