AV-unprocessed.smi:1073|AV-procd|sdf|4689|dock9
  -GOLD-   22720 3203D 1   1.00000     0.00000
 Structure written by MMmdl.
 44 44  0  0  0  0  0  0  0  0  1 V2000
  149.9709  137.5514  155.1420 C   0  0  0  0  0  0  0  0  0  0  0  0
  149.3580  138.8071  155.5463 N   0  0  0  0  0  0  0  0  0  0  0  0
  149.7349  140.0116  155.0933 C   0  0  0  0  0  0  0  0  0  0  0  0
  150.6394  140.1665  154.2710 O   0  0  0  0  0  0  0  0  0  0  0  0
  148.9563  141.2190  155.6331 C   0  0  2  0  0  0  0  0  0  0  0  0
  148.1163  141.9051  154.5291 C   0  0  0  0  0  0  0  0  0  0  0  0
  146.8955  142.7218  155.0118 C   0  0  0  0  0  0  0  0  0  0  0  0
  145.8134  141.8381  155.6549 C   0  0  0  0  0  0  0  0  0  0  0  0
  146.2978  143.5330  153.8521 C   0  0  0  0  0  0  0  0  0  0  0  0
  149.8781  142.1725  156.2528 N   0  0  0  0  0  0  0  0  0  0  0  0
  150.4669  142.0437  157.4518 C   0  0  0  0  0  0  0  0  0  0  0  0
  150.2792  141.0828  158.1991 O   0  0  0  0  0  0  0  0  0  0  0  0
  151.3942  143.1956  157.8646 C   0  0  0  0  0  0  0  0  0  0  0  0
  151.9499  143.0437  159.2196 N   0  0  0  0  0  0  0  0  0  0  0  0
  152.7358  141.9005  159.4643 C   0  0  0  0  0  0  0  0  0  0  0  0
  153.2957  141.6384  160.6607 C   0  0  0  0  0  0  0  0  0  0  0  0
  154.1900  140.4272  160.8755 C   0  0  0  0  0  0  0  0  0  0  0  0
  154.5608  140.3231  162.1518 F   0  0  0  0  0  0  0  0  0  0  0  0
  153.5350  139.3162  160.5413 F   0  0  0  0  0  0  0  0  0  0  0  0
  155.2895  140.5022  160.1245 F   0  0  0  0  0  0  0  0  0  0  0  0
  153.0770  142.6208  161.7043 C   0  0  0  0  0  0  0  0  0  0  0  0
  152.3399  143.7267  161.4828 C   0  0  0  0  0  0  0  0  0  0  0  0
  151.7236  143.9891  160.1801 C   0  0  0  0  0  0  0  0  0  0  0  0
  151.0482  144.9959  159.9654 O   0  0  0  0  0  0  0  0  0  0  0  0
  149.4871  136.7195  155.6539 H   0  0  0  0  0  0  0  0  0  0  0  0
  151.0315  137.5378  155.3959 H   0  0  0  0  0  0  0  0  0  0  0  0
  149.8679  137.3968  154.0672 H   0  0  0  0  0  0  0  0  0  0  0  0
  148.6033  138.7597  156.2154 H   0  0  0  0  0  0  0  0  0  0  0  0
  148.2817  140.8259  156.3949 H   0  0  0  0  0  0  0  0  0  0  0  0
  148.7754  142.5609  153.9575 H   0  0  0  0  0  0  0  0  0  0  0  0
  147.7683  141.1529  153.8189 H   0  0  0  0  0  0  0  0  0  0  0  0
  147.2277  143.4435  155.7578 H   0  0  0  0  0  0  0  0  0  0  0  0
  145.4571  141.0780  154.9590 H   0  0  0  0  0  0  0  0  0  0  0  0
  144.9541  142.4349  155.9621 H   0  0  0  0  0  0  0  0  0  0  0  0
  146.1809  141.3293  156.5452 H   0  0  0  0  0  0  0  0  0  0  0  0
  145.9356  142.8805  153.0569 H   0  0  0  0  0  0  0  0  0  0  0  0
  147.0378  144.2068  153.4188 H   0  0  0  0  0  0  0  0  0  0  0  0
  145.4595  144.1433  154.1895 H   0  0  0  0  0  0  0  0  0  0  0  0
  150.0974  142.9950  155.7090 H   0  0  0  0  0  0  0  0  0  0  0  0
  152.2005  143.2862  157.1343 H   0  0  0  0  0  0  0  0  0  0  0  0
  150.8338  144.1282  157.7860 H   0  0  0  0  0  0  0  0  0  0  0  0
  152.8646  141.2529  158.6091 H   0  0  0  0  0  0  0  0  0  0  0  0
  153.5099  142.4669  162.6819 H   0  0  0  0  0  0  0  0  0  0  0  0
  152.1982  144.4372  162.2839 H   0  0  0  0  0  0  0  0  0  0  0  0
  1  2  1  0  0  0  0
  1 25  1  0  0  0  0
  1 26  1  0  0  0  0
  1 27  1  0  0  0  0
  2  3  1  0  0  0  0
  2 28  1  0  0  0  0
  3  4  2  0  0  0  0
  3  5  1  0  0  0  0
  5  6  1  0  0  0  0
  5 10  1  0  0  0  0
  5 29  1  0  0  0  0
  6  7  1  0  0  0  0
  6 30  1  0  0  0  0
  6 31  1  0  0  0  0
  7  8  1  0  0  0  0
  7  9  1  0  0  0  0
  7 32  1  0  0  0  0
  8 33  1  0  0  0  0
  8 34  1  0  0  0  0
  8 35  1  0  0  0  0
  9 36  1  0  0  0  0
  9 37  1  0  0  0  0
  9 38  1  0  0  0  0
 10 11  1  0  0  0  0
 10 39  1  0  0  0  0
 11 12  2  0  0  0  0
 11 13  1  0  0  0  0
 13 14  1  0  0  0  0
 13 40  1  0  0  0  0
 13 41  1  0  0  0  0
 14 23  1  0  0  0  0
 14 15  1  0  0  0  0
 15 16  2  0  0  0  0
 15 42  1  0  0  0  0
 16 17  1  0  0  0  0
 16 21  1  0  0  0  0
 17 18  1  0  0  0  0
 17 19  1  0  0  0  0
 17 20  1  0  0  0  0
 21 22  2  0  0  0  0
 21 43  1  0  0  0  0
 22 23  1  0  0  0  0
 22 44  1  0  0  0  0
 23 24  2  0  0  0  0
M  END
> <s_m_source_file>
AV-unprocessed.smi

> <i_m_source_file_index>
1073

> <i_lp_mmshare_version>
43012

> <i_f3d_flags>
0

> <s_epik_input>
W0NIM11bTkhdQyg9TylbQ0BIXShbQ0gyXVtDSF0oW0NIM10pW0NIM10pW05IXUMoPU8pW0NIMl1uMVtjSF1jKEMoRikoRilGKVtjSF1bY0hdYzE9Tw==

> <s_epik_cmdline>
J2VwaWtfcHl0aG9uJywgJy1waCcsICc3LjAnLCAnLXRuJywgJzgnLCAnLW1hJywgJzIwMCcsICctbWV0YWxfYmluZGluZycsICctaW1hZScsICc8aW5maWxlLm1hZT4nLCAnLW9tYWUnLCAnPG91dGZpbGUubWFlPic=

> <r_lp_tautomer_probability>
1

> <r_epik_Ionization_Penalty>
7.02352e-08

> <r_epik_Ionization_Penalty_Charging>
1.57869e-08

> <r_epik_Ionization_Penalty_Neutral>
5.44484e-08

> <r_epik_State_Penalty>
-0

> <r_epik_Charging_Adjusted_Penalty>
1.57869e-08

> <i_epik_Tot_Q>
0

> <i_epik_Tot_abs_Q>
0

> <r_epik_Metal_State_Penalty>
-0

> <b_epik_Metal_Only>
0

> <s_lp_Force_Field>
OPLS_2005

> <r_lp_Energy>
18.1755

> <b_lp_Chiralities_Consistent>
1

> <s_lp_Variant>
AV-unprocessed.smi:1073-1

> <Gold.Version>
5.8.1

> <Gold.Id.Protein>
6NUR|6NUR_protein|mol2

> <Gold.PLP.Fitness>
54.9170

> <Gold.PLP.PLP>
-50.8881

> <Gold.PLP.part.hbond>
-1.8322

> <Gold.PLP.part.metal>
0.0000

> <Gold.PLP.part.buried>
-7.1279

> <Gold.PLP.part.nonpolar>
-43.4603

> <Gold.PLP.part.repulsive>
0.3645

> <Gold.PLP.ligand.clash>
0.0000

> <Gold.PLP.ligand.torsion>
0.6802

> <Gold.PLP.Chemscore.Hbond>
1.7430

> <Gold.PLP.Chemscore.CHOScore>
0.0000

> <Gold.PLP.Chemscore.Metal>
0.0000

> <Gold.Chemscore.Hbonds>
donor molecule, donor type, donor heavy atom, donor atom, acceptor molecule, acceptor atom, score
      L1  H    10    39       P1  8028  0.39
      P1  H  7989  7998       L1     4  0.76

> <Gold.PLP.Chemscore.Internal.Correction>
0.1603

> <Gold.Rescore>
     Score         DG    S(hbond)    S(metal)    S(lipo)     H(rot)  DE(clash)    DE(int)     intcor
     13.80     -15.79       1.80        0.00      91.71       2.51       0.05       1.94       ----

> <Gold.Chemscore.Fitness>
13.7960

> <Gold.Chemscore.DG>
-15.7874

> <Gold.Chemscore.ZeroCoef>
-5.4800

> <Gold.Chemscore.Hbond>
1.8012

> <Gold.Chemscore.Metal>
0.0000

> <Gold.Chemscore.Lipo>
91.7055

> <Gold.Chemscore.Internal_Hbond>
0.0000

> <Gold.Chemscore.DEClash>
0.0467

> <Gold.Chemscore.DEInternal>
1.9447

> <Gold.Chemscore.Rot>
2.5149

> <Gold.Chemscore.Internal.Correction>
   9.000000E+99

> <Gold.Chemscore.Hbonds>
donor molecule, donor type, donor heavy atom, donor atom, acceptor molecule, acceptor atom, score
      L1  H    10    39       P1  8028  0.39
      P1  H  7989  7998       L1     4  0.76

> <Gold.Chemscore.Hbond.Weighted>
-6.0160

> <Gold.Chemscore.Metal.Weighted>
-0.0000

> <Gold.Chemscore.Lipo.Weighted>
-10.7295

> <Gold.Chemscore.Internal_Hbond.Weighted>
0.0000

> <Gold.Chemscore.DEClash.Weighted>
0.0467

> <Gold.Chemscore.DEInternal.Weighted>
1.9447

> <Gold.Chemscore.Rot.Weighted>
6.4381

> <Gold.Chemscore.Internal.Correction.Weighted>
   9.000000E+99

> <Gold.Protein.RotatedTorsions>
[ 6907 6896 6895 6894 ] final  106.46 input  -60.11 | X-H torsion
[ 7974 7965 7964 7962 ] final  149.49 input  175.53 | X-H torsion
[ 8008 7997 7996 7995 ] final   42.79 input   59.86 | X-H torsion
[ 10167 10162 10161 10158 ] final  120.71 input  -65.29 | X-H torsion
[ 10718 10713 10712 10709 ] final   -4.03 input   66.30 | X-H torsion
[ 10763 10752 10751 10750 ] final  -12.12 input  -60.55 | X-H torsion
[ 11005 11000 10999 10996 ] final   93.80 input  -57.11 | X-H torsion

> <Gold.Protein.ActiveResidues>
 VAL166  LYS551  ARG553  GLY616  TRP617  ASP618  TYR619  PRO620  LYS621  CYS622 
 ASP623  PHE694  ASN695  SER759  ASP760  ASP761  ALA762  ILE779  LEU786  VAL792 
 PHE793  MET794  SER795  GLU796  ALA797  LYS798  CYS799  TRP800  GLU811  SER814 

> <Gold.Protein.RotatedAtoms>
  152.5193  133.9378  159.7611 H   0  0  0  0  0  0  0  0  0  0  0  0  # atno 6907 bound_to 6896
  150.9715  133.6331  159.2744 H   0  0  0  0  0  0  0  0  0  0  0  0  # atno 6908 bound_to 6896
  151.3541  135.0896  159.9465 H   0  0  0  0  0  0  0  0  0  0  0  0  # atno 6909 bound_to 6896
  144.8434  139.6287  143.6006 H   0  0  0  0  0  0  0  0  0  0  0  0  # atno 7974 bound_to 7965
  155.2919  140.3379  155.4252 H   0  0  0  0  0  0  0  0  0  0  0  0  # atno 8008 bound_to 7997
  156.2042  140.1744  156.7876 H   0  0  0  0  0  0  0  0  0  0  0  0  # atno 8009 bound_to 7997
  154.5598  140.0689  156.8785 H   0  0  0  0  0  0  0  0  0  0  0  0  # atno 8010 bound_to 7997
  139.5965  144.7043  151.3164 H   0  0  0  0  0  0  0  0  0  0  0  0  # atno 10167 bound_to 10162
  156.7673  130.5289  149.5774 H   0  0  0  0  0  0  0  0  0  0  0  0  # atno 10718 bound_to 10713
  153.4938  135.7017  153.5869 H   0  0  0  0  0  0  0  0  0  0  0  0  # atno 10763 bound_to 10752
  153.4031  135.3867  155.2000 H   0  0  0  0  0  0  0  0  0  0  0  0  # atno 10764 bound_to 10752
  154.8715  135.3886  154.4401 H   0  0  0  0  0  0  0  0  0  0  0  0  # atno 10765 bound_to 10752
  139.8806  134.8810  156.3770 H   0  0  0  0  0  0  0  0  0  0  0  0  # atno 11005 bound_to 11000
  146.2723  139.6665  142.9287 LP  0  0  0  0  0  0  0  0  0  0  0  0  # atno 17320 bound_to 7965
  145.4647  141.0434  143.2732 LP  0  0  0  0  0  0  0  0  0  0  0  0  # atno 17321 bound_to 7965
  140.7216  143.7121  150.7762 LP  0  0  0  0  0  0  0  0  0  0  0  0  # atno 17342 bound_to 10162
  140.0688  143.5082  152.2590 LP  0  0  0  0  0  0  0  0  0  0  0  0  # atno 17343 bound_to 10162
  156.1300  130.6171  151.0320 LP  0  0  0  0  0  0  0  0  0  0  0  0  # atno 17370 bound_to 10713
  157.6707  131.0862  150.7619 LP  0  0  0  0  0  0  0  0  0  0  0  0  # atno 17371 bound_to 10713
  140.9425  133.7505  156.0165 LP  0  0  0  0  0  0  0  0  0  0  0  0  # atno 17394 bound_to 11000
  140.8203  134.3297  157.5384 LP  0  0  0  0  0  0  0  0  0  0  0  0  # atno 17395 bound_to 11000

$$$$
