AV-unprocessed.smi:51|AV-procd|sdf|500|dock1
  -GOLD-   2262016373D 1   1.00000     0.00000
 Structure written by MMmdl.
 25 26  0  0  0  0  0  0  0  0  2 V2000
  152.8914  139.4927  155.5594 O   0  0  0  0  0  0  0  0  0  0  0  0
  151.7648  139.9445  155.8594 C   0  0  0  0  0  0  0  0  0  0  0  0
  151.0094  140.5793  155.0893 O   0  5  0  0  0  0  0  0  0  0  0  0
  151.2829  139.7013  157.2975 C   0  0  1  0  0  0  0  0  0  0  0  0
  151.2892  138.2070  157.6607 C   0  0  0  0  0  0  0  0  0  0  0  0
  151.5480  138.2201  159.1660 C   0  0  1  0  0  0  0  0  0  0  0  0
  152.0923  137.0055  159.6375 O   0  0  0  0  0  0  0  0  0  0  0  0
  152.5012  139.4021  159.3529 C   0  0  0  0  0  0  0  0  0  0  0  0
  152.1456  140.3374  158.2947 N   0  0  0  0  0  0  0  0  0  0  0  0
  152.1523  141.7277  158.5276 C   0  0  0  0  0  0  0  0  0  0  0  0
  152.8723  142.2819  159.6127 C   0  0  0  0  0  0  0  0  0  0  0  0
  152.8210  143.6822  159.7618 C   0  0  0  0  0  0  0  0  0  0  0  0
  152.1190  144.4643  158.9154 N   0  0  0  0  0  0  0  0  0  0  0  0
  151.4766  143.8431  157.9242 C   0  0  0  0  0  0  0  0  0  0  0  0
  151.4534  142.5300  157.6887 N   0  0  0  0  0  0  0  0  0  0  0  0
  150.2706  140.0913  157.4152 H   0  0  0  0  0  0  0  0  0  0  0  0
  150.3547  137.7092  157.4006 H   0  0  0  0  0  0  0  0  0  0  0  0
  152.1003  137.6828  157.1510 H   0  0  0  0  0  0  0  0  0  0  0  0
  150.6121  138.4212  159.6892 H   0  0  0  0  0  0  0  0  0  0  0  0
  152.9894  136.9476  159.3461 H   0  0  0  0  0  0  0  0  0  0  0  0
  152.4015  139.8243  160.3537 H   0  0  0  0  0  0  0  0  0  0  0  0
  153.5402  139.1025  159.2085 H   0  0  0  0  0  0  0  0  0  0  0  0
  153.4486  141.6741  160.2941 H   0  0  0  0  0  0  0  0  0  0  0  0
  153.3486  144.1767  160.5639 H   0  0  0  0  0  0  0  0  0  0  0  0
  150.9142  144.4671  157.2455 H   0  0  0  0  0  0  0  0  0  0  0  0
  1  2  2  0  0  0  0
  2  3  1  0  0  0  0
  2  4  1  0  0  0  0
  4  9  1  0  0  0  0
  4  5  1  0  0  0  0
  4 16  1  0  0  0  0
  5  6  1  0  0  0  0
  5 17  1  0  0  0  0
  5 18  1  0  0  0  0
  6  7  1  0  0  0  0
  6  8  1  0  0  0  0
  6 19  1  0  0  0  0
  7 20  1  0  0  0  0
  8  9  1  0  0  0  0
  8 21  1  0  0  0  0
  8 22  1  0  0  0  0
  9 10  1  0  0  0  0
 10 15  1  0  0  0  0
 10 11  2  0  0  0  0
 11 12  1  0  0  0  0
 11 23  1  0  0  0  0
 12 13  2  0  0  0  0
 12 24  1  0  0  0  0
 13 14  1  0  0  0  0
 14 15  2  0  0  0  0
 14 25  1  0  0  0  0
M  CHG  1   3  -1
M  END
> <s_m_source_file>
AV-unprocessed.smi

> <i_m_source_file_index>
51

> <i_lp_mmshare_version>
43012

> <i_f3d_flags>
0

> <s_epik_input>
Tz1DKFtPSF0pW0NAQEhdMVtDSDJdW0NAQEhdKFtPSF0pW0NIMl1OMWMyW2NIXVtjSF1uW2NIXW4y

> <s_epik_cmdline>
J2VwaWtfcHl0aG9uJywgJy1waCcsICc3LjAnLCAnLXRuJywgJzgnLCAnLW1hJywgJzIwMCcsICctbWV0YWxfYmluZGluZycsICctaW1hZScsICc8aW5maWxlLm1hZT4nLCAnLW9tYWUnLCAnPG91dGZpbGUubWFlPic=

> <r_lp_tautomer_probability>
1

> <r_epik_Ionization_Penalty>
0.225251

> <r_epik_Ionization_Penalty_Charging>
0.000248217

> <r_epik_Ionization_Penalty_Neutral>
0.225002

> <r_epik_State_Penalty>
0.21284

> <r_epik_Charging_Adjusted_Penalty>
0.213088

> <i_epik_Tot_Q>
-1

> <i_epik_Tot_abs_Q>
1

> <r_epik_Metal_State_Penalty>
0.154111

> <b_epik_Metal_Only>
0

> <s_lp_Force_Field>
OPLS_2005

> <r_lp_Energy>
16.2736

> <b_lp_Chiralities_Consistent>
1

> <s_lp_Variant>
AV-unprocessed.smi:51-2

> <Gold.Version>
5.8.1

> <Gold.Id.Protein>
6NUR|6NUR_protein|mol2

> <Gold.PLP.Fitness>
43.6235

> <Gold.PLP.PLP>
-28.7224

> <Gold.PLP.part.hbond>
-3.0000

> <Gold.PLP.part.metal>
0.0000

> <Gold.PLP.part.buried>
-5.2083

> <Gold.PLP.part.nonpolar>
-20.6407

> <Gold.PLP.part.repulsive>
0.1373

> <Gold.PLP.ligand.clash>
0.0000

> <Gold.PLP.ligand.torsion>
0.1255

> <Gold.PLP.Chemscore.Hbond>
3.9920

> <Gold.PLP.Chemscore.CHOScore>
1.0000

> <Gold.PLP.Chemscore.Metal>
0.0000

> <Gold.Chemscore.Hbonds>
donor molecule, donor type, donor heavy atom, donor atom, acceptor molecule, acceptor atom, score
      P1  H  6896  6909       L1     7  1.00
      P1  H  7989  7998       L1     3  0.96
      P1  H  7997  8008       L1     1  2.00
      L1  C    14    25       P1  8028  0.94

> <Gold.PLP.Chemscore.Internal.Correction>
0.1760

> <Gold.Rescore>
     Score         DG    S(hbond)    S(metal)    S(lipo)     H(rot)  DE(clash)    DE(int)     intcor
     15.92     -16.02       2.96        0.00      42.37       1.69       0.00       0.09       ----

> <Gold.Chemscore.Fitness>
15.9241

> <Gold.Chemscore.DG>
-16.0176

> <Gold.Chemscore.ZeroCoef>
-5.4800

> <Gold.Chemscore.Hbond>
2.9650

> <Gold.Chemscore.Metal>
0.0000

> <Gold.Chemscore.Lipo>
42.3743

> <Gold.Chemscore.Internal_Hbond>
0.0000

> <Gold.Chemscore.DEClash>
0.0038

> <Gold.Chemscore.DEInternal>
0.0897

> <Gold.Chemscore.Rot>
1.6887

> <Gold.Chemscore.Internal.Correction>
   9.000000E+99

> <Gold.Chemscore.Hbonds>
donor molecule, donor type, donor heavy atom, donor atom, acceptor molecule, acceptor atom, score
      P1  H  6896  6909       L1     7  0.35
      P1  H  7989  7998       L1     3  0.85
      P1  H  7997  8008       L1     1  0.94

> <Gold.Chemscore.Hbond.Weighted>
-9.9029

> <Gold.Chemscore.Metal.Weighted>
-0.0000

> <Gold.Chemscore.Lipo.Weighted>
-4.9578

> <Gold.Chemscore.Internal_Hbond.Weighted>
0.0000

> <Gold.Chemscore.DEClash.Weighted>
0.0038

> <Gold.Chemscore.DEInternal.Weighted>
0.0897

> <Gold.Chemscore.Rot.Weighted>
4.3232

> <Gold.Chemscore.Internal.Correction.Weighted>
   9.000000E+99

> <Gold.Protein.RotatedTorsions>
[ 6907 6896 6895 6894 ] final  126.14 input  -60.11 | X-H torsion
[ 7974 7965 7964 7962 ] final -179.72 input  175.53 | X-H torsion
[ 8008 7997 7996 7995 ] final   -7.71 input   59.86 | X-H torsion
[ 10167 10162 10161 10158 ] final  -12.51 input  -65.29 | X-H torsion
[ 10718 10713 10712 10709 ] final   51.53 input   66.30 | X-H torsion
[ 10763 10752 10751 10750 ] final  -18.52 input  -60.55 | X-H torsion
[ 11005 11000 10999 10996 ] final  174.01 input  -57.11 | X-H torsion

> <Gold.Protein.ActiveResidues>
 VAL166  LYS551  ARG553  GLY616  TRP617  ASP618  TYR619  PRO620  LYS621  CYS622 
 ASP623  PHE694  ASN695  SER759  ASP760  ASP761  ALA762  ILE779  LEU786  VAL792 
 PHE793  MET794  SER795  GLU796  ALA797  LYS798  CYS799  TRP800  GLU811  SER814 

> <Gold.Protein.RotatedAtoms>
  152.3930  133.6706  159.6252 H   0  0  0  0  0  0  0  0  0  0  0  0  # atno 6907 bound_to 6896
  150.7834  133.8922  159.3325 H   0  0  0  0  0  0  0  0  0  0  0  0  # atno 6908 bound_to 6896
  151.6705  135.0978  160.0248 H   0  0  0  0  0  0  0  0  0  0  0  0  # atno 6909 bound_to 6896
  144.7138  140.0675  143.6430 H   0  0  0  0  0  0  0  0  0  0  0  0  # atno 7974 bound_to 7965
  154.5812  140.2400  155.8052 H   0  0  0  0  0  0  0  0  0  0  0  0  # atno 8008 bound_to 7997
  156.2180  140.3006  155.9841 H   0  0  0  0  0  0  0  0  0  0  0  0  # atno 8009 bound_to 7997
  155.2538  140.0411  157.2980 H   0  0  0  0  0  0  0  0  0  0  0  0  # atno 8010 bound_to 7997
  140.7163  143.5524  150.9286 H   0  0  0  0  0  0  0  0  0  0  0  0  # atno 10167 bound_to 10162
  157.4989  130.8425  149.8292 H   0  0  0  0  0  0  0  0  0  0  0  0  # atno 10718 bound_to 10713
  153.5906  135.7002  153.5425 H   0  0  0  0  0  0  0  0  0  0  0  0  # atno 10763 bound_to 10752
  153.3182  135.4081  155.1394 H   0  0  0  0  0  0  0  0  0  0  0  0  # atno 10764 bound_to 10752
  154.8601  135.3689  154.5437 H   0  0  0  0  0  0  0  0  0  0  0  0  # atno 10765 bound_to 10752
  140.3467  134.7230  157.4239 H   0  0  0  0  0  0  0  0  0  0  0  0  # atno 11005 bound_to 11000
  145.9811  139.2942  143.1041 LP  0  0  0  0  0  0  0  0  0  0  0  0  # atno 17320 bound_to 7965
  145.9009  140.9243  143.0503 LP  0  0  0  0  0  0  0  0  0  0  0  0  # atno 17321 bound_to 7965
  139.9248  143.6562  152.3089 LP  0  0  0  0  0  0  0  0  0  0  0  0  # atno 17342 bound_to 10162
  139.6992  144.7637  151.1302 LP  0  0  0  0  0  0  0  0  0  0  0  0  # atno 17343 bound_to 10162
  156.0217  130.3793  150.1942 LP  0  0  0  0  0  0  0  0  0  0  0  0  # atno 17370 bound_to 10713
  157.0131  130.9957  151.3360 LP  0  0  0  0  0  0  0  0  0  0  0  0  # atno 17371 bound_to 10713
  140.0737  134.5827  155.8614 LP  0  0  0  0  0  0  0  0  0  0  0  0  # atno 17394 bound_to 11000
  141.2024  133.6624  156.6002 LP  0  0  0  0  0  0  0  0  0  0  0  0  # atno 17395 bound_to 11000

$$$$
