AV-unprocessed.smi:943|AV-procd|sdf|4229|dock9
  -GOLD-   22720 2133D 1   1.00000     0.00000
 Structure written by MMmdl.
 43 44  0  0  0  0  0  0  0  0  1 V2000
  152.6543  139.5622  156.8419 C   0  0  0  0  0  0  0  0  0  0  0  0
  151.4011  140.1709  156.1892 C   0  0  2  0  0  0  0  0  0  0  0  0
  150.4193  140.6953  157.2647 C   0  0  0  0  0  0  0  0  0  0  0  0
  150.8673  141.9499  158.0542 C   0  0  0  0  0  0  0  0  0  0  0  0
  151.2845  143.1186  157.1333 C   0  0  0  0  0  0  0  0  0  0  0  0
  151.7734  144.3346  157.9366 C   0  0  0  0  0  0  0  0  0  0  0  0
  152.9199  143.9587  158.8849 C   0  0  0  0  0  0  0  0  0  0  0  0
  152.5031  142.8123  159.8168 C   0  0  0  0  0  0  0  0  0  0  0  0
  152.0219  141.5931  159.0143 C   0  0  0  0  0  0  0  0  0  0  0  0
  150.7389  139.1450  155.2583 C   0  0  0  0  0  0  0  0  0  0  0  0
  150.4119  139.4618  154.1142 O   0  0  0  0  0  0  0  0  0  0  0  0
  150.5612  137.9147  155.7588 N   0  0  0  0  0  0  0  0  0  0  0  0
  150.0009  136.7932  155.0165 C   0  0  0  0  0  0  0  0  0  0  0  0
  149.5397  135.6687  155.9582 C   0  0  0  0  0  0  0  0  0  0  0  0
  149.5650  134.3100  155.3196 C   0  0  0  0  0  0  0  0  0  0  0  0
  148.9598  133.9420  154.1415 C   0  0  0  0  0  0  0  0  0  0  0  0
  149.2396  132.2650  153.7568 S   0  0  0  0  0  0  0  0  0  0  0  0
  150.1773  132.1324  155.2348 C   0  0  0  0  0  0  0  0  0  0  0  0
  150.2575  133.2628  155.9370 N   0  0  0  0  0  0  0  0  0  0  0  0
  153.3462  139.1764  156.0918 H   0  0  0  0  0  0  0  0  0  0  0  0
  152.4000  138.7412  157.5138 H   0  0  0  0  0  0  0  0  0  0  0  0
  153.1920  140.3102  157.4249 H   0  0  0  0  0  0  0  0  0  0  0  0
  151.7387  141.0148  155.5864 H   0  0  0  0  0  0  0  0  0  0  0  0
  149.4608  140.9063  156.7877 H   0  0  0  0  0  0  0  0  0  0  0  0
  150.2183  139.8914  157.9741 H   0  0  0  0  0  0  0  0  0  0  0  0
  150.0346  142.2904  158.6711 H   0  0  0  0  0  0  0  0  0  0  0  0
  152.0719  142.7900  156.4536 H   0  0  0  0  0  0  0  0  0  0  0  0
  150.4468  143.4303  156.5098 H   0  0  0  0  0  0  0  0  0  0  0  0
  152.0976  145.1227  157.2566 H   0  0  0  0  0  0  0  0  0  0  0  0
  150.9447  144.7448  158.5144 H   0  0  0  0  0  0  0  0  0  0  0  0
  153.7941  143.6613  158.3045 H   0  0  0  0  0  0  0  0  0  0  0  0
  153.2175  144.8277  159.4722 H   0  0  0  0  0  0  0  0  0  0  0  0
  153.3406  142.5297  160.4551 H   0  0  0  0  0  0  0  0  0  0  0  0
  151.7074  143.1512  160.4816 H   0  0  0  0  0  0  0  0  0  0  0  0
  151.7042  140.8105  159.7042 H   0  0  0  0  0  0  0  0  0  0  0  0
  152.8582  141.1815  158.4477 H   0  0  0  0  0  0  0  0  0  0  0  0
  150.8612  137.7359  156.7061 H   0  0  0  0  0  0  0  0  0  0  0  0
  149.1630  137.1386  154.4095 H   0  0  0  0  0  0  0  0  0  0  0  0
  150.7564  136.4088  154.3290 H   0  0  0  0  0  0  0  0  0  0  0  0
  150.1721  135.6692  156.8467 H   0  0  0  0  0  0  0  0  0  0  0  0
  148.5337  135.8930  156.3149 H   0  0  0  0  0  0  0  0  0  0  0  0
  148.3687  134.5550  153.4776 H   0  0  0  0  0  0  0  0  0  0  0  0
  150.6618  131.2321  155.5827 H   0  0  0  0  0  0  0  0  0  0  0  0
  1  2  1  0  0  0  0
  1 20  1  0  0  0  0
  1 21  1  0  0  0  0
  1 22  1  0  0  0  0
  2  3  1  0  0  0  0
  2 10  1  0  0  0  0
  2 23  1  0  0  0  0
  3  4  1  0  0  0  0
  3 24  1  0  0  0  0
  3 25  1  0  0  0  0
  4  9  1  0  0  0  0
  4  5  1  0  0  0  0
  4 26  1  0  0  0  0
  5  6  1  0  0  0  0
  5 27  1  0  0  0  0
  5 28  1  0  0  0  0
  6  7  1  0  0  0  0
  6 29  1  0  0  0  0
  6 30  1  0  0  0  0
  7  8  1  0  0  0  0
  7 31  1  0  0  0  0
  7 32  1  0  0  0  0
  8  9  1  0  0  0  0
  8 33  1  0  0  0  0
  8 34  1  0  0  0  0
  9 35  1  0  0  0  0
  9 36  1  0  0  0  0
 10 11  2  0  0  0  0
 10 12  1  0  0  0  0
 12 13  1  0  0  0  0
 12 37  1  0  0  0  0
 13 14  1  0  0  0  0
 13 38  1  0  0  0  0
 13 39  1  0  0  0  0
 14 15  1  0  0  0  0
 14 40  1  0  0  0  0
 14 41  1  0  0  0  0
 15 19  1  0  0  0  0
 15 16  2  0  0  0  0
 16 17  1  0  0  0  0
 16 42  1  0  0  0  0
 17 18  1  0  0  0  0
 18 19  2  0  0  0  0
 18 43  1  0  0  0  0
M  END
> <s_m_source_file>
AV-unprocessed.smi

> <i_m_source_file_index>
943

> <i_lp_mmshare_version>
43012

> <i_f3d_flags>
0

> <s_epik_input>
W0NIMl0xW0NIMl1bQ0gyXVtDSDJdW0NIMl1bQ0hdMVtDSDJdW0NAQEhdKFtDSDNdKUMoPU8pW05IXVtDSDJdW0NIMl1jMltjSF1zW2NIXW4y

> <s_epik_cmdline>
J2VwaWtfcHl0aG9uJywgJy1waCcsICc3LjAnLCAnLXRuJywgJzgnLCAnLW1hJywgJzIwMCcsICctbWV0YWxfYmluZGluZycsICctaW1hZScsICc8aW5maWxlLm1hZT4nLCAnLW9tYWUnLCAnPG91dGZpbGUubWFlPic=

> <r_lp_tautomer_probability>
1

> <r_epik_Ionization_Penalty>
0.000194757

> <r_epik_Ionization_Penalty_Charging>
0

> <r_epik_Ionization_Penalty_Neutral>
0.000194757

> <r_epik_State_Penalty>
-0

> <r_epik_Charging_Adjusted_Penalty>
0

> <i_epik_Tot_Q>
0

> <i_epik_Tot_abs_Q>
0

> <r_epik_Metal_State_Penalty>
-0

> <b_epik_Metal_Only>
0

> <s_lp_Force_Field>
OPLS_2005

> <r_lp_Energy>
6.00362

> <b_lp_Chiralities_Consistent>
1

> <s_lp_Variant>
AV-unprocessed.smi:943-1

> <Gold.Version>
5.8.1

> <Gold.Id.Protein>
6NUR|6NUR_protein|mol2

> <Gold.PLP.Fitness>
41.5969

> <Gold.PLP.PLP>
-36.9822

> <Gold.PLP.part.hbond>
-1.0000

> <Gold.PLP.part.metal>
0.0000

> <Gold.PLP.part.buried>
-0.8589

> <Gold.PLP.part.nonpolar>
-35.2380

> <Gold.PLP.part.repulsive>
0.3718

> <Gold.PLP.ligand.clash>
0.0000

> <Gold.PLP.ligand.torsion>
0.7539

> <Gold.PLP.Chemscore.Hbond>
1.0000

> <Gold.PLP.Chemscore.CHOScore>
1.0000

> <Gold.PLP.Chemscore.Metal>
0.0000

> <Gold.Chemscore.Hbonds>
donor molecule, donor type, donor heavy atom, donor atom, acceptor molecule, acceptor atom, score
      P1  H  7989  7998       L1    11  1.00
      L1  C    16    42       P1  7948  1.00

> <Gold.PLP.Chemscore.Internal.Correction>
0.1225

> <Gold.Rescore>
     Score         DG    S(hbond)    S(metal)    S(lipo)     H(rot)  DE(clash)    DE(int)     intcor
     16.76     -17.60       1.00        0.00     109.63       1.58       0.03       0.81       ----

> <Gold.Chemscore.Fitness>
16.7592

> <Gold.Chemscore.DG>
-17.5976

> <Gold.Chemscore.ZeroCoef>
-5.4800

> <Gold.Chemscore.Hbond>
0.9978

> <Gold.Chemscore.Metal>
0.0000

> <Gold.Chemscore.Lipo>
109.6315

> <Gold.Chemscore.Internal_Hbond>
0.0000

> <Gold.Chemscore.DEClash>
0.0288

> <Gold.Chemscore.DEInternal>
0.8096

> <Gold.Chemscore.Rot>
1.5789

> <Gold.Chemscore.Internal.Correction>
   9.000000E+99

> <Gold.Chemscore.Hbonds>
donor molecule, donor type, donor heavy atom, donor atom, acceptor molecule, acceptor atom, score
      P1  H  7989  7998       L1    11  0.69

> <Gold.Chemscore.Hbond.Weighted>
-3.3326

> <Gold.Chemscore.Metal.Weighted>
-0.0000

> <Gold.Chemscore.Lipo.Weighted>
-12.8269

> <Gold.Chemscore.Internal_Hbond.Weighted>
0.0000

> <Gold.Chemscore.DEClash.Weighted>
0.0288

> <Gold.Chemscore.DEInternal.Weighted>
0.8096

> <Gold.Chemscore.Rot.Weighted>
4.0419

> <Gold.Chemscore.Internal.Correction.Weighted>
   9.000000E+99

> <Gold.Protein.RotatedTorsions>
[ 6907 6896 6895 6894 ] final  -26.00 input  -60.11 | X-H torsion
[ 7974 7965 7964 7962 ] final   40.24 input  175.53 | X-H torsion
[ 8008 7997 7996 7995 ] final   82.73 input   59.86 | X-H torsion
[ 10167 10162 10161 10158 ] final   98.77 input  -65.29 | X-H torsion
[ 10718 10713 10712 10709 ] final  -53.50 input   66.30 | X-H torsion
[ 10763 10752 10751 10750 ] final  151.56 input  -60.55 | X-H torsion
[ 11005 11000 10999 10996 ] final -140.38 input  -57.11 | X-H torsion

> <Gold.Protein.ActiveResidues>
 VAL166  LYS551  ARG553  GLY616  TRP617  ASP618  TYR619  PRO620  LYS621  CYS622 
 ASP623  PHE694  ASN695  SER759  ASP760  ASP761  ALA762  ILE779  LEU786  VAL792 
 PHE793  MET794  SER795  GLU796  ALA797  LYS798  CYS799  TRP800  GLU811  SER814 

> <Gold.Protein.RotatedAtoms>
  151.1672  135.0301  159.8735 H   0  0  0  0  0  0  0  0  0  0  0  0  # atno 6907 bound_to 6896
  152.5450  134.1211  159.8409 H   0  0  0  0  0  0  0  0  0  0  0  0  # atno 6908 bound_to 6896
  151.1313  133.4988  159.2631 H   0  0  0  0  0  0  0  0  0  0  0  0  # atno 6909 bound_to 6896
  146.0921  139.5556  142.9469 H   0  0  0  0  0  0  0  0  0  0  0  0  # atno 7974 bound_to 7965
  155.9145  140.3425  155.6124 H   0  0  0  0  0  0  0  0  0  0  0  0  # atno 8008 bound_to 7997
  155.7348  140.0800  157.2291 H   0  0  0  0  0  0  0  0  0  0  0  0  # atno 8009 bound_to 7997
  154.4060  140.1581  156.2536 H   0  0  0  0  0  0  0  0  0  0  0  0  # atno 8010 bound_to 7997
  139.7678  144.6933  151.0199 H   0  0  0  0  0  0  0  0  0  0  0  0  # atno 10167 bound_to 10162
  156.1530  130.4151  149.9914 H   0  0  0  0  0  0  0  0  0  0  0  0  # atno 10718 bound_to 10713
  154.1058  135.2842  155.3241 H   0  0  0  0  0  0  0  0  0  0  0  0  # atno 10763 bound_to 10752
  154.6524  135.5364  153.7921 H   0  0  0  0  0  0  0  0  0  0  0  0  # atno 10764 bound_to 10752
  153.0363  135.6513  154.1219 H   0  0  0  0  0  0  0  0  0  0  0  0  # atno 10765 bound_to 10752
  140.8428  134.2381  157.4801 H   0  0  0  0  0  0  0  0  0  0  0  0  # atno 11005 bound_to 11000
  145.6020  141.0354  143.2013 LP  0  0  0  0  0  0  0  0  0  0  0  0  # atno 17320 bound_to 7965
  144.7367  139.7564  143.7326 LP  0  0  0  0  0  0  0  0  0  0  0  0  # atno 17321 bound_to 7965
  140.7812  143.4623  151.0261 LP  0  0  0  0  0  0  0  0  0  0  0  0  # atno 17342 bound_to 10162
  139.8307  143.7695  152.3179 LP  0  0  0  0  0  0  0  0  0  0  0  0  # atno 17343 bound_to 10162
  156.7766  130.9206  151.3645 LP  0  0  0  0  0  0  0  0  0  0  0  0  # atno 17370 bound_to 10713
  157.6672  130.9018  149.9959 LP  0  0  0  0  0  0  0  0  0  0  0  0  # atno 17371 bound_to 10713
  139.8703  134.9644  156.4493 LP  0  0  0  0  0  0  0  0  0  0  0  0  # atno 17394 bound_to 11000
  140.8877  133.7871  155.9536 LP  0  0  0  0  0  0  0  0  0  0  0  0  # atno 17395 bound_to 11000

$$$$
