AV-unprocessed.smi:276|AV-procd|sdf|2072|dock3
  -GOLD-   2262021333D 1   1.00000     0.00000
 Structure written by MMmdl.
 57 61  0  0  0  0  0  0  0  0  1 V2000
  153.6251  142.2694  162.4440 C   0  0  0  0  0  0  0  0  0  0  0  0
  153.5184  142.5825  161.0663 O   0  0  0  0  0  0  0  0  0  0  0  0
  152.2417  142.2695  160.5331 C   0  0  2  0  0  0  0  0  0  0  0  0
  152.1926  140.9562  159.7445 C   0  0  0  0  0  0  0  0  0  0  0  0
  151.2455  141.6687  158.7702 C   0  0  2  0  0  0  0  0  0  0  0  0
  151.4451  141.2603  157.3776 N   0  0  0  0  0  0  0  0  0  0  0  0
  152.1029  139.9753  157.1753 C   0  0  0  0  0  0  0  0  0  0  0  0
  150.3744  141.3723  156.5588 C   0  0  0  0  0  0  0  0  0  0  0  0
  150.5449  140.9814  155.2710 N   0  0  0  0  0  0  0  0  0  0  0  0
  149.5333  141.0721  154.4029 C   0  0  0  0  0  0  0  0  0  0  0  0
  148.2905  141.5106  154.6126 N   0  0  0  0  0  0  0  0  0  0  0  0
  148.1092  141.8840  155.9115 C   0  0  0  0  0  0  0  0  0  0  0  0
  149.0858  141.8411  156.9465 C   0  0  0  0  0  0  0  0  0  0  0  0
  148.5246  142.2796  158.1407 N   0  0  0  0  0  0  0  0  0  0  0  0
  147.2949  142.5817  157.8259 C   0  0  0  0  0  0  0  0  0  0  0  0
  146.9610  142.3741  156.5075 N   0  0  0  0  0  0  0  0  0  0  0  0
  145.6687  142.6198  155.8923 C   0  0  0  0  0  0  0  0  0  0  0  0
  145.2956  144.1145  155.8918 C   0  0  2  0  0  0  0  0  0  0  0  0
  144.8683  144.5224  157.1777 O   0  0  0  0  0  0  0  0  0  0  0  0
  144.2364  144.4652  154.8270 C   0  0  2  0  0  0  0  0  0  0  0  0
  143.9861  145.9546  154.5755 C   0  0  0  0  0  0  0  0  0  0  0  0
  142.5978  145.9208  153.9774 C   0  0  0  0  0  0  0  0  0  0  0  0
  141.9313  144.8197  154.7993 C   0  0  0  0  0  0  0  0  0  0  0  0
  142.9648  143.8936  155.1245 O   0  0  0  0  0  0  0  0  0  0  0  0
  151.9190  142.9961  159.2126 C   0  0  0  0  0  0  0  0  0  0  0  0
  151.1547  144.3266  159.2262 C   0  0  0  0  0  0  0  0  0  0  0  0
  152.0531  144.8287  158.0912 C   0  0  0  0  0  0  0  0  0  0  0  0
  153.0316  143.6905  158.4004 C   0  0  0  0  0  0  0  0  0  0  0  0
  154.6201  142.5320  162.8031 H   0  0  0  0  0  0  0  0  0  0  0  0
  153.4745  141.2042  162.6230 H   0  0  0  0  0  0  0  0  0  0  0  0
  152.8962  142.8291  163.0315 H   0  0  0  0  0  0  0  0  0  0  0  0
  151.4302  142.3620  161.2585 H   0  0  0  0  0  0  0  0  0  0  0  0
  153.1556  140.6919  159.3028 H   0  0  0  0  0  0  0  0  0  0  0  0
  151.7493  140.1177  160.2819 H   0  0  0  0  0  0  0  0  0  0  0  0
  150.2139  141.5940  159.1165 H   0  0  0  0  0  0  0  0  0  0  0  0
  151.5087  139.1667  157.6024 H   0  0  0  0  0  0  0  0  0  0  0  0
  153.0828  139.9659  157.6519 H   0  0  0  0  0  0  0  0  0  0  0  0
  152.2531  139.7677  156.1148 H   0  0  0  0  0  0  0  0  0  0  0  0
  149.7515  140.7487  153.3957 H   0  0  0  0  0  0  0  0  0  0  0  0
  146.5915  142.9626  158.5523 H   0  0  0  0  0  0  0  0  0  0  0  0
  145.7021  142.2396  154.8706 H   0  0  0  0  0  0  0  0  0  0  0  0
  144.9133  142.0336  156.4169 H   0  0  0  0  0  0  0  0  0  0  0  0
  146.1930  144.6928  155.6680 H   0  0  0  0  0  0  0  0  0  0  0  0
  144.4127  143.8017  157.5852 H   0  0  0  0  0  0  0  0  0  0  0  0
  144.5459  144.0181  153.8809 H   0  0  0  0  0  0  0  0  0  0  0  0
  143.9674  146.5240  155.5053 H   0  0  0  0  0  0  0  0  0  0  0  0
  144.7270  146.4052  153.9146 H   0  0  0  0  0  0  0  0  0  0  0  0
  142.0776  146.8769  154.0430 H   0  0  0  0  0  0  0  0  0  0  0  0
  142.6486  145.6293  152.9275 H   0  0  0  0  0  0  0  0  0  0  0  0
  141.5312  145.2293  155.7277 H   0  0  0  0  0  0  0  0  0  0  0  0
  141.1150  144.3345  154.2639 H   0  0  0  0  0  0  0  0  0  0  0  0
  150.0991  144.2519  158.9665 H   0  0  0  0  0  0  0  0  0  0  0  0
  151.3007  144.8843  160.1523 H   0  0  0  0  0  0  0  0  0  0  0  0
  151.5876  144.7393  157.1097 H   0  0  0  0  0  0  0  0  0  0  0  0
  152.4603  145.8277  158.2490 H   0  0  0  0  0  0  0  0  0  0  0  0
  153.8663  144.0308  159.0138 H   0  0  0  0  0  0  0  0  0  0  0  0
  153.3876  143.1480  157.5251 H   0  0  0  0  0  0  0  0  0  0  0  0
  1  2  1  0  0  0  0
  1 29  1  0  0  0  0
  1 30  1  0  0  0  0
  1 31  1  0  0  0  0
  2  3  1  0  0  0  0
  3 25  1  0  0  0  0
  3  4  1  0  0  0  0
  3 32  1  0  0  0  0
  4  5  1  0  0  0  0
  4 33  1  0  0  0  0
  4 34  1  0  0  0  0
  5  6  1  0  0  0  0
  5 25  1  0  0  0  0
  5 35  1  0  0  0  0
  6  7  1  0  0  0  0
  6  8  1  0  0  0  0
  7 36  1  0  0  0  0
  7 37  1  0  0  0  0
  7 38  1  0  0  0  0
  8 13  1  0  0  0  0
  8  9  2  0  0  0  0
  9 10  1  0  0  0  0
 10 11  2  0  0  0  0
 10 39  1  0  0  0  0
 11 12  1  0  0  0  0
 12 16  1  0  0  0  0
 12 13  2  0  0  0  0
 13 14  1  0  0  0  0
 14 15  2  0  0  0  0
 15 16  1  0  0  0  0
 15 40  1  0  0  0  0
 16 17  1  0  0  0  0
 17 18  1  0  0  0  0
 17 41  1  0  0  0  0
 17 42  1  0  0  0  0
 18 19  1  0  0  0  0
 18 20  1  0  0  0  0
 18 43  1  0  0  0  0
 19 44  1  0  0  0  0
 20 24  1  0  0  0  0
 20 21  1  0  0  0  0
 20 45  1  0  0  0  0
 21 22  1  0  0  0  0
 21 46  1  0  0  0  0
 21 47  1  0  0  0  0
 22 23  1  0  0  0  0
 22 48  1  0  0  0  0
 22 49  1  0  0  0  0
 23 24  1  0  0  0  0
 23 50  1  0  0  0  0
 23 51  1  0  0  0  0
 25 28  1  0  0  0  0
 25 26  1  0  0  0  0
 26 27  1  0  0  0  0
 26 52  1  0  0  0  0
 26 53  1  0  0  0  0
 27 28  1  0  0  0  0
 27 54  1  0  0  0  0
 27 55  1  0  0  0  0
 28 56  1  0  0  0  0
 28 57  1  0  0  0  0
M  END
> <s_m_source_file>
AV-unprocessed.smi

> <i_m_source_file_index>
276

> <i_lp_mmshare_version>
43012

> <i_f3d_flags>
0

> <s_epik_input>
W0NIMl0xW0NIMl1bQ0gyXUMxMltDQEhdKE9bQ0gzXSlbQ0gyXVtDQEhdMk4oW0NIM10pYyhuW2NIXW4zKWMoYzM0KW5bY0hdbjRbQ0gyXVtDQEhdKFtPSF0pW0NAQEhdNVtDSDJdW0NIMl1bQ0gyXU81

> <s_epik_cmdline>
J2VwaWtfcHl0aG9uJywgJy1waCcsICc3LjAnLCAnLXRuJywgJzgnLCAnLW1hJywgJzIwMCcsICctbWV0YWxfYmluZGluZycsICctaW1hZScsICc8aW5maWxlLm1hZT4nLCAnLW9tYWUnLCAnPG91dGZpbGUubWFlPic=

> <r_lp_tautomer_probability>
1

> <r_epik_Ionization_Penalty>
0.00204117

> <r_epik_Ionization_Penalty_Charging>
0

> <r_epik_Ionization_Penalty_Neutral>
0.00204117

> <r_epik_State_Penalty>
0.00127401

> <r_epik_Charging_Adjusted_Penalty>
0.00127401

> <i_epik_Tot_Q>
0

> <i_epik_Tot_abs_Q>
0

> <r_epik_Metal_State_Penalty>
-0

> <b_epik_Metal_Only>
0

> <s_lp_Force_Field>
OPLS_2005

> <r_lp_Energy>
58.4332

> <b_lp_Chiralities_Consistent>
1

> <s_lp_Variant>
AV-unprocessed.smi:276-3

> <Gold.Version>
5.8.1

> <Gold.Id.Protein>
6NUR|6NUR_protein|mol2

> <Gold.PLP.Fitness>
44.6131

> <Gold.PLP.PLP>
-44.4011

> <Gold.PLP.part.hbond>
-1.0000

> <Gold.PLP.part.metal>
0.0000

> <Gold.PLP.part.buried>
-3.5947

> <Gold.PLP.part.nonpolar>
-39.0533

> <Gold.PLP.part.repulsive>
0.4921

> <Gold.PLP.ligand.clash>
0.0000

> <Gold.PLP.ligand.torsion>
1.9511

> <Gold.PLP.Chemscore.Hbond>
0.0879

> <Gold.PLP.Chemscore.CHOScore>
1.0000

> <Gold.PLP.Chemscore.Metal>
0.0000

> <Gold.Chemscore.Hbonds>
donor molecule, donor type, donor heavy atom, donor atom, acceptor molecule, acceptor atom, score
      P1  H  7989  7998       L1     9  0.03
      L1  C    10    39       P1  7957  1.00

> <Gold.PLP.Chemscore.Internal.Correction>
0.8506

> <Gold.Rescore>
     Score         DG    S(hbond)    S(metal)    S(lipo)     H(rot)  DE(clash)    DE(int)     intcor
      9.72     -12.96       0.00        0.00     123.40       2.72       0.04       3.20       ----

> <Gold.Chemscore.Fitness>
9.7195

> <Gold.Chemscore.DG>
-12.9620

> <Gold.Chemscore.ZeroCoef>
-5.4800

> <Gold.Chemscore.Hbond>
0.0000

> <Gold.Chemscore.Metal>
0.0000

> <Gold.Chemscore.Lipo>
123.4016

> <Gold.Chemscore.Internal_Hbond>
0.0000

> <Gold.Chemscore.DEClash>
0.0428

> <Gold.Chemscore.DEInternal>
3.1996

> <Gold.Chemscore.Rot>
2.7172

> <Gold.Chemscore.Internal.Correction>
   9.000000E+99

> <Gold.Chemscore.Hbond.Weighted>
-0.0000

> <Gold.Chemscore.Metal.Weighted>
-0.0000

> <Gold.Chemscore.Lipo.Weighted>
-14.4380

> <Gold.Chemscore.Internal_Hbond.Weighted>
0.0000

> <Gold.Chemscore.DEClash.Weighted>
0.0428

> <Gold.Chemscore.DEInternal.Weighted>
3.1996

> <Gold.Chemscore.Rot.Weighted>
6.9560

> <Gold.Chemscore.Internal.Correction.Weighted>
   9.000000E+99

> <Gold.Protein.RotatedTorsions>
[ 6907 6896 6895 6894 ] final  145.28 input  -60.11 | X-H torsion
[ 7974 7965 7964 7962 ] final   72.73 input  175.53 | X-H torsion
[ 8008 7997 7996 7995 ] final  134.91 input   59.86 | X-H torsion
[ 10167 10162 10161 10158 ] final  -85.65 input  -65.29 | X-H torsion
[ 10718 10713 10712 10709 ] final  147.83 input   66.30 | X-H torsion
[ 10763 10752 10751 10750 ] final   46.36 input  -60.55 | X-H torsion
[ 11005 11000 10999 10996 ] final   75.58 input  -57.11 | X-H torsion

> <Gold.Protein.ActiveResidues>
 VAL166  LYS551  ARG553  GLY616  TRP617  ASP618  TYR619  PRO620  LYS621  CYS622 
 ASP623  PHE694  ASN695  SER759  ASP760  ASP761  ALA762  ILE779  LEU786  VAL792 
 PHE793  MET794  SER795  GLU796  ALA797  LYS798  CYS799  TRP800  GLU811  SER814 

> <Gold.Protein.RotatedAtoms>
  152.1829  133.4719  159.4967 H   0  0  0  0  0  0  0  0  0  0  0  0  # atno 6907 bound_to 6896
  150.6937  134.1810  159.4258 H   0  0  0  0  0  0  0  0  0  0  0  0  # atno 6908 bound_to 6896
  151.9722  135.0070  160.0604 H   0  0  0  0  0  0  0  0  0  0  0  0  # atno 6909 bound_to 6896
  145.7497  139.2755  143.1438 H   0  0  0  0  0  0  0  0  0  0  0  0  # atno 7974 bound_to 7965
  156.3001  140.2484  156.3494 H   0  0  0  0  0  0  0  0  0  0  0  0  # atno 8008 bound_to 7997
  154.8980  140.0407  157.1896 H   0  0  0  0  0  0  0  0  0  0  0  0  # atno 8009 bound_to 7997
  154.8530  140.2909  155.5591 H   0  0  0  0  0  0  0  0  0  0  0  0  # atno 8010 bound_to 7997
  140.4017  143.2660  151.9134 H   0  0  0  0  0  0  0  0  0  0  0  0  # atno 10167 bound_to 10162
  157.3161  131.0896  151.1278 H   0  0  0  0  0  0  0  0  0  0  0  0  # atno 10718 bound_to 10713
  152.9812  135.6010  154.3587 H   0  0  0  0  0  0  0  0  0  0  0  0  # atno 10763 bound_to 10752
  154.3270  135.2769  155.2493 H   0  0  0  0  0  0  0  0  0  0  0  0  # atno 10764 bound_to 10752
  154.4633  135.5960  153.6326 H   0  0  0  0  0  0  0  0  0  0  0  0  # atno 10765 bound_to 10752
  139.9337  134.7530  156.1289 H   0  0  0  0  0  0  0  0  0  0  0  0  # atno 11005 bound_to 11000
  146.0368  140.8204  142.9848 LP  0  0  0  0  0  0  0  0  0  0  0  0  # atno 17320 bound_to 7965
  144.6852  140.2851  143.7286 LP  0  0  0  0  0  0  0  0  0  0  0  0  # atno 17321 bound_to 7965
  139.4784  144.5627  151.8214 LP  0  0  0  0  0  0  0  0  0  0  0  0  # atno 17342 bound_to 10162
  140.4733  144.1556  150.5921 LP  0  0  0  0  0  0  0  0  0  0  0  0  # atno 17343 bound_to 10162
  157.2581  130.6646  149.5962 LP  0  0  0  0  0  0  0  0  0  0  0  0  # atno 17370 bound_to 10713
  155.9681  130.4517  150.5746 LP  0  0  0  0  0  0  0  0  0  0  0  0  # atno 17371 bound_to 10713
  141.0940  133.6703  156.2603 LP  0  0  0  0  0  0  0  0  0  0  0  0  # atno 17394 bound_to 11000
  140.6133  134.5436  157.5537 LP  0  0  0  0  0  0  0  0  0  0  0  0  # atno 17395 bound_to 11000

$$$$
