AV-unprocessed.smi:104|AV-procd|sdf|1003|dock10
  -GOLD-   2262017593D 1   1.00000     0.00000
 Structure written by MMmdl.
 47 49  0  0  0  0  0  0  0  0  1 V2000
  145.4088  136.4999  161.6952 C   0  0  0  0  0  0  0  0  0  0  0  0
  146.8403  136.6842  161.2093 C   0  0  0  0  0  0  0  0  0  0  0  0
  147.6322  137.4063  161.8138 O   0  0  0  0  0  0  0  0  0  0  0  0
  147.0958  135.9842  160.0901 O   0  0  0  0  0  0  0  0  0  0  0  0
  148.4186  135.8821  159.5798 C   0  0  0  0  0  0  0  0  0  0  0  0
  148.8379  137.1908  158.8862 C   0  0  2  0  0  0  0  0  0  0  0  0
  147.7410  137.7995  158.2273 O   0  0  0  0  0  0  0  0  0  0  0  0
  148.2550  138.7823  157.3885 C   0  0  2  0  0  0  0  0  0  0  0  0
  147.3340  138.9396  156.2250 N   0  0  0  0  0  0  0  0  0  0  0  0
  146.6960  140.0675  155.7612 C   0  0  0  0  0  0  0  0  0  0  0  0
  146.8997  141.7705  156.5895 Br  0  0  0  0  0  0  0  0  0  0  0  0
  145.9419  139.9318  154.7061 N   0  0  0  0  0  0  0  0  0  0  0  0
  146.0716  138.5806  154.4084 C   0  0  0  0  0  0  0  0  0  0  0  0
  145.5423  137.7379  153.3986 C   0  0  0  0  0  0  0  0  0  0  0  0
  144.7159  138.1763  152.4392 N   0  0  0  0  0  0  0  0  0  0  0  0
  145.8879  136.4289  153.4008 N   0  0  0  0  0  0  0  0  0  0  0  0
  146.7119  135.9657  154.3461 C   0  0  0  0  0  0  0  0  0  0  0  0
  147.2848  136.6298  155.3532 N   0  0  0  0  0  0  0  0  0  0  0  0
  146.9360  137.9499  155.3498 C   0  0  0  0  0  0  0  0  0  0  0  0
  149.6397  138.3097  156.9168 C   0  0  1  0  0  0  0  0  0  0  0  0
  150.6251  139.3071  157.1482 O   0  0  0  0  0  0  0  0  0  0  0  0
  150.8387  140.2682  156.2327 C   0  0  0  0  0  0  0  0  0  0  0  0
  151.3002  141.5761  156.8609 C   0  0  0  0  0  0  0  0  0  0  0  0
  150.6844  140.1581  155.0161 O   0  0  0  0  0  0  0  0  0  0  0  0
  149.9130  137.0912  157.7964 C   0  0  2  0  0  0  0  0  0  0  0  0
  149.7690  135.9001  157.0309 O   0  0  0  0  0  0  0  0  0  0  0  0
  150.6207  135.6267  156.0278 C   0  0  0  0  0  0  0  0  0  0  0  0
  150.2465  134.3520  155.2839 C   0  0  0  0  0  0  0  0  0  0  0  0
  151.6001  136.2991  155.7050 O   0  0  0  0  0  0  0  0  0  0  0  0
  144.7557  137.2374  161.2289 H   0  0  0  0  0  0  0  0  0  0  0  0
  145.3559  136.6251  162.7767 H   0  0  0  0  0  0  0  0  0  0  0  0
  145.0417  135.5040  161.4460 H   0  0  0  0  0  0  0  0  0  0  0  0
  149.1395  135.5697  160.3363 H   0  0  0  0  0  0  0  0  0  0  0  0
  148.4018  135.0856  158.8358 H   0  0  0  0  0  0  0  0  0  0  0  0
  149.1707  137.9009  159.6458 H   0  0  0  0  0  0  0  0  0  0  0  0
  148.2690  139.7439  157.9015 H   0  0  0  0  0  0  0  0  0  0  0  0
  144.4443  139.1487  152.4153 H   0  0  0  0  0  0  0  0  0  0  0  0
  144.3690  137.5352  151.7405 H   0  0  0  0  0  0  0  0  0  0  0  0
  146.9466  134.9131  154.2879 H   0  0  0  0  0  0  0  0  0  0  0  0
  149.6093  138.0255  155.8633 H   0  0  0  0  0  0  0  0  0  0  0  0
  150.4962  142.0146  157.4519 H   0  0  0  0  0  0  0  0  0  0  0  0
  151.5907  142.2897  156.0896 H   0  0  0  0  0  0  0  0  0  0  0  0
  152.1571  141.4038  157.5124 H   0  0  0  0  0  0  0  0  0  0  0  0
  150.9074  137.1192  158.2457 H   0  0  0  0  0  0  0  0  0  0  0  0
  150.3371  133.4897  155.9445 H   0  0  0  0  0  0  0  0  0  0  0  0
  150.9025  134.2018  154.4262 H   0  0  0  0  0  0  0  0  0  0  0  0
  149.2181  134.4099  154.9271 H   0  0  0  0  0  0  0  0  0  0  0  0
  1  2  1  0  0  0  0
  1 30  1  0  0  0  0
  1 31  1  0  0  0  0
  1 32  1  0  0  0  0
  2  3  2  0  0  0  0
  2  4  1  0  0  0  0
  4  5  1  0  0  0  0
  5  6  1  0  0  0  0
  5 33  1  0  0  0  0
  5 34  1  0  0  0  0
  6 25  1  0  0  0  0
  6  7  1  0  0  0  0
  6 35  1  0  0  0  0
  7  8  1  0  0  0  0
  8  9  1  0  0  0  0
  8 20  1  0  0  0  0
  8 36  1  0  0  0  0
  9 19  1  0  0  0  0
  9 10  1  0  0  0  0
 10 11  1  0  0  0  0
 10 12  2  0  0  0  0
 12 13  1  0  0  0  0
 13 19  2  0  0  0  0
 13 14  1  0  0  0  0
 14 15  1  0  0  0  0
 14 16  2  0  0  0  0
 15 37  1  0  0  0  0
 15 38  1  0  0  0  0
 16 17  1  0  0  0  0
 17 18  2  0  0  0  0
 17 39  1  0  0  0  0
 18 19  1  0  0  0  0
 20 21  1  0  0  0  0
 20 25  1  0  0  0  0
 20 40  1  0  0  0  0
 21 22  1  0  0  0  0
 22 23  1  0  0  0  0
 22 24  2  0  0  0  0
 23 41  1  0  0  0  0
 23 42  1  0  0  0  0
 23 43  1  0  0  0  0
 25 26  1  0  0  0  0
 25 44  1  0  0  0  0
 26 27  1  0  0  0  0
 27 28  1  0  0  0  0
 27 29  2  0  0  0  0
 28 45  1  0  0  0  0
 28 46  1  0  0  0  0
 28 47  1  0  0  0  0
M  END
> <s_m_source_file>
AV-unprocessed.smi

> <i_m_source_file_index>
104

> <i_lp_mmshare_version>
43012

> <i_f3d_flags>
0

> <s_epik_input>
W0NIM11DKD1PKU9bQ0gyXVtDQEBIXTFPW0NASF0oW0NAQEhdKE9DKD1PKVtDSDNdKVtDQEhdMU9DKD1PKVtDSDNdKW4oYyhCciluMiljKGMyMyluW2NIXW5jM1tOSDJd

> <s_epik_cmdline>
J2VwaWtfcHl0aG9uJywgJy1waCcsICc3LjAnLCAnLXRuJywgJzgnLCAnLW1hJywgJzIwMCcsICctbWV0YWxfYmluZGluZycsICctaW1hZScsICc8aW5maWxlLm1hZT4nLCAnLW9tYWUnLCAnPG91dGZpbGUubWFlPic=

> <r_lp_tautomer_probability>
1

> <r_epik_Ionization_Penalty>
7.36622e-05

> <r_epik_Ionization_Penalty_Charging>
0

> <r_epik_Ionization_Penalty_Neutral>
7.36622e-05

> <r_epik_State_Penalty>
-0

> <r_epik_Charging_Adjusted_Penalty>
0

> <i_epik_Tot_Q>
0

> <i_epik_Tot_abs_Q>
0

> <r_epik_Metal_State_Penalty>
-0

> <b_epik_Metal_Only>
0

> <s_epik_Chemistry_Notes>
This compound has an ester and may undergo hydrolysis at high or low pH. This compound contains an acetal/aminal-like group ( X-CH(R)-Y where X, Y are N, S, or O) that may be acid/base labile, releasing an aldehyde.

> <s_lp_Force_Field>
OPLS_2005

> <r_lp_Energy>
15.0278

> <b_lp_Chiralities_Consistent>
1

> <s_lp_Variant>
AV-unprocessed.smi:104-11

> <Gold.Version>
5.8.1

> <Gold.Id.Protein>
6NUR|6NUR_protein|mol2

> <Gold.PLP.Fitness>
38.4009

> <Gold.PLP.PLP>
-25.9554

> <Gold.PLP.part.hbond>
-6.0000

> <Gold.PLP.part.metal>
0.0000

> <Gold.PLP.part.buried>
-5.5088

> <Gold.PLP.part.nonpolar>
-14.0531

> <Gold.PLP.part.repulsive>
0.4102

> <Gold.PLP.ligand.clash>
0.0000

> <Gold.PLP.ligand.torsion>
1.0756

> <Gold.PLP.Chemscore.Hbond>
4.8226

> <Gold.PLP.Chemscore.CHOScore>
0.0000

> <Gold.PLP.Chemscore.Metal>
0.0000

> <Gold.Chemscore.Hbonds>
donor molecule, donor type, donor heavy atom, donor atom, acceptor molecule, acceptor atom, score
      L1  H    15    37       P1 10175  0.96
      L1  H    15    38       P1 10171  0.11
      P1  H  6931  6943       L1     3  0.88
      P1  H  6934  6947       L1     3  0.58
      P1  H  7989  7998       L1    24  1.00
      P1  H 10752 10764       L1    29  1.00

> <Gold.PLP.Chemscore.Internal.Correction>
0.1288

> <Gold.Rescore>
     Score         DG    S(hbond)    S(metal)    S(lipo)     H(rot)  DE(clash)    DE(int)     intcor
     12.25     -13.60       4.63        0.00      31.52       4.31       0.03       1.32       ----

> <Gold.Chemscore.Fitness>
12.2497

> <Gold.Chemscore.DG>
-13.5985

> <Gold.Chemscore.ZeroCoef>
-5.4800

> <Gold.Chemscore.Hbond>
4.6278

> <Gold.Chemscore.Metal>
0.0000

> <Gold.Chemscore.Lipo>
31.5182

> <Gold.Chemscore.Internal_Hbond>
0.0000

> <Gold.Chemscore.DEClash>
0.0270

> <Gold.Chemscore.DEInternal>
1.3218

> <Gold.Chemscore.Rot>
4.3070

> <Gold.Chemscore.Internal.Correction>
   9.000000E+99

> <Gold.Chemscore.Hbonds>
donor molecule, donor type, donor heavy atom, donor atom, acceptor molecule, acceptor atom, score
      L1  H    15    37       P1 10175  0.90
      L1  H    15    38       P1 10171  0.11
      P1  H  6931  6943       L1     3  0.86
      P1  H  6934  6947       L1     3  0.11
      P1  H  7989  7998       L1    24  0.99
      P1  H 10752 10764       L1    29  0.98

> <Gold.Chemscore.Hbond.Weighted>
-15.4567

> <Gold.Chemscore.Metal.Weighted>
-0.0000

> <Gold.Chemscore.Lipo.Weighted>
-3.6876

> <Gold.Chemscore.Internal_Hbond.Weighted>
0.0000

> <Gold.Chemscore.DEClash.Weighted>
0.0270

> <Gold.Chemscore.DEInternal.Weighted>
1.3218

> <Gold.Chemscore.Rot.Weighted>
11.0259

> <Gold.Chemscore.Internal.Correction.Weighted>
   9.000000E+99

> <Gold.Protein.RotatedTorsions>
[ 6907 6896 6895 6894 ] final   81.31 input  -60.11 | X-H torsion
[ 7974 7965 7964 7962 ] final  112.55 input  175.53 | X-H torsion
[ 8008 7997 7996 7995 ] final   49.95 input   59.86 | X-H torsion
[ 10167 10162 10161 10158 ] final   76.99 input  -65.29 | X-H torsion
[ 10718 10713 10712 10709 ] final   -8.97 input   66.30 | X-H torsion
[ 10763 10752 10751 10750 ] final  -40.39 input  -60.55 | X-H torsion
[ 11005 11000 10999 10996 ] final  -22.32 input  -57.11 | X-H torsion

> <Gold.Protein.ActiveResidues>
 VAL166  LYS551  ARG553  GLY616  TRP617  ASP618  TYR619  PRO620  LYS621  CYS622 
 ASP623  PHE694  ASN695  SER759  ASP760  ASP761  ALA762  ILE779  LEU786  VAL792 
 PHE793  MET794  SER795  GLU796  ALA797  LYS798  CYS799  TRP800  GLU811  SER814 

> <Gold.Protein.RotatedAtoms>
  152.5264  134.3224  159.9152 H   0  0  0  0  0  0  0  0  0  0  0  0  # atno 6907 bound_to 6896
  151.3173  133.4048  159.2659 H   0  0  0  0  0  0  0  0  0  0  0  0  # atno 6908 bound_to 6896
  150.9988  134.9322  159.7999 H   0  0  0  0  0  0  0  0  0  0  0  0  # atno 6909 bound_to 6896
  145.2282  139.2831  143.4182 H   0  0  0  0  0  0  0  0  0  0  0  0  # atno 7974 bound_to 7965
  155.4106  140.3442  155.4263 H   0  0  0  0  0  0  0  0  0  0  0  0  # atno 8008 bound_to 7997
  156.1451  140.1553  156.8892 H   0  0  0  0  0  0  0  0  0  0  0  0  # atno 8009 bound_to 7997
  154.5003  140.0816  156.7765 H   0  0  0  0  0  0  0  0  0  0  0  0  # atno 8010 bound_to 7997
  139.9863  144.5789  150.7856 H   0  0  0  0  0  0  0  0  0  0  0  0  # atno 10167 bound_to 10162
  156.6949  130.5076  149.5933 H   0  0  0  0  0  0  0  0  0  0  0  0  # atno 10718 bound_to 10713
  153.9452  135.6757  153.4744 H   0  0  0  0  0  0  0  0  0  0  0  0  # atno 10763 bound_to 10752
  153.0911  135.4874  154.8689 H   0  0  0  0  0  0  0  0  0  0  0  0  # atno 10764 bound_to 10752
  154.7355  135.3148  154.8777 H   0  0  0  0  0  0  0  0  0  0  0  0  # atno 10765 bound_to 10752
  140.8646  133.7764  156.0114 H   0  0  0  0  0  0  0  0  0  0  0  0  # atno 11005 bound_to 11000
  146.3359  140.2608  142.8602 LP  0  0  0  0  0  0  0  0  0  0  0  0  # atno 17320 bound_to 7965
  144.9701  140.8361  143.5460 LP  0  0  0  0  0  0  0  0  0  0  0  0  # atno 17321 bound_to 7965
  140.7471  143.2901  151.3355 LP  0  0  0  0  0  0  0  0  0  0  0  0  # atno 17342 bound_to 10162
  139.6372  144.0607  152.2525 LP  0  0  0  0  0  0  0  0  0  0  0  0  # atno 17343 bound_to 10162
  156.1771  130.6474  151.0907 LP  0  0  0  0  0  0  0  0  0  0  0  0  # atno 17370 bound_to 10713
  157.6995  131.0781  150.6865 LP  0  0  0  0  0  0  0  0  0  0  0  0  # atno 17371 bound_to 10713
  140.8644  134.2802  157.5220 LP  0  0  0  0  0  0  0  0  0  0  0  0  # atno 17394 bound_to 11000
  139.8708  134.9535  156.4146 LP  0  0  0  0  0  0  0  0  0  0  0  0  # atno 17395 bound_to 11000

$$$$
