AV-unprocessed.smi:194|AV-procd|sdf|1521|dock6
  -GOLD-   2262019363D 1   1.00000     0.00000
 Structure written by MMmdl.
 53 55  0  0  0  0  0  0  0  0  1 V2000
  149.5035  140.8883  155.9819 C   0  0  0  0  0  0  0  0  0  0  0  0
  149.5191  140.3286  154.5374 C   0  0  1  0  0  0  0  0  0  0  0  0
  149.9571  138.8439  154.5451 C   0  0  0  0  0  0  0  0  0  0  0  0
  151.7999  138.7422  154.7519 S   0  0  1  0  0  0  0  0  0  0  0  0
  151.8301  139.0835  156.5737 C   0  0  0  0  0  0  0  0  0  0  0  0
  152.1850  137.2732  154.5691 O   0  0  0  0  0  0  0  0  0  0  0  0
  148.2167  140.4935  153.8690 N   0  0  0  0  0  0  0  0  0  0  0  0
  147.5593  141.7935  153.9765 C   0  0  0  0  0  0  0  0  0  0  0  0
  147.3203  139.5039  154.0827 C   0  0  0  0  0  0  0  0  0  0  0  0
  146.9713  139.2465  155.3672 N   0  0  0  0  0  0  0  0  0  0  0  0
  146.0837  138.2842  155.6358 C   0  0  0  0  0  0  0  0  0  0  0  0
  145.4452  137.4759  154.7866 N   0  0  0  0  0  0  0  0  0  0  0  0
  145.8067  137.7239  153.4945 C   0  0  0  0  0  0  0  0  0  0  0  0
  146.7278  138.7160  153.0562 C   0  0  0  0  0  0  0  0  0  0  0  0
  146.8359  138.6872  151.6716 N   0  0  0  0  0  0  0  0  0  0  0  0
  146.0185  137.7362  151.3112 C   0  0  0  0  0  0  0  0  0  0  0  0
  145.3727  137.0901  152.3422 N   0  0  0  0  0  0  0  0  0  0  0  0
  144.4086  136.0059  152.2198 C   0  0  0  0  0  0  0  0  0  0  0  0
  144.9427  134.6868  151.5825 C   0  0  0  0  0  0  0  0  0  0  0  0
  145.3094  134.9003  150.0828 C   0  0  0  0  0  0  0  0  0  0  0  0
  144.1874  134.9846  149.2276 O   0  0  0  0  0  0  0  0  0  0  0  0
  146.1363  134.1175  152.3922 C   0  0  0  0  0  0  0  0  0  0  0  0
  146.4816  132.6706  152.0004 C   0  0  0  0  0  0  0  0  0  0  0  0
  145.3456  131.8377  152.1914 O   0  0  0  0  0  0  0  0  0  0  0  0
  144.2485  132.2047  151.3656 C   0  0  0  0  0  0  0  0  0  0  0  0
  143.7991  133.6444  151.6844 C   0  0  0  0  0  0  0  0  0  0  0  0
  150.4607  140.7521  156.4836 H   0  0  0  0  0  0  0  0  0  0  0  0
  148.7427  140.3938  156.5869 H   0  0  0  0  0  0  0  0  0  0  0  0
  149.3020  141.9593  156.0064 H   0  0  0  0  0  0  0  0  0  0  0  0
  150.2554  140.8886  153.9596 H   0  0  0  0  0  0  0  0  0  0  0  0
  149.4580  138.2899  155.3407 H   0  0  0  0  0  0  0  0  0  0  0  0
  149.7218  138.3477  153.6043 H   0  0  0  0  0  0  0  0  0  0  0  0
  151.3702  140.0480  156.7891 H   0  0  0  0  0  0  0  0  0  0  0  0
  152.8582  139.1012  156.9349 H   0  0  0  0  0  0  0  0  0  0  0  0
  151.2867  138.3088  157.1146 H   0  0  0  0  0  0  0  0  0  0  0  0
  146.4905  141.7357  153.7622 H   0  0  0  0  0  0  0  0  0  0  0  0
  147.9920  142.4935  153.2619 H   0  0  0  0  0  0  0  0  0  0  0  0
  147.6809  142.2062  154.9786 H   0  0  0  0  0  0  0  0  0  0  0  0
  145.8512  138.1417  156.6809 H   0  0  0  0  0  0  0  0  0  0  0  0
  145.8716  137.4684  150.2750 H   0  0  0  0  0  0  0  0  0  0  0  0
  144.0191  135.8071  153.2193 H   0  0  0  0  0  0  0  0  0  0  0  0
  143.5602  136.3779  151.6437 H   0  0  0  0  0  0  0  0  0  0  0  0
  145.8735  135.8193  149.9365 H   0  0  0  0  0  0  0  0  0  0  0  0
  145.9533  134.0930  149.7323 H   0  0  0  0  0  0  0  0  0  0  0  0
  144.4845  134.9215  148.3327 H   0  0  0  0  0  0  0  0  0  0  0  0
  147.0207  134.7464  152.2894 H   0  0  0  0  0  0  0  0  0  0  0  0
  145.8868  134.1263  153.4540 H   0  0  0  0  0  0  0  0  0  0  0  0
  146.8315  132.6077  150.9694 H   0  0  0  0  0  0  0  0  0  0  0  0
  147.2918  132.3008  152.6291 H   0  0  0  0  0  0  0  0  0  0  0  0
  144.5122  132.0832  150.3151 H   0  0  0  0  0  0  0  0  0  0  0  0
  143.4274  131.5131  151.5555 H   0  0  0  0  0  0  0  0  0  0  0  0
  143.3953  133.6449  152.6981 H   0  0  0  0  0  0  0  0  0  0  0  0
  142.9703  133.9245  151.0329 H   0  0  0  0  0  0  0  0  0  0  0  0
  1  2  1  0  0  0  0
  1 27  1  0  0  0  0
  1 28  1  0  0  0  0
  1 29  1  0  0  0  0
  2  3  1  0  0  0  0
  2  7  1  0  0  0  0
  2 30  1  0  0  0  0
  3  4  1  0  0  0  0
  3 31  1  0  0  0  0
  3 32  1  0  0  0  0
  4  5  1  0  0  0  0
  4  6  2  0  0  0  0
  5 33  1  0  0  0  0
  5 34  1  0  0  0  0
  5 35  1  0  0  0  0
  7  8  1  0  0  0  0
  7  9  1  0  0  0  0
  8 36  1  0  0  0  0
  8 37  1  0  0  0  0
  8 38  1  0  0  0  0
  9 14  1  0  0  0  0
  9 10  2  0  0  0  0
 10 11  1  0  0  0  0
 11 12  2  0  0  0  0
 11 39  1  0  0  0  0
 12 13  1  0  0  0  0
 13 17  1  0  0  0  0
 13 14  2  0  0  0  0
 14 15  1  0  0  0  0
 15 16  2  0  0  0  0
 16 17  1  0  0  0  0
 16 40  1  0  0  0  0
 17 18  1  0  0  0  0
 18 19  1  0  0  0  0
 18 41  1  0  0  0  0
 18 42  1  0  0  0  0
 19 26  1  0  0  0  0
 19 20  1  0  0  0  0
 19 22  1  0  0  0  0
 20 21  1  0  0  0  0
 20 43  1  0  0  0  0
 20 44  1  0  0  0  0
 21 45  1  0  0  0  0
 22 23  1  0  0  0  0
 22 46  1  0  0  0  0
 22 47  1  0  0  0  0
 23 24  1  0  0  0  0
 23 48  1  0  0  0  0
 23 49  1  0  0  0  0
 24 25  1  0  0  0  0
 25 26  1  0  0  0  0
 25 50  1  0  0  0  0
 25 51  1  0  0  0  0
 26 52  1  0  0  0  0
 26 53  1  0  0  0  0
M  END
> <s_m_source_file>
AV-unprocessed.smi

> <i_m_source_file_index>
194

> <i_lp_mmshare_version>
43012

> <i_f3d_flags>
0

> <s_epik_input>
W0NIM11bU0BAXSg9TylbQ0gyXVtDQEBIXShbQ0gzXSlOKFtDSDNdKWMobltjSF1uMSljKGMxMiluW2NIXW4yW0NIMl1DMyhbQ0gyXVtPSF0pW0NIMl1bQ0gyXU9bQ0gyXVtDSDJdMw==

> <s_epik_cmdline>
J2VwaWtfcHl0aG9uJywgJy1waCcsICc3LjAnLCAnLXRuJywgJzgnLCAnLW1hJywgJzIwMCcsICctbWV0YWxfYmluZGluZycsICctaW1hZScsICc8aW5maWxlLm1hZT4nLCAnLW9tYWUnLCAnPG91dGZpbGUubWFlPic=

> <r_lp_tautomer_probability>
1

> <r_epik_Ionization_Penalty>
0.00101625

> <r_epik_Ionization_Penalty_Charging>
0

> <r_epik_Ionization_Penalty_Neutral>
0.00101625

> <r_epik_State_Penalty>
0.000568005

> <r_epik_Charging_Adjusted_Penalty>
0.000568005

> <i_epik_Tot_Q>
0

> <i_epik_Tot_abs_Q>
0

> <r_epik_Metal_State_Penalty>
-0

> <b_epik_Metal_Only>
0

> <s_lp_Force_Field>
OPLS_2005

> <r_lp_Energy>
31.1686

> <b_lp_Chiralities_Consistent>
1

> <s_lp_Variant>
AV-unprocessed.smi:194-2

> <Gold.Version>
5.8.1

> <Gold.Id.Protein>
6NUR|6NUR_protein|mol2

> <Gold.PLP.Fitness>
43.2712

> <Gold.PLP.PLP>
-39.1727

> <Gold.PLP.part.hbond>
-2.7805

> <Gold.PLP.part.metal>
0.0000

> <Gold.PLP.part.buried>
-1.4277

> <Gold.PLP.part.nonpolar>
-36.8551

> <Gold.PLP.part.repulsive>
1.9953

> <Gold.PLP.ligand.clash>
0.0000

> <Gold.PLP.ligand.torsion>
1.1662

> <Gold.PLP.Chemscore.Hbond>
1.5020

> <Gold.PLP.Chemscore.CHOScore>
0.4287

> <Gold.PLP.Chemscore.Metal>
0.0000

> <Gold.Chemscore.Hbonds>
donor molecule, donor type, donor heavy atom, donor atom, acceptor molecule, acceptor atom, score
      L1  H    21    45       P1  7921  0.66
      P1  H  7954  7966       L1    15  0.04
      P1  H 10752 10764       L1     6  0.80
      L1  C    16    40       P1 10171  0.43

> <Gold.PLP.Chemscore.Internal.Correction>
0.6388

> <Gold.Rescore>
     Score         DG    S(hbond)    S(metal)    S(lipo)     H(rot)  DE(clash)    DE(int)     intcor
      8.32      -9.69       1.77        0.00      57.98       3.31       0.01       1.36       ----

> <Gold.Chemscore.Fitness>
8.3168

> <Gold.Chemscore.DG>
-9.6862

> <Gold.Chemscore.ZeroCoef>
-5.4800

> <Gold.Chemscore.Hbond>
1.7651

> <Gold.Chemscore.Metal>
0.0000

> <Gold.Chemscore.Lipo>
57.9800

> <Gold.Chemscore.Internal_Hbond>
0.0000

> <Gold.Chemscore.DEClash>
0.0063

> <Gold.Chemscore.DEInternal>
1.3631

> <Gold.Chemscore.Rot>
3.3098

> <Gold.Chemscore.Internal.Correction>
   9.000000E+99

> <Gold.Chemscore.Hbonds>
donor molecule, donor type, donor heavy atom, donor atom, acceptor molecule, acceptor atom, score
      L1  H    21    45       P1  7921  0.66
      P1  H 10752 10764       L1     6  0.80

> <Gold.Chemscore.Hbond.Weighted>
-5.8955

> <Gold.Chemscore.Metal.Weighted>
-0.0000

> <Gold.Chemscore.Lipo.Weighted>
-6.7837

> <Gold.Chemscore.Internal_Hbond.Weighted>
0.0000

> <Gold.Chemscore.DEClash.Weighted>
0.0063

> <Gold.Chemscore.DEInternal.Weighted>
1.3631

> <Gold.Chemscore.Rot.Weighted>
8.4730

> <Gold.Chemscore.Internal.Correction.Weighted>
   9.000000E+99

> <Gold.Protein.RotatedTorsions>
[ 6907 6896 6895 6894 ] final  -87.04 input  -60.11 | X-H torsion
[ 7974 7965 7964 7962 ] final   57.91 input  175.53 | X-H torsion
[ 8008 7997 7996 7995 ] final  -36.16 input   59.86 | X-H torsion
[ 10167 10162 10161 10158 ] final -117.53 input  -65.29 | X-H torsion
[ 10718 10713 10712 10709 ] final  176.11 input   66.30 | X-H torsion
[ 10763 10752 10751 10750 ] final  -81.41 input  -60.55 | X-H torsion
[ 11005 11000 10999 10996 ] final  171.12 input  -57.11 | X-H torsion

> <Gold.Protein.ActiveResidues>
 VAL166  LYS551  ARG553  GLY616  TRP617  ASP618  TYR619  PRO620  LYS621  CYS622 
 ASP623  PHE694  ASN695  SER759  ASP760  ASP761  ALA762  ILE779  LEU786  VAL792 
 PHE793  MET794  SER795  GLU796  ALA797  LYS798  CYS799  TRP800  GLU811  SER814 

> <Gold.Protein.RotatedAtoms>
  150.6866  134.2958  159.4685 H   0  0  0  0  0  0  0  0  0  0  0  0  # atno 6907 bound_to 6896
  152.0859  134.9437  160.0582 H   0  0  0  0  0  0  0  0  0  0  0  0  # atno 6908 bound_to 6896
  152.0772  133.4100  159.4522 H   0  0  0  0  0  0  0  0  0  0  0  0  # atno 6909 bound_to 6896
  145.9240  139.3752  143.0461 H   0  0  0  0  0  0  0  0  0  0  0  0  # atno 7974 bound_to 7965
  154.4079  140.1638  156.2329 H   0  0  0  0  0  0  0  0  0  0  0  0  # atno 8008 bound_to 7997
  155.9267  140.3417  155.6193 H   0  0  0  0  0  0  0  0  0  0  0  0  # atno 8009 bound_to 7997
  155.7156  140.0762  157.2343 H   0  0  0  0  0  0  0  0  0  0  0  0  # atno 8010 bound_to 7997
  140.0673  143.4911  152.1999 H   0  0  0  0  0  0  0  0  0  0  0  0  # atno 10167 bound_to 10162
  156.9249  130.9952  151.2998 H   0  0  0  0  0  0  0  0  0  0  0  0  # atno 10718 bound_to 10713
  154.5632  135.5627  153.7026 H   0  0  0  0  0  0  0  0  0  0  0  0  # atno 10763 bound_to 10752
  153.0024  135.6279  154.2216 H   0  0  0  0  0  0  0  0  0  0  0  0  # atno 10764 bound_to 10752
  154.2154  135.2872  155.2923 H   0  0  0  0  0  0  0  0  0  0  0  0  # atno 10765 bound_to 10752
  140.3156  134.7480  157.4025 H   0  0  0  0  0  0  0  0  0  0  0  0  # atno 11005 bound_to 11000
  145.8513  140.9527  143.0748 LP  0  0  0  0  0  0  0  0  0  0  0  0  # atno 17320 bound_to 7965
  144.6756  140.0411  143.7481 LP  0  0  0  0  0  0  0  0  0  0  0  0  # atno 17321 bound_to 7965
  139.5857  144.7530  151.3526 LP  0  0  0  0  0  0  0  0  0  0  0  0  # atno 17342 bound_to 10162
  140.7143  143.7309  150.7625 LP  0  0  0  0  0  0  0  0  0  0  0  0  # atno 17343 bound_to 10162
  157.5884  130.8426  149.8623 LP  0  0  0  0  0  0  0  0  0  0  0  0  # atno 17370 bound_to 10713
  156.0474  130.3725  150.1285 LP  0  0  0  0  0  0  0  0  0  0  0  0  # atno 17371 bound_to 10713
  140.0986  134.5503  155.8374 LP  0  0  0  0  0  0  0  0  0  0  0  0  # atno 17394 bound_to 11000
  141.2098  133.6688  156.6466 LP  0  0  0  0  0  0  0  0  0  0  0  0  # atno 17395 bound_to 11000

$$$$
