AV-unprocessed.smi:1734|AV-procd|sdf|6980|dock9
  -GOLD-   22720 8193D 1   1.00000     0.00000
 Structure written by MMmdl.
 50 52  0  0  0  0  0  0  0  0  1 V2000
  147.3045  132.6345  152.5796 C   0  0  0  0  0  0  0  0  0  0  0  0
  145.9579  133.0446  152.0056 C   0  0  0  0  0  0  0  0  0  0  0  0
  145.0974  132.0529  151.4883 C   0  0  0  0  0  0  0  0  0  0  0  0
  143.8540  132.4335  150.9558 C   0  0  0  0  0  0  0  0  0  0  0  0
  143.5213  133.7989  150.9630 C   0  0  0  0  0  0  0  0  0  0  0  0
  144.3370  134.7532  151.4554 N   0  0  0  0  0  0  0  0  0  0  0  0
  145.5410  134.4027  151.9738 C   0  0  0  0  0  0  0  0  0  0  0  0
  146.4507  135.3553  152.5142 N   0  0  0  0  0  0  0  0  0  0  0  0
  146.3558  136.0425  153.6662 C   0  0  0  0  0  0  0  0  0  0  0  0
  145.4208  135.9737  154.4647 O   0  0  0  0  0  0  0  0  0  0  0  0
  147.4218  136.8353  153.8469 N   0  0  0  0  0  0  0  0  0  0  0  0
  147.6227  137.7150  154.9943 C   0  0  0  0  0  0  0  0  0  0  0  0
  148.6785  138.8257  154.7261 C   0  0  2  0  0  0  0  0  0  0  0  0
  150.0573  138.5205  155.3918 C   0  0  2  0  0  0  0  0  0  0  0  0
  151.2233  139.4431  155.0250 C   0  0  0  0  0  0  0  0  0  0  0  0
  152.4056  138.4896  154.8865 C   0  0  0  0  0  0  0  0  0  0  0  0
  151.8059  137.2959  154.4135 O   0  0  0  0  0  0  0  0  0  0  0  0
  150.6156  137.1034  155.1638 C   0  0  0  0  0  0  0  0  0  0  0  0
  148.1862  140.2068  154.9050 N   0  0  0  0  0  0  0  0  0  0  0  0
  147.3060  140.6509  153.8265 C   0  0  0  0  0  0  0  0  0  0  0  0
  146.9371  142.1364  153.9675 C   0  0  0  0  0  0  0  0  0  0  0  0
  146.3264  142.3501  155.2355 O   0  0  0  0  0  0  0  0  0  0  0  0
  147.1730  141.9817  156.3192 C   0  0  0  0  0  0  0  0  0  0  0  0
  147.5721  140.5001  156.1983 C   0  0  0  0  0  0  0  0  0  0  0  0
  147.4341  131.5522  152.5531 H   0  0  0  0  0  0  0  0  0  0  0  0
  147.3939  132.9562  153.6175 H   0  0  0  0  0  0  0  0  0  0  0  0
  148.1151  133.0836  152.0049 H   0  0  0  0  0  0  0  0  0  0  0  0
  145.3838  131.0114  151.4982 H   0  0  0  0  0  0  0  0  0  0  0  0
  143.1732  131.6986  150.5525 H   0  0  0  0  0  0  0  0  0  0  0  0
  142.5757  134.1348  150.5640 H   0  0  0  0  0  0  0  0  0  0  0  0
  147.2762  135.5249  151.9594 H   0  0  0  0  0  0  0  0  0  0  0  0
  148.1457  136.8321  153.1435 H   0  0  0  0  0  0  0  0  0  0  0  0
  146.6579  138.1425  155.2667 H   0  0  0  0  0  0  0  0  0  0  0  0
  147.9201  137.0930  155.8376 H   0  0  0  0  0  0  0  0  0  0  0  0
  148.9009  138.7508  153.6607 H   0  0  0  0  0  0  0  0  0  0  0  0
  149.9109  138.6163  156.4688 H   0  0  0  0  0  0  0  0  0  0  0  0
  151.0556  139.9614  154.0832 H   0  0  0  0  0  0  0  0  0  0  0  0
  151.4035  140.2073  155.7814 H   0  0  0  0  0  0  0  0  0  0  0  0
  153.1672  138.8590  154.1995 H   0  0  0  0  0  0  0  0  0  0  0  0
  152.8740  138.3050  155.8547 H   0  0  0  0  0  0  0  0  0  0  0  0
  150.8742  136.6410  156.1177 H   0  0  0  0  0  0  0  0  0  0  0  0
  149.9323  136.4263  154.6520 H   0  0  0  0  0  0  0  0  0  0  0  0
  147.7868  140.4884  152.8612 H   0  0  0  0  0  0  0  0  0  0  0  0
  146.3853  140.0680  153.8232 H   0  0  0  0  0  0  0  0  0  0  0  0
  147.8218  142.7671  153.8677 H   0  0  0  0  0  0  0  0  0  0  0  0
  146.2414  142.4309  153.1819 H   0  0  0  0  0  0  0  0  0  0  0  0
  148.0596  142.6181  156.3265 H   0  0  0  0  0  0  0  0  0  0  0  0
  146.6475  142.1561  157.2581 H   0  0  0  0  0  0  0  0  0  0  0  0
  146.6909  139.8756  156.3468 H   0  0  0  0  0  0  0  0  0  0  0  0
  148.2655  140.2804  157.0065 H   0  0  0  0  0  0  0  0  0  0  0  0
  1  2  1  0  0  0  0
  1 25  1  0  0  0  0
  1 26  1  0  0  0  0
  1 27  1  0  0  0  0
  2  7  1  0  0  0  0
  2  3  2  0  0  0  0
  3  4  1  0  0  0  0
  3 28  1  0  0  0  0
  4  5  2  0  0  0  0
  4 29  1  0  0  0  0
  5  6  1  0  0  0  0
  5 30  1  0  0  0  0
  6  7  2  0  0  0  0
  7  8  1  0  0  0  0
  8  9  1  0  0  0  0
  8 31  1  0  0  0  0
  9 10  2  0  0  0  0
  9 11  1  0  0  0  0
 11 12  1  0  0  0  0
 11 32  1  0  0  0  0
 12 13  1  0  0  0  0
 12 33  1  0  0  0  0
 12 34  1  0  0  0  0
 13 14  1  0  0  0  0
 13 19  1  0  0  0  0
 13 35  1  0  0  0  0
 14 18  1  0  0  0  0
 14 15  1  0  0  0  0
 14 36  1  0  0  0  0
 15 16  1  0  0  0  0
 15 37  1  0  0  0  0
 15 38  1  0  0  0  0
 16 17  1  0  0  0  0
 16 39  1  0  0  0  0
 16 40  1  0  0  0  0
 17 18  1  0  0  0  0
 18 41  1  0  0  0  0
 18 42  1  0  0  0  0
 19 24  1  0  0  0  0
 19 20  1  0  0  0  0
 20 21  1  0  0  0  0
 20 43  1  0  0  0  0
 20 44  1  0  0  0  0
 21 22  1  0  0  0  0
 21 45  1  0  0  0  0
 21 46  1  0  0  0  0
 22 23  1  0  0  0  0
 23 24  1  0  0  0  0
 23 47  1  0  0  0  0
 23 48  1  0  0  0  0
 24 49  1  0  0  0  0
 24 50  1  0  0  0  0
M  END
> <s_m_source_file>
AV-unprocessed.smi

> <i_m_source_file_index>
1734

> <i_lp_mmshare_version>
43012

> <i_f3d_flags>
0

> <s_epik_input>
W0NIM11jMVtjSF1bY0hdW2NIXW5jMVtOSF1DKD1PKVtOSF1bQ0gyXVtDQEhdKFtDQEBIXTJbQ0gyXVtDSDJdT1tDSDJdMilOM1tDSDJdW0NIMl1PW0NIMl1bQ0gyXTM=

> <s_epik_cmdline>
J2VwaWtfcHl0aG9uJywgJy1waCcsICc3LjAnLCAnLXRuJywgJzgnLCAnLW1hJywgJzIwMCcsICctbWV0YWxfYmluZGluZycsICctaW1hZScsICc8aW5maWxlLm1hZT4nLCAnLW9tYWUnLCAnPG91dGZpbGUubWFlPic=

> <r_epik_Ionization_Penalty>
0.125073

> <r_epik_Ionization_Penalty_Charging>
0

> <r_epik_Ionization_Penalty_Neutral>
0.125073

> <r_epik_State_Penalty>
0.114484

> <r_epik_Charging_Adjusted_Penalty>
0.114484

> <i_epik_Tot_Q>
0

> <i_epik_Tot_abs_Q>
0

> <r_epik_Metal_State_Penalty>
0.114483

> <b_epik_Metal_Only>
0

> <s_lp_Force_Field>
OPLS_2005

> <r_lp_Energy>
56.0061

> <b_lp_Chiralities_Consistent>
1

> <s_lp_Variant>
AV-unprocessed.smi:1734-1

> <Gold.Version>
5.8.1

> <Gold.Id.Protein>
6NUR|6NUR_protein|mol2

> <Gold.PLP.Fitness>
42.8709

> <Gold.PLP.PLP>
-34.5440

> <Gold.PLP.part.hbond>
-2.8264

> <Gold.PLP.part.metal>
0.0000

> <Gold.PLP.part.buried>
-3.7363

> <Gold.PLP.part.nonpolar>
-28.6648

> <Gold.PLP.part.repulsive>
0.5556

> <Gold.PLP.ligand.clash>
0.0000

> <Gold.PLP.ligand.torsion>
1.8577

> <Gold.PLP.Chemscore.Hbond>
2.9040

> <Gold.PLP.Chemscore.CHOScore>
1.0000

> <Gold.PLP.Chemscore.Metal>
0.0000

> <Gold.Chemscore.Hbonds>
donor molecule, donor type, donor heavy atom, donor atom, acceptor molecule, acceptor atom, score
      L1  H     8    31       P1  7948  0.99
      L1  H    11    32       P1  7948  1.00
      P1  H 10752 10764       L1    17  1.00
      L1  C     5    30       P1 10186  0.63

> <Gold.PLP.Chemscore.Internal.Correction>
0.3303

> <Gold.Rescore>
     Score         DG    S(hbond)    S(metal)    S(lipo)     H(rot)  DE(clash)    DE(int)     intcor
     18.24     -20.09       2.82        0.00      80.34       1.65       0.02       1.84       ----

> <Gold.Chemscore.Fitness>
18.2356

> <Gold.Chemscore.DG>
-20.0899

> <Gold.Chemscore.ZeroCoef>
-5.4800

> <Gold.Chemscore.Hbond>
2.8230

> <Gold.Chemscore.Metal>
0.0000

> <Gold.Chemscore.Lipo>
80.3395

> <Gold.Chemscore.Internal_Hbond>
0.0000

> <Gold.Chemscore.DEClash>
0.0150

> <Gold.Chemscore.DEInternal>
1.8392

> <Gold.Chemscore.Rot>
1.6480

> <Gold.Chemscore.Internal.Correction>
   9.000000E+99

> <Gold.Chemscore.Hbonds>
donor molecule, donor type, donor heavy atom, donor atom, acceptor molecule, acceptor atom, score
      L1  H     8    31       P1  7948  0.94
      L1  H    11    32       P1  7948  0.97
      P1  H 10752 10764       L1    17  0.75

> <Gold.Chemscore.Hbond.Weighted>
-9.4290

> <Gold.Chemscore.Metal.Weighted>
-0.0000

> <Gold.Chemscore.Lipo.Weighted>
-9.3997

> <Gold.Chemscore.Internal_Hbond.Weighted>
0.0000

> <Gold.Chemscore.DEClash.Weighted>
0.0150

> <Gold.Chemscore.DEInternal.Weighted>
1.8392

> <Gold.Chemscore.Rot.Weighted>
4.2188

> <Gold.Chemscore.Internal.Correction.Weighted>
   9.000000E+99

> <Gold.Protein.RotatedTorsions>
[ 6907 6896 6895 6894 ] final  -57.76 input  -60.11 | X-H torsion
[ 7974 7965 7964 7962 ] final  -36.52 input  175.53 | X-H torsion
[ 8008 7997 7996 7995 ] final  -66.56 input   59.86 | X-H torsion
[ 10167 10162 10161 10158 ] final   21.84 input  -65.29 | X-H torsion
[ 10718 10713 10712 10709 ] final -131.09 input   66.30 | X-H torsion
[ 10763 10752 10751 10750 ] final  -76.05 input  -60.55 | X-H torsion
[ 11005 11000 10999 10996 ] final   99.74 input  -57.11 | X-H torsion

> <Gold.Protein.ActiveResidues>
 VAL166  LYS551  ARG553  GLY616  TRP617  ASP618  TYR619  PRO620  LYS621  CYS622 
 ASP623  PHE694  ASN695  SER759  ASP760  ASP761  ALA762  ILE779  LEU786  VAL792 
 PHE793  MET794  SER795  GLU796  ALA797  LYS798  CYS799  TRP800  GLU811  SER814 

> <Gold.Protein.RotatedAtoms>
  150.8061  134.7186  159.6644 H   0  0  0  0  0  0  0  0  0  0  0  0  # atno 6907 bound_to 6896
  152.4180  134.6004  160.0008 H   0  0  0  0  0  0  0  0  0  0  0  0  # atno 6908 bound_to 6896
  151.6227  133.3301  159.3127 H   0  0  0  0  0  0  0  0  0  0  0  0  # atno 6909 bound_to 6896
  146.0654  140.6288  142.8977 H   0  0  0  0  0  0  0  0  0  0  0  0  # atno 7974 bound_to 7965
  154.4743  140.0910  156.7222 H   0  0  0  0  0  0  0  0  0  0  0  0  # atno 8008 bound_to 7997
  155.4640  140.3462  155.4298 H   0  0  0  0  0  0  0  0  0  0  0  0  # atno 8009 bound_to 7997
  156.1090  140.1442  156.9353 H   0  0  0  0  0  0  0  0  0  0  0  0  # atno 8010 bound_to 7997
  140.5395  143.9701  150.6511 H   0  0  0  0  0  0  0  0  0  0  0  0  # atno 10167 bound_to 10162
  156.2210  130.6978  151.0755 H   0  0  0  0  0  0  0  0  0  0  0  0  # atno 10718 bound_to 10713
  154.4946  135.5811  153.6485 H   0  0  0  0  0  0  0  0  0  0  0  0  # atno 10763 bound_to 10752
  152.9868  135.6121  154.3080 H   0  0  0  0  0  0  0  0  0  0  0  0  # atno 10764 bound_to 10752
  154.2983  135.2847  155.2602 H   0  0  0  0  0  0  0  0  0  0  0  0  # atno 10765 bound_to 10752
  139.8770  134.9109  156.4651 H   0  0  0  0  0  0  0  0  0  0  0  0  # atno 11005 bound_to 11000
  144.7199  140.4339  143.7016 LP  0  0  0  0  0  0  0  0  0  0  0  0  # atno 17320 bound_to 7965
  145.6486  139.1561  143.2875 LP  0  0  0  0  0  0  0  0  0  0  0  0  # atno 17321 bound_to 7965
  140.3098  143.3205  152.0890 LP  0  0  0  0  0  0  0  0  0  0  0  0  # atno 17342 bound_to 10162
  139.4983  144.6643  151.6392 LP  0  0  0  0  0  0  0  0  0  0  0  0  # atno 17343 bound_to 10162
  157.7087  131.0744  150.6577 LP  0  0  0  0  0  0  0  0  0  0  0  0  # atno 17370 bound_to 10713
  156.6640  130.4520  149.5678 LP  0  0  0  0  0  0  0  0  0  0  0  0  # atno 17371 bound_to 10713
  140.8836  133.7900  155.9493 LP  0  0  0  0  0  0  0  0  0  0  0  0  # atno 17394 bound_to 11000
  140.8828  134.2590  157.5135 LP  0  0  0  0  0  0  0  0  0  0  0  0  # atno 17395 bound_to 11000

$$$$
