AV-unprocessed.smi:1003|AV-procd|sdf|4360|dock3
  -GOLD-   22720 2263D 1   1.00000     0.00000
 Structure written by MMmdl.
 43 44  0  0  0  0  0  0  0  0  1 V2000
  145.0711  144.2777  158.0345 C   0  0  0  0  0  0  0  0  0  0  0  0
  144.2353  143.8314  156.8296 C   0  0  0  0  0  0  0  0  0  0  0  0
  145.0891  143.4454  155.6576 C   0  0  0  0  0  0  0  0  0  0  0  0
  146.0053  142.3980  155.7932 N   0  0  0  0  0  0  0  0  0  0  0  0
  146.6909  142.1644  154.6726 C   0  0  0  0  0  0  0  0  0  0  0  0
  147.7512  141.1222  154.5565 C   0  0  0  0  0  0  0  0  0  0  0  0
  149.1515  141.7295  154.3749 C   0  0  0  0  0  0  0  0  0  0  0  0
  149.6555  142.2971  155.6196 N   0  0  0  0  0  0  0  0  0  0  0  0
  150.6103  141.7469  156.3858 C   0  0  0  0  0  0  0  0  0  0  0  0
  151.1698  140.6857  156.1066 O   0  0  0  0  0  0  0  0  0  0  0  0
  150.9880  142.5089  157.6633 C   0  0  0  0  0  0  0  0  0  0  0  0
  151.6465  143.8639  157.3257 C   0  0  0  0  0  0  0  0  0  0  0  0
  152.0431  144.6267  158.6004 C   0  0  0  0  0  0  0  0  0  0  0  0
  152.9668  143.7804  159.4907 C   0  0  0  0  0  0  0  0  0  0  0  0
  152.3243  142.4255  159.8275 C   0  0  0  0  0  0  0  0  0  0  0  0
  151.9274  141.6649  158.5516 C   0  0  0  0  0  0  0  0  0  0  0  0
  146.2693  143.2592  153.3638 S   0  0  0  0  0  0  0  0  0  0  0  0
  145.1024  144.0260  154.4104 C   0  0  0  0  0  0  0  0  0  0  0  0
  144.2729  145.1663  153.9210 C   0  0  0  0  0  0  0  0  0  0  0  0
  144.4301  144.5531  158.8720 H   0  0  0  0  0  0  0  0  0  0  0  0
  145.6862  145.1431  157.7865 H   0  0  0  0  0  0  0  0  0  0  0  0
  145.7340  143.4799  158.3710 H   0  0  0  0  0  0  0  0  0  0  0  0
  143.6056  142.9913  157.1242 H   0  0  0  0  0  0  0  0  0  0  0  0
  143.5488  144.6316  156.5520 H   0  0  0  0  0  0  0  0  0  0  0  0
  147.7262  140.4953  155.4489 H   0  0  0  0  0  0  0  0  0  0  0  0
  147.5043  140.4748  153.7144 H   0  0  0  0  0  0  0  0  0  0  0  0
  149.8483  140.9796  153.9964 H   0  0  0  0  0  0  0  0  0  0  0  0
  149.1171  142.5251  153.6299 H   0  0  0  0  0  0  0  0  0  0  0  0
  149.2489  143.1708  155.9213 H   0  0  0  0  0  0  0  0  0  0  0  0
  150.0746  142.7073  158.2277 H   0  0  0  0  0  0  0  0  0  0  0  0
  152.5350  143.7084  156.7112 H   0  0  0  0  0  0  0  0  0  0  0  0
  150.9655  144.4755  156.7323 H   0  0  0  0  0  0  0  0  0  0  0  0
  152.5374  145.5616  158.3353 H   0  0  0  0  0  0  0  0  0  0  0  0
  151.1462  144.8985  159.1583 H   0  0  0  0  0  0  0  0  0  0  0  0
  153.9168  143.6172  158.9799 H   0  0  0  0  0  0  0  0  0  0  0  0
  153.1981  144.3219  160.4084 H   0  0  0  0  0  0  0  0  0  0  0  0
  153.0148  141.8240  160.4193 H   0  0  0  0  0  0  0  0  0  0  0  0
  151.4416  142.5837  160.4484 H   0  0  0  0  0  0  0  0  0  0  0  0
  151.4443  140.7257  158.8237 H   0  0  0  0  0  0  0  0  0  0  0  0
  152.8296  141.3973  157.9989 H   0  0  0  0  0  0  0  0  0  0  0  0
  144.2504  145.9732  154.6537 H   0  0  0  0  0  0  0  0  0  0  0  0
  143.2470  144.8460  153.7385 H   0  0  0  0  0  0  0  0  0  0  0  0
  144.6697  145.5722  152.9902 H   0  0  0  0  0  0  0  0  0  0  0  0
  1  2  1  0  0  0  0
  1 20  1  0  0  0  0
  1 21  1  0  0  0  0
  1 22  1  0  0  0  0
  2  3  1  0  0  0  0
  2 23  1  0  0  0  0
  2 24  1  0  0  0  0
  3 18  2  0  0  0  0
  3  4  1  0  0  0  0
  4  5  2  0  0  0  0
  5  6  1  0  0  0  0
  5 17  1  0  0  0  0
  6  7  1  0  0  0  0
  6 25  1  0  0  0  0
  6 26  1  0  0  0  0
  7  8  1  0  0  0  0
  7 27  1  0  0  0  0
  7 28  1  0  0  0  0
  8  9  1  0  0  0  0
  8 29  1  0  0  0  0
  9 10  2  0  0  0  0
  9 11  1  0  0  0  0
 11 16  1  0  0  0  0
 11 12  1  0  0  0  0
 11 30  1  0  0  0  0
 12 13  1  0  0  0  0
 12 31  1  0  0  0  0
 12 32  1  0  0  0  0
 13 14  1  0  0  0  0
 13 33  1  0  0  0  0
 13 34  1  0  0  0  0
 14 15  1  0  0  0  0
 14 35  1  0  0  0  0
 14 36  1  0  0  0  0
 15 16  1  0  0  0  0
 15 37  1  0  0  0  0
 15 38  1  0  0  0  0
 16 39  1  0  0  0  0
 16 40  1  0  0  0  0
 17 18  1  0  0  0  0
 18 19  1  0  0  0  0
 19 41  1  0  0  0  0
 19 42  1  0  0  0  0
 19 43  1  0  0  0  0
M  END
> <s_m_source_file>
AV-unprocessed.smi

> <i_m_source_file_index>
1003

> <i_lp_mmshare_version>
43012

> <i_f3d_flags>
0

> <s_epik_input>
W0NIM11bQ0gyXWMxbmMoc2MxW0NIM10pW0NIMl1bQ0gyXVtOSF1DKD1PKVtDSF0yW0NIMl1bQ0gyXVtDSDJdW0NIMl1bQ0gyXTI=

> <s_epik_cmdline>
J2VwaWtfcHl0aG9uJywgJy1waCcsICc3LjAnLCAnLXRuJywgJzgnLCAnLW1hJywgJzIwMCcsICctbWV0YWxfYmluZGluZycsICctaW1hZScsICc8aW5maWxlLm1hZT4nLCAnLW9tYWUnLCAnPG91dGZpbGUubWFlPic=

> <r_epik_Ionization_Penalty>
0.00242092

> <r_epik_Ionization_Penalty_Charging>
0

> <r_epik_Ionization_Penalty_Neutral>
0.00242092

> <r_epik_State_Penalty>
0.00167523

> <r_epik_Charging_Adjusted_Penalty>
0.00167523

> <i_epik_Tot_Q>
0

> <i_epik_Tot_abs_Q>
0

> <r_epik_Metal_State_Penalty>
-0

> <b_epik_Metal_Only>
0

> <s_lp_Force_Field>
OPLS_2005

> <r_lp_Energy>
0.647585

> <b_lp_Chiralities_Consistent>
1

> <s_lp_Variant>
AV-unprocessed.smi:1003-1

> <Gold.Version>
5.8.1

> <Gold.Id.Protein>
6NUR|6NUR_protein|mol2

> <Gold.PLP.Fitness>
45.3074

> <Gold.PLP.PLP>
-42.9587

> <Gold.PLP.part.hbond>
-1.0000

> <Gold.PLP.part.metal>
0.0000

> <Gold.PLP.part.buried>
-4.7991

> <Gold.PLP.part.nonpolar>
-36.9033

> <Gold.PLP.part.repulsive>
0.3035

> <Gold.PLP.ligand.clash>
0.0000

> <Gold.PLP.ligand.torsion>
0.2903

> <Gold.PLP.Chemscore.Hbond>
0.9600

> <Gold.PLP.Chemscore.CHOScore>
0.0000

> <Gold.PLP.Chemscore.Metal>
0.0000

> <Gold.Chemscore.Hbonds>
donor molecule, donor type, donor heavy atom, donor atom, acceptor molecule, acceptor atom, score
      L1  H     8    29       P1  8028  1.00

> <Gold.PLP.Chemscore.Internal.Correction>
0.0493

> <Gold.Rescore>
     Score         DG    S(hbond)    S(metal)    S(lipo)     H(rot)  DE(clash)    DE(int)     intcor
     18.08     -18.67       0.98        0.00     115.36       1.40       0.34       0.24       ----

> <Gold.Chemscore.Fitness>
18.0848

> <Gold.Chemscore.DG>
-18.6711

> <Gold.Chemscore.ZeroCoef>
-5.4800

> <Gold.Chemscore.Hbond>
0.9807

> <Gold.Chemscore.Metal>
0.0000

> <Gold.Chemscore.Lipo>
115.3562

> <Gold.Chemscore.Internal_Hbond>
0.0000

> <Gold.Chemscore.DEClash>
0.3419

> <Gold.Chemscore.DEInternal>
0.2444

> <Gold.Chemscore.Rot>
1.3988

> <Gold.Chemscore.Internal.Correction>
   9.000000E+99

> <Gold.Chemscore.Hbonds>
donor molecule, donor type, donor heavy atom, donor atom, acceptor molecule, acceptor atom, score
      L1  H     8    29       P1  8028  0.94

> <Gold.Chemscore.Hbond.Weighted>
-3.2754

> <Gold.Chemscore.Metal.Weighted>
-0.0000

> <Gold.Chemscore.Lipo.Weighted>
-13.4967

> <Gold.Chemscore.Internal_Hbond.Weighted>
0.0000

> <Gold.Chemscore.DEClash.Weighted>
0.3419

> <Gold.Chemscore.DEInternal.Weighted>
0.2444

> <Gold.Chemscore.Rot.Weighted>
3.5810

> <Gold.Chemscore.Internal.Correction.Weighted>
   9.000000E+99

> <Gold.Protein.RotatedTorsions>
[ 6907 6896 6895 6894 ] final   75.85 input  -60.11 | X-H torsion
[ 7974 7965 7964 7962 ] final -135.84 input  175.53 | X-H torsion
[ 8008 7997 7996 7995 ] final -134.42 input   59.86 | X-H torsion
[ 10167 10162 10161 10158 ] final   97.84 input  -65.29 | X-H torsion
[ 10718 10713 10712 10709 ] final   62.62 input   66.30 | X-H torsion
[ 10763 10752 10751 10750 ] final   21.20 input  -60.55 | X-H torsion
[ 11005 11000 10999 10996 ] final   -9.06 input  -57.11 | X-H torsion

> <Gold.Protein.ActiveResidues>
 VAL166  LYS551  ARG553  GLY616  TRP617  ASP618  TYR619  PRO620  LYS621  CYS622 
 ASP623  PHE694  ASN695  SER759  ASP760  ASP761  ALA762  ILE779  LEU786  VAL792 
 PHE793  MET794  SER795  GLU796  ALA797  LYS798  CYS799  TRP800  GLU811  SER814 

> <Gold.Protein.RotatedAtoms>
  152.5046  134.4057  159.9431 H   0  0  0  0  0  0  0  0  0  0  0  0  # atno 6907 bound_to 6896
  151.4023  133.3747  159.2741 H   0  0  0  0  0  0  0  0  0  0  0  0  # atno 6908 bound_to 6896
  150.9352  134.8786  159.7636 H   0  0  0  0  0  0  0  0  0  0  0  0  # atno 6909 bound_to 6896
  144.8978  140.6731  143.5104 H   0  0  0  0  0  0  0  0  0  0  0  0  # atno 7974 bound_to 7965
  155.3617  140.0483  157.3046 H   0  0  0  0  0  0  0  0  0  0  0  0  # atno 8008 bound_to 7997
  154.5174  140.2213  155.9002 H   0  0  0  0  0  0  0  0  0  0  0  0  # atno 8009 bound_to 7997
  156.1652  140.3108  155.8882 H   0  0  0  0  0  0  0  0  0  0  0  0  # atno 8010 bound_to 7997
  139.7764  144.6904  151.0084 H   0  0  0  0  0  0  0  0  0  0  0  0  # atno 10167 bound_to 10162
  157.5914  130.9060  149.9611 H   0  0  0  0  0  0  0  0  0  0  0  0  # atno 10718 bound_to 10713
  153.1015  135.6674  153.9664 H   0  0  0  0  0  0  0  0  0  0  0  0  # atno 10763 bound_to 10752
  153.9234  135.3012  155.3448 H   0  0  0  0  0  0  0  0  0  0  0  0  # atno 10764 bound_to 10752
  154.7436  135.5068  153.9240 H   0  0  0  0  0  0  0  0  0  0  0  0  # atno 10765 bound_to 10752
  140.7301  133.8756  155.8886 H   0  0  0  0  0  0  0  0  0  0  0  0  # atno 11005 bound_to 11000
  145.3669  139.1668  143.4353 LP  0  0  0  0  0  0  0  0  0  0  0  0  # atno 17320 bound_to 7965
  146.3091  140.3736  142.8676 LP  0  0  0  0  0  0  0  0  0  0  0  0  # atno 17321 bound_to 7965
  140.7816  143.4531  151.0384 LP  0  0  0  0  0  0  0  0  0  0  0  0  # atno 17342 bound_to 10162
  139.8214  143.7815  152.3177 LP  0  0  0  0  0  0  0  0  0  0  0  0  # atno 17343 bound_to 10162
  156.0969  130.3658  150.0290 LP  0  0  0  0  0  0  0  0  0  0  0  0  # atno 17370 bound_to 10713
  156.8412  130.9426  151.3632 LP  0  0  0  0  0  0  0  0  0  0  0  0  # atno 17371 bound_to 10713
  140.9928  134.1255  157.4392 LP  0  0  0  0  0  0  0  0  0  0  0  0  # atno 17394 bound_to 11000
  139.8828  135.0045  156.6256 LP  0  0  0  0  0  0  0  0  0  0  0  0  # atno 17395 bound_to 11000

$$$$
