AV-unprocessed.smi:2790|AV-procd|sdf|10767|dock4
  -GOLD-   2272015203D 1   1.00000     0.00000
 Structure written by MMmdl.
 47 48  0  0  0  0  0  0  0  0  3 V2000
  147.2011  134.9330  153.7274 C   0  0  0  0  0  0  0  0  0  0  0  0
  148.6082  134.5619  153.4483 N   0  3  0  0  0  0  0  0  0  0  0  0
  148.6972  133.4225  152.5092 C   0  0  0  0  0  0  0  0  0  0  0  0
  149.4083  134.3401  154.6804 C   0  0  0  0  0  0  0  0  0  0  0  0
  150.0561  135.6206  155.2169 C   0  0  0  0  0  0  0  0  0  0  0  0
  151.2792  135.6997  155.3342 O   0  0  0  0  0  0  0  0  0  0  0  0
  149.2161  136.6129  155.5486 N   0  0  0  0  0  0  0  0  0  0  0  0
  149.6080  137.9182  156.0810 C   0  0  0  0  0  0  0  0  0  0  0  0
  149.9280  138.9661  154.9719 C   0  0  0  0  0  0  0  0  0  0  0  0
  148.6018  139.4176  154.3171 C   0  0  0  0  0  0  0  0  0  0  0  0
  148.2317  140.7865  154.3490 C   0  0  0  0  0  0  0  0  0  0  0  0
  147.0258  141.2087  153.7544 C   0  0  0  0  0  0  0  0  0  0  0  0
  146.2189  140.3069  153.1595 N   0  3  0  0  0  0  0  0  0  0  0  0
  146.5132  138.9915  153.1083 C   0  0  0  0  0  0  0  0  0  0  0  0
  147.7061  138.5126  153.6872 C   0  0  0  0  0  0  0  0  0  0  0  0
  150.6195  140.2098  155.6049 C   0  0  0  0  0  0  0  0  0  0  0  0
  152.0350  139.9423  156.1500 C   0  0  0  0  0  0  0  0  0  0  0  0
  152.9505  139.3520  155.0723 C   0  0  0  0  0  0  0  0  0  0  0  0
  152.3307  138.0896  154.4643 C   0  0  0  0  0  0  0  0  0  0  0  0
  150.9184  138.3720  153.9204 C   0  0  0  0  0  0  0  0  0  0  0  0
  146.6768  134.1227  154.2355 H   0  0  0  0  0  0  0  0  0  0  0  0
  146.6717  135.1515  152.7992 H   0  0  0  0  0  0  0  0  0  0  0  0
  147.1418  135.8227  154.3549 H   0  0  0  0  0  0  0  0  0  0  0  0
  148.2885  132.5148  152.9556 H   0  0  0  0  0  0  0  0  0  0  0  0
  149.7341  133.2309  152.2310 H   0  0  0  0  0  0  0  0  0  0  0  0
  148.1446  133.6329  151.5930 H   0  0  0  0  0  0  0  0  0  0  0  0
  148.7891  133.8743  155.4493 H   0  0  0  0  0  0  0  0  0  0  0  0
  150.2212  133.6441  154.4678 H   0  0  0  0  0  0  0  0  0  0  0  0
  148.2260  136.4520  155.4318 H   0  0  0  0  0  0  0  0  0  0  0  0
  148.7718  138.2678  156.6870 H   0  0  0  0  0  0  0  0  0  0  0  0
  150.4328  137.8105  156.7848 H   0  0  0  0  0  0  0  0  0  0  0  0
  148.8629  141.5207  154.8266 H   0  0  0  0  0  0  0  0  0  0  0  0
  146.6855  142.2340  153.7380 H   0  0  0  0  0  0  0  0  0  0  0  0
  145.7898  138.3640  152.6085 H   0  0  0  0  0  0  0  0  0  0  0  0
  147.9040  137.4537  153.6304 H   0  0  0  0  0  0  0  0  0  0  0  0
  150.6900  140.9974  154.8529 H   0  0  0  0  0  0  0  0  0  0  0  0
  150.0153  140.6232  156.4122 H   0  0  0  0  0  0  0  0  0  0  0  0
  152.4648  140.8724  156.5233 H   0  0  0  0  0  0  0  0  0  0  0  0
  151.9895  139.2687  157.0057 H   0  0  0  0  0  0  0  0  0  0  0  0
  153.1171  140.0921  154.2885 H   0  0  0  0  0  0  0  0  0  0  0  0
  153.9288  139.1230  155.4957 H   0  0  0  0  0  0  0  0  0  0  0  0
  152.9668  137.7243  153.6575 H   0  0  0  0  0  0  0  0  0  0  0  0
  152.3045  137.2935  155.2076 H   0  0  0  0  0  0  0  0  0  0  0  0
  150.5203  137.4581  153.4794 H   0  0  0  0  0  0  0  0  0  0  0  0
  151.0355  139.0798  153.0983 H   0  0  0  0  0  0  0  0  0  0  0  0
  149.0301  135.3497  152.9762 H   0  0  0  0  0  0  0  0  0  0  0  0
  145.3511  140.6325  152.7324 H   0  0  0  0  0  0  0  0  0  0  0  0
  1  2  1  0  0  0  0
  1 21  1  0  0  0  0
  1 22  1  0  0  0  0
  1 23  1  0  0  0  0
  2  3  1  0  0  0  0
  2  4  1  0  0  0  0
  2 46  1  0  0  0  0
  3 24  1  0  0  0  0
  3 25  1  0  0  0  0
  3 26  1  0  0  0  0
  4  5  1  0  0  0  0
  4 27  1  0  0  0  0
  4 28  1  0  0  0  0
  5  6  2  0  0  0  0
  5  7  1  0  0  0  0
  7  8  1  0  0  0  0
  7 29  1  0  0  0  0
  8  9  1  0  0  0  0
  8 30  1  0  0  0  0
  8 31  1  0  0  0  0
  9 20  1  0  0  0  0
  9 10  1  0  0  0  0
  9 16  1  0  0  0  0
 10 15  1  0  0  0  0
 10 11  2  0  0  0  0
 11 12  1  0  0  0  0
 11 32  1  0  0  0  0
 12 13  2  0  0  0  0
 12 33  1  0  0  0  0
 13 14  1  0  0  0  0
 13 47  1  0  0  0  0
 14 15  2  0  0  0  0
 14 34  1  0  0  0  0
 15 35  1  0  0  0  0
 16 17  1  0  0  0  0
 16 36  1  0  0  0  0
 16 37  1  0  0  0  0
 17 18  1  0  0  0  0
 17 38  1  0  0  0  0
 17 39  1  0  0  0  0
 18 19  1  0  0  0  0
 18 40  1  0  0  0  0
 18 41  1  0  0  0  0
 19 20  1  0  0  0  0
 19 42  1  0  0  0  0
 19 43  1  0  0  0  0
 20 44  1  0  0  0  0
 20 45  1  0  0  0  0
M  CHG  1   2   1
M  CHG  1  13   1
M  END
> <s_m_source_file>
AV-unprocessed.smi

> <i_m_source_file_index>
2790

> <i_lp_mmshare_version>
43012

> <i_f3d_flags>
0

> <s_epik_input>
W0NIM11OKFtDSDNdKVtDSDJdQyg9TylbTkhdW0NIMl1DMShbQ0gyXVtDSDJdW0NIMl1bQ0gyXVtDSDJdMSljMltjSF1bY0hdbltjSF1bY0hdMg==

> <s_epik_cmdline>
J2VwaWtfcHl0aG9uJywgJy1waCcsICc3LjAnLCAnLXRuJywgJzgnLCAnLW1hJywgJzIwMCcsICctbWV0YWxfYmluZGluZycsICctaW1hZScsICc8aW5maWxlLm1hZT4nLCAnLW9tYWUnLCAnPG91dGZpbGUubWFlPic=

> <r_epik_Ionization_Penalty>
1.49613

> <r_epik_Ionization_Penalty_Charging>
1.4961

> <r_epik_Ionization_Penalty_Neutral>
2.84587e-05

> <r_epik_State_Penalty>
1.54102

> <r_epik_Charging_Adjusted_Penalty>
3.03712

> <i_epik_Tot_Q>
2

> <i_epik_Tot_abs_Q>
2

> <r_epik_Metal_State_Penalty>
1.62888

> <b_epik_Metal_Only>
0

> <s_lp_Force_Field>
OPLS_2005

> <r_lp_Energy>
33.1663

> <b_lp_Chiralities_Consistent>
1

> <s_lp_Variant>
AV-unprocessed.smi:2790-2

> <Gold.Version>
5.8.1

> <Gold.Id.Protein>
6NUR|6NUR_protein|mol2

> <Gold.PLP.Fitness>
45.6216

> <Gold.PLP.PLP>
-32.0094

> <Gold.PLP.part.hbond>
-3.0000

> <Gold.PLP.part.metal>
0.0000

> <Gold.PLP.part.buried>
1.1529

> <Gold.PLP.part.nonpolar>
-30.4465

> <Gold.PLP.part.repulsive>
0.0704

> <Gold.PLP.ligand.clash>
0.0000

> <Gold.PLP.ligand.torsion>
0.7165

> <Gold.PLP.Chemscore.Hbond>
5.0000

> <Gold.PLP.Chemscore.CHOScore>
0.0000

> <Gold.PLP.Chemscore.Metal>
0.0000

> <Gold.Chemscore.Hbonds>
donor molecule, donor type, donor heavy atom, donor atom, acceptor molecule, acceptor atom, score
      L1  H     2    46       P1  7948  1.18
      L1  H    13    47       P1 10175  2.00
      P1  H 10752 10764       L1     6  1.00

> <Gold.PLP.Chemscore.Internal.Correction>
0.0453

> <Gold.Rescore>
     Score         DG    S(hbond)    S(metal)    S(lipo)     H(rot)  DE(clash)    DE(int)     intcor
     19.23     -21.03       2.86        0.00      89.27       1.73       0.82       0.98       ----

> <Gold.Chemscore.Fitness>
19.2258

> <Gold.Chemscore.DG>
-21.0321

> <Gold.Chemscore.ZeroCoef>
-5.4800

> <Gold.Chemscore.Hbond>
2.8581

> <Gold.Chemscore.Metal>
0.0000

> <Gold.Chemscore.Lipo>
89.2718

> <Gold.Chemscore.Internal_Hbond>
0.0000

> <Gold.Chemscore.DEClash>
0.8229

> <Gold.Chemscore.DEInternal>
0.9835

> <Gold.Chemscore.Rot>
1.7339

> <Gold.Chemscore.Internal.Correction>
   9.000000E+99

> <Gold.Chemscore.Hbonds>
donor molecule, donor type, donor heavy atom, donor atom, acceptor molecule, acceptor atom, score
      L1  H     2    46       P1  7948  0.14
      L1  H    13    47       P1 10175  0.53
      P1  H 10752 10764       L1     6  1.00

> <Gold.Chemscore.Hbond.Weighted>
-9.5460

> <Gold.Chemscore.Metal.Weighted>
-0.0000

> <Gold.Chemscore.Lipo.Weighted>
-10.4448

> <Gold.Chemscore.Internal_Hbond.Weighted>
0.0000

> <Gold.Chemscore.DEClash.Weighted>
0.8229

> <Gold.Chemscore.DEInternal.Weighted>
0.9835

> <Gold.Chemscore.Rot.Weighted>
4.4387

> <Gold.Chemscore.Internal.Correction.Weighted>
   9.000000E+99

> <Gold.Protein.RotatedTorsions>
[ 6907 6896 6895 6894 ] final  -95.94 input  -60.11 | X-H torsion
[ 7974 7965 7964 7962 ] final   28.08 input  175.53 | X-H torsion
[ 8008 7997 7996 7995 ] final  -20.97 input   59.86 | X-H torsion
[ 10167 10162 10161 10158 ] final  115.19 input  -65.29 | X-H torsion
[ 10718 10713 10712 10709 ] final  -24.96 input   66.30 | X-H torsion
[ 10763 10752 10751 10750 ] final  -49.63 input  -60.55 | X-H torsion
[ 11005 11000 10999 10996 ] final  -24.73 input  -57.11 | X-H torsion

> <Gold.Protein.ActiveResidues>
 VAL166  LYS551  ARG553  GLY616  TRP617  ASP618  TYR619  PRO620  LYS621  CYS622 
 ASP623  PHE694  ASN695  SER759  ASP760  ASP761  ALA762  ILE779  LEU786  VAL792 
 PHE793  MET794  SER795  GLU796  ALA797  LYS798  CYS799  TRP800  GLU811  SER814 

> <Gold.Protein.RotatedAtoms>
  150.6976  134.1580  159.4165 H   0  0  0  0  0  0  0  0  0  0  0  0  # atno 6907 bound_to 6896
  151.9561  135.0143  160.0554 H   0  0  0  0  0  0  0  0  0  0  0  0  # atno 6908 bound_to 6896
  152.1968  133.4777  159.5074 H   0  0  0  0  0  0  0  0  0  0  0  0  # atno 6909 bound_to 6896
  146.1749  139.7105  142.8941 H   0  0  0  0  0  0  0  0  0  0  0  0  # atno 7974 bound_to 7965
  154.4735  140.2047  155.9935 H   0  0  0  0  0  0  0  0  0  0  0  0  # atno 8008 bound_to 7997
  156.1051  140.3238  155.7965 H   0  0  0  0  0  0  0  0  0  0  0  0  # atno 8009 bound_to 7997
  155.4731  140.0533  157.2968 H   0  0  0  0  0  0  0  0  0  0  0  0  # atno 8010 bound_to 7997
  139.6335  144.7117  151.2383 H   0  0  0  0  0  0  0  0  0  0  0  0  # atno 10167 bound_to 10162
  156.4707  130.4524  149.6871 H   0  0  0  0  0  0  0  0  0  0  0  0  # atno 10718 bound_to 10713
  154.0972  135.6568  153.4862 H   0  0  0  0  0  0  0  0  0  0  0  0  # atno 10763 bound_to 10752
  153.0301  135.5216  154.7322 H   0  0  0  0  0  0  0  0  0  0  0  0  # atno 10764 bound_to 10752
  154.6463  135.2995  155.0010 H   0  0  0  0  0  0  0  0  0  0  0  0  # atno 10765 bound_to 10752
  140.8872  133.7613  156.0375 H   0  0  0  0  0  0  0  0  0  0  0  0  # atno 11005 bound_to 11000
  145.4239  141.0409  143.2948 LP  0  0  0  0  0  0  0  0  0  0  0  0  # atno 17320 bound_to 7965
  144.8220  139.5775  143.6982 LP  0  0  0  0  0  0  0  0  0  0  0  0  # atno 17321 bound_to 7965
  140.7452  143.6438  150.8310 LP  0  0  0  0  0  0  0  0  0  0  0  0  # atno 17342 bound_to 10162
  140.0066  143.5687  152.2855 LP  0  0  0  0  0  0  0  0  0  0  0  0  # atno 17343 bound_to 10162
  156.3621  130.7487  151.2460 LP  0  0  0  0  0  0  0  0  0  0  0  0  # atno 17370 bound_to 10713
  157.7491  131.0347  150.4330 LP  0  0  0  0  0  0  0  0  0  0  0  0  # atno 17371 bound_to 10713
  140.8390  134.3089  157.5320 LP  0  0  0  0  0  0  0  0  0  0  0  0  # atno 17394 bound_to 11000
  139.8725  134.9406  156.3773 LP  0  0  0  0  0  0  0  0  0  0  0  0  # atno 17395 bound_to 11000

$$$$
