AV-unprocessed.smi:776|AV-procd|sdf|3699|dock9
  -GOLD-   22720 1123D 1   1.00000     0.00000
 Structure written by MMmdl.
 44 45  0  0  0  0  0  0  0  0  1 V2000
  150.3763  135.7454  154.5797 C   0  0  0  0  0  0  0  0  0  0  0  0
  151.2317  136.6219  155.5070 C   0  0  0  0  0  0  0  0  0  0  0  0
  150.9563  136.3688  156.9970 C   0  0  0  0  0  0  0  0  0  0  0  0
  151.1265  138.0754  155.1584 C   0  0  0  0  0  0  0  0  0  0  0  0
  152.1558  138.7471  154.6526 N   0  0  0  0  0  0  0  0  0  0  0  0
  151.6458  140.0415  154.4778 O   0  0  0  0  0  0  0  0  0  0  0  0
  150.3543  139.9867  154.8823 C   0  0  0  0  0  0  0  0  0  0  0  0
  149.5389  141.2357  154.8601 C   0  0  0  0  0  0  0  0  0  0  0  0
  149.1544  141.7095  156.2709 C   0  0  0  0  0  0  0  0  0  0  0  0
  150.1850  142.5621  156.8523 N   0  0  0  0  0  0  0  0  0  0  0  0
  150.9762  142.2289  157.8863 C   0  0  0  0  0  0  0  0  0  0  0  0
  150.9297  141.1187  158.4160 O   0  0  0  0  0  0  0  0  0  0  0  0
  151.8928  143.1810  158.1962 N   0  0  0  0  0  0  0  0  0  0  0  0
  151.5912  144.6129  158.0125 C   0  0  0  0  0  0  0  0  0  0  0  0
  151.0223  145.1801  159.3280 C   0  0  0  0  0  0  0  0  0  0  0  0
  151.9938  144.9466  160.5002 C   0  0  0  0  0  0  0  0  0  0  0  0
  152.4727  143.4838  160.5661 C   0  0  0  0  0  0  0  0  0  0  0  0
  152.9792  143.0117  159.1872 C   0  0  1  0  0  0  0  0  0  0  0  0
  153.6143  141.6061  159.2410 C   0  0  0  0  0  0  0  0  0  0  0  0
  149.9811  138.7915  155.3318 N   0  0  0  0  0  0  0  0  0  0  0  0
  150.6475  135.8985  153.5346 H   0  0  0  0  0  0  0  0  0  0  0  0
  149.3149  135.9717  154.6852 H   0  0  0  0  0  0  0  0  0  0  0  0
  150.5130  134.6874  154.8047 H   0  0  0  0  0  0  0  0  0  0  0  0
  152.2681  136.3285  155.3332 H   0  0  0  0  0  0  0  0  0  0  0  0
  151.6368  136.9450  157.6245 H   0  0  0  0  0  0  0  0  0  0  0  0
  151.0892  135.3158  157.2468 H   0  0  0  0  0  0  0  0  0  0  0  0
  149.9371  136.6474  157.2666 H   0  0  0  0  0  0  0  0  0  0  0  0
  150.1058  142.0116  154.3445 H   0  0  0  0  0  0  0  0  0  0  0  0
  148.6450  141.0528  154.2624 H   0  0  0  0  0  0  0  0  0  0  0  0
  148.1993  142.2371  156.2508 H   0  0  0  0  0  0  0  0  0  0  0  0
  149.0205  140.8490  156.9269 H   0  0  0  0  0  0  0  0  0  0  0  0
  150.3128  143.4726  156.4355 H   0  0  0  0  0  0  0  0  0  0  0  0
  152.5014  145.1472  157.7363 H   0  0  0  0  0  0  0  0  0  0  0  0
  150.8883  144.8062  157.2016 H   0  0  0  0  0  0  0  0  0  0  0  0
  150.8180  146.2457  159.2205 H   0  0  0  0  0  0  0  0  0  0  0  0
  150.0658  144.7032  159.5468 H   0  0  0  0  0  0  0  0  0  0  0  0
  152.8602  145.5975  160.3767 H   0  0  0  0  0  0  0  0  0  0  0  0
  151.5259  145.2339  161.4421 H   0  0  0  0  0  0  0  0  0  0  0  0
  153.2624  143.3913  161.3123 H   0  0  0  0  0  0  0  0  0  0  0  0
  151.6553  142.8432  160.8994 H   0  0  0  0  0  0  0  0  0  0  0  0
  153.7892  143.6777  158.8850 H   0  0  0  0  0  0  0  0  0  0  0  0
  154.5330  141.6267  159.8275 H   0  0  0  0  0  0  0  0  0  0  0  0
  153.8739  141.2497  158.2436 H   0  0  0  0  0  0  0  0  0  0  0  0
  152.9623  140.8690  159.7089 H   0  0  0  0  0  0  0  0  0  0  0  0
  1  2  1  0  0  0  0
  1 21  1  0  0  0  0
  1 22  1  0  0  0  0
  1 23  1  0  0  0  0
  2  3  1  0  0  0  0
  2  4  1  0  0  0  0
  2 24  1  0  0  0  0
  3 25  1  0  0  0  0
  3 26  1  0  0  0  0
  3 27  1  0  0  0  0
  4 20  1  0  0  0  0
  4  5  2  0  0  0  0
  5  6  1  0  0  0  0
  6  7  1  0  0  0  0
  7  8  1  0  0  0  0
  7 20  2  0  0  0  0
  8  9  1  0  0  0  0
  8 28  1  0  0  0  0
  8 29  1  0  0  0  0
  9 10  1  0  0  0  0
  9 30  1  0  0  0  0
  9 31  1  0  0  0  0
 10 11  1  0  0  0  0
 10 32  1  0  0  0  0
 11 12  2  0  0  0  0
 11 13  1  0  0  0  0
 13 18  1  0  0  0  0
 13 14  1  0  0  0  0
 14 15  1  0  0  0  0
 14 33  1  0  0  0  0
 14 34  1  0  0  0  0
 15 16  1  0  0  0  0
 15 35  1  0  0  0  0
 15 36  1  0  0  0  0
 16 17  1  0  0  0  0
 16 37  1  0  0  0  0
 16 38  1  0  0  0  0
 17 18  1  0  0  0  0
 17 39  1  0  0  0  0
 17 40  1  0  0  0  0
 18 19  1  0  0  0  0
 18 41  1  0  0  0  0
 19 42  1  0  0  0  0
 19 43  1  0  0  0  0
 19 44  1  0  0  0  0
M  END
> <s_m_source_file>
AV-unprocessed.smi

> <i_m_source_file_index>
776

> <i_lp_mmshare_version>
43012

> <i_f3d_flags>
0

> <s_epik_input>
W0NIM11bQ0hdKFtDSDNdKWMxbm9jKG4xKVtDSDJdW0NIMl1bTkhdQyg9TylOMltDSDJdW0NIMl1bQ0gyXVtDSDJdW0NASF0yW0NIM10=

> <s_epik_cmdline>
J2VwaWtfcHl0aG9uJywgJy1waCcsICc3LjAnLCAnLXRuJywgJzgnLCAnLW1hJywgJzIwMCcsICctbWV0YWxfYmluZGluZycsICctaW1hZScsICc8aW5maWxlLm1hZT4nLCAnLW9tYWUnLCAnPG91dGZpbGUubWFlPic=

> <r_lp_tautomer_probability>
1

> <r_epik_Ionization_Penalty>
6.23032e-05

> <r_epik_Ionization_Penalty_Charging>
0

> <r_epik_Ionization_Penalty_Neutral>
6.23032e-05

> <r_epik_State_Penalty>
-0

> <r_epik_Charging_Adjusted_Penalty>
0

> <i_epik_Tot_Q>
0

> <i_epik_Tot_abs_Q>
0

> <r_epik_Metal_State_Penalty>
-0

> <b_epik_Metal_Only>
0

> <s_lp_Force_Field>
OPLS_2005

> <r_lp_Energy>
26.0958

> <b_lp_Chiralities_Consistent>
1

> <s_lp_Variant>
AV-unprocessed.smi:776-1

> <Gold.Version>
5.8.1

> <Gold.Id.Protein>
6NUR|6NUR_protein|mol2

> <Gold.PLP.Fitness>
46.6181

> <Gold.PLP.PLP>
-42.9532

> <Gold.PLP.part.hbond>
-1.9744

> <Gold.PLP.part.metal>
0.0000

> <Gold.PLP.part.buried>
-5.0985

> <Gold.PLP.part.nonpolar>
-35.0548

> <Gold.PLP.part.repulsive>
0.1780

> <Gold.PLP.ligand.clash>
0.2157

> <Gold.PLP.ligand.torsion>
0.4839

> <Gold.PLP.Chemscore.Hbond>
1.4493

> <Gold.PLP.Chemscore.CHOScore>
0.0000

> <Gold.PLP.Chemscore.Metal>
0.0000

> <Gold.Chemscore.Hbonds>
donor molecule, donor type, donor heavy atom, donor atom, acceptor molecule, acceptor atom, score
      L1  H    10    32       P1  8028  0.56
      P1  H  7989  7998       L1     6  0.36

> <Gold.PLP.Chemscore.Internal.Correction>
0.5006

> <Gold.Rescore>
     Score         DG    S(hbond)    S(metal)    S(lipo)     H(rot)  DE(clash)    DE(int)     intcor
     16.81     -18.62       1.88        0.00      94.64       1.65       0.10       1.71       ----

> <Gold.Chemscore.Fitness>
16.8138

> <Gold.Chemscore.DG>
-18.6173

> <Gold.Chemscore.ZeroCoef>
-5.4800

> <Gold.Chemscore.Hbond>
1.8805

> <Gold.Chemscore.Metal>
0.0000

> <Gold.Chemscore.Lipo>
94.6408

> <Gold.Chemscore.Internal_Hbond>
0.0000

> <Gold.Chemscore.DEClash>
0.0953

> <Gold.Chemscore.DEInternal>
1.7082

> <Gold.Chemscore.Rot>
1.6470

> <Gold.Chemscore.Internal.Correction>
   9.000000E+99

> <Gold.Chemscore.Hbonds>
donor molecule, donor type, donor heavy atom, donor atom, acceptor molecule, acceptor atom, score
      L1  H    10    32       P1  8028  0.53
      P1  H  7989  7998       L1     6  0.19

> <Gold.Chemscore.Hbond.Weighted>
-6.2808

> <Gold.Chemscore.Metal.Weighted>
-0.0000

> <Gold.Chemscore.Lipo.Weighted>
-11.0730

> <Gold.Chemscore.Internal_Hbond.Weighted>
0.0000

> <Gold.Chemscore.DEClash.Weighted>
0.0953

> <Gold.Chemscore.DEInternal.Weighted>
1.7082

> <Gold.Chemscore.Rot.Weighted>
4.2164

> <Gold.Chemscore.Internal.Correction.Weighted>
   9.000000E+99

> <Gold.Protein.RotatedTorsions>
[ 6907 6896 6895 6894 ] final   22.29 input  -60.11 | X-H torsion
[ 7974 7965 7964 7962 ] final -162.78 input  175.53 | X-H torsion
[ 8008 7997 7996 7995 ] final  -61.40 input   59.86 | X-H torsion
[ 10167 10162 10161 10158 ] final   -6.60 input  -65.29 | X-H torsion
[ 10718 10713 10712 10709 ] final -129.26 input   66.30 | X-H torsion
[ 10763 10752 10751 10750 ] final -120.18 input  -60.55 | X-H torsion
[ 11005 11000 10999 10996 ] final  -63.12 input  -57.11 | X-H torsion

> <Gold.Protein.ActiveResidues>
 VAL166  LYS551  ARG553  GLY616  TRP617  ASP618  TYR619  PRO620  LYS621  CYS622 
 ASP623  PHE694  ASN695  SER759  ASP760  ASP761  ALA762  ILE779  LEU786  VAL792 
 PHE793  MET794  SER795  GLU796  ALA797  LYS798  CYS799  TRP800  GLU811  SER814 

> <Gold.Protein.RotatedAtoms>
  151.9248  135.0282  160.0524 H   0  0  0  0  0  0  0  0  0  0  0  0  # atno 6907 bound_to 6896
  152.2168  133.4948  159.5149 H   0  0  0  0  0  0  0  0  0  0  0  0  # atno 6908 bound_to 6896
  150.6990  134.1311  159.4113 H   0  0  0  0  0  0  0  0  0  0  0  0  # atno 6909 bound_to 6896
  144.7346  140.3202  143.6172 H   0  0  0  0  0  0  0  0  0  0  0  0  # atno 7974 bound_to 7965
  154.4446  140.1018  156.6425 H   0  0  0  0  0  0  0  0  0  0  0  0  # atno 8008 bound_to 7997
  155.5486  140.3485  155.4444 H   0  0  0  0  0  0  0  0  0  0  0  0  # atno 8009 bound_to 7997
  156.0546  140.1312  157.0001 H   0  0  0  0  0  0  0  0  0  0  0  0  # atno 8010 bound_to 7997
  140.7002  143.6175  150.8644 H   0  0  0  0  0  0  0  0  0  0  0  0  # atno 10167 bound_to 10162
  156.2029  130.6869  151.0561 H   0  0  0  0  0  0  0  0  0  0  0  0  # atno 10718 bound_to 10713
  154.8637  135.4212  154.2418 H   0  0  0  0  0  0  0  0  0  0  0  0  # atno 10763 bound_to 10752
  153.3382  135.6992  153.6895 H   0  0  0  0  0  0  0  0  0  0  0  0  # atno 10764 bound_to 10752
  153.5884  135.3559  155.2874 H   0  0  0  0  0  0  0  0  0  0  0  0  # atno 10765 bound_to 10752
  141.1383  133.6648  156.5632 H   0  0  0  0  0  0  0  0  0  0  0  0  # atno 11005 bound_to 11000
  145.7576  139.1814  143.2285 LP  0  0  0  0  0  0  0  0  0  0  0  0  # atno 17320 bound_to 7965
  146.1012  140.7542  142.9548 LP  0  0  0  0  0  0  0  0  0  0  0  0  # atno 17321 bound_to 7965
  139.9897  143.5861  152.2914 LP  0  0  0  0  0  0  0  0  0  0  0  0  # atno 17342 bound_to 10162
  139.6511  144.7660  151.2146 LP  0  0  0  0  0  0  0  0  0  0  0  0  # atno 17343 bound_to 10162
  157.6996  131.0781  150.6862 LP  0  0  0  0  0  0  0  0  0  0  0  0  # atno 17370 bound_to 10713
  156.6919  130.4598  149.5597 LP  0  0  0  0  0  0  0  0  0  0  0  0  # atno 17371 bound_to 10713
  140.3971  134.7389  157.4757 LP  0  0  0  0  0  0  0  0  0  0  0  0  # atno 17394 bound_to 11000
  140.0523  134.6113  155.8847 LP  0  0  0  0  0  0  0  0  0  0  0  0  # atno 17395 bound_to 11000

$$$$
