AV-unprocessed.smi:3348|AV-procd|sdf|12916|dock1
  -GOLD-   2272019333D 1   1.00000     0.00000
 Structure written by MMmdl.
 47 48  0  0  0  0  0  0  0  0  2 V2000
  143.9567  136.8011  152.1087 C   0  0  0  0  0  0  0  0  0  0  0  0
  145.2094  136.1527  151.4975 C   0  0  1  0  0  0  0  0  0  0  0  0
  144.8375  135.2944  150.2708 C   0  0  0  0  0  0  0  0  0  0  0  0
  144.8199  133.8698  150.5593 N   0  0  0  0  0  0  0  0  0  0  0  0
  143.7444  133.0063  150.5414 C   0  0  0  0  0  0  0  0  0  0  0  0
  144.2082  131.7713  150.8934 C   0  0  0  0  0  0  0  0  0  0  0  0
  145.5960  131.9837  151.1232 C   0  0  0  0  0  0  0  0  0  0  0  0
  145.9578  133.2413  150.9268 N   0  0  0  0  0  0  0  0  0  0  0  0
  146.2069  137.1792  151.1181 N   0  3  0  0  0  0  0  0  0  0  0  0
  146.2171  138.3923  151.9615 C   0  0  0  0  0  0  0  0  0  0  0  0
  146.3525  138.0238  153.4419 C   0  0  0  0  0  0  0  0  0  0  0  0
  146.7203  139.1894  154.1650 O   0  0  0  0  0  0  0  0  0  0  0  0
  148.0767  139.5875  154.0011 C   0  0  2  0  0  0  0  0  0  0  0  0
  149.0185  138.4977  154.5581 C   0  0  0  0  0  0  0  0  0  0  0  0
  150.4864  138.9477  154.5225 C   0  0  0  0  0  0  0  0  0  0  0  0
  150.6763  140.2704  155.2770 C   0  0  0  0  0  0  0  0  0  0  0  0
  149.7483  141.3599  154.7194 C   0  0  0  0  0  0  0  0  0  0  0  0
  148.2695  140.9242  154.7534 C   0  0  1  0  0  0  0  0  0  0  0  0
  147.3650  142.0328  154.1901 C   0  0  0  0  0  0  0  0  0  0  0  0
  143.2117  136.0463  152.3613 H   0  0  0  0  0  0  0  0  0  0  0  0
  143.4939  137.5031  151.4143 H   0  0  0  0  0  0  0  0  0  0  0  0
  144.1881  137.3424  153.0259 H   0  0  0  0  0  0  0  0  0  0  0  0
  145.6553  135.4982  152.2480 H   0  0  0  0  0  0  0  0  0  0  0  0
  143.8496  135.5736  149.9014 H   0  0  0  0  0  0  0  0  0  0  0  0
  145.5378  135.4748  149.4538 H   0  0  0  0  0  0  0  0  0  0  0  0
  142.7498  133.3374  150.2807 H   0  0  0  0  0  0  0  0  0  0  0  0
  143.6415  130.8560  150.9790 H   0  0  0  0  0  0  0  0  0  0  0  0
  146.3454  131.2673  151.4261 H   0  0  0  0  0  0  0  0  0  0  0  0
  147.1205  136.7555  151.1962 H   0  0  0  0  0  0  0  0  0  0  0  0
  147.0278  139.0587  151.6666 H   0  0  0  0  0  0  0  0  0  0  0  0
  145.2824  138.9336  151.8097 H   0  0  0  0  0  0  0  0  0  0  0  0
  145.4010  137.6380  153.8073 H   0  0  0  0  0  0  0  0  0  0  0  0
  147.0962  137.2352  153.5676 H   0  0  0  0  0  0  0  0  0  0  0  0
  148.2934  139.7535  152.9439 H   0  0  0  0  0  0  0  0  0  0  0  0
  148.7370  138.2609  155.5850 H   0  0  0  0  0  0  0  0  0  0  0  0
  148.9188  137.5734  153.9901 H   0  0  0  0  0  0  0  0  0  0  0  0
  151.1232  138.1765  154.9571 H   0  0  0  0  0  0  0  0  0  0  0  0
  150.8073  139.0675  153.4869 H   0  0  0  0  0  0  0  0  0  0  0  0
  150.4704  140.1208  156.3377 H   0  0  0  0  0  0  0  0  0  0  0  0
  151.7154  140.5935  155.2058 H   0  0  0  0  0  0  0  0  0  0  0  0
  149.8809  142.2775  155.2939 H   0  0  0  0  0  0  0  0  0  0  0  0
  150.0404  141.5939  153.6947 H   0  0  0  0  0  0  0  0  0  0  0  0
  147.9920  140.7687  155.7973 H   0  0  0  0  0  0  0  0  0  0  0  0
  147.5809  142.2248  153.1388 H   0  0  0  0  0  0  0  0  0  0  0  0
  147.5066  142.9671  154.7343 H   0  0  0  0  0  0  0  0  0  0  0  0
  146.3109  141.7668  154.2712 H   0  0  0  0  0  0  0  0  0  0  0  0
  146.0584  137.4445  150.1548 H   0  0  0  0  0  0  0  0  0  0  0  0
  1  2  1  0  0  0  0
  1 20  1  0  0  0  0
  1 21  1  0  0  0  0
  1 22  1  0  0  0  0
  2  3  1  0  0  0  0
  2  9  1  0  0  0  0
  2 23  1  0  0  0  0
  3  4  1  0  0  0  0
  3 24  1  0  0  0  0
  3 25  1  0  0  0  0
  4  8  1  0  0  0  0
  4  5  1  0  0  0  0
  5  6  2  0  0  0  0
  5 26  1  0  0  0  0
  6  7  1  0  0  0  0
  6 27  1  0  0  0  0
  7  8  2  0  0  0  0
  7 28  1  0  0  0  0
  9 10  1  0  0  0  0
  9 29  1  0  0  0  0
  9 47  1  0  0  0  0
 10 11  1  0  0  0  0
 10 30  1  0  0  0  0
 10 31  1  0  0  0  0
 11 12  1  0  0  0  0
 11 32  1  0  0  0  0
 11 33  1  0  0  0  0
 12 13  1  0  0  0  0
 13 18  1  0  0  0  0
 13 14  1  0  0  0  0
 13 34  1  0  0  0  0
 14 15  1  0  0  0  0
 14 35  1  0  0  0  0
 14 36  1  0  0  0  0
 15 16  1  0  0  0  0
 15 37  1  0  0  0  0
 15 38  1  0  0  0  0
 16 17  1  0  0  0  0
 16 39  1  0  0  0  0
 16 40  1  0  0  0  0
 17 18  1  0  0  0  0
 17 41  1  0  0  0  0
 17 42  1  0  0  0  0
 18 19  1  0  0  0  0
 18 43  1  0  0  0  0
 19 44  1  0  0  0  0
 19 45  1  0  0  0  0
 19 46  1  0  0  0  0
M  CHG  1   9   1
M  END
> <s_m_source_file>
AV-unprocessed.smi

> <i_m_source_file_index>
3348

> <i_lp_mmshare_version>
43012

> <i_f3d_flags>
0

> <s_epik_input>
bjFbY0hdW2NIXVtjSF1uMVtDSDJdW0NAQEhdKFtDSDNdKVtOSF1bQ0gyXVtDSDJdT1tDQEBIXTJbQ0gyXVtDSDJdW0NIMl1bQ0gyXVtDQEhdMltDSDNd

> <s_epik_cmdline>
J2VwaWtfcHl0aG9uJywgJy1waCcsICc3LjAnLCAnLXRuJywgJzgnLCAnLW1hJywgJzIwMCcsICctbWV0YWxfYmluZGluZycsICctaW1hZScsICc8aW5maWxlLm1hZT4nLCAnLW9tYWUnLCAnPG91dGZpbGUubWFlPic=

> <r_lp_tautomer_probability>
1

> <r_epik_Ionization_Penalty>
0.00925088

> <r_epik_Ionization_Penalty_Charging>
0.00924645

> <r_epik_Ionization_Penalty_Neutral>
4.42413e-06

> <r_epik_State_Penalty>
0.0070118

> <r_epik_Charging_Adjusted_Penalty>
0.0162583

> <i_epik_Tot_Q>
1

> <i_epik_Tot_abs_Q>
1

> <r_epik_Metal_State_Penalty>
0.00701222

> <b_epik_Metal_Only>
0

> <s_lp_Force_Field>
OPLS_2005

> <r_lp_Energy>
16.0091

> <b_lp_Chiralities_Consistent>
1

> <s_lp_Variant>
AV-unprocessed.smi:3348-2

> <Gold.Version>
5.8.1

> <Gold.Id.Protein>
6NUR|6NUR_protein|mol2

> <Gold.PLP.Fitness>
49.5289

> <Gold.PLP.PLP>
-39.3582

> <Gold.PLP.part.hbond>
-1.9077

> <Gold.PLP.part.metal>
0.0000

> <Gold.PLP.part.buried>
-1.5335

> <Gold.PLP.part.nonpolar>
-36.3661

> <Gold.PLP.part.repulsive>
0.4059

> <Gold.PLP.ligand.clash>
0.0000

> <Gold.PLP.ligand.torsion>
1.0989

> <Gold.PLP.Chemscore.Hbond>
2.0203

> <Gold.PLP.Chemscore.CHOScore>
2.0000

> <Gold.PLP.Chemscore.Metal>
0.0000

> <Gold.Chemscore.Hbonds>
donor molecule, donor type, donor heavy atom, donor atom, acceptor molecule, acceptor atom, score
      L1  H     9    29       P1  7948  2.00
      L1  C     5    26       P1 10186  1.00
      L1  C     7    28       P1 10747  0.07

> <Gold.PLP.Chemscore.Internal.Correction>
0.3077

> <Gold.Rescore>
     Score         DG    S(hbond)    S(metal)    S(lipo)     H(rot)  DE(clash)    DE(int)     intcor
     13.76     -15.56       1.01        0.00      97.15       1.82       1.07       0.73       ----

> <Gold.Chemscore.Fitness>
13.7559

> <Gold.Chemscore.DG>
-15.5579

> <Gold.Chemscore.ZeroCoef>
-5.4800

> <Gold.Chemscore.Hbond>
1.0062

> <Gold.Chemscore.Metal>
0.0000

> <Gold.Chemscore.Lipo>
97.1535

> <Gold.Chemscore.Internal_Hbond>
0.0000

> <Gold.Chemscore.DEClash>
1.0707

> <Gold.Chemscore.DEInternal>
0.7313

> <Gold.Chemscore.Rot>
1.8163

> <Gold.Chemscore.Internal.Correction>
   9.000000E+99

> <Gold.Chemscore.Hbonds>
donor molecule, donor type, donor heavy atom, donor atom, acceptor molecule, acceptor atom, score
      L1  H     9    29       P1  7948  0.98
      L1  H     9    47       P1 10171  0.01

> <Gold.Chemscore.Hbond.Weighted>
-3.3607

> <Gold.Chemscore.Metal.Weighted>
-0.0000

> <Gold.Chemscore.Lipo.Weighted>
-11.3670

> <Gold.Chemscore.Internal_Hbond.Weighted>
0.0000

> <Gold.Chemscore.DEClash.Weighted>
1.0707

> <Gold.Chemscore.DEInternal.Weighted>
0.7313

> <Gold.Chemscore.Rot.Weighted>
4.6497

> <Gold.Chemscore.Internal.Correction.Weighted>
   9.000000E+99

> <Gold.Protein.RotatedTorsions>
[ 6907 6896 6895 6894 ] final -141.74 input  -60.11 | X-H torsion
[ 7974 7965 7964 7962 ] final    5.56 input  175.53 | X-H torsion
[ 8008 7997 7996 7995 ] final  -74.81 input   59.86 | X-H torsion
[ 10167 10162 10161 10158 ] final   63.06 input  -65.29 | X-H torsion
[ 10718 10713 10712 10709 ] final  104.01 input   66.30 | X-H torsion
[ 10763 10752 10751 10750 ] final    0.58 input  -60.55 | X-H torsion
[ 11005 11000 10999 10996 ] final  129.09 input  -57.11 | X-H torsion

> <Gold.Protein.ActiveResidues>
 VAL166  LYS551  ARG553  GLY616  TRP617  ASP618  TYR619  PRO620  LYS621  CYS622 
 ASP623  PHE694  ASN695  SER759  ASP760  ASP761  ALA762  ILE779  LEU786  VAL792 
 PHE793  MET794  SER795  GLU796  ALA797  LYS798  CYS799  TRP800  GLU811  SER814 

> <Gold.Protein.RotatedAtoms>
  151.0778  133.5414  159.2622 H   0  0  0  0  0  0  0  0  0  0  0  0  # atno 6907 bound_to 6896
  151.2329  135.0560  159.9004 H   0  0  0  0  0  0  0  0  0  0  0  0  # atno 6908 bound_to 6896
  152.5420  134.0564  159.8186 H   0  0  0  0  0  0  0  0  0  0  0  0  # atno 6909 bound_to 6896
  146.2440  140.0366  142.8385 H   0  0  0  0  0  0  0  0  0  0  0  0  # atno 7974 bound_to 7965
  154.5363  140.0755  156.8432 H   0  0  0  0  0  0  0  0  0  0  0  0  # atno 8008 bound_to 7997
  155.3272  140.3399  155.4222 H   0  0  0  0  0  0  0  0  0  0  0  0  # atno 8009 bound_to 7997
  156.1831  140.1659  156.8223 H   0  0  0  0  0  0  0  0  0  0  0  0  # atno 8010 bound_to 7997
  140.1371  144.4588  150.6832 H   0  0  0  0  0  0  0  0  0  0  0  0  # atno 10167 bound_to 10162
  157.6754  131.0793  150.5642 H   0  0  0  0  0  0  0  0  0  0  0  0  # atno 10718 bound_to 10713
  153.3189  135.6968  153.7049 H   0  0  0  0  0  0  0  0  0  0  0  0  # atno 10763 bound_to 10752
  153.5897  135.3482  155.2906 H   0  0  0  0  0  0  0  0  0  0  0  0  # atno 10764 bound_to 10752
  154.8593  135.4315  154.2347 H   0  0  0  0  0  0  0  0  0  0  0  0  # atno 10765 bound_to 10752
  139.9596  134.9605  156.9097 H   0  0  0  0  0  0  0  0  0  0  0  0  # atno 11005 bound_to 11000
  145.1107  140.9403  143.4658 LP  0  0  0  0  0  0  0  0  0  0  0  0  # atno 17320 bound_to 7965
  145.0579  139.3129  143.5895 LP  0  0  0  0  0  0  0  0  0  0  0  0  # atno 17321 bound_to 7965
  140.6783  143.2315  151.5451 LP  0  0  0  0  0  0  0  0  0  0  0  0  # atno 17342 bound_to 10162
  139.5490  144.2444  152.1496 LP  0  0  0  0  0  0  0  0  0  0  0  0  # atno 17343 bound_to 10162
  156.5944  130.4338  149.5923 LP  0  0  0  0  0  0  0  0  0  0  0  0  # atno 17370 bound_to 10713
  156.2557  130.6933  151.1685 LP  0  0  0  0  0  0  0  0  0  0  0  0  # atno 17371 bound_to 10713
  140.5530  134.0609  155.7375 LP  0  0  0  0  0  0  0  0  0  0  0  0  # atno 17394 bound_to 11000
  141.1272  133.9363  157.2611 LP  0  0  0  0  0  0  0  0  0  0  0  0  # atno 17395 bound_to 11000

$$$$
