AV-unprocessed.smi:824|AV-procd|sdf|3850|dock6
  -GOLD-   22720 1293D 1   1.00000     0.00000
 Structure written by MMmdl.
 51 52  0  0  0  0  0  0  0  0  2 V2000
  153.3255  137.9472  156.3318 C   0  0  0  0  0  0  0  0  0  0  0  0
  152.2712  139.0398  156.3121 C   0  0  0  0  0  0  0  0  0  0  0  0
  152.4924  140.1047  157.1973 N   0  0  0  0  0  0  0  0  0  0  0  0
  151.6424  141.0837  157.2672 C   0  0  0  0  0  0  0  0  0  0  0  0
  151.8054  142.1427  158.1617 N   0  0  0  0  0  0  0  0  0  0  0  0
  152.8214  142.0733  159.2138 C   0  0  0  0  0  0  0  0  0  0  0  0
  152.4998  143.0393  160.3658 C   0  0  0  0  0  0  0  0  0  0  0  0
  152.3527  144.3593  159.8592 O   0  0  0  0  0  0  0  0  0  0  0  0
  151.2820  144.4394  158.9281 C   0  0  0  0  0  0  0  0  0  0  0  0
  151.5680  143.5196  157.7296 C   0  0  0  0  0  0  0  0  0  0  0  0
  150.5157  141.1499  156.4642 N   0  5  0  0  0  0  0  0  0  0  0  0
  150.2433  140.1563  155.5727 C   0  0  0  0  0  0  0  0  0  0  0  0
  149.2610  140.1977  154.8330 O   0  0  0  0  0  0  0  0  0  0  0  0
  151.1671  139.0095  155.5111 C   0  0  0  0  0  0  0  0  0  0  0  0
  150.8463  137.8639  154.5447 C   0  0  0  0  0  0  0  0  0  0  0  0
  150.9800  136.4536  155.1659 C   0  0  0  0  0  0  0  0  0  0  0  0
  149.9043  136.1639  156.2296 C   0  0  0  0  0  0  0  0  0  0  0  0
  149.7093  137.0259  157.0876 O   0  0  0  0  0  0  0  0  0  0  0  0
  149.1918  135.0096  156.1945 N   0  0  0  0  0  0  0  0  0  0  0  0
  148.0457  134.7386  157.0676 C   0  0  0  0  0  0  0  0  0  0  0  0
  149.5290  133.9418  155.2387 C   0  0  0  0  0  0  0  0  0  0  0  0
  149.7841  132.5818  155.9310 C   0  0  0  0  0  0  0  0  0  0  0  0
  151.1268  132.5936  156.6758 C   0  0  0  0  0  0  0  0  0  0  0  0
  149.7231  131.3988  154.9493 C   0  0  0  0  0  0  0  0  0  0  0  0
  152.8903  136.9936  156.6254 H   0  0  0  0  0  0  0  0  0  0  0  0
  154.1207  138.1798  157.0410 H   0  0  0  0  0  0  0  0  0  0  0  0
  153.7805  137.8364  155.3476 H   0  0  0  0  0  0  0  0  0  0  0  0
  152.9133  141.0634  159.6142 H   0  0  0  0  0  0  0  0  0  0  0  0
  153.7895  142.3245  158.7784 H   0  0  0  0  0  0  0  0  0  0  0  0
  151.5919  142.7325  160.8876 H   0  0  0  0  0  0  0  0  0  0  0  0
  153.3064  143.0296  161.0988 H   0  0  0  0  0  0  0  0  0  0  0  0
  150.3420  144.1673  159.4110 H   0  0  0  0  0  0  0  0  0  0  0  0
  151.1802  145.4713  158.5924 H   0  0  0  0  0  0  0  0  0  0  0  0
  152.4437  143.8759  157.1855 H   0  0  0  0  0  0  0  0  0  0  0  0
  150.7243  143.5593  157.0391 H   0  0  0  0  0  0  0  0  0  0  0  0
  149.8305  137.9990  154.1716 H   0  0  0  0  0  0  0  0  0  0  0  0
  151.4775  137.9225  153.6591 H   0  0  0  0  0  0  0  0  0  0  0  0
  151.0103  135.7041  154.3783 H   0  0  0  0  0  0  0  0  0  0  0  0
  151.9509  136.3803  155.6566 H   0  0  0  0  0  0  0  0  0  0  0  0
  147.2657  135.4871  156.9234 H   0  0  0  0  0  0  0  0  0  0  0  0
  148.3452  134.7461  158.1149 H   0  0  0  0  0  0  0  0  0  0  0  0
  147.5949  133.7637  156.8831 H   0  0  0  0  0  0  0  0  0  0  0  0
  148.7459  133.8289  154.4881 H   0  0  0  0  0  0  0  0  0  0  0  0
  150.4123  134.2347  154.6680 H   0  0  0  0  0  0  0  0  0  0  0  0
  149.0057  132.4255  156.6787 H   0  0  0  0  0  0  0  0  0  0  0  0
  151.9611  132.7282  155.9870 H   0  0  0  0  0  0  0  0  0  0  0  0
  151.2861  131.6587  157.2135 H   0  0  0  0  0  0  0  0  0  0  0  0
  151.1639  133.4023  157.4063 H   0  0  0  0  0  0  0  0  0  0  0  0
  150.4793  131.4906  154.1692 H   0  0  0  0  0  0  0  0  0  0  0  0
  148.7514  131.3331  154.4616 H   0  0  0  0  0  0  0  0  0  0  0  0
  149.8870  130.4515  155.4638 H   0  0  0  0  0  0  0  0  0  0  0  0
  1  2  1  0  0  0  0
  1 25  1  0  0  0  0
  1 26  1  0  0  0  0
  1 27  1  0  0  0  0
  2 14  2  0  0  0  0
  2  3  1  0  0  0  0
  3  4  2  0  0  0  0
  4  5  1  0  0  0  0
  4 11  1  0  0  0  0
  5 10  1  0  0  0  0
  5  6  1  0  0  0  0
  6  7  1  0  0  0  0
  6 28  1  0  0  0  0
  6 29  1  0  0  0  0
  7  8  1  0  0  0  0
  7 30  1  0  0  0  0
  7 31  1  0  0  0  0
  8  9  1  0  0  0  0
  9 10  1  0  0  0  0
  9 32  1  0  0  0  0
  9 33  1  0  0  0  0
 10 34  1  0  0  0  0
 10 35  1  0  0  0  0
 11 12  1  0  0  0  0
 12 13  2  0  0  0  0
 12 14  1  0  0  0  0
 14 15  1  0  0  0  0
 15 16  1  0  0  0  0
 15 36  1  0  0  0  0
 15 37  1  0  0  0  0
 16 17  1  0  0  0  0
 16 38  1  0  0  0  0
 16 39  1  0  0  0  0
 17 18  2  0  0  0  0
 17 19  1  0  0  0  0
 19 20  1  0  0  0  0
 19 21  1  0  0  0  0
 20 40  1  0  0  0  0
 20 41  1  0  0  0  0
 20 42  1  0  0  0  0
 21 22  1  0  0  0  0
 21 43  1  0  0  0  0
 21 44  1  0  0  0  0
 22 23  1  0  0  0  0
 22 24  1  0  0  0  0
 22 45  1  0  0  0  0
 23 46  1  0  0  0  0
 23 47  1  0  0  0  0
 23 48  1  0  0  0  0
 24 49  1  0  0  0  0
 24 50  1  0  0  0  0
 24 51  1  0  0  0  0
M  CHG  1  11  -1
M  END
> <s_m_source_file>
AV-unprocessed.smi

> <i_m_source_file_index>
824

> <i_lp_mmshare_version>
43012

> <i_f3d_flags>
0

> <s_epik_input>
W0NIMl0xW0NIMl1PW0NIMl1bQ0gyXU4xYyhuYzJbQ0gzXSlbbkhdYyg9TyljMltDSDJdW0NIMl1DKD1PKU4oW0NIM10pW0NIMl1bQ0hdKFtDSDNdKVtDSDNd

> <s_epik_cmdline>
J2VwaWtfcHl0aG9uJywgJy1waCcsICc3LjAnLCAnLXRuJywgJzgnLCAnLW1hJywgJzIwMCcsICctbWV0YWxfYmluZGluZycsICctaW1hZScsICc8aW5maWxlLm1hZT4nLCAnLW9tYWUnLCAnPG91dGZpbGUubWFlPic=

> <r_lp_tautomer_probability>
1

> <r_epik_Ionization_Penalty>
5.09891

> <r_epik_Ionization_Penalty_Charging>
4.43024e-08

> <r_epik_Ionization_Penalty_Neutral>
5.09891

> <r_epik_State_Penalty>
2.55975

> <r_epik_Charging_Adjusted_Penalty>
2.55975

> <i_epik_Tot_Q>
-1

> <i_epik_Tot_abs_Q>
1

> <r_epik_Metal_State_Penalty>
0.115808

> <b_epik_Metal_Only>
0

> <s_lp_Force_Field>
OPLS_2005

> <r_lp_Energy>
31.6324

> <b_lp_Chiralities_Consistent>
1

> <s_lp_Variant>
AV-unprocessed.smi:824-3

> <Gold.Version>
5.8.1

> <Gold.Id.Protein>
6NUR|6NUR_protein|mol2

> <Gold.PLP.Fitness>
44.2065

> <Gold.PLP.PLP>
-43.8104

> <Gold.PLP.part.hbond>
-1.0000

> <Gold.PLP.part.metal>
0.0000

> <Gold.PLP.part.buried>
-4.3681

> <Gold.PLP.part.nonpolar>
-38.2344

> <Gold.PLP.part.repulsive>
0.2104

> <Gold.PLP.ligand.clash>
0.0000

> <Gold.PLP.ligand.torsion>
0.8221

> <Gold.PLP.Chemscore.Hbond>
0.5500

> <Gold.PLP.Chemscore.CHOScore>
0.0000

> <Gold.PLP.Chemscore.Metal>
0.0000

> <Gold.Chemscore.Hbonds>
donor molecule, donor type, donor heavy atom, donor atom, acceptor molecule, acceptor atom, score
      P1  H  7997  8010       L1     3  0.40

> <Gold.PLP.Chemscore.Internal.Correction>
0.3903

> <Gold.Rescore>
     Score         DG    S(hbond)    S(metal)    S(lipo)     H(rot)  DE(clash)    DE(int)     intcor
     12.03     -14.11       0.25        0.00     103.13       1.66       0.18       1.90       ----

> <Gold.Chemscore.Fitness>
12.0299

> <Gold.Chemscore.DG>
-14.1079

> <Gold.Chemscore.ZeroCoef>
-5.4800

> <Gold.Chemscore.Hbond>
0.2456

> <Gold.Chemscore.Metal>
0.0000

> <Gold.Chemscore.Lipo>
103.1303

> <Gold.Chemscore.Internal_Hbond>
0.0000

> <Gold.Chemscore.DEClash>
0.1792

> <Gold.Chemscore.DEInternal>
1.8989

> <Gold.Chemscore.Rot>
1.6635

> <Gold.Chemscore.Internal.Correction>
   9.000000E+99

> <Gold.Chemscore.Hbonds>
donor molecule, donor type, donor heavy atom, donor atom, acceptor molecule, acceptor atom, score
      P1  H  7997  8010       L1     3  0.01

> <Gold.Chemscore.Hbond.Weighted>
-0.8202

> <Gold.Chemscore.Metal.Weighted>
-0.0000

> <Gold.Chemscore.Lipo.Weighted>
-12.0662

> <Gold.Chemscore.Internal_Hbond.Weighted>
0.0000

> <Gold.Chemscore.DEClash.Weighted>
0.1792

> <Gold.Chemscore.DEInternal.Weighted>
1.8989

> <Gold.Chemscore.Rot.Weighted>
4.2585

> <Gold.Chemscore.Internal.Correction.Weighted>
   9.000000E+99

> <Gold.Protein.RotatedTorsions>
[ 6907 6896 6895 6894 ] final   57.60 input  -60.11 | X-H torsion
[ 7974 7965 7964 7962 ] final  -74.69 input  175.53 | X-H torsion
[ 8008 7997 7996 7995 ] final   61.00 input   59.86 | X-H torsion
[ 10167 10162 10161 10158 ] final   42.34 input  -65.29 | X-H torsion
[ 10718 10713 10712 10709 ] final  -28.38 input   66.30 | X-H torsion
[ 10763 10752 10751 10750 ] final  114.72 input  -60.55 | X-H torsion
[ 11005 11000 10999 10996 ] final  -89.98 input  -57.11 | X-H torsion

> <Gold.Protein.ActiveResidues>
 VAL166  LYS551  ARG553  GLY616  TRP617  ASP618  TYR619  PRO620  LYS621  CYS622 
 ASP623  PHE694  ASN695  SER759  ASP760  ASP761  ALA762  ILE779  LEU786  VAL792 
 PHE793  MET794  SER795  GLU796  ALA797  LYS798  CYS799  TRP800  GLU811  SER814 

> <Gold.Protein.RotatedAtoms>
  152.3746  134.6682  160.0163 H   0  0  0  0  0  0  0  0  0  0  0  0  # atno 6907 bound_to 6896
  151.6964  133.3305  159.3263 H   0  0  0  0  0  0  0  0  0  0  0  0  # atno 6908 bound_to 6896
  150.7700  134.6589  159.6373 H   0  0  0  0  0  0  0  0  0  0  0  0  # atno 6909 bound_to 6896
  145.6358  140.9325  143.1062 H   0  0  0  0  0  0  0  0  0  0  0  0  # atno 7974 bound_to 7965
  155.5913  140.3493  155.4567 H   0  0  0  0  0  0  0  0  0  0  0  0  # atno 8008 bound_to 7997
  156.0299  140.1272  157.0294 H   0  0  0  0  0  0  0  0  0  0  0  0  # atno 8009 bound_to 7997
  154.4348  140.1045  156.6070 H   0  0  0  0  0  0  0  0  0  0  0  0  # atno 8010 bound_to 7997
  140.3553  144.2297  150.6142 H   0  0  0  0  0  0  0  0  0  0  0  0  # atno 10167 bound_to 10162
  156.4260  130.4435  149.7151 H   0  0  0  0  0  0  0  0  0  0  0  0  # atno 10718 bound_to 10713
  153.5115  135.3617  155.2589 H   0  0  0  0  0  0  0  0  0  0  0  0  # atno 10763 bound_to 10752
  154.8741  135.4024  154.3363 H   0  0  0  0  0  0  0  0  0  0  0  0  # atno 10764 bound_to 10752
  153.4017  135.7075  153.6488 H   0  0  0  0  0  0  0  0  0  0  0  0  # atno 10765 bound_to 10752
  141.1574  133.7663  156.9672 H   0  0  0  0  0  0  0  0  0  0  0  0  # atno 11005 bound_to 11000
  144.7176  139.8141  143.7393 LP  0  0  0  0  0  0  0  0  0  0  0  0  # atno 17320 bound_to 7965
  146.1320  139.4358  143.0162 LP  0  0  0  0  0  0  0  0  0  0  0  0  # atno 17321 bound_to 7965
  140.5179  143.2273  151.8434 LP  0  0  0  0  0  0  0  0  0  0  0  0  # atno 17342 bound_to 10162
  139.4821  144.4872  151.9232 LP  0  0  0  0  0  0  0  0  0  0  0  0  # atno 17343 bound_to 10162
  156.4073  130.7704  151.2715 LP  0  0  0  0  0  0  0  0  0  0  0  0  # atno 17370 bound_to 10713
  157.7508  131.0222  150.3782 LP  0  0  0  0  0  0  0  0  0  0  0  0  # atno 17371 bound_to 10713
  140.1153  134.9451  157.2125 LP  0  0  0  0  0  0  0  0  0  0  0  0  # atno 17394 bound_to 11000
  140.3141  134.2990  155.7260 LP  0  0  0  0  0  0  0  0  0  0  0  0  # atno 17395 bound_to 11000

$$$$
