AV-unprocessed.smi:213|AV-procd|sdf|1640|dock3
  -GOLD-   2262020 03D 1   1.00000     0.00000
 Structure written by MMmdl.
 59 62  0  0  0  0  0  0  0  0  2 V2000
  150.0385  141.4740  156.1403 C   0  0  0  0  0  0  0  0  0  0  0  0
  151.3859  141.3018  156.8665 C   0  0  1  0  0  0  0  0  0  0  0  0
  151.3240  141.7832  158.3352 C   0  0  0  0  0  0  0  0  0  0  0  0
  151.2925  143.2623  158.4531 N   0  3  0  0  0  0  0  0  0  0  0  0
  150.4327  143.7222  159.5695 C   0  0  0  0  0  0  0  0  0  0  0  0
  150.3958  145.2588  159.6249 C   0  0  0  0  0  0  0  0  0  0  0  0
  151.7191  145.7636  159.7519 O   0  0  0  0  0  0  0  0  0  0  0  0
  152.5333  145.4053  158.6424 C   0  0  0  0  0  0  0  0  0  0  0  0
  152.6416  143.8737  158.5543 C   0  0  0  0  0  0  0  0  0  0  0  0
  151.8613  139.9138  156.7782 N   0  0  0  0  0  0  0  0  0  0  0  0
  152.3585  139.3955  155.5052 C   0  0  0  0  0  0  0  0  0  0  0  0
  151.4320  138.9925  157.6881 C   0  0  0  0  0  0  0  0  0  0  0  0
  152.2191  138.6936  158.7581 N   0  0  0  0  0  0  0  0  0  0  0  0
  151.8242  137.8026  159.6711 C   0  0  0  0  0  0  0  0  0  0  0  0
  150.6944  137.0966  159.7115 N   0  0  0  0  0  0  0  0  0  0  0  0
  149.8992  137.3800  158.6413 C   0  0  0  0  0  0  0  0  0  0  0  0
  150.1852  138.3032  157.5939 C   0  0  0  0  0  0  0  0  0  0  0  0
  149.1370  138.3053  156.6786 N   0  0  0  0  0  0  0  0  0  0  0  0
  148.2810  137.4470  157.1622 C   0  0  0  0  0  0  0  0  0  0  0  0
  148.6604  136.8452  158.3392 N   0  0  0  0  0  0  0  0  0  0  0  0
  147.9111  135.8569  159.0942 C   0  0  0  0  0  0  0  0  0  0  0  0
  147.7935  136.2244  160.5859 C   0  0  1  0  0  0  0  0  0  0  0  0
  147.1166  137.4576  160.7429 O   0  0  0  0  0  0  0  0  0  0  0  0
  147.1144  135.1201  161.4204 C   0  0  1  0  0  0  0  0  0  0  0  0
  145.5850  135.2052  161.5549 C   0  0  0  0  0  0  0  0  0  0  0  0
  145.1183  133.7700  161.3555 C   0  0  0  0  0  0  0  0  0  0  0  0
  146.4038  132.9523  161.4389 C   0  0  0  0  0  0  0  0  0  0  0  0
  147.3802  133.8255  160.8972 O   0  0  0  0  0  0  0  0  0  0  0  0
  149.7483  142.5238  156.0949 H   0  0  0  0  0  0  0  0  0  0  0  0
  149.2318  140.9343  156.6361 H   0  0  0  0  0  0  0  0  0  0  0  0
  150.0996  141.1117  155.1133 H   0  0  0  0  0  0  0  0  0  0  0  0
  152.0885  141.9248  156.3147 H   0  0  0  0  0  0  0  0  0  0  0  0
  150.4319  141.3648  158.8029 H   0  0  0  0  0  0  0  0  0  0  0  0
  152.1697  141.4016  158.9095 H   0  0  0  0  0  0  0  0  0  0  0  0
  149.4201  143.3372  159.4418 H   0  0  0  0  0  0  0  0  0  0  0  0
  150.8118  143.3227  160.5117 H   0  0  0  0  0  0  0  0  0  0  0  0
  149.9204  145.6704  158.7331 H   0  0  0  0  0  0  0  0  0  0  0  0
  149.8077  145.5897  160.4811 H   0  0  0  0  0  0  0  0  0  0  0  0
  152.1201  145.8208  157.7220 H   0  0  0  0  0  0  0  0  0  0  0  0
  153.5224  145.8447  158.7739 H   0  0  0  0  0  0  0  0  0  0  0  0
  153.1533  143.4876  159.4372 H   0  0  0  0  0  0  0  0  0  0  0  0
  153.2513  143.6062  157.6921 H   0  0  0  0  0  0  0  0  0  0  0  0
  151.8507  138.4712  155.2269 H   0  0  0  0  0  0  0  0  0  0  0  0
  153.4283  139.1961  155.5726 H   0  0  0  0  0  0  0  0  0  0  0  0
  152.2045  140.1040  154.6924 H   0  0  0  0  0  0  0  0  0  0  0  0
  152.5119  137.6309  160.4860 H   0  0  0  0  0  0  0  0  0  0  0  0
  147.3434  137.2287  156.6719 H   0  0  0  0  0  0  0  0  0  0  0  0
  146.9227  135.7523  158.6449 H   0  0  0  0  0  0  0  0  0  0  0  0
  148.4087  134.8931  158.9810 H   0  0  0  0  0  0  0  0  0  0  0  0
  148.7975  136.3701  160.9857 H   0  0  0  0  0  0  0  0  0  0  0  0
  146.2830  137.2906  161.1553 H   0  0  0  0  0  0  0  0  0  0  0  0
  147.5411  135.1388  162.4249 H   0  0  0  0  0  0  0  0  0  0  0  0
  145.3102  135.5812  162.5410 H   0  0  0  0  0  0  0  0  0  0  0  0
  145.1240  135.8601  160.8153 H   0  0  0  0  0  0  0  0  0  0  0  0
  144.3745  133.4578  162.0894 H   0  0  0  0  0  0  0  0  0  0  0  0
  144.6781  133.6617  160.3634 H   0  0  0  0  0  0  0  0  0  0  0  0
  146.6535  132.7230  162.4762 H   0  0  0  0  0  0  0  0  0  0  0  0
  146.3456  132.0165  160.8828 H   0  0  0  0  0  0  0  0  0  0  0  0
  150.8683  143.6113  157.6054 H   0  0  0  0  0  0  0  0  0  0  0  0
  1  2  1  0  0  0  0
  1 29  1  0  0  0  0
  1 30  1  0  0  0  0
  1 31  1  0  0  0  0
  2  3  1  0  0  0  0
  2 10  1  0  0  0  0
  2 32  1  0  0  0  0
  3  4  1  0  0  0  0
  3 33  1  0  0  0  0
  3 34  1  0  0  0  0
  4  9  1  0  0  0  0
  4  5  1  0  0  0  0
  4 59  1  0  0  0  0
  5  6  1  0  0  0  0
  5 35  1  0  0  0  0
  5 36  1  0  0  0  0
  6  7  1  0  0  0  0
  6 37  1  0  0  0  0
  6 38  1  0  0  0  0
  7  8  1  0  0  0  0
  8  9  1  0  0  0  0
  8 39  1  0  0  0  0
  8 40  1  0  0  0  0
  9 41  1  0  0  0  0
  9 42  1  0  0  0  0
 10 11  1  0  0  0  0
 10 12  1  0  0  0  0
 11 43  1  0  0  0  0
 11 44  1  0  0  0  0
 11 45  1  0  0  0  0
 12 17  1  0  0  0  0
 12 13  2  0  0  0  0
 13 14  1  0  0  0  0
 14 15  2  0  0  0  0
 14 46  1  0  0  0  0
 15 16  1  0  0  0  0
 16 20  1  0  0  0  0
 16 17  2  0  0  0  0
 17 18  1  0  0  0  0
 18 19  2  0  0  0  0
 19 20  1  0  0  0  0
 19 47  1  0  0  0  0
 20 21  1  0  0  0  0
 21 22  1  0  0  0  0
 21 48  1  0  0  0  0
 21 49  1  0  0  0  0
 22 23  1  0  0  0  0
 22 24  1  0  0  0  0
 22 50  1  0  0  0  0
 23 51  1  0  0  0  0
 24 28  1  0  0  0  0
 24 25  1  0  0  0  0
 24 52  1  0  0  0  0
 25 26  1  0  0  0  0
 25 53  1  0  0  0  0
 25 54  1  0  0  0  0
 26 27  1  0  0  0  0
 26 55  1  0  0  0  0
 26 56  1  0  0  0  0
 27 28  1  0  0  0  0
 27 57  1  0  0  0  0
 27 58  1  0  0  0  0
M  CHG  1   4   1
M  END
> <s_m_source_file>
AV-unprocessed.smi

> <i_m_source_file_index>
213

> <i_lp_mmshare_version>
43012

> <i_f3d_flags>
0

> <s_epik_input>
W0NIMl0xW0NIMl1PW0NIMl1bQ0gyXU4xW0NIMl1bQ0BASF0oW0NIM10pTihbQ0gzXSljKG5bY0hdbjIpYyhjMjMpbltjSF1uM1tDSDJdW0NASF0oW09IXSlbQ0BASF00W0NIMl1bQ0gyXVtDSDJdTzQ=

> <s_epik_cmdline>
J2VwaWtfcHl0aG9uJywgJy1waCcsICc3LjAnLCAnLXRuJywgJzgnLCAnLW1hJywgJzIwMCcsICctbWV0YWxfYmluZGluZycsICctaW1hZScsICc8aW5maWxlLm1hZT4nLCAnLW9tYWUnLCAnPG91dGZpbGUubWFlPic=

> <r_lp_tautomer_probability>
1

> <r_epik_Ionization_Penalty>
0.399679

> <r_epik_Ionization_Penalty_Charging>
0.399433

> <r_epik_Ionization_Penalty_Neutral>
0.000246213

> <r_epik_State_Penalty>
0.286032

> <r_epik_Charging_Adjusted_Penalty>
0.685465

> <i_epik_Tot_Q>
1

> <i_epik_Tot_abs_Q>
1

> <r_epik_Metal_State_Penalty>
0.286072

> <b_epik_Metal_Only>
0

> <s_lp_Force_Field>
OPLS_2005

> <r_lp_Energy>
46.5476

> <b_lp_Chiralities_Consistent>
1

> <s_lp_Variant>
AV-unprocessed.smi:213-8

> <Gold.Version>
5.8.1

> <Gold.Id.Protein>
6NUR|6NUR_protein|mol2

> <Gold.PLP.Fitness>
49.3216

> <Gold.PLP.PLP>
-47.8064

> <Gold.PLP.part.hbond>
-3.6856

> <Gold.PLP.part.metal>
0.0000

> <Gold.PLP.part.buried>
-7.4898

> <Gold.PLP.part.nonpolar>
-37.1374

> <Gold.PLP.part.repulsive>
0.1895

> <Gold.PLP.ligand.clash>
0.0000

> <Gold.PLP.ligand.torsion>
3.2483

> <Gold.PLP.Chemscore.Hbond>
2.4128

> <Gold.PLP.Chemscore.CHOScore>
0.0000

> <Gold.PLP.Chemscore.Metal>
0.0000

> <Gold.Chemscore.Hbonds>
donor molecule, donor type, donor heavy atom, donor atom, acceptor molecule, acceptor atom, score
      P1  H  6896  6907       L1    15  0.96
      P1  H  6931  6943       L1    23  0.04
      P1  H  6934  6947       L1    23  0.95

> <Gold.PLP.Chemscore.Internal.Correction>
0.7734

> <Gold.Rescore>
     Score         DG    S(hbond)    S(metal)    S(lipo)     H(rot)  DE(clash)    DE(int)     intcor
     13.88     -17.15       1.66        0.00     114.32       2.83       0.23       3.04       ----

> <Gold.Chemscore.Fitness>
13.8805

> <Gold.Chemscore.DG>
-17.1535

> <Gold.Chemscore.ZeroCoef>
-5.4800

> <Gold.Chemscore.Hbond>
1.6559

> <Gold.Chemscore.Metal>
0.0000

> <Gold.Chemscore.Lipo>
114.3223

> <Gold.Chemscore.Internal_Hbond>
0.0000

> <Gold.Chemscore.DEClash>
0.2314

> <Gold.Chemscore.DEInternal>
3.0417

> <Gold.Chemscore.Rot>
2.8254

> <Gold.Chemscore.Internal.Correction>
   9.000000E+99

> <Gold.Chemscore.Hbonds>
donor molecule, donor type, donor heavy atom, donor atom, acceptor molecule, acceptor atom, score
      P1  H  6896  6907       L1    15  0.46
      P1  H  6934  6947       L1    23  0.21

> <Gold.Chemscore.Hbond.Weighted>
-5.5308

> <Gold.Chemscore.Metal.Weighted>
-0.0000

> <Gold.Chemscore.Lipo.Weighted>
-13.3757

> <Gold.Chemscore.Internal_Hbond.Weighted>
0.0000

> <Gold.Chemscore.DEClash.Weighted>
0.2314

> <Gold.Chemscore.DEInternal.Weighted>
3.0417

> <Gold.Chemscore.Rot.Weighted>
7.2330

> <Gold.Chemscore.Internal.Correction.Weighted>
   9.000000E+99

> <Gold.Protein.RotatedTorsions>
[ 6907 6896 6895 6894 ] final  -17.51 input  -60.11 | X-H torsion
[ 7974 7965 7964 7962 ] final -170.06 input  175.53 | X-H torsion
[ 8008 7997 7996 7995 ] final  -92.00 input   59.86 | X-H torsion
[ 10167 10162 10161 10158 ] final   48.67 input  -65.29 | X-H torsion
[ 10718 10713 10712 10709 ] final -104.79 input   66.30 | X-H torsion
[ 10763 10752 10751 10750 ] final   17.59 input  -60.55 | X-H torsion
[ 11005 11000 10999 10996 ] final   36.86 input  -57.11 | X-H torsion

> <Gold.Protein.ActiveResidues>
 VAL166  LYS551  ARG553  GLY616  TRP617  ASP618  TYR619  PRO620  LYS621  CYS622 
 ASP623  PHE694  ASN695  SER759  ASP760  ASP761  ALA762  ILE779  LEU786  VAL792 
 PHE793  MET794  SER795  GLU796  ALA797  LYS798  CYS799  TRP800  GLU811  SER814 

> <Gold.Protein.RotatedAtoms>
  151.2923  135.0745  159.9208 H   0  0  0  0  0  0  0  0  0  0  0  0  # atno 6907 bound_to 6896
  152.5314  133.9919  159.7865 H   0  0  0  0  0  0  0  0  0  0  0  0  # atno 6908 bound_to 6896
  151.0191  133.5842  159.2704 H   0  0  0  0  0  0  0  0  0  0  0  0  # atno 6909 bound_to 6896
  144.7175  140.2128  143.6325 H   0  0  0  0  0  0  0  0  0  0  0  0  # atno 7974 bound_to 7965
  154.7177  140.0513  157.0610 H   0  0  0  0  0  0  0  0  0  0  0  0  # atno 8008 bound_to 7997
  155.0469  140.3175  155.4686 H   0  0  0  0  0  0  0  0  0  0  0  0  # atno 8009 bound_to 7997
  156.2807  140.2123  156.5594 H   0  0  0  0  0  0  0  0  0  0  0  0  # atno 8010 bound_to 7997
  140.2909  144.3047  150.6241 H   0  0  0  0  0  0  0  0  0  0  0  0  # atno 10167 bound_to 10162
  156.0319  130.5532  150.7446 H   0  0  0  0  0  0  0  0  0  0  0  0  # atno 10718 bound_to 10713
  153.1325  135.6743  153.9156 H   0  0  0  0  0  0  0  0  0  0  0  0  # atno 10763 bound_to 10752
  153.8638  135.3078  155.3440 H   0  0  0  0  0  0  0  0  0  0  0  0  # atno 10764 bound_to 10752
  154.7719  135.4934  153.9748 H   0  0  0  0  0  0  0  0  0  0  0  0  # atno 10765 bound_to 10752
  140.2283  134.3558  155.7975 H   0  0  0  0  0  0  0  0  0  0  0  0  # atno 11005 bound_to 11000
  145.8575  139.2206  143.1736 LP  0  0  0  0  0  0  0  0  0  0  0  0  # atno 17320 bound_to 7965
  146.0204  140.8353  142.9926 LP  0  0  0  0  0  0  0  0  0  0  0  0  # atno 17321 bound_to 7965
  140.5733  143.2179  151.7560 LP  0  0  0  0  0  0  0  0  0  0  0  0  # atno 17342 bound_to 10162
  139.4938  144.4185  152.0003 LP  0  0  0  0  0  0  0  0  0  0  0  0  # atno 17343 bound_to 10162
  157.5006  131.0918  151.0318 LP  0  0  0  0  0  0  0  0  0  0  0  0  # atno 17370 bound_to 10713
  157.0700  130.5860  149.5401 LP  0  0  0  0  0  0  0  0  0  0  0  0  # atno 17371 bound_to 10713
  141.2219  133.7231  156.8689 LP  0  0  0  0  0  0  0  0  0  0  0  0  # atno 17394 bound_to 11000
  140.1777  134.9055  157.2911 LP  0  0  0  0  0  0  0  0  0  0  0  0  # atno 17395 bound_to 11000

$$$$
