AV-unprocessed.smi:3181|AV-procd|sdf|12135|dock7
  -GOLD-   2272017573D 1   1.00000     0.00000
 Structure written by MMmdl.
 42 43  0  0  0  0  0  0  0  0  2 V2000
  147.3784  133.8812  154.7501 C   0  0  0  0  0  0  0  0  0  0  0  0
  148.3408  133.1865  153.7727 C   0  0  2  0  0  0  0  0  0  0  0  0
  149.8234  133.4833  154.0761 C   0  0  0  0  0  0  0  0  0  0  0  0
  150.2489  132.9803  155.3693 N   0  0  0  0  0  0  0  0  0  0  0  0
  149.8474  133.2970  156.6017 C   0  0  0  0  0  0  0  0  0  0  0  0
  150.4753  132.6267  157.5573 N   0  0  0  0  0  0  0  0  0  0  0  0
  151.3142  131.8674  156.7911 C   0  0  0  0  0  0  0  0  0  0  0  0
  151.2195  132.0427  155.4728 N   0  0  0  0  0  0  0  0  0  0  0  0
  148.0249  133.5951  152.3851 N   0  3  0  0  0  0  0  0  0  0  0  0
  146.6360  133.3428  151.9406 C   0  0  2  0  0  0  0  0  0  0  0  0
  146.5854  132.0665  151.0824 C   0  0  0  0  0  0  0  0  0  0  0  0
  145.1678  131.7906  150.5566 C   0  0  0  0  0  0  0  0  0  0  0  0
  144.6148  132.9942  149.7685 C   0  0  1  0  0  0  0  0  0  0  0  0
  143.2325  132.6965  149.1649 C   0  0  0  0  0  0  0  0  0  0  0  0
  144.6504  134.2937  150.6130 C   0  0  1  0  0  0  0  0  0  0  0  0
  143.6053  134.3405  151.7460 C   0  0  0  0  0  0  0  0  0  0  0  0
  146.0776  134.5440  151.1445 C   0  0  0  0  0  0  0  0  0  0  0  0
  147.5327  133.5408  155.7743 H   0  0  0  0  0  0  0  0  0  0  0  0
  146.3401  133.6683  154.4939 H   0  0  0  0  0  0  0  0  0  0  0  0
  147.5098  134.9636  154.7352 H   0  0  0  0  0  0  0  0  0  0  0  0
  148.1886  132.1109  153.8743 H   0  0  0  0  0  0  0  0  0  0  0  0
  150.4624  133.0378  153.3123 H   0  0  0  0  0  0  0  0  0  0  0  0
  150.0079  134.5583  154.0494 H   0  0  0  0  0  0  0  0  0  0  0  0
  149.0793  134.0288  156.8047 H   0  0  0  0  0  0  0  0  0  0  0  0
  152.0157  131.1653  157.2175 H   0  0  0  0  0  0  0  0  0  0  0  0
  148.2198  134.5806  152.2815 H   0  0  0  0  0  0  0  0  0  0  0  0
  146.0267  133.1734  152.8298 H   0  0  0  0  0  0  0  0  0  0  0  0
  147.2696  132.1613  150.2377 H   0  0  0  0  0  0  0  0  0  0  0  0
  146.9312  131.2107  151.6633 H   0  0  0  0  0  0  0  0  0  0  0  0
  145.1871  130.9076  149.9169 H   0  0  0  0  0  0  0  0  0  0  0  0
  144.5060  131.5471  151.3883 H   0  0  0  0  0  0  0  0  0  0  0  0
  145.2859  133.1530  148.9227 H   0  0  0  0  0  0  0  0  0  0  0  0
  142.5028  132.4373  149.9321 H   0  0  0  0  0  0  0  0  0  0  0  0
  143.2843  131.8583  148.4697 H   0  0  0  0  0  0  0  0  0  0  0  0
  142.8504  133.5558  148.6133 H   0  0  0  0  0  0  0  0  0  0  0  0
  144.4126  135.1228  149.9448 H   0  0  0  0  0  0  0  0  0  0  0  0
  143.7127  133.5094  152.4421 H   0  0  0  0  0  0  0  0  0  0  0  0
  142.5890  134.3127  151.3533 H   0  0  0  0  0  0  0  0  0  0  0  0
  143.6955  135.2626  152.3206 H   0  0  0  0  0  0  0  0  0  0  0  0
  146.0849  135.4486  151.7531 H   0  0  0  0  0  0  0  0  0  0  0  0
  146.7376  134.7498  150.3002 H   0  0  0  0  0  0  0  0  0  0  0  0
  148.6441  133.0844  151.7721 H   0  0  0  0  0  0  0  0  0  0  0  0
  1  2  1  0  0  0  0
  1 18  1  0  0  0  0
  1 19  1  0  0  0  0
  1 20  1  0  0  0  0
  2  3  1  0  0  0  0
  2  9  1  0  0  0  0
  2 21  1  0  0  0  0
  3  4  1  0  0  0  0
  3 22  1  0  0  0  0
  3 23  1  0  0  0  0
  4  8  1  0  0  0  0
  4  5  1  0  0  0  0
  5  6  2  0  0  0  0
  5 24  1  0  0  0  0
  6  7  1  0  0  0  0
  7  8  2  0  0  0  0
  7 25  1  0  0  0  0
  9 10  1  0  0  0  0
  9 26  1  0  0  0  0
  9 42  1  0  0  0  0
 10 17  1  0  0  0  0
 10 11  1  0  0  0  0
 10 27  1  0  0  0  0
 11 12  1  0  0  0  0
 11 28  1  0  0  0  0
 11 29  1  0  0  0  0
 12 13  1  0  0  0  0
 12 30  1  0  0  0  0
 12 31  1  0  0  0  0
 13 14  1  0  0  0  0
 13 15  1  0  0  0  0
 13 32  1  0  0  0  0
 14 33  1  0  0  0  0
 14 34  1  0  0  0  0
 14 35  1  0  0  0  0
 15 16  1  0  0  0  0
 15 17  1  0  0  0  0
 15 36  1  0  0  0  0
 16 37  1  0  0  0  0
 16 38  1  0  0  0  0
 16 39  1  0  0  0  0
 17 40  1  0  0  0  0
 17 41  1  0  0  0  0
M  CHG  1   9   1
M  END
> <s_m_source_file>
AV-unprocessed.smi

> <i_m_source_file_index>
3181

> <i_lp_mmshare_version>
43012

> <i_f3d_flags>
0

> <s_epik_input>
bjFbY0hdbltjSF1uMVtDSDJdW0NAQEhdKFtDSDNdKVtOSF1bQ0BASF0yW0NIMl1bQ0gyXVtDQEBIXShbQ0gzXSlbQ0BASF0oW0NIM10pW0NIMl0y

> <s_epik_cmdline>
J2VwaWtfcHl0aG9uJywgJy1waCcsICc3LjAnLCAnLXRuJywgJzgnLCAnLW1hJywgJzIwMCcsICctbWV0YWxfYmluZGluZycsICctaW1hZScsICc8aW5maWxlLm1hZT4nLCAnLW9tYWUnLCAnPG91dGZpbGUubWFlPic=

> <r_lp_tautomer_probability>
1

> <r_epik_Ionization_Penalty>
0.000617007

> <r_epik_Ionization_Penalty_Charging>
0.000616215

> <r_epik_Ionization_Penalty_Neutral>
7.92544e-07

> <r_epik_State_Penalty>
0.000388807

> <r_epik_Charging_Adjusted_Penalty>
0.00100502

> <i_epik_Tot_Q>
1

> <i_epik_Tot_abs_Q>
1

> <r_epik_Metal_State_Penalty>
-0

> <b_epik_Metal_Only>
0

> <s_lp_Force_Field>
OPLS_2005

> <r_lp_Energy>
21.1585

> <b_lp_Chiralities_Consistent>
1

> <s_lp_Variant>
AV-unprocessed.smi:3181-1

> <Gold.Version>
5.8.1

> <Gold.Id.Protein>
6NUR|6NUR_protein|mol2

> <Gold.PLP.Fitness>
36.4553

> <Gold.PLP.PLP>
-28.6492

> <Gold.PLP.part.hbond>
-2.0000

> <Gold.PLP.part.metal>
0.0000

> <Gold.PLP.part.buried>
2.2066

> <Gold.PLP.part.nonpolar>
-28.2063

> <Gold.PLP.part.repulsive>
0.0158

> <Gold.PLP.ligand.clash>
0.0000

> <Gold.PLP.ligand.torsion>
0.6102

> <Gold.PLP.Chemscore.Hbond>
3.0000

> <Gold.PLP.Chemscore.CHOScore>
0.0000

> <Gold.PLP.Chemscore.Metal>
0.0000

> <Gold.Chemscore.Hbonds>
donor molecule, donor type, donor heavy atom, donor atom, acceptor molecule, acceptor atom, score
      L1  H     9    26       P1  7948  1.80
      P1  H  6896  6908       L1     6  1.00

> <Gold.PLP.Chemscore.Internal.Correction>
0.0265

> <Gold.Rescore>
     Score         DG    S(hbond)    S(metal)    S(lipo)     H(rot)  DE(clash)    DE(int)     intcor
     11.71     -14.44       1.74        0.00      73.20       2.11       1.88       0.86       ----

> <Gold.Chemscore.Fitness>
11.7065

> <Gold.Chemscore.DG>
-14.4416

> <Gold.Chemscore.ZeroCoef>
-5.4800

> <Gold.Chemscore.Hbond>
1.7359

> <Gold.Chemscore.Metal>
0.0000

> <Gold.Chemscore.Lipo>
73.1957

> <Gold.Chemscore.Internal_Hbond>
0.0000

> <Gold.Chemscore.DEClash>
1.8780

> <Gold.Chemscore.DEInternal>
0.8570

> <Gold.Chemscore.Rot>
2.1095

> <Gold.Chemscore.Internal.Correction>
   9.000000E+99

> <Gold.Chemscore.Hbonds>
donor molecule, donor type, donor heavy atom, donor atom, acceptor molecule, acceptor atom, score
      L1  H     9    26       P1  7948  0.18
      P1  H  6896  6908       L1     6  0.92

> <Gold.Chemscore.Hbond.Weighted>
-5.7980

> <Gold.Chemscore.Metal.Weighted>
-0.0000

> <Gold.Chemscore.Lipo.Weighted>
-8.5639

> <Gold.Chemscore.Internal_Hbond.Weighted>
0.0000

> <Gold.Chemscore.DEClash.Weighted>
1.8780

> <Gold.Chemscore.DEInternal.Weighted>
0.8570

> <Gold.Chemscore.Rot.Weighted>
5.4003

> <Gold.Chemscore.Internal.Correction.Weighted>
   9.000000E+99

> <Gold.Protein.RotatedTorsions>
[ 6907 6896 6895 6894 ] final   85.55 input  -60.11 | X-H torsion
[ 7974 7965 7964 7962 ] final -162.93 input  175.53 | X-H torsion
[ 8008 7997 7996 7995 ] final -113.17 input   59.86 | X-H torsion
[ 10167 10162 10161 10158 ] final  -49.44 input  -65.29 | X-H torsion
[ 10718 10713 10712 10709 ] final  -49.55 input   66.30 | X-H torsion
[ 10763 10752 10751 10750 ] final -117.06 input  -60.55 | X-H torsion
[ 11005 11000 10999 10996 ] final  175.98 input  -57.11 | X-H torsion

> <Gold.Protein.ActiveResidues>
 VAL166  LYS551  ARG553  GLY616  TRP617  ASP618  TYR619  PRO620  LYS621  CYS622 
 ASP623  PHE694  ASN695  SER759  ASP760  ASP761  ALA762  ILE779  LEU786  VAL792 
 PHE793  MET794  SER795  GLU796  ALA797  LYS798  CYS799  TRP800  GLU811  SER814 

> <Gold.Protein.RotatedAtoms>
  152.5377  134.2568  159.8919 H   0  0  0  0  0  0  0  0  0  0  0  0  # atno 6907 bound_to 6896
  151.2529  133.4334  159.2620 H   0  0  0  0  0  0  0  0  0  0  0  0  # atno 6908 bound_to 6896
  151.0522  134.9695  159.8274 H   0  0  0  0  0  0  0  0  0  0  0  0  # atno 6909 bound_to 6896
  144.7341  140.3180  143.6176 H   0  0  0  0  0  0  0  0  0  0  0  0  # atno 7974 bound_to 7965
  155.0166  140.0393  157.2420 H   0  0  0  0  0  0  0  0  0  0  0  0  # atno 8008 bound_to 7997
  154.7414  140.2749  155.6347 H   0  0  0  0  0  0  0  0  0  0  0  0  # atno 8009 bound_to 7997
  156.2865  140.2665  156.2142 H   0  0  0  0  0  0  0  0  0  0  0  0  # atno 8010 bound_to 7997
  140.6685  143.2697  151.4216 H   0  0  0  0  0  0  0  0  0  0  0  0  # atno 10167 bound_to 10162
  156.1883  130.4152  149.9408 H   0  0  0  0  0  0  0  0  0  0  0  0  # atno 10718 bound_to 10713
  154.8542  135.4323  154.1920 H   0  0  0  0  0  0  0  0  0  0  0  0  # atno 10763 bound_to 10752
  153.2986  135.6967  153.7230 H   0  0  0  0  0  0  0  0  0  0  0  0  # atno 10764 bound_to 10752
  153.6369  135.3475  155.3034 H   0  0  0  0  0  0  0  0  0  0  0  0  # atno 10765 bound_to 10752
  140.3681  134.7054  157.4375 H   0  0  0  0  0  0  0  0  0  0  0  0  # atno 11005 bound_to 11000
  145.7597  139.1820  143.2274 LP  0  0  0  0  0  0  0  0  0  0  0  0  # atno 17320 bound_to 7965
  146.0996  140.7560  142.9555 LP  0  0  0  0  0  0  0  0  0  0  0  0  # atno 17321 bound_to 7965
  139.5943  144.1432  152.2125 LP  0  0  0  0  0  0  0  0  0  0  0  0  # atno 17342 bound_to 10162
  140.0796  144.5712  150.7132 LP  0  0  0  0  0  0  0  0  0  0  0  0  # atno 17343 bound_to 10162
  156.7157  130.8987  151.3613 LP  0  0  0  0  0  0  0  0  0  0  0  0  # atno 17370 bound_to 10713
  157.6913  130.9236  150.0520 LP  0  0  0  0  0  0  0  0  0  0  0  0  # atno 17371 bound_to 10713
  140.0573  134.6045  155.8790 LP  0  0  0  0  0  0  0  0  0  0  0  0  # atno 17394 bound_to 11000
  141.1963  133.6591  156.5685 LP  0  0  0  0  0  0  0  0  0  0  0  0  # atno 17395 bound_to 11000

$$$$
