AV-unprocessed.smi:72|AV-procd|sdf|675|dock6
  -GOLD-   2262016583D 1   1.00000     0.00000
 Structure written by MMmdl.
 29 30  0  0  0  0  0  0  0  0  1 V2000
  154.1064  138.3390  154.6485 N   0  0  0  0  0  0  0  0  0  0  0  0
  152.8260  138.4221  154.7243 C   0  0  0  0  0  0  0  0  0  0  0  0
  151.9234  137.4333  154.3039 N   0  0  0  0  0  0  0  0  0  0  0  0
  150.6521  137.6521  154.4425 C   0  0  0  0  0  0  0  0  0  0  0  0
  150.1354  138.8844  155.0172 N   0  0  0  0  0  0  0  0  0  0  0  0
  148.6453  139.1134  155.1612 C   0  0  2  0  0  0  0  0  0  0  0  0
  147.9833  137.8951  154.9968 O   0  0  0  0  0  0  0  0  0  0  0  0
  146.7818  138.1054  154.2627 C   0  0  2  0  0  0  0  0  0  0  0  0
  146.2798  136.7976  153.6250 C   0  0  0  0  0  0  0  0  0  0  0  0
  145.3246  137.0797  152.6246 O   0  0  0  0  0  0  0  0  0  0  0  0
  147.1640  139.2187  153.2767 C   0  0  2  0  0  0  0  0  0  0  0  0
  147.8267  138.6858  152.1416 O   0  0  0  0  0  0  0  0  0  0  0  0
  148.0749  140.1037  154.1230 C   0  0  2  0  0  0  0  0  0  0  0  0
  149.0306  140.8198  153.3583 O   0  0  0  0  0  0  0  0  0  0  0  0
  151.0319  139.8981  155.4353 C   0  0  0  0  0  0  0  0  0  0  0  0
  150.6505  140.9695  155.9056 O   0  0  0  0  0  0  0  0  0  0  0  0
  152.3436  139.6166  155.2770 N   0  0  0  0  0  0  0  0  0  0  0  0
  148.4781  139.4459  156.1868 H   0  0  0  0  0  0  0  0  0  0  0  0
  146.0276  138.5028  154.9452 H   0  0  0  0  0  0  0  0  0  0  0  0
  146.2861  139.7638  152.9285 H   0  0  0  0  0  0  0  0  0  0  0  0
  147.4641  140.8230  154.6700 H   0  0  0  0  0  0  0  0  0  0  0  0
  154.3818  137.4567  154.2426 H   0  0  0  0  0  0  0  0  0  0  0  0
  149.8926  136.9314  154.1366 H   0  0  0  0  0  0  0  0  0  0  0  0
  147.1067  136.2731  153.1454 H   0  0  0  0  0  0  0  0  0  0  0  0
  145.8574  136.1257  154.3731 H   0  0  0  0  0  0  0  0  0  0  0  0
  145.6430  137.7981  152.0994 H   0  0  0  0  0  0  0  0  0  0  0  0
  148.3549  139.3690  151.7574 H   0  0  0  0  0  0  0  0  0  0  0  0
  149.1374  140.3791  152.5291 H   0  0  0  0  0  0  0  0  0  0  0  0
  153.0077  140.3182  155.5694 H   0  0  0  0  0  0  0  0  0  0  0  0
  1  2  2  0  0  0  0
  1 22  1  0  0  0  0
  2 17  1  0  0  0  0
  2  3  1  0  0  0  0
  3  4  2  0  0  0  0
  4  5  1  0  0  0  0
  4 23  1  0  0  0  0
  5  6  1  0  0  0  0
  5 15  1  0  0  0  0
  6 18  1  0  0  0  0
  6 13  1  0  0  0  0
  6  7  1  0  0  0  0
  7  8  1  0  0  0  0
  8 19  1  0  0  0  0
  8  9  1  0  0  0  0
  8 11  1  0  0  0  0
  9 10  1  0  0  0  0
  9 24  1  0  0  0  0
  9 25  1  0  0  0  0
 10 26  1  0  0  0  0
 11 20  1  0  0  0  0
 11 12  1  0  0  0  0
 11 13  1  0  0  0  0
 12 27  1  0  0  0  0
 13 21  1  0  0  0  0
 13 14  1  0  0  0  0
 14 28  1  0  0  0  0
 15 16  2  0  0  0  0
 15 17  1  0  0  0  0
 17 29  1  0  0  0  0
M  END
> <s_m_source_file>
AV-unprocessed.smi

> <i_m_source_file_index>
72

> <i_lp_mmshare_version>
43012

> <i_f3d_flags>
0

> <s_epik_input>
W05IMl1jMW5bY0hdbihjKD1PKW4xKVtDQEBIXTJPW0NASF0oW0NIMl1bT0hdKVtDQEBIXShbT0hdKVtDQEhdMltPSF0=

> <s_epik_cmdline>
J2VwaWtfcHl0aG9uJywgJy1waCcsICc3LjAnLCAnLXRuJywgJzgnLCAnLW1hJywgJzIwMCcsICctbWV0YWxfYmluZGluZycsICctaW1hZScsICc8aW5maWxlLm1hZT4nLCAnLW9tYWUnLCAnPG91dGZpbGUubWFlPic=

> <r_lp_tautomer_probability>
7.17554e-07

> <r_epik_Ionization_Penalty>
0.0066451

> <r_epik_Ionization_Penalty_Charging>
0.00663793

> <r_epik_Ionization_Penalty_Neutral>
7.17052e-06

> <r_epik_State_Penalty>
0.419231

> <r_epik_Charging_Adjusted_Penalty>
0.425868

> <i_epik_Tot_Q>
0

> <i_epik_Tot_abs_Q>
0

> <r_epik_Metal_State_Penalty>
1.44144

> <b_epik_Metal_Only>
0

> <s_epik_Chemistry_Notes>
This compound contains an acetal/aminal-like group ( X-CH(R)-Y where X, Y are N, S, or O) that may be acid/base labile, releasing an aldehyde.

> <s_lp_Force_Field>
OPLS_2005

> <r_lp_Energy>
49.9877

> <b_lp_Chiralities_Consistent>
1

> <s_lp_Variant>
AV-unprocessed.smi:72-13

> <Gold.Version>
5.8.1

> <Gold.Id.Protein>
6NUR|6NUR_protein|mol2

> <Gold.PLP.Fitness>
38.2442

> <Gold.PLP.PLP>
-25.8835

> <Gold.PLP.part.hbond>
-6.5619

> <Gold.PLP.part.metal>
0.0000

> <Gold.PLP.part.buried>
-6.1265

> <Gold.PLP.part.nonpolar>
-15.3561

> <Gold.PLP.part.repulsive>
1.0451

> <Gold.PLP.ligand.clash>
0.0000

> <Gold.PLP.ligand.torsion>
0.4601

> <Gold.PLP.Chemscore.Hbond>
3.4248

> <Gold.PLP.Chemscore.CHOScore>
1.0000

> <Gold.PLP.Chemscore.Metal>
0.0000

> <Gold.Chemscore.Hbonds>
donor molecule, donor type, donor heavy atom, donor atom, acceptor molecule, acceptor atom, score
      L1  H    12    27       P1  7957  0.96
      L1  H    14    28       P1  7957  0.88
      P1  H  7997  8009       L1     1  0.43
      P1  H  8011  8017       L1    14  0.15
      P1  H 10752 10765       L1     3  0.95
      L1  C     4    23       P1  7948  1.00

> <Gold.PLP.Chemscore.Internal.Correction>
0.0065

> <Gold.Rescore>
     Score         DG    S(hbond)    S(metal)    S(lipo)     H(rot)  DE(clash)    DE(int)     intcor
      6.63      -7.32       3.21        0.00      12.96       4.06       0.00       0.68       ----

> <Gold.Chemscore.Fitness>
6.6309

> <Gold.Chemscore.DG>
-7.3192

> <Gold.Chemscore.ZeroCoef>
-5.4800

> <Gold.Chemscore.Hbond>
3.2086

> <Gold.Chemscore.Metal>
0.0000

> <Gold.Chemscore.Lipo>
12.9579

> <Gold.Chemscore.Internal_Hbond>
0.0000

> <Gold.Chemscore.DEClash>
0.0048

> <Gold.Chemscore.DEInternal>
0.6835

> <Gold.Chemscore.Rot>
4.0600

> <Gold.Chemscore.Internal.Correction>
   9.000000E+99

> <Gold.Chemscore.Hbonds>
donor molecule, donor type, donor heavy atom, donor atom, acceptor molecule, acceptor atom, score
      L1  H    12    27       P1  7957  0.89
      L1  H    14    28       P1  7957  0.85
      P1  H  7997  8009       L1     1  0.11
      P1  H 10752 10765       L1     3  0.47

> <Gold.Chemscore.Hbond.Weighted>
-10.7167

> <Gold.Chemscore.Metal.Weighted>
-0.0000

> <Gold.Chemscore.Lipo.Weighted>
-1.5161

> <Gold.Chemscore.Internal_Hbond.Weighted>
0.0000

> <Gold.Chemscore.DEClash.Weighted>
0.0048

> <Gold.Chemscore.DEInternal.Weighted>
0.6835

> <Gold.Chemscore.Rot.Weighted>
10.3936

> <Gold.Chemscore.Internal.Correction.Weighted>
   9.000000E+99

> <Gold.Protein.RotatedTorsions>
[ 6907 6896 6895 6894 ] final  -12.52 input  -60.11 | X-H torsion
[ 7974 7965 7964 7962 ] final  -73.87 input  175.53 | X-H torsion
[ 8008 7997 7996 7995 ] final -117.22 input   59.86 | X-H torsion
[ 10167 10162 10161 10158 ] final  -19.38 input  -65.29 | X-H torsion
[ 10718 10713 10712 10709 ] final  163.15 input   66.30 | X-H torsion
[ 10763 10752 10751 10750 ] final  158.64 input  -60.55 | X-H torsion
[ 11005 11000 10999 10996 ] final  174.65 input  -57.11 | X-H torsion

> <Gold.Protein.ActiveResidues>
 VAL166  LYS551  ARG553  GLY616  TRP617  ASP618  TYR619  PRO620  LYS621  CYS622 
 ASP623  PHE694  ASN695  SER759  ASP760  ASP761  ALA762  ILE779  LEU786  VAL792 
 PHE793  MET794  SER795  GLU796  ALA797  LYS798  CYS799  TRP800  GLU811  SER814 

> <Gold.Protein.RotatedAtoms>
  151.3693  135.0919  159.9459 H   0  0  0  0  0  0  0  0  0  0  0  0  # atno 6907 bound_to 6896
  152.5140  133.9181  159.7531 H   0  0  0  0  0  0  0  0  0  0  0  0  # atno 6908 bound_to 6896
  150.9591  133.6410  159.2787 H   0  0  0  0  0  0  0  0  0  0  0  0  # atno 6909 bound_to 6896
  145.6465  140.9295  143.1007 H   0  0  0  0  0  0  0  0  0  0  0  0  # atno 7974 bound_to 7965
  155.0802  140.0394  157.2637 H   0  0  0  0  0  0  0  0  0  0  0  0  # atno 8008 bound_to 7997
  154.6912  140.2654  155.6786 H   0  0  0  0  0  0  0  0  0  0  0  0  # atno 8009 bound_to 7997
  156.2729  140.2759  156.1491 H   0  0  0  0  0  0  0  0  0  0  0  0  # atno 8010 bound_to 7997
  140.7268  143.4824  151.0099 H   0  0  0  0  0  0  0  0  0  0  0  0  # atno 10167 bound_to 10162
  157.1126  131.0471  151.2450 H   0  0  0  0  0  0  0  0  0  0  0  0  # atno 10718 bound_to 10713
  154.2192  135.2783  155.2931 H   0  0  0  0  0  0  0  0  0  0  0  0  # atno 10763 bound_to 10752
  154.5715  135.5617  153.7103 H   0  0  0  0  0  0  0  0  0  0  0  0  # atno 10764 bound_to 10752
  153.0045  135.6322  154.2332 H   0  0  0  0  0  0  0  0  0  0  0  0  # atno 10765 bound_to 10752
  140.3536  134.7174  157.4284 H   0  0  0  0  0  0  0  0  0  0  0  0  # atno 11005 bound_to 11000
  144.7138  139.8272  143.7405 LP  0  0  0  0  0  0  0  0  0  0  0  0  # atno 17320 bound_to 7965
  146.1238  139.4261  143.0211 LP  0  0  0  0  0  0  0  0  0  0  0  0  # atno 17321 bound_to 7965
  139.8524  143.7421  152.3177 LP  0  0  0  0  0  0  0  0  0  0  0  0  # atno 17342 bound_to 10162
  139.7608  144.7507  151.0367 LP  0  0  0  0  0  0  0  0  0  0  0  0  # atno 17343 bound_to 10162
  157.4546  130.7618  149.7181 LP  0  0  0  0  0  0  0  0  0  0  0  0  # atno 17370 bound_to 10713
  155.9847  130.3989  150.3299 LP  0  0  0  0  0  0  0  0  0  0  0  0  # atno 17371 bound_to 10713
  140.0683  134.5898  155.8670 LP  0  0  0  0  0  0  0  0  0  0  0  0  # atno 17394 bound_to 11000
  141.2005  133.6613  156.5899 LP  0  0  0  0  0  0  0  0  0  0  0  0  # atno 17395 bound_to 11000

$$$$
