AV-unprocessed.smi:931|AV-procd|sdf|4198|dock8
  -GOLD-   22720 2103D 1   1.00000     0.00000
 Structure written by MMmdl.
 36 37  0  0  0  0  0  0  0  0  1 V2000
  153.2250  142.4977  162.9646 C   0  0  0  0  0  0  0  0  0  0  0  0
  153.0757  143.0923  161.5570 C   0  0  0  0  0  0  0  0  0  0  0  0
  152.0992  144.2762  161.5032 C   0  0  0  0  0  0  0  0  0  0  0  0
  152.7518  142.0471  160.5360 C   0  0  0  0  0  0  0  0  0  0  0  0
  151.7175  142.1276  159.6929 N   0  0  0  0  0  0  0  0  0  0  0  0
  151.6279  141.0233  158.8400 C   0  0  0  0  0  0  0  0  0  0  0  0
  150.5338  140.9519  157.8189 C   0  0  0  0  0  0  0  0  0  0  0  0
  150.6742  142.0443  156.7455 C   0  0  0  0  0  0  0  0  0  0  0  0
  149.5600  142.0270  155.8047 N   0  0  0  0  0  0  0  0  0  0  0  0
  149.3880  141.1179  154.8320 C   0  0  0  0  0  0  0  0  0  0  0  0
  150.1437  140.1645  154.6455 O   0  0  0  0  0  0  0  0  0  0  0  0
  148.2597  141.3066  154.1290 N   0  0  0  0  0  0  0  0  0  0  0  0
  147.3537  140.3432  153.5102 C   0  0  0  0  0  0  0  0  0  0  0  0
  146.3915  141.5125  153.3150 C   0  0  0  0  0  0  0  0  0  0  0  0
  147.2226  142.3143  154.3137 C   0  0  0  0  0  0  0  0  0  0  0  0
  152.6186  140.0969  159.0490 C   0  0  0  0  0  0  0  0  0  0  0  0
  153.6990  140.5779  160.3277 S   0  0  0  0  0  0  0  0  0  0  0  0
  153.9856  141.7167  162.9812 H   0  0  0  0  0  0  0  0  0  0  0  0
  152.2889  142.0596  163.3121 H   0  0  0  0  0  0  0  0  0  0  0  0
  153.5213  143.2616  163.6839 H   0  0  0  0  0  0  0  0  0  0  0  0
  154.0546  143.4904  161.2872 H   0  0  0  0  0  0  0  0  0  0  0  0
  152.0864  144.7288  160.5114 H   0  0  0  0  0  0  0  0  0  0  0  0
  152.3822  145.0513  162.2160 H   0  0  0  0  0  0  0  0  0  0  0  0
  151.0819  143.9625  161.7402 H   0  0  0  0  0  0  0  0  0  0  0  0
  150.5369  139.9688  157.3467 H   0  0  0  0  0  0  0  0  0  0  0  0
  149.5631  141.0438  158.3079 H   0  0  0  0  0  0  0  0  0  0  0  0
  150.7030  143.0271  157.2168 H   0  0  0  0  0  0  0  0  0  0  0  0
  151.6164  141.9303  156.2070 H   0  0  0  0  0  0  0  0  0  0  0  0
  148.8709  142.7590  155.8973 H   0  0  0  0  0  0  0  0  0  0  0  0
  147.7136  139.9104  152.5762 H   0  0  0  0  0  0  0  0  0  0  0  0
  146.9834  139.5818  154.1986 H   0  0  0  0  0  0  0  0  0  0  0  0
  146.4260  141.9269  152.3061 H   0  0  0  0  0  0  0  0  0  0  0  0
  145.3687  141.3139  153.6367 H   0  0  0  0  0  0  0  0  0  0  0  0
  146.8009  142.3331  155.3200 H   0  0  0  0  0  0  0  0  0  0  0  0
  147.4895  143.3124  153.9644 H   0  0  0  0  0  0  0  0  0  0  0  0
  152.7793  139.1652  158.5268 H   0  0  0  0  0  0  0  0  0  0  0  0
  1  2  1  0  0  0  0
  1 18  1  0  0  0  0
  1 19  1  0  0  0  0
  1 20  1  0  0  0  0
  2  3  1  0  0  0  0
  2  4  1  0  0  0  0
  2 21  1  0  0  0  0
  3 22  1  0  0  0  0
  3 23  1  0  0  0  0
  3 24  1  0  0  0  0
  4 17  1  0  0  0  0
  4  5  2  0  0  0  0
  5  6  1  0  0  0  0
  6  7  1  0  0  0  0
  6 16  2  0  0  0  0
  7  8  1  0  0  0  0
  7 25  1  0  0  0  0
  7 26  1  0  0  0  0
  8  9  1  0  0  0  0
  8 27  1  0  0  0  0
  8 28  1  0  0  0  0
  9 10  1  0  0  0  0
  9 29  1  0  0  0  0
 10 11  2  0  0  0  0
 10 12  1  0  0  0  0
 12 15  1  0  0  0  0
 12 13  1  0  0  0  0
 13 14  1  0  0  0  0
 13 30  1  0  0  0  0
 13 31  1  0  0  0  0
 14 15  1  0  0  0  0
 14 32  1  0  0  0  0
 14 33  1  0  0  0  0
 15 34  1  0  0  0  0
 15 35  1  0  0  0  0
 16 17  1  0  0  0  0
 16 36  1  0  0  0  0
M  END
> <s_m_source_file>
AV-unprocessed.smi

> <i_m_source_file_index>
931

> <i_lp_mmshare_version>
43012

> <i_f3d_flags>
0

> <s_epik_input>
W0NIM11bQ0hdKFtDSDNdKWMxbmMoW2NIXXMxKVtDSDJdW0NIMl1bTkhdQyg9TylOMltDSDJdW0NIMl1bQ0gyXTI=

> <s_epik_cmdline>
J2VwaWtfcHl0aG9uJywgJy1waCcsICc3LjAnLCAnLXRuJywgJzgnLCAnLW1hJywgJzIwMCcsICctbWV0YWxfYmluZGluZycsICctaW1hZScsICc8aW5maWxlLm1hZT4nLCAnLW9tYWUnLCAnPG91dGZpbGUubWFlPic=

> <r_epik_Ionization_Penalty>
0.00159927

> <r_epik_Ionization_Penalty_Charging>
0

> <r_epik_Ionization_Penalty_Neutral>
0.00159927

> <r_epik_State_Penalty>
0.00102964

> <r_epik_Charging_Adjusted_Penalty>
0.00102964

> <i_epik_Tot_Q>
0

> <i_epik_Tot_abs_Q>
0

> <r_epik_Metal_State_Penalty>
-0

> <b_epik_Metal_Only>
0

> <s_lp_Force_Field>
OPLS_2005

> <r_lp_Energy>
8.94744

> <b_lp_Chiralities_Consistent>
1

> <s_lp_Variant>
AV-unprocessed.smi:931-1

> <Gold.Version>
5.8.1

> <Gold.Id.Protein>
6NUR|6NUR_protein|mol2

> <Gold.PLP.Fitness>
45.1762

> <Gold.PLP.PLP>
-40.1031

> <Gold.PLP.part.hbond>
-2.0000

> <Gold.PLP.part.metal>
0.0000

> <Gold.PLP.part.buried>
-3.2803

> <Gold.PLP.part.nonpolar>
-34.2181

> <Gold.PLP.part.repulsive>
0.2231

> <Gold.PLP.ligand.clash>
0.0000

> <Gold.PLP.ligand.torsion>
0.4081

> <Gold.PLP.Chemscore.Hbond>
1.8320

> <Gold.PLP.Chemscore.CHOScore>
0.0000

> <Gold.PLP.Chemscore.Metal>
0.0000

> <Gold.Chemscore.Hbonds>
donor molecule, donor type, donor heavy atom, donor atom, acceptor molecule, acceptor atom, score
      L1  H     9    29       P1  8028  0.70
      P1  H  7989  7998       L1    11  1.00

> <Gold.PLP.Chemscore.Internal.Correction>
0.3932

> <Gold.Rescore>
     Score         DG    S(hbond)    S(metal)    S(lipo)     H(rot)  DE(clash)    DE(int)     intcor
     17.25     -18.43       1.37        0.00     104.03       1.48       0.44       0.74       ----

> <Gold.Chemscore.Fitness>
17.2521

> <Gold.Chemscore.DG>
-18.4328

> <Gold.Chemscore.ZeroCoef>
-5.4800

> <Gold.Chemscore.Hbond>
1.3719

> <Gold.Chemscore.Metal>
0.0000

> <Gold.Chemscore.Lipo>
104.0302

> <Gold.Chemscore.Internal_Hbond>
0.0000

> <Gold.Chemscore.DEClash>
0.4390

> <Gold.Chemscore.DEInternal>
0.7416

> <Gold.Chemscore.Rot>
1.4847

> <Gold.Chemscore.Internal.Correction>
   9.000000E+99

> <Gold.Chemscore.Hbonds>
donor molecule, donor type, donor heavy atom, donor atom, acceptor molecule, acceptor atom, score
      L1  H     9    29       P1  8028  0.69
      P1  H  7989  7998       L1    11  0.47

> <Gold.Chemscore.Hbond.Weighted>
-4.5822

> <Gold.Chemscore.Metal.Weighted>
-0.0000

> <Gold.Chemscore.Lipo.Weighted>
-12.1715

> <Gold.Chemscore.Internal_Hbond.Weighted>
0.0000

> <Gold.Chemscore.DEClash.Weighted>
0.4390

> <Gold.Chemscore.DEInternal.Weighted>
0.7416

> <Gold.Chemscore.Rot.Weighted>
3.8009

> <Gold.Chemscore.Internal.Correction.Weighted>
   9.000000E+99

> <Gold.Protein.RotatedTorsions>
[ 6907 6896 6895 6894 ] final  -57.08 input  -60.11 | X-H torsion
[ 7974 7965 7964 7962 ] final  125.05 input  175.53 | X-H torsion
[ 8008 7997 7996 7995 ] final -137.55 input   59.86 | X-H torsion
[ 10167 10162 10161 10158 ] final   84.79 input  -65.29 | X-H torsion
[ 10718 10713 10712 10709 ] final  165.32 input   66.30 | X-H torsion
[ 10763 10752 10751 10750 ] final -149.70 input  -60.55 | X-H torsion
[ 11005 11000 10999 10996 ] final  -28.72 input  -57.11 | X-H torsion

> <Gold.Protein.ActiveResidues>
 VAL166  LYS551  ARG553  GLY616  TRP617  ASP618  TYR619  PRO620  LYS621  CYS622 
 ASP623  PHE694  ASN695  SER759  ASP760  ASP761  ALA762  ILE779  LEU786  VAL792 
 PHE793  MET794  SER795  GLU796  ALA797  LYS798  CYS799  TRP800  GLU811  SER814 

> <Gold.Protein.RotatedAtoms>
  150.8115  134.7272  159.6691 H   0  0  0  0  0  0  0  0  0  0  0  0  # atno 6907 bound_to 6896
  152.4235  134.5909  159.9983 H   0  0  0  0  0  0  0  0  0  0  0  0  # atno 6908 bound_to 6896
  151.6117  133.3309  159.3105 H   0  0  0  0  0  0  0  0  0  0  0  0  # atno 6909 bound_to 6896
  145.0774  139.3683  143.4926 H   0  0  0  0  0  0  0  0  0  0  0  0  # atno 7974 bound_to 7965
  155.4137  140.0514  157.3030 H   0  0  0  0  0  0  0  0  0  0  0  0  # atno 8008 bound_to 7997
  154.4934  140.2129  155.9458 H   0  0  0  0  0  0  0  0  0  0  0  0  # atno 8009 bound_to 7997
  156.1373  140.3161  155.8446 H   0  0  0  0  0  0  0  0  0  0  0  0  # atno 8010 bound_to 7997
  139.9044  144.6310  150.8603 H   0  0  0  0  0  0  0  0  0  0  0  0  # atno 10167 bound_to 10162
  157.0819  131.0394  151.2572 H   0  0  0  0  0  0  0  0  0  0  0  0  # atno 10718 bound_to 10713
  154.8162  135.3302  154.7169 H   0  0  0  0  0  0  0  0  0  0  0  0  # atno 10763 bound_to 10752
  153.7809  135.6918  153.4893 H   0  0  0  0  0  0  0  0  0  0  0  0  # atno 10764 bound_to 10752
  153.1981  135.4526  155.0180 H   0  0  0  0  0  0  0  0  0  0  0  0  # atno 10765 bound_to 10752
  140.9233  133.7385  156.0832 H   0  0  0  0  0  0  0  0  0  0  0  0  # atno 11005 bound_to 11000
  146.3530  140.0548  142.8633 LP  0  0  0  0  0  0  0  0  0  0  0  0  # atno 17320 bound_to 7965
  145.1219  140.9467  143.4595 LP  0  0  0  0  0  0  0  0  0  0  0  0  # atno 17321 bound_to 7965
  140.7699  143.3412  151.2204 LP  0  0  0  0  0  0  0  0  0  0  0  0  # atno 17342 bound_to 10162
  139.6997  143.9554  152.2899 LP  0  0  0  0  0  0  0  0  0  0  0  0  # atno 17343 bound_to 10162
  157.4793  130.7755  149.7398 LP  0  0  0  0  0  0  0  0  0  0  0  0  # atno 17370 bound_to 10713
  155.9921  130.3933  150.2955 LP  0  0  0  0  0  0  0  0  0  0  0  0  # atno 17371 bound_to 10713
  140.7959  134.3564  157.5452 LP  0  0  0  0  0  0  0  0  0  0  0  0  # atno 17394 bound_to 11000
  139.8780  134.9168  156.3164 LP  0  0  0  0  0  0  0  0  0  0  0  0  # atno 17395 bound_to 11000

$$$$
