AV-unprocessed.smi:490|AV-procd|sdf|2705|dock8
  -GOLD-   2262023143D 1   1.00000     0.00000
 Structure written by MMmdl.
 50 52  0  0  0  0  0  0  0  0  2 V2000
  154.4998  140.1318  160.7868 C   0  0  0  0  0  0  0  0  0  0  0  0
  153.5394  141.1965  160.2851 C   0  0  0  0  0  0  0  0  0  0  0  0
  153.3416  142.3569  161.0610 C   0  0  0  0  0  0  0  0  0  0  0  0
  152.4578  143.3608  160.6281 C   0  0  0  0  0  0  0  0  0  0  0  0
  151.7696  143.2202  159.4078 C   0  0  0  0  0  0  0  0  0  0  0  0
  150.8171  144.3107  158.9541 C   0  0  0  0  0  0  0  0  0  0  0  0
  151.9746  142.0690  158.6132 C   0  0  0  0  0  0  0  0  0  0  0  0
  151.3099  141.9547  157.4189 O   0  0  0  0  0  0  0  0  0  0  0  0
  150.3709  140.8891  157.3940 C   0  0  0  0  0  0  0  0  0  0  0  0
  149.0177  141.4197  156.8969 C   0  0  2  0  0  0  0  0  0  0  0  0
  148.6565  142.5399  157.6807 O   0  0  0  0  0  0  0  0  0  0  0  0
  147.9126  140.3492  156.9988 C   0  0  0  0  0  0  0  0  0  0  0  0
  146.6668  140.7419  156.3195 N   0  0  0  0  0  0  0  0  0  0  0  0
  146.4129  140.9121  154.9898 C   0  0  0  0  0  0  0  0  0  0  0  0
  147.3765  140.7364  153.8626 C   0  0  0  0  0  0  0  0  0  0  0  0
  146.7467  140.8004  152.6025 O   0  0  0  0  0  0  0  0  0  0  0  0
  145.1024  141.2656  154.8702 N   0  3  0  0  0  0  0  0  0  0  0  0
  144.5124  141.3268  156.1329 C   0  0  0  0  0  0  0  0  0  0  0  0
  143.2118  141.6414  156.5145 C   0  0  0  0  0  0  0  0  0  0  0  0
  142.9337  141.6138  157.8966 C   0  0  0  0  0  0  0  0  0  0  0  0
  143.9288  141.2828  158.8389 C   0  0  0  0  0  0  0  0  0  0  0  0
  145.2436  140.9635  158.4397 C   0  0  0  0  0  0  0  0  0  0  0  0
  145.5114  140.9926  157.0707 C   0  0  0  0  0  0  0  0  0  0  0  0
  152.8450  141.0419  159.0589 C   0  0  0  0  0  0  0  0  0  0  0  0
  153.0330  139.7809  158.2260 C   0  0  0  0  0  0  0  0  0  0  0  0
  155.0449  140.4722  161.6677 H   0  0  0  0  0  0  0  0  0  0  0  0
  155.2328  139.8811  160.0196 H   0  0  0  0  0  0  0  0  0  0  0  0
  153.9567  139.2264  161.0582 H   0  0  0  0  0  0  0  0  0  0  0  0
  153.8649  142.4816  161.9978 H   0  0  0  0  0  0  0  0  0  0  0  0
  152.3124  144.2410  161.2371 H   0  0  0  0  0  0  0  0  0  0  0  0
  149.8850  143.8800  158.5870 H   0  0  0  0  0  0  0  0  0  0  0  0
  151.2663  144.8956  158.1515 H   0  0  0  0  0  0  0  0  0  0  0  0
  150.5722  144.9877  159.7730 H   0  0  0  0  0  0  0  0  0  0  0  0
  150.7381  140.1270  156.7046 H   0  0  0  0  0  0  0  0  0  0  0  0
  150.2733  140.4104  158.3698 H   0  0  0  0  0  0  0  0  0  0  0  0
  149.1107  141.7347  155.8570 H   0  0  0  0  0  0  0  0  0  0  0  0
  148.7958  143.3216  157.1687 H   0  0  0  0  0  0  0  0  0  0  0  0
  148.2506  139.4239  156.5309 H   0  0  0  0  0  0  0  0  0  0  0  0
  147.6975  140.0977  158.0374 H   0  0  0  0  0  0  0  0  0  0  0  0
  148.1425  141.5107  153.9150 H   0  0  0  0  0  0  0  0  0  0  0  0
  147.8834  139.7766  153.9618 H   0  0  0  0  0  0  0  0  0  0  0  0
  145.8290  140.9850  152.7335 H   0  0  0  0  0  0  0  0  0  0  0  0
  142.4482  141.8954  155.7941 H   0  0  0  0  0  0  0  0  0  0  0  0
  141.9373  141.8516  158.2405 H   0  0  0  0  0  0  0  0  0  0  0  0
  143.6789  141.2736  159.8901 H   0  0  0  0  0  0  0  0  0  0  0  0
  145.9966  140.7148  159.1722 H   0  0  0  0  0  0  0  0  0  0  0  0
  152.2540  139.6654  157.4728 H   0  0  0  0  0  0  0  0  0  0  0  0
  153.0010  138.8902  158.8534 H   0  0  0  0  0  0  0  0  0  0  0  0
  153.9958  139.8082  157.7158 H   0  0  0  0  0  0  0  0  0  0  0  0
  144.6464  141.4483  153.9856 H   0  0  0  0  0  0  0  0  0  0  0  0
  1  2  1  0  0  0  0
  1 26  1  0  0  0  0
  1 27  1  0  0  0  0
  1 28  1  0  0  0  0
  2 24  1  0  0  0  0
  2  3  2  0  0  0  0
  3  4  1  0  0  0  0
  3 29  1  0  0  0  0
  4  5  2  0  0  0  0
  4 30  1  0  0  0  0
  5  6  1  0  0  0  0
  5  7  1  0  0  0  0
  6 31  1  0  0  0  0
  6 32  1  0  0  0  0
  6 33  1  0  0  0  0
  7  8  1  0  0  0  0
  7 24  2  0  0  0  0
  8  9  1  0  0  0  0
  9 10  1  0  0  0  0
  9 34  1  0  0  0  0
  9 35  1  0  0  0  0
 10 11  1  0  0  0  0
 10 12  1  0  0  0  0
 10 36  1  0  0  0  0
 11 37  1  0  0  0  0
 12 13  1  0  0  0  0
 12 38  1  0  0  0  0
 12 39  1  0  0  0  0
 13 23  1  0  0  0  0
 13 14  1  0  0  0  0
 14 15  1  0  0  0  0
 14 17  2  0  0  0  0
 15 16  1  0  0  0  0
 15 40  1  0  0  0  0
 15 41  1  0  0  0  0
 16 42  1  0  0  0  0
 17 18  1  0  0  0  0
 17 50  1  0  0  0  0
 18 23  2  0  0  0  0
 18 19  1  0  0  0  0
 19 20  2  0  0  0  0
 19 43  1  0  0  0  0
 20 21  1  0  0  0  0
 20 44  1  0  0  0  0
 21 22  2  0  0  0  0
 21 45  1  0  0  0  0
 22 23  1  0  0  0  0
 22 46  1  0  0  0  0
 24 25  1  0  0  0  0
 25 47  1  0  0  0  0
 25 48  1  0  0  0  0
 25 49  1  0  0  0  0
M  CHG  1  17   1
M  END
> <s_m_source_file>
AV-unprocessed.smi

> <i_m_source_file_index>
490

> <i_lp_mmshare_version>
43012

> <i_f3d_flags>
0

> <s_epik_input>
W0NIM11jMVtjSF1bY0hdYyhbQ0gzXSljKGMxW0NIM10pT1tDSDJdW0NASF0oW09IXSlbQ0gyXW4oYyhuMilbQ0gyXVtPSF0pYyhjMjMpW2NIXVtjSF1bY0hdW2NIXTM=

> <s_epik_cmdline>
J2VwaWtfcHl0aG9uJywgJy1waCcsICc3LjAnLCAnLXRuJywgJzgnLCAnLW1hJywgJzIwMCcsICctbWV0YWxfYmluZGluZycsICctaW1hZScsICc8aW5maWxlLm1hZT4nLCAnLW9tYWUnLCAnPG91dGZpbGUubWFlPic=

> <r_lp_tautomer_probability>
1

> <r_epik_Ionization_Penalty>
1.43125

> <r_epik_Ionization_Penalty_Charging>
1.43039

> <r_epik_Ionization_Penalty_Neutral>
0.000858184

> <r_epik_State_Penalty>
1.51493

> <r_epik_Charging_Adjusted_Penalty>
2.94531

> <i_epik_Tot_Q>
1

> <i_epik_Tot_abs_Q>
1

> <r_epik_Metal_State_Penalty>
5.5599

> <b_epik_Metal_Only>
0

> <s_lp_Force_Field>
OPLS_2005

> <r_lp_Energy>
24.6054

> <b_lp_Chiralities_Consistent>
1

> <s_lp_Variant>
AV-unprocessed.smi:490-3

> <Gold.Version>
5.8.1

> <Gold.Id.Protein>
6NUR|6NUR_protein|mol2

> <Gold.PLP.Fitness>
47.5739

> <Gold.PLP.PLP>
-36.6187

> <Gold.PLP.part.hbond>
-3.4726

> <Gold.PLP.part.metal>
0.0000

> <Gold.PLP.part.buried>
-6.5599

> <Gold.PLP.part.nonpolar>
-27.9718

> <Gold.PLP.part.repulsive>
0.0528

> <Gold.PLP.ligand.clash>
0.0000

> <Gold.PLP.ligand.torsion>
0.5761

> <Gold.PLP.Chemscore.Hbond>
4.0000

> <Gold.PLP.Chemscore.CHOScore>
0.0000

> <Gold.PLP.Chemscore.Metal>
0.0000

> <Gold.Chemscore.Hbonds>
donor molecule, donor type, donor heavy atom, donor atom, acceptor molecule, acceptor atom, score
      L1  H    11    37       P1  8028  0.96
      L1  H    16    42       P1 10175  0.51
      L1  H    17    50       P1 10175  1.70

> <Gold.PLP.Chemscore.Internal.Correction>
0.1075

> <Gold.Rescore>
     Score         DG    S(hbond)    S(metal)    S(lipo)     H(rot)  DE(clash)    DE(int)     intcor
     18.11     -19.73       2.89        0.00     105.49       3.02       0.00       1.63       ----

> <Gold.Chemscore.Fitness>
18.1064

> <Gold.Chemscore.DG>
-19.7319

> <Gold.Chemscore.ZeroCoef>
-5.4800

> <Gold.Chemscore.Hbond>
2.8851

> <Gold.Chemscore.Metal>
0.0000

> <Gold.Chemscore.Lipo>
105.4860

> <Gold.Chemscore.Internal_Hbond>
0.0000

> <Gold.Chemscore.DEClash>
0.0004

> <Gold.Chemscore.DEInternal>
1.6251

> <Gold.Chemscore.Rot>
3.0180

> <Gold.Chemscore.Internal.Correction>
   9.000000E+99

> <Gold.Chemscore.Hbonds>
donor molecule, donor type, donor heavy atom, donor atom, acceptor molecule, acceptor atom, score
      L1  H    11    37       P1  8028  0.41
      L1  H    16    42       P1 10175  0.10
      L1  H    17    50       P1 10175  0.24

> <Gold.Chemscore.Hbond.Weighted>
-9.6361

> <Gold.Chemscore.Metal.Weighted>
-0.0000

> <Gold.Chemscore.Lipo.Weighted>
-12.3419

> <Gold.Chemscore.Internal_Hbond.Weighted>
0.0000

> <Gold.Chemscore.DEClash.Weighted>
0.0004

> <Gold.Chemscore.DEInternal.Weighted>
1.6251

> <Gold.Chemscore.Rot.Weighted>
7.7260

> <Gold.Chemscore.Internal.Correction.Weighted>
   9.000000E+99

> <Gold.Protein.RotatedTorsions>
[ 6907 6896 6895 6894 ] final  178.76 input  -60.11 | X-H torsion
[ 7974 7965 7964 7962 ] final -147.43 input  175.53 | X-H torsion
[ 8008 7997 7996 7995 ] final  -94.65 input   59.86 | X-H torsion
[ 10167 10162 10161 10158 ] final   83.20 input  -65.29 | X-H torsion
[ 10718 10713 10712 10709 ] final   75.31 input   66.30 | X-H torsion
[ 10763 10752 10751 10750 ] final -164.15 input  -60.55 | X-H torsion
[ 11005 11000 10999 10996 ] final -173.32 input  -57.11 | X-H torsion

> <Gold.Protein.ActiveResidues>
 VAL166  LYS551  ARG553  GLY616  TRP617  ASP618  TYR619  PRO620  LYS621  CYS622 
 ASP623  PHE694  ASN695  SER759  ASP760  ASP761  ALA762  ILE779  LEU786  VAL792 
 PHE793  MET794  SER795  GLU796  ALA797  LYS798  CYS799  TRP800  GLU811  SER814 

> <Gold.Protein.RotatedAtoms>
  151.6826  133.3312  159.3222 H   0  0  0  0  0  0  0  0  0  0  0  0  # atno 6907 bound_to 6896
  150.7816  134.6768  159.6431 H   0  0  0  0  0  0  0  0  0  0  0  0  # atno 6908 bound_to 6896
  152.3875  134.6498  160.0172 H   0  0  0  0  0  0  0  0  0  0  0  0  # atno 6909 bound_to 6896
  144.8094  140.5327  143.5653 H   0  0  0  0  0  0  0  0  0  0  0  0  # atno 7974 bound_to 7965
  154.7512  140.0487  157.0894 H   0  0  0  0  0  0  0  0  0  0  0  0  # atno 8008 bound_to 7997
  155.0055  140.3130  155.4831 H   0  0  0  0  0  0  0  0  0  0  0  0  # atno 8009 bound_to 7997
  156.2885  140.2193  156.5167 H   0  0  0  0  0  0  0  0  0  0  0  0  # atno 8010 bound_to 7997
  139.9208  144.6214  150.8442 H   0  0  0  0  0  0  0  0  0  0  0  0  # atno 10167 bound_to 10162
  157.6629  130.9720  150.1336 H   0  0  0  0  0  0  0  0  0  0  0  0  # atno 10718 bound_to 10713
  154.7056  135.2996  154.9275 H   0  0  0  0  0  0  0  0  0  0  0  0  # atno 10763 bound_to 10752
  154.0194  135.6684  153.4775 H   0  0  0  0  0  0  0  0  0  0  0  0  # atno 10764 bound_to 10752
  153.0714  135.5058  154.8225 H   0  0  0  0  0  0  0  0  0  0  0  0  # atno 10765 bound_to 10752
  140.4871  134.6020  157.4941 H   0  0  0  0  0  0  0  0  0  0  0  0  # atno 11005 bound_to 11000
  145.5361  139.1475  143.3473 LP  0  0  0  0  0  0  0  0  0  0  0  0  # atno 17320 bound_to 7965
  146.2390  140.5501  142.8942 LP  0  0  0  0  0  0  0  0  0  0  0  0  # atno 17321 bound_to 7965
  140.7662  143.3298  151.2435 LP  0  0  0  0  0  0  0  0  0  0  0  0  # atno 17342 bound_to 10162
  139.6863  143.9768  152.2836 LP  0  0  0  0  0  0  0  0  0  0  0  0  # atno 17343 bound_to 10162
  156.2176  130.3671  149.8594 LP  0  0  0  0  0  0  0  0  0  0  0  0  # atno 17370 bound_to 10713
  156.6456  130.8722  151.3522 LP  0  0  0  0  0  0  0  0  0  0  0  0  # atno 17371 bound_to 10713
  139.9791  134.7166  155.9893 LP  0  0  0  0  0  0  0  0  0  0  0  0  # atno 17394 bound_to 11000
  141.1502  133.6549  156.3991 LP  0  0  0  0  0  0  0  0  0  0  0  0  # atno 17395 bound_to 11000

$$$$
