AV-unprocessed.smi:767|AV-procd|sdf|3671|dock2
  -GOLD-   22720 1 83D 1   1.00000     0.00000
 Structure written by MMmdl.
 48 50  0  0  0  0  0  0  0  0  2 V2000
  143.8020  132.6746  148.5422 C   0  0  0  0  0  0  0  0  0  0  0  0
  144.3062  133.1390  149.8923 C   0  0  0  0  0  0  0  0  0  0  0  0
  145.6143  132.8575  150.3406 C   0  0  0  0  0  0  0  0  0  0  0  0
  146.0214  133.3155  151.6109 C   0  0  0  0  0  0  0  0  0  0  0  0
  145.1111  134.0426  152.4089 C   0  0  0  0  0  0  0  0  0  0  0  0
  145.5118  134.5389  153.7882 C   0  0  0  0  0  0  0  0  0  0  0  0
  146.9591  134.1802  154.1889 C   0  0  0  0  0  0  0  0  0  0  0  0
  147.8939  135.2976  154.0806 N   0  0  0  0  0  0  0  0  0  0  0  0
  148.0545  136.2665  154.9923 C   0  0  0  0  0  0  0  0  0  0  0  0
  147.4310  136.3284  156.0516 O   0  0  0  0  0  0  0  0  0  0  0  0
  148.9956  137.1447  154.6232 N   0  0  0  0  0  0  0  0  0  0  0  0
  149.4350  138.2787  155.4426 C   0  0  2  0  0  0  0  0  0  0  0  0
  148.6412  139.5571  155.1615 C   0  0  2  0  0  0  0  0  0  0  0  0
  147.3429  139.8857  154.5177 C   0  0  0  0  0  0  0  0  0  0  0  0
  147.8252  141.1415  153.7416 C   0  0  0  0  0  0  0  0  0  0  0  0
  149.2716  141.1542  153.8598 O   0  0  0  0  0  0  0  0  0  0  0  0
  149.6116  139.7918  154.0224 C   0  0  1  0  0  0  0  0  0  0  0  0
  150.6786  139.0766  154.8812 C   0  0  0  0  0  0  0  0  0  0  0  0
  151.4715  139.9376  155.8809 C   0  0  0  0  0  0  0  0  0  0  0  0
  151.7246  138.2781  154.0953 C   0  0  0  0  0  0  0  0  0  0  0  0
  143.8163  134.2962  151.9071 C   0  0  0  0  0  0  0  0  0  0  0  0
  143.4649  133.8403  150.6850 N   0  3  0  0  0  0  0  0  0  0  0  0
  144.6157  132.6465  147.8169 H   0  0  0  0  0  0  0  0  0  0  0  0
  143.0311  133.3445  148.1599 H   0  0  0  0  0  0  0  0  0  0  0  0
  143.3791  131.6729  148.6222 H   0  0  0  0  0  0  0  0  0  0  0  0
  146.2983  132.2969  149.7200 H   0  0  0  0  0  0  0  0  0  0  0  0
  147.0187  133.1061  151.9691 H   0  0  0  0  0  0  0  0  0  0  0  0
  145.3786  135.6207  153.8252 H   0  0  0  0  0  0  0  0  0  0  0  0
  144.8183  134.1305  154.5244 H   0  0  0  0  0  0  0  0  0  0  0  0
  146.9724  133.8580  155.2303 H   0  0  0  0  0  0  0  0  0  0  0  0
  147.3177  133.3333  153.6020 H   0  0  0  0  0  0  0  0  0  0  0  0
  148.4569  135.3379  153.2434 H   0  0  0  0  0  0  0  0  0  0  0  0
  149.4522  137.0172  153.7321 H   0  0  0  0  0  0  0  0  0  0  0  0
  149.5087  138.0544  156.5082 H   0  0  0  0  0  0  0  0  0  0  0  0
  148.7960  140.2442  155.9970 H   0  0  0  0  0  0  0  0  0  0  0  0
  147.0013  139.0959  153.8474 H   0  0  0  0  0  0  0  0  0  0  0  0
  146.5558  140.1124  155.2372 H   0  0  0  0  0  0  0  0  0  0  0  0
  147.5288  141.0872  152.6932 H   0  0  0  0  0  0  0  0  0  0  0  0
  147.4172  142.0613  154.1614 H   0  0  0  0  0  0  0  0  0  0  0  0
  149.3752  139.2312  153.1120 H   0  0  0  0  0  0  0  0  0  0  0  0
  152.1125  140.6528  155.3646 H   0  0  0  0  0  0  0  0  0  0  0  0
  152.1137  139.3206  156.5100 H   0  0  0  0  0  0  0  0  0  0  0  0
  150.8407  140.5139  156.5553 H   0  0  0  0  0  0  0  0  0  0  0  0
  152.4933  138.9266  153.6734 H   0  0  0  0  0  0  0  0  0  0  0  0
  151.2805  137.7370  153.2600 H   0  0  0  0  0  0  0  0  0  0  0  0
  152.2231  137.5442  154.7294 H   0  0  0  0  0  0  0  0  0  0  0  0
  143.0529  134.8385  152.4458 H   0  0  0  0  0  0  0  0  0  0  0  0
  142.5223  134.0338  150.3458 H   0  0  0  0  0  0  0  0  0  0  0  0
  1  2  1  0  0  0  0
  1 23  1  0  0  0  0
  1 24  1  0  0  0  0
  1 25  1  0  0  0  0
  2 22  1  0  0  0  0
  2  3  2  0  0  0  0
  3  4  1  0  0  0  0
  3 26  1  0  0  0  0
  4  5  2  0  0  0  0
  4 27  1  0  0  0  0
  5  6  1  0  0  0  0
  5 21  1  0  0  0  0
  6  7  1  0  0  0  0
  6 28  1  0  0  0  0
  6 29  1  0  0  0  0
  7  8  1  0  0  0  0
  7 30  1  0  0  0  0
  7 31  1  0  0  0  0
  8  9  1  0  0  0  0
  8 32  1  0  0  0  0
  9 10  2  0  0  0  0
  9 11  1  0  0  0  0
 11 12  1  0  0  0  0
 11 33  1  0  0  0  0
 12 18  1  0  0  0  0
 12 13  1  0  0  0  0
 12 34  1  0  0  0  0
 13 17  1  0  0  0  0
 13 14  1  0  0  0  0
 13 35  1  0  0  0  0
 14 15  1  0  0  0  0
 14 36  1  0  0  0  0
 14 37  1  0  0  0  0
 15 16  1  0  0  0  0
 15 38  1  0  0  0  0
 15 39  1  0  0  0  0
 16 17  1  0  0  0  0
 17 18  1  0  0  0  0
 17 40  1  0  0  0  0
 18 19  1  0  0  0  0
 18 20  1  0  0  0  0
 19 41  1  0  0  0  0
 19 42  1  0  0  0  0
 19 43  1  0  0  0  0
 20 44  1  0  0  0  0
 20 45  1  0  0  0  0
 20 46  1  0  0  0  0
 21 22  2  0  0  0  0
 21 47  1  0  0  0  0
 22 48  1  0  0  0  0
M  CHG  1  22   1
M  END
> <s_m_source_file>
AV-unprocessed.smi

> <i_m_source_file_index>
767

> <i_lp_mmshare_version>
43012

> <i_f3d_flags>
0

> <s_epik_input>
W0NIM11jMVtjSF1bY0hdYyhbY0hdbjEpW0NIMl1bQ0gyXVtOSF1DKD1PKVtOSF1bQ0BIXTJDKFtDSDNdKShbQ0gzXSlbQ0BIXShbQ0BASF0yMylPW0NIMl1bQ0gyXTM=

> <s_epik_cmdline>
J2VwaWtfcHl0aG9uJywgJy1waCcsICc3LjAnLCAnLXRuJywgJzgnLCAnLW1hJywgJzIwMCcsICctbWV0YWxfYmluZGluZycsICctaW1hZScsICc8aW5maWxlLm1hZT4nLCAnLW9tYWUnLCAnPG91dGZpbGUubWFlPic=

> <r_epik_Ionization_Penalty>
1.41853

> <r_epik_Ionization_Penalty_Charging>
1.41848

> <r_epik_Ionization_Penalty_Neutral>
5.17407e-05

> <r_epik_State_Penalty>
1.50205

> <r_epik_Charging_Adjusted_Penalty>
2.92053

> <i_epik_Tot_Q>
1

> <i_epik_Tot_abs_Q>
1

> <r_epik_Metal_State_Penalty>
1.5544

> <b_epik_Metal_Only>
0

> <s_lp_Force_Field>
OPLS_2005

> <r_lp_Energy>
65.9861

> <b_lp_Chiralities_Consistent>
1

> <s_lp_Variant>
AV-unprocessed.smi:767-15

> <Gold.Version>
5.8.1

> <Gold.Id.Protein>
6NUR|6NUR_protein|mol2

> <Gold.PLP.Fitness>
48.0886

> <Gold.PLP.PLP>
-35.4547

> <Gold.PLP.part.hbond>
-5.0000

> <Gold.PLP.part.metal>
0.0000

> <Gold.PLP.part.buried>
-3.4983

> <Gold.PLP.part.nonpolar>
-27.9173

> <Gold.PLP.part.repulsive>
1.4780

> <Gold.PLP.ligand.clash>
0.0000

> <Gold.PLP.ligand.torsion>
0.6695

> <Gold.PLP.Chemscore.Hbond>
4.5666

> <Gold.PLP.Chemscore.CHOScore>
0.0000

> <Gold.PLP.Chemscore.Metal>
0.0000

> <Gold.Chemscore.Hbonds>
donor molecule, donor type, donor heavy atom, donor atom, acceptor molecule, acceptor atom, score
      L1  H     8    32       P1  7948  0.99
      L1  H    11    33       P1  7948  0.71
      L1  H    22    48       P1 10186  2.00
      P1  H  8011  8017       L1    16  0.84

> <Gold.PLP.Chemscore.Internal.Correction>
0.2732

> <Gold.Rescore>
     Score         DG    S(hbond)    S(metal)    S(lipo)     H(rot)  DE(clash)    DE(int)     intcor
     21.70     -22.73       2.95        0.00      96.70       1.52       0.35       0.68       ----

> <Gold.Chemscore.Fitness>
21.6999

> <Gold.Chemscore.DG>
-22.7318

> <Gold.Chemscore.ZeroCoef>
-5.4800

> <Gold.Chemscore.Hbond>
2.9454

> <Gold.Chemscore.Metal>
0.0000

> <Gold.Chemscore.Lipo>
96.6983

> <Gold.Chemscore.Internal_Hbond>
0.0000

> <Gold.Chemscore.DEClash>
0.3483

> <Gold.Chemscore.DEInternal>
0.6835

> <Gold.Chemscore.Rot>
1.5233

> <Gold.Chemscore.Internal.Correction>
   9.000000E+99

> <Gold.Chemscore.Hbonds>
donor molecule, donor type, donor heavy atom, donor atom, acceptor molecule, acceptor atom, score
      L1  H     8    32       P1  7948  0.90
      L1  H    11    33       P1  7948  0.62
      L1  H    22    48       P1 10186  0.93
      P1  H  8011  8017       L1    16  0.27

> <Gold.Chemscore.Hbond.Weighted>
-9.8376

> <Gold.Chemscore.Metal.Weighted>
-0.0000

> <Gold.Chemscore.Lipo.Weighted>
-11.3137

> <Gold.Chemscore.Internal_Hbond.Weighted>
0.0000

> <Gold.Chemscore.DEClash.Weighted>
0.3483

> <Gold.Chemscore.DEInternal.Weighted>
0.6835

> <Gold.Chemscore.Rot.Weighted>
3.8995

> <Gold.Chemscore.Internal.Correction.Weighted>
   9.000000E+99

> <Gold.Protein.RotatedTorsions>
[ 6907 6896 6895 6894 ] final  -20.00 input  -60.11 | X-H torsion
[ 7974 7965 7964 7962 ] final   49.38 input  175.53 | X-H torsion
[ 8008 7997 7996 7995 ] final -168.60 input   59.86 | X-H torsion
[ 10167 10162 10161 10158 ] final   50.26 input  -65.29 | X-H torsion
[ 10718 10713 10712 10709 ] final  -69.73 input   66.30 | X-H torsion
[ 10763 10752 10751 10750 ] final  -50.74 input  -60.55 | X-H torsion
[ 11005 11000 10999 10996 ] final -114.04 input  -57.11 | X-H torsion

> <Gold.Protein.ActiveResidues>
 VAL166  LYS551  ARG553  GLY616  TRP617  ASP618  TYR619  PRO620  LYS621  CYS622 
 ASP623  PHE694  ASN695  SER759  ASP760  ASP761  ALA762  ILE779  LEU786  VAL792 
 PHE793  MET794  SER795  GLU796  ALA797  LYS798  CYS799  TRP800  GLU811  SER814 

> <Gold.Protein.RotatedAtoms>
  151.2548  135.0634  159.9075 H   0  0  0  0  0  0  0  0  0  0  0  0  # atno 6907 bound_to 6896
  152.5375  134.0294  159.8028 H   0  0  0  0  0  0  0  0  0  0  0  0  # atno 6908 bound_to 6896
  151.0508  133.5577  159.2673 H   0  0  0  0  0  0  0  0  0  0  0  0  # atno 6909 bound_to 6896
  146.0114  139.4547  142.9954 H   0  0  0  0  0  0  0  0  0  0  0  0  # atno 7974 bound_to 7965
  155.8936  140.1029  157.1401 H   0  0  0  0  0  0  0  0  0  0  0  0  # atno 8008 bound_to 7997
  154.4018  140.1306  156.4411 H   0  0  0  0  0  0  0  0  0  0  0  0  # atno 8009 bound_to 7997
  155.7505  140.3465  155.5150 H   0  0  0  0  0  0  0  0  0  0  0  0  # atno 8010 bound_to 7997
  140.2743  144.3229  150.6281 H   0  0  0  0  0  0  0  0  0  0  0  0  # atno 10167 bound_to 10162
  156.0441  130.4318  150.2191 H   0  0  0  0  0  0  0  0  0  0  0  0  # atno 10718 bound_to 10713
  154.1153  135.6543  153.4892 H   0  0  0  0  0  0  0  0  0  0  0  0  # atno 10763 bound_to 10752
  153.0243  135.5257  154.7151 H   0  0  0  0  0  0  0  0  0  0  0  0  # atno 10764 bound_to 10752
  154.6343  135.2980  155.0149 H   0  0  0  0  0  0  0  0  0  0  0  0  # atno 10765 bound_to 10752
  141.0576  133.9587  157.2725 H   0  0  0  0  0  0  0  0  0  0  0  0  # atno 11005 bound_to 11000
  145.7336  141.0033  143.1338 LP  0  0  0  0  0  0  0  0  0  0  0  0  # atno 17320 bound_to 7965
  144.6954  139.9014  143.7459 LP  0  0  0  0  0  0  0  0  0  0  0  0  # atno 17321 bound_to 7965
  140.5864  143.2170  151.7334 LP  0  0  0  0  0  0  0  0  0  0  0  0  # atno 17342 bound_to 10162
  139.4980  144.4005  152.0186 LP  0  0  0  0  0  0  0  0  0  0  0  0  # atno 17343 bound_to 10162
  157.0283  131.0000  151.3319 LP  0  0  0  0  0  0  0  0  0  0  0  0  # atno 17370 bound_to 10713
  157.5295  130.8049  149.7901 LP  0  0  0  0  0  0  0  0  0  0  0  0  # atno 17371 bound_to 10713
  139.9404  135.0191  156.8690 LP  0  0  0  0  0  0  0  0  0  0  0  0  # atno 17394 bound_to 11000
  140.5932  134.0242  155.7508 LP  0  0  0  0  0  0  0  0  0  0  0  0  # atno 17395 bound_to 11000

$$$$
