AV-unprocessed.smi:2368|AV-procd|sdf|9432|dock2
  -GOLD-   2272013 63D 1   1.00000     0.00000
 Structure written by MMmdl.
 36 37  0  0  0  0  0  0  0  0  2 V2000
  150.7108  141.1436  155.8196 C   0  0  0  0  0  0  0  0  0  0  0  0
  149.4515  140.9426  154.9991 C   0  0  0  0  0  0  0  0  0  0  0  0
  148.6466  142.0115  154.8112 N   0  3  0  0  0  0  0  0  0  0  0  0
  147.4972  141.9515  154.1072 C   0  0  0  0  0  0  0  0  0  0  0  0
  147.0933  140.7349  153.5239 C   0  0  0  0  0  0  0  0  0  0  0  0
  147.9094  139.5848  153.6739 C   0  0  0  0  0  0  0  0  0  0  0  0
  147.5683  138.3140  153.1311 N   0  0  0  0  0  0  0  0  0  0  0  0
  146.3523  137.7551  153.0075 C   0  0  0  0  0  0  0  0  0  0  0  0
  145.2940  138.2681  153.3702 O   0  0  0  0  0  0  0  0  0  0  0  0
  146.4271  136.5548  152.4155 N   0  0  0  0  0  0  0  0  0  0  0  0
  145.2835  135.6945  152.1328 C   0  0  1  0  0  0  0  0  0  0  0  0
  145.1990  135.3924  150.6620 C   0  0  0  0  0  0  0  0  0  0  0  0
  145.1725  134.0863  150.4064 C   0  0  0  0  0  0  0  0  0  0  0  0
  145.2431  133.2438  151.6529 C   0  0  1  0  0  0  0  0  0  0  0  0
  146.3779  132.2082  151.5863 C   0  0  0  0  0  0  0  0  0  0  0  0
  146.2464  131.4136  150.4269 O   0  0  0  0  0  0  0  0  0  0  0  0
  145.4119  134.2921  152.7838 C   0  0  0  0  0  0  0  0  0  0  0  0
  149.0989  139.6930  154.4365 C   0  0  0  0  0  0  0  0  0  0  0  0
  150.1201  138.3148  154.6752 Cl  0  0  0  0  0  0  0  0  0  0  0  0
  144.3552  136.1822  152.4357 H   0  0  0  0  0  0  0  0  0  0  0  0
  144.2841  132.7345  151.7565 H   0  0  0  0  0  0  0  0  0  0  0  0
  151.5942  140.9207  155.2206 H   0  0  0  0  0  0  0  0  0  0  0  0
  150.7073  140.4833  156.6873 H   0  0  0  0  0  0  0  0  0  0  0  0
  150.7945  142.1704  156.1772 H   0  0  0  0  0  0  0  0  0  0  0  0
  146.9349  142.8712  154.0374 H   0  0  0  0  0  0  0  0  0  0  0  0
  146.1593  140.7051  152.9838 H   0  0  0  0  0  0  0  0  0  0  0  0
  148.3327  137.8055  152.7106 H   0  0  0  0  0  0  0  0  0  0  0  0
  147.3354  136.2077  152.1437 H   0  0  0  0  0  0  0  0  0  0  0  0
  145.1477  136.1717  149.9159 H   0  0  0  0  0  0  0  0  0  0  0  0
  145.0984  133.6489  149.4215 H   0  0  0  0  0  0  0  0  0  0  0  0
  147.3469  132.7075  151.5533 H   0  0  0  0  0  0  0  0  0  0  0  0
  146.3744  131.5660  152.4679 H   0  0  0  0  0  0  0  0  0  0  0  0
  147.0749  130.9929  150.2546 H   0  0  0  0  0  0  0  0  0  0  0  0
  146.3825  134.1771  153.2694 H   0  0  0  0  0  0  0  0  0  0  0  0
  144.6584  134.1532  153.5598 H   0  0  0  0  0  0  0  0  0  0  0  0
  148.9174  142.9039  155.2252 H   0  0  0  0  0  0  0  0  0  0  0  0
  1  2  1  0  0  0  0
  1 22  1  0  0  0  0
  1 23  1  0  0  0  0
  1 24  1  0  0  0  0
  2 18  1  0  0  0  0
  2  3  2  0  0  0  0
  3  4  1  0  0  0  0
  3 36  1  0  0  0  0
  4  5  2  0  0  0  0
  4 25  1  0  0  0  0
  5  6  1  0  0  0  0
  5 26  1  0  0  0  0
  6  7  1  0  0  0  0
  6 18  2  0  0  0  0
  7  8  1  0  0  0  0
  7 27  1  0  0  0  0
  8  9  2  0  0  0  0
  8 10  1  0  0  0  0
 10 11  1  0  0  0  0
 10 28  1  0  0  0  0
 11 20  1  0  0  0  0
 11 17  1  0  0  0  0
 11 12  1  0  0  0  0
 12 13  2  0  0  0  0
 12 29  1  0  0  0  0
 13 14  1  0  0  0  0
 13 30  1  0  0  0  0
 14 21  1  0  0  0  0
 14 15  1  0  0  0  0
 14 17  1  0  0  0  0
 15 16  1  0  0  0  0
 15 31  1  0  0  0  0
 15 32  1  0  0  0  0
 16 33  1  0  0  0  0
 17 34  1  0  0  0  0
 17 35  1  0  0  0  0
 18 19  1  0  0  0  0
M  CHG  1   3   1
M  END
> <s_m_source_file>
AV-unprocessed.smi

> <i_m_source_file_index>
2368

> <i_lp_mmshare_version>
43012

> <i_f3d_flags>
0

> <s_epik_input>
W0NIM11jMW5bY0hdW2NIXWMoYzFDbClbTkhdQyg9TylbTkhdW0NAQEhdMltDSF09W0NIXVtDQEBIXShbQ0gyXTIpW0NIMl1bT0hd

> <s_epik_cmdline>
J2VwaWtfcHl0aG9uJywgJy1waCcsICc3LjAnLCAnLXRuJywgJzgnLCAnLW1hJywgJzIwMCcsICctbWV0YWxfYmluZGluZycsICctaW1hZScsICc8aW5maWxlLm1hZT4nLCAnLW9tYWUnLCAnPG91dGZpbGUubWFlPic=

> <r_epik_Ionization_Penalty>
2.4467

> <r_epik_Ionization_Penalty_Charging>
2.44668

> <r_epik_Ionization_Penalty_Neutral>
1.95078e-05

> <r_epik_State_Penalty>
2.60786

> <r_epik_Charging_Adjusted_Penalty>
5.05454

> <i_epik_Tot_Q>
1

> <i_epik_Tot_abs_Q>
1

> <r_epik_Metal_State_Penalty>
2.61736

> <b_epik_Metal_Only>
0

> <s_lp_Force_Field>
OPLS_2005

> <r_lp_Energy>
25.3195

> <b_lp_Chiralities_Consistent>
1

> <s_lp_Variant>
AV-unprocessed.smi:2368-8

> <Gold.Version>
5.8.1

> <Gold.Id.Protein>
6NUR|6NUR_protein|mol2

> <Gold.PLP.Fitness>
48.0370

> <Gold.PLP.PLP>
-33.6100

> <Gold.PLP.part.hbond>
-4.0302

> <Gold.PLP.part.metal>
0.0000

> <Gold.PLP.part.buried>
-3.5125

> <Gold.PLP.part.nonpolar>
-28.0927

> <Gold.PLP.part.repulsive>
1.8794

> <Gold.PLP.ligand.clash>
0.0000

> <Gold.PLP.ligand.torsion>
0.2946

> <Gold.PLP.Chemscore.Hbond>
5.0000

> <Gold.PLP.Chemscore.CHOScore>
0.0000

> <Gold.PLP.Chemscore.Metal>
0.0000

> <Gold.Chemscore.Hbonds>
donor molecule, donor type, donor heavy atom, donor atom, acceptor molecule, acceptor atom, score
      L1  H     3    36       P1  8028  2.00
      L1  H     7    27       P1  7948  0.99
      L1  H    10    28       P1  7948  1.00
      L1  H    16    33       P1 10747  1.00

> <Gold.PLP.Chemscore.Internal.Correction>
0.0162

> <Gold.Rescore>
     Score         DG    S(hbond)    S(metal)    S(lipo)     H(rot)  DE(clash)    DE(int)     intcor
     21.86     -23.36       3.94        0.00      79.90       1.81       0.50       1.00       ----

> <Gold.Chemscore.Fitness>
21.8585

> <Gold.Chemscore.DG>
-23.3583

> <Gold.Chemscore.ZeroCoef>
-5.4800

> <Gold.Chemscore.Hbond>
3.9382

> <Gold.Chemscore.Metal>
0.0000

> <Gold.Chemscore.Lipo>
79.9008

> <Gold.Chemscore.Internal_Hbond>
0.0000

> <Gold.Chemscore.DEClash>
0.4973

> <Gold.Chemscore.DEInternal>
1.0025

> <Gold.Chemscore.Rot>
1.8061

> <Gold.Chemscore.Internal.Correction>
   9.000000E+99

> <Gold.Chemscore.Hbonds>
donor molecule, donor type, donor heavy atom, donor atom, acceptor molecule, acceptor atom, score
      L1  H     3    36       P1  8028  0.99
      L1  H     7    27       P1  7948  0.94
      L1  H    10    28       P1  7948  0.99
      L1  H    16    33       P1 10747  0.98

> <Gold.Chemscore.Hbond.Weighted>
-13.1536

> <Gold.Chemscore.Metal.Weighted>
-0.0000

> <Gold.Chemscore.Lipo.Weighted>
-9.3484

> <Gold.Chemscore.Internal_Hbond.Weighted>
0.0000

> <Gold.Chemscore.DEClash.Weighted>
0.4973

> <Gold.Chemscore.DEInternal.Weighted>
1.0025

> <Gold.Chemscore.Rot.Weighted>
4.6237

> <Gold.Chemscore.Internal.Correction.Weighted>
   9.000000E+99

> <Gold.Protein.RotatedTorsions>
[ 6907 6896 6895 6894 ] final  -23.28 input  -60.11 | X-H torsion
[ 7974 7965 7964 7962 ] final   75.80 input  175.53 | X-H torsion
[ 8008 7997 7996 7995 ] final   82.97 input   59.86 | X-H torsion
[ 10167 10162 10161 10158 ] final -173.08 input  -65.29 | X-H torsion
[ 10718 10713 10712 10709 ] final  140.60 input   66.30 | X-H torsion
[ 10763 10752 10751 10750 ] final   91.03 input  -60.55 | X-H torsion
[ 11005 11000 10999 10996 ] final   22.06 input  -57.11 | X-H torsion

> <Gold.Protein.ActiveResidues>
 VAL166  LYS551  ARG553  GLY616  TRP617  ASP618  TYR619  PRO620  LYS621  CYS622 
 ASP623  PHE694  ASN695  SER759  ASP760  ASP761  ALA762  ILE779  LEU786  VAL792 
 PHE793  MET794  SER795  GLU796  ALA797  LYS798  CYS799  TRP800  GLU811  SER814 

> <Gold.Protein.RotatedAtoms>
  151.2063  135.0463  159.8892 H   0  0  0  0  0  0  0  0  0  0  0  0  # atno 6907 bound_to 6896
  152.5428  134.0794  159.8239 H   0  0  0  0  0  0  0  0  0  0  0  0  # atno 6908 bound_to 6896
  151.0941  133.5245  159.2645 H   0  0  0  0  0  0  0  0  0  0  0  0  # atno 6909 bound_to 6896
  145.7109  139.2614  143.1651 H   0  0  0  0  0  0  0  0  0  0  0  0  # atno 7974 bound_to 7965
  155.9178  140.3423  155.6148 H   0  0  0  0  0  0  0  0  0  0  0  0  # atno 8008 bound_to 7997
  155.7311  140.0795  157.2307 H   0  0  0  0  0  0  0  0  0  0  0  0  # atno 8009 bound_to 7997
  154.4065  140.1588  156.2496 H   0  0  0  0  0  0  0  0  0  0  0  0  # atno 8010 bound_to 7997
  139.5708  144.1646  152.1381 H   0  0  0  0  0  0  0  0  0  0  0  0  # atno 10167 bound_to 10162
  157.4015  131.1017  151.0547 H   0  0  0  0  0  0  0  0  0  0  0  0  # atno 10718 bound_to 10713
  153.2039  135.4412  155.0299 H   0  0  0  0  0  0  0  0  0  0  0  0  # atno 10763 bound_to 10752
  154.8162  135.3316  154.7171 H   0  0  0  0  0  0  0  0  0  0  0  0  # atno 10764 bound_to 10752
  153.7614  135.6991  153.4980 H   0  0  0  0  0  0  0  0  0  0  0  0  # atno 10765 bound_to 10752
  140.3847  134.1883  155.7663 H   0  0  0  0  0  0  0  0  0  0  0  0  # atno 11005 bound_to 11000
  146.0713  140.7866  142.9687 LP  0  0  0  0  0  0  0  0  0  0  0  0  # atno 17320 bound_to 7965
  144.6942  140.3346  143.7210 LP  0  0  0  0  0  0  0  0  0  0  0  0  # atno 17321 bound_to 7965
  140.1178  144.5400  150.6882 LP  0  0  0  0  0  0  0  0  0  0  0  0  # atno 17342 bound_to 10162
  140.6993  143.2424  151.4912 LP  0  0  0  0  0  0  0  0  0  0  0  0  # atno 17343 bound_to 10162
  157.1544  130.6198  149.5592 LP  0  0  0  0  0  0  0  0  0  0  0  0  # atno 17370 bound_to 10713
  155.9824  130.4838  150.6882 LP  0  0  0  0  0  0  0  0  0  0  0  0  # atno 17371 bound_to 10713
  141.1911  133.8201  157.0891 LP  0  0  0  0  0  0  0  0  0  0  0  0  # atno 17394 bound_to 11000
  140.0452  134.9834  157.1035 LP  0  0  0  0  0  0  0  0  0  0  0  0  # atno 17395 bound_to 11000

$$$$
