AV-unprocessed.smi:17|AV-procd|sdf|101|dock2
  -GOLD-   2262015243D 1   1.00000     0.00000
 Structure written by MMmdl.
 57 59  0  0  0  0  0  0  0  0  1 V2000
  147.3686  134.5515  162.5052 C   0  0  0  0  0  0  0  0  0  0  0  0
  147.5154  136.0174  162.0730 C   0  0  0  0  0  0  0  0  0  0  0  0
  146.5650  136.3869  161.0199 N   0  0  0  0  0  0  0  0  0  0  0  0
  147.0512  136.8572  159.8387 C   0  0  0  0  0  0  0  0  0  0  0  0
  146.1781  137.0287  158.8108 N   0  0  0  0  0  0  0  0  0  0  0  0
  146.5962  137.4992  157.6332 C   0  0  0  0  0  0  0  0  0  0  0  0
  147.8289  137.8489  157.2665 N   0  0  0  0  0  0  0  0  0  0  0  0
  148.7181  137.6618  158.2823 C   0  0  0  0  0  0  0  0  0  0  0  0
  148.4203  137.1747  159.5882 C   0  0  0  0  0  0  0  0  0  0  0  0
  149.5925  137.1037  160.3347 N   0  0  0  0  0  0  0  0  0  0  0  0
  150.5200  137.5376  159.5266 C   0  0  0  0  0  0  0  0  0  0  0  0
  150.0827  137.8891  158.2712 N   0  0  0  0  0  0  0  0  0  0  0  0
  150.8998  138.3886  157.1799 C   0  0  0  0  0  0  0  0  0  0  0  0
  150.8410  139.9354  157.0679 C   0  0  2  0  0  0  0  0  0  0  0  0
  151.6744  140.3983  155.8497 C   0  0  0  0  0  0  0  0  0  0  0  0
  151.2190  139.8187  154.6450 O   0  0  0  0  0  0  0  0  0  0  0  0
  151.2817  140.6096  158.3956 C   0  0  1  0  0  0  0  0  0  0  0  0
  152.7374  140.4132  158.7826 C   0  0  0  0  0  0  0  0  0  0  0  0
  152.9588  141.5313  159.7930 C   0  0  0  0  0  0  0  0  0  0  0  0
  152.1500  142.6102  159.3430 O   0  0  0  0  0  0  0  0  0  0  0  0
  151.2083  142.1430  158.3816 C   0  0  0  0  0  0  0  0  0  0  0  0
  145.1167  136.3246  161.2468 C   0  0  2  0  0  0  0  0  0  0  0  0
  144.7008  137.2051  162.4369 C   0  0  0  0  0  0  0  0  0  0  0  0
  144.5987  134.8781  161.3994 C   0  0  0  0  0  0  0  0  0  0  0  0
  142.7571  134.7763  161.5666 S   0  0  0  0  0  0  0  0  0  0  0  0
  142.5324  134.4372  163.3615 C   0  0  0  0  0  0  0  0  0  0  0  0
  142.2036  136.1119  161.2975 O   0  0  0  0  0  0  0  0  0  0  0  0
  142.2616  133.6141  160.8128 O   0  0  0  0  0  0  0  0  0  0  0  0
  148.1075  134.2984  163.2653 H   0  0  0  0  0  0  0  0  0  0  0  0
  147.5129  133.8734  161.6638 H   0  0  0  0  0  0  0  0  0  0  0  0
  146.3819  134.3571  162.9264 H   0  0  0  0  0  0  0  0  0  0  0  0
  147.4015  136.6739  162.9358 H   0  0  0  0  0  0  0  0  0  0  0  0
  148.5329  136.1750  161.7179 H   0  0  0  0  0  0  0  0  0  0  0  0
  145.8338  137.6112  156.8764 H   0  0  0  0  0  0  0  0  0  0  0  0
  151.5572  137.6042  159.8217 H   0  0  0  0  0  0  0  0  0  0  0  0
  151.9207  138.0321  157.3165 H   0  0  0  0  0  0  0  0  0  0  0  0
  150.5563  137.9073  156.2633 H   0  0  0  0  0  0  0  0  0  0  0  0
  149.8056  140.2258  156.8791 H   0  0  0  0  0  0  0  0  0  0  0  0
  151.6674  141.4853  155.7624 H   0  0  0  0  0  0  0  0  0  0  0  0
  152.7154  140.0945  155.9644 H   0  0  0  0  0  0  0  0  0  0  0  0
  150.3693  139.4341  154.7979 H   0  0  0  0  0  0  0  0  0  0  0  0
  150.6594  140.2405  159.2126 H   0  0  0  0  0  0  0  0  0  0  0  0
  152.9423  139.4296  159.2058 H   0  0  0  0  0  0  0  0  0  0  0  0
  153.3865  140.5581  157.9175 H   0  0  0  0  0  0  0  0  0  0  0  0
  152.6135  141.2241  160.7809 H   0  0  0  0  0  0  0  0  0  0  0  0
  154.0064  141.8223  159.8739 H   0  0  0  0  0  0  0  0  0  0  0  0
  151.4954  142.5376  157.4061 H   0  0  0  0  0  0  0  0  0  0  0  0
  150.2105  142.5151  158.6134 H   0  0  0  0  0  0  0  0  0  0  0  0
  144.5984  136.7224  160.3771 H   0  0  0  0  0  0  0  0  0  0  0  0
  143.6163  137.2303  162.5445 H   0  0  0  0  0  0  0  0  0  0  0  0
  145.0396  138.2327  162.3023 H   0  0  0  0  0  0  0  0  0  0  0  0
  145.1164  136.8373  163.3750 H   0  0  0  0  0  0  0  0  0  0  0  0
  144.9185  134.2244  160.5889 H   0  0  0  0  0  0  0  0  0  0  0  0
  145.0079  134.4544  162.3169 H   0  0  0  0  0  0  0  0  0  0  0  0
  141.4687  134.4499  163.5979 H   0  0  0  0  0  0  0  0  0  0  0  0
  143.0395  135.2040  163.9461 H   0  0  0  0  0  0  0  0  0  0  0  0
  142.9380  133.4599  163.6121 H   0  0  0  0  0  0  0  0  0  0  0  0
  1  2  1  0  0  0  0
  1 29  1  0  0  0  0
  1 30  1  0  0  0  0
  1 31  1  0  0  0  0
  2  3  1  0  0  0  0
  2 32  1  0  0  0  0
  2 33  1  0  0  0  0
  3  4  1  0  0  0  0
  3 22  1  0  0  0  0
  4  9  1  0  0  0  0
  4  5  2  0  0  0  0
  5  6  1  0  0  0  0
  6  7  2  0  0  0  0
  6 34  1  0  0  0  0
  7  8  1  0  0  0  0
  8 12  1  0  0  0  0
  8  9  2  0  0  0  0
  9 10  1  0  0  0  0
 10 11  2  0  0  0  0
 11 12  1  0  0  0  0
 11 35  1  0  0  0  0
 12 13  1  0  0  0  0
 13 14  1  0  0  0  0
 13 36  1  0  0  0  0
 13 37  1  0  0  0  0
 14 15  1  0  0  0  0
 14 17  1  0  0  0  0
 14 38  1  0  0  0  0
 15 16  1  0  0  0  0
 15 39  1  0  0  0  0
 15 40  1  0  0  0  0
 16 41  1  0  0  0  0
 17 21  1  0  0  0  0
 17 18  1  0  0  0  0
 17 42  1  0  0  0  0
 18 19  1  0  0  0  0
 18 43  1  0  0  0  0
 18 44  1  0  0  0  0
 19 20  1  0  0  0  0
 19 45  1  0  0  0  0
 19 46  1  0  0  0  0
 20 21  1  0  0  0  0
 21 47  1  0  0  0  0
 21 48  1  0  0  0  0
 22 23  1  0  0  0  0
 22 24  1  0  0  0  0
 22 49  1  0  0  0  0
 23 50  1  0  0  0  0
 23 51  1  0  0  0  0
 23 52  1  0  0  0  0
 24 25  1  0  0  0  0
 24 53  1  0  0  0  0
 24 54  1  0  0  0  0
 25 26  1  0  0  0  0
 25 27  2  0  0  0  0
 25 28  2  0  0  0  0
 26 55  1  0  0  0  0
 26 56  1  0  0  0  0
 26 57  1  0  0  0  0
M  END
> <s_m_source_file>
AV-unprocessed.smi

> <i_m_source_file_index>
17

> <i_lp_mmshare_version>
43012

> <i_f3d_flags>
0

> <s_epik_input>
W0NIM11TKD1PKSg9TylbQ0gyXVtDQEBIXShbQ0gzXSlOKFtDSDJdW0NIM10pYyhuW2NIXW4xKWMoYzEyKW5bY0hdbjJbQ0gyXVtDQEhdKFtDSDJdW09IXSlbQ0BASF0zW0NIMl1bQ0gyXU9bQ0gyXTM=

> <s_epik_cmdline>
J2VwaWtfcHl0aG9uJywgJy1waCcsICc3LjAnLCAnLXRuJywgJzgnLCAnLW1hJywgJzIwMCcsICctbWV0YWxfYmluZGluZycsICctaW1hZScsICc8aW5maWxlLm1hZT4nLCAnLW9tYWUnLCAnPG91dGZpbGUubWFlPic=

> <r_lp_tautomer_probability>
1

> <r_epik_Ionization_Penalty>
0.00119955

> <r_epik_Ionization_Penalty_Charging>
0

> <r_epik_Ionization_Penalty_Neutral>
0.00119955

> <r_epik_State_Penalty>
0.000665399

> <r_epik_Charging_Adjusted_Penalty>
0.000665399

> <i_epik_Tot_Q>
0

> <i_epik_Tot_abs_Q>
0

> <r_epik_Metal_State_Penalty>
-0

> <b_epik_Metal_Only>
0

> <s_lp_Force_Field>
OPLS_2005

> <r_lp_Energy>
37.2201

> <b_lp_Chiralities_Consistent>
1

> <s_lp_Variant>
AV-unprocessed.smi:17-3

> <Gold.Version>
5.8.1

> <Gold.Id.Protein>
6NUR|6NUR_protein|mol2

> <Gold.PLP.Fitness>
42.4259

> <Gold.PLP.PLP>
-38.8880

> <Gold.PLP.part.hbond>
-2.0000

> <Gold.PLP.part.metal>
0.0000

> <Gold.PLP.part.buried>
-5.7946

> <Gold.PLP.part.nonpolar>
-31.4249

> <Gold.PLP.part.repulsive>
0.0332

> <Gold.PLP.ligand.clash>
0.0000

> <Gold.PLP.ligand.torsion>
0.7106

> <Gold.PLP.Chemscore.Hbond>
1.4104

> <Gold.PLP.Chemscore.CHOScore>
0.0000

> <Gold.PLP.Chemscore.Metal>
0.0000

> <Gold.Chemscore.Hbonds>
donor molecule, donor type, donor heavy atom, donor atom, acceptor molecule, acceptor atom, score
      P1  H  6931  6943       L1    10  0.42
      P1  H  7989  7998       L1    16  1.00

> <Gold.PLP.Chemscore.Internal.Correction>
0.7279

> <Gold.Rescore>
     Score         DG    S(hbond)    S(metal)    S(lipo)     H(rot)  DE(clash)    DE(int)     intcor
      7.87     -10.43       1.12        0.00      87.11       3.51       0.30       2.26       ----

> <Gold.Chemscore.Fitness>
7.8663

> <Gold.Chemscore.DG>
-10.4292

> <Gold.Chemscore.ZeroCoef>
-5.4800

> <Gold.Chemscore.Hbond>
1.1175

> <Gold.Chemscore.Metal>
0.0000

> <Gold.Chemscore.Lipo>
87.1081

> <Gold.Chemscore.Internal_Hbond>
0.0000

> <Gold.Chemscore.DEClash>
0.2998

> <Gold.Chemscore.DEInternal>
2.2630

> <Gold.Chemscore.Rot>
3.5059

> <Gold.Chemscore.Internal.Correction>
   9.000000E+99

> <Gold.Chemscore.Hbonds>
donor molecule, donor type, donor heavy atom, donor atom, acceptor molecule, acceptor atom, score
      P1  H  6931  6943       L1    10  0.10
      P1  H  7989  7998       L1    16  0.49

> <Gold.Chemscore.Hbond.Weighted>
-3.7325

> <Gold.Chemscore.Metal.Weighted>
-0.0000

> <Gold.Chemscore.Lipo.Weighted>
-10.1916

> <Gold.Chemscore.Internal_Hbond.Weighted>
0.0000

> <Gold.Chemscore.DEClash.Weighted>
0.2998

> <Gold.Chemscore.DEInternal.Weighted>
2.2630

> <Gold.Chemscore.Rot.Weighted>
8.9750

> <Gold.Chemscore.Internal.Correction.Weighted>
   9.000000E+99

> <Gold.Protein.RotatedTorsions>
[ 6907 6896 6895 6894 ] final -177.91 input  -60.11 | X-H torsion
[ 7974 7965 7964 7962 ] final   96.97 input  175.53 | X-H torsion
[ 8008 7997 7996 7995 ] final -177.64 input   59.86 | X-H torsion
[ 10167 10162 10161 10158 ] final   32.48 input  -65.29 | X-H torsion
[ 10718 10713 10712 10709 ] final  -95.37 input   66.30 | X-H torsion
[ 10763 10752 10751 10750 ] final  -26.46 input  -60.55 | X-H torsion
[ 11005 11000 10999 10996 ] final  162.83 input  -57.11 | X-H torsion

> <Gold.Protein.ActiveResidues>
 VAL166  LYS551  ARG553  GLY616  TRP617  ASP618  TYR619  PRO620  LYS621  CYS622 
 ASP623  PHE694  ASN695  SER759  ASP760  ASP761  ALA762  ILE779  LEU786  VAL792 
 PHE793  MET794  SER795  GLU796  ALA797  LYS798  CYS799  TRP800  GLU811  SER814 

> <Gold.Protein.RotatedAtoms>
  151.6287  133.3333  159.3103 H   0  0  0  0  0  0  0  0  0  0  0  0  # atno 6907 bound_to 6896
  150.8068  134.7201  159.6663 H   0  0  0  0  0  0  0  0  0  0  0  0  # atno 6908 bound_to 6896
  152.4163  134.6039  160.0059 H   0  0  0  0  0  0  0  0  0  0  0  0  # atno 6909 bound_to 6896
  145.4317  139.2310  143.3140 H   0  0  0  0  0  0  0  0  0  0  0  0  # atno 7974 bound_to 7965
  156.0093  140.1237  157.0469 H   0  0  0  0  0  0  0  0  0  0  0  0  # atno 8008 bound_to 7997
  154.4270  140.1091  156.5877 H   0  0  0  0  0  0  0  0  0  0  0  0  # atno 8009 bound_to 7997
  155.6102  140.3471  155.4622 H   0  0  0  0  0  0  0  0  0  0  0  0  # atno 8010 bound_to 7997
  140.4495  144.1070  150.6189 H   0  0  0  0  0  0  0  0  0  0  0  0  # atno 10167 bound_to 10162
  156.0042  130.5106  150.6066 H   0  0  0  0  0  0  0  0  0  0  0  0  # atno 10718 bound_to 10713
  153.7164  135.6947  153.5024 H   0  0  0  0  0  0  0  0  0  0  0  0  # atno 10763 bound_to 10752
  153.2235  135.4361  155.0515 H   0  0  0  0  0  0  0  0  0  0  0  0  # atno 10764 bound_to 10752
  154.8298  135.3466  154.6699 H   0  0  0  0  0  0  0  0  0  0  0  0  # atno 10765 bound_to 10752
  140.2297  134.8134  157.3304 H   0  0  0  0  0  0  0  0  0  0  0  0  # atno 11005 bound_to 11000
  146.2603  140.5054  142.8856 LP  0  0  0  0  0  0  0  0  0  0  0  0  # atno 17320 bound_to 7965
  144.8179  140.6499  143.6372 LP  0  0  0  0  0  0  0  0  0  0  0  0  # atno 17321 bound_to 7965
  140.4224  143.2605  151.9698 LP  0  0  0  0  0  0  0  0  0  0  0  0  # atno 17342 bound_to 10162
  139.4795  144.5818  151.7919 LP  0  0  0  0  0  0  0  0  0  0  0  0  # atno 17343 bound_to 10162
  157.3905  131.0795  151.1397 LP  0  0  0  0  0  0  0  0  0  0  0  0  # atno 17370 bound_to 10713
  157.2091  130.6429  149.5767 LP  0  0  0  0  0  0  0  0  0  0  0  0  # atno 17371 bound_to 10713
  140.1764  134.4545  155.7799 LP  0  0  0  0  0  0  0  0  0  0  0  0  # atno 17394 bound_to 11000
  141.2218  133.6964  156.7794 LP  0  0  0  0  0  0  0  0  0  0  0  0  # atno 17395 bound_to 11000

$$$$
