AV-unprocessed.smi:1994|AV-procd|sdf|8072|dock5
  -GOLD-   2272010283D 1   1.00000     0.00000
 Structure written by MMmdl.
 39 41  0  0  0  0  0  0  0  0  1 V2000
  150.5535  136.3395  155.8897 C   0  0  0  0  0  0  0  0  0  0  0  0
  149.8032  137.5580  155.4540 C   0  0  0  0  0  0  0  0  0  0  0  0
  148.4798  137.5580  155.2925 N   0  0  0  0  0  0  0  0  0  0  0  0
  148.2247  138.8527  154.8831 C   0  0  0  0  0  0  0  0  0  0  0  0
  147.0069  139.4867  154.5476 C   0  0  0  0  0  0  0  0  0  0  0  0
  146.9927  140.8395  154.1488 C   0  0  0  0  0  0  0  0  0  0  0  0
  148.1928  141.5766  154.0817 C   0  0  0  0  0  0  0  0  0  0  0  0
  149.4167  140.9647  154.4138 C   0  0  0  0  0  0  0  0  0  0  0  0
  149.4260  139.6137  154.8095 C   0  0  0  0  0  0  0  0  0  0  0  0
  150.4310  138.7310  155.1942 N   0  0  0  0  0  0  0  0  0  0  0  0
  151.8551  139.0240  155.2866 C   0  0  0  0  0  0  0  0  0  0  0  0
  152.2433  139.6830  156.6258 C   0  0  2  0  0  0  0  0  0  0  0  0
  152.8944  138.7417  157.4557 O   0  0  0  0  0  0  0  0  0  0  0  0
  151.0259  140.2334  157.3827 C   0  0  0  0  0  0  0  0  0  0  0  0
  151.4666  140.8397  158.5906 O   0  0  0  0  0  0  0  0  0  0  0  0
  151.6946  142.1996  158.5945 C   0  0  0  0  0  0  0  0  0  0  0  0
  151.3103  143.0734  157.5454 C   0  0  0  0  0  0  0  0  0  0  0  0
  151.5802  144.4533  157.6308 C   0  0  0  0  0  0  0  0  0  0  0  0
  152.2361  144.9766  158.7601 C   0  0  0  0  0  0  0  0  0  0  0  0
  152.6216  144.1178  159.8057 C   0  0  0  0  0  0  0  0  0  0  0  0
  152.3512  142.7381  159.7221 C   0  0  0  0  0  0  0  0  0  0  0  0
  152.7273  141.9222  160.7358 F   0  0  0  0  0  0  0  0  0  0  0  0
  149.8656  135.5142  156.0769 H   0  0  0  0  0  0  0  0  0  0  0  0
  151.1054  136.5392  156.8078 H   0  0  0  0  0  0  0  0  0  0  0  0
  151.2550  136.0307  155.1144 H   0  0  0  0  0  0  0  0  0  0  0  0
  146.0823  138.9308  154.5962 H   0  0  0  0  0  0  0  0  0  0  0  0
  146.0562  141.3137  153.8931 H   0  0  0  0  0  0  0  0  0  0  0  0
  148.1731  142.6123  153.7750 H   0  0  0  0  0  0  0  0  0  0  0  0
  150.3372  141.5272  154.3661 H   0  0  0  0  0  0  0  0  0  0  0  0
  152.4124  138.0982  155.1425 H   0  0  0  0  0  0  0  0  0  0  0  0
  152.1310  139.6715  154.4534 H   0  0  0  0  0  0  0  0  0  0  0  0
  152.9448  140.4980  156.4462 H   0  0  0  0  0  0  0  0  0  0  0  0
  152.4328  137.9192  157.3945 H   0  0  0  0  0  0  0  0  0  0  0  0
  150.4933  140.9546  156.7601 H   0  0  0  0  0  0  0  0  0  0  0  0
  150.3410  139.4165  157.6170 H   0  0  0  0  0  0  0  0  0  0  0  0
  150.8048  142.7107  156.6633 H   0  0  0  0  0  0  0  0  0  0  0  0
  151.2824  145.1113  156.8275 H   0  0  0  0  0  0  0  0  0  0  0  0
  152.4429  146.0348  158.8245 H   0  0  0  0  0  0  0  0  0  0  0  0
  153.1252  144.5171  160.6738 H   0  0  0  0  0  0  0  0  0  0  0  0
  1  2  1  0  0  0  0
  1 23  1  0  0  0  0
  1 24  1  0  0  0  0
  1 25  1  0  0  0  0
  2 10  1  0  0  0  0
  2  3  2  0  0  0  0
  3  4  1  0  0  0  0
  4  9  2  0  0  0  0
  4  5  1  0  0  0  0
  5  6  2  0  0  0  0
  5 26  1  0  0  0  0
  6  7  1  0  0  0  0
  6 27  1  0  0  0  0
  7  8  2  0  0  0  0
  7 28  1  0  0  0  0
  8  9  1  0  0  0  0
  8 29  1  0  0  0  0
  9 10  1  0  0  0  0
 10 11  1  0  0  0  0
 11 12  1  0  0  0  0
 11 30  1  0  0  0  0
 11 31  1  0  0  0  0
 12 13  1  0  0  0  0
 12 14  1  0  0  0  0
 12 32  1  0  0  0  0
 13 33  1  0  0  0  0
 14 15  1  0  0  0  0
 14 34  1  0  0  0  0
 14 35  1  0  0  0  0
 15 16  1  0  0  0  0
 16 21  1  0  0  0  0
 16 17  2  0  0  0  0
 17 18  1  0  0  0  0
 17 36  1  0  0  0  0
 18 19  2  0  0  0  0
 18 37  1  0  0  0  0
 19 20  1  0  0  0  0
 19 38  1  0  0  0  0
 20 21  2  0  0  0  0
 20 39  1  0  0  0  0
 21 22  1  0  0  0  0
M  END
> <s_m_source_file>
AV-unprocessed.smi

> <i_m_source_file_index>
1994

> <i_lp_mmshare_version>
43012

> <i_f3d_flags>
0

> <s_epik_input>
W2NIXTFbY0hdW2NIXVtjSF1jKGMxMiluKGMobjIpW0NIM10pW0NIMl1bQ0BIXShbT0hdKVtDSDJdT2MzW2NIXVtjSF1bY0hdW2NIXWMzRg==

> <s_epik_cmdline>
J2VwaWtfcHl0aG9uJywgJy1waCcsICc3LjAnLCAnLXRuJywgJzgnLCAnLW1hJywgJzIwMCcsICctbWV0YWxfYmluZGluZycsICctaW1hZScsICc8aW5maWxlLm1hZT4nLCAnLW9tYWUnLCAnPG91dGZpbGUubWFlPic=

> <r_lp_tautomer_probability>
1

> <r_epik_Ionization_Penalty>
0.112614

> <r_epik_Ionization_Penalty_Charging>
0

> <r_epik_Ionization_Penalty_Neutral>
0.112614

> <r_epik_State_Penalty>
0.10231

> <r_epik_Charging_Adjusted_Penalty>
0.10231

> <i_epik_Tot_Q>
0

> <i_epik_Tot_abs_Q>
0

> <r_epik_Metal_State_Penalty>
0.000111664

> <b_epik_Metal_Only>
0

> <s_lp_Force_Field>
OPLS_2005

> <r_lp_Energy>
14.6988

> <b_lp_Chiralities_Consistent>
1

> <s_lp_Variant>
AV-unprocessed.smi:1994-1

> <Gold.Version>
5.8.1

> <Gold.Id.Protein>
6NUR|6NUR_protein|mol2

> <Gold.PLP.Fitness>
48.3074

> <Gold.PLP.PLP>
-49.3189

> <Gold.PLP.part.hbond>
-1.0000

> <Gold.PLP.part.metal>
0.0000

> <Gold.PLP.part.buried>
-0.4991

> <Gold.PLP.part.nonpolar>
-46.9313

> <Gold.PLP.part.repulsive>
0.1311

> <Gold.PLP.ligand.clash>
0.0000

> <Gold.PLP.ligand.torsion>
1.3115

> <Gold.PLP.Chemscore.Hbond>
0.5280

> <Gold.PLP.Chemscore.CHOScore>
0.0000

> <Gold.PLP.Chemscore.Metal>
0.0000

> <Gold.PLP.Chemscore.Internal.Correction>
0.0275

> <Gold.Rescore>
     Score         DG    S(hbond)    S(metal)    S(lipo)     H(rot)  DE(clash)    DE(int)     intcor
     13.64     -15.32       0.00        0.00     132.02       2.19       0.43       1.25       ----

> <Gold.Chemscore.Fitness>
13.6403

> <Gold.Chemscore.DG>
-15.3231

> <Gold.Chemscore.ZeroCoef>
-5.4800

> <Gold.Chemscore.Hbond>
0.0000

> <Gold.Chemscore.Metal>
0.0000

> <Gold.Chemscore.Lipo>
132.0167

> <Gold.Chemscore.Internal_Hbond>
0.0000

> <Gold.Chemscore.DEClash>
0.4301

> <Gold.Chemscore.DEInternal>
1.2527

> <Gold.Chemscore.Rot>
2.1886

> <Gold.Chemscore.Internal.Correction>
   9.000000E+99

> <Gold.Chemscore.Hbond.Weighted>
-0.0000

> <Gold.Chemscore.Metal.Weighted>
-0.0000

> <Gold.Chemscore.Lipo.Weighted>
-15.4460

> <Gold.Chemscore.Internal_Hbond.Weighted>
0.0000

> <Gold.Chemscore.DEClash.Weighted>
0.4301

> <Gold.Chemscore.DEInternal.Weighted>
1.2527

> <Gold.Chemscore.Rot.Weighted>
5.6028

> <Gold.Chemscore.Internal.Correction.Weighted>
   9.000000E+99

> <Gold.Protein.RotatedTorsions>
[ 6907 6896 6895 6894 ] final  129.86 input  -60.11 | X-H torsion
[ 7974 7965 7964 7962 ] final  -86.49 input  175.53 | X-H torsion
[ 8008 7997 7996 7995 ] final   44.11 input   59.86 | X-H torsion
[ 10167 10162 10161 10158 ] final    7.04 input  -65.29 | X-H torsion
[ 10718 10713 10712 10709 ] final -156.69 input   66.30 | X-H torsion
[ 10763 10752 10751 10750 ] final   83.18 input  -60.55 | X-H torsion
[ 11005 11000 10999 10996 ] final   95.44 input  -57.11 | X-H torsion

> <Gold.Protein.ActiveResidues>
 VAL166  LYS551  ARG553  GLY616  TRP617  ASP618  TYR619  PRO620  LYS621  CYS622 
 ASP623  PHE694  ASN695  SER759  ASP760  ASP761  ALA762  ILE779  LEU786  VAL792 
 PHE793  MET794  SER795  GLU796  ALA797  LYS798  CYS799  TRP800  GLU811  SER814 

> <Gold.Protein.RotatedAtoms>
  152.3583  133.6265  159.5995 H   0  0  0  0  0  0  0  0  0  0  0  0  # atno 6907 bound_to 6896
  150.7583  133.9464  159.3481 H   0  0  0  0  0  0  0  0  0  0  0  0  # atno 6908 bound_to 6896
  151.7306  135.0876  160.0350 H   0  0  0  0  0  0  0  0  0  0  0  0  # atno 6909 bound_to 6896
  145.4792  140.9557  143.1874 H   0  0  0  0  0  0  0  0  0  0  0  0  # atno 7974 bound_to 7965
  155.3139  140.3393  155.4243 H   0  0  0  0  0  0  0  0  0  0  0  0  # atno 8008 bound_to 7997
  156.1942  140.1709  156.8069 H   0  0  0  0  0  0  0  0  0  0  0  0  # atno 8009 bound_to 7997
  154.5478  140.0711  156.8602 H   0  0  0  0  0  0  0  0  0  0  0  0  # atno 8010 bound_to 7997
  140.6394  143.7810  150.7406 H   0  0  0  0  0  0  0  0  0  0  0  0  # atno 10167 bound_to 10162
  156.5300  130.8516  151.2712 H   0  0  0  0  0  0  0  0  0  0  0  0  # atno 10718 bound_to 10713
  153.1268  135.4700  154.9286 H   0  0  0  0  0  0  0  0  0  0  0  0  # atno 10763 bound_to 10752
  154.7628  135.3136  154.8348 H   0  0  0  0  0  0  0  0  0  0  0  0  # atno 10764 bound_to 10752
  153.8899  135.6886  153.4815 H   0  0  0  0  0  0  0  0  0  0  0  0  # atno 10765 bound_to 10752
  139.8789  134.8899  156.4011 H   0  0  0  0  0  0  0  0  0  0  0  0  # atno 11005 bound_to 11000
  144.7899  139.6350  143.7118 LP  0  0  0  0  0  0  0  0  0  0  0  0  # atno 17320 bound_to 7965
  146.2351  139.5889  142.9529 LP  0  0  0  0  0  0  0  0  0  0  0  0  # atno 17321 bound_to 7965
  140.1438  143.4418  152.2176 LP  0  0  0  0  0  0  0  0  0  0  0  0  # atno 17342 bound_to 10162
  139.5603  144.7401  151.4173 LP  0  0  0  0  0  0  0  0  0  0  0  0  # atno 17343 bound_to 10162
  157.7423  130.9888  150.2509 LP  0  0  0  0  0  0  0  0  0  0  0  0  # atno 17370 bound_to 10713
  156.3069  130.3766  149.7698 LP  0  0  0  0  0  0  0  0  0  0  0  0  # atno 17371 bound_to 10713
  140.9266  133.7608  155.9973 LP  0  0  0  0  0  0  0  0  0  0  0  0  # atno 17394 bound_to 11000
  140.8378  134.3102  157.5325 LP  0  0  0  0  0  0  0  0  0  0  0  0  # atno 17395 bound_to 11000

$$$$
