AV-unprocessed.smi:229|AV-procd|sdf|1751|dock4
  -GOLD-   2262020273D 1   1.00000     0.00000
 Structure written by MMmdl.
 58 62  0  0  0  0  0  0  0  0  1 V2000
  150.6954  130.8196  156.6636 C   0  0  0  0  0  0  0  0  0  0  0  0
  151.0559  132.2614  157.0459 C   0  0  0  0  0  0  0  0  0  0  0  0
  150.7581  133.2887  155.9410 C   0  0  2  0  0  0  0  0  0  0  0  0
  151.1777  134.7207  156.3231 C   0  0  0  0  0  0  0  0  0  0  0  0
  150.7541  135.6571  155.2898 N   0  0  0  0  0  0  0  0  0  0  0  0
  151.3414  136.8793  155.3437 C   0  0  0  0  0  0  0  0  0  0  0  0
  152.2667  137.2308  154.4106 N   0  0  0  0  0  0  0  0  0  0  0  0
  152.8440  138.4351  154.4510 C   0  0  0  0  0  0  0  0  0  0  0  0
  152.6499  139.4246  155.3246 N   0  0  0  0  0  0  0  0  0  0  0  0
  151.7306  139.0754  156.2692 C   0  0  0  0  0  0  0  0  0  0  0  0
  151.0349  137.8359  156.3528 C   0  0  0  0  0  0  0  0  0  0  0  0
  150.1895  137.8430  157.4569 N   0  0  0  0  0  0  0  0  0  0  0  0
  150.3660  139.0226  157.9871 C   0  0  0  0  0  0  0  0  0  0  0  0
  151.2732  139.8272  157.3367 N   0  0  0  0  0  0  0  0  0  0  0  0
  151.6560  141.1783  157.7067 C   0  0  0  0  0  0  0  0  0  0  0  0
  150.4341  142.1051  157.8832 C   0  0  2  0  0  0  0  0  0  0  0  0
  149.8122  142.3573  156.6385 O   0  0  0  0  0  0  0  0  0  0  0  0
  150.7497  143.4554  158.5591 C   0  0  1  0  0  0  0  0  0  0  0  0
  151.4267  143.3333  159.9246 C   0  0  0  0  0  0  0  0  0  0  0  0
  152.0715  144.6934  160.0630 C   0  0  0  0  0  0  0  0  0  0  0  0
  152.5326  144.9718  158.6348 C   0  0  0  0  0  0  0  0  0  0  0  0
  151.6555  144.2374  157.7836 O   0  0  0  0  0  0  0  0  0  0  0  0
  149.3212  135.5931  155.0204 C   0  0  0  0  0  0  0  0  0  0  0  0
  148.8927  134.1482  154.6775 C   0  0  1  0  0  0  0  0  0  0  0  0
  147.3742  134.0322  154.6030 C   0  0  0  0  0  0  0  0  0  0  0  0
  147.0846  134.2259  153.1224 C   0  0  0  0  0  0  0  0  0  0  0  0
  148.1309  133.4946  152.5111 O   0  0  0  0  0  0  0  0  0  0  0  0
  149.3235  133.7070  153.2589 C   0  0  0  0  0  0  0  0  0  0  0  0
  149.3494  133.2601  155.7022 O   0  0  0  0  0  0  0  0  0  0  0  0
  150.8647  130.1449  157.5030 H   0  0  0  0  0  0  0  0  0  0  0  0
  151.2999  130.4620  155.8302 H   0  0  0  0  0  0  0  0  0  0  0  0
  149.6462  130.7376  156.3784 H   0  0  0  0  0  0  0  0  0  0  0  0
  150.4904  132.5316  157.9384 H   0  0  0  0  0  0  0  0  0  0  0  0
  152.1082  132.3141  157.3272 H   0  0  0  0  0  0  0  0  0  0  0  0
  151.2879  132.9865  155.0371 H   0  0  0  0  0  0  0  0  0  0  0  0
  150.7170  135.0078  157.2694 H   0  0  0  0  0  0  0  0  0  0  0  0
  152.2554  134.7632  156.4720 H   0  0  0  0  0  0  0  0  0  0  0  0
  153.5642  138.6343  153.6714 H   0  0  0  0  0  0  0  0  0  0  0  0
  149.8357  139.3412  158.8729 H   0  0  0  0  0  0  0  0  0  0  0  0
  152.2337  141.1241  158.6294 H   0  0  0  0  0  0  0  0  0  0  0  0
  152.3288  141.5688  156.9424 H   0  0  0  0  0  0  0  0  0  0  0  0
  149.6872  141.5898  158.4889 H   0  0  0  0  0  0  0  0  0  0  0  0
  149.7627  143.2932  156.5141 H   0  0  0  0  0  0  0  0  0  0  0  0
  149.8330  144.0331  158.6919 H   0  0  0  0  0  0  0  0  0  0  0  0
  150.7246  143.1105  160.7284 H   0  0  0  0  0  0  0  0  0  0  0  0
  152.1944  142.5591  159.9175 H   0  0  0  0  0  0  0  0  0  0  0  0
  151.3264  145.4298  160.3673 H   0  0  0  0  0  0  0  0  0  0  0  0
  152.8870  144.7124  160.7866 H   0  0  0  0  0  0  0  0  0  0  0  0
  152.5169  146.0358  158.3978 H   0  0  0  0  0  0  0  0  0  0  0  0
  153.5482  144.6056  158.4817 H   0  0  0  0  0  0  0  0  0  0  0  0
  148.7861  135.9383  155.9065 H   0  0  0  0  0  0  0  0  0  0  0  0
  149.0575  136.2661  154.2032 H   0  0  0  0  0  0  0  0  0  0  0  0
  147.0586  133.0299  154.8974 H   0  0  0  0  0  0  0  0  0  0  0  0
  146.8468  134.7444  155.2383 H   0  0  0  0  0  0  0  0  0  0  0  0
  146.1045  133.8497  152.8291 H   0  0  0  0  0  0  0  0  0  0  0  0
  147.1529  135.2780  152.8409 H   0  0  0  0  0  0  0  0  0  0  0  0
  149.9287  134.4705  152.7682 H   0  0  0  0  0  0  0  0  0  0  0  0
  149.8981  132.7810  153.2609 H   0  0  0  0  0  0  0  0  0  0  0  0
  1  2  1  0  0  0  0
  1 30  1  0  0  0  0
  1 31  1  0  0  0  0
  1 32  1  0  0  0  0
  2  3  1  0  0  0  0
  2 33  1  0  0  0  0
  2 34  1  0  0  0  0
  3 29  1  0  0  0  0
  3  4  1  0  0  0  0
  3 35  1  0  0  0  0
  4  5  1  0  0  0  0
  4 36  1  0  0  0  0
  4 37  1  0  0  0  0
  5  6  1  0  0  0  0
  5 23  1  0  0  0  0
  6 11  1  0  0  0  0
  6  7  2  0  0  0  0
  7  8  1  0  0  0  0
  8  9  2  0  0  0  0
  8 38  1  0  0  0  0
  9 10  1  0  0  0  0
 10 14  1  0  0  0  0
 10 11  2  0  0  0  0
 11 12  1  0  0  0  0
 12 13  2  0  0  0  0
 13 14  1  0  0  0  0
 13 39  1  0  0  0  0
 14 15  1  0  0  0  0
 15 16  1  0  0  0  0
 15 40  1  0  0  0  0
 15 41  1  0  0  0  0
 16 17  1  0  0  0  0
 16 18  1  0  0  0  0
 16 42  1  0  0  0  0
 17 43  1  0  0  0  0
 18 22  1  0  0  0  0
 18 19  1  0  0  0  0
 18 44  1  0  0  0  0
 19 20  1  0  0  0  0
 19 45  1  0  0  0  0
 19 46  1  0  0  0  0
 20 21  1  0  0  0  0
 20 47  1  0  0  0  0
 20 48  1  0  0  0  0
 21 22  1  0  0  0  0
 21 49  1  0  0  0  0
 21 50  1  0  0  0  0
 23 24  1  0  0  0  0
 23 51  1  0  0  0  0
 23 52  1  0  0  0  0
 24 28  1  0  0  0  0
 24 25  1  0  0  0  0
 24 29  1  0  0  0  0
 25 26  1  0  0  0  0
 25 53  1  0  0  0  0
 25 54  1  0  0  0  0
 26 27  1  0  0  0  0
 26 55  1  0  0  0  0
 26 56  1  0  0  0  0
 27 28  1  0  0  0  0
 28 57  1  0  0  0  0
 28 58  1  0  0  0  0
M  END
> <s_m_source_file>
AV-unprocessed.smi

> <i_m_source_file_index>
229

> <i_lp_mmshare_version>
43012

> <i_f3d_flags>
0

> <s_epik_input>
W0NIMl0xT1tDSDJdW0NIMl1bQ0BdMTJbQ0gyXU4oW0NIMl1bQ0BIXShPMilbQ0gyXVtDSDNdKWMobltjSF1uMyljKGMzNCluW2NIXW40W0NIMl1bQ0BIXShbT0hdKVtDQEBIXTVbQ0gyXVtDSDJdW0NIMl1PNQ==

> <s_epik_cmdline>
J2VwaWtfcHl0aG9uJywgJy1waCcsICc3LjAnLCAnLXRuJywgJzgnLCAnLW1hJywgJzIwMCcsICctbWV0YWxfYmluZGluZycsICctaW1hZScsICc8aW5maWxlLm1hZT4nLCAnLW9tYWUnLCAnPG91dGZpbGUubWFlPic=

> <r_lp_tautomer_probability>
1

> <r_epik_Ionization_Penalty>
0.00318402

> <r_epik_Ionization_Penalty_Charging>
0

> <r_epik_Ionization_Penalty_Neutral>
0.00318402

> <r_epik_State_Penalty>
0.00215642

> <r_epik_Charging_Adjusted_Penalty>
0.00215642

> <i_epik_Tot_Q>
0

> <i_epik_Tot_abs_Q>
0

> <r_epik_Metal_State_Penalty>
-0

> <b_epik_Metal_Only>
0

> <s_lp_Force_Field>
OPLS_2005

> <r_lp_Energy>
54.9877

> <b_lp_Chiralities_Consistent>
1

> <s_lp_Variant>
AV-unprocessed.smi:229-5

> <Gold.Version>
5.8.1

> <Gold.Id.Protein>
6NUR|6NUR_protein|mol2

> <Gold.PLP.Fitness>
49.6942

> <Gold.PLP.PLP>
-42.3011

> <Gold.PLP.part.hbond>
-3.6217

> <Gold.PLP.part.metal>
0.0000

> <Gold.PLP.part.buried>
-6.6041

> <Gold.PLP.part.nonpolar>
-32.1071

> <Gold.PLP.part.repulsive>
0.5757

> <Gold.PLP.ligand.clash>
0.0000

> <Gold.PLP.ligand.torsion>
0.2801

> <Gold.PLP.Chemscore.Hbond>
2.5323

> <Gold.PLP.Chemscore.CHOScore>
0.0000

> <Gold.PLP.Chemscore.Metal>
0.0000

> <Gold.Chemscore.Hbonds>
donor molecule, donor type, donor heavy atom, donor atom, acceptor molecule, acceptor atom, score
      L1  H    17    43       P1  8028  0.94
      P1  H  7997  8008       L1     9  0.91
      P1  H 10752 10764       L1     7  0.72

> <Gold.PLP.Chemscore.Internal.Correction>
0.3566

> <Gold.Rescore>
     Score         DG    S(hbond)    S(metal)    S(lipo)     H(rot)  DE(clash)    DE(int)     intcor
     18.07     -18.55       2.23        0.00     101.97       2.46       0.23       0.25       ----

> <Gold.Chemscore.Fitness>
18.0657

> <Gold.Chemscore.DG>
-18.5499

> <Gold.Chemscore.ZeroCoef>
-5.4800

> <Gold.Chemscore.Hbond>
2.2259

> <Gold.Chemscore.Metal>
0.0000

> <Gold.Chemscore.Lipo>
101.9708

> <Gold.Chemscore.Internal_Hbond>
0.0000

> <Gold.Chemscore.DEClash>
0.2338

> <Gold.Chemscore.DEInternal>
0.2504

> <Gold.Chemscore.Rot>
2.4591

> <Gold.Chemscore.Internal.Correction>
   9.000000E+99

> <Gold.Chemscore.Hbonds>
donor molecule, donor type, donor heavy atom, donor atom, acceptor molecule, acceptor atom, score
      L1  H    17    43       P1  8028  0.91
      P1  H  7997  8008       L1     9  0.57
      P1  H 10752 10764       L1     7  0.28

> <Gold.Chemscore.Hbond.Weighted>
-7.4347

> <Gold.Chemscore.Metal.Weighted>
-0.0000

> <Gold.Chemscore.Lipo.Weighted>
-11.9306

> <Gold.Chemscore.Internal_Hbond.Weighted>
0.0000

> <Gold.Chemscore.DEClash.Weighted>
0.2338

> <Gold.Chemscore.DEInternal.Weighted>
0.2504

> <Gold.Chemscore.Rot.Weighted>
6.2953

> <Gold.Chemscore.Internal.Correction.Weighted>
   9.000000E+99

> <Gold.Protein.RotatedTorsions>
[ 6907 6896 6895 6894 ] final  156.82 input  -60.11 | X-H torsion
[ 7974 7965 7964 7962 ] final  116.57 input  175.53 | X-H torsion
[ 8008 7997 7996 7995 ] final  -10.31 input   59.86 | X-H torsion
[ 10167 10162 10161 10158 ] final  170.83 input  -65.29 | X-H torsion
[ 10718 10713 10712 10709 ] final   89.74 input   66.30 | X-H torsion
[ 10763 10752 10751 10750 ] final  -93.93 input  -60.55 | X-H torsion
[ 11005 11000 10999 10996 ] final  -93.84 input  -57.11 | X-H torsion

> <Gold.Protein.ActiveResidues>
 VAL166  LYS551  ARG553  GLY616  TRP617  ASP618  TYR619  PRO620  LYS621  CYS622 
 ASP623  PHE694  ASN695  SER759  ASP760  ASP761  ALA762  ILE779  LEU786  VAL792 
 PHE793  MET794  SER795  GLU796  ALA797  LYS798  CYS799  TRP800  GLU811  SER814 

> <Gold.Protein.RotatedAtoms>
  152.0242  133.3911  159.4270 H   0  0  0  0  0  0  0  0  0  0  0  0  # atno 6907 bound_to 6896
  150.6887  134.3592  159.4952 H   0  0  0  0  0  0  0  0  0  0  0  0  # atno 6908 bound_to 6896
  152.1370  134.9091  160.0606 H   0  0  0  0  0  0  0  0  0  0  0  0  # atno 6909 bound_to 6896
  145.1779  139.3065  143.4433 H   0  0  0  0  0  0  0  0  0  0  0  0  # atno 7974 bound_to 7965
  154.5566  140.2332  155.8400 H   0  0  0  0  0  0  0  0  0  0  0  0  # atno 8008 bound_to 7997
  156.1994  140.3056  155.9454 H   0  0  0  0  0  0  0  0  0  0  0  0  # atno 8009 bound_to 7997
  155.2967  140.0429  157.3017 H   0  0  0  0  0  0  0  0  0  0  0  0  # atno 8010 bound_to 7997
  139.5029  144.3553  151.9881 H   0  0  0  0  0  0  0  0  0  0  0  0  # atno 10167 bound_to 10162
  157.6956  131.0344  150.3472 H   0  0  0  0  0  0  0  0  0  0  0  0  # atno 10718 bound_to 10713
  154.7007  135.5176  153.8522 H   0  0  0  0  0  0  0  0  0  0  0  0  # atno 10763 bound_to 10752
  153.0701  135.6598  154.0275 H   0  0  0  0  0  0  0  0  0  0  0  0  # atno 10764 bound_to 10752
  154.0134  135.3000  155.3369 H   0  0  0  0  0  0  0  0  0  0  0  0  # atno 10765 bound_to 10752
  141.1486  133.7915  157.0215 H   0  0  0  0  0  0  0  0  0  0  0  0  # atno 11005 bound_to 11000
  146.3458  140.1949  142.8589 LP  0  0  0  0  0  0  0  0  0  0  0  0  # atno 17320 bound_to 7965
  145.0166  140.8758  143.5192 LP  0  0  0  0  0  0  0  0  0  0  0  0  # atno 17321 bound_to 7965
  140.2989  144.3669  150.6066 LP  0  0  0  0  0  0  0  0  0  0  0  0  # atno 17342 bound_to 10162
  140.5888  143.2169  151.7291 LP  0  0  0  0  0  0  0  0  0  0  0  0  # atno 17343 bound_to 10162
  156.3925  130.3900  149.7019 LP  0  0  0  0  0  0  0  0  0  0  0  0  # atno 17370 bound_to 10713
  156.4364  130.7840  151.2861 LP  0  0  0  0  0  0  0  0  0  0  0  0  # atno 17371 bound_to 10713
  140.0812  134.9647  157.1628 LP  0  0  0  0  0  0  0  0  0  0  0  0  # atno 17394 bound_to 11000
  140.3574  134.2532  155.7191 LP  0  0  0  0  0  0  0  0  0  0  0  0  # atno 17395 bound_to 11000

$$$$
