AV-unprocessed.smi:219|AV-procd|sdf|1678|dock3
  -GOLD-   2262020103D 1   1.00000     0.00000
 Structure written by MMmdl.
 50 53  0  0  0  0  0  0  0  0  1 V2000
  141.7598  138.7108  153.1380 N   0  0  0  0  0  0  0  0  0  0  0  0
  141.7069  137.4054  153.4152 C   0  0  0  0  0  0  0  0  0  0  0  0
  140.6436  136.7918  153.4739 O   0  0  0  0  0  0  0  0  0  0  0  0
  143.0427  136.6890  153.6600 C   0  0  0  0  0  0  0  0  0  0  0  0
  143.5728  135.8349  152.4693 C   0  0  2  0  0  0  0  0  0  0  0  0
  142.9745  134.4125  152.5676 C   0  0  0  0  0  0  0  0  0  0  0  0
  143.4601  133.5004  151.4327 C   0  0  0  0  0  0  0  0  0  0  0  0
  144.9918  133.4699  151.4062 C   0  0  0  0  0  0  0  0  0  0  0  0
  145.5482  134.8953  151.2966 C   0  0  0  0  0  0  0  0  0  0  0  0
  145.0442  135.7472  152.3759 N   0  0  0  0  0  0  0  0  0  0  0  0
  145.7211  136.9157  152.4486 C   0  0  0  0  0  0  0  0  0  0  0  0
  145.6862  137.7895  151.4078 N   0  0  0  0  0  0  0  0  0  0  0  0
  146.3147  138.9649  151.5042 C   0  0  0  0  0  0  0  0  0  0  0  0
  147.0135  139.4568  152.5300 N   0  0  0  0  0  0  0  0  0  0  0  0
  147.0519  138.5771  153.5719 C   0  0  0  0  0  0  0  0  0  0  0  0
  146.4480  137.2902  153.6086 C   0  0  0  0  0  0  0  0  0  0  0  0
  146.6983  136.6771  154.8292 N   0  0  0  0  0  0  0  0  0  0  0  0
  147.4065  137.5570  155.4829 C   0  0  0  0  0  0  0  0  0  0  0  0
  147.6491  138.7342  154.8103 N   0  0  0  0  0  0  0  0  0  0  0  0
  148.3782  139.8895  155.3082 C   0  0  0  0  0  0  0  0  0  0  0  0
  149.7754  140.0521  154.6645 C   0  0  1  0  0  0  0  0  0  0  0  0
  149.6650  140.8696  153.5119 O   0  0  0  0  0  0  0  0  0  0  0  0
  150.8212  140.6671  155.5917 C   0  0  0  0  0  0  0  0  0  0  0  0
  152.1104  139.9874  155.1521 C   0  0  0  0  0  0  0  0  0  0  0  0
  151.6845  138.6598  154.8996 O   0  0  0  0  0  0  0  0  0  0  0  0
  150.4164  138.7109  154.2540 C   0  0  0  0  0  0  0  0  0  0  0  0
  140.9056  139.2186  152.9584 H   0  0  0  0  0  0  0  0  0  0  0  0
  142.6514  139.1829  153.0970 H   0  0  0  0  0  0  0  0  0  0  0  0
  143.8062  137.3979  153.9839 H   0  0  0  0  0  0  0  0  0  0  0  0
  142.8642  136.0389  154.5172 H   0  0  0  0  0  0  0  0  0  0  0  0
  143.2163  136.2723  151.5352 H   0  0  0  0  0  0  0  0  0  0  0  0
  143.2454  133.9678  153.5265 H   0  0  0  0  0  0  0  0  0  0  0  0
  141.8851  134.4608  152.5474 H   0  0  0  0  0  0  0  0  0  0  0  0
  143.0651  132.4927  151.5632 H   0  0  0  0  0  0  0  0  0  0  0  0
  143.0807  133.8655  150.4775 H   0  0  0  0  0  0  0  0  0  0  0  0
  145.3689  132.9959  152.3135 H   0  0  0  0  0  0  0  0  0  0  0  0
  145.3416  132.8654  150.5689 H   0  0  0  0  0  0  0  0  0  0  0  0
  146.6387  134.8650  151.3254 H   0  0  0  0  0  0  0  0  0  0  0  0
  145.2664  135.3219  150.3328 H   0  0  0  0  0  0  0  0  0  0  0  0
  146.2399  139.6066  150.6388 H   0  0  0  0  0  0  0  0  0  0  0  0
  147.7624  137.3742  156.4863 H   0  0  0  0  0  0  0  0  0  0  0  0
  147.7731  140.7777  155.1215 H   0  0  0  0  0  0  0  0  0  0  0  0
  148.4678  139.8023  156.3920 H   0  0  0  0  0  0  0  0  0  0  0  0
  149.4341  140.3225  152.7767 H   0  0  0  0  0  0  0  0  0  0  0  0
  150.8696  141.7560  155.5442 H   0  0  0  0  0  0  0  0  0  0  0  0
  150.6183  140.3888  156.6266 H   0  0  0  0  0  0  0  0  0  0  0  0
  152.4990  140.4328  154.2351 H   0  0  0  0  0  0  0  0  0  0  0  0
  152.8894  140.0239  155.9141 H   0  0  0  0  0  0  0  0  0  0  0  0
  149.8216  137.8514  154.5651 H   0  0  0  0  0  0  0  0  0  0  0  0
  150.5563  138.6365  153.1741 H   0  0  0  0  0  0  0  0  0  0  0  0
  1  2  1  0  0  0  0
  1 27  1  0  0  0  0
  1 28  1  0  0  0  0
  2  3  2  0  0  0  0
  2  4  1  0  0  0  0
  4  5  1  0  0  0  0
  4 29  1  0  0  0  0
  4 30  1  0  0  0  0
  5 10  1  0  0  0  0
  5  6  1  0  0  0  0
  5 31  1  0  0  0  0
  6  7  1  0  0  0  0
  6 32  1  0  0  0  0
  6 33  1  0  0  0  0
  7  8  1  0  0  0  0
  7 34  1  0  0  0  0
  7 35  1  0  0  0  0
  8  9  1  0  0  0  0
  8 36  1  0  0  0  0
  8 37  1  0  0  0  0
  9 10  1  0  0  0  0
  9 38  1  0  0  0  0
  9 39  1  0  0  0  0
 10 11  1  0  0  0  0
 11 16  1  0  0  0  0
 11 12  2  0  0  0  0
 12 13  1  0  0  0  0
 13 14  2  0  0  0  0
 13 40  1  0  0  0  0
 14 15  1  0  0  0  0
 15 19  1  0  0  0  0
 15 16  2  0  0  0  0
 16 17  1  0  0  0  0
 17 18  2  0  0  0  0
 18 19  1  0  0  0  0
 18 41  1  0  0  0  0
 19 20  1  0  0  0  0
 20 21  1  0  0  0  0
 20 42  1  0  0  0  0
 20 43  1  0  0  0  0
 21 26  1  0  0  0  0
 21 22  1  0  0  0  0
 21 23  1  0  0  0  0
 22 44  1  0  0  0  0
 23 24  1  0  0  0  0
 23 45  1  0  0  0  0
 23 46  1  0  0  0  0
 24 25  1  0  0  0  0
 24 47  1  0  0  0  0
 24 48  1  0  0  0  0
 25 26  1  0  0  0  0
 26 49  1  0  0  0  0
 26 50  1  0  0  0  0
M  END
> <s_m_source_file>
AV-unprocessed.smi

> <i_m_source_file_index>
219

> <i_lp_mmshare_version>
43012

> <i_f3d_flags>
0

> <s_epik_input>
W05IMl1DKD1PKVtDSDJdW0NAQEhdMVtDSDJdW0NIMl1bQ0gyXVtDSDJdTjFjKG5bY0hdbjIpYyhjMjMpbltjSF1uM1tDSDJdW0NAQF00KFtPSF0pW0NIMl1bQ0gyXU9bQ0gyXTQ=

> <s_epik_cmdline>
J2VwaWtfcHl0aG9uJywgJy1waCcsICc3LjAnLCAnLXRuJywgJzgnLCAnLW1hJywgJzIwMCcsICctbWV0YWxfYmluZGluZycsICctaW1hZScsICc8aW5maWxlLm1hZT4nLCAnLW9tYWUnLCAnPG91dGZpbGUubWFlPic=

> <r_lp_tautomer_probability>
1

> <r_epik_Ionization_Penalty>
0.00228532

> <r_epik_Ionization_Penalty_Charging>
0

> <r_epik_Ionization_Penalty_Neutral>
0.00228532

> <r_epik_State_Penalty>
0.00140978

> <r_epik_Charging_Adjusted_Penalty>
0.00140978

> <i_epik_Tot_Q>
0

> <i_epik_Tot_abs_Q>
0

> <r_epik_Metal_State_Penalty>
-0

> <b_epik_Metal_Only>
0

> <s_lp_Force_Field>
OPLS_2005

> <r_lp_Energy>
33.2766

> <b_lp_Chiralities_Consistent>
1

> <s_lp_Variant>
AV-unprocessed.smi:219-1

> <Gold.Version>
5.8.1

> <Gold.Id.Protein>
6NUR|6NUR_protein|mol2

> <Gold.PLP.Fitness>
41.2181

> <Gold.PLP.PLP>
-34.3352

> <Gold.PLP.part.hbond>
-4.4506

> <Gold.PLP.part.metal>
0.0000

> <Gold.PLP.part.buried>
-2.0067

> <Gold.PLP.part.nonpolar>
-31.3027

> <Gold.PLP.part.repulsive>
5.8112

> <Gold.PLP.ligand.clash>
0.0000

> <Gold.PLP.ligand.torsion>
1.4936

> <Gold.PLP.Chemscore.Hbond>
3.0908

> <Gold.PLP.Chemscore.CHOScore>
0.0942

> <Gold.PLP.Chemscore.Metal>
0.0000

> <Gold.Chemscore.Hbonds>
donor molecule, donor type, donor heavy atom, donor atom, acceptor molecule, acceptor atom, score
      L1  H     1    28       P1 10175  0.96
      L1  H    22    44       P1  7957  0.93
      P1  H  7989  7998       L1    22  0.13
      P1  H  8011  8017       L1    22  0.50
      L1  C    13    40       P1 10171  0.21

> <Gold.PLP.Chemscore.Internal.Correction>
0.3153

> <Gold.Rescore>
     Score         DG    S(hbond)    S(metal)    S(lipo)     H(rot)  DE(clash)    DE(int)     intcor
      7.02     -12.71       2.46        0.00      65.35       3.37       3.64       2.05       ----

> <Gold.Chemscore.Fitness>
7.0174

> <Gold.Chemscore.DG>
-12.7138

> <Gold.Chemscore.ZeroCoef>
-5.4800

> <Gold.Chemscore.Hbond>
2.4592

> <Gold.Chemscore.Metal>
0.0000

> <Gold.Chemscore.Lipo>
65.3548

> <Gold.Chemscore.Internal_Hbond>
0.0000

> <Gold.Chemscore.DEClash>
3.6425

> <Gold.Chemscore.DEInternal>
2.0540

> <Gold.Chemscore.Rot>
3.3697

> <Gold.Chemscore.Internal.Correction>
   9.000000E+99

> <Gold.Chemscore.Hbonds>
donor molecule, donor type, donor heavy atom, donor atom, acceptor molecule, acceptor atom, score
      L1  H     1    27       P1 10160  0.01
      L1  H     1    28       P1 10175  0.92
      L1  H    22    44       P1  7957  0.89
      P1  H  8011  8017       L1    22  0.02

> <Gold.Chemscore.Hbond.Weighted>
-8.2137

> <Gold.Chemscore.Metal.Weighted>
-0.0000

> <Gold.Chemscore.Lipo.Weighted>
-7.6465

> <Gold.Chemscore.Internal_Hbond.Weighted>
0.0000

> <Gold.Chemscore.DEClash.Weighted>
3.6425

> <Gold.Chemscore.DEInternal.Weighted>
2.0540

> <Gold.Chemscore.Rot.Weighted>
8.6264

> <Gold.Chemscore.Internal.Correction.Weighted>
   9.000000E+99

> <Gold.Protein.RotatedTorsions>
[ 6907 6896 6895 6894 ] final -136.97 input  -60.11 | X-H torsion
[ 7974 7965 7964 7962 ] final  -57.96 input  175.53 | X-H torsion
[ 8008 7997 7996 7995 ] final -125.44 input   59.86 | X-H torsion
[ 10167 10162 10161 10158 ] final   86.45 input  -65.29 | X-H torsion
[ 10718 10713 10712 10709 ] final  -23.55 input   66.30 | X-H torsion
[ 10763 10752 10751 10750 ] final  109.42 input  -60.55 | X-H torsion
[ 11005 11000 10999 10996 ] final  -82.66 input  -57.11 | X-H torsion

> <Gold.Protein.ActiveResidues>
 VAL166  LYS551  ARG553  GLY616  TRP617  ASP618  TYR619  PRO620  LYS621  CYS622 
 ASP623  PHE694  ASN695  SER759  ASP760  ASP761  ALA762  ILE779  LEU786  VAL792 
 PHE793  MET794  SER795  GLU796  ALA797  LYS798  CYS799  TRP800  GLU811  SER814 

> <Gold.Protein.RotatedAtoms>
  151.0167  133.5914  159.2675 H   0  0  0  0  0  0  0  0  0  0  0  0  # atno 6907 bound_to 6896
  151.3046  135.0777  159.9260 H   0  0  0  0  0  0  0  0  0  0  0  0  # atno 6908 bound_to 6896
  152.5313  133.9843  159.7875 H   0  0  0  0  0  0  0  0  0  0  0  0  # atno 6909 bound_to 6896
  145.8449  140.8392  143.0015 H   0  0  0  0  0  0  0  0  0  0  0  0  # atno 7974 bound_to 7965
  155.2134  140.0419  157.2937 H   0  0  0  0  0  0  0  0  0  0  0  0  # atno 8008 bound_to 7997
  154.5997  140.2449  155.7780 H   0  0  0  0  0  0  0  0  0  0  0  0  # atno 8009 bound_to 7997
  156.2313  140.2937  156.0205 H   0  0  0  0  0  0  0  0  0  0  0  0  # atno 8010 bound_to 7997
  139.8874  144.6405  150.8776 H   0  0  0  0  0  0  0  0  0  0  0  0  # atno 10167 bound_to 10162
  156.4895  130.4563  149.6763 H   0  0  0  0  0  0  0  0  0  0  0  0  # atno 10718 bound_to 10713
  153.4345  135.3780  155.2190 H   0  0  0  0  0  0  0  0  0  0  0  0  # atno 10763 bound_to 10752
  154.8751  135.3848  154.4228 H   0  0  0  0  0  0  0  0  0  0  0  0  # atno 10764 bound_to 10752
  153.4765  135.7088  153.6026 H   0  0  0  0  0  0  0  0  0  0  0  0  # atno 10765 bound_to 10752
  141.1662  133.7256  156.8605 H   0  0  0  0  0  0  0  0  0  0  0  0  # atno 11005 bound_to 11000
  144.6731  140.0867  143.7467 LP  0  0  0  0  0  0  0  0  0  0  0  0  # atno 17320 bound_to 7965
  145.9423  139.2677  143.1261 LP  0  0  0  0  0  0  0  0  0  0  0  0  # atno 17321 bound_to 7965
  140.7733  143.3537  151.1963 LP  0  0  0  0  0  0  0  0  0  0  0  0  # atno 17342 bound_to 10162
  139.7141  143.9329  152.2959 LP  0  0  0  0  0  0  0  0  0  0  0  0  # atno 17343 bound_to 10162
  156.3440  130.7397  151.2347 LP  0  0  0  0  0  0  0  0  0  0  0  0  # atno 17370 bound_to 10713
  157.7475  131.0395  150.4556 LP  0  0  0  0  0  0  0  0  0  0  0  0  # atno 17371 bound_to 10713
  140.1852  134.9005  157.2995 LP  0  0  0  0  0  0  0  0  0  0  0  0  # atno 17394 bound_to 11000
  140.2351  134.3862  155.7504 LP  0  0  0  0  0  0  0  0  0  0  0  0  # atno 17395 bound_to 11000

$$$$
