AV-unprocessed.smi:85|AV-procd|sdf|811|dock6
  -GOLD-   2262017213D 1   1.00000     0.00000
 Structure written by MMmdl.
 62 65  0  0  0  0  0  0  0  0  1 V2000
  151.1877  140.4612  155.7346 C   0  0  0  0  0  0  0  0  0  0  0  0
  150.0105  140.6433  156.7074 C   0  0  0  0  0  0  0  0  0  0  0  0
  150.3317  140.2770  158.0913 N   0  0  0  0  0  0  0  0  0  0  0  0
  150.3588  138.9542  158.3859 C   0  0  0  0  0  0  0  0  0  0  0  0
  151.5733  138.3980  158.6237 N   0  0  0  0  0  0  0  0  0  0  0  0
  151.6686  137.1001  158.9259 C   0  0  0  0  0  0  0  0  0  0  0  0
  150.6939  136.1961  159.0391 N   0  0  0  0  0  0  0  0  0  0  0  0
  149.4715  136.7477  158.7909 C   0  0  0  0  0  0  0  0  0  0  0  0
  149.2154  138.1065  158.4513 C   0  0  0  0  0  0  0  0  0  0  0  0
  147.8537  138.2913  158.2448 N   0  0  0  0  0  0  0  0  0  0  0  0
  147.3350  137.1142  158.4594 C   0  0  0  0  0  0  0  0  0  0  0  0
  148.2313  136.1318  158.8164 N   0  0  0  0  0  0  0  0  0  0  0  0
  147.9237  134.7405  159.1192 C   0  0  0  0  0  0  0  0  0  0  0  0
  147.5038  134.4690  160.5952 C   0  0  0  0  0  0  0  0  0  0  0  0
  148.5176  135.1174  161.5812 C   0  0  0  0  0  0  0  0  0  0  0  0
  148.2604  136.4922  161.7849 O   0  0  0  0  0  0  0  0  0  0  0  0
  146.0878  135.0442  160.8574 C   0  0  0  0  0  0  0  0  0  0  0  0
  145.4606  134.5402  162.1708 C   0  0  0  0  0  0  0  0  0  0  0  0
  145.4375  133.1195  162.1913 O   0  0  0  0  0  0  0  0  0  0  0  0
  146.7374  132.5484  162.1299 C   0  0  0  0  0  0  0  0  0  0  0  0
  147.4132  132.9358  160.8029 C   0  0  0  0  0  0  0  0  0  0  0  0
  151.3226  141.0526  158.8485 C   0  0  1  0  0  0  0  0  0  0  0  0
  152.7565  140.8640  158.3278 C   0  0  0  0  0  0  0  0  0  0  0  0
  153.7387  141.6903  159.1688 C   0  0  0  0  0  0  0  0  0  0  0  0
  153.3597  143.0660  159.1755 O   0  0  0  0  0  0  0  0  0  0  0  0
  152.0544  143.3644  159.6835 C   0  0  0  0  0  0  0  0  0  0  0  0
  151.9853  143.1058  161.2042 C   0  0  0  0  0  0  0  0  0  0  0  0
  151.8580  144.8678  159.4253 C   0  0  0  0  0  0  0  0  0  0  0  0
  150.9960  142.5570  158.8931 C   0  0  0  0  0  0  0  0  0  0  0  0
  150.8765  140.6813  154.7135 H   0  0  0  0  0  0  0  0  0  0  0  0
  151.5573  139.4356  155.7541 H   0  0  0  0  0  0  0  0  0  0  0  0
  152.0208  141.1238  155.9688 H   0  0  0  0  0  0  0  0  0  0  0  0
  149.6479  141.6696  156.6660 H   0  0  0  0  0  0  0  0  0  0  0  0
  149.1884  140.0252  156.3519 H   0  0  0  0  0  0  0  0  0  0  0  0
  152.6685  136.7336  159.1054 H   0  0  0  0  0  0  0  0  0  0  0  0
  146.2738  136.9318  158.3717 H   0  0  0  0  0  0  0  0  0  0  0  0
  147.1290  134.4268  158.4408 H   0  0  0  0  0  0  0  0  0  0  0  0
  148.7902  134.1339  158.8529 H   0  0  0  0  0  0  0  0  0  0  0  0
  148.4944  134.6152  162.5484 H   0  0  0  0  0  0  0  0  0  0  0  0
  149.5419  135.0279  161.2236 H   0  0  0  0  0  0  0  0  0  0  0  0
  147.9291  136.6096  162.6621 H   0  0  0  0  0  0  0  0  0  0  0  0
  146.1105  136.1341  160.8696 H   0  0  0  0  0  0  0  0  0  0  0  0
  145.4256  134.7623  160.0376 H   0  0  0  0  0  0  0  0  0  0  0  0
  145.9927  134.9206  163.0430 H   0  0  0  0  0  0  0  0  0  0  0  0
  144.4358  134.9030  162.2521 H   0  0  0  0  0  0  0  0  0  0  0  0
  147.3311  132.8588  162.9902 H   0  0  0  0  0  0  0  0  0  0  0  0
  146.6419  131.4642  162.1927 H   0  0  0  0  0  0  0  0  0  0  0  0
  146.8322  132.4950  159.9916 H   0  0  0  0  0  0  0  0  0  0  0  0
  148.3998  132.4755  160.7416 H   0  0  0  0  0  0  0  0  0  0  0  0
  151.3015  140.6922  159.8776 H   0  0  0  0  0  0  0  0  0  0  0  0
  153.0428  139.8127  158.3604 H   0  0  0  0  0  0  0  0  0  0  0  0
  152.8264  141.1769  157.2856 H   0  0  0  0  0  0  0  0  0  0  0  0
  153.8050  141.3011  160.1846 H   0  0  0  0  0  0  0  0  0  0  0  0
  154.7406  141.6122  158.7466 H   0  0  0  0  0  0  0  0  0  0  0  0
  151.0242  143.4235  161.6099 H   0  0  0  0  0  0  0  0  0  0  0  0
  152.7625  143.6610  161.7300 H   0  0  0  0  0  0  0  0  0  0  0  0
  152.1067  142.0549  161.4619 H   0  0  0  0  0  0  0  0  0  0  0  0
  150.8742  145.2021  159.7561 H   0  0  0  0  0  0  0  0  0  0  0  0
  151.9473  145.1039  158.3643 H   0  0  0  0  0  0  0  0  0  0  0  0
  152.6047  145.4610  159.9544 H   0  0  0  0  0  0  0  0  0  0  0  0
  150.9547  142.9527  157.8788 H   0  0  0  0  0  0  0  0  0  0  0  0
  150.0054  142.7136  159.3222 H   0  0  0  0  0  0  0  0  0  0  0  0
  1  2  1  0  0  0  0
  1 30  1  0  0  0  0
  1 31  1  0  0  0  0
  1 32  1  0  0  0  0
  2  3  1  0  0  0  0
  2 33  1  0  0  0  0
  2 34  1  0  0  0  0
  3  4  1  0  0  0  0
  3 22  1  0  0  0  0
  4  9  1  0  0  0  0
  4  5  2  0  0  0  0
  5  6  1  0  0  0  0
  6  7  2  0  0  0  0
  6 35  1  0  0  0  0
  7  8  1  0  0  0  0
  8 12  1  0  0  0  0
  8  9  2  0  0  0  0
  9 10  1  0  0  0  0
 10 11  2  0  0  0  0
 11 12  1  0  0  0  0
 11 36  1  0  0  0  0
 12 13  1  0  0  0  0
 13 14  1  0  0  0  0
 13 37  1  0  0  0  0
 13 38  1  0  0  0  0
 14 21  1  0  0  0  0
 14 15  1  0  0  0  0
 14 17  1  0  0  0  0
 15 16  1  0  0  0  0
 15 39  1  0  0  0  0
 15 40  1  0  0  0  0
 16 41  1  0  0  0  0
 17 18  1  0  0  0  0
 17 42  1  0  0  0  0
 17 43  1  0  0  0  0
 18 19  1  0  0  0  0
 18 44  1  0  0  0  0
 18 45  1  0  0  0  0
 19 20  1  0  0  0  0
 20 21  1  0  0  0  0
 20 46  1  0  0  0  0
 20 47  1  0  0  0  0
 21 48  1  0  0  0  0
 21 49  1  0  0  0  0
 22 29  1  0  0  0  0
 22 23  1  0  0  0  0
 22 50  1  0  0  0  0
 23 24  1  0  0  0  0
 23 51  1  0  0  0  0
 23 52  1  0  0  0  0
 24 25  1  0  0  0  0
 24 53  1  0  0  0  0
 24 54  1  0  0  0  0
 25 26  1  0  0  0  0
 26 27  1  0  0  0  0
 26 28  1  0  0  0  0
 26 29  1  0  0  0  0
 27 55  1  0  0  0  0
 27 56  1  0  0  0  0
 27 57  1  0  0  0  0
 28 58  1  0  0  0  0
 28 59  1  0  0  0  0
 28 60  1  0  0  0  0
 29 61  1  0  0  0  0
 29 62  1  0  0  0  0
M  END
> <s_m_source_file>
AV-unprocessed.smi

> <i_m_source_file_index>
85

> <i_lp_mmshare_version>
43012

> <i_f3d_flags>
0

> <s_epik_input>
W0NIM11DMShbQ0gzXSlPW0NIMl1bQ0gyXVtDQEhdKFtDSDJdMSlOKFtDSDJdW0NIM10pYyhuW2NIXW4yKWMoYzIzKW5bY0hdbjNbQ0gyXUM0KFtDSDJdW09IXSlbQ0gyXVtDSDJdT1tDSDJdW0NIMl00

> <s_epik_cmdline>
J2VwaWtfcHl0aG9uJywgJy1waCcsICc3LjAnLCAnLXRuJywgJzgnLCAnLW1hJywgJzIwMCcsICctbWV0YWxfYmluZGluZycsICctaW1hZScsICc8aW5maWxlLm1hZT4nLCAnLW9tYWUnLCAnPG91dGZpbGUubWFlPic=

> <r_lp_tautomer_probability>
1

> <r_epik_Ionization_Penalty>
0.00336056

> <r_epik_Ionization_Penalty_Charging>
0

> <r_epik_Ionization_Penalty_Neutral>
0.00336056

> <r_epik_State_Penalty>
0.00222191

> <r_epik_Charging_Adjusted_Penalty>
0.00222191

> <i_epik_Tot_Q>
0

> <i_epik_Tot_abs_Q>
0

> <r_epik_Metal_State_Penalty>
-0

> <b_epik_Metal_Only>
0

> <s_lp_Force_Field>
OPLS_2005

> <r_lp_Energy>
36.9586

> <b_lp_Chiralities_Consistent>
1

> <s_lp_Variant>
AV-unprocessed.smi:85-2

> <Gold.Version>
5.8.1

> <Gold.Id.Protein>
6NUR|6NUR_protein|mol2

> <Gold.PLP.Fitness>
48.9525

> <Gold.PLP.PLP>
-44.3999

> <Gold.PLP.part.hbond>
-3.9138

> <Gold.PLP.part.metal>
0.0000

> <Gold.PLP.part.buried>
-5.1842

> <Gold.PLP.part.nonpolar>
-37.4609

> <Gold.PLP.part.repulsive>
0.0592

> <Gold.PLP.ligand.clash>
0.0000

> <Gold.PLP.ligand.torsion>
2.1081

> <Gold.PLP.Chemscore.Hbond>
2.5321

> <Gold.PLP.Chemscore.CHOScore>
0.0000

> <Gold.PLP.Chemscore.Metal>
0.0000

> <Gold.Chemscore.Hbonds>
donor molecule, donor type, donor heavy atom, donor atom, acceptor molecule, acceptor atom, score
      P1  H  6896  6907       L1     7  0.72
      P1  H  6931  6943       L1    16  0.40

> <Gold.PLP.Chemscore.Internal.Correction>
1.1725

> <Gold.Rescore>
     Score         DG    S(hbond)    S(metal)    S(lipo)     H(rot)  DE(clash)    DE(int)     intcor
     14.94     -18.78       1.52        0.00     122.94       2.41       0.24       3.59       ----

> <Gold.Chemscore.Fitness>
14.9432

> <Gold.Chemscore.DG>
-18.7803

> <Gold.Chemscore.ZeroCoef>
-5.4800

> <Gold.Chemscore.Hbond>
1.5213

> <Gold.Chemscore.Metal>
0.0000

> <Gold.Chemscore.Lipo>
122.9431

> <Gold.Chemscore.Internal_Hbond>
0.0000

> <Gold.Chemscore.DEClash>
0.2444

> <Gold.Chemscore.DEInternal>
3.5927

> <Gold.Chemscore.Rot>
2.4083

> <Gold.Chemscore.Internal.Correction>
   9.000000E+99

> <Gold.Chemscore.Hbonds>
donor molecule, donor type, donor heavy atom, donor atom, acceptor molecule, acceptor atom, score
      P1  H  6896  6907       L1     7  0.66
      P1  H  6931  6943       L1    16  0.01

> <Gold.Chemscore.Hbond.Weighted>
-5.0812

> <Gold.Chemscore.Metal.Weighted>
-0.0000

> <Gold.Chemscore.Lipo.Weighted>
-14.3843

> <Gold.Chemscore.Internal_Hbond.Weighted>
0.0000

> <Gold.Chemscore.DEClash.Weighted>
0.2444

> <Gold.Chemscore.DEInternal.Weighted>
3.5927

> <Gold.Chemscore.Rot.Weighted>
6.1652

> <Gold.Chemscore.Internal.Correction.Weighted>
   9.000000E+99

> <Gold.Protein.RotatedTorsions>
[ 6907 6896 6895 6894 ] final  -58.59 input  -60.11 | X-H torsion
[ 7974 7965 7964 7962 ] final -178.67 input  175.53 | X-H torsion
[ 8008 7997 7996 7995 ] final  175.01 input   59.86 | X-H torsion
[ 10167 10162 10161 10158 ] final  -82.99 input  -65.29 | X-H torsion
[ 10718 10713 10712 10709 ] final   90.97 input   66.30 | X-H torsion
[ 10763 10752 10751 10750 ] final    6.64 input  -60.55 | X-H torsion
[ 11005 11000 10999 10996 ] final -178.68 input  -57.11 | X-H torsion

> <Gold.Protein.ActiveResidues>
 VAL166  LYS551  ARG553  GLY616  TRP617  ASP618  TYR619  PRO620  LYS621  CYS622 
 ASP623  PHE694  ASN695  SER759  ASP760  ASP761  ALA762  ILE779  LEU786  VAL792 
 PHE793  MET794  SER795  GLU796  ALA797  LYS798  CYS799  TRP800  GLU811  SER814 

> <Gold.Protein.RotatedAtoms>
  150.7995  134.7079  159.6586 H   0  0  0  0  0  0  0  0  0  0  0  0  # atno 6907 bound_to 6896
  152.4111  134.6119  160.0038 H   0  0  0  0  0  0  0  0  0  0  0  0  # atno 6908 bound_to 6896
  151.6362  133.3292  159.3156 H   0  0  0  0  0  0  0  0  0  0  0  0  # atno 6909 bound_to 6896
  144.7132  140.0833  143.6424 H   0  0  0  0  0  0  0  0  0  0  0  0  # atno 7974 bound_to 7965
  156.0915  140.1420  156.9586 H   0  0  0  0  0  0  0  0  0  0  0  0  # atno 8008 bound_to 7997
  154.4644  140.0931  156.7029 H   0  0  0  0  0  0  0  0  0  0  0  0  # atno 8009 bound_to 7997
  155.4912  140.3448  155.4357 H   0  0  0  0  0  0  0  0  0  0  0  0  # atno 8010 bound_to 7997
  140.4268  143.2563  151.8814 H   0  0  0  0  0  0  0  0  0  0  0  0  # atno 10167 bound_to 10162
  157.6960  131.0390  150.3659 H   0  0  0  0  0  0  0  0  0  0  0  0  # atno 10718 bound_to 10713
  153.2454  135.6908  153.7737 H   0  0  0  0  0  0  0  0  0  0  0  0  # atno 10763 bound_to 10752
  153.6851  135.3322  155.3189 H   0  0  0  0  0  0  0  0  0  0  0  0  # atno 10764 bound_to 10752
  154.8373  135.4531  154.1392 H   0  0  0  0  0  0  0  0  0  0  0  0  # atno 10765 bound_to 10752
  140.4270  134.6553  157.4693 H   0  0  0  0  0  0  0  0  0  0  0  0  # atno 11005 bound_to 11000
  145.9683  139.2851  143.1114 LP  0  0  0  0  0  0  0  0  0  0  0  0  # atno 17320 bound_to 7965
  145.9144  140.9158  143.0437 LP  0  0  0  0  0  0  0  0  0  0  0  0  # atno 17321 bound_to 7965
  139.4784  144.5378  151.8573 LP  0  0  0  0  0  0  0  0  0  0  0  0  # atno 17342 bound_to 10162
  140.4472  144.1905  150.5895 LP  0  0  0  0  0  0  0  0  0  0  0  0  # atno 17343 bound_to 10162
  156.4090  130.3930  149.6905 LP  0  0  0  0  0  0  0  0  0  0  0  0  # atno 17370 bound_to 10713
  156.4196  130.7762  151.2779 LP  0  0  0  0  0  0  0  0  0  0  0  0  # atno 17371 bound_to 10713
  140.0160  134.6618  155.9309 LP  0  0  0  0  0  0  0  0  0  0  0  0  # atno 17394 bound_to 11000
  141.1761  133.6540  156.4834 LP  0  0  0  0  0  0  0  0  0  0  0  0  # atno 17395 bound_to 11000

$$$$
