AV-unprocessed.smi:2555|AV-procd|sdf|10022|dock4
  -GOLD-   2272014 63D 1   1.00000     0.00000
 Structure written by MMmdl.
 40 41  0  0  0  0  0  0  0  0  1 V2000
  144.9151  142.4203  154.6883 C   0  0  0  0  0  0  0  0  0  0  0  0
  145.6301  141.5883  155.7139 C   0  0  0  0  0  0  0  0  0  0  0  0
  145.0465  141.3342  156.8731 N   0  0  0  0  0  0  0  0  0  0  0  0
  145.9525  140.5507  157.5944 O   0  0  0  0  0  0  0  0  0  0  0  0
  147.0600  140.3632  156.8324 C   0  0  0  0  0  0  0  0  0  0  0  0
  148.1557  139.5475  157.4306 C   0  0  0  0  0  0  0  0  0  0  0  0
  146.9216  140.9937  155.6265 C   0  0  0  0  0  0  0  0  0  0  0  0
  147.8959  141.0521  154.4790 C   0  0  0  0  0  0  0  0  0  0  0  0
  149.3198  140.8770  155.0068 C   0  0  0  0  0  0  0  0  0  0  0  0
  150.0453  140.0012  154.5357 O   0  0  0  0  0  0  0  0  0  0  0  0
  149.7042  141.7136  155.9837 N   0  0  0  0  0  0  0  0  0  0  0  0
  151.0029  141.6995  156.6508 C   0  0  0  0  0  0  0  0  0  0  0  0
  151.0562  142.6459  157.8692 C   0  0  0  0  0  0  0  0  0  0  0  0
  151.0436  144.1405  157.4738 C   0  0  0  0  0  0  0  0  0  0  0  0
  151.1373  145.0613  158.7016 C   0  0  0  0  0  0  0  0  0  0  0  0
  152.3730  144.7356  159.5529 C   0  0  0  0  0  0  0  0  0  0  0  0
  152.3818  143.2564  159.9647 C   0  0  0  0  0  0  0  0  0  0  0  0
  152.2956  142.3380  158.7352 C   0  0  0  0  0  0  0  0  0  0  0  0
  145.4957  143.3068  154.4333 H   0  0  0  0  0  0  0  0  0  0  0  0
  143.9409  142.7556  155.0458 H   0  0  0  0  0  0  0  0  0  0  0  0
  144.7544  141.8532  153.7713 H   0  0  0  0  0  0  0  0  0  0  0  0
  149.1316  139.9439  157.1495 H   0  0  0  0  0  0  0  0  0  0  0  0
  148.0985  138.5147  157.0866 H   0  0  0  0  0  0  0  0  0  0  0  0
  148.0947  139.5469  158.5191 H   0  0  0  0  0  0  0  0  0  0  0  0
  147.6964  140.2666  153.7494 H   0  0  0  0  0  0  0  0  0  0  0  0
  147.8165  141.9945  153.9354 H   0  0  0  0  0  0  0  0  0  0  0  0
  149.0390  142.4033  156.3023 H   0  0  0  0  0  0  0  0  0  0  0  0
  151.1841  140.6751  156.9773 H   0  0  0  0  0  0  0  0  0  0  0  0
  151.8054  141.9366  155.9500 H   0  0  0  0  0  0  0  0  0  0  0  0
  150.1714  142.4539  158.4783 H   0  0  0  0  0  0  0  0  0  0  0  0
  151.8745  144.3486  156.7984 H   0  0  0  0  0  0  0  0  0  0  0  0
  150.1336  144.3823  156.9250 H   0  0  0  0  0  0  0  0  0  0  0  0
  151.1714  146.1030  158.3817 H   0  0  0  0  0  0  0  0  0  0  0  0
  150.2371  144.9536  159.3081 H   0  0  0  0  0  0  0  0  0  0  0  0
  153.2775  144.9642  158.9878 H   0  0  0  0  0  0  0  0  0  0  0  0
  152.3926  145.3699  160.4397 H   0  0  0  0  0  0  0  0  0  0  0  0
  153.2868  143.0344  160.5309 H   0  0  0  0  0  0  0  0  0  0  0  0
  151.5423  143.0559  160.6317 H   0  0  0  0  0  0  0  0  0  0  0  0
  152.2725  141.2979  159.0622 H   0  0  0  0  0  0  0  0  0  0  0  0
  153.2001  142.4510  158.1360 H   0  0  0  0  0  0  0  0  0  0  0  0
  1  2  1  0  0  0  0
  1 19  1  0  0  0  0
  1 20  1  0  0  0  0
  1 21  1  0  0  0  0
  2  7  1  0  0  0  0
  2  3  2  0  0  0  0
  3  4  1  0  0  0  0
  4  5  1  0  0  0  0
  5  6  1  0  0  0  0
  5  7  2  0  0  0  0
  6 22  1  0  0  0  0
  6 23  1  0  0  0  0
  6 24  1  0  0  0  0
  7  8  1  0  0  0  0
  8  9  1  0  0  0  0
  8 25  1  0  0  0  0
  8 26  1  0  0  0  0
  9 10  2  0  0  0  0
  9 11  1  0  0  0  0
 11 12  1  0  0  0  0
 11 27  1  0  0  0  0
 12 13  1  0  0  0  0
 12 28  1  0  0  0  0
 12 29  1  0  0  0  0
 13 18  1  0  0  0  0
 13 14  1  0  0  0  0
 13 30  1  0  0  0  0
 14 15  1  0  0  0  0
 14 31  1  0  0  0  0
 14 32  1  0  0  0  0
 15 16  1  0  0  0  0
 15 33  1  0  0  0  0
 15 34  1  0  0  0  0
 16 17  1  0  0  0  0
 16 35  1  0  0  0  0
 16 36  1  0  0  0  0
 17 18  1  0  0  0  0
 17 37  1  0  0  0  0
 17 38  1  0  0  0  0
 18 39  1  0  0  0  0
 18 40  1  0  0  0  0
M  END
> <s_m_source_file>
AV-unprocessed.smi

> <i_m_source_file_index>
2555

> <i_lp_mmshare_version>
43012

> <i_f3d_flags>
0

> <s_epik_input>
W0NIM11jMW5vYyhbQ0gzXSljMVtDSDJdQyg9TylbTkhdW0NIMl1bQ0hdMltDSDJdW0NIMl1bQ0gyXVtDSDJdW0NIMl0y

> <s_epik_cmdline>
J2VwaWtfcHl0aG9uJywgJy1waCcsICc3LjAnLCAnLXRuJywgJzgnLCAnLW1hJywgJzIwMCcsICctbWV0YWxfYmluZGluZycsICctaW1hZScsICc8aW5maWxlLm1hZT4nLCAnLW9tYWUnLCAnPG91dGZpbGUubWFlPic=

> <r_lp_tautomer_probability>
1

> <r_epik_Ionization_Penalty>
1.94914e-08

> <r_epik_Ionization_Penalty_Charging>
0

> <r_epik_Ionization_Penalty_Neutral>
1.94914e-08

> <r_epik_State_Penalty>
-0

> <r_epik_Charging_Adjusted_Penalty>
0

> <i_epik_Tot_Q>
0

> <i_epik_Tot_abs_Q>
0

> <r_epik_Metal_State_Penalty>
-0

> <b_epik_Metal_Only>
0

> <s_lp_Force_Field>
OPLS_2005

> <r_lp_Energy>
4.99285

> <b_lp_Chiralities_Consistent>
1

> <s_lp_Variant>
AV-unprocessed.smi:2555-1

> <Gold.Version>
5.8.1

> <Gold.Id.Protein>
6NUR|6NUR_protein|mol2

> <Gold.PLP.Fitness>
45.7755

> <Gold.PLP.PLP>
-40.8040

> <Gold.PLP.part.hbond>
-2.0000

> <Gold.PLP.part.metal>
0.0000

> <Gold.PLP.part.buried>
-4.3418

> <Gold.PLP.part.nonpolar>
-34.9027

> <Gold.PLP.part.repulsive>
0.4157

> <Gold.PLP.ligand.clash>
0.0143

> <Gold.PLP.ligand.torsion>
0.5087

> <Gold.PLP.Chemscore.Hbond>
1.9920

> <Gold.PLP.Chemscore.CHOScore>
0.0000

> <Gold.PLP.Chemscore.Metal>
0.0000

> <Gold.Chemscore.Hbonds>
donor molecule, donor type, donor heavy atom, donor atom, acceptor molecule, acceptor atom, score
      L1  H    11    27       P1  8028  0.04
      P1  H  7989  7998       L1    10  0.88

> <Gold.PLP.Chemscore.Internal.Correction>
0.0271

> <Gold.Rescore>
     Score         DG    S(hbond)    S(metal)    S(lipo)     H(rot)  DE(clash)    DE(int)     intcor
     18.36     -18.95       1.62        0.00     100.19       1.43       0.16       0.43       ----

> <Gold.Chemscore.Fitness>
18.3624

> <Gold.Chemscore.DG>
-18.9518

> <Gold.Chemscore.ZeroCoef>
-5.4800

> <Gold.Chemscore.Hbond>
1.6220

> <Gold.Chemscore.Metal>
0.0000

> <Gold.Chemscore.Lipo>
100.1927

> <Gold.Chemscore.Internal_Hbond>
0.0000

> <Gold.Chemscore.DEClash>
0.1622

> <Gold.Chemscore.DEInternal>
0.4272

> <Gold.Chemscore.Rot>
1.4329

> <Gold.Chemscore.Internal.Correction>
   9.000000E+99

> <Gold.Chemscore.Hbonds>
donor molecule, donor type, donor heavy atom, donor atom, acceptor molecule, acceptor atom, score
      L1  H    11    27       P1  8028  0.06
      P1  H  7989  7998       L1    10  0.62

> <Gold.Chemscore.Hbond.Weighted>
-5.4176

> <Gold.Chemscore.Metal.Weighted>
-0.0000

> <Gold.Chemscore.Lipo.Weighted>
-11.7225

> <Gold.Chemscore.Internal_Hbond.Weighted>
0.0000

> <Gold.Chemscore.DEClash.Weighted>
0.1622

> <Gold.Chemscore.DEInternal.Weighted>
0.4272

> <Gold.Chemscore.Rot.Weighted>
3.6683

> <Gold.Chemscore.Internal.Correction.Weighted>
   9.000000E+99

> <Gold.Protein.RotatedTorsions>
[ 6907 6896 6895 6894 ] final  -56.66 input  -60.11 | X-H torsion
[ 7974 7965 7964 7962 ] final   82.28 input  175.53 | X-H torsion
[ 8008 7997 7996 7995 ] final  -68.91 input   59.86 | X-H torsion
[ 10167 10162 10161 10158 ] final  149.36 input  -65.29 | X-H torsion
[ 10718 10713 10712 10709 ] final  -79.16 input   66.30 | X-H torsion
[ 10763 10752 10751 10750 ] final   17.20 input  -60.55 | X-H torsion
[ 11005 11000 10999 10996 ] final  -28.55 input  -57.11 | X-H torsion

> <Gold.Protein.ActiveResidues>
 VAL166  LYS551  ARG553  GLY616  TRP617  ASP618  TYR619  PRO620  LYS621  CYS622 
 ASP623  PHE694  ASN695  SER759  ASP760  ASP761  ALA762  ILE779  LEU786  VAL792 
 PHE793  MET794  SER795  GLU796  ALA797  LYS798  CYS799  TRP800  GLU811  SER814 

> <Gold.Protein.RotatedAtoms>
  150.8150  134.7326  159.6721 H   0  0  0  0  0  0  0  0  0  0  0  0  # atno 6907 bound_to 6896
  152.4269  134.5849  159.9968 H   0  0  0  0  0  0  0  0  0  0  0  0  # atno 6908 bound_to 6896
  151.6048  133.3315  159.3091 H   0  0  0  0  0  0  0  0  0  0  0  0  # atno 6909 bound_to 6896
  145.6271  139.2397  143.2105 H   0  0  0  0  0  0  0  0  0  0  0  0  # atno 7974 bound_to 7965
  154.4901  140.0863  156.7575 H   0  0  0  0  0  0  0  0  0  0  0  0  # atno 8008 bound_to 7997
  155.4252  140.3447  155.4257 H   0  0  0  0  0  0  0  0  0  0  0  0  # atno 8009 bound_to 7997
  156.1317  140.1503  156.9043 H   0  0  0  0  0  0  0  0  0  0  0  0  # atno 8010 bound_to 7997
  139.4862  144.5607  151.7235 H   0  0  0  0  0  0  0  0  0  0  0  0  # atno 10167 bound_to 10162
  156.0099  130.4538  150.3606 H   0  0  0  0  0  0  0  0  0  0  0  0  # atno 10718 bound_to 10713
  153.1360  135.6750  153.9102 H   0  0  0  0  0  0  0  0  0  0  0  0  # atno 10763 bound_to 10752
  153.8573  135.3085  155.3437 H   0  0  0  0  0  0  0  0  0  0  0  0  # atno 10764 bound_to 10752
  154.7748  135.4920  153.9804 H   0  0  0  0  0  0  0  0  0  0  0  0  # atno 10765 bound_to 10752
  140.9218  133.7394  156.0812 H   0  0  0  0  0  0  0  0  0  0  0  0  # atno 11005 bound_to 11000
  146.1386  140.7089  142.9378 LP  0  0  0  0  0  0  0  0  0  0  0  0  # atno 17320 bound_to 7965
  144.7208  140.4366  143.7010 LP  0  0  0  0  0  0  0  0  0  0  0  0  # atno 17321 bound_to 7965
  140.5177  144.0928  150.6013 LP  0  0  0  0  0  0  0  0  0  0  0  0  # atno 17342 bound_to 10162
  140.3875  143.2770  152.0099 LP  0  0  0  0  0  0  0  0  0  0  0  0  # atno 17343 bound_to 10162
  157.1694  131.0365  151.2802 LP  0  0  0  0  0  0  0  0  0  0  0  0  # atno 17370 bound_to 10713
  157.4242  130.7454  149.6937 LP  0  0  0  0  0  0  0  0  0  0  0  0  # atno 17371 bound_to 10713
  140.7978  134.3544  157.5448 LP  0  0  0  0  0  0  0  0  0  0  0  0  # atno 17394 bound_to 11000
  139.8777  134.9179  156.3190 LP  0  0  0  0  0  0  0  0  0  0  0  0  # atno 17395 bound_to 11000

$$$$
