AV-unprocessed.smi:618|AV-procd|sdf|3084|dock10
  -GOLD-   22720 0 03D 1   1.00000     0.00000
 Structure written by MMmdl.
 40 42  0  0  0  0  0  0  0  0  1 V2000
  150.7372  140.7806  156.2350 O   0  0  0  0  0  0  0  0  0  0  0  0
  150.2465  141.8976  156.0708 C   0  0  0  0  0  0  0  0  0  0  0  0
  149.4009  142.1937  155.0745 N   0  0  0  0  0  0  0  0  0  0  0  0
  148.9432  141.2522  154.0583 C   0  0  0  0  0  0  0  0  0  0  0  0
  147.4027  141.2166  153.9632 C   0  0  2  0  0  0  0  0  0  0  0  0
  146.7400  140.6020  155.2189 C   0  0  0  0  0  0  0  0  0  0  0  0
  146.8930  139.1590  155.2266 N   0  0  0  0  0  0  0  0  0  0  0  0
  146.2377  138.4421  156.2960 C   0  0  0  0  0  0  0  0  0  0  0  0
  146.2162  136.9797  155.8185 C   0  0  0  0  0  0  0  0  0  0  0  0
  146.4067  137.0718  154.2885 C   0  0  0  0  0  0  0  0  0  0  0  0
  146.3501  138.5785  154.0290 C   0  0  2  0  0  0  0  0  0  0  0  0
  147.0814  139.1096  152.7893 C   0  0  0  0  0  0  0  0  0  0  0  0
  146.9663  140.5361  152.7749 O   0  0  0  0  0  0  0  0  0  0  0  0
  150.4592  142.9629  156.8620 N   0  0  0  0  0  0  0  0  0  0  0  0
  151.3123  143.0589  157.9940 C   0  0  0  0  0  0  0  0  0  0  0  0
  151.4986  144.3271  158.5816 C   0  0  0  0  0  0  0  0  0  0  0  0
  152.3550  144.4487  159.6925 C   0  0  0  0  0  0  0  0  0  0  0  0
  153.0036  143.2925  160.1678 C   0  0  0  0  0  0  0  0  0  0  0  0
  152.8499  142.0744  159.6075 N   0  0  0  0  0  0  0  0  0  0  0  0
  152.0247  141.9644  158.5441 C   0  0  0  0  0  0  0  0  0  0  0  0
  149.0381  143.1341  155.0189 H   0  0  0  0  0  0  0  0  0  0  0  0
  149.3855  141.5375  153.1042 H   0  0  0  0  0  0  0  0  0  0  0  0
  149.3278  140.2553  154.2801 H   0  0  0  0  0  0  0  0  0  0  0  0
  147.0519  142.2457  153.8793 H   0  0  0  0  0  0  0  0  0  0  0  0
  147.1673  141.0318  156.1253 H   0  0  0  0  0  0  0  0  0  0  0  0
  145.6790  140.8563  155.2236 H   0  0  0  0  0  0  0  0  0  0  0  0
  146.7609  138.5675  157.2442 H   0  0  0  0  0  0  0  0  0  0  0  0
  145.2162  138.8049  156.4217 H   0  0  0  0  0  0  0  0  0  0  0  0
  147.0289  136.4085  156.2687 H   0  0  0  0  0  0  0  0  0  0  0  0
  145.2772  136.4938  156.0851 H   0  0  0  0  0  0  0  0  0  0  0  0
  147.3799  136.6673  154.0066 H   0  0  0  0  0  0  0  0  0  0  0  0
  145.6398  136.5294  153.7349 H   0  0  0  0  0  0  0  0  0  0  0  0
  145.2983  138.8608  153.9468 H   0  0  0  0  0  0  0  0  0  0  0  0
  148.1307  138.8127  152.7920 H   0  0  0  0  0  0  0  0  0  0  0  0
  146.6368  138.7059  151.8798 H   0  0  0  0  0  0  0  0  0  0  0  0
  149.9098  143.7853  156.6598 H   0  0  0  0  0  0  0  0  0  0  0  0
  150.9900  145.1965  158.1912 H   0  0  0  0  0  0  0  0  0  0  0  0
  152.5125  145.4052  160.1686 H   0  0  0  0  0  0  0  0  0  0  0  0
  153.6681  143.3485  161.0173 H   0  0  0  0  0  0  0  0  0  0  0  0
  151.9618  140.9735  158.1220 H   0  0  0  0  0  0  0  0  0  0  0  0
  1  2  2  0  0  0  0
  2  3  1  0  0  0  0
  2 14  1  0  0  0  0
  3  4  1  0  0  0  0
  3 21  1  0  0  0  0
  4  5  1  0  0  0  0
  4 22  1  0  0  0  0
  4 23  1  0  0  0  0
  5 13  1  0  0  0  0
  5  6  1  0  0  0  0
  5 24  1  0  0  0  0
  6  7  1  0  0  0  0
  6 25  1  0  0  0  0
  6 26  1  0  0  0  0
  7 11  1  0  0  0  0
  7  8  1  0  0  0  0
  8  9  1  0  0  0  0
  8 27  1  0  0  0  0
  8 28  1  0  0  0  0
  9 10  1  0  0  0  0
  9 29  1  0  0  0  0
  9 30  1  0  0  0  0
 10 11  1  0  0  0  0
 10 31  1  0  0  0  0
 10 32  1  0  0  0  0
 11 12  1  0  0  0  0
 11 33  1  0  0  0  0
 12 13  1  0  0  0  0
 12 34  1  0  0  0  0
 12 35  1  0  0  0  0
 14 15  1  0  0  0  0
 14 36  1  0  0  0  0
 15 20  1  0  0  0  0
 15 16  2  0  0  0  0
 16 17  1  0  0  0  0
 16 37  1  0  0  0  0
 17 18  2  0  0  0  0
 17 38  1  0  0  0  0
 18 19  1  0  0  0  0
 18 39  1  0  0  0  0
 19 20  2  0  0  0  0
 20 40  1  0  0  0  0
M  END
> <s_m_source_file>
AV-unprocessed.smi

> <i_m_source_file_index>
618

> <i_lp_mmshare_version>
43012

> <i_f3d_flags>
0

> <s_epik_input>
W2NIXTFuW2NIXVtjSF1bY0hdYzFbTkhdQyg9TylbTkhdW0NIMl1bQ0BIXShbQ0gyXTIpT1tDSDJdW0NAQEhdKE4yMylbQ0gyXVtDSDJdW0NIMl0z

> <s_epik_cmdline>
J2VwaWtfcHl0aG9uJywgJy1waCcsICc3LjAnLCAnLXRuJywgJzgnLCAnLW1hJywgJzIwMCcsICctbWV0YWxfYmluZGluZycsICctaW1hZScsICc8aW5maWxlLm1hZT4nLCAnLW9tYWUnLCAnPG91dGZpbGUubWFlPic=

> <r_epik_Ionization_Penalty>
1.07277

> <r_epik_Ionization_Penalty_Charging>
0

> <r_epik_Ionization_Penalty_Neutral>
1.07277

> <r_epik_State_Penalty>
1.13623

> <r_epik_Charging_Adjusted_Penalty>
1.13623

> <i_epik_Tot_Q>
0

> <i_epik_Tot_abs_Q>
0

> <r_epik_Metal_State_Penalty>
1.13277

> <b_epik_Metal_Only>
0

> <s_lp_Force_Field>
OPLS_2005

> <r_lp_Energy>
52.4513

> <b_lp_Chiralities_Consistent>
1

> <s_lp_Variant>
AV-unprocessed.smi:618-11

> <Gold.Version>
5.8.1

> <Gold.Id.Protein>
6NUR|6NUR_protein|mol2

> <Gold.PLP.Fitness>
38.7298

> <Gold.PLP.PLP>
-32.9107

> <Gold.PLP.part.hbond>
-2.0000

> <Gold.PLP.part.metal>
0.0000

> <Gold.PLP.part.buried>
-5.2736

> <Gold.PLP.part.nonpolar>
-26.6318

> <Gold.PLP.part.repulsive>
0.7175

> <Gold.PLP.ligand.clash>
0.0000

> <Gold.PLP.ligand.torsion>
0.0943

> <Gold.PLP.Chemscore.Hbond>
2.0000

> <Gold.PLP.Chemscore.CHOScore>
0.0000

> <Gold.PLP.Chemscore.Metal>
0.0000

> <Gold.Chemscore.Hbonds>
donor molecule, donor type, donor heavy atom, donor atom, acceptor molecule, acceptor atom, score
      L1  H     3    21       P1  8028  1.00
      L1  H    14    36       P1  8028  1.00

> <Gold.PLP.Chemscore.Internal.Correction>
0.0077

> <Gold.Rescore>
     Score         DG    S(hbond)    S(metal)    S(lipo)     H(rot)  DE(clash)    DE(int)     intcor
     17.55     -19.12       1.96        0.00      87.88       1.25       0.17       1.40       ----

> <Gold.Chemscore.Fitness>
17.5489

> <Gold.Chemscore.DG>
-19.1225

> <Gold.Chemscore.ZeroCoef>
-5.4800

> <Gold.Chemscore.Hbond>
1.9614

> <Gold.Chemscore.Metal>
0.0000

> <Gold.Chemscore.Lipo>
87.8769

> <Gold.Chemscore.Internal_Hbond>
0.0000

> <Gold.Chemscore.DEClash>
0.1737

> <Gold.Chemscore.DEInternal>
1.3999

> <Gold.Chemscore.Rot>
1.2461

> <Gold.Chemscore.Internal.Correction>
   9.000000E+99

> <Gold.Chemscore.Hbonds>
donor molecule, donor type, donor heavy atom, donor atom, acceptor molecule, acceptor atom, score
      L1  H     3    21       P1  8028  0.96
      L1  H    14    36       P1  8028  0.97

> <Gold.Chemscore.Hbond.Weighted>
-6.5510

> <Gold.Chemscore.Metal.Weighted>
-0.0000

> <Gold.Chemscore.Lipo.Weighted>
-10.2816

> <Gold.Chemscore.Internal_Hbond.Weighted>
0.0000

> <Gold.Chemscore.DEClash.Weighted>
0.1737

> <Gold.Chemscore.DEInternal.Weighted>
1.3999

> <Gold.Chemscore.Rot.Weighted>
3.1901

> <Gold.Chemscore.Internal.Correction.Weighted>
   9.000000E+99

> <Gold.Protein.RotatedTorsions>
[ 6907 6896 6895 6894 ] final  133.55 input  -60.11 | X-H torsion
[ 7974 7965 7964 7962 ] final -174.21 input  175.53 | X-H torsion
[ 8008 7997 7996 7995 ] final   44.31 input   59.86 | X-H torsion
[ 10167 10162 10161 10158 ] final  162.62 input  -65.29 | X-H torsion
[ 10718 10713 10712 10709 ] final -166.44 input   66.30 | X-H torsion
[ 10763 10752 10751 10750 ] final  -94.66 input  -60.55 | X-H torsion
[ 11005 11000 10999 10996 ] final  -30.17 input  -57.11 | X-H torsion

> <Gold.Protein.ActiveResidues>
 VAL166  LYS551  ARG553  GLY616  TRP617  ASP618  TYR619  PRO620  LYS621  CYS622 
 ASP623  PHE694  ASN695  SER759  ASP760  ASP761  ALA762  ILE779  LEU786  VAL792 
 PHE793  MET794  SER795  GLU796  ALA797  LYS798  CYS799  TRP800  GLU811  SER814 

> <Gold.Protein.RotatedAtoms>
  152.3207  133.5851  159.5742 H   0  0  0  0  0  0  0  0  0  0  0  0  # atno 6907 bound_to 6896
  150.7370  134.0015  159.3648 H   0  0  0  0  0  0  0  0  0  0  0  0  # atno 6908 bound_to 6896
  151.7900  135.0739  160.0437 H   0  0  0  0  0  0  0  0  0  0  0  0  # atno 6909 bound_to 6896
  144.7133  140.1506  143.6384 H   0  0  0  0  0  0  0  0  0  0  0  0  # atno 7974 bound_to 7965
  155.3171  140.3394  155.4242 H   0  0  0  0  0  0  0  0  0  0  0  0  # atno 8008 bound_to 7997
  156.1927  140.1703  156.8097 H   0  0  0  0  0  0  0  0  0  0  0  0  # atno 8009 bound_to 7997
  154.5461  140.0715  156.8575 H   0  0  0  0  0  0  0  0  0  0  0  0  # atno 8010 bound_to 7997
  139.4863  144.4419  151.8941 H   0  0  0  0  0  0  0  0  0  0  0  0  # atno 10167 bound_to 10162
  156.6680  130.9072  151.3039 H   0  0  0  0  0  0  0  0  0  0  0  0  # atno 10718 bound_to 10713
  154.7076  135.5149  153.8618 H   0  0  0  0  0  0  0  0  0  0  0  0  # atno 10763 bound_to 10752
  153.0754  135.6614  154.0166 H   0  0  0  0  0  0  0  0  0  0  0  0  # atno 10764 bound_to 10752
  154.0014  135.3010  155.3382 H   0  0  0  0  0  0  0  0  0  0  0  0  # atno 10765 bound_to 10752
  140.9360  133.7308  156.1005 H   0  0  0  0  0  0  0  0  0  0  0  0  # atno 11005 bound_to 11000
  145.9120  139.2493  143.1432 LP  0  0  0  0  0  0  0  0  0  0  0  0  # atno 17320 bound_to 7965
  145.9707  140.8762  143.0164 LP  0  0  0  0  0  0  0  0  0  0  0  0  # atno 17321 bound_to 7965
  140.3871  144.2662  150.5903 LP  0  0  0  0  0  0  0  0  0  0  0  0  # atno 17342 bound_to 10162
  140.5180  143.2273  151.8433 LP  0  0  0  0  0  0  0  0  0  0  0  0  # atno 17343 bound_to 10162
  157.7087  130.9415  150.1016 LP  0  0  0  0  0  0  0  0  0  0  0  0  # atno 17370 bound_to 10713
  156.1960  130.3657  149.8848 LP  0  0  0  0  0  0  0  0  0  0  0  0  # atno 17371 bound_to 10713
  140.7799  134.3737  157.5489 LP  0  0  0  0  0  0  0  0  0  0  0  0  # atno 17394 bound_to 11000
  139.8808  134.9075  156.2946 LP  0  0  0  0  0  0  0  0  0  0  0  0  # atno 17395 bound_to 11000

$$$$
