AV-unprocessed.smi:2330|AV-procd|sdf|9310|dock3
  -GOLD-   2272012523D 1   1.00000     0.00000
 Structure written by MMmdl.
 42 43  0  0  0  0  0  0  0  0  1 V2000
  151.1544  145.6488  159.5986 C   0  0  0  0  0  0  0  0  0  0  0  0
  152.2039  144.6261  160.0572 C   0  0  2  0  0  0  0  0  0  0  0  0
  152.5636  143.6418  158.9280 C   0  0  0  0  0  0  0  0  0  0  0  0
  153.6117  142.6138  159.3834 C   0  0  0  0  0  0  0  0  0  0  0  0
  153.1462  141.8497  160.6399 C   0  0  1  0  0  0  0  0  0  0  0  0
  154.1899  140.9383  161.0993 N   0  0  0  0  0  0  0  0  0  0  0  0
  154.7268  139.9505  160.3699 C   0  0  0  0  0  0  0  0  0  0  0  0
  154.3761  139.6670  159.2243 O   0  0  0  0  0  0  0  0  0  0  0  0
  155.7118  139.3255  161.0289 N   0  0  0  0  0  0  0  0  0  0  0  0
  156.5521  138.2677  160.4734 C   0  0  0  0  0  0  0  0  0  0  0  0
  155.8845  136.8751  160.5329 C   0  0  2  0  0  0  0  0  0  0  0  0
  154.9830  136.5911  159.3230 C   0  0  0  0  0  0  0  0  0  0  0  0
  155.1884  136.6094  161.8339 C   0  0  0  0  0  0  0  0  0  0  0  0
  155.6130  135.7184  162.7359 N   0  0  0  0  0  0  0  0  0  0  0  0
  154.7758  135.6457  163.8518 C   0  0  0  0  0  0  0  0  0  0  0  0
  153.6989  136.4924  163.7844 C   0  0  0  0  0  0  0  0  0  0  0  0
  153.6983  137.4197  162.3097 S   0  0  0  0  0  0  0  0  0  0  0  0
  152.7822  142.8315  161.7685 C   0  0  0  0  0  0  0  0  0  0  0  0
  151.7342  143.8572  161.3070 C   0  0  0  0  0  0  0  0  0  0  0  0
  150.2224  145.1603  159.3125 H   0  0  0  0  0  0  0  0  0  0  0  0
  151.5099  146.2172  158.7389 H   0  0  0  0  0  0  0  0  0  0  0  0
  150.9275  146.3611  160.3925 H   0  0  0  0  0  0  0  0  0  0  0  0
  153.1066  145.1791  160.3217 H   0  0  0  0  0  0  0  0  0  0  0  0
  151.6659  143.1195  158.5940 H   0  0  0  0  0  0  0  0  0  0  0  0
  152.9419  144.1878  158.0632 H   0  0  0  0  0  0  0  0  0  0  0  0
  153.8124  141.9155  158.5700 H   0  0  0  0  0  0  0  0  0  0  0  0
  154.5535  143.1250  159.5890 H   0  0  0  0  0  0  0  0  0  0  0  0
  152.2534  141.2720  160.3921 H   0  0  0  0  0  0  0  0  0  0  0  0
  154.5501  141.0926  162.0296 H   0  0  0  0  0  0  0  0  0  0  0  0
  155.9276  139.6312  161.9665 H   0  0  0  0  0  0  0  0  0  0  0  0
  156.7522  138.5302  159.4343 H   0  0  0  0  0  0  0  0  0  0  0  0
  157.5190  138.2527  160.9789 H   0  0  0  0  0  0  0  0  0  0  0  0
  156.6914  136.1436  160.4745 H   0  0  0  0  0  0  0  0  0  0  0  0
  154.6122  135.5658  159.3424 H   0  0  0  0  0  0  0  0  0  0  0  0
  155.5268  136.7280  158.3880 H   0  0  0  0  0  0  0  0  0  0  0  0
  154.1205  137.2580  159.3060 H   0  0  0  0  0  0  0  0  0  0  0  0
  155.0217  134.9607  164.6499 H   0  0  0  0  0  0  0  0  0  0  0  0
  152.9098  136.6262  164.5093 H   0  0  0  0  0  0  0  0  0  0  0  0
  152.4022  142.2839  162.6318 H   0  0  0  0  0  0  0  0  0  0  0  0
  153.6767  143.3577  162.1055 H   0  0  0  0  0  0  0  0  0  0  0  0
  151.5265  144.5557  162.1183 H   0  0  0  0  0  0  0  0  0  0  0  0
  150.7948  143.3451  161.0934 H   0  0  0  0  0  0  0  0  0  0  0  0
  1  2  1  0  0  0  0
  1 20  1  0  0  0  0
  1 21  1  0  0  0  0
  1 22  1  0  0  0  0
  2 19  1  0  0  0  0
  2  3  1  0  0  0  0
  2 23  1  0  0  0  0
  3  4  1  0  0  0  0
  3 24  1  0  0  0  0
  3 25  1  0  0  0  0
  4  5  1  0  0  0  0
  4 26  1  0  0  0  0
  4 27  1  0  0  0  0
  5  6  1  0  0  0  0
  5 18  1  0  0  0  0
  5 28  1  0  0  0  0
  6  7  1  0  0  0  0
  6 29  1  0  0  0  0
  7  8  2  0  0  0  0
  7  9  1  0  0  0  0
  9 10  1  0  0  0  0
  9 30  1  0  0  0  0
 10 11  1  0  0  0  0
 10 31  1  0  0  0  0
 10 32  1  0  0  0  0
 11 12  1  0  0  0  0
 11 13  1  0  0  0  0
 11 33  1  0  0  0  0
 12 34  1  0  0  0  0
 12 35  1  0  0  0  0
 12 36  1  0  0  0  0
 13 17  1  0  0  0  0
 13 14  2  0  0  0  0
 14 15  1  0  0  0  0
 15 16  2  0  0  0  0
 15 37  1  0  0  0  0
 16 17  1  0  0  0  0
 16 38  1  0  0  0  0
 18 19  1  0  0  0  0
 18 39  1  0  0  0  0
 18 40  1  0  0  0  0
 19 41  1  0  0  0  0
 19 42  1  0  0  0  0
M  END
> <s_m_source_file>
AV-unprocessed.smi

> <i_m_source_file_index>
2330

> <i_lp_mmshare_version>
43012

> <i_f3d_flags>
0

> <s_epik_input>
W0NIM11bQ0BASF0xW0NIMl1bQ0gyXVtDQEhdKFtDSDJdW0NIMl0xKVtOSF1DKD1PKVtOSF1bQ0gyXVtDQEhdKFtDSDNdKWMybltjSF1bY0hdczI=

> <s_epik_cmdline>
J2VwaWtfcHl0aG9uJywgJy1waCcsICc3LjAnLCAnLXRuJywgJzgnLCAnLW1hJywgJzIwMCcsICctbWV0YWxfYmluZGluZycsICctaW1hZScsICc8aW5maWxlLm1hZT4nLCAnLW9tYWUnLCAnPG91dGZpbGUubWFlPic=

> <r_lp_tautomer_probability>
1

> <r_epik_Ionization_Penalty>
0.000331107

> <r_epik_Ionization_Penalty_Charging>
0

> <r_epik_Ionization_Penalty_Neutral>
0.000331107

> <r_epik_State_Penalty>
-0

> <r_epik_Charging_Adjusted_Penalty>
0

> <i_epik_Tot_Q>
0

> <i_epik_Tot_abs_Q>
0

> <r_epik_Metal_State_Penalty>
-0

> <b_epik_Metal_Only>
0

> <s_lp_Force_Field>
OPLS_2005

> <r_lp_Energy>
-1.82221

> <b_lp_Chiralities_Consistent>
1

> <s_lp_Variant>
AV-unprocessed.smi:2330-1

> <Gold.Version>
5.8.1

> <Gold.Id.Protein>
6NUR|6NUR_protein|mol2

> <Gold.PLP.Fitness>
42.4048

> <Gold.PLP.PLP>
-40.3163

> <Gold.PLP.part.hbond>
-1.0000

> <Gold.PLP.part.metal>
0.0000

> <Gold.PLP.part.buried>
-3.6920

> <Gold.PLP.part.nonpolar>
-33.9636

> <Gold.PLP.part.repulsive>
0.0204

> <Gold.PLP.ligand.clash>
0.0000

> <Gold.PLP.ligand.torsion>
0.4771

> <Gold.PLP.Chemscore.Hbond>
0.9750

> <Gold.PLP.Chemscore.CHOScore>
0.0000

> <Gold.PLP.Chemscore.Metal>
0.0000

> <Gold.Chemscore.Hbonds>
donor molecule, donor type, donor heavy atom, donor atom, acceptor molecule, acceptor atom, score
      P1  H  7997  8010       L1     8  0.96

> <Gold.PLP.Chemscore.Internal.Correction>
0.1178

> <Gold.Rescore>
     Score         DG    S(hbond)    S(metal)    S(lipo)     H(rot)  DE(clash)    DE(int)     intcor
     18.33     -18.88       0.94        0.00     119.49       1.45       0.10       0.45       ----

> <Gold.Chemscore.Fitness>
18.3262

> <Gold.Chemscore.DG>
-18.8788

> <Gold.Chemscore.ZeroCoef>
-5.4800

> <Gold.Chemscore.Hbond>
0.9401

> <Gold.Chemscore.Metal>
0.0000

> <Gold.Chemscore.Lipo>
119.4870

> <Gold.Chemscore.Internal_Hbond>
0.0000

> <Gold.Chemscore.DEClash>
0.1004

> <Gold.Chemscore.DEInternal>
0.4521

> <Gold.Chemscore.Rot>
1.4536

> <Gold.Chemscore.Internal.Correction>
   9.000000E+99

> <Gold.Chemscore.Hbonds>
donor molecule, donor type, donor heavy atom, donor atom, acceptor molecule, acceptor atom, score
      P1  H  7997  8010       L1     8  0.90

> <Gold.Chemscore.Hbond.Weighted>
-3.1400

> <Gold.Chemscore.Metal.Weighted>
-0.0000

> <Gold.Chemscore.Lipo.Weighted>
-13.9800

> <Gold.Chemscore.Internal_Hbond.Weighted>
0.0000

> <Gold.Chemscore.DEClash.Weighted>
0.1004

> <Gold.Chemscore.DEInternal.Weighted>
0.4521

> <Gold.Chemscore.Rot.Weighted>
3.7212

> <Gold.Chemscore.Internal.Correction.Weighted>
   9.000000E+99

> <Gold.Protein.RotatedTorsions>
[ 6907 6896 6895 6894 ] final -175.49 input  -60.11 | X-H torsion
[ 7974 7965 7964 7962 ] final -148.57 input  175.53 | X-H torsion
[ 8008 7997 7996 7995 ] final    1.20 input   59.86 | X-H torsion
[ 10167 10162 10161 10158 ] final  -22.88 input  -65.29 | X-H torsion
[ 10718 10713 10712 10709 ] final   71.22 input   66.30 | X-H torsion
[ 10763 10752 10751 10750 ] final   47.53 input  -60.55 | X-H torsion
[ 11005 11000 10999 10996 ] final  -10.64 input  -57.11 | X-H torsion

> <Gold.Protein.ActiveResidues>
 VAL166  LYS551  ARG553  GLY616  TRP617  ASP618  TYR619  PRO620  LYS621  CYS622 
 ASP623  PHE694  ASN695  SER759  ASP760  ASP761  ALA762  ILE779  LEU786  VAL792 
 PHE793  MET794  SER795  GLU796  ALA797  LYS798  CYS799  TRP800  GLU811  SER814 

> <Gold.Protein.RotatedAtoms>
  151.5895  133.3368  159.3024 H   0  0  0  0  0  0  0  0  0  0  0  0  # atno 6907 bound_to 6896
  150.8268  134.7506  159.6831 H   0  0  0  0  0  0  0  0  0  0  0  0  # atno 6908 bound_to 6896
  152.4356  134.5698  159.9969 H   0  0  0  0  0  0  0  0  0  0  0  0  # atno 6909 bound_to 6896
  144.8021  140.5179  143.5700 H   0  0  0  0  0  0  0  0  0  0  0  0  # atno 7974 bound_to 7965
  154.6770  140.2624  155.6948 H   0  0  0  0  0  0  0  0  0  0  0  0  # atno 8008 bound_to 7997
  156.2682  140.2818  156.1223 H   0  0  0  0  0  0  0  0  0  0  0  0  # atno 8009 bound_to 7997
  155.1086  140.0375  157.2707 H   0  0  0  0  0  0  0  0  0  0  0  0  # atno 8010 bound_to 7997
  140.7287  143.4494  151.0539 H   0  0  0  0  0  0  0  0  0  0  0  0  # atno 10167 bound_to 10162
  157.6440  130.9517  150.0758 H   0  0  0  0  0  0  0  0  0  0  0  0  # atno 10718 bound_to 10713
  152.9799  135.5973  154.3777 H   0  0  0  0  0  0  0  0  0  0  0  0  # atno 10763 bound_to 10752
  154.3445  135.2767  155.2407 H   0  0  0  0  0  0  0  0  0  0  0  0  # atno 10764 bound_to 10752
  154.4474  135.5998  153.6224 H   0  0  0  0  0  0  0  0  0  0  0  0  # atno 10765 bound_to 10752
  140.7469  133.8624  155.9013 H   0  0  0  0  0  0  0  0  0  0  0  0  # atno 11005 bound_to 11000
  145.5527  139.1477  143.3385 LP  0  0  0  0  0  0  0  0  0  0  0  0  # atno 17320 bound_to 7965
  146.2305  140.5665  142.8977 LP  0  0  0  0  0  0  0  0  0  0  0  0  # atno 17321 bound_to 7965
  139.8169  143.7874  152.3175 LP  0  0  0  0  0  0  0  0  0  0  0  0  # atno 17342 bound_to 10162
  139.7943  144.7398  150.9912 LP  0  0  0  0  0  0  0  0  0  0  0  0  # atno 17343 bound_to 10162
  156.1749  130.3648  149.9114 LP  0  0  0  0  0  0  0  0  0  0  0  0  # atno 17370 bound_to 10713
  156.7080  130.8959  151.3606 LP  0  0  0  0  0  0  0  0  0  0  0  0  # atno 17371 bound_to 10713
  140.9786  134.1435  157.4514 LP  0  0  0  0  0  0  0  0  0  0  0  0  # atno 17394 bound_to 11000
  139.8795  135.0003  156.6002 LP  0  0  0  0  0  0  0  0  0  0  0  0  # atno 17395 bound_to 11000

$$$$
