AV-unprocessed.smi:99|AV-procd|sdf|890|dock4
  -GOLD-   2262017373D 1   1.00000     0.00000
 Structure written by MMmdl.
 52 55  0  0  0  0  0  0  0  0  2 V2000
  151.7139  137.1684  154.7370 O   0  0  0  0  0  0  0  0  0  0  0  0
  150.6148  137.4885  155.1938 C   0  0  0  0  0  0  0  0  0  0  0  0
  149.9084  136.7228  156.0434 O   0  0  0  0  0  0  0  0  0  0  0  0
  150.4586  135.5228  156.5632 C   0  0  0  0  0  0  0  0  0  0  0  0
  149.3287  134.6030  157.0459 C   0  0  1  0  0  0  0  0  0  0  0  0
  149.3858  134.4365  158.4531 O   0  0  0  0  0  0  0  0  0  0  0  0
  148.1133  134.1397  158.9429 C   0  0  1  0  0  0  0  0  0  0  0  0
  147.8786  134.9729  160.1861 N   0  0  0  0  0  0  0  0  0  0  0  0
  147.4907  134.3678  161.3691 C   0  0  0  0  0  0  0  0  0  0  0  0
  147.2842  135.0859  162.4916 C   0  0  0  0  0  0  0  0  0  0  0  0
  147.4745  136.5334  162.4596 C   0  0  0  0  0  0  0  0  0  0  0  0
  147.2730  137.1832  163.4836 O   0  0  0  0  0  0  0  0  0  0  0  0
  147.8723  137.1041  161.2855 N   0  5  0  0  0  0  0  0  0  0  0  0
  148.0913  136.3776  160.1506 C   0  0  0  0  0  0  0  0  0  0  0  0
  148.4799  136.8784  159.0950 O   0  0  0  0  0  0  0  0  0  0  0  0
  147.0799  134.4198  157.8251 C   0  0  1  0  0  0  0  0  0  0  0  0
  146.0013  135.2529  158.2090 O   0  0  0  0  0  0  0  0  0  0  0  0
  147.9147  135.1062  156.7530 C   0  0  2  0  0  0  0  0  0  0  0  0
  147.5228  134.6813  155.4539 O   0  0  0  0  0  0  0  0  0  0  0  0
  146.5123  135.2943  154.8016 C   0  0  0  0  0  0  0  0  0  0  0  0
  145.8450  136.2143  155.2786 O   0  0  0  0  0  0  0  0  0  0  0  0
  146.2886  134.7421  153.4343 C   0  0  0  0  0  0  0  0  0  0  0  0
  145.4085  135.4114  152.5521 C   0  0  0  0  0  0  0  0  0  0  0  0
  145.1777  134.9142  151.2548 C   0  0  0  0  0  0  0  0  0  0  0  0
  145.8232  133.7407  150.8239 C   0  0  0  0  0  0  0  0  0  0  0  0
  146.7003  133.0649  151.6922 C   0  0  0  0  0  0  0  0  0  0  0  0
  146.9332  133.5612  152.9897 C   0  0  0  0  0  0  0  0  0  0  0  0
  149.9273  138.7719  154.8705 C   0  0  0  0  0  0  0  0  0  0  0  0
  148.7235  138.7463  154.1288 C   0  0  0  0  0  0  0  0  0  0  0  0
  148.0560  139.9432  153.8040 C   0  0  0  0  0  0  0  0  0  0  0  0
  148.5840  141.1804  154.2175 C   0  0  0  0  0  0  0  0  0  0  0  0
  149.7792  141.2191  154.9588 C   0  0  0  0  0  0  0  0  0  0  0  0
  150.4469  140.0233  155.2863 C   0  0  0  0  0  0  0  0  0  0  0  0
  151.0367  135.0265  155.7827 H   0  0  0  0  0  0  0  0  0  0  0  0
  151.1382  135.7408  157.3879 H   0  0  0  0  0  0  0  0  0  0  0  0
  149.4588  133.6106  156.6105 H   0  0  0  0  0  0  0  0  0  0  0  0
  148.1174  133.0969  159.2620 H   0  0  0  0  0  0  0  0  0  0  0  0
  147.3526  133.2987  161.4038 H   0  0  0  0  0  0  0  0  0  0  0  0
  146.9836  134.5954  163.4057 H   0  0  0  0  0  0  0  0  0  0  0  0
  146.7020  133.4588  157.4730 H   0  0  0  0  0  0  0  0  0  0  0  0
  146.2265  135.6729  159.0258 H   0  0  0  0  0  0  0  0  0  0  0  0
  147.8737  136.1890  156.8797 H   0  0  0  0  0  0  0  0  0  0  0  0
  144.9009  136.3142  152.8603 H   0  0  0  0  0  0  0  0  0  0  0  0
  144.5042  135.4346  150.5897 H   0  0  0  0  0  0  0  0  0  0  0  0
  145.6457  133.3595  149.8291 H   0  0  0  0  0  0  0  0  0  0  0  0
  147.1960  132.1636  151.3626 H   0  0  0  0  0  0  0  0  0  0  0  0
  147.6122  133.0177  153.6305 H   0  0  0  0  0  0  0  0  0  0  0  0
  148.3005  137.8086  153.7983 H   0  0  0  0  0  0  0  0  0  0  0  0
  147.1381  139.9115  153.2356 H   0  0  0  0  0  0  0  0  0  0  0  0
  148.0725  142.0981  153.9674 H   0  0  0  0  0  0  0  0  0  0  0  0
  150.1852  142.1674  155.2788 H   0  0  0  0  0  0  0  0  0  0  0  0
  151.3582  140.0901  155.8620 H   0  0  0  0  0  0  0  0  0  0  0  0
  1  2  2  0  0  0  0
  2  3  1  0  0  0  0
  2 28  1  0  0  0  0
  3  4  1  0  0  0  0
  4  5  1  0  0  0  0
  4 34  1  0  0  0  0
  4 35  1  0  0  0  0
  5 18  1  0  0  0  0
  5  6  1  0  0  0  0
  5 36  1  0  0  0  0
  6  7  1  0  0  0  0
  7  8  1  0  0  0  0
  7 16  1  0  0  0  0
  7 37  1  0  0  0  0
  8 14  1  0  0  0  0
  8  9  1  0  0  0  0
  9 10  2  0  0  0  0
  9 38  1  0  0  0  0
 10 11  1  0  0  0  0
 10 39  1  0  0  0  0
 11 12  2  0  0  0  0
 11 13  1  0  0  0  0
 13 14  1  0  0  0  0
 14 15  2  0  0  0  0
 16 17  1  0  0  0  0
 16 18  1  0  0  0  0
 16 40  1  0  0  0  0
 17 41  1  0  0  0  0
 18 19  1  0  0  0  0
 18 42  1  0  0  0  0
 19 20  1  0  0  0  0
 20 21  2  0  0  0  0
 20 22  1  0  0  0  0
 22 27  1  0  0  0  0
 22 23  2  0  0  0  0
 23 24  1  0  0  0  0
 23 43  1  0  0  0  0
 24 25  2  0  0  0  0
 24 44  1  0  0  0  0
 25 26  1  0  0  0  0
 25 45  1  0  0  0  0
 26 27  2  0  0  0  0
 26 46  1  0  0  0  0
 27 47  1  0  0  0  0
 28 33  1  0  0  0  0
 28 29  2  0  0  0  0
 29 30  1  0  0  0  0
 29 48  1  0  0  0  0
 30 31  2  0  0  0  0
 30 49  1  0  0  0  0
 31 32  1  0  0  0  0
 31 50  1  0  0  0  0
 32 33  2  0  0  0  0
 32 51  1  0  0  0  0
 33 52  1  0  0  0  0
M  CHG  1  13  -1
M  END
> <s_m_source_file>
AV-unprocessed.smi

> <i_m_source_file_index>
99

> <i_lp_mmshare_version>
43012

> <i_f3d_flags>
0

> <s_epik_input>
W2NIXTFbY0hdW2NIXVtjSF1bY0hdYzFDKD1PKU9bQ0gyXVtDQEBIXTJPW0NAQEhdKG4zW2NIXVtjSF1jKD1PKVtuSF1jMz1PKVtDQEBIXShbT0hdKVtDQEhdMk9DKD1PKWM0W2NIXVtjSF1bY0hdW2NIXVtjSF00

> <s_epik_cmdline>
J2VwaWtfcHl0aG9uJywgJy1waCcsICc3LjAnLCAnLXRuJywgJzgnLCAnLW1hJywgJzIwMCcsICctbWV0YWxfYmluZGluZycsICctaW1hZScsICc8aW5maWxlLm1hZT4nLCAnLW9tYWUnLCAnPG91dGZpbGUubWFlPic=

> <r_lp_tautomer_probability>
1

> <r_epik_Ionization_Penalty>
2.89159

> <r_epik_Ionization_Penalty_Charging>
2.1077e-08

> <r_epik_Ionization_Penalty_Neutral>
2.89159

> <r_epik_State_Penalty>
2.88671

> <r_epik_Charging_Adjusted_Penalty>
2.88671

> <i_epik_Tot_Q>
-1

> <i_epik_Tot_abs_Q>
1

> <r_epik_Metal_State_Penalty>
0.0727308

> <b_epik_Metal_Only>
1

> <s_epik_Chemistry_Notes>
This compound has an ester and may undergo hydrolysis at high or low pH. This compound contains an acetal/aminal-like group ( X-CH(R)-Y where X, Y are N, S, or O) that may be acid/base labile, releasing an aldehyde.

> <s_lp_Force_Field>
OPLS_2005

> <r_lp_Energy>
45.1404

> <b_lp_Chiralities_Consistent>
1

> <s_lp_Variant>
AV-unprocessed.smi:99-26

> <Gold.Version>
5.8.1

> <Gold.Id.Protein>
6NUR|6NUR_protein|mol2

> <Gold.PLP.Fitness>
57.6122

> <Gold.PLP.PLP>
-45.6002

> <Gold.PLP.part.hbond>
-4.2002

> <Gold.PLP.part.metal>
0.0000

> <Gold.PLP.part.buried>
-2.8656

> <Gold.PLP.part.nonpolar>
-39.6867

> <Gold.PLP.part.repulsive>
0.2548

> <Gold.PLP.ligand.clash>
0.0000

> <Gold.PLP.ligand.torsion>
2.5432

> <Gold.PLP.Chemscore.Hbond>
5.5360

> <Gold.PLP.Chemscore.CHOScore>
0.0000

> <Gold.PLP.Chemscore.Metal>
0.0000

> <Gold.Chemscore.Hbonds>
donor molecule, donor type, donor heavy atom, donor atom, acceptor molecule, acceptor atom, score
      P1  H  6896  6909       L1     6  1.00
      P1  H  6931  6943       L1    13  1.90
      P1  H  6934  6947       L1    13  1.40
      P1  H 10752 10764       L1     1  1.00

> <Gold.PLP.Chemscore.Internal.Correction>
0.4903

> <Gold.Rescore>
     Score         DG    S(hbond)    S(metal)    S(lipo)     H(rot)  DE(clash)    DE(int)     intcor
     11.97     -18.41       3.01        0.00      93.28       3.13       1.23       5.22       ----

> <Gold.Chemscore.Fitness>
11.9651

> <Gold.Chemscore.DG>
-18.4142

> <Gold.Chemscore.ZeroCoef>
-5.4800

> <Gold.Chemscore.Hbond>
3.0075

> <Gold.Chemscore.Metal>
0.0000

> <Gold.Chemscore.Lipo>
93.2804

> <Gold.Chemscore.Internal_Hbond>
0.0000

> <Gold.Chemscore.DEClash>
1.2313

> <Gold.Chemscore.DEInternal>
5.2178

> <Gold.Chemscore.Rot>
3.1346

> <Gold.Chemscore.Internal.Correction>
   9.000000E+99

> <Gold.Chemscore.Hbonds>
donor molecule, donor type, donor heavy atom, donor atom, acceptor molecule, acceptor atom, score
      P1  H  6896  6909       L1     6  0.95
      P1  H  6931  6943       L1    13  0.21
      P1  H  6934  6947       L1    13  0.55
      P1  H 10752 10764       L1     1  0.95

> <Gold.Chemscore.Hbond.Weighted>
-10.0450

> <Gold.Chemscore.Metal.Weighted>
-0.0000

> <Gold.Chemscore.Lipo.Weighted>
-10.9138

> <Gold.Chemscore.Internal_Hbond.Weighted>
0.0000

> <Gold.Chemscore.DEClash.Weighted>
1.2313

> <Gold.Chemscore.DEInternal.Weighted>
5.2178

> <Gold.Chemscore.Rot.Weighted>
8.0246

> <Gold.Chemscore.Internal.Correction.Weighted>
   9.000000E+99

> <Gold.Protein.RotatedTorsions>
[ 6907 6896 6895 6894 ] final   37.85 input  -60.11 | X-H torsion
[ 7974 7965 7964 7962 ] final  106.61 input  175.53 | X-H torsion
[ 8008 7997 7996 7995 ] final  117.79 input   59.86 | X-H torsion
[ 10167 10162 10161 10158 ] final  -79.41 input  -65.29 | X-H torsion
[ 10718 10713 10712 10709 ] final -114.33 input   66.30 | X-H torsion
[ 10763 10752 10751 10750 ] final  -70.86 input  -60.55 | X-H torsion
[ 11005 11000 10999 10996 ] final  174.83 input  -57.11 | X-H torsion

> <Gold.Protein.ActiveResidues>
 VAL166  LYS551  ARG553  GLY616  TRP617  ASP618  TYR619  PRO620  LYS621  CYS622 
 ASP623  PHE694  ASN695  SER759  ASP760  ASP761  ALA762  ILE779  LEU786  VAL792 
 PHE793  MET794  SER795  GLU796  ALA797  LYS798  CYS799  TRP800  GLU811  SER814 

> <Gold.Protein.RotatedAtoms>
  152.1487  134.9005  160.0549 H   0  0  0  0  0  0  0  0  0  0  0  0  # atno 6907 bound_to 6896
  152.0045  133.3833  159.4203 H   0  0  0  0  0  0  0  0  0  0  0  0  # atno 6908 bound_to 6896
  150.6873  134.3719  159.5040 H   0  0  0  0  0  0  0  0  0  0  0  0  # atno 6909 bound_to 6896
  145.3043  139.2560  143.3797 H   0  0  0  0  0  0  0  0  0  0  0  0  # atno 7974 bound_to 7965
  156.2513  140.2889  156.0733 H   0  0  0  0  0  0  0  0  0  0  0  0  # atno 8008 bound_to 7997
  155.1647  140.0400  157.2867 H   0  0  0  0  0  0  0  0  0  0  0  0  # atno 8009 bound_to 7997
  154.6368  140.2512  155.7375 H   0  0  0  0  0  0  0  0  0  0  0  0  # atno 8010 bound_to 7997
  140.4595  143.2458  151.8369 H   0  0  0  0  0  0  0  0  0  0  0  0  # atno 10167 bound_to 10162
  156.0823  130.6021  150.8760 H   0  0  0  0  0  0  0  0  0  0  0  0  # atno 10718 bound_to 10713
  154.4236  135.5981  153.6025 H   0  0  0  0  0  0  0  0  0  0  0  0  # atno 10763 bound_to 10752
  152.9795  135.5958  154.3925 H   0  0  0  0  0  0  0  0  0  0  0  0  # atno 10764 bound_to 10752
  154.3754  135.2841  155.2221 H   0  0  0  0  0  0  0  0  0  0  0  0  # atno 10765 bound_to 10752
  140.3556  134.7157  157.4297 H   0  0  0  0  0  0  0  0  0  0  0  0  # atno 11005 bound_to 11000
  146.3141  140.3565  142.8661 LP  0  0  0  0  0  0  0  0  0  0  0  0  # atno 17320 bound_to 7965
  144.9068  140.7709  143.5833 LP  0  0  0  0  0  0  0  0  0  0  0  0  # atno 17321 bound_to 7965
  139.4805  144.5024  151.9042 LP  0  0  0  0  0  0  0  0  0  0  0  0  # atno 17342 bound_to 10162
  140.4110  144.2369  150.5889 LP  0  0  0  0  0  0  0  0  0  0  0  0  # atno 17343 bound_to 10162
  157.5945  131.0943  150.9065 LP  0  0  0  0  0  0  0  0  0  0  0  0  # atno 17370 bound_to 10713
  156.9234  130.5323  149.5279 LP  0  0  0  0  0  0  0  0  0  0  0  0  # atno 17371 bound_to 10713
  140.0668  134.5919  155.8687 LP  0  0  0  0  0  0  0  0  0  0  0  0  # atno 17394 bound_to 11000
  141.1999  133.6609  156.5870 LP  0  0  0  0  0  0  0  0  0  0  0  0  # atno 17395 bound_to 11000

$$$$
