AV-unprocessed.smi:1696|AV-procd|sdf|6799|dock7
  -GOLD-   22720 7563D 1   1.00000     0.00000
 Structure written by MMmdl.
 39 40  0  0  0  0  0  0  0  0  2 V2000
  142.2225  145.8490  158.7854 C   0  0  0  0  0  0  0  0  0  0  0  0
  143.4614  145.9195  159.6933 C   0  0  0  0  0  0  0  0  0  0  0  0
  144.7749  145.4012  159.0463 C   0  0  2  0  0  0  0  0  0  0  0  0
  145.8573  145.0423  160.0990 C   0  0  0  0  0  0  0  0  0  0  0  0
  147.1828  144.8913  159.5028 N   0  0  0  0  0  0  0  0  0  0  0  0
  148.2446  144.3228  160.0930 C   0  0  0  0  0  0  0  0  0  0  0  0
  148.2249  143.8689  161.2371 O   0  0  0  0  0  0  0  0  0  0  0  0
  149.3096  144.3134  159.2724 N   0  0  0  0  0  0  0  0  0  0  0  0
  150.6023  143.7809  159.5195 C   0  0  0  0  0  0  0  0  0  0  0  0
  150.9994  143.2778  160.6941 N   0  0  0  0  0  0  0  0  0  0  0  0
  152.3198  142.8228  160.6500 C   0  0  0  0  0  0  0  0  0  0  0  0
  152.9167  142.9880  159.4250 C   0  0  0  0  0  0  0  0  0  0  0  0
  151.8384  143.7268  158.2713 S   0  0  0  0  0  0  0  0  0  0  0  0
  145.3045  146.3569  158.0284 N   0  3  0  0  0  0  0  0  0  0  0  0
  144.4916  146.4891  156.7927 C   0  0  0  0  0  0  0  0  0  0  0  0
  144.6013  147.9483  156.3272 C   0  0  0  0  0  0  0  0  0  0  0  0
  145.6451  148.5786  157.2425 C   0  0  0  0  0  0  0  0  0  0  0  0
  145.5575  147.7333  158.5076 C   0  0  0  0  0  0  0  0  0  0  0  0
  141.3424  146.2212  159.3100 H   0  0  0  0  0  0  0  0  0  0  0  0
  142.0092  144.8268  158.4736 H   0  0  0  0  0  0  0  0  0  0  0  0
  142.3434  146.4532  157.8872 H   0  0  0  0  0  0  0  0  0  0  0  0
  143.5940  146.9511  160.0200 H   0  0  0  0  0  0  0  0  0  0  0  0
  143.2560  145.3715  160.6128 H   0  0  0  0  0  0  0  0  0  0  0  0
  144.5243  144.4819  158.5141 H   0  0  0  0  0  0  0  0  0  0  0  0
  145.9501  145.8331  160.8426 H   0  0  0  0  0  0  0  0  0  0  0  0
  145.5632  144.1502  160.6536 H   0  0  0  0  0  0  0  0  0  0  0  0
  147.2980  145.2406  158.5625 H   0  0  0  0  0  0  0  0  0  0  0  0
  149.1794  144.7252  158.3603 H   0  0  0  0  0  0  0  0  0  0  0  0
  152.7571  142.3936  161.5394 H   0  0  0  0  0  0  0  0  0  0  0  0
  153.9214  142.7209  159.1330 H   0  0  0  0  0  0  0  0  0  0  0  0
  144.8628  145.7979  156.0352 H   0  0  0  0  0  0  0  0  0  0  0  0
  143.4440  146.2486  156.9790 H   0  0  0  0  0  0  0  0  0  0  0  0
  144.8743  148.0315  155.2749 H   0  0  0  0  0  0  0  0  0  0  0  0
  143.6420  148.4499  156.4600 H   0  0  0  0  0  0  0  0  0  0  0  0
  146.6365  148.4770  156.7987 H   0  0  0  0  0  0  0  0  0  0  0  0
  145.4655  149.6382  157.4266 H   0  0  0  0  0  0  0  0  0  0  0  0
  144.7202  148.0708  159.1208 H   0  0  0  0  0  0  0  0  0  0  0  0
  146.4680  147.8037  159.1032 H   0  0  0  0  0  0  0  0  0  0  0  0
  146.2026  146.0018  157.7321 H   0  0  0  0  0  0  0  0  0  0  0  0
  1  2  1  0  0  0  0
  1 19  1  0  0  0  0
  1 20  1  0  0  0  0
  1 21  1  0  0  0  0
  2  3  1  0  0  0  0
  2 22  1  0  0  0  0
  2 23  1  0  0  0  0
  3  4  1  0  0  0  0
  3 14  1  0  0  0  0
  3 24  1  0  0  0  0
  4  5  1  0  0  0  0
  4 25  1  0  0  0  0
  4 26  1  0  0  0  0
  5  6  1  0  0  0  0
  5 27  1  0  0  0  0
  6  7  2  0  0  0  0
  6  8  1  0  0  0  0
  8  9  1  0  0  0  0
  8 28  1  0  0  0  0
  9 13  1  0  0  0  0
  9 10  2  0  0  0  0
 10 11  1  0  0  0  0
 11 12  2  0  0  0  0
 11 29  1  0  0  0  0
 12 13  1  0  0  0  0
 12 30  1  0  0  0  0
 14 18  1  0  0  0  0
 14 15  1  0  0  0  0
 14 39  1  0  0  0  0
 15 16  1  0  0  0  0
 15 31  1  0  0  0  0
 15 32  1  0  0  0  0
 16 17  1  0  0  0  0
 16 33  1  0  0  0  0
 16 34  1  0  0  0  0
 17 18  1  0  0  0  0
 17 35  1  0  0  0  0
 17 36  1  0  0  0  0
 18 37  1  0  0  0  0
 18 38  1  0  0  0  0
M  CHG  1  14   1
M  END
> <s_m_source_file>
AV-unprocessed.smi

> <i_m_source_file_index>
1696

> <i_lp_mmshare_version>
43012

> <i_f3d_flags>
0

> <s_epik_input>
W0NIMl0xW0NIMl1bQ0gyXVtDSDJdTjFbQ0BIXShbQ0gyXVtDSDNdKVtDSDJdW05IXUMoPU8pW05IXWMybltjSF1bY0hdczI=

> <s_epik_cmdline>
J2VwaWtfcHl0aG9uJywgJy1waCcsICc3LjAnLCAnLXRuJywgJzgnLCAnLW1hJywgJzIwMCcsICctbWV0YWxfYmluZGluZycsICctaW1hZScsICc8aW5maWxlLm1hZT4nLCAnLW9tYWUnLCAnPG91dGZpbGUubWFlPic=

> <r_lp_tautomer_probability>
1

> <r_epik_Ionization_Penalty>
0.0013883

> <r_epik_Ionization_Penalty_Charging>
0.00115997

> <r_epik_Ionization_Penalty_Neutral>
0.000228323

> <r_epik_State_Penalty>
-0

> <r_epik_Charging_Adjusted_Penalty>
0.00115997

> <i_epik_Tot_Q>
1

> <i_epik_Tot_abs_Q>
1

> <r_epik_Metal_State_Penalty>
0.0131845

> <b_epik_Metal_Only>
0

> <s_lp_Force_Field>
OPLS_2005

> <r_lp_Energy>
31.4712

> <b_lp_Chiralities_Consistent>
1

> <s_lp_Variant>
AV-unprocessed.smi:1696-1

> <Gold.Version>
5.8.1

> <Gold.Id.Protein>
6NUR|6NUR_protein|mol2

> <Gold.PLP.Fitness>
52.1119

> <Gold.PLP.PLP>
-38.1937

> <Gold.PLP.part.hbond>
-4.7207

> <Gold.PLP.part.metal>
0.0000

> <Gold.PLP.part.buried>
-6.3799

> <Gold.PLP.part.nonpolar>
-27.8486

> <Gold.PLP.part.repulsive>
0.6203

> <Gold.PLP.ligand.clash>
0.0000

> <Gold.PLP.ligand.torsion>
0.4939

> <Gold.PLP.Chemscore.Hbond>
4.9360

> <Gold.PLP.Chemscore.CHOScore>
0.0000

> <Gold.PLP.Chemscore.Metal>
0.0000

> <Gold.Chemscore.Hbonds>
donor molecule, donor type, donor heavy atom, donor atom, acceptor molecule, acceptor atom, score
      L1  H     5    27       P1  8029  1.00
      L1  H     8    28       P1  8029  0.77
      L1  H    14    39       P1  8029  2.00
      P1  H  6933  6944       L1     7  1.00
      P1  H  6933  6945       L1    10  0.01

> <Gold.PLP.Chemscore.Internal.Correction>
0.0980

> <Gold.Rescore>
     Score         DG    S(hbond)    S(metal)    S(lipo)     H(rot)  DE(clash)    DE(int)     intcor
     21.59     -23.41       3.83        0.00      82.69       1.77       0.03       1.80       ----

> <Gold.Chemscore.Fitness>
21.5852

> <Gold.Chemscore.DG>
-23.4144

> <Gold.Chemscore.ZeroCoef>
-5.4800

> <Gold.Chemscore.Hbond>
3.8301

> <Gold.Chemscore.Metal>
0.0000

> <Gold.Chemscore.Lipo>
82.6857

> <Gold.Chemscore.Internal_Hbond>
0.0000

> <Gold.Chemscore.DEClash>
0.0270

> <Gold.Chemscore.DEInternal>
1.8022

> <Gold.Chemscore.Rot>
1.7705

> <Gold.Chemscore.Internal.Correction>
   9.000000E+99

> <Gold.Chemscore.Hbonds>
donor molecule, donor type, donor heavy atom, donor atom, acceptor molecule, acceptor atom, score
      L1  H     5    27       P1  8029  0.97
      L1  H     8    28       P1  8029  0.37
      L1  H    14    39       P1  8029  0.90
      P1  H  6933  6944       L1     7  0.88
      P1  H  6933  6945       L1    10  0.01

> <Gold.Chemscore.Hbond.Weighted>
-12.7926

> <Gold.Chemscore.Metal.Weighted>
-0.0000

> <Gold.Chemscore.Lipo.Weighted>
-9.6742

> <Gold.Chemscore.Internal_Hbond.Weighted>
0.0000

> <Gold.Chemscore.DEClash.Weighted>
0.0270

> <Gold.Chemscore.DEInternal.Weighted>
1.8022

> <Gold.Chemscore.Rot.Weighted>
4.5324

> <Gold.Chemscore.Internal.Correction.Weighted>
   9.000000E+99

> <Gold.Protein.RotatedTorsions>
[ 6907 6896 6895 6894 ] final   57.38 input  -60.11 | X-H torsion
[ 7974 7965 7964 7962 ] final   62.54 input  175.53 | X-H torsion
[ 8008 7997 7996 7995 ] final -107.38 input   59.86 | X-H torsion
[ 10167 10162 10161 10158 ] final  -37.43 input  -65.29 | X-H torsion
[ 10718 10713 10712 10709 ] final  -83.95 input   66.30 | X-H torsion
[ 10763 10752 10751 10750 ] final -106.06 input  -60.55 | X-H torsion
[ 11005 11000 10999 10996 ] final   23.90 input  -57.11 | X-H torsion

> <Gold.Protein.ActiveResidues>
 VAL166  LYS551  ARG553  GLY616  TRP617  ASP618  TYR619  PRO620  LYS621  CYS622 
 ASP623  PHE694  ASN695  SER759  ASP760  ASP761  ALA762  ILE779  LEU786  VAL792 
 PHE793  MET794  SER795  GLU796  ALA797  LYS798  CYS799  TRP800  GLU811  SER814 

> <Gold.Protein.RotatedAtoms>
  152.3726  134.6711  160.0170 H   0  0  0  0  0  0  0  0  0  0  0  0  # atno 6907 bound_to 6896
  151.6999  133.3305  159.3272 H   0  0  0  0  0  0  0  0  0  0  0  0  # atno 6908 bound_to 6896
  150.7685  134.6560  159.6358 H   0  0  0  0  0  0  0  0  0  0  0  0  # atno 6909 bound_to 6896
  145.8722  139.3386  143.0756 H   0  0  0  0  0  0  0  0  0  0  0  0  # atno 7974 bound_to 7965
  154.9285  140.0405  157.2035 H   0  0  0  0  0  0  0  0  0  0  0  0  # atno 8008 bound_to 7997
  154.8184  140.2879  155.5782 H   0  0  0  0  0  0  0  0  0  0  0  0  # atno 8009 bound_to 7997
  156.2978  140.2523  156.3086 H   0  0  0  0  0  0  0  0  0  0  0  0  # atno 8010 bound_to 7997
  140.7118  143.3342  151.2499 H   0  0  0  0  0  0  0  0  0  0  0  0  # atno 10167 bound_to 10162
  156.0012  130.4682  150.4335 H   0  0  0  0  0  0  0  0  0  0  0  0  # atno 10718 bound_to 10713
  154.7988  135.4726  154.0224 H   0  0  0  0  0  0  0  0  0  0  0  0  # atno 10763 bound_to 10752
  153.1746  135.6831  153.8567 H   0  0  0  0  0  0  0  0  0  0  0  0  # atno 10764 bound_to 10752
  153.8138  135.3213  155.3381 H   0  0  0  0  0  0  0  0  0  0  0  0  # atno 10765 bound_to 10752
  140.3645  134.2089  155.7670 H   0  0  0  0  0  0  0  0  0  0  0  0  # atno 11005 bound_to 11000
  145.9123  140.9171  143.0447 LP  0  0  0  0  0  0  0  0  0  0  0  0  # atno 17320 bound_to 7965
  144.6726  140.1177  143.7451 LP  0  0  0  0  0  0  0  0  0  0  0  0  # atno 17321 bound_to 7965
  139.6833  143.9817  152.2820 LP  0  0  0  0  0  0  0  0  0  0  0  0  # atno 17342 bound_to 10162
  139.9454  144.6655  150.8224 LP  0  0  0  0  0  0  0  0  0  0  0  0  # atno 17343 bound_to 10162
  157.2382  131.0519  151.2452 LP  0  0  0  0  0  0  0  0  0  0  0  0  # atno 17370 bound_to 10713
  157.3646  130.7149  149.6524 LP  0  0  0  0  0  0  0  0  0  0  0  0  # atno 17371 bound_to 10713
  141.1974  133.8060  157.0630 LP  0  0  0  0  0  0  0  0  0  0  0  0  # atno 17394 bound_to 11000
  140.0600  134.9760  157.1288 LP  0  0  0  0  0  0  0  0  0  0  0  0  # atno 17395 bound_to 11000

$$$$
