AV-unprocessed.smi:753|AV-procd|sdf|3603|dock4
  -GOLD-   22720 0593D 1   1.00000     0.00000
 Structure written by MMmdl.
 44 46  0  0  0  0  0  0  0  0  2 V2000
  151.0023  142.4439  156.6860 C   0  0  0  0  0  0  0  0  0  0  0  0
  150.1466  141.6731  155.7033 C   0  0  0  0  0  0  0  0  0  0  0  0
  150.4611  140.3583  155.2969 C   0  0  0  0  0  0  0  0  0  0  0  0
  149.6194  139.7032  154.3737 C   0  0  0  0  0  0  0  0  0  0  0  0
  148.4806  140.3748  153.8772 C   0  0  0  0  0  0  0  0  0  0  0  0
  147.5627  139.7008  152.8768 C   0  0  0  0  0  0  0  0  0  0  0  0
  146.8505  138.4796  153.4802 C   0  0  0  0  0  0  0  0  0  0  0  0
  146.8250  137.3619  152.5454 N   0  0  0  0  0  0  0  0  0  0  0  0
  145.7235  136.6768  152.1946 C   0  0  0  0  0  0  0  0  0  0  0  0
  144.6036  136.9230  152.6390 O   0  0  0  0  0  0  0  0  0  0  0  0
  145.9351  135.6909  151.3052 N   0  0  0  0  0  0  0  0  0  0  0  0
  144.9501  134.7723  150.7296 C   0  0  2  0  0  0  0  0  0  0  0  0
  143.9710  134.1965  151.7805 C   0  0  0  0  0  0  0  0  0  0  0  0
  144.1777  132.6765  151.6456 C   0  0  1  0  0  0  0  0  0  0  0  0
  143.6166  132.1971  150.2926 C   0  0  0  0  0  0  0  0  0  0  0  0
  144.6422  132.7482  149.2823 C   0  0  0  0  0  0  0  0  0  0  0  0
  145.6359  133.4989  150.1885 C   0  0  2  0  0  0  0  0  0  0  0  0
  145.6796  132.5888  151.4128 C   0  0  0  0  0  0  0  0  0  0  0  0
  148.2159  141.6882  154.3201 C   0  0  0  0  0  0  0  0  0  0  0  0
  149.0472  142.2817  155.2043 N   0  3  0  0  0  0  0  0  0  0  0  0
  151.8238  141.8307  157.0578 H   0  0  0  0  0  0  0  0  0  0  0  0
  150.4055  142.7669  157.5395 H   0  0  0  0  0  0  0  0  0  0  0  0
  151.4259  143.3275  156.2079 H   0  0  0  0  0  0  0  0  0  0  0  0
  151.3356  139.8560  155.6841 H   0  0  0  0  0  0  0  0  0  0  0  0
  149.8486  138.6982  154.0497 H   0  0  0  0  0  0  0  0  0  0  0  0
  146.8318  140.4283  152.5206 H   0  0  0  0  0  0  0  0  0  0  0  0
  148.1466  139.4009  152.0053 H   0  0  0  0  0  0  0  0  0  0  0  0
  147.3674  138.1542  154.3834 H   0  0  0  0  0  0  0  0  0  0  0  0
  145.8333  138.7378  153.7802 H   0  0  0  0  0  0  0  0  0  0  0  0
  147.7046  137.0906  152.1299 H   0  0  0  0  0  0  0  0  0  0  0  0
  146.8875  135.5610  150.9953 H   0  0  0  0  0  0  0  0  0  0  0  0
  144.4159  135.2793  149.9239 H   0  0  0  0  0  0  0  0  0  0  0  0
  144.2258  134.5245  152.7897 H   0  0  0  0  0  0  0  0  0  0  0  0
  142.9388  134.4916  151.5888 H   0  0  0  0  0  0  0  0  0  0  0  0
  143.8094  132.1076  152.4996 H   0  0  0  0  0  0  0  0  0  0  0  0
  143.5824  131.1077  150.2485 H   0  0  0  0  0  0  0  0  0  0  0  0
  142.6087  132.5714  150.1090 H   0  0  0  0  0  0  0  0  0  0  0  0
  145.1386  131.9310  148.7569 H   0  0  0  0  0  0  0  0  0  0  0  0
  144.1853  133.3963  148.5336 H   0  0  0  0  0  0  0  0  0  0  0  0
  146.6002  133.6805  149.7122 H   0  0  0  0  0  0  0  0  0  0  0  0
  146.2701  132.9944  152.2361 H   0  0  0  0  0  0  0  0  0  0  0  0
  146.0254  131.5779  151.1891 H   0  0  0  0  0  0  0  0  0  0  0  0
  147.3728  142.2797  153.9937 H   0  0  0  0  0  0  0  0  0  0  0  0
  148.8367  143.2326  155.5083 H   0  0  0  0  0  0  0  0  0  0  0  0
  1  2  1  0  0  0  0
  1 21  1  0  0  0  0
  1 22  1  0  0  0  0
  1 23  1  0  0  0  0
  2 20  1  0  0  0  0
  2  3  2  0  0  0  0
  3  4  1  0  0  0  0
  3 24  1  0  0  0  0
  4  5  2  0  0  0  0
  4 25  1  0  0  0  0
  5  6  1  0  0  0  0
  5 19  1  0  0  0  0
  6  7  1  0  0  0  0
  6 26  1  0  0  0  0
  6 27  1  0  0  0  0
  7  8  1  0  0  0  0
  7 28  1  0  0  0  0
  7 29  1  0  0  0  0
  8  9  1  0  0  0  0
  8 30  1  0  0  0  0
  9 10  2  0  0  0  0
  9 11  1  0  0  0  0
 11 12  1  0  0  0  0
 11 31  1  0  0  0  0
 12 17  1  0  0  0  0
 12 13  1  0  0  0  0
 12 32  1  0  0  0  0
 13 14  1  0  0  0  0
 13 33  1  0  0  0  0
 13 34  1  0  0  0  0
 14 18  1  0  0  0  0
 14 15  1  0  0  0  0
 14 35  1  0  0  0  0
 15 16  1  0  0  0  0
 15 36  1  0  0  0  0
 15 37  1  0  0  0  0
 16 17  1  0  0  0  0
 16 38  1  0  0  0  0
 16 39  1  0  0  0  0
 17 18  1  0  0  0  0
 17 40  1  0  0  0  0
 18 41  1  0  0  0  0
 18 42  1  0  0  0  0
 19 20  2  0  0  0  0
 19 43  1  0  0  0  0
 20 44  1  0  0  0  0
M  CHG  1  20   1
M  END
> <s_m_source_file>
AV-unprocessed.smi

> <i_m_source_file_index>
753

> <i_lp_mmshare_version>
43012

> <i_f3d_flags>
0

> <s_epik_input>
W0NIM11jMVtjSF1bY0hdYyhbY0hdbjEpW0NIMl1bQ0gyXVtOSF1DKD1PKVtOSF1bQ0BIXShbQ0gyXVtDQEBIXTIzKVtDQEBIXShbQ0gyXTMpW0NIMl1bQ0gyXTI=

> <s_epik_cmdline>
J2VwaWtfcHl0aG9uJywgJy1waCcsICc3LjAnLCAnLXRuJywgJzgnLCAnLW1hJywgJzIwMCcsICctbWV0YWxfYmluZGluZycsICctaW1hZScsICc8aW5maWxlLm1hZT4nLCAnLW9tYWUnLCAnPG91dGZpbGUubWFlPic=

> <r_epik_Ionization_Penalty>
1.41708

> <r_epik_Ionization_Penalty_Charging>
1.41702

> <r_epik_Ionization_Penalty_Neutral>
5.73163e-05

> <r_epik_State_Penalty>
1.50048

> <r_epik_Charging_Adjusted_Penalty>
2.9175

> <i_epik_Tot_Q>
1

> <i_epik_Tot_abs_Q>
1

> <r_epik_Metal_State_Penalty>
1.55295

> <b_epik_Metal_Only>
0

> <s_lp_Force_Field>
OPLS_2005

> <r_lp_Energy>
57.028

> <b_lp_Chiralities_Consistent>
1

> <s_lp_Variant>
AV-unprocessed.smi:753-5

> <Gold.Version>
5.8.1

> <Gold.Id.Protein>
6NUR|6NUR_protein|mol2

> <Gold.PLP.Fitness>
47.7357

> <Gold.PLP.PLP>
-39.2256

> <Gold.PLP.part.hbond>
-2.6712

> <Gold.PLP.part.metal>
0.0000

> <Gold.PLP.part.buried>
-0.1810

> <Gold.PLP.part.nonpolar>
-36.3559

> <Gold.PLP.part.repulsive>
0.4621

> <Gold.PLP.ligand.clash>
0.0000

> <Gold.PLP.ligand.torsion>
0.6080

> <Gold.PLP.Chemscore.Hbond>
3.2340

> <Gold.PLP.Chemscore.CHOScore>
0.0000

> <Gold.PLP.Chemscore.Metal>
0.0000

> <Gold.Chemscore.Hbonds>
donor molecule, donor type, donor heavy atom, donor atom, acceptor molecule, acceptor atom, score
      L1  H     8    30       P1  7948  0.98
      L1  H    11    31       P1  7948  0.26
      L1  H    20    44       P1  8028  1.79

> <Gold.PLP.Chemscore.Internal.Correction>
0.0241

> <Gold.Rescore>
     Score         DG    S(hbond)    S(metal)    S(lipo)     H(rot)  DE(clash)    DE(int)     intcor
     20.26     -21.96       2.70        0.00      96.73       1.50       0.16       1.54       ----

> <Gold.Chemscore.Fitness>
20.2558

> <Gold.Chemscore.DG>
-21.9622

> <Gold.Chemscore.ZeroCoef>
-5.4800

> <Gold.Chemscore.Hbond>
2.6979

> <Gold.Chemscore.Metal>
0.0000

> <Gold.Chemscore.Lipo>
96.7346

> <Gold.Chemscore.Internal_Hbond>
0.0000

> <Gold.Chemscore.DEClash>
0.1638

> <Gold.Chemscore.DEInternal>
1.5426

> <Gold.Chemscore.Rot>
1.5027

> <Gold.Chemscore.Internal.Correction>
   9.000000E+99

> <Gold.Chemscore.Hbonds>
donor molecule, donor type, donor heavy atom, donor atom, acceptor molecule, acceptor atom, score
      L1  H     8    30       P1  7948  0.92
      L1  H    11    31       P1  7948  0.23
      L1  H    20    44       P1  8028  0.87

> <Gold.Chemscore.Hbond.Weighted>
-9.0110

> <Gold.Chemscore.Metal.Weighted>
-0.0000

> <Gold.Chemscore.Lipo.Weighted>
-11.3179

> <Gold.Chemscore.Internal_Hbond.Weighted>
0.0000

> <Gold.Chemscore.DEClash.Weighted>
0.1638

> <Gold.Chemscore.DEInternal.Weighted>
1.5426

> <Gold.Chemscore.Rot.Weighted>
3.8468

> <Gold.Chemscore.Internal.Correction.Weighted>
   9.000000E+99

> <Gold.Protein.RotatedTorsions>
[ 6907 6896 6895 6894 ] final -111.78 input  -60.11 | X-H torsion
[ 7974 7965 7964 7962 ] final   72.62 input  175.53 | X-H torsion
[ 8008 7997 7996 7995 ] final    2.06 input   59.86 | X-H torsion
[ 10167 10162 10161 10158 ] final -166.55 input  -65.29 | X-H torsion
[ 10718 10713 10712 10709 ] final -144.72 input   66.30 | X-H torsion
[ 10763 10752 10751 10750 ] final  -94.74 input  -60.55 | X-H torsion
[ 11005 11000 10999 10996 ] final  -36.79 input  -57.11 | X-H torsion

> <Gold.Protein.ActiveResidues>
 VAL166  LYS551  ARG553  GLY616  TRP617  ASP618  TYR619  PRO620  LYS621  CYS622 
 ASP623  PHE694  ASN695  SER759  ASP760  ASP761  ALA762  ILE779  LEU786  VAL792 
 PHE793  MET794  SER795  GLU796  ALA797  LYS798  CYS799  TRP800  GLU811  SER814 

> <Gold.Protein.RotatedAtoms>
  150.7713  133.9185  159.3390 H   0  0  0  0  0  0  0  0  0  0  0  0  # atno 6907 bound_to 6896
  151.7071  135.0917  160.0270 H   0  0  0  0  0  0  0  0  0  0  0  0  # atno 6908 bound_to 6896
  152.3732  133.6408  159.6139 H   0  0  0  0  0  0  0  0  0  0  0  0  # atno 6909 bound_to 6896
  145.7511  139.2760  143.1431 H   0  0  0  0  0  0  0  0  0  0  0  0  # atno 7974 bound_to 7965
  154.6871  140.2645  155.6850 H   0  0  0  0  0  0  0  0  0  0  0  0  # atno 8008 bound_to 7997
  156.2718  140.2798  156.1359 H   0  0  0  0  0  0  0  0  0  0  0  0  # atno 8009 bound_to 7997
  155.0949  140.0374  157.2670 H   0  0  0  0  0  0  0  0  0  0  0  0  # atno 8010 bound_to 7997
  139.6107  144.0820  152.1839 H   0  0  0  0  0  0  0  0  0  0  0  0  # atno 10167 bound_to 10162
  156.3735  130.7800  151.1984 H   0  0  0  0  0  0  0  0  0  0  0  0  # atno 10718 bound_to 10713
  154.7084  135.5146  153.8629 H   0  0  0  0  0  0  0  0  0  0  0  0  # atno 10763 bound_to 10752
  153.0760  135.6616  154.0154 H   0  0  0  0  0  0  0  0  0  0  0  0  # atno 10764 bound_to 10752
  154.0001  135.3011  155.3383 H   0  0  0  0  0  0  0  0  0  0  0  0  # atno 10765 bound_to 10752
  140.9902  133.7009  156.1836 H   0  0  0  0  0  0  0  0  0  0  0  0  # atno 11005 bound_to 11000
  146.0356  140.8215  142.9854 LP  0  0  0  0  0  0  0  0  0  0  0  0  # atno 17320 bound_to 7965
  144.6849  140.2833  143.7289 LP  0  0  0  0  0  0  0  0  0  0  0  0  # atno 17321 bound_to 7965
  140.0438  144.5986  150.7390 LP  0  0  0  0  0  0  0  0  0  0  0  0  # atno 17342 bound_to 10162
  140.7317  143.2697  151.3927 LP  0  0  0  0  0  0  0  0  0  0  0  0  # atno 17343 bound_to 10162
  157.7486  131.0365  150.4412 LP  0  0  0  0  0  0  0  0  0  0  0  0  # atno 17370 bound_to 10713
  156.4644  130.4039  149.6556 LP  0  0  0  0  0  0  0  0  0  0  0  0  # atno 17371 bound_to 10713
  140.7052  134.4521  157.5584 LP  0  0  0  0  0  0  0  0  0  0  0  0  # atno 17394 bound_to 11000
  139.8988  134.8604  156.1984 LP  0  0  0  0  0  0  0  0  0  0  0  0  # atno 17395 bound_to 11000

$$$$
