AV-unprocessed.smi:845|AV-procd|sdf|3931|dock2
  -GOLD-   22720 1393D 1   1.00000     0.00000
 Structure written by MMmdl.
 42 43  0  0  0  0  0  0  0  0  3 V2000
  150.4183  134.8621  157.0762 C   0  0  0  0  0  0  0  0  0  0  0  0
  148.9713  134.9999  156.5716 C   0  0  0  0  0  0  0  0  0  0  0  0
  148.0809  133.8949  157.1664 C   0  0  0  0  0  0  0  0  0  0  0  0
  148.9086  135.1208  155.0210 C   0  0  2  0  0  0  0  0  0  0  0  0
  149.4623  133.8983  154.2408 C   0  0  0  0  0  0  0  0  0  0  0  0
  148.7661  133.6918  152.9733 N   0  0  0  0  0  0  0  0  0  0  0  0
  148.1484  132.5711  152.5727 C   0  0  0  0  0  0  0  0  0  0  0  0
  148.1517  131.5704  153.2931 O   0  0  0  0  0  0  0  0  0  0  0  0
  147.5565  132.6849  151.3629 N   0  5  0  0  0  0  0  0  0  0  0  0
  146.2830  132.2915  151.1998 C   0  0  0  0  0  0  0  0  0  0  0  0
  145.2580  133.1490  151.1297 N   0  0  0  0  0  0  0  0  0  0  0  0
  144.0224  132.5236  150.9539 C   0  0  0  0  0  0  0  0  0  0  0  0
  144.1096  131.1585  150.8801 C   0  0  0  0  0  0  0  0  0  0  0  0
  145.7562  130.6147  151.0296 S   0  0  0  0  0  0  0  0  0  0  0  0
  149.4712  136.4292  154.5610 N   0  3  0  0  0  0  0  0  0  0  0  0
  148.9006  137.6554  155.1789 C   0  0  0  0  0  0  0  0  0  0  0  0
  149.4554  138.9044  154.4766 C   0  0  0  0  0  0  0  0  0  0  0  0
  150.8747  138.9071  154.5732 O   0  0  0  0  0  0  0  0  0  0  0  0
  151.4560  137.7768  153.9346 C   0  0  0  0  0  0  0  0  0  0  0  0
  150.9529  136.4821  154.5966 C   0  0  0  0  0  0  0  0  0  0  0  0
  150.8723  133.9263  156.7496 H   0  0  0  0  0  0  0  0  0  0  0  0
  150.4546  134.8824  158.1659 H   0  0  0  0  0  0  0  0  0  0  0  0
  151.0424  135.6802  156.7152 H   0  0  0  0  0  0  0  0  0  0  0  0
  148.6109  135.9411  156.9866 H   0  0  0  0  0  0  0  0  0  0  0  0
  148.4548  132.9010  156.9214 H   0  0  0  0  0  0  0  0  0  0  0  0
  147.0535  133.9670  156.8123 H   0  0  0  0  0  0  0  0  0  0  0  0
  148.0516  133.9684  158.2538 H   0  0  0  0  0  0  0  0  0  0  0  0
  147.8416  135.1378  154.7925 H   0  0  0  0  0  0  0  0  0  0  0  0
  150.5127  134.0646  154.0002 H   0  0  0  0  0  0  0  0  0  0  0  0
  149.4319  132.9909  154.8445 H   0  0  0  0  0  0  0  0  0  0  0  0
  148.7347  134.4783  152.3410 H   0  0  0  0  0  0  0  0  0  0  0  0
  143.1302  133.1288  150.8907 H   0  0  0  0  0  0  0  0  0  0  0  0
  143.3117  130.4439  150.7467 H   0  0  0  0  0  0  0  0  0  0  0  0
  147.8138  137.6540  155.1159 H   0  0  0  0  0  0  0  0  0  0  0  0
  149.1595  137.7012  156.2376 H   0  0  0  0  0  0  0  0  0  0  0  0
  149.1464  138.9350  153.4304 H   0  0  0  0  0  0  0  0  0  0  0  0
  149.0675  139.8058  154.9510 H   0  0  0  0  0  0  0  0  0  0  0  0
  151.2172  137.7859  152.8700 H   0  0  0  0  0  0  0  0  0  0  0  0
  152.5410  137.8436  154.0172 H   0  0  0  0  0  0  0  0  0  0  0  0
  151.2975  136.4255  155.6304 H   0  0  0  0  0  0  0  0  0  0  0  0
  151.3726  135.6248  154.0687 H   0  0  0  0  0  0  0  0  0  0  0  0
  149.2327  136.4773  153.5808 H   0  0  0  0  0  0  0  0  0  0  0  0
  1  2  1  0  0  0  0
  1 21  1  0  0  0  0
  1 22  1  0  0  0  0
  1 23  1  0  0  0  0
  2  3  1  0  0  0  0
  2  4  1  0  0  0  0
  2 24  1  0  0  0  0
  3 25  1  0  0  0  0
  3 26  1  0  0  0  0
  3 27  1  0  0  0  0
  4  5  1  0  0  0  0
  4 15  1  0  0  0  0
  4 28  1  0  0  0  0
  5  6  1  0  0  0  0
  5 29  1  0  0  0  0
  5 30  1  0  0  0  0
  6  7  1  0  0  0  0
  6 31  1  0  0  0  0
  7  8  2  0  0  0  0
  7  9  1  0  0  0  0
  9 10  1  0  0  0  0
 10 14  1  0  0  0  0
 10 11  2  0  0  0  0
 11 12  1  0  0  0  0
 12 13  2  0  0  0  0
 12 32  1  0  0  0  0
 13 14  1  0  0  0  0
 13 33  1  0  0  0  0
 15 20  1  0  0  0  0
 15 16  1  0  0  0  0
 15 42  1  0  0  0  0
 16 17  1  0  0  0  0
 16 34  1  0  0  0  0
 16 35  1  0  0  0  0
 17 18  1  0  0  0  0
 17 36  1  0  0  0  0
 17 37  1  0  0  0  0
 18 19  1  0  0  0  0
 19 20  1  0  0  0  0
 19 38  1  0  0  0  0
 19 39  1  0  0  0  0
 20 40  1  0  0  0  0
 20 41  1  0  0  0  0
M  CHG  1   9  -1
M  CHG  1  15   1
M  END
> <s_m_source_file>
AV-unprocessed.smi

> <i_m_source_file_index>
845

> <i_lp_mmshare_version>
43012

> <i_f3d_flags>
0

> <s_epik_input>
W0NIMl0xW0NIMl1PW0NIMl1bQ0gyXU4xW0NASF0oW0NIXShbQ0gzXSlbQ0gzXSlbQ0gyXVtOSF1DKD1PKVtOSF1jMm5bY0hdW2NIXXMy

> <s_epik_cmdline>
J2VwaWtfcHl0aG9uJywgJy1waCcsICc3LjAnLCAnLXRuJywgJzgnLCAnLW1hJywgJzIwMCcsICctbWV0YWxfYmluZGluZycsICctaW1hZScsICc8aW5maWxlLm1hZT4nLCAnLW9tYWUnLCAnPG91dGZpbGUubWFlPic=

> <r_lp_tautomer_probability>
0.999

> <r_epik_Ionization_Penalty>
7.97104

> <r_epik_Ionization_Penalty_Charging>
6.58021

> <r_epik_Ionization_Penalty_Neutral>
1.39083

> <r_epik_State_Penalty>
6.69807

> <r_epik_Charging_Adjusted_Penalty>
13.2783

> <i_epik_Tot_Q>
0

> <i_epik_Tot_abs_Q>
2

> <r_epik_Metal_State_Penalty>
2.62985

> <b_epik_Metal_Only>
1

> <s_lp_Force_Field>
OPLS_2005

> <r_lp_Energy>
16.3382

> <b_lp_Chiralities_Consistent>
1

> <s_lp_Variant>
AV-unprocessed.smi:845-5

> <Gold.Version>
5.8.1

> <Gold.Id.Protein>
6NUR|6NUR_protein|mol2

> <Gold.PLP.Fitness>
42.1986

> <Gold.PLP.PLP>
-27.0127

> <Gold.PLP.part.hbond>
-3.0000

> <Gold.PLP.part.metal>
0.0000

> <Gold.PLP.part.buried>
-3.6524

> <Gold.PLP.part.nonpolar>
-21.5655

> <Gold.PLP.part.repulsive>
0.8670

> <Gold.PLP.ligand.clash>
0.0000

> <Gold.PLP.ligand.torsion>
1.6472

> <Gold.PLP.Chemscore.Hbond>
4.0000

> <Gold.PLP.Chemscore.CHOScore>
1.9398

> <Gold.PLP.Chemscore.Metal>
0.0000

> <Gold.Chemscore.Hbonds>
donor molecule, donor type, donor heavy atom, donor atom, acceptor molecule, acceptor atom, score
      L1  H     6    31       P1  7948  0.25
      L1  H    15    42       P1  7948  2.00
      P1  H  7989  7998       L1    18  0.19
      L1  C    12    32       P1 10186  0.27
      L1  C    13    33       P1 10952  0.39

> <Gold.PLP.Chemscore.Internal.Correction>
0.6610

> <Gold.Rescore>
     Score         DG    S(hbond)    S(metal)    S(lipo)     H(rot)  DE(clash)    DE(int)     intcor
     13.18     -15.29       2.05        0.00      63.74       1.76       0.23       1.87       ----

> <Gold.Chemscore.Fitness>
13.1824

> <Gold.Chemscore.DG>
-15.2889

> <Gold.Chemscore.ZeroCoef>
-5.4800

> <Gold.Chemscore.Hbond>
2.0548

> <Gold.Chemscore.Metal>
0.0000

> <Gold.Chemscore.Lipo>
63.7392

> <Gold.Chemscore.Internal_Hbond>
0.0000

> <Gold.Chemscore.DEClash>
0.2330

> <Gold.Chemscore.DEInternal>
1.8734

> <Gold.Chemscore.Rot>
1.7623

> <Gold.Chemscore.Internal.Correction>
   9.000000E+99

> <Gold.Chemscore.Hbonds>
donor molecule, donor type, donor heavy atom, donor atom, acceptor molecule, acceptor atom, score
      L1  H    15    42       P1  7948  0.94
      P1  H  7989  7998       L1    18  0.08

> <Gold.Chemscore.Hbond.Weighted>
-6.8629

> <Gold.Chemscore.Metal.Weighted>
-0.0000

> <Gold.Chemscore.Lipo.Weighted>
-7.4575

> <Gold.Chemscore.Internal_Hbond.Weighted>
0.0000

> <Gold.Chemscore.DEClash.Weighted>
0.2330

> <Gold.Chemscore.DEInternal.Weighted>
1.8734

> <Gold.Chemscore.Rot.Weighted>
4.5116

> <Gold.Chemscore.Internal.Correction.Weighted>
   9.000000E+99

> <Gold.Protein.RotatedTorsions>
[ 6907 6896 6895 6894 ] final -131.36 input  -60.11 | X-H torsion
[ 7974 7965 7964 7962 ] final   13.01 input  175.53 | X-H torsion
[ 8008 7997 7996 7995 ] final   38.42 input   59.86 | X-H torsion
[ 10167 10162 10161 10158 ] final  -84.92 input  -65.29 | X-H torsion
[ 10718 10713 10712 10709 ] final   64.00 input   66.30 | X-H torsion
[ 10763 10752 10751 10750 ] final  177.44 input  -60.55 | X-H torsion
[ 11005 11000 10999 10996 ] final  -22.34 input  -57.11 | X-H torsion

> <Gold.Protein.ActiveResidues>
 VAL166  LYS551  ARG553  GLY616  TRP617  ASP618  TYR619  PRO620  LYS621  CYS622 
 ASP623  PHE694  ASN695  SER759  ASP760  ASP761  ALA762  ILE779  LEU786  VAL792 
 PHE793  MET794  SER795  GLU796  ALA797  LYS798  CYS799  TRP800  GLU811  SER814 

> <Gold.Protein.RotatedAtoms>
  150.9501  133.6559  159.2773 H   0  0  0  0  0  0  0  0  0  0  0  0  # atno 6907 bound_to 6896
  151.3918  135.0956  159.9538 H   0  0  0  0  0  0  0  0  0  0  0  0  # atno 6908 bound_to 6896
  152.5106  133.9013  159.7497 H   0  0  0  0  0  0  0  0  0  0  0  0  # atno 6909 bound_to 6896
  146.2339  139.9252  142.8504 H   0  0  0  0  0  0  0  0  0  0  0  0  # atno 7974 bound_to 7965
  155.2199  140.3330  155.4317 H   0  0  0  0  0  0  0  0  0  0  0  0  # atno 8008 bound_to 7997
  156.2337  140.1862  156.7223 H   0  0  0  0  0  0  0  0  0  0  0  0  # atno 8009 bound_to 7997
  154.6022  140.0621  156.9369 H   0  0  0  0  0  0  0  0  0  0  0  0  # atno 8010 bound_to 7997
  140.4086  143.2632  151.9047 H   0  0  0  0  0  0  0  0  0  0  0  0  # atno 10167 bound_to 10162
  157.6009  130.9136  149.9788 H   0  0  0  0  0  0  0  0  0  0  0  0  # atno 10718 bound_to 10713
  154.4944  135.2780  155.1470 H   0  0  0  0  0  0  0  0  0  0  0  0  # atno 10763 bound_to 10752
  154.3129  135.6225  153.5477 H   0  0  0  0  0  0  0  0  0  0  0  0  # atno 10764 bound_to 10752
  152.9893  135.5724  154.5373 H   0  0  0  0  0  0  0  0  0  0  0  0  # atno 10765 bound_to 10752
  140.8648  133.7762  156.0116 H   0  0  0  0  0  0  0  0  0  0  0  0  # atno 11005 bound_to 11000
  145.2098  140.9891  143.4107 LP  0  0  0  0  0  0  0  0  0  0  0  0  # atno 17320 bound_to 7965
  144.9701  139.3889  143.6313 LP  0  0  0  0  0  0  0  0  0  0  0  0  # atno 17321 bound_to 7965
  139.4783  144.5560  151.8313 LP  0  0  0  0  0  0  0  0  0  0  0  0  # atno 17342 bound_to 10162
  140.4662  144.1652  150.5912 LP  0  0  0  0  0  0  0  0  0  0  0  0  # atno 17343 bound_to 10162
  156.1083  130.3651  150.0095 LP  0  0  0  0  0  0  0  0  0  0  0  0  # atno 17370 bound_to 10713
  156.8198  130.9354  151.3641 LP  0  0  0  0  0  0  0  0  0  0  0  0  # atno 17371 bound_to 10713
  140.8642  134.2805  157.5221 LP  0  0  0  0  0  0  0  0  0  0  0  0  # atno 17394 bound_to 11000
  139.8708  134.9534  156.4143 LP  0  0  0  0  0  0  0  0  0  0  0  0  # atno 17395 bound_to 11000

$$$$
