AV-unprocessed.smi:1240|AV-procd|sdf|5209|dock5
  -GOLD-   22720 4303D 1   1.00000     0.00000
 Structure written by MMmdl.
 49 51  0  0  0  0  0  0  0  0  3 V2000
  145.6222  138.2966  153.4640 O   0  0  0  0  0  0  0  0  0  0  0  0
  146.5218  138.2689  152.6250 C   0  0  0  0  0  0  0  0  0  0  0  0
  146.5841  137.3577  151.6449 N   0  0  0  0  0  0  0  0  0  0  0  0
  145.6233  136.2714  151.4753 C   0  0  0  0  0  0  0  0  0  0  0  0
  146.3226  134.9211  151.1733 C   0  0  2  0  0  0  0  0  0  0  0  0
  145.2862  133.8148  150.7847 C   0  0  1  0  0  0  0  0  0  0  0  0
  145.8896  132.6165  150.0595 C   0  0  0  0  0  0  0  0  0  0  0  0
  144.8627  131.5242  150.3065 C   0  0  0  0  0  0  0  0  0  0  0  0
  144.5161  131.7206  151.6647 O   0  0  0  0  0  0  0  0  0  0  0  0
  144.5916  133.1092  151.9696 C   0  0  0  0  0  0  0  0  0  0  0  0
  147.2255  134.5949  152.3296 N   0  3  0  0  0  0  0  0  0  0  0  0
  146.6606  134.6668  153.7028 C   0  0  0  0  0  0  0  0  0  0  0  0
  147.7583  134.4202  154.7523 C   0  0  0  0  0  0  0  0  0  0  0  0
  148.3708  133.1592  154.5215 O   0  0  0  0  0  0  0  0  0  0  0  0
  148.9921  133.1005  153.2451 C   0  0  0  0  0  0  0  0  0  0  0  0
  147.9321  133.2995  152.1496 C   0  0  0  0  0  0  0  0  0  0  0  0
  147.5439  139.1393  152.5537 N   0  0  0  0  0  0  0  0  0  0  0  0
  147.8372  140.2238  153.4247 C   0  0  0  0  0  0  0  0  0  0  0  0
  149.1883  140.4352  153.7786 C   0  0  0  0  0  0  0  0  0  0  0  0
  149.5213  141.4901  154.6528 C   0  0  0  0  0  0  0  0  0  0  0  0
  148.5482  142.2812  155.1534 N   0  3  0  0  0  0  0  0  0  0  0  0
  147.2422  142.1081  154.8574 C   0  0  0  0  0  0  0  0  0  0  0  0
  146.8485  141.0702  153.9882 C   0  0  0  0  0  0  0  0  0  0  0  0
  147.3575  137.3978  150.9974 H   0  0  0  0  0  0  0  0  0  0  0  0
  145.0014  136.1980  152.3680 H   0  0  0  0  0  0  0  0  0  0  0  0
  144.9355  136.5356  150.6719 H   0  0  0  0  0  0  0  0  0  0  0  0
  146.9510  135.0751  150.2943 H   0  0  0  0  0  0  0  0  0  0  0  0
  144.5259  134.2297  150.1212 H   0  0  0  0  0  0  0  0  0  0  0  0
  146.0554  132.7952  148.9965 H   0  0  0  0  0  0  0  0  0  0  0  0
  146.8406  132.3304  150.5115 H   0  0  0  0  0  0  0  0  0  0  0  0
  143.9817  131.6676  149.6790 H   0  0  0  0  0  0  0  0  0  0  0  0
  145.2559  130.5227  150.1308 H   0  0  0  0  0  0  0  0  0  0  0  0
  145.1478  133.2275  152.9000 H   0  0  0  0  0  0  0  0  0  0  0  0
  143.5846  133.4941  152.1295 H   0  0  0  0  0  0  0  0  0  0  0  0
  146.2284  135.6475  153.8959 H   0  0  0  0  0  0  0  0  0  0  0  0
  145.8749  133.9202  153.8213 H   0  0  0  0  0  0  0  0  0  0  0  0
  148.5081  135.2127  154.7268 H   0  0  0  0  0  0  0  0  0  0  0  0
  147.3271  134.4231  155.7534 H   0  0  0  0  0  0  0  0  0  0  0  0
  149.7778  133.8546  153.1713 H   0  0  0  0  0  0  0  0  0  0  0  0
  149.4716  132.1281  153.1313 H   0  0  0  0  0  0  0  0  0  0  0  0
  147.2088  132.4830  152.1816 H   0  0  0  0  0  0  0  0  0  0  0  0
  148.4149  133.2535  151.1741 H   0  0  0  0  0  0  0  0  0  0  0  0
  148.1535  139.0479  151.7543 H   0  0  0  0  0  0  0  0  0  0  0  0
  149.9675  139.8015  153.3803 H   0  0  0  0  0  0  0  0  0  0  0  0
  150.5291  141.7218  154.9655 H   0  0  0  0  0  0  0  0  0  0  0  0
  146.5544  142.7967  155.3261 H   0  0  0  0  0  0  0  0  0  0  0  0
  145.7976  140.9366  153.7813 H   0  0  0  0  0  0  0  0  0  0  0  0
  147.9402  135.3080  152.3090 H   0  0  0  0  0  0  0  0  0  0  0  0
  148.8101  143.0383  155.7855 H   0  0  0  0  0  0  0  0  0  0  0  0
  1  2  2  0  0  0  0
  2  3  1  0  0  0  0
  2 17  1  0  0  0  0
  3  4  1  0  0  0  0
  3 24  1  0  0  0  0
  4  5  1  0  0  0  0
  4 25  1  0  0  0  0
  4 26  1  0  0  0  0
  5  6  1  0  0  0  0
  5 11  1  0  0  0  0
  5 27  1  0  0  0  0
  6 10  1  0  0  0  0
  6  7  1  0  0  0  0
  6 28  1  0  0  0  0
  7  8  1  0  0  0  0
  7 29  1  0  0  0  0
  7 30  1  0  0  0  0
  8  9  1  0  0  0  0
  8 31  1  0  0  0  0
  8 32  1  0  0  0  0
  9 10  1  0  0  0  0
 10 33  1  0  0  0  0
 10 34  1  0  0  0  0
 11 16  1  0  0  0  0
 11 12  1  0  0  0  0
 11 48  1  0  0  0  0
 12 13  1  0  0  0  0
 12 35  1  0  0  0  0
 12 36  1  0  0  0  0
 13 14  1  0  0  0  0
 13 37  1  0  0  0  0
 13 38  1  0  0  0  0
 14 15  1  0  0  0  0
 15 16  1  0  0  0  0
 15 39  1  0  0  0  0
 15 40  1  0  0  0  0
 16 41  1  0  0  0  0
 16 42  1  0  0  0  0
 17 18  1  0  0  0  0
 17 43  1  0  0  0  0
 18 23  1  0  0  0  0
 18 19  2  0  0  0  0
 19 20  1  0  0  0  0
 19 44  1  0  0  0  0
 20 21  2  0  0  0  0
 20 45  1  0  0  0  0
 21 22  1  0  0  0  0
 21 49  1  0  0  0  0
 22 23  2  0  0  0  0
 22 46  1  0  0  0  0
 23 47  1  0  0  0  0
M  CHG  1  11   1
M  CHG  1  21   1
M  END
> <s_m_source_file>
AV-unprocessed.smi

> <i_m_source_file_index>
1240

> <i_lp_mmshare_version>
43012

> <i_f3d_flags>
0

> <s_epik_input>
W2NIXTFbY0hdbltjSF1bY0hdYzFbTkhdQyg9TylbTkhdW0NIMl1bQ0BIXShbQ0BASF0yW0NIMl1bQ0gyXU9bQ0gyXTIpTjNbQ0gyXVtDSDJdT1tDSDJdW0NIMl0z

> <s_epik_cmdline>
J2VwaWtfcHl0aG9uJywgJy1waCcsICc3LjAnLCAnLXRuJywgJzgnLCAnLW1hJywgJzIwMCcsICctbWV0YWxfYmluZGluZycsICctaW1hZScsICc8aW5maWxlLm1hZT4nLCAnLW9tYWUnLCAnPG91dGZpbGUubWFlPic=

> <r_epik_Ionization_Penalty>
2.08105

> <r_epik_Ionization_Penalty_Charging>
2.08103

> <r_epik_Ionization_Penalty_Neutral>
2.04144e-05

> <r_epik_State_Penalty>
2.15598

> <r_epik_Charging_Adjusted_Penalty>
4.23701

> <i_epik_Tot_Q>
2

> <i_epik_Tot_abs_Q>
2

> <r_epik_Metal_State_Penalty>
2.25158

> <b_epik_Metal_Only>
0

> <s_lp_Force_Field>
OPLS_2005

> <r_lp_Energy>
62.0114

> <b_lp_Chiralities_Consistent>
1

> <s_lp_Variant>
AV-unprocessed.smi:1240-15

> <Gold.Version>
5.8.1

> <Gold.Id.Protein>
6NUR|6NUR_protein|mol2

> <Gold.PLP.Fitness>
47.6814

> <Gold.PLP.PLP>
-35.7889

> <Gold.PLP.part.hbond>
-3.8375

> <Gold.PLP.part.metal>
0.0000

> <Gold.PLP.part.buried>
-0.1904

> <Gold.PLP.part.nonpolar>
-33.9167

> <Gold.PLP.part.repulsive>
1.9777

> <Gold.PLP.ligand.clash>
0.0000

> <Gold.PLP.ligand.torsion>
0.8535

> <Gold.PLP.Chemscore.Hbond>
4.4800

> <Gold.PLP.Chemscore.CHOScore>
0.0000

> <Gold.PLP.Chemscore.Metal>
0.0000

> <Gold.Chemscore.Hbonds>
donor molecule, donor type, donor heavy atom, donor atom, acceptor molecule, acceptor atom, score
      L1  H     3    24       P1  7948  0.14
      L1  H    11    48       P1  7948  1.40
      L1  H    17    43       P1  7957  0.69
      L1  H    21    49       P1  8028  1.38

> <Gold.PLP.Chemscore.Internal.Correction>
0.1594

> <Gold.Rescore>
     Score         DG    S(hbond)    S(metal)    S(lipo)     H(rot)  DE(clash)    DE(int)     intcor
     16.76     -20.16       2.44        0.00      93.92       1.74       1.13       2.27       ----

> <Gold.Chemscore.Fitness>
16.7612

> <Gold.Chemscore.DG>
-20.1613

> <Gold.Chemscore.ZeroCoef>
-5.4800

> <Gold.Chemscore.Hbond>
2.4409

> <Gold.Chemscore.Metal>
0.0000

> <Gold.Chemscore.Lipo>
93.9177

> <Gold.Chemscore.Internal_Hbond>
0.0000

> <Gold.Chemscore.DEClash>
1.1255

> <Gold.Chemscore.DEInternal>
2.2747

> <Gold.Chemscore.Rot>
1.7421

> <Gold.Chemscore.Internal.Correction>
   9.000000E+99

> <Gold.Chemscore.Hbonds>
donor molecule, donor type, donor heavy atom, donor atom, acceptor molecule, acceptor atom, score
      L1  H     3    24       P1  7948  0.14
      L1  H    11    48       P1  7948  0.67
      L1  H    17    43       P1  7957  0.64
      L1  H    21    49       P1  8028  0.68

> <Gold.Chemscore.Hbond.Weighted>
-8.1526

> <Gold.Chemscore.Metal.Weighted>
-0.0000

> <Gold.Chemscore.Lipo.Weighted>
-10.9884

> <Gold.Chemscore.Internal_Hbond.Weighted>
0.0000

> <Gold.Chemscore.DEClash.Weighted>
1.1255

> <Gold.Chemscore.DEInternal.Weighted>
2.2747

> <Gold.Chemscore.Rot.Weighted>
4.4597

> <Gold.Chemscore.Internal.Correction.Weighted>
   9.000000E+99

> <Gold.Protein.RotatedTorsions>
[ 6907 6896 6895 6894 ] final   34.38 input  -60.11 | X-H torsion
[ 7974 7965 7964 7962 ] final  118.03 input  175.53 | X-H torsion
[ 8008 7997 7996 7995 ] final -156.81 input   59.86 | X-H torsion
[ 10167 10162 10161 10158 ] final -144.39 input  -65.29 | X-H torsion
[ 10718 10713 10712 10709 ] final  106.59 input   66.30 | X-H torsion
[ 10763 10752 10751 10750 ] final   90.25 input  -60.55 | X-H torsion
[ 11005 11000 10999 10996 ] final   69.23 input  -57.11 | X-H torsion

> <Gold.Protein.ActiveResidues>
 VAL166  LYS551  ARG553  GLY616  TRP617  ASP618  TYR619  PRO620  LYS621  CYS622 
 ASP623  PHE694  ASN695  SER759  ASP760  ASP761  ALA762  ILE779  LEU786  VAL792 
 PHE793  MET794  SER795  GLU796  ALA797  LYS798  CYS799  TRP800  GLU811  SER814 

> <Gold.Protein.RotatedAtoms>
  152.1016  134.9337  160.0569 H   0  0  0  0  0  0  0  0  0  0  0  0  # atno 6907 bound_to 6896
  152.0549  133.4031  159.4401 H   0  0  0  0  0  0  0  0  0  0  0  0  # atno 6908 bound_to 6896
  150.6839  134.3186  159.4820 H   0  0  0  0  0  0  0  0  0  0  0  0  # atno 6909 bound_to 6896
  145.1602  139.3159  143.4521 H   0  0  0  0  0  0  0  0  0  0  0  0  # atno 7974 bound_to 7965
  155.7229  140.0792  157.2323 H   0  0  0  0  0  0  0  0  0  0  0  0  # atno 8008 bound_to 7997
  154.4043  140.1609  156.2476 H   0  0  0  0  0  0  0  0  0  0  0  0  # atno 8009 bound_to 7997
  155.9180  140.3399  155.6153 H   0  0  0  0  0  0  0  0  0  0  0  0  # atno 8010 bound_to 7997
  139.7903  143.7975  152.2649 H   0  0  0  0  0  0  0  0  0  0  0  0  # atno 10167 bound_to 10162
  157.6662  131.0854  150.6029 H   0  0  0  0  0  0  0  0  0  0  0  0  # atno 10718 bound_to 10713
  153.1956  135.4440  155.0204 H   0  0  0  0  0  0  0  0  0  0  0  0  # atno 10763 bound_to 10752
  154.8117  135.3297  154.7290 H   0  0  0  0  0  0  0  0  0  0  0  0  # atno 10764 bound_to 10752
  153.7740  135.6982  153.4956 H   0  0  0  0  0  0  0  0  0  0  0  0  # atno 10765 bound_to 10752
  139.9665  134.6972  156.0534 H   0  0  0  0  0  0  0  0  0  0  0  0  # atno 11005 bound_to 11000
  146.3483  140.1709  142.8589 LP  0  0  0  0  0  0  0  0  0  0  0  0  # atno 17320 bound_to 7965
  145.0339  140.8892  143.5093 LP  0  0  0  0  0  0  0  0  0  0  0  0  # atno 17321 bound_to 7965
  139.8064  144.7353  150.9755 LP  0  0  0  0  0  0  0  0  0  0  0  0  # atno 17342 bound_to 10162
  140.7820  143.4293  151.0719 LP  0  0  0  0  0  0  0  0  0  0  0  0  # atno 17343 bound_to 10162
  156.6330  130.4437  149.5780 LP  0  0  0  0  0  0  0  0  0  0  0  0  # atno 17370 bound_to 10713
  156.2267  130.6770  151.1423 LP  0  0  0  0  0  0  0  0  0  0  0  0  # atno 17371 bound_to 10713
  141.1345  133.6578  156.3555 LP  0  0  0  0  0  0  0  0  0  0  0  0  # atno 17394 bound_to 11000
  140.5385  134.6144  157.5372 LP  0  0  0  0  0  0  0  0  0  0  0  0  # atno 17395 bound_to 11000

$$$$
