AV-unprocessed.smi:590|AV-procd|sdf|3008|dock9
  -GOLD-   2262023513D 1   1.00000     0.00000
 Structure written by MMmdl.
 41 42  0  0  0  0  0  0  0  0  1 V2000
  148.4220  135.9080  155.2322 C   0  0  0  0  0  0  0  0  0  0  0  0
  149.7503  136.5740  155.0147 C   0  0  0  0  0  0  0  0  0  0  0  0
  150.8628  135.9373  155.3409 N   0  0  0  0  0  0  0  0  0  0  0  0
  151.9090  136.8118  155.0312 O   0  0  0  0  0  0  0  0  0  0  0  0
  151.3783  137.9551  154.5273 C   0  0  0  0  0  0  0  0  0  0  0  0
  152.3393  139.0272  154.1392 C   0  0  0  0  0  0  0  0  0  0  0  0
  150.0140  137.8700  154.4860 C   0  0  0  0  0  0  0  0  0  0  0  0
  149.0225  138.8975  154.0055 C   0  0  0  0  0  0  0  0  0  0  0  0
  149.3691  140.2629  154.5990 C   0  0  0  0  0  0  0  0  0  0  0  0
  149.5014  141.2377  153.8591 O   0  0  0  0  0  0  0  0  0  0  0  0
  149.5154  140.3164  155.9325 N   0  0  0  0  0  0  0  0  0  0  0  0
  149.8485  141.5104  156.7048 C   0  0  0  0  0  0  0  0  0  0  0  0
  150.9146  141.2311  157.7829 C   0  0  0  0  0  0  0  0  0  0  0  0
  151.4012  142.4736  158.5144 C   0  0  0  0  0  0  0  0  0  0  0  0
  150.9456  143.7041  158.2074 C   0  0  0  0  0  0  0  0  0  0  0  0
  151.3756  144.9757  158.9171 C   0  0  0  0  0  0  0  0  0  0  0  0
  152.1018  144.6903  160.2420 C   0  0  0  0  0  0  0  0  0  0  0  0
  153.1054  143.5415  160.0863 C   0  0  0  0  0  0  0  0  0  0  0  0
  152.4089  142.2452  159.6359 C   0  0  0  0  0  0  0  0  0  0  0  0
  147.7845  136.0122  154.3542 H   0  0  0  0  0  0  0  0  0  0  0  0
  147.8981  136.3547  156.0773 H   0  0  0  0  0  0  0  0  0  0  0  0
  148.5321  134.8423  155.4352 H   0  0  0  0  0  0  0  0  0  0  0  0
  151.9466  140.0106  154.3982 H   0  0  0  0  0  0  0  0  0  0  0  0
  152.5239  139.0084  153.0654 H   0  0  0  0  0  0  0  0  0  0  0  0
  153.2942  138.9023  154.6500 H   0  0  0  0  0  0  0  0  0  0  0  0
  149.0320  138.9823  152.9183 H   0  0  0  0  0  0  0  0  0  0  0  0
  148.0027  138.6206  154.2760 H   0  0  0  0  0  0  0  0  0  0  0  0
  149.3868  139.4614  156.4543 H   0  0  0  0  0  0  0  0  0  0  0  0
  150.2345  142.2540  156.0074 H   0  0  0  0  0  0  0  0  0  0  0  0
  148.9545  141.9543  157.1444 H   0  0  0  0  0  0  0  0  0  0  0  0
  150.5109  140.5223  158.5073 H   0  0  0  0  0  0  0  0  0  0  0  0
  151.7762  140.7399  157.3297 H   0  0  0  0  0  0  0  0  0  0  0  0
  150.2399  143.8288  157.3992 H   0  0  0  0  0  0  0  0  0  0  0  0
  152.0274  145.5321  158.2427 H   0  0  0  0  0  0  0  0  0  0  0  0
  150.5005  145.5997  159.1003 H   0  0  0  0  0  0  0  0  0  0  0  0
  152.6058  145.5912  160.5930 H   0  0  0  0  0  0  0  0  0  0  0  0
  151.3718  144.4257  161.0082 H   0  0  0  0  0  0  0  0  0  0  0  0
  153.8595  143.8228  159.3495 H   0  0  0  0  0  0  0  0  0  0  0  0
  153.6376  143.3720  161.0227 H   0  0  0  0  0  0  0  0  0  0  0  0
  151.8792  141.7957  160.4761 H   0  0  0  0  0  0  0  0  0  0  0  0
  153.1653  141.5262  159.3229 H   0  0  0  0  0  0  0  0  0  0  0  0
  1  2  1  0  0  0  0
  1 20  1  0  0  0  0
  1 21  1  0  0  0  0
  1 22  1  0  0  0  0
  2  7  1  0  0  0  0
  2  3  2  0  0  0  0
  3  4  1  0  0  0  0
  4  5  1  0  0  0  0
  5  6  1  0  0  0  0
  5  7  2  0  0  0  0
  6 23  1  0  0  0  0
  6 24  1  0  0  0  0
  6 25  1  0  0  0  0
  7  8  1  0  0  0  0
  8  9  1  0  0  0  0
  8 26  1  0  0  0  0
  8 27  1  0  0  0  0
  9 10  2  0  0  0  0
  9 11  1  0  0  0  0
 11 12  1  0  0  0  0
 11 28  1  0  0  0  0
 12 13  1  0  0  0  0
 12 29  1  0  0  0  0
 12 30  1  0  0  0  0
 13 14  1  0  0  0  0
 13 31  1  0  0  0  0
 13 32  1  0  0  0  0
 14 19  1  0  0  0  0
 14 15  2  0  0  0  0
 15 16  1  0  0  0  0
 15 33  1  0  0  0  0
 16 17  1  0  0  0  0
 16 34  1  0  0  0  0
 16 35  1  0  0  0  0
 17 18  1  0  0  0  0
 17 36  1  0  0  0  0
 17 37  1  0  0  0  0
 18 19  1  0  0  0  0
 18 38  1  0  0  0  0
 18 39  1  0  0  0  0
 19 40  1  0  0  0  0
 19 41  1  0  0  0  0
M  END
> <s_m_source_file>
AV-unprocessed.smi

> <i_m_source_file_index>
590

> <i_lp_mmshare_version>
43012

> <i_f3d_flags>
0

> <s_epik_input>
W0NIM11jMW5vYyhbQ0gzXSljMVtDSDJdQyg9TylbTkhdW0NIMl1bQ0gyXUMyPVtDSF1bQ0gyXVtDSDJdW0NIMl1bQ0gyXTI=

> <s_epik_cmdline>
J2VwaWtfcHl0aG9uJywgJy1waCcsICc3LjAnLCAnLXRuJywgJzgnLCAnLW1hJywgJzIwMCcsICctbWV0YWxfYmluZGluZycsICctaW1hZScsICc8aW5maWxlLm1hZT4nLCAnLW9tYWUnLCAnPG91dGZpbGUubWFlPic=

> <r_lp_tautomer_probability>
1

> <r_epik_Ionization_Penalty>
1.93189e-08

> <r_epik_Ionization_Penalty_Charging>
0

> <r_epik_Ionization_Penalty_Neutral>
1.93189e-08

> <r_epik_State_Penalty>
-0

> <r_epik_Charging_Adjusted_Penalty>
0

> <i_epik_Tot_Q>
0

> <i_epik_Tot_abs_Q>
0

> <r_epik_Metal_State_Penalty>
-0

> <b_epik_Metal_Only>
0

> <s_lp_Force_Field>
OPLS_2005

> <r_lp_Energy>
2.22272

> <b_lp_Chiralities_Consistent>
1

> <s_lp_Variant>
AV-unprocessed.smi:590-1

> <Gold.Version>
5.8.1

> <Gold.Id.Protein>
6NUR|6NUR_protein|mol2

> <Gold.PLP.Fitness>
43.6634

> <Gold.PLP.PLP>
-37.5359

> <Gold.PLP.part.hbond>
-3.0000

> <Gold.PLP.part.metal>
0.0000

> <Gold.PLP.part.buried>
-4.7224

> <Gold.PLP.part.nonpolar>
-30.0993

> <Gold.PLP.part.repulsive>
1.9715

> <Gold.PLP.ligand.clash>
0.0000

> <Gold.PLP.ligand.torsion>
0.3219

> <Gold.PLP.Chemscore.Hbond>
2.2480

> <Gold.PLP.Chemscore.CHOScore>
0.0000

> <Gold.PLP.Chemscore.Metal>
0.0000

> <Gold.Chemscore.Hbonds>
donor molecule, donor type, donor heavy atom, donor atom, acceptor molecule, acceptor atom, score
      P1  H  7989  7998       L1    10  0.16
      P1  H  8011  8017       L1    10  0.85
      P1  H 10752 10764       L1     4  0.65

> <Gold.PLP.Chemscore.Internal.Correction>
0.0274

> <Gold.Rescore>
     Score         DG    S(hbond)    S(metal)    S(lipo)     H(rot)  DE(clash)    DE(int)     intcor
     19.52     -21.29       1.98        0.00     112.62       1.55       1.52       0.25       ----

> <Gold.Chemscore.Fitness>
19.5171

> <Gold.Chemscore.DG>
-21.2875

> <Gold.Chemscore.ZeroCoef>
-5.4800

> <Gold.Chemscore.Hbond>
1.9752

> <Gold.Chemscore.Metal>
0.0000

> <Gold.Chemscore.Lipo>
112.6214

> <Gold.Chemscore.Internal_Hbond>
0.0000

> <Gold.Chemscore.DEClash>
1.5227

> <Gold.Chemscore.DEInternal>
0.2477

> <Gold.Chemscore.Rot>
1.5493

> <Gold.Chemscore.Internal.Correction>
   9.000000E+99

> <Gold.Chemscore.Hbonds>
donor molecule, donor type, donor heavy atom, donor atom, acceptor molecule, acceptor atom, score
      P1  H  7989  7998       L1    10  0.02
      P1  H  8011  8017       L1    10  0.82
      P1  H 10752 10764       L1     4  0.05

> <Gold.Chemscore.Hbond.Weighted>
-6.5970

> <Gold.Chemscore.Metal.Weighted>
-0.0000

> <Gold.Chemscore.Lipo.Weighted>
-13.1767

> <Gold.Chemscore.Internal_Hbond.Weighted>
0.0000

> <Gold.Chemscore.DEClash.Weighted>
1.5227

> <Gold.Chemscore.DEInternal.Weighted>
0.2477

> <Gold.Chemscore.Rot.Weighted>
3.9663

> <Gold.Chemscore.Internal.Correction.Weighted>
   9.000000E+99

> <Gold.Protein.RotatedTorsions>
[ 6907 6896 6895 6894 ] final   85.71 input  -60.11 | X-H torsion
[ 7974 7965 7964 7962 ] final   54.77 input  175.53 | X-H torsion
[ 8008 7997 7996 7995 ] final  -79.94 input   59.86 | X-H torsion
[ 10167 10162 10161 10158 ] final -116.41 input  -65.29 | X-H torsion
[ 10718 10713 10712 10709 ] final  -27.84 input   66.30 | X-H torsion
[ 10763 10752 10751 10750 ] final  -51.33 input  -60.55 | X-H torsion
[ 11005 11000 10999 10996 ] final  -72.05 input  -57.11 | X-H torsion

> <Gold.Protein.ActiveResidues>
 VAL166  LYS551  ARG553  GLY616  TRP617  ASP618  TYR619  PRO620  LYS621  CYS622 
 ASP623  PHE694  ASN695  SER759  ASP760  ASP761  ALA762  ILE779  LEU786  VAL792 
 PHE793  MET794  SER795  GLU796  ALA797  LYS798  CYS799  TRP800  GLU811  SER814 

> <Gold.Protein.RotatedAtoms>
  152.5380  134.2544  159.8910 H   0  0  0  0  0  0  0  0  0  0  0  0  # atno 6907 bound_to 6896
  151.2506  133.4345  159.2619 H   0  0  0  0  0  0  0  0  0  0  0  0  # atno 6908 bound_to 6896
  151.0542  134.9708  159.8283 H   0  0  0  0  0  0  0  0  0  0  0  0  # atno 6909 bound_to 6896
  145.9574  139.4027  143.0269 H   0  0  0  0  0  0  0  0  0  0  0  0  # atno 7974 bound_to 7965
  154.5834  140.0670  156.9136 H   0  0  0  0  0  0  0  0  0  0  0  0  # atno 8008 bound_to 7997
  155.2423  140.3345  155.4273 H   0  0  0  0  0  0  0  0  0  0  0  0  # atno 8009 bound_to 7997
  156.2205  140.1797  156.7472 H   0  0  0  0  0  0  0  0  0  0  0  0  # atno 8010 bound_to 7997
  140.0795  143.4801  152.1934 H   0  0  0  0  0  0  0  0  0  0  0  0  # atno 10167 bound_to 10162
  156.4330  130.4449  149.7104 H   0  0  0  0  0  0  0  0  0  0  0  0  # atno 10718 bound_to 10713
  154.1249  135.6529  153.4910 H   0  0  0  0  0  0  0  0  0  0  0  0  # atno 10763 bound_to 10752
  153.0213  135.5279  154.7060 H   0  0  0  0  0  0  0  0  0  0  0  0  # atno 10764 bound_to 10752
  154.6278  135.2972  155.0222 H   0  0  0  0  0  0  0  0  0  0  0  0  # atno 10765 bound_to 10752
  141.1602  133.6835  156.7000 H   0  0  0  0  0  0  0  0  0  0  0  0  # atno 11005 bound_to 11000
  145.8087  140.9736  143.0960 LP  0  0  0  0  0  0  0  0  0  0  0  0  # atno 17320 bound_to 7965
  144.6808  139.9894  143.7484 LP  0  0  0  0  0  0  0  0  0  0  0  0  # atno 17321 bound_to 7965
  139.5788  144.7500  151.3694 LP  0  0  0  0  0  0  0  0  0  0  0  0  # atno 17342 bound_to 10162
  140.7085  143.7452  150.7524 LP  0  0  0  0  0  0  0  0  0  0  0  0  # atno 17343 bound_to 10162
  156.3999  130.7670  151.2677 LP  0  0  0  0  0  0  0  0  0  0  0  0  # atno 17370 bound_to 10713
  157.7508  131.0243  150.3869 LP  0  0  0  0  0  0  0  0  0  0  0  0  # atno 17371 bound_to 10713
  140.2966  134.8198  157.4062 LP  0  0  0  0  0  0  0  0  0  0  0  0  # atno 17394 bound_to 11000
  140.1299  134.5108  155.8114 LP  0  0  0  0  0  0  0  0  0  0  0  0  # atno 17395 bound_to 11000

$$$$
