AV-unprocessed.smi:2793|AV-procd|sdf|10775|dock1
  -GOLD-   2272015213D 1   1.00000     0.00000
 Structure written by MMmdl.
 28 29  0  0  0  0  0  0  0  0  1 V2000
  152.9537  140.3050  157.9753 O   0  0  0  0  0  0  0  0  0  0  0  0
  151.9660  140.9833  157.6891 C   0  0  0  0  0  0  0  0  0  0  0  0
  151.0980  140.6777  156.7058 N   0  0  0  0  0  0  0  0  0  0  0  0
  151.1365  139.5764  155.8104 C   0  0  0  0  0  0  0  0  0  0  0  0
  151.8820  138.4554  156.2456 C   0  0  0  0  0  0  0  0  0  0  0  0
  152.0136  137.3335  155.5032 N   0  0  0  0  0  0  0  0  0  0  0  0
  151.3903  137.3254  154.3056 C   0  0  0  0  0  0  0  0  0  0  0  0
  150.6413  138.4313  153.8565 C   0  0  0  0  0  0  0  0  0  0  0  0
  150.5152  139.5499  154.6033 N   0  0  0  0  0  0  0  0  0  0  0  0
  151.6411  142.2533  158.4911 C   0  0  1  0  0  0  0  0  0  0  0  0
  152.6746  142.5475  159.6034 C   0  0  0  0  0  0  0  0  0  0  0  0
  152.3448  143.8646  160.3151 C   0  0  0  0  0  0  0  0  0  0  0  0
  152.1891  144.9869  159.2845 C   0  0  0  0  0  0  0  0  0  0  0  0
  151.1791  144.5779  158.2016 C   0  0  0  0  0  0  0  0  0  0  0  0
  151.5900  143.3596  157.5887 O   0  0  0  0  0  0  0  0  0  0  0  0
  150.3222  141.3128  156.5849 H   0  0  0  0  0  0  0  0  0  0  0  0
  152.3836  138.4564  157.2026 H   0  0  0  0  0  0  0  0  0  0  0  0
  151.4894  136.4344  153.7033 H   0  0  0  0  0  0  0  0  0  0  0  0
  150.1439  138.4193  152.8980 H   0  0  0  0  0  0  0  0  0  0  0  0
  150.6549  142.1121  158.9368 H   0  0  0  0  0  0  0  0  0  0  0  0
  152.6948  141.7364  160.3325 H   0  0  0  0  0  0  0  0  0  0  0  0
  153.6763  142.6089  159.1749 H   0  0  0  0  0  0  0  0  0  0  0  0
  151.4192  143.7542  160.8814 H   0  0  0  0  0  0  0  0  0  0  0  0
  153.1251  144.1141  161.0345 H   0  0  0  0  0  0  0  0  0  0  0  0
  151.8677  145.9071  159.7736 H   0  0  0  0  0  0  0  0  0  0  0  0
  153.1541  145.1978  158.8219 H   0  0  0  0  0  0  0  0  0  0  0  0
  150.1791  144.4658  158.6236 H   0  0  0  0  0  0  0  0  0  0  0  0
  151.1158  145.3521  157.4367 H   0  0  0  0  0  0  0  0  0  0  0  0
  1  2  2  0  0  0  0
  2  3  1  0  0  0  0
  2 10  1  0  0  0  0
  3  4  1  0  0  0  0
  3 16  1  0  0  0  0
  4  9  1  0  0  0  0
  4  5  2  0  0  0  0
  5  6  1  0  0  0  0
  5 17  1  0  0  0  0
  6  7  2  0  0  0  0
  7  8  1  0  0  0  0
  7 18  1  0  0  0  0
  8  9  2  0  0  0  0
  8 19  1  0  0  0  0
 10 15  1  0  0  0  0
 10 11  1  0  0  0  0
 10 20  1  0  0  0  0
 11 12  1  0  0  0  0
 11 21  1  0  0  0  0
 11 22  1  0  0  0  0
 12 13  1  0  0  0  0
 12 23  1  0  0  0  0
 12 24  1  0  0  0  0
 13 14  1  0  0  0  0
 13 25  1  0  0  0  0
 13 26  1  0  0  0  0
 14 15  1  0  0  0  0
 14 27  1  0  0  0  0
 14 28  1  0  0  0  0
M  END
> <s_m_source_file>
AV-unprocessed.smi

> <i_m_source_file_index>
2793

> <i_lp_mmshare_version>
43012

> <i_f3d_flags>
0

> <s_epik_input>
TzFbQ0gyXVtDSDJdW0NIMl1bQ0gyXVtDQEhdMUMoPU8pW05IXWMyW2NIXW5bY0hdW2NIXW4y

> <s_epik_cmdline>
J2VwaWtfcHl0aG9uJywgJy1waCcsICc3LjAnLCAnLXRuJywgJzgnLCAnLW1hJywgJzIwMCcsICctbWV0YWxfYmluZGluZycsICctaW1hZScsICc8aW5maWxlLm1hZT4nLCAnLW9tYWUnLCAnPG91dGZpbGUubWFlPic=

> <r_lp_tautomer_probability>
1

> <r_epik_Ionization_Penalty>
2.82919e-06

> <r_epik_Ionization_Penalty_Charging>
0

> <r_epik_Ionization_Penalty_Neutral>
2.82919e-06

> <r_epik_State_Penalty>
-0

> <r_epik_Charging_Adjusted_Penalty>
0

> <i_epik_Tot_Q>
0

> <i_epik_Tot_abs_Q>
0

> <r_epik_Metal_State_Penalty>
-0

> <b_epik_Metal_Only>
0

> <s_lp_Force_Field>
OPLS_2005

> <r_lp_Energy>
18.1635

> <b_lp_Chiralities_Consistent>
1

> <s_lp_Variant>
AV-unprocessed.smi:2793-2

> <Gold.Version>
5.8.1

> <Gold.Id.Protein>
6NUR|6NUR_protein|mol2

> <Gold.PLP.Fitness>
43.6681

> <Gold.PLP.PLP>
-29.5273

> <Gold.PLP.part.hbond>
-2.9223

> <Gold.PLP.part.metal>
0.0000

> <Gold.PLP.part.buried>
-1.6962

> <Gold.PLP.part.nonpolar>
-25.4274

> <Gold.PLP.part.repulsive>
0.3346

> <Gold.PLP.ligand.clash>
0.0060

> <Gold.PLP.ligand.torsion>
0.1141

> <Gold.PLP.Chemscore.Hbond>
2.1639

> <Gold.PLP.Chemscore.CHOScore>
2.6265

> <Gold.PLP.Chemscore.Metal>
0.0000

> <Gold.Chemscore.Hbonds>
donor molecule, donor type, donor heavy atom, donor atom, acceptor molecule, acceptor atom, score
      P1  H  7989  7998       L1     9  0.96
      P1  H  7997  8010       L1     1  0.91
      P1  H 10752 10765       L1     6  0.27
      L1  C     7    18       P1  7949  1.00
      L1  C     8    19       P1  7948  0.63
      L1  C     8    19       P1  7957  1.00

> <Gold.PLP.Chemscore.Internal.Correction>
0.0041

> <Gold.Rescore>
     Score         DG    S(hbond)    S(metal)    S(lipo)     H(rot)  DE(clash)    DE(int)     intcor
     14.48     -16.41       1.18        0.00      81.48       1.00       0.24       1.68       ----

> <Gold.Chemscore.Fitness>
14.4820

> <Gold.Chemscore.DG>
-16.4094

> <Gold.Chemscore.ZeroCoef>
-5.4800

> <Gold.Chemscore.Hbond>
1.1846

> <Gold.Chemscore.Metal>
0.0000

> <Gold.Chemscore.Lipo>
81.4775

> <Gold.Chemscore.Internal_Hbond>
0.0000

> <Gold.Chemscore.DEClash>
0.2439

> <Gold.Chemscore.DEInternal>
1.6835

> <Gold.Chemscore.Rot>
1.0000

> <Gold.Chemscore.Internal.Correction>
   9.000000E+99

> <Gold.Chemscore.Hbonds>
donor molecule, donor type, donor heavy atom, donor atom, acceptor molecule, acceptor atom, score
      P1  H  7989  7998       L1     9  0.09
      P1  H  7997  8010       L1     1  0.89
      P1  H 10752 10765       L1     6  0.02

> <Gold.Chemscore.Hbond.Weighted>
-3.9566

> <Gold.Chemscore.Metal.Weighted>
-0.0000

> <Gold.Chemscore.Lipo.Weighted>
-9.5329

> <Gold.Chemscore.Internal_Hbond.Weighted>
0.0000

> <Gold.Chemscore.DEClash.Weighted>
0.2439

> <Gold.Chemscore.DEInternal.Weighted>
1.6835

> <Gold.Chemscore.Rot.Weighted>
2.5600

> <Gold.Chemscore.Internal.Correction.Weighted>
   9.000000E+99

> <Gold.Protein.RotatedTorsions>
[ 6907 6896 6895 6894 ] final -153.06 input  -60.11 | X-H torsion
[ 7974 7965 7964 7962 ] final  155.66 input  175.53 | X-H torsion
[ 8008 7997 7996 7995 ] final   41.62 input   59.86 | X-H torsion
[ 10167 10162 10161 10158 ] final   58.30 input  -65.29 | X-H torsion
[ 10718 10713 10712 10709 ] final  -36.65 input   66.30 | X-H torsion
[ 10763 10752 10751 10750 ] final -154.55 input  -60.55 | X-H torsion
[ 11005 11000 10999 10996 ] final   48.57 input  -57.11 | X-H torsion

> <Gold.Protein.ActiveResidues>
 VAL166  LYS551  ARG553  GLY616  TRP617  ASP618  TYR619  PRO620  LYS621  CYS622 
 ASP623  PHE694  ASN695  SER759  ASP760  ASP761  ALA762  ILE779  LEU786  VAL792 
 PHE793  MET794  SER795  GLU796  ALA797  LYS798  CYS799  TRP800  GLU811  SER814 

> <Gold.Protein.RotatedAtoms>
  151.2370  133.4420  159.2605 H   0  0  0  0  0  0  0  0  0  0  0  0  # atno 6907 bound_to 6896
  151.0741  134.9817  159.8333 H   0  0  0  0  0  0  0  0  0  0  0  0  # atno 6908 bound_to 6896
  152.5416  134.2313  159.8879 H   0  0  0  0  0  0  0  0  0  0  0  0  # atno 6909 bound_to 6896
  144.8011  139.7098  143.6181 H   0  0  0  0  0  0  0  0  0  0  0  0  # atno 7974 bound_to 7965
  155.2727  140.3367  155.4264 H   0  0  0  0  0  0  0  0  0  0  0  0  # atno 8008 bound_to 7997
  156.2125  140.1776  156.7704 H   0  0  0  0  0  0  0  0  0  0  0  0  # atno 8009 bound_to 7997
  154.5707  140.0670  156.8944 H   0  0  0  0  0  0  0  0  0  0  0  0  # atno 8010 bound_to 7997
  140.1887  144.4108  150.6581 H   0  0  0  0  0  0  0  0  0  0  0  0  # atno 10167 bound_to 10162
  156.3243  130.4270  149.7931 H   0  0  0  0  0  0  0  0  0  0  0  0  # atno 10718 bound_to 10713
  154.7850  135.3187  154.7905 H   0  0  0  0  0  0  0  0  0  0  0  0  # atno 10763 bound_to 10752
  153.8607  135.6853  153.4787 H   0  0  0  0  0  0  0  0  0  0  0  0  # atno 10764 bound_to 10752
  153.1499  135.4703  154.9560 H   0  0  0  0  0  0  0  0  0  0  0  0  # atno 10765 bound_to 10752
  140.1179  134.4868  155.8622 H   0  0  0  0  0  0  0  0  0  0  0  0  # atno 11005 bound_to 11000
  146.2293  139.5782  142.9566 LP  0  0  0  0  0  0  0  0  0  0  0  0  # atno 17320 bound_to 7965
  145.5550  141.0410  143.2257 LP  0  0  0  0  0  0  0  0  0  0  0  0  # atno 17321 bound_to 7965
  140.6471  143.2216  151.6162 LP  0  0  0  0  0  0  0  0  0  0  0  0  # atno 17342 bound_to 10162
  139.5265  144.3044  152.1046 LP  0  0  0  0  0  0  0  0  0  0  0  0  # atno 17343 bound_to 10162
  156.5227  130.8222  151.3209 LP  0  0  0  0  0  0  0  0  0  0  0  0  # atno 17370 bound_to 10713
  157.7418  130.9877  150.2471 LP  0  0  0  0  0  0  0  0  0  0  0  0  # atno 17371 bound_to 10713
  141.2145  133.6750  156.6832 LP  0  0  0  0  0  0  0  0  0  0  0  0  # atno 17394 bound_to 11000
  140.3004  134.8168  157.4093 LP  0  0  0  0  0  0  0  0  0  0  0  0  # atno 17395 bound_to 11000

$$$$
