AV-unprocessed.smi:828|AV-procd|sdf|3858|dock5
  -GOLD-   22720 1313D 1   1.00000     0.00000
 Structure written by MMmdl.
 35 36  0  0  0  0  0  0  0  0  2 V2000
  151.8344  141.0489  158.1325 C   0  0  0  0  0  0  0  0  0  0  0  0
  151.4491  140.4255  156.8348 C   0  0  0  0  0  0  0  0  0  0  0  0
  152.3346  140.1692  155.8639 N   0  0  0  0  0  0  0  0  0  0  0  0
  151.7416  139.5923  154.7497 N   0  0  0  0  0  0  0  0  0  0  0  0
  150.4213  139.4307  154.9136 C   0  0  0  0  0  0  0  0  0  0  0  0
  149.5675  138.8681  153.9280 N   0  0  0  0  0  0  0  0  0  0  0  0
  148.3311  139.2621  153.5760 C   0  0  0  0  0  0  0  0  0  0  0  0
  147.7257  140.2234  154.0511 O   0  0  0  0  0  0  0  0  0  0  0  0
  147.8173  138.4684  152.6252 N   0  0  0  0  0  0  0  0  0  0  0  0
  146.4941  138.6337  152.0321 C   0  0  0  0  0  0  0  0  0  0  0  0
  145.5341  137.4842  152.4035 C   0  0  2  0  0  0  0  0  0  0  0  0
  145.2817  137.3552  153.9197 C   0  0  0  0  0  0  0  0  0  0  0  0
  146.0158  136.0853  154.3378 C   0  0  0  0  0  0  0  0  0  0  0  0
  145.9544  135.2269  153.0811 C   0  0  0  0  0  0  0  0  0  0  0  0
  146.0957  136.1823  151.9655 N   0  3  1  0  0  0  0  0  0  0  0  0
  145.5673  135.6863  150.6766 C   0  0  0  0  0  0  0  0  0  0  0  0
  149.7900  139.9773  156.4576 S   0  0  0  0  0  0  0  0  0  0  0  0
  152.8664  140.8016  158.3831 H   0  0  0  0  0  0  0  0  0  0  0  0
  151.1868  140.6870  158.9312 H   0  0  0  0  0  0  0  0  0  0  0  0
  151.7392  142.1328  158.0671 H   0  0  0  0  0  0  0  0  0  0  0  0
  149.9410  138.0677  153.4399 H   0  0  0  0  0  0  0  0  0  0  0  0
  148.3800  137.7018  152.2859 H   0  0  0  0  0  0  0  0  0  0  0  0
  146.0771  139.5930  152.3433 H   0  0  0  0  0  0  0  0  0  0  0  0
  146.6115  138.6872  150.9492 H   0  0  0  0  0  0  0  0  0  0  0  0
  144.5725  137.6422  151.9121 H   0  0  0  0  0  0  0  0  0  0  0  0
  145.6067  138.2228  154.4948 H   0  0  0  0  0  0  0  0  0  0  0  0
  144.2130  137.2312  154.0994 H   0  0  0  0  0  0  0  0  0  0  0  0
  147.0539  136.3187  154.5781 H   0  0  0  0  0  0  0  0  0  0  0  0
  145.5681  135.6006  155.2061 H   0  0  0  0  0  0  0  0  0  0  0  0
  146.7296  134.4607  153.0558 H   0  0  0  0  0  0  0  0  0  0  0  0
  144.9841  134.7306  153.0242 H   0  0  0  0  0  0  0  0  0  0  0  0
  144.4940  135.5008  150.7353 H   0  0  0  0  0  0  0  0  0  0  0  0
  146.0614  134.7560  150.3951 H   0  0  0  0  0  0  0  0  0  0  0  0
  145.7457  136.4155  149.8857 H   0  0  0  0  0  0  0  0  0  0  0  0
  147.0878  136.3316  151.8483 H   0  0  0  0  0  0  0  0  0  0  0  0
  1  2  1  0  0  0  0
  1 18  1  0  0  0  0
  1 19  1  0  0  0  0
  1 20  1  0  0  0  0
  2 17  1  0  0  0  0
  2  3  2  0  0  0  0
  3  4  1  0  0  0  0
  4  5  2  0  0  0  0
  5  6  1  0  0  0  0
  5 17  1  0  0  0  0
  6  7  1  0  0  0  0
  6 21  1  0  0  0  0
  7  8  2  0  0  0  0
  7  9  1  0  0  0  0
  9 10  1  0  0  0  0
  9 22  1  0  0  0  0
 10 11  1  0  0  0  0
 10 23  1  0  0  0  0
 10 24  1  0  0  0  0
 11 15  1  0  0  0  0
 11 12  1  0  0  0  0
 11 25  1  0  0  0  0
 12 13  1  0  0  0  0
 12 26  1  0  0  0  0
 12 27  1  0  0  0  0
 13 14  1  0  0  0  0
 13 28  1  0  0  0  0
 13 29  1  0  0  0  0
 14 15  1  0  0  0  0
 14 30  1  0  0  0  0
 14 31  1  0  0  0  0
 15 16  1  0  0  0  0
 15 35  1  0  0  0  0
 16 32  1  0  0  0  0
 16 33  1  0  0  0  0
 16 34  1  0  0  0  0
M  CHG  1  15   1
M  END
> <s_m_source_file>
AV-unprocessed.smi

> <i_m_source_file_index>
828

> <i_lp_mmshare_version>
43012

> <i_f3d_flags>
0

> <s_epik_input>
W0NIM11jMW5uYyhzMSlbTkhdQyg9TylbTkhdW0NIMl1bQ0BASF0yW0NIMl1bQ0gyXVtDSDJdTjJbQ0gzXQ==

> <s_epik_cmdline>
J2VwaWtfcHl0aG9uJywgJy1waCcsICc3LjAnLCAnLXRuJywgJzgnLCAnLW1hJywgJzIwMCcsICctbWV0YWxfYmluZGluZycsICctaW1hZScsICc8aW5maWxlLm1hZT4nLCAnLW9tYWUnLCAnPG91dGZpbGUubWFlPic=

> <r_lp_tautomer_probability>
1

> <r_epik_Ionization_Penalty>
0.00466477

> <r_epik_Ionization_Penalty_Charging>
0.00372199

> <r_epik_Ionization_Penalty_Neutral>
0.000942783

> <r_epik_State_Penalty>
-0

> <r_epik_Charging_Adjusted_Penalty>
0.00372199

> <i_epik_Tot_Q>
1

> <i_epik_Tot_abs_Q>
1

> <r_epik_Metal_State_Penalty>
0.28212

> <b_epik_Metal_Only>
0

> <s_lp_Force_Field>
OPLS_2005

> <r_lp_Energy>
24.623

> <b_lp_Chiralities_Consistent>
1

> <s_lp_Variant>
AV-unprocessed.smi:828-1

> <Gold.Version>
5.8.1

> <Gold.Id.Protein>
6NUR|6NUR_protein|mol2

> <Gold.PLP.Fitness>
38.7948

> <Gold.PLP.PLP>
-24.9366

> <Gold.PLP.part.hbond>
-6.3520

> <Gold.PLP.part.metal>
0.0000

> <Gold.PLP.part.buried>
-0.4234

> <Gold.PLP.part.nonpolar>
-19.0405

> <Gold.PLP.part.repulsive>
0.3714

> <Gold.PLP.ligand.clash>
0.0000

> <Gold.PLP.ligand.torsion>
0.3464

> <Gold.PLP.Chemscore.Hbond>
4.8500

> <Gold.PLP.Chemscore.CHOScore>
0.0000

> <Gold.PLP.Chemscore.Metal>
0.0000

> <Gold.Chemscore.Hbonds>
donor molecule, donor type, donor heavy atom, donor atom, acceptor molecule, acceptor atom, score
      L1  H     9    22       P1  7948  1.00
      L1  H    15    35       P1  7948  2.00
      P1  H  7989  7998       L1     4  0.85
      P1  H  7997  8009       L1     3  0.99

> <Gold.PLP.Chemscore.Internal.Correction>
0.0010

> <Gold.Rescore>
     Score         DG    S(hbond)    S(metal)    S(lipo)     H(rot)  DE(clash)    DE(int)     intcor
     16.65     -17.39       3.07        0.00      43.26       1.33       0.40       0.34       ----

> <Gold.Chemscore.Fitness>
16.6490

> <Gold.Chemscore.DG>
-17.3881

> <Gold.Chemscore.ZeroCoef>
-5.4800

> <Gold.Chemscore.Hbond>
3.0690

> <Gold.Chemscore.Metal>
0.0000

> <Gold.Chemscore.Lipo>
43.2573

> <Gold.Chemscore.Internal_Hbond>
0.0000

> <Gold.Chemscore.DEClash>
0.3967

> <Gold.Chemscore.DEInternal>
0.3424

> <Gold.Chemscore.Rot>
1.3294

> <Gold.Chemscore.Internal.Correction>
   9.000000E+99

> <Gold.Chemscore.Hbonds>
donor molecule, donor type, donor heavy atom, donor atom, acceptor molecule, acceptor atom, score
      L1  H     9    22       P1  7948  0.99
      L1  H    15    35       P1  7948  1.00
      P1  H  7989  7998       L1     4  0.09
      P1  H  7997  8009       L1     3  0.90

> <Gold.Chemscore.Hbond.Weighted>
-10.2503

> <Gold.Chemscore.Metal.Weighted>
-0.0000

> <Gold.Chemscore.Lipo.Weighted>
-5.0611

> <Gold.Chemscore.Internal_Hbond.Weighted>
0.0000

> <Gold.Chemscore.DEClash.Weighted>
0.3967

> <Gold.Chemscore.DEInternal.Weighted>
0.3424

> <Gold.Chemscore.Rot.Weighted>
3.4033

> <Gold.Chemscore.Internal.Correction.Weighted>
   9.000000E+99

> <Gold.Protein.RotatedTorsions>
[ 6907 6896 6895 6894 ] final  128.70 input  -60.11 | X-H torsion
[ 7974 7965 7964 7962 ] final -166.90 input  175.53 | X-H torsion
[ 8008 7997 7996 7995 ] final -154.87 input   59.86 | X-H torsion
[ 10167 10162 10161 10158 ] final  -50.02 input  -65.29 | X-H torsion
[ 10718 10713 10712 10709 ] final  171.13 input   66.30 | X-H torsion
[ 10763 10752 10751 10750 ] final   66.72 input  -60.55 | X-H torsion
[ 11005 11000 10999 10996 ] final   37.42 input  -57.11 | X-H torsion

> <Gold.Protein.ActiveResidues>
 VAL166  LYS551  ARG553  GLY616  TRP617  ASP618  TYR619  PRO620  LYS621  CYS622 
 ASP623  PHE694  ASN695  SER759  ASP760  ASP761  ALA762  ILE779  LEU786  VAL792 
 PHE793  MET794  SER795  GLU796  ALA797  LYS798  CYS799  TRP800  GLU811  SER814 

> <Gold.Protein.RotatedAtoms>
  152.3694  133.6399  159.6075 H   0  0  0  0  0  0  0  0  0  0  0  0  # atno 6907 bound_to 6896
  150.7658  133.9294  159.3431 H   0  0  0  0  0  0  0  0  0  0  0  0  # atno 6908 bound_to 6896
  151.7120  135.0912  160.0320 H   0  0  0  0  0  0  0  0  0  0  0  0  # atno 6909 bound_to 6896
  144.7235  140.2599  143.6266 H   0  0  0  0  0  0  0  0  0  0  0  0  # atno 7974 bound_to 7965
  155.6930  140.0757  157.2440 H   0  0  0  0  0  0  0  0  0  0  0  0  # atno 8008 bound_to 7997
  154.4085  140.1661  156.2160 H   0  0  0  0  0  0  0  0  0  0  0  0  # atno 8009 bound_to 7997
  155.9435  140.3382  155.6350 H   0  0  0  0  0  0  0  0  0  0  0  0  # atno 8010 bound_to 7997
  140.6657  143.2674  151.4299 H   0  0  0  0  0  0  0  0  0  0  0  0  # atno 10167 bound_to 10162
  156.9980  131.0167  151.2838 H   0  0  0  0  0  0  0  0  0  0  0  0  # atno 10718 bound_to 10713
  153.0153  135.5310  154.6868 H   0  0  0  0  0  0  0  0  0  0  0  0  # atno 10763 bound_to 10752
  154.6013  135.2868  155.0534 H   0  0  0  0  0  0  0  0  0  0  0  0  # atno 10764 bound_to 10752
  154.1590  135.6550  153.5034 H   0  0  0  0  0  0  0  0  0  0  0  0  # atno 10765 bound_to 10752
  140.2227  134.3621  155.7998 H   0  0  0  0  0  0  0  0  0  0  0  0  # atno 11005 bound_to 11000
  145.8146  139.2018  143.1973 LP  0  0  0  0  0  0  0  0  0  0  0  0  # atno 17320 bound_to 7965
  146.0566  140.8014  142.9755 LP  0  0  0  0  0  0  0  0  0  0  0  0  # atno 17321 bound_to 7965
  139.5906  144.1508  152.2083 LP  0  0  0  0  0  0  0  0  0  0  0  0  # atno 17342 bound_to 10162
  140.0861  144.5660  150.7087 LP  0  0  0  0  0  0  0  0  0  0  0  0  # atno 17343 bound_to 10162
  157.5411  130.8120  149.8029 LP  0  0  0  0  0  0  0  0  0  0  0  0  # atno 17370 bound_to 10713
  156.0182  130.3805  150.2045 LP  0  0  0  0  0  0  0  0  0  0  0  0  # atno 17371 bound_to 10713
  141.2222  133.7202  156.8602 LP  0  0  0  0  0  0  0  0  0  0  0  0  # atno 17394 bound_to 11000
  140.1833  134.9018  157.2974 LP  0  0  0  0  0  0  0  0  0  0  0  0  # atno 17395 bound_to 11000

$$$$
