AV-unprocessed.smi:3162|AV-procd|sdf|12069|dock4
  -GOLD-   2272017503D 1   1.00000     0.00000
 Structure written by MMmdl.
 36 36  0  0  0  0  0  0  0  0  1 V2000
  146.8371  141.4551  154.5139 C   0  0  0  0  0  0  0  0  0  0  0  0
  147.1408  140.8843  153.1194 C   0  0  0  0  0  0  0  0  0  0  0  0
  147.2768  139.3460  153.0745 C   0  0  2  0  0  0  0  0  0  0  0  0
  148.7033  138.9805  153.1703 N   0  0  0  0  0  0  0  0  0  0  0  0
  149.3128  139.1202  154.4918 C   0  0  1  0  0  0  0  0  0  0  0  0
  150.5081  138.1556  154.6117 C   0  0  0  0  0  0  0  0  0  0  0  0
  149.7228  140.5977  154.6602 C   0  0  0  0  0  0  0  0  0  0  0  0
  150.2519  140.8899  155.9804 N   0  0  0  0  0  0  0  0  0  0  0  0
  150.6246  142.1091  156.5055 C   0  0  0  0  0  0  0  0  0  0  0  0
  151.0565  141.8917  157.7835 C   0  0  0  0  0  0  0  0  0  0  0  0
  151.5719  142.8859  158.7836 C   0  0  0  0  0  0  0  0  0  0  0  0
  150.9032  140.4858  157.9496 C   0  0  0  0  0  0  0  0  0  0  0  0
  150.4196  139.8898  156.8718 N   0  0  0  0  0  0  0  0  0  0  0  0
  146.5875  138.7462  151.8346 C   0  0  0  0  0  0  0  0  0  0  0  0
  145.2522  138.7229  151.8289 N   0  0  0  0  0  0  0  0  0  0  0  0
  147.2528  138.2942  150.9044 O   0  0  0  0  0  0  0  0  0  0  0  0
  146.8298  142.5450  154.4907 H   0  0  0  0  0  0  0  0  0  0  0  0
  147.5900  141.1447  155.2388 H   0  0  0  0  0  0  0  0  0  0  0  0
  145.8630  141.1308  154.8801 H   0  0  0  0  0  0  0  0  0  0  0  0
  146.3731  141.2150  152.4183 H   0  0  0  0  0  0  0  0  0  0  0  0
  148.0726  141.3306  152.7695 H   0  0  0  0  0  0  0  0  0  0  0  0
  146.7795  138.9517  153.9630 H   0  0  0  0  0  0  0  0  0  0  0  0
  148.8870  138.0618  152.7925 H   0  0  0  0  0  0  0  0  0  0  0  0
  148.5849  138.8883  155.2706 H   0  0  0  0  0  0  0  0  0  0  0  0
  150.9628  138.2103  155.6009 H   0  0  0  0  0  0  0  0  0  0  0  0
  151.2812  138.3899  153.8793 H   0  0  0  0  0  0  0  0  0  0  0  0
  150.2099  137.1190  154.4572 H   0  0  0  0  0  0  0  0  0  0  0  0
  150.4779  140.8699  153.9210 H   0  0  0  0  0  0  0  0  0  0  0  0
  148.8669  141.2517  154.4851 H   0  0  0  0  0  0  0  0  0  0  0  0
  150.5548  143.0211  155.9310 H   0  0  0  0  0  0  0  0  0  0  0  0
  151.3247  142.5964  159.8053 H   0  0  0  0  0  0  0  0  0  0  0  0
  151.1512  143.8786  158.6218 H   0  0  0  0  0  0  0  0  0  0  0  0
  152.6563  142.9831  158.7301 H   0  0  0  0  0  0  0  0  0  0  0  0
  151.1262  139.8841  158.8184 H   0  0  0  0  0  0  0  0  0  0  0  0
  144.7585  138.3417  151.0348 H   0  0  0  0  0  0  0  0  0  0  0  0
  144.7411  139.0902  152.6183 H   0  0  0  0  0  0  0  0  0  0  0  0
  1  2  1  0  0  0  0
  1 17  1  0  0  0  0
  1 18  1  0  0  0  0
  1 19  1  0  0  0  0
  2  3  1  0  0  0  0
  2 20  1  0  0  0  0
  2 21  1  0  0  0  0
  3  4  1  0  0  0  0
  3 14  1  0  0  0  0
  3 22  1  0  0  0  0
  4  5  1  0  0  0  0
  4 23  1  0  0  0  0
  5  6  1  0  0  0  0
  5  7  1  0  0  0  0
  5 24  1  0  0  0  0
  6 25  1  0  0  0  0
  6 26  1  0  0  0  0
  6 27  1  0  0  0  0
  7  8  1  0  0  0  0
  7 28  1  0  0  0  0
  7 29  1  0  0  0  0
  8 13  1  0  0  0  0
  8  9  1  0  0  0  0
  9 10  2  0  0  0  0
  9 30  1  0  0  0  0
 10 11  1  0  0  0  0
 10 12  1  0  0  0  0
 11 31  1  0  0  0  0
 11 32  1  0  0  0  0
 11 33  1  0  0  0  0
 12 13  2  0  0  0  0
 12 34  1  0  0  0  0
 14 15  1  0  0  0  0
 14 16  2  0  0  0  0
 15 35  1  0  0  0  0
 15 36  1  0  0  0  0
M  END
> <s_m_source_file>
AV-unprocessed.smi

> <i_m_source_file_index>
3162

> <i_lp_mmshare_version>
43012

> <i_f3d_flags>
0

> <s_epik_input>
W0NIM11bQ0gyXVtDQEBIXShDKD1PKVtOSDJdKVtOSF1bQ0BIXShbQ0gzXSlbQ0gyXW4xW2NIXWMoW0NIM10pW2NIXW4x

> <s_epik_cmdline>
J2VwaWtfcHl0aG9uJywgJy1waCcsICc3LjAnLCAnLXRuJywgJzgnLCAnLW1hJywgJzIwMCcsICctbWV0YWxfYmluZGluZycsICctaW1hZScsICc8aW5maWxlLm1hZT4nLCAnLW9tYWUnLCAnPG91dGZpbGUubWFlPic=

> <r_lp_tautomer_probability>
1

> <r_epik_Ionization_Penalty>
1.04167

> <r_epik_Ionization_Penalty_Charging>
0

> <r_epik_Ionization_Penalty_Neutral>
1.04167

> <r_epik_State_Penalty>
1.09367

> <r_epik_Charging_Adjusted_Penalty>
1.09367

> <i_epik_Tot_Q>
0

> <i_epik_Tot_abs_Q>
0

> <r_epik_Metal_State_Penalty>
1.09362

> <b_epik_Metal_Only>
0

> <s_lp_Force_Field>
OPLS_2005

> <r_lp_Energy>
3.23366

> <b_lp_Chiralities_Consistent>
1

> <s_lp_Variant>
AV-unprocessed.smi:3162-7

> <Gold.Version>
5.8.1

> <Gold.Id.Protein>
6NUR|6NUR_protein|mol2

> <Gold.PLP.Fitness>
43.1898

> <Gold.PLP.PLP>
-33.4868

> <Gold.PLP.part.hbond>
-4.1007

> <Gold.PLP.part.metal>
0.0000

> <Gold.PLP.part.buried>
-3.5515

> <Gold.PLP.part.nonpolar>
-28.7504

> <Gold.PLP.part.repulsive>
2.8069

> <Gold.PLP.ligand.clash>
0.0000

> <Gold.PLP.ligand.torsion>
1.3226

> <Gold.PLP.Chemscore.Hbond>
3.0720

> <Gold.PLP.Chemscore.CHOScore>
0.9997

> <Gold.PLP.Chemscore.Metal>
0.0000

> <Gold.Chemscore.Hbonds>
donor molecule, donor type, donor heavy atom, donor atom, acceptor molecule, acceptor atom, score
      L1  H     4    23       P1  7948  1.00
      L1  H    15    35       P1 10171  0.94
      L1  H    15    36       P1 10175  0.43
      P1  H  7954  7966       L1    16  0.73
      L1  C     9    30       P1  8028  1.00

> <Gold.PLP.Chemscore.Internal.Correction>
0.1332

> <Gold.Rescore>
     Score         DG    S(hbond)    S(metal)    S(lipo)     H(rot)  DE(clash)    DE(int)     intcor
     14.32     -18.16       3.13        0.00      72.22       2.43       1.18       2.66       ----

> <Gold.Chemscore.Fitness>
14.3213

> <Gold.Chemscore.DG>
-18.1553

> <Gold.Chemscore.ZeroCoef>
-5.4800

> <Gold.Chemscore.Hbond>
3.1299

> <Gold.Chemscore.Metal>
0.0000

> <Gold.Chemscore.Lipo>
72.2167

> <Gold.Chemscore.Internal_Hbond>
0.0000

> <Gold.Chemscore.DEClash>
1.1784

> <Gold.Chemscore.DEInternal>
2.6556

> <Gold.Chemscore.Rot>
2.4328

> <Gold.Chemscore.Internal.Correction>
   9.000000E+99

> <Gold.Chemscore.Hbonds>
donor molecule, donor type, donor heavy atom, donor atom, acceptor molecule, acceptor atom, score
      L1  H     4    23       P1  7948  0.93
      L1  H    15    35       P1 10171  0.84
      L1  H    15    36       P1 10175  0.42
      P1  H  7954  7966       L1    16  0.72

> <Gold.Chemscore.Hbond.Weighted>
-10.4539

> <Gold.Chemscore.Metal.Weighted>
-0.0000

> <Gold.Chemscore.Lipo.Weighted>
-8.4494

> <Gold.Chemscore.Internal_Hbond.Weighted>
0.0000

> <Gold.Chemscore.DEClash.Weighted>
1.1784

> <Gold.Chemscore.DEInternal.Weighted>
2.6556

> <Gold.Chemscore.Rot.Weighted>
6.2279

> <Gold.Chemscore.Internal.Correction.Weighted>
   9.000000E+99

> <Gold.Protein.RotatedTorsions>
[ 6907 6896 6895 6894 ] final -176.14 input  -60.11 | X-H torsion
[ 7974 7965 7964 7962 ] final   33.62 input  175.53 | X-H torsion
[ 8008 7997 7996 7995 ] final  137.00 input   59.86 | X-H torsion
[ 10167 10162 10161 10158 ] final  -41.77 input  -65.29 | X-H torsion
[ 10718 10713 10712 10709 ] final  113.84 input   66.30 | X-H torsion
[ 10763 10752 10751 10750 ] final  -37.15 input  -60.55 | X-H torsion
[ 11005 11000 10999 10996 ] final -134.30 input  -57.11 | X-H torsion

> <Gold.Protein.ActiveResidues>
 VAL166  LYS551  ARG553  GLY616  TRP617  ASP618  TYR619  PRO620  LYS621  CYS622 
 ASP623  PHE694  ASN695  SER759  ASP760  ASP761  ALA762  ILE779  LEU786  VAL792 
 PHE793  MET794  SER795  GLU796  ALA797  LYS798  CYS799  TRP800  GLU811  SER814 

> <Gold.Protein.RotatedAtoms>
  151.6000  133.3357  159.3045 H   0  0  0  0  0  0  0  0  0  0  0  0  # atno 6907 bound_to 6896
  150.8213  134.7425  159.6786 H   0  0  0  0  0  0  0  0  0  0  0  0  # atno 6908 bound_to 6896
  152.4306  134.5790  159.9994 H   0  0  0  0  0  0  0  0  0  0  0  0  # atno 6909 bound_to 6896
  146.1408  139.6373  142.9164 H   0  0  0  0  0  0  0  0  0  0  0  0  # atno 7974 bound_to 7965
  156.3003  140.2430  156.3838 H   0  0  0  0  0  0  0  0  0  0  0  0  # atno 8008 bound_to 7997
  154.8676  140.0417  157.1724 H   0  0  0  0  0  0  0  0  0  0  0  0  # atno 8009 bound_to 7997
  154.8829  140.2952  155.5418 H   0  0  0  0  0  0  0  0  0  0  0  0  # atno 8010 bound_to 7997
  140.6992  143.3076  151.3113 H   0  0  0  0  0  0  0  0  0  0  0  0  # atno 10167 bound_to 10162
  157.6315  131.0989  150.7099 H   0  0  0  0  0  0  0  0  0  0  0  0  # atno 10718 bound_to 10713
  153.8915  135.6811  153.4760 H   0  0  0  0  0  0  0  0  0  0  0  0  # atno 10763 bound_to 10752
  153.1178  135.4753  154.9143 H   0  0  0  0  0  0  0  0  0  0  0  0  # atno 10764 bound_to 10752
  154.7620  135.3213  154.8313 H   0  0  0  0  0  0  0  0  0  0  0  0  # atno 10765 bound_to 10752
  140.9002  134.1700  157.4466 H   0  0  0  0  0  0  0  0  0  0  0  0  # atno 11005 bound_to 11000
  145.5051  141.0437  143.2519 LP  0  0  0  0  0  0  0  0  0  0  0  0  # atno 17320 bound_to 7965
  144.7790  139.6566  143.7162 LP  0  0  0  0  0  0  0  0  0  0  0  0  # atno 17321 bound_to 7965
  139.6487  144.0403  152.2610 LP  0  0  0  0  0  0  0  0  0  0  0  0  # atno 17342 bound_to 10162
  139.9932  144.6346  150.7795 LP  0  0  0  0  0  0  0  0  0  0  0  0  # atno 17343 bound_to 10162
  156.7437  130.4747  149.5472 LP  0  0  0  0  0  0  0  0  0  0  0  0  # atno 17370 bound_to 10713
  156.1523  130.6318  151.0611 LP  0  0  0  0  0  0  0  0  0  0  0  0  # atno 17371 bound_to 10713
  139.8741  134.9895  156.5459 LP  0  0  0  0  0  0  0  0  0  0  0  0  # atno 17394 bound_to 11000
  140.8239  133.8332  155.8921 LP  0  0  0  0  0  0  0  0  0  0  0  0  # atno 17395 bound_to 11000

$$$$
