AV-unprocessed.smi:67|AV-procd|sdf|630|dock2
  -GOLD-   2262016523D 1   1.00000     0.00000
 Structure written by MMmdl.
 49 51  0  0  0  0  0  0  0  0  3 V2000
  146.7778  137.1978  151.6618 O   0  0  0  0  0  0  0  0  0  0  0  0
  145.9546  136.4703  152.5574 C   0  0  2  0  0  0  0  0  0  0  0  0
  146.6471  136.4290  153.9380 C   0  0  0  0  0  0  0  0  0  0  0  0
  147.7058  137.4665  154.0607 N   0  3  2  0  0  0  0  0  0  0  0  0
  148.6676  137.1927  155.1598 C   0  0  0  0  0  0  0  0  0  0  0  0
  149.8659  138.1542  155.0981 C   0  0  0  0  0  0  0  0  0  0  0  0
  149.3913  139.6230  155.0754 C   0  0  1  0  0  0  0  0  0  0  0  0
  150.4435  140.5912  155.0988 O   0  0  0  0  0  0  0  0  0  0  0  0
  151.1146  140.9563  156.2510 C   0  0  0  0  0  0  0  0  0  0  0  0
  151.7447  139.9073  156.9515 C   0  0  0  0  0  0  0  0  0  0  0  0
  152.4592  140.1529  158.1388 C   0  0  0  0  0  0  0  0  0  0  0  0
  152.5542  141.4612  158.6457 C   0  0  0  0  0  0  0  0  0  0  0  0
  151.9320  142.5275  157.9633 C   0  0  0  0  0  0  0  0  0  0  0  0
  152.0135  143.9541  158.4852 C   0  0  0  0  0  0  0  0  0  0  0  0
  150.7861  144.4678  158.5643 F   0  0  0  0  0  0  0  0  0  0  0  0
  152.5778  144.0160  159.6917 F   0  0  0  0  0  0  0  0  0  0  0  0
  152.7327  144.6944  157.6418 F   0  0  0  0  0  0  0  0  0  0  0  0
  151.2182  142.2701  156.7736 C   0  0  0  0  0  0  0  0  0  0  0  0
  148.2948  139.8884  154.0216 C   0  0  0  0  0  0  0  0  0  0  0  0
  147.1674  138.8499  154.1350 C   0  0  0  0  0  0  0  0  0  0  0  0
  145.7067  135.0794  151.9662 C   0  0  0  0  0  0  0  0  0  0  0  0
  144.5828  135.2975  150.9497 C   0  0  0  0  0  0  0  0  0  0  0  0
  143.8217  136.4715  151.4188 N   0  3  0  0  0  0  0  0  0  0  0  0
  144.5422  137.0775  152.5568 C   0  0  0  0  0  0  0  0  0  0  0  0
  147.5753  136.7110  151.5142 H   0  0  0  0  0  0  0  0  0  0  0  0
  145.9092  136.5486  154.7333 H   0  0  0  0  0  0  0  0  0  0  0  0
  147.0714  135.4350  154.0900 H   0  0  0  0  0  0  0  0  0  0  0  0
  148.1591  137.2802  156.1215 H   0  0  0  0  0  0  0  0  0  0  0  0
  149.0318  136.1672  155.0845 H   0  0  0  0  0  0  0  0  0  0  0  0
  150.5093  137.9914  155.9632 H   0  0  0  0  0  0  0  0  0  0  0  0
  150.4689  137.8997  154.2307 H   0  0  0  0  0  0  0  0  0  0  0  0
  148.9028  139.7781  156.0384 H   0  0  0  0  0  0  0  0  0  0  0  0
  151.6795  138.8976  156.5729 H   0  0  0  0  0  0  0  0  0  0  0  0
  152.9348  139.3357  158.6609 H   0  0  0  0  0  0  0  0  0  0  0  0
  153.1056  141.6356  159.5577 H   0  0  0  0  0  0  0  0  0  0  0  0
  150.7620  143.1152  156.2899 H   0  0  0  0  0  0  0  0  0  0  0  0
  147.8852  140.8887  154.1649 H   0  0  0  0  0  0  0  0  0  0  0  0
  148.6812  139.8706  153.0061 H   0  0  0  0  0  0  0  0  0  0  0  0
  146.4482  139.0152  153.3329 H   0  0  0  0  0  0  0  0  0  0  0  0
  146.6276  138.9802  155.0745 H   0  0  0  0  0  0  0  0  0  0  0  0
  146.5966  134.6295  151.5239 H   0  0  0  0  0  0  0  0  0  0  0  0
  145.3532  134.4032  152.7462 H   0  0  0  0  0  0  0  0  0  0  0  0
  144.9996  135.5281  149.9687 H   0  0  0  0  0  0  0  0  0  0  0  0
  143.9412  134.4224  150.8448 H   0  0  0  0  0  0  0  0  0  0  0  0
  143.7572  137.1391  150.6632 H   0  0  0  0  0  0  0  0  0  0  0  0
  144.0093  136.7893  153.4634 H   0  0  0  0  0  0  0  0  0  0  0  0
  144.5397  138.1671  152.5038 H   0  0  0  0  0  0  0  0  0  0  0  0
  142.8933  136.1975  151.7079 H   0  0  0  0  0  0  0  0  0  0  0  0
  148.2427  137.4101  153.2066 H   0  0  0  0  0  0  0  0  0  0  0  0
  1  2  1  0  0  0  0
  1 25  1  0  0  0  0
  2 24  1  0  0  0  0
  2  3  1  0  0  0  0
  2 21  1  0  0  0  0
  3  4  1  0  0  0  0
  3 26  1  0  0  0  0
  3 27  1  0  0  0  0
  4 20  1  0  0  0  0
  4  5  1  0  0  0  0
  4 49  1  0  0  0  0
  5  6  1  0  0  0  0
  5 28  1  0  0  0  0
  5 29  1  0  0  0  0
  6  7  1  0  0  0  0
  6 30  1  0  0  0  0
  6 31  1  0  0  0  0
  7  8  1  0  0  0  0
  7 19  1  0  0  0  0
  7 32  1  0  0  0  0
  8  9  1  0  0  0  0
  9 18  1  0  0  0  0
  9 10  2  0  0  0  0
 10 11  1  0  0  0  0
 10 33  1  0  0  0  0
 11 12  2  0  0  0  0
 11 34  1  0  0  0  0
 12 13  1  0  0  0  0
 12 35  1  0  0  0  0
 13 14  1  0  0  0  0
 13 18  2  0  0  0  0
 14 15  1  0  0  0  0
 14 16  1  0  0  0  0
 14 17  1  0  0  0  0
 18 36  1  0  0  0  0
 19 20  1  0  0  0  0
 19 37  1  0  0  0  0
 19 38  1  0  0  0  0
 20 39  1  0  0  0  0
 20 40  1  0  0  0  0
 21 22  1  0  0  0  0
 21 41  1  0  0  0  0
 21 42  1  0  0  0  0
 22 23  1  0  0  0  0
 22 43  1  0  0  0  0
 22 44  1  0  0  0  0
 23 24  1  0  0  0  0
 23 45  1  0  0  0  0
 23 48  1  0  0  0  0
 24 46  1  0  0  0  0
 24 47  1  0  0  0  0
M  CHG  1   4   1
M  CHG  1  23   1
M  END
> <s_m_source_file>
AV-unprocessed.smi

> <i_m_source_file_index>
67

> <i_lp_mmshare_version>
43012

> <i_f3d_flags>
0

> <s_epik_input>
W0NIMl0xW05IXVtDSDJdW0NIMl1bQ0BAXTEoW09IXSlbQ0gyXU4yW0NIMl1bQ0gyXVtDSF0oW0NIMl1bQ0gyXTIpT2MzW2NIXVtjSF1bY0hdYyhDKEYpKEYpRilbY0hdMw==

> <s_epik_cmdline>
J2VwaWtfcHl0aG9uJywgJy1waCcsICc3LjAnLCAnLXRuJywgJzgnLCAnLW1hJywgJzIwMCcsICctbWV0YWxfYmluZGluZycsICctaW1hZScsICc8aW5maWxlLm1hZT4nLCAnLW9tYWUnLCAnPG91dGZpbGUubWFlPic=

> <r_lp_tautomer_probability>
1

> <r_epik_Ionization_Penalty>
0.0989853

> <r_epik_Ionization_Penalty_Charging>
0.0989662

> <r_epik_Ionization_Penalty_Neutral>
1.91014e-05

> <r_epik_State_Penalty>
0.0852826

> <r_epik_Charging_Adjusted_Penalty>
0.184249

> <i_epik_Tot_Q>
2

> <i_epik_Tot_abs_Q>
2

> <r_epik_Metal_State_Penalty>
0.0849414

> <b_epik_Metal_Only>
0

> <s_lp_Force_Field>
OPLS_2005

> <r_lp_Energy>
59.8113

> <b_lp_Chiralities_Consistent>
1

> <s_lp_Variant>
AV-unprocessed.smi:67-2

> <Gold.Version>
5.8.1

> <Gold.Id.Protein>
6NUR|6NUR_protein|mol2

> <Gold.PLP.Fitness>
53.8299

> <Gold.PLP.PLP>
-42.4707

> <Gold.PLP.part.hbond>
-3.7374

> <Gold.PLP.part.metal>
0.0000

> <Gold.PLP.part.buried>
-4.0665

> <Gold.PLP.part.nonpolar>
-34.4549

> <Gold.PLP.part.repulsive>
0.1375

> <Gold.PLP.ligand.clash>
0.0115

> <Gold.PLP.ligand.torsion>
1.5058

> <Gold.PLP.Chemscore.Hbond>
4.6074

> <Gold.PLP.Chemscore.CHOScore>
0.0000

> <Gold.PLP.Chemscore.Metal>
0.0000

> <Gold.Chemscore.Hbonds>
donor molecule, donor type, donor heavy atom, donor atom, acceptor molecule, acceptor atom, score
      L1  H     1    25       P1  7948  0.83
      L1  H     4    49       P1  7948  1.86
      L1  H    23    45       P1 10171  1.00
      P1  H  7989  7998       L1     8  0.94

> <Gold.PLP.Chemscore.Internal.Correction>
0.5603

> <Gold.Rescore>
     Score         DG    S(hbond)    S(metal)    S(lipo)     H(rot)  DE(clash)    DE(int)     intcor
     18.95     -21.89       3.20        0.00      97.89       2.24       0.34       2.60       ----

> <Gold.Chemscore.Fitness>
18.9466

> <Gold.Chemscore.DG>
-21.8851

> <Gold.Chemscore.ZeroCoef>
-5.4800

> <Gold.Chemscore.Hbond>
3.1959

> <Gold.Chemscore.Metal>
0.0000

> <Gold.Chemscore.Lipo>
97.8881

> <Gold.Chemscore.Internal_Hbond>
0.0000

> <Gold.Chemscore.DEClash>
0.3376

> <Gold.Chemscore.DEInternal>
2.6009

> <Gold.Chemscore.Rot>
2.2352

> <Gold.Chemscore.Internal.Correction>
   9.000000E+99

> <Gold.Chemscore.Hbonds>
donor molecule, donor type, donor heavy atom, donor atom, acceptor molecule, acceptor atom, score
      L1  H     1    25       P1  7948  0.81
      L1  H     4    49       P1  7948  0.89
      L1  H    23    45       P1 10171  1.00
      P1  H  7989  7998       L1     8  0.63

> <Gold.Chemscore.Hbond.Weighted>
-10.6744

> <Gold.Chemscore.Metal.Weighted>
-0.0000

> <Gold.Chemscore.Lipo.Weighted>
-11.4529

> <Gold.Chemscore.Internal_Hbond.Weighted>
0.0000

> <Gold.Chemscore.DEClash.Weighted>
0.3376

> <Gold.Chemscore.DEInternal.Weighted>
2.6009

> <Gold.Chemscore.Rot.Weighted>
5.7221

> <Gold.Chemscore.Internal.Correction.Weighted>
   9.000000E+99

> <Gold.Protein.RotatedTorsions>
[ 6907 6896 6895 6894 ] final   68.89 input  -60.11 | X-H torsion
[ 7974 7965 7964 7962 ] final   77.73 input  175.53 | X-H torsion
[ 8008 7997 7996 7995 ] final   36.26 input   59.86 | X-H torsion
[ 10167 10162 10161 10158 ] final  -97.59 input  -65.29 | X-H torsion
[ 10718 10713 10712 10709 ] final -175.32 input   66.30 | X-H torsion
[ 10763 10752 10751 10750 ] final  122.34 input  -60.55 | X-H torsion
[ 11005 11000 10999 10996 ] final  116.96 input  -57.11 | X-H torsion

> <Gold.Protein.ActiveResidues>
 VAL166  LYS551  ARG553  GLY616  TRP617  ASP618  TYR619  PRO620  LYS621  CYS622 
 ASP623  PHE694  ASN695  SER759  ASP760  ASP761  ALA762  ILE779  LEU786  VAL792 
 PHE793  MET794  SER795  GLU796  ALA797  LYS798  CYS799  TRP800  GLU811  SER814 

> <Gold.Protein.RotatedAtoms>
  152.4651  134.5095  159.9749 H   0  0  0  0  0  0  0  0  0  0  0  0  # atno 6907 bound_to 6896
  151.5135  133.3474  159.2897 H   0  0  0  0  0  0  0  0  0  0  0  0  # atno 6908 bound_to 6896
  150.8631  134.8016  159.7160 H   0  0  0  0  0  0  0  0  0  0  0  0  # atno 6909 bound_to 6896
  145.6863  139.2538  143.1785 H   0  0  0  0  0  0  0  0  0  0  0  0  # atno 7974 bound_to 7965
  155.1844  140.3302  155.4369 H   0  0  0  0  0  0  0  0  0  0  0  0  # atno 8008 bound_to 7997
  156.2465  140.1921  156.6891 H   0  0  0  0  0  0  0  0  0  0  0  0  # atno 8009 bound_to 7997
  154.6249  140.0590  156.9646 H   0  0  0  0  0  0  0  0  0  0  0  0  # atno 8010 bound_to 7997
  140.2818  143.3277  152.0433 H   0  0  0  0  0  0  0  0  0  0  0  0  # atno 10167 bound_to 10162
  156.7981  130.9542  151.3119 H   0  0  0  0  0  0  0  0  0  0  0  0  # atno 10718 bound_to 10713
  153.6283  135.3400  155.3033 H   0  0  0  0  0  0  0  0  0  0  0  0  # atno 10763 bound_to 10752
  154.8585  135.4289  154.2133 H   0  0  0  0  0  0  0  0  0  0  0  0  # atno 10764 bound_to 10752
  153.3023  135.7025  153.7265 H   0  0  0  0  0  0  0  0  0  0  0  0  # atno 10765 bound_to 10752
  139.9058  134.9604  156.7278 H   0  0  0  0  0  0  0  0  0  0  0  0  # atno 11005 bound_to 11000
  146.0921  140.7643  142.9590 LP  0  0  0  0  0  0  0  0  0  0  0  0  # atno 17320 bound_to 7965
  144.7010  140.3654  143.7156 LP  0  0  0  0  0  0  0  0  0  0  0  0  # atno 17321 bound_to 7965
  139.4960  144.6586  151.6516 LP  0  0  0  0  0  0  0  0  0  0  0  0  # atno 17342 bound_to 10162
  140.5805  143.9954  150.6266 LP  0  0  0  0  0  0  0  0  0  0  0  0  # atno 17343 bound_to 10162
  157.6567  130.8931  149.9744 LP  0  0  0  0  0  0  0  0  0  0  0  0  # atno 17370 bound_to 10713
  156.1118  130.3649  150.0036 LP  0  0  0  0  0  0  0  0  0  0  0  0  # atno 17371 bound_to 10713
  140.6949  133.9357  155.7989 LP  0  0  0  0  0  0  0  0  0  0  0  0  # atno 17394 bound_to 11000
  141.0414  134.0616  157.3897 LP  0  0  0  0  0  0  0  0  0  0  0  0  # atno 17395 bound_to 11000

$$$$
