AV-unprocessed.smi:2044|AV-procd|sdf|8305|dock5
  -GOLD-   2272010573D 1   1.00000     0.00000
 Structure written by MMmdl.
 39 40  0  0  0  0  0  0  0  0  3 V2000
  148.5493  140.5190  154.6592 C   0  0  0  0  0  0  0  0  0  0  0  0
  149.6333  139.4963  154.6947 C   0  0  0  0  0  0  0  0  0  0  0  0
  149.6360  138.1418  154.5182 C   0  0  0  0  0  0  0  0  0  0  0  0
  151.0053  137.7958  154.6812 C   0  0  0  0  0  0  0  0  0  0  0  0
  151.5196  136.5586  154.6101 N   0  5  0  0  0  0  0  0  0  0  0  0
  150.8197  135.5026  155.0827 C   0  0  0  0  0  0  0  0  0  0  0  0
  151.0564  134.8704  156.1147 O   0  0  0  0  0  0  0  0  0  0  0  0
  149.7880  135.1500  154.3016 N   0  0  0  0  0  0  0  0  0  0  0  0
  148.8520  134.0547  154.5438 C   0  0  0  0  0  0  0  0  0  0  0  0
  148.5100  133.2539  153.2602 C   0  0  1  0  0  0  0  0  0  0  0  0
  148.2690  131.7592  153.5868 C   0  0  0  0  0  0  0  0  0  0  0  0
  147.3585  133.9026  152.5508 N   0  3  0  0  0  0  0  0  0  0  0  0
  146.7541  133.0201  151.5156 C   0  0  0  0  0  0  0  0  0  0  0  0
  145.6497  133.7544  150.7390 C   0  0  0  0  0  0  0  0  0  0  0  0
  144.6539  134.2067  151.6443 O   0  0  0  0  0  0  0  0  0  0  0  0
  145.1852  135.1302  152.5827 C   0  0  0  0  0  0  0  0  0  0  0  0
  146.2835  134.4540  153.4214 C   0  0  0  0  0  0  0  0  0  0  0  0
  151.7640  138.8455  154.9484 N   0  0  0  0  0  0  0  0  0  0  0  0
  150.8926  139.9412  154.9525 O   0  0  0  0  0  0  0  0  0  0  0  0
  147.8172  140.3306  155.4441 H   0  0  0  0  0  0  0  0  0  0  0  0
  148.0314  140.4979  153.7004 H   0  0  0  0  0  0  0  0  0  0  0  0
  148.9499  141.5226  154.8043 H   0  0  0  0  0  0  0  0  0  0  0  0
  148.7943  137.5001  154.3040 H   0  0  0  0  0  0  0  0  0  0  0  0
  149.6385  135.6990  153.4674 H   0  0  0  0  0  0  0  0  0  0  0  0
  149.2274  133.3805  155.3153 H   0  0  0  0  0  0  0  0  0  0  0  0
  147.9625  134.5177  154.9662 H   0  0  0  0  0  0  0  0  0  0  0  0
  149.3727  133.2878  152.5925 H   0  0  0  0  0  0  0  0  0  0  0  0
  149.1244  131.3136  154.0932 H   0  0  0  0  0  0  0  0  0  0  0  0
  148.1246  131.1594  152.6886 H   0  0  0  0  0  0  0  0  0  0  0  0
  147.4008  131.6267  154.2331 H   0  0  0  0  0  0  0  0  0  0  0  0
  147.5030  132.6754  150.8053 H   0  0  0  0  0  0  0  0  0  0  0  0
  146.3391  132.1306  151.9919 H   0  0  0  0  0  0  0  0  0  0  0  0
  146.0594  134.5935  150.1742 H   0  0  0  0  0  0  0  0  0  0  0  0
  145.1878  133.0807  150.0170 H   0  0  0  0  0  0  0  0  0  0  0  0
  145.5759  136.0086  152.0659 H   0  0  0  0  0  0  0  0  0  0  0  0
  144.3792  135.4762  153.2301 H   0  0  0  0  0  0  0  0  0  0  0  0
  145.8544  133.6544  154.0275 H   0  0  0  0  0  0  0  0  0  0  0  0
  146.6811  135.2067  154.1017 H   0  0  0  0  0  0  0  0  0  0  0  0
  147.7485  134.6983  152.0659 H   0  0  0  0  0  0  0  0  0  0  0  0
  1  2  1  0  0  0  0
  1 20  1  0  0  0  0
  1 21  1  0  0  0  0
  1 22  1  0  0  0  0
  2 19  1  0  0  0  0
  2  3  2  0  0  0  0
  3  4  1  0  0  0  0
  3 23  1  0  0  0  0
  4  5  1  0  0  0  0
  4 18  2  0  0  0  0
  5  6  1  0  0  0  0
  6  7  2  0  0  0  0
  6  8  1  0  0  0  0
  8  9  1  0  0  0  0
  8 24  1  0  0  0  0
  9 10  1  0  0  0  0
  9 25  1  0  0  0  0
  9 26  1  0  0  0  0
 10 11  1  0  0  0  0
 10 12  1  0  0  0  0
 10 27  1  0  0  0  0
 11 28  1  0  0  0  0
 11 29  1  0  0  0  0
 11 30  1  0  0  0  0
 12 17  1  0  0  0  0
 12 13  1  0  0  0  0
 12 39  1  0  0  0  0
 13 14  1  0  0  0  0
 13 31  1  0  0  0  0
 13 32  1  0  0  0  0
 14 15  1  0  0  0  0
 14 33  1  0  0  0  0
 14 34  1  0  0  0  0
 15 16  1  0  0  0  0
 16 17  1  0  0  0  0
 16 35  1  0  0  0  0
 16 36  1  0  0  0  0
 17 37  1  0  0  0  0
 17 38  1  0  0  0  0
 18 19  1  0  0  0  0
M  CHG  1   5  -1
M  CHG  1  12   1
M  END
> <s_m_source_file>
AV-unprocessed.smi

> <i_m_source_file_index>
2044

> <i_lp_mmshare_version>
43012

> <i_f3d_flags>
0

> <s_epik_input>
W0NIM11jMVtjSF1jKG5vMSlbTkhdQyg9TylbTkhdW0NIMl1bQ0BIXShbQ0gzXSlOMltDSDJdW0NIMl1PW0NIMl1bQ0gyXTI=

> <s_epik_cmdline>
J2VwaWtfcHl0aG9uJywgJy1waCcsICc3LjAnLCAnLXRuJywgJzgnLCAnLW1hJywgJzIwMCcsICctbWV0YWxfYmluZGluZycsICctaW1hZScsICc8aW5maWxlLm1hZT4nLCAnLW9tYWUnLCAnPG91dGZpbGUubWFlPic=

> <r_epik_Ionization_Penalty>
6.73014

> <r_epik_Ionization_Penalty_Charging>
6.73004

> <r_epik_Ionization_Penalty_Neutral>
9.51297e-05

> <r_epik_State_Penalty>
6.93052

> <r_epik_Charging_Adjusted_Penalty>
13.6606

> <i_epik_Tot_Q>
0

> <i_epik_Tot_abs_Q>
2

> <r_epik_Metal_State_Penalty>
2.86736

> <b_epik_Metal_Only>
1

> <s_lp_Force_Field>
OPLS_2005

> <r_lp_Energy>
8.75772

> <b_lp_Chiralities_Consistent>
1

> <s_lp_Variant>
AV-unprocessed.smi:2044-8

> <Gold.Version>
5.8.1

> <Gold.Id.Protein>
6NUR|6NUR_protein|mol2

> <Gold.PLP.Fitness>
44.8180

> <Gold.PLP.PLP>
-31.0562

> <Gold.PLP.part.hbond>
-4.0853

> <Gold.PLP.part.metal>
0.0000

> <Gold.PLP.part.buried>
-4.5791

> <Gold.PLP.part.nonpolar>
-23.8783

> <Gold.PLP.part.repulsive>
0.4532

> <Gold.PLP.ligand.clash>
0.0000

> <Gold.PLP.ligand.torsion>
1.8617

> <Gold.PLP.Chemscore.Hbond>
5.8000

> <Gold.PLP.Chemscore.CHOScore>
0.0000

> <Gold.PLP.Chemscore.Metal>
0.0000

> <Gold.Chemscore.Hbonds>
donor molecule, donor type, donor heavy atom, donor atom, acceptor molecule, acceptor atom, score
      L1  H     8    24       P1  7948  0.75
      L1  H    12    39       P1  7948  2.00
      P1  H  7989  7998       L1    19  0.90
      P1  H 10752 10765       L1     5  1.30

> <Gold.PLP.Chemscore.Internal.Correction>
0.0852

> <Gold.Rescore>
     Score         DG    S(hbond)    S(metal)    S(lipo)     H(rot)  DE(clash)    DE(int)     intcor
     13.02     -15.26       2.30        0.00      52.71       1.59       0.07       2.17       ----

> <Gold.Chemscore.Fitness>
13.0248

> <Gold.Chemscore.DG>
-15.2557

> <Gold.Chemscore.ZeroCoef>
-5.4800

> <Gold.Chemscore.Hbond>
2.3014

> <Gold.Chemscore.Metal>
0.0000

> <Gold.Chemscore.Lipo>
52.7101

> <Gold.Chemscore.Internal_Hbond>
0.0000

> <Gold.Chemscore.DEClash>
0.0650

> <Gold.Chemscore.DEInternal>
2.1659

> <Gold.Chemscore.Rot>
1.5930

> <Gold.Chemscore.Internal.Correction>
   9.000000E+99

> <Gold.Chemscore.Hbonds>
donor molecule, donor type, donor heavy atom, donor atom, acceptor molecule, acceptor atom, score
      L1  H     8    24       P1  7948  0.09
      L1  H    12    39       P1  7948  0.54
      P1  H  7989  7998       L1    19  0.15
      P1  H 10752 10765       L1     5  0.06

> <Gold.Chemscore.Hbond.Weighted>
-7.6867

> <Gold.Chemscore.Metal.Weighted>
-0.0000

> <Gold.Chemscore.Lipo.Weighted>
-6.1671

> <Gold.Chemscore.Internal_Hbond.Weighted>
0.0000

> <Gold.Chemscore.DEClash.Weighted>
0.0650

> <Gold.Chemscore.DEInternal.Weighted>
2.1659

> <Gold.Chemscore.Rot.Weighted>
4.0781

> <Gold.Chemscore.Internal.Correction.Weighted>
   9.000000E+99

> <Gold.Protein.RotatedTorsions>
[ 6907 6896 6895 6894 ] final -108.15 input  -60.11 | X-H torsion
[ 7974 7965 7964 7962 ] final   61.77 input  175.53 | X-H torsion
[ 8008 7997 7996 7995 ] final   49.82 input   59.86 | X-H torsion
[ 10167 10162 10161 10158 ] final -106.63 input  -65.29 | X-H torsion
[ 10718 10713 10712 10709 ] final  -28.33 input   66.30 | X-H torsion
[ 10763 10752 10751 10750 ] final  169.17 input  -60.55 | X-H torsion
[ 11005 11000 10999 10996 ] final  144.45 input  -57.11 | X-H torsion

> <Gold.Protein.ActiveResidues>
 VAL166  LYS551  ARG553  GLY616  TRP617  ASP618  TYR619  PRO620  LYS621  CYS622 
 ASP623  PHE694  ASN695  SER759  ASP760  ASP761  ALA762  ILE779  LEU786  VAL792 
 PHE793  MET794  SER795  GLU796  ALA797  LYS798  CYS799  TRP800  GLU811  SER814 

> <Gold.Protein.RotatedAtoms>
  150.7485  133.9720  159.3548 H   0  0  0  0  0  0  0  0  0  0  0  0  # atno 6907 bound_to 6896
  151.7655  135.0797  160.0361 H   0  0  0  0  0  0  0  0  0  0  0  0  # atno 6908 bound_to 6896
  152.3374  133.5991  159.5888 H   0  0  0  0  0  0  0  0  0  0  0  0  # atno 6909 bound_to 6896
  145.8810  139.3443  143.0706 H   0  0  0  0  0  0  0  0  0  0  0  0  # atno 7974 bound_to 7965
  155.4086  140.3441  155.4262 H   0  0  0  0  0  0  0  0  0  0  0  0  # atno 8008 bound_to 7997
  156.1462  140.1557  156.8875 H   0  0  0  0  0  0  0  0  0  0  0  0  # atno 8009 bound_to 7997
  154.5012  140.0814  156.7783 H   0  0  0  0  0  0  0  0  0  0  0  0  # atno 8010 bound_to 7997
  140.1857  143.3932  152.1247 H   0  0  0  0  0  0  0  0  0  0  0  0  # atno 10167 bound_to 10162
  156.4266  130.4437  149.7146 H   0  0  0  0  0  0  0  0  0  0  0  0  # atno 10718 bound_to 10713
  154.3793  135.2753  155.2221 H   0  0  0  0  0  0  0  0  0  0  0  0  # atno 10763 bound_to 10752
  154.4334  135.5972  153.6087 H   0  0  0  0  0  0  0  0  0  0  0  0  # atno 10764 bound_to 10752
  152.9835  135.6001  154.4034 H   0  0  0  0  0  0  0  0  0  0  0  0  # atno 10765 bound_to 10752
  140.0633  134.9192  157.1222 H   0  0  0  0  0  0  0  0  0  0  0  0  # atno 11005 bound_to 11000
  145.9023  140.9234  143.0496 LP  0  0  0  0  0  0  0  0  0  0  0  0  # atno 17320 bound_to 7965
  144.6727  140.1049  143.7458 LP  0  0  0  0  0  0  0  0  0  0  0  0  # atno 17321 bound_to 7965
  139.5277  144.7122  151.5168 LP  0  0  0  0  0  0  0  0  0  0  0  0  # atno 17342 bound_to 10162
  140.6490  143.8736  150.6766 LP  0  0  0  0  0  0  0  0  0  0  0  0  # atno 17343 bound_to 10162
  156.4066  130.7701  151.2712 LP  0  0  0  0  0  0  0  0  0  0  0  0  # atno 17370 bound_to 10713
  157.7508  131.0224  150.3790 LP  0  0  0  0  0  0  0  0  0  0  0  0  # atno 17371 bound_to 10713
  140.3737  134.2363  155.7176 LP  0  0  0  0  0  0  0  0  0  0  0  0  # atno 17394 bound_to 11000
  141.1982  133.8040  157.0592 LP  0  0  0  0  0  0  0  0  0  0  0  0  # atno 17395 bound_to 11000

$$$$
