AV-unprocessed.smi:1813|AV-procd|sdf|7343|dock2
  -GOLD-   22720 9 03D 1   1.00000     0.00000
 Structure written by MMmdl.
 38 39  0  0  0  0  0  0  0  0  2 V2000
  145.3735  135.0001  152.7225 C   0  0  0  0  0  0  0  0  0  0  0  0
  145.7066  136.3622  152.3364 N   0  0  0  0  0  0  0  0  0  0  0  0
  146.1359  137.3057  153.1871 C   0  0  0  0  0  0  0  0  0  0  0  0
  146.2852  137.1124  154.3933 O   0  0  0  0  0  0  0  0  0  0  0  0
  146.4373  138.6839  152.5868 C   0  0  0  0  0  0  0  0  0  0  0  0
  147.1135  139.6265  153.5078 N   0  0  0  0  0  0  0  0  0  0  0  0
  147.2661  140.9691  152.9270 C   0  0  0  0  0  0  0  0  0  0  0  0
  147.9074  141.9294  153.9444 C   0  0  0  0  0  0  0  0  0  0  0  0
  149.2725  141.4106  154.4163 C   0  0  0  0  0  0  0  0  0  0  0  0
  149.8014  142.2830  155.4612 N   0  0  0  0  0  0  0  0  0  0  0  0
  150.8502  142.0188  156.2538 C   0  0  0  0  0  0  0  0  0  0  0  0
  151.4600  140.9534  156.1344 O   0  0  0  0  0  0  0  0  0  0  0  0
  151.1268  143.0061  157.1358 N   0  5  0  0  0  0  0  0  0  0  0  0
  151.9615  142.7760  158.1625 C   0  0  0  0  0  0  0  0  0  0  0  0
  152.4565  141.5650  158.4425 N   0  0  0  0  0  0  0  0  0  0  0  0
  153.2980  141.5529  159.5564 C   0  0  0  0  0  0  0  0  0  0  0  0
  153.4391  142.7818  160.1446 C   0  0  0  0  0  0  0  0  0  0  0  0
  152.5146  143.9983  159.3108 S   0  0  0  0  0  0  0  0  0  0  0  0
  149.1062  139.9718  154.9313 C   0  0  0  0  0  0  0  0  0  0  0  0
  148.4248  139.0827  153.8769 C   0  0  0  0  0  0  0  0  0  0  0  0
  145.0506  134.4347  151.8485 H   0  0  0  0  0  0  0  0  0  0  0  0
  144.5643  134.9902  153.4537 H   0  0  0  0  0  0  0  0  0  0  0  0
  146.2397  134.4963  153.1536 H   0  0  0  0  0  0  0  0  0  0  0  0
  145.6176  136.6039  151.3598 H   0  0  0  0  0  0  0  0  0  0  0  0
  147.0630  138.5220  151.7080 H   0  0  0  0  0  0  0  0  0  0  0  0
  145.5062  139.1258  152.2267 H   0  0  0  0  0  0  0  0  0  0  0  0
  147.8708  140.9202  152.0195 H   0  0  0  0  0  0  0  0  0  0  0  0
  146.2995  141.3821  152.6390 H   0  0  0  0  0  0  0  0  0  0  0  0
  148.0192  142.9180  153.4978 H   0  0  0  0  0  0  0  0  0  0  0  0
  147.2385  142.0502  154.7983 H   0  0  0  0  0  0  0  0  0  0  0  0
  149.9543  141.4119  153.5636 H   0  0  0  0  0  0  0  0  0  0  0  0
  149.3321  143.1663  155.5973 H   0  0  0  0  0  0  0  0  0  0  0  0
  153.7533  140.6226  159.8615 H   0  0  0  0  0  0  0  0  0  0  0  0
  154.0254  143.0448  161.0118 H   0  0  0  0  0  0  0  0  0  0  0  0
  150.0778  139.5506  155.1920 H   0  0  0  0  0  0  0  0  0  0  0  0
  148.5132  139.9693  155.8473 H   0  0  0  0  0  0  0  0  0  0  0  0
  148.3065  138.0794  154.2885 H   0  0  0  0  0  0  0  0  0  0  0  0
  149.0605  138.9902  152.9944 H   0  0  0  0  0  0  0  0  0  0  0  0
  1  2  1  0  0  0  0
  1 21  1  0  0  0  0
  1 22  1  0  0  0  0
  1 23  1  0  0  0  0
  2  3  1  0  0  0  0
  2 24  1  0  0  0  0
  3  4  2  0  0  0  0
  3  5  1  0  0  0  0
  5  6  1  0  0  0  0
  5 25  1  0  0  0  0
  5 26  1  0  0  0  0
  6 20  1  0  0  0  0
  6  7  1  0  0  0  0
  7  8  1  0  0  0  0
  7 27  1  0  0  0  0
  7 28  1  0  0  0  0
  8  9  1  0  0  0  0
  8 29  1  0  0  0  0
  8 30  1  0  0  0  0
  9 10  1  0  0  0  0
  9 19  1  0  0  0  0
  9 31  1  0  0  0  0
 10 11  1  0  0  0  0
 10 32  1  0  0  0  0
 11 12  2  0  0  0  0
 11 13  1  0  0  0  0
 13 14  1  0  0  0  0
 14 18  1  0  0  0  0
 14 15  2  0  0  0  0
 15 16  1  0  0  0  0
 16 17  2  0  0  0  0
 16 33  1  0  0  0  0
 17 18  1  0  0  0  0
 17 34  1  0  0  0  0
 19 20  1  0  0  0  0
 19 35  1  0  0  0  0
 19 36  1  0  0  0  0
 20 37  1  0  0  0  0
 20 38  1  0  0  0  0
M  CHG  1  13  -1
M  END
> <s_m_source_file>
AV-unprocessed.smi

> <i_m_source_file_index>
1813

> <i_lp_mmshare_version>
43012

> <i_f3d_flags>
0

> <s_epik_input>
W0NIM11bTkhdQyg9TylbQ0gyXU4xW0NIMl1bQ0gyXVtDSF0oW0NIMl1bQ0gyXTEpW05IXUMoPU8pW05IXWMybltjSF1bY0hdczI=

> <s_epik_cmdline>
J2VwaWtfcHl0aG9uJywgJy1waCcsICc3LjAnLCAnLXRuJywgJzgnLCAnLW1hJywgJzIwMCcsICctbWV0YWxfYmluZGluZycsICctaW1hZScsICc8aW5maWxlLm1hZT4nLCAnLW9tYWUnLCAnPG91dGZpbGUubWFlPic=

> <r_lp_tautomer_probability>
0.999

> <r_epik_Ionization_Penalty>
7.12803

> <r_epik_Ionization_Penalty_Charging>
5.8513

> <r_epik_Ionization_Penalty_Neutral>
1.27674

> <r_epik_State_Penalty>
5.99796

> <r_epik_Charging_Adjusted_Penalty>
11.8493

> <i_epik_Tot_Q>
-1

> <i_epik_Tot_abs_Q>
1

> <r_epik_Metal_State_Penalty>
1.97283

> <b_epik_Metal_Only>
1

> <s_lp_Force_Field>
OPLS_2005

> <r_lp_Energy>
7.89498

> <b_lp_Chiralities_Consistent>
1

> <s_lp_Variant>
AV-unprocessed.smi:1813-4

> <Gold.Version>
5.8.1

> <Gold.Id.Protein>
6NUR|6NUR_protein|mol2

> <Gold.PLP.Fitness>
38.0993

> <Gold.PLP.PLP>
-35.5517

> <Gold.PLP.part.hbond>
-1.9731

> <Gold.PLP.part.metal>
0.0000

> <Gold.PLP.part.buried>
-3.6584

> <Gold.PLP.part.nonpolar>
-31.0347

> <Gold.PLP.part.repulsive>
0.6205

> <Gold.PLP.ligand.clash>
0.0000

> <Gold.PLP.ligand.torsion>
0.2811

> <Gold.PLP.Chemscore.Hbond>
1.0000

> <Gold.PLP.Chemscore.CHOScore>
0.0000

> <Gold.PLP.Chemscore.Metal>
0.0000

> <Gold.Chemscore.Hbonds>
donor molecule, donor type, donor heavy atom, donor atom, acceptor molecule, acceptor atom, score
      L1  H    10    32       P1  8028  1.00

> <Gold.PLP.Chemscore.Internal.Correction>
0.1099

> <Gold.Rescore>
     Score         DG    S(hbond)    S(metal)    S(lipo)     H(rot)  DE(clash)    DE(int)     intcor
     10.19     -13.53       0.97        0.00      78.98       1.73       0.17       3.17       ----

> <Gold.Chemscore.Fitness>
10.1949

> <Gold.Chemscore.DG>
-13.5344

> <Gold.Chemscore.ZeroCoef>
-5.4800

> <Gold.Chemscore.Hbond>
0.9738

> <Gold.Chemscore.Metal>
0.0000

> <Gold.Chemscore.Lipo>
78.9846

> <Gold.Chemscore.Internal_Hbond>
0.0000

> <Gold.Chemscore.DEClash>
0.1661

> <Gold.Chemscore.DEInternal>
3.1735

> <Gold.Chemscore.Rot>
1.7341

> <Gold.Chemscore.Internal.Correction>
   9.000000E+99

> <Gold.Chemscore.Hbonds>
donor molecule, donor type, donor heavy atom, donor atom, acceptor molecule, acceptor atom, score
      L1  H    10    32       P1  8028  0.99

> <Gold.Chemscore.Hbond.Weighted>
-3.2525

> <Gold.Chemscore.Metal.Weighted>
-0.0000

> <Gold.Chemscore.Lipo.Weighted>
-9.2412

> <Gold.Chemscore.Internal_Hbond.Weighted>
0.0000

> <Gold.Chemscore.DEClash.Weighted>
0.1661

> <Gold.Chemscore.DEInternal.Weighted>
3.1735

> <Gold.Chemscore.Rot.Weighted>
4.4392

> <Gold.Chemscore.Internal.Correction.Weighted>
   9.000000E+99

> <Gold.Protein.RotatedTorsions>
[ 6907 6896 6895 6894 ] final -157.90 input  -60.11 | X-H torsion
[ 7974 7965 7964 7962 ] final   35.84 input  175.53 | X-H torsion
[ 8008 7997 7996 7995 ] final  -41.62 input   59.86 | X-H torsion
[ 10167 10162 10161 10158 ] final   47.01 input  -65.29 | X-H torsion
[ 10718 10713 10712 10709 ] final  157.82 input   66.30 | X-H torsion
[ 10763 10752 10751 10750 ] final  -73.23 input  -60.55 | X-H torsion
[ 11005 11000 10999 10996 ] final   23.00 input  -57.11 | X-H torsion

> <Gold.Protein.ActiveResidues>
 VAL166  LYS551  ARG553  GLY616  TRP617  ASP618  TYR619  PRO620  LYS621  CYS622 
 ASP623  PHE694  ASN695  SER759  ASP760  ASP761  ALA762  ILE779  LEU786  VAL792 
 PHE793  MET794  SER795  GLU796  ALA797  LYS798  CYS799  TRP800  GLU811  SER814 

> <Gold.Protein.RotatedAtoms>
  151.3100  133.4085  159.2645 H   0  0  0  0  0  0  0  0  0  0  0  0  # atno 6907 bound_to 6896
  151.0122  134.9406  159.8024 H   0  0  0  0  0  0  0  0  0  0  0  0  # atno 6908 bound_to 6896
  152.5303  134.3064  159.9150 H   0  0  0  0  0  0  0  0  0  0  0  0  # atno 6909 bound_to 6896
  146.1254  139.6092  142.9262 H   0  0  0  0  0  0  0  0  0  0  0  0  # atno 7974 bound_to 7965
  154.4003  140.1494  156.3221 H   0  0  0  0  0  0  0  0  0  0  0  0  # atno 8008 bound_to 7997
  155.8520  140.3457  155.5678 H   0  0  0  0  0  0  0  0  0  0  0  0  # atno 8009 bound_to 7997
  155.7973  140.0865  157.1967 H   0  0  0  0  0  0  0  0  0  0  0  0  # atno 8010 bound_to 7997
  140.3080  144.2854  150.6205 H   0  0  0  0  0  0  0  0  0  0  0  0  # atno 10167 bound_to 10162
  157.1862  131.0644  151.2104 H   0  0  0  0  0  0  0  0  0  0  0  0  # atno 10718 bound_to 10713
  154.4566  135.5904  153.6227 H   0  0  0  0  0  0  0  0  0  0  0  0  # atno 10763 bound_to 10752
  152.9819  135.6034  154.3538 H   0  0  0  0  0  0  0  0  0  0  0  0  # atno 10764 bound_to 10752
  154.3405  135.2841  155.2404 H   0  0  0  0  0  0  0  0  0  0  0  0  # atno 10765 bound_to 10752
  140.3744  134.1988  155.7665 H   0  0  0  0  0  0  0  0  0  0  0  0  # atno 11005 bound_to 11000
  145.5376  141.0423  143.2348 LP  0  0  0  0  0  0  0  0  0  0  0  0  # atno 17320 bound_to 7965
  144.7637  139.6895  143.7223 LP  0  0  0  0  0  0  0  0  0  0  0  0  # atno 17321 bound_to 7965
  140.5593  143.2194  151.7793 LP  0  0  0  0  0  0  0  0  0  0  0  0  # atno 17342 bound_to 10162
  139.4900  144.4371  151.9807 LP  0  0  0  0  0  0  0  0  0  0  0  0  # atno 17343 bound_to 10162
  157.3905  130.7279  149.6694 LP  0  0  0  0  0  0  0  0  0  0  0  0  # atno 17370 bound_to 10713
  155.9717  130.4148  150.4149 LP  0  0  0  0  0  0  0  0  0  0  0  0  # atno 17371 bound_to 10713
  141.1944  133.8129  157.0758 LP  0  0  0  0  0  0  0  0  0  0  0  0  # atno 17394 bound_to 11000
  140.0527  134.9797  157.1165 LP  0  0  0  0  0  0  0  0  0  0  0  0  # atno 17395 bound_to 11000

$$$$
