AV-unprocessed.smi:195|AV-procd|sdf|1525|dock4
  -GOLD-   2262019373D 1   1.00000     0.00000
 Structure written by MMmdl.
 45 48  0  0  0  0  0  0  0  0  1 V2000
  145.8420  137.5680  154.6150 N   0  0  0  0  0  0  0  0  0  0  0  0
  146.6918  138.2745  154.2721 C   0  0  0  0  0  0  0  0  0  0  0  0
  147.7733  139.1726  153.8359 C   0  0  0  0  0  0  0  0  0  0  0  0
  147.7794  140.5171  154.5688 C   0  0  0  0  0  0  0  0  0  0  0  0
  146.5047  141.0603  154.2938 O   0  0  0  0  0  0  0  0  0  0  0  0
  148.1749  140.5173  156.0480 C   0  0  0  0  0  0  0  0  0  0  0  0
  149.3831  141.2567  155.6982 N   0  0  0  0  0  0  0  0  0  0  0  0
  150.5816  140.5051  155.8622 C   0  0  0  0  0  0  0  0  0  0  0  0
  151.2516  139.9856  154.7978 N   0  0  0  0  0  0  0  0  0  0  0  0
  152.3735  139.2801  154.9697 C   0  0  0  0  0  0  0  0  0  0  0  0
  153.0000  138.9758  156.1069 N   0  0  0  0  0  0  0  0  0  0  0  0
  152.3393  139.4913  157.1817 C   0  0  0  0  0  0  0  0  0  0  0  0
  151.1376  140.2538  157.1458 C   0  0  0  0  0  0  0  0  0  0  0  0
  150.7584  140.6009  158.4366 N   0  0  0  0  0  0  0  0  0  0  0  0
  151.6855  140.0784  159.1927 C   0  0  0  0  0  0  0  0  0  0  0  0
  152.6729  139.3945  158.5209 N   0  0  0  0  0  0  0  0  0  0  0  0
  153.8176  138.7237  159.1124 C   0  0  0  0  0  0  0  0  0  0  0  0
  153.4101  137.7033  160.1926 C   0  0  1  0  0  0  0  0  0  0  0  0
  153.3367  136.4144  159.6138 O   0  0  0  0  0  0  0  0  0  0  0  0
  154.4108  137.6665  161.3619 C   0  0  2  0  0  0  0  0  0  0  0  0
  153.9256  136.8946  162.5916 C   0  0  0  0  0  0  0  0  0  0  0  0
  154.6653  137.5479  163.7501 C   0  0  0  0  0  0  0  0  0  0  0  0
  155.2669  138.8169  163.1420 C   0  0  0  0  0  0  0  0  0  0  0  0
  154.6085  138.9679  161.8932 O   0  0  0  0  0  0  0  0  0  0  0  0
  148.9520  141.4715  154.3197 C   0  0  0  0  0  0  0  0  0  0  0  0
  148.7191  138.6462  153.9698 H   0  0  0  0  0  0  0  0  0  0  0  0
  147.6552  139.3098  152.7624 H   0  0  0  0  0  0  0  0  0  0  0  0
  145.9794  140.9387  155.0702 H   0  0  0  0  0  0  0  0  0  0  0  0
  147.5080  141.1068  156.6784 H   0  0  0  0  0  0  0  0  0  0  0  0
  148.3534  139.5249  156.4655 H   0  0  0  0  0  0  0  0  0  0  0  0
  152.8340  138.9061  154.0670 H   0  0  0  0  0  0  0  0  0  0  0  0
  151.6749  140.1765  160.2687 H   0  0  0  0  0  0  0  0  0  0  0  0
  154.3891  138.2360  158.3214 H   0  0  0  0  0  0  0  0  0  0  0  0
  154.4696  139.4861  159.5400 H   0  0  0  0  0  0  0  0  0  0  0  0
  152.4198  137.9580  160.5726 H   0  0  0  0  0  0  0  0  0  0  0  0
  154.1467  136.2446  159.1579 H   0  0  0  0  0  0  0  0  0  0  0  0
  155.3736  137.2718  161.0301 H   0  0  0  0  0  0  0  0  0  0  0  0
  152.8515  137.0295  162.7248 H   0  0  0  0  0  0  0  0  0  0  0  0
  154.1206  135.8245  162.5152 H   0  0  0  0  0  0  0  0  0  0  0  0
  153.9760  137.7828  164.5618 H   0  0  0  0  0  0  0  0  0  0  0  0
  155.4470  136.9006  164.1490 H   0  0  0  0  0  0  0  0  0  0  0  0
  155.1249  139.6944  163.7732 H   0  0  0  0  0  0  0  0  0  0  0  0
  156.3368  138.6899  162.9699 H   0  0  0  0  0  0  0  0  0  0  0  0
  149.6571  141.1418  153.5555 H   0  0  0  0  0  0  0  0  0  0  0  0
  148.6407  142.5035  154.1538 H   0  0  0  0  0  0  0  0  0  0  0  0
  1  2  3  0  0  0  0
  2  3  1  0  0  0  0
  3  4  1  0  0  0  0
  3 26  1  0  0  0  0
  3 27  1  0  0  0  0
  4 25  1  0  0  0  0
  4  5  1  0  0  0  0
  4  6  1  0  0  0  0
  5 28  1  0  0  0  0
  6  7  1  0  0  0  0
  6 29  1  0  0  0  0
  6 30  1  0  0  0  0
  7  8  1  0  0  0  0
  7 25  1  0  0  0  0
  8 13  1  0  0  0  0
  8  9  2  0  0  0  0
  9 10  1  0  0  0  0
 10 11  2  0  0  0  0
 10 31  1  0  0  0  0
 11 12  1  0  0  0  0
 12 16  1  0  0  0  0
 12 13  2  0  0  0  0
 13 14  1  0  0  0  0
 14 15  2  0  0  0  0
 15 16  1  0  0  0  0
 15 32  1  0  0  0  0
 16 17  1  0  0  0  0
 17 18  1  0  0  0  0
 17 33  1  0  0  0  0
 17 34  1  0  0  0  0
 18 19  1  0  0  0  0
 18 20  1  0  0  0  0
 18 35  1  0  0  0  0
 19 36  1  0  0  0  0
 20 24  1  0  0  0  0
 20 21  1  0  0  0  0
 20 37  1  0  0  0  0
 21 22  1  0  0  0  0
 21 38  1  0  0  0  0
 21 39  1  0  0  0  0
 22 23  1  0  0  0  0
 22 40  1  0  0  0  0
 22 41  1  0  0  0  0
 23 24  1  0  0  0  0
 23 42  1  0  0  0  0
 23 43  1  0  0  0  0
 25 44  1  0  0  0  0
 25 45  1  0  0  0  0
M  END
> <s_m_source_file>
AV-unprocessed.smi

> <i_m_source_file_index>
195

> <i_lp_mmshare_version>
43012

> <i_f3d_flags>
0

> <s_epik_input>
TiNDW0NIMl1DMShbT0hdKVtDSDJdTihbQ0gyXTEpYyhuW2NIXW4yKWMoYzIzKW5bY0hdbjNbQ0gyXVtDQEhdKFtPSF0pW0NAQEhdNFtDSDJdW0NIMl1bQ0gyXU80

> <s_epik_cmdline>
J2VwaWtfcHl0aG9uJywgJy1waCcsICc3LjAnLCAnLXRuJywgJzgnLCAnLW1hJywgJzIwMCcsICctbWV0YWxfYmluZGluZycsICctaW1hZScsICc8aW5maWxlLm1hZT4nLCAnLW9tYWUnLCAnPG91dGZpbGUubWFlPic=

> <r_lp_tautomer_probability>
1

> <r_epik_Ionization_Penalty>
0.00307146

> <r_epik_Ionization_Penalty_Charging>
0

> <r_epik_Ionization_Penalty_Neutral>
0.00307146

> <r_epik_State_Penalty>
0.0020279

> <r_epik_Charging_Adjusted_Penalty>
0.0020279

> <i_epik_Tot_Q>
0

> <i_epik_Tot_abs_Q>
0

> <r_epik_Metal_State_Penalty>
-0

> <b_epik_Metal_Only>
0

> <s_lp_Force_Field>
OPLS_2005

> <r_lp_Energy>
44.0633

> <b_lp_Chiralities_Consistent>
1

> <s_lp_Variant>
AV-unprocessed.smi:195-2

> <Gold.Version>
5.8.1

> <Gold.Id.Protein>
6NUR|6NUR_protein|mol2

> <Gold.PLP.Fitness>
42.0026

> <Gold.PLP.PLP>
-34.5288

> <Gold.PLP.part.hbond>
-3.0000

> <Gold.PLP.part.metal>
0.0000

> <Gold.PLP.part.buried>
-4.1204

> <Gold.PLP.part.nonpolar>
-28.0436

> <Gold.PLP.part.repulsive>
0.2327

> <Gold.PLP.ligand.clash>
0.0000

> <Gold.PLP.ligand.torsion>
0.8491

> <Gold.PLP.Chemscore.Hbond>
2.9600

> <Gold.PLP.Chemscore.CHOScore>
0.0000

> <Gold.PLP.Chemscore.Metal>
0.0000

> <Gold.Chemscore.Hbonds>
donor molecule, donor type, donor heavy atom, donor atom, acceptor molecule, acceptor atom, score
      P1  H  6896  6907       L1    19  1.00
      P1  H  7989  7998       L1     9  1.00
      P1  H  7997  8008       L1    11  0.96

> <Gold.PLP.Chemscore.Internal.Correction>
0.2920

> <Gold.Rescore>
     Score         DG    S(hbond)    S(metal)    S(lipo)     H(rot)  DE(clash)    DE(int)     intcor
      8.78      -9.68       1.80        0.00      65.94       3.72       0.18       0.72       ----

> <Gold.Chemscore.Fitness>
8.7757

> <Gold.Chemscore.DG>
-9.6755

> <Gold.Chemscore.ZeroCoef>
-5.4800

> <Gold.Chemscore.Hbond>
1.7984

> <Gold.Chemscore.Metal>
0.0000

> <Gold.Chemscore.Lipo>
65.9369

> <Gold.Chemscore.Internal_Hbond>
0.0000

> <Gold.Chemscore.DEClash>
0.1808

> <Gold.Chemscore.DEInternal>
0.7191

> <Gold.Chemscore.Rot>
3.7210

> <Gold.Chemscore.Internal.Correction>
   9.000000E+99

> <Gold.Chemscore.Hbonds>
donor molecule, donor type, donor heavy atom, donor atom, acceptor molecule, acceptor atom, score
      P1  H  6896  6907       L1    19  0.94
      P1  H  7989  7998       L1     9  0.30
      P1  H  7997  8008       L1    11  0.06

> <Gold.Chemscore.Hbond.Weighted>
-6.0065

> <Gold.Chemscore.Metal.Weighted>
-0.0000

> <Gold.Chemscore.Lipo.Weighted>
-7.7146

> <Gold.Chemscore.Internal_Hbond.Weighted>
0.0000

> <Gold.Chemscore.DEClash.Weighted>
0.1808

> <Gold.Chemscore.DEInternal.Weighted>
0.7191

> <Gold.Chemscore.Rot.Weighted>
9.5256

> <Gold.Chemscore.Internal.Correction.Weighted>
   9.000000E+99

> <Gold.Protein.RotatedTorsions>
[ 6907 6896 6895 6894 ] final   42.77 input  -60.11 | X-H torsion
[ 7974 7965 7964 7962 ] final  127.51 input  175.53 | X-H torsion
[ 8008 7997 7996 7995 ] final  -22.54 input   59.86 | X-H torsion
[ 10167 10162 10161 10158 ] final -145.66 input  -65.29 | X-H torsion
[ 10718 10713 10712 10709 ] final  138.48 input   66.30 | X-H torsion
[ 10763 10752 10751 10750 ] final   28.54 input  -60.55 | X-H torsion
[ 11005 11000 10999 10996 ] final   18.74 input  -57.11 | X-H torsion

> <Gold.Protein.ActiveResidues>
 VAL166  LYS551  ARG553  GLY616  TRP617  ASP618  TYR619  PRO620  LYS621  CYS622 
 ASP623  PHE694  ASN695  SER759  ASP760  ASP761  ALA762  ILE779  LEU786  VAL792 
 PHE793  MET794  SER795  GLU796  ALA797  LYS798  CYS799  TRP800  GLU811  SER814 

> <Gold.Protein.RotatedAtoms>
  152.2119  134.8493  160.0496 H   0  0  0  0  0  0  0  0  0  0  0  0  # atno 6907 bound_to 6896
  151.9308  133.3605  159.3938 H   0  0  0  0  0  0  0  0  0  0  0  0  # atno 6908 bound_to 6896
  150.6978  134.4464  159.5360 H   0  0  0  0  0  0  0  0  0  0  0  0  # atno 6909 bound_to 6896
  145.0498  139.3893  143.5060 H   0  0  0  0  0  0  0  0  0  0  0  0  # atno 7974 bound_to 7965
  154.4638  140.2005  156.0173 H   0  0  0  0  0  0  0  0  0  0  0  0  # atno 8008 bound_to 7997
  156.0889  140.3261  155.7761 H   0  0  0  0  0  0  0  0  0  0  0  0  # atno 8009 bound_to 7997
  155.4989  140.0552  157.2933 H   0  0  0  0  0  0  0  0  0  0  0  0  # atno 8010 bound_to 7997
  139.7785  143.8135  152.2635 H   0  0  0  0  0  0  0  0  0  0  0  0  # atno 10167 bound_to 10162
  157.4248  131.1042  151.0314 H   0  0  0  0  0  0  0  0  0  0  0  0  # atno 10718 bound_to 10713
  153.0486  135.6511  154.0753 H   0  0  0  0  0  0  0  0  0  0  0  0  # atno 10763 bound_to 10752
  154.0446  135.2900  155.3351 H   0  0  0  0  0  0  0  0  0  0  0  0  # atno 10764 bound_to 10752
  154.6759  135.5338  153.8265 H   0  0  0  0  0  0  0  0  0  0  0  0  # atno 10765 bound_to 10752
  140.4214  134.1515  155.7673 H   0  0  0  0  0  0  0  0  0  0  0  0  # atno 11005 bound_to 11000
  146.3517  140.0142  142.8664 LP  0  0  0  0  0  0  0  0  0  0  0  0  # atno 17320 bound_to 7965
  145.1542  140.9639  143.4415 LP  0  0  0  0  0  0  0  0  0  0  0  0  # atno 17321 bound_to 7965
  139.8191  144.7303  150.9596 LP  0  0  0  0  0  0  0  0  0  0  0  0  # atno 17342 bound_to 10162
  140.7817  143.4176  151.0892 LP  0  0  0  0  0  0  0  0  0  0  0  0  # atno 17343 bound_to 10162
  157.1232  130.6070  149.5510 LP  0  0  0  0  0  0  0  0  0  0  0  0  # atno 17370 bound_to 10713
  155.9893  130.4939  150.7207 LP  0  0  0  0  0  0  0  0  0  0  0  0  # atno 17371 bound_to 10713
  141.1782  133.8469  157.1348 LP  0  0  0  0  0  0  0  0  0  0  0  0  # atno 17394 bound_to 11000
  140.0197  134.9951  157.0567 LP  0  0  0  0  0  0  0  0  0  0  0  0  # atno 17395 bound_to 11000

$$$$
