AV-unprocessed.smi:1878|AV-procd|sdf|7630|dock5
  -GOLD-   22720 9353D 1   1.00000     0.00000
 Structure written by MMmdl.
 35 36  0  0  0  0  0  0  0  0  3 V2000
  152.0588  137.2444  155.4139 O   0  0  0  0  0  0  0  0  0  0  0  0
  150.9929  137.4546  154.8345 C   0  0  0  0  0  0  0  0  0  0  0  0
  150.2505  136.4132  154.4373 N   0  0  0  0  0  0  0  0  0  0  0  0
  150.5984  135.0100  154.6292 C   0  0  0  0  0  0  0  0  0  0  0  0
  149.4231  134.2242  155.2284 C   0  0  0  0  0  0  0  0  0  0  0  0
  148.3377  134.4151  154.4793 F   0  0  0  0  0  0  0  0  0  0  0  0
  149.7012  132.9206  155.2545 F   0  0  0  0  0  0  0  0  0  0  0  0
  149.1669  134.6441  156.4676 F   0  0  0  0  0  0  0  0  0  0  0  0
  150.4338  138.6520  154.5244 N   0  5  0  0  0  0  0  0  0  0  0  0
  150.5295  139.8018  155.2264 C   0  0  0  0  0  0  0  0  0  0  0  0
  151.4364  139.8172  156.3125 C   0  0  0  0  0  0  0  0  0  0  0  0
  151.6060  140.9684  157.1070 C   0  0  0  0  0  0  0  0  0  0  0  0
  150.8577  142.1267  156.8090 C   0  0  0  0  0  0  0  0  0  0  0  0
  150.9458  143.3243  157.5322 N   0  0  0  0  0  0  0  0  0  0  0  0
  152.2800  143.8941  157.6225 C   0  0  0  0  0  0  0  0  0  0  0  0
  152.2154  144.9088  158.7668 C   0  0  0  0  0  0  0  0  0  0  0  0
  151.0142  144.4718  159.6136 C   0  0  0  0  0  0  0  0  0  0  0  0
  150.4530  143.2410  158.8967 C   0  0  0  0  0  0  0  0  0  0  0  0
  149.9967  142.0942  155.7727 N   0  3  0  0  0  0  0  0  0  0  0  0
  149.8105  141.0064  154.9938 C   0  0  0  0  0  0  0  0  0  0  0  0
  149.3796  136.6084  153.9655 H   0  0  0  0  0  0  0  0  0  0  0  0
  150.8851  134.5754  153.6703 H   0  0  0  0  0  0  0  0  0  0  0  0
  151.4660  134.9395  155.2870 H   0  0  0  0  0  0  0  0  0  0  0  0
  152.0126  138.9328  156.5447 H   0  0  0  0  0  0  0  0  0  0  0  0
  152.3016  140.9518  157.9328 H   0  0  0  0  0  0  0  0  0  0  0  0
  153.0169  143.1225  157.8487 H   0  0  0  0  0  0  0  0  0  0  0  0
  152.5678  144.3679  156.6834 H   0  0  0  0  0  0  0  0  0  0  0  0
  153.1431  144.9283  159.3395 H   0  0  0  0  0  0  0  0  0  0  0  0
  152.0465  145.9123  158.3741 H   0  0  0  0  0  0  0  0  0  0  0  0
  151.2930  144.2433  160.6428 H   0  0  0  0  0  0  0  0  0  0  0  0
  150.2695  145.2682  159.6405 H   0  0  0  0  0  0  0  0  0  0  0  0
  149.3628  143.2270  158.9191 H   0  0  0  0  0  0  0  0  0  0  0  0
  150.8110  142.3298  159.3784 H   0  0  0  0  0  0  0  0  0  0  0  0
  149.0838  141.1574  154.2117 H   0  0  0  0  0  0  0  0  0  0  0  0
  149.4569  142.9340  155.5640 H   0  0  0  0  0  0  0  0  0  0  0  0
  1  2  2  0  0  0  0
  2  3  1  0  0  0  0
  2  9  1  0  0  0  0
  3  4  1  0  0  0  0
  3 21  1  0  0  0  0
  4  5  1  0  0  0  0
  4 22  1  0  0  0  0
  4 23  1  0  0  0  0
  5  6  1  0  0  0  0
  5  7  1  0  0  0  0
  5  8  1  0  0  0  0
  9 10  1  0  0  0  0
 10 20  1  0  0  0  0
 10 11  2  0  0  0  0
 11 12  1  0  0  0  0
 11 24  1  0  0  0  0
 12 13  2  0  0  0  0
 12 25  1  0  0  0  0
 13 14  1  0  0  0  0
 13 19  1  0  0  0  0
 14 18  1  0  0  0  0
 14 15  1  0  0  0  0
 15 16  1  0  0  0  0
 15 26  1  0  0  0  0
 15 27  1  0  0  0  0
 16 17  1  0  0  0  0
 16 28  1  0  0  0  0
 16 29  1  0  0  0  0
 17 18  1  0  0  0  0
 17 30  1  0  0  0  0
 17 31  1  0  0  0  0
 18 32  1  0  0  0  0
 18 33  1  0  0  0  0
 19 20  2  0  0  0  0
 19 35  1  0  0  0  0
 20 34  1  0  0  0  0
M  CHG  1   9  -1
M  CHG  1  19   1
M  END
> <s_m_source_file>
AV-unprocessed.smi

> <i_m_source_file_index>
1878

> <i_lp_mmshare_version>
43012

> <i_f3d_flags>
0

> <s_epik_input>
RkMoRikoRilbQ0gyXVtOSF1DKD1PKVtOSF1jMVtjSF1bY0hdYyhuW2NIXTEpTjJbQ0gyXVtDSDJdW0NIMl1bQ0gyXTI=

> <s_epik_cmdline>
J2VwaWtfcHl0aG9uJywgJy1waCcsICc3LjAnLCAnLXRuJywgJzgnLCAnLW1hJywgJzIwMCcsICctbWV0YWxfYmluZGluZycsICctaW1hZScsICc8aW5maWxlLm1hZT4nLCAnLW9tYWUnLCAnPG91dGZpbGUubWFlPic=

> <r_lp_tautomer_probability>
0.999994

> <r_epik_Ionization_Penalty>
6.00991

> <r_epik_Ionization_Penalty_Charging>
6.00991

> <r_epik_Ionization_Penalty_Neutral>
1.33916e-07

> <r_epik_State_Penalty>
7.27363

> <r_epik_Charging_Adjusted_Penalty>
13.2835

> <i_epik_Tot_Q>
0

> <i_epik_Tot_abs_Q>
2

> <r_epik_Metal_State_Penalty>
3.28277

> <b_epik_Metal_Only>
1

> <s_lp_Force_Field>
OPLS_2005

> <r_lp_Energy>
31.9355

> <b_lp_Chiralities_Consistent>
1

> <s_lp_Variant>
AV-unprocessed.smi:1878-5

> <Gold.Version>
5.8.1

> <Gold.Id.Protein>
6NUR|6NUR_protein|mol2

> <Gold.PLP.Fitness>
45.6732

> <Gold.PLP.PLP>
-36.6859

> <Gold.PLP.part.hbond>
-3.7490

> <Gold.PLP.part.metal>
0.0000

> <Gold.PLP.part.buried>
-4.4500

> <Gold.PLP.part.nonpolar>
-29.8495

> <Gold.PLP.part.repulsive>
0.7999

> <Gold.PLP.ligand.clash>
0.0000

> <Gold.PLP.ligand.torsion>
0.3837

> <Gold.PLP.Chemscore.Hbond>
3.2266

> <Gold.PLP.Chemscore.CHOScore>
0.0000

> <Gold.PLP.Chemscore.Metal>
0.0000

> <Gold.Chemscore.Hbonds>
donor molecule, donor type, donor heavy atom, donor atom, acceptor molecule, acceptor atom, score
      L1  H     3    21       P1  7948  0.34
      L1  H    19    35       P1  8028  2.00
      P1  H 10752 10765       L1     1  0.88

> <Gold.PLP.Chemscore.Internal.Correction>
0.0748

> <Gold.Rescore>
     Score         DG    S(hbond)    S(metal)    S(lipo)     H(rot)  DE(clash)    DE(int)     intcor
     13.65     -15.40       1.11        0.00      82.31       1.33       0.04       1.72       ----

> <Gold.Chemscore.Fitness>
13.6475

> <Gold.Chemscore.DG>
-15.4048

> <Gold.Chemscore.ZeroCoef>
-5.4800

> <Gold.Chemscore.Hbond>
1.1089

> <Gold.Chemscore.Metal>
0.0000

> <Gold.Chemscore.Lipo>
82.3096

> <Gold.Chemscore.Internal_Hbond>
0.0000

> <Gold.Chemscore.DEClash>
0.0402

> <Gold.Chemscore.DEInternal>
1.7171

> <Gold.Chemscore.Rot>
1.3317

> <Gold.Chemscore.Internal.Correction>
   9.000000E+99

> <Gold.Chemscore.Hbonds>
donor molecule, donor type, donor heavy atom, donor atom, acceptor molecule, acceptor atom, score
      L1  H     3    21       P1  7948  0.32
      L1  H    19    35       P1  8028  1.00
      P1  H 10752 10765       L1     1  0.73

> <Gold.Chemscore.Hbond.Weighted>
-3.7038

> <Gold.Chemscore.Metal.Weighted>
-0.0000

> <Gold.Chemscore.Lipo.Weighted>
-9.6302

> <Gold.Chemscore.Internal_Hbond.Weighted>
0.0000

> <Gold.Chemscore.DEClash.Weighted>
0.0402

> <Gold.Chemscore.DEInternal.Weighted>
1.7171

> <Gold.Chemscore.Rot.Weighted>
3.4092

> <Gold.Chemscore.Internal.Correction.Weighted>
   9.000000E+99

> <Gold.Protein.RotatedTorsions>
[ 6907 6896 6895 6894 ] final  -65.37 input  -60.11 | X-H torsion
[ 7974 7965 7964 7962 ] final -124.25 input  175.53 | X-H torsion
[ 8008 7997 7996 7995 ] final    0.80 input   59.86 | X-H torsion
[ 10167 10162 10161 10158 ] final   85.16 input  -65.29 | X-H torsion
[ 10718 10713 10712 10709 ] final  109.57 input   66.30 | X-H torsion
[ 10763 10752 10751 10750 ] final -163.64 input  -60.55 | X-H torsion
[ 11005 11000 10999 10996 ] final -131.85 input  -57.11 | X-H torsion

> <Gold.Protein.ActiveResidues>
 VAL166  LYS551  ARG553  GLY616  TRP617  ASP618  TYR619  PRO620  LYS621  CYS622 
 ASP623  PHE694  ASN695  SER759  ASP760  ASP761  ALA762  ILE779  LEU786  VAL792 
 PHE793  MET794  SER795  GLU796  ALA797  LYS798  CYS799  TRP800  GLU811  SER814 

> <Gold.Protein.RotatedAtoms>
  150.7528  134.6169  159.6115 H   0  0  0  0  0  0  0  0  0  0  0  0  # atno 6907 bound_to 6896
  152.3487  134.7032  160.0252 H   0  0  0  0  0  0  0  0  0  0  0  0  # atno 6908 bound_to 6896
  151.7460  133.3288  159.3415 H   0  0  0  0  0  0  0  0  0  0  0  0  # atno 6909 bound_to 6896
  145.0101  140.7898  143.4444 H   0  0  0  0  0  0  0  0  0  0  0  0  # atno 7974 bound_to 7965
  154.6722  140.2614  155.6995 H   0  0  0  0  0  0  0  0  0  0  0  0  # atno 8008 bound_to 7997
  156.2664  140.2827  156.1158 H   0  0  0  0  0  0  0  0  0  0  0  0  # atno 8009 bound_to 7997
  155.1151  140.0376  157.2725 H   0  0  0  0  0  0  0  0  0  0  0  0  # atno 8010 bound_to 7997
  139.9006  144.6332  150.8641 H   0  0  0  0  0  0  0  0  0  0  0  0  # atno 10167 bound_to 10162
  157.6535  131.0916  150.6473 H   0  0  0  0  0  0  0  0  0  0  0  0  # atno 10718 bound_to 10713
  154.7103  135.3005  154.9207 H   0  0  0  0  0  0  0  0  0  0  0  0  # atno 10763 bound_to 10752
  154.0110  135.6695  153.4769 H   0  0  0  0  0  0  0  0  0  0  0  0  # atno 10764 bound_to 10752
  153.0750  135.5040  154.8298 H   0  0  0  0  0  0  0  0  0  0  0  0  # atno 10765 bound_to 10752
  140.9222  134.1429  157.4304 H   0  0  0  0  0  0  0  0  0  0  0  0  # atno 11005 bound_to 11000
  145.2035  139.2240  143.5180 LP  0  0  0  0  0  0  0  0  0  0  0  0  # atno 17320 bound_to 7965
  146.3468  140.1858  142.8589 LP  0  0  0  0  0  0  0  0  0  0  0  0  # atno 17321 bound_to 7965
  140.7707  143.3440  151.2150 LP  0  0  0  0  0  0  0  0  0  0  0  0  # atno 17342 bound_to 10162
  139.7029  143.9504  152.2913 LP  0  0  0  0  0  0  0  0  0  0  0  0  # atno 17343 bound_to 10162
  156.6781  130.4559  149.5636 LP  0  0  0  0  0  0  0  0  0  0  0  0  # atno 17370 bound_to 10713
  156.1949  130.6583  151.1102 LP  0  0  0  0  0  0  0  0  0  0  0  0  # atno 17371 bound_to 10713
  139.8778  134.9975  156.5852 LP  0  0  0  0  0  0  0  0  0  0  0  0  # atno 17394 bound_to 11000
  140.7973  133.8534  155.8696 LP  0  0  0  0  0  0  0  0  0  0  0  0  # atno 17395 bound_to 11000

$$$$
