AV-unprocessed.smi:151|AV-procd|sdf|1244|dock8
  -GOLD-   2262018463D 1   1.00000     0.00000
 Structure written by MMmdl.
 56 59  0  0  0  0  0  0  0  0  1 V2000
  152.6447  144.0460  158.0271 C   0  0  0  0  0  0  0  0  0  0  0  0
  151.3864  143.2911  157.5665 C   0  0  0  0  0  0  0  0  0  0  0  0
  151.1912  141.8865  158.1957 C   0  0  2  0  0  0  0  0  0  0  0  0
  152.4872  141.0514  158.1060 C   0  0  0  0  0  0  0  0  0  0  0  0
  152.2959  139.7487  158.6508 O   0  0  0  0  0  0  0  0  0  0  0  0
  151.2472  138.9878  158.0470 C   0  0  0  0  0  0  0  0  0  0  0  0
  151.5733  138.6289  156.5810 C   0  0  0  0  0  0  0  0  0  0  0  0
  151.1473  137.6969  158.8744 C   0  0  0  0  0  0  0  0  0  0  0  0
  149.9338  139.7861  158.1646 C   0  0  0  0  0  0  0  0  0  0  0  0
  150.0715  141.1326  157.6188 N   0  0  0  0  0  0  0  0  0  0  0  0
  148.8594  141.7335  157.5623 C   0  0  0  0  0  0  0  0  0  0  0  0
  148.1960  141.8394  156.3805 N   0  0  0  0  0  0  0  0  0  0  0  0
  147.0106  142.4545  156.3344 C   0  0  0  0  0  0  0  0  0  0  0  0
  146.3295  143.0298  157.3275 N   0  0  0  0  0  0  0  0  0  0  0  0
  147.0004  142.9390  158.5122 C   0  0  0  0  0  0  0  0  0  0  0  0
  148.2624  142.3134  158.7126 C   0  0  0  0  0  0  0  0  0  0  0  0
  148.6408  142.4131  160.0448 N   0  0  0  0  0  0  0  0  0  0  0  0
  147.6553  143.0607  160.6037 C   0  0  0  0  0  0  0  0  0  0  0  0
  146.6272  143.4174  159.7586 N   0  0  0  0  0  0  0  0  0  0  0  0
  145.4319  144.1257  160.1244 C   0  0  0  0  0  0  0  0  0  0  0  0
  144.4653  144.6509  159.0585 C   0  0  0  0  0  0  0  0  0  0  0  0
  144.1997  145.9126  159.9137 C   0  0  0  0  0  0  0  0  0  0  0  0
  144.2125  147.2591  159.1653 C   0  0  0  0  0  0  0  0  0  0  0  0
  143.2101  147.3460  158.1723 O   0  0  0  0  0  0  0  0  0  0  0  0
  142.8885  145.9195  160.7273 C   0  0  0  0  0  0  0  0  0  0  0  0
  142.1941  144.6891  160.6858 O   0  0  0  0  0  0  0  0  0  0  0  0
  145.4847  145.5474  160.6946 C   0  0  0  0  0  0  0  0  0  0  0  0
  152.7217  145.0055  157.5155 H   0  0  0  0  0  0  0  0  0  0  0  0
  153.5530  143.4850  157.8063 H   0  0  0  0  0  0  0  0  0  0  0  0
  152.6279  144.2514  159.0967 H   0  0  0  0  0  0  0  0  0  0  0  0
  150.5107  143.9013  157.7892 H   0  0  0  0  0  0  0  0  0  0  0  0
  151.4068  143.2151  156.4798 H   0  0  0  0  0  0  0  0  0  0  0  0
  150.9752  142.0252  159.2562 H   0  0  0  0  0  0  0  0  0  0  0  0
  152.8485  140.9714  157.0821 H   0  0  0  0  0  0  0  0  0  0  0  0
  153.2825  141.5405  158.6688 H   0  0  0  0  0  0  0  0  0  0  0  0
  150.8220  137.9540  156.1702 H   0  0  0  0  0  0  0  0  0  0  0  0
  152.5409  138.1323  156.5033 H   0  0  0  0  0  0  0  0  0  0  0  0
  151.5968  139.5038  155.9317 H   0  0  0  0  0  0  0  0  0  0  0  0
  150.3462  137.0528  158.5104 H   0  0  0  0  0  0  0  0  0  0  0  0
  150.9452  137.9143  159.9238 H   0  0  0  0  0  0  0  0  0  0  0  0
  152.0765  137.1276  158.8308 H   0  0  0  0  0  0  0  0  0  0  0  0
  149.1306  139.2498  157.6561 H   0  0  0  0  0  0  0  0  0  0  0  0
  149.6428  139.8667  159.2134 H   0  0  0  0  0  0  0  0  0  0  0  0
  146.5411  142.4924  155.3626 H   0  0  0  0  0  0  0  0  0  0  0  0
  147.6530  143.2963  161.6582 H   0  0  0  0  0  0  0  0  0  0  0  0
  144.8952  143.4756  160.8167 H   0  0  0  0  0  0  0  0  0  0  0  0
  144.9614  144.8610  158.1105 H   0  0  0  0  0  0  0  0  0  0  0  0
  143.5930  144.0162  158.8994 H   0  0  0  0  0  0  0  0  0  0  0  0
  144.0651  148.0883  159.8584 H   0  0  0  0  0  0  0  0  0  0  0  0
  145.1750  147.4236  158.6795 H   0  0  0  0  0  0  0  0  0  0  0  0
  142.5868  146.6494  158.3114 H   0  0  0  0  0  0  0  0  0  0  0  0
  143.0860  146.1499  161.7748 H   0  0  0  0  0  0  0  0  0  0  0  0
  142.2114  146.6919  160.3609 H   0  0  0  0  0  0  0  0  0  0  0  0
  141.9263  144.5248  159.7945 H   0  0  0  0  0  0  0  0  0  0  0  0
  145.3854  145.5931  161.7795 H   0  0  0  0  0  0  0  0  0  0  0  0
  146.3658  146.1013  160.3707 H   0  0  0  0  0  0  0  0  0  0  0  0
  1  2  1  0  0  0  0
  1 28  1  0  0  0  0
  1 29  1  0  0  0  0
  1 30  1  0  0  0  0
  2  3  1  0  0  0  0
  2 31  1  0  0  0  0
  2 32  1  0  0  0  0
  3 10  1  0  0  0  0
  3  4  1  0  0  0  0
  3 33  1  0  0  0  0
  4  5  1  0  0  0  0
  4 34  1  0  0  0  0
  4 35  1  0  0  0  0
  5  6  1  0  0  0  0
  6  7  1  0  0  0  0
  6  8  1  0  0  0  0
  6  9  1  0  0  0  0
  7 36  1  0  0  0  0
  7 37  1  0  0  0  0
  7 38  1  0  0  0  0
  8 39  1  0  0  0  0
  8 40  1  0  0  0  0
  8 41  1  0  0  0  0
  9 10  1  0  0  0  0
  9 42  1  0  0  0  0
  9 43  1  0  0  0  0
 10 11  1  0  0  0  0
 11 16  1  0  0  0  0
 11 12  2  0  0  0  0
 12 13  1  0  0  0  0
 13 14  2  0  0  0  0
 13 44  1  0  0  0  0
 14 15  1  0  0  0  0
 15 19  1  0  0  0  0
 15 16  2  0  0  0  0
 16 17  1  0  0  0  0
 17 18  2  0  0  0  0
 18 19  1  0  0  0  0
 18 45  1  0  0  0  0
 19 20  1  0  0  0  0
 20 27  1  0  0  0  0
 20 21  1  0  0  0  0
 20 46  1  0  0  0  0
 21 22  1  0  0  0  0
 21 47  1  0  0  0  0
 21 48  1  0  0  0  0
 22 23  1  0  0  0  0
 22 25  1  0  0  0  0
 22 27  1  0  0  0  0
 23 24  1  0  0  0  0
 23 49  1  0  0  0  0
 23 50  1  0  0  0  0
 24 51  1  0  0  0  0
 25 26  1  0  0  0  0
 25 52  1  0  0  0  0
 25 53  1  0  0  0  0
 26 54  1  0  0  0  0
 27 55  1  0  0  0  0
 27 56  1  0  0  0  0
M  END
> <s_m_source_file>
AV-unprocessed.smi

> <i_m_source_file_index>
151

> <i_lp_mmshare_version>
43012

> <i_f3d_flags>
0

> <s_epik_input>
W0NIM11DMShbQ0gzXSlPW0NIMl1bQ0BASF0oW0NIMl1bQ0gzXSlOKFtDSDJdMSljKG5bY0hdbjIpYyhjMjMpbltjSF1uM1tDSF0oW0NIMl00KVtDSDJdQzQoW0NIMl1bT0hdKVtDSDJdW09IXQ==

> <s_epik_cmdline>
J2VwaWtfcHl0aG9uJywgJy1waCcsICc3LjAnLCAnLXRuJywgJzgnLCAnLW1hJywgJzIwMCcsICctbWV0YWxfYmluZGluZycsICctaW1hZScsICc8aW5maWxlLm1hZT4nLCAnLW9tYWUnLCAnPG91dGZpbGUubWFlPic=

> <r_lp_tautomer_probability>
1

> <r_epik_Ionization_Penalty>
0.000102837

> <r_epik_Ionization_Penalty_Charging>
0

> <r_epik_Ionization_Penalty_Neutral>
0.000102837

> <r_epik_State_Penalty>
-0

> <r_epik_Charging_Adjusted_Penalty>
0

> <i_epik_Tot_Q>
0

> <i_epik_Tot_abs_Q>
0

> <r_epik_Metal_State_Penalty>
-0

> <b_epik_Metal_Only>
0

> <s_lp_Force_Field>
OPLS_2005

> <r_lp_Energy>
52.7657

> <b_lp_Chiralities_Consistent>
1

> <s_lp_Variant>
AV-unprocessed.smi:151-1

> <Gold.Version>
5.8.1

> <Gold.Id.Protein>
6NUR|6NUR_protein|mol2

> <Gold.PLP.Fitness>
46.5294

> <Gold.PLP.PLP>
-39.1213

> <Gold.PLP.part.hbond>
-3.8786

> <Gold.PLP.part.metal>
0.0000

> <Gold.PLP.part.buried>
-4.1716

> <Gold.PLP.part.nonpolar>
-30.8900

> <Gold.PLP.part.repulsive>
0.3808

> <Gold.PLP.ligand.clash>
0.0000

> <Gold.PLP.ligand.torsion>
1.4100

> <Gold.PLP.Chemscore.Hbond>
2.2345

> <Gold.PLP.Chemscore.CHOScore>
1.0000

> <Gold.PLP.Chemscore.Metal>
0.0000

> <Gold.PLP.Chemscore.Internal.Correction>
0.5246

> <Gold.Rescore>
     Score         DG    S(hbond)    S(metal)    S(lipo)     H(rot)  DE(clash)    DE(int)     intcor
      8.83     -13.58       1.87        0.00      87.29       3.26       1.59       3.16       ----

> <Gold.Chemscore.Fitness>
8.8307

> <Gold.Chemscore.DG>
-13.5801

> <Gold.Chemscore.ZeroCoef>
-5.4800

> <Gold.Chemscore.Hbond>
1.8660

> <Gold.Chemscore.Metal>
0.0000

> <Gold.Chemscore.Lipo>
87.2859

> <Gold.Chemscore.Internal_Hbond>
0.0000

> <Gold.Chemscore.DEClash>
1.5900

> <Gold.Chemscore.DEInternal>
3.1594

> <Gold.Chemscore.Rot>
3.2596

> <Gold.Chemscore.Internal.Correction>
   9.000000E+99

> <Gold.Chemscore.Hbond.Weighted>
-6.2323

> <Gold.Chemscore.Metal.Weighted>
-0.0000

> <Gold.Chemscore.Lipo.Weighted>
-10.2125

> <Gold.Chemscore.Internal_Hbond.Weighted>
0.0000

> <Gold.Chemscore.DEClash.Weighted>
1.5900

> <Gold.Chemscore.DEInternal.Weighted>
3.1594

> <Gold.Chemscore.Rot.Weighted>
8.3447

> <Gold.Chemscore.Internal.Correction.Weighted>
   9.000000E+99

> <Gold.Protein.RotatedTorsions>
[ 6907 6896 6895 6894 ] final   83.46 input  -60.11 | X-H torsion
[ 7974 7965 7964 7962 ] final  141.53 input  175.53 | X-H torsion
[ 8008 7997 7996 7995 ] final   24.61 input   59.86 | X-H torsion
[ 10167 10162 10161 10158 ] final -147.20 input  -65.29 | X-H torsion
[ 10718 10713 10712 10709 ] final  105.61 input   66.30 | X-H torsion
[ 10763 10752 10751 10750 ] final  164.87 input  -60.55 | X-H torsion
[ 11005 11000 10999 10996 ] final -114.65 input  -57.11 | X-H torsion

> <Gold.Protein.ActiveResidues>
 VAL166  LYS551  ARG553  GLY616  TRP617  ASP618  TYR619  PRO620  LYS621  CYS622 
 ASP623  PHE694  ASN695  SER759  ASP760  ASP761  ALA762  ILE779  LEU786  VAL792 
 PHE793  MET794  SER795  GLU796  ALA797  LYS798  CYS799  TRP800  GLU811  SER814 

> <Gold.Protein.RotatedAtoms>
  152.5328  134.2892  159.9036 H   0  0  0  0  0  0  0  0  0  0  0  0  # atno 6907 bound_to 6896
  151.2844  133.4188  159.2636 H   0  0  0  0  0  0  0  0  0  0  0  0  # atno 6908 bound_to 6896
  151.0255  134.9516  159.8140 H   0  0  0  0  0  0  0  0  0  0  0  0  # atno 6909 bound_to 6896
  144.9088  139.5321  143.5719 H   0  0  0  0  0  0  0  0  0  0  0  0  # atno 7974 bound_to 7965
  154.9990  140.3123  155.4875 H   0  0  0  0  0  0  0  0  0  0  0  0  # atno 8008 bound_to 7997
  156.2928  140.2235  156.5039 H   0  0  0  0  0  0  0  0  0  0  0  0  # atno 8009 bound_to 7997
  154.7635  140.0457  157.0981 H   0  0  0  0  0  0  0  0  0  0  0  0  # atno 8010 bound_to 7997
  139.7644  143.8330  152.2613 H   0  0  0  0  0  0  0  0  0  0  0  0  # atno 10167 bound_to 10162
  157.6699  131.0831  150.5882 H   0  0  0  0  0  0  0  0  0  0  0  0  # atno 10718 bound_to 10713
  154.3154  135.2756  155.2545 H   0  0  0  0  0  0  0  0  0  0  0  0  # atno 10763 bound_to 10752
  154.4922  135.5830  153.6471 H   0  0  0  0  0  0  0  0  0  0  0  0  # atno 10764 bound_to 10752
  152.9883  135.6137  154.3335 H   0  0  0  0  0  0  0  0  0  0  0  0  # atno 10765 bound_to 10752
  141.0538  133.9644  157.2789 H   0  0  0  0  0  0  0  0  0  0  0  0  # atno 11005 bound_to 11000
  146.3147  139.7877  142.8992 LP  0  0  0  0  0  0  0  0  0  0  0  0  # atno 17320 bound_to 7965
  145.3490  141.0303  143.3349 LP  0  0  0  0  0  0  0  0  0  0  0  0  # atno 17321 bound_to 7965
  139.8345  144.7238  150.9408 LP  0  0  0  0  0  0  0  0  0  0  0  0  # atno 17342 bound_to 10162
  140.7809  143.4039  151.1103 LP  0  0  0  0  0  0  0  0  0  0  0  0  # atno 17343 bound_to 10162
  156.6183  130.4398  149.5832 LP  0  0  0  0  0  0  0  0  0  0  0  0  # atno 17370 bound_to 10713
  156.2376  130.6832  151.1524 LP  0  0  0  0  0  0  0  0  0  0  0  0  # atno 17371 bound_to 10713
  139.9373  135.0195  156.8596 LP  0  0  0  0  0  0  0  0  0  0  0  0  # atno 17394 bound_to 11000
  140.6003  134.0178  155.7534 LP  0  0  0  0  0  0  0  0  0  0  0  0  # atno 17395 bound_to 11000

$$$$
