AV-unprocessed.smi:12|AV-procd|sdf|65|dock9
  -GOLD-   2262015183D 1   1.00000     0.00000
 Structure written by MMmdl.
 41 44  0  0  0  0  0  0  0  0  1 V2000
  146.0274  136.8792  151.6144 C   0  0  0  0  0  0  0  0  0  0  0  0
  146.0547  137.9326  152.7075 C   0  0  0  0  0  0  0  0  0  0  0  0
  146.9588  138.9403  152.7019 C   0  0  0  0  0  0  0  0  0  0  0  0
  146.9449  139.8599  153.7130 N   0  0  0  0  0  0  0  0  0  0  0  0
  145.9751  139.7617  154.7366 C   0  0  0  0  0  0  0  0  0  0  0  0
  145.0771  138.8291  154.8106 N   0  0  0  0  0  0  0  0  0  0  0  0
  145.0595  137.8429  153.8056 C   0  0  0  0  0  0  0  0  0  0  0  0
  144.2335  136.9318  153.8397 O   0  0  0  0  0  0  0  0  0  0  0  0
  146.1364  140.8011  155.6027 O   0  0  0  0  0  0  0  0  0  0  0  0
  147.2488  141.6046  155.1830 C   0  0  1  0  0  0  0  0  0  0  0  0
  148.4367  141.5539  156.1480 C   0  0  1  0  0  0  0  0  0  0  0  0
  148.3454  140.4679  157.0540 O   0  0  0  0  0  0  0  0  0  0  0  0
  149.6334  141.3716  155.2022 C   0  0  1  0  0  0  0  0  0  0  0  0
  150.8989  140.7322  155.7950 C   0  0  0  0  0  0  0  0  0  0  0  0
  151.1561  141.2847  157.0761 O   0  0  0  0  0  0  0  0  0  0  0  0
  152.1450  140.7794  157.8396 C   0  0  0  0  0  0  0  0  0  0  0  0
  152.7909  139.7729  157.5407 O   0  0  0  0  0  0  0  0  0  0  0  0
  152.3794  141.5664  159.0847 C   0  0  0  0  0  0  0  0  0  0  0  0
  151.7747  142.8376  159.2236 C   0  0  0  0  0  0  0  0  0  0  0  0
  151.9731  143.6034  160.3888 C   0  0  0  0  0  0  0  0  0  0  0  0
  152.7796  143.1076  161.4296 C   0  0  0  0  0  0  0  0  0  0  0  0
  153.3876  141.8450  161.3034 C   0  0  0  0  0  0  0  0  0  0  0  0
  153.1905  141.0774  160.1386 C   0  0  0  0  0  0  0  0  0  0  0  0
  149.1099  140.5800  154.1458 O   0  0  0  0  0  0  0  0  0  0  0  0
  147.8182  141.0217  153.8768 C   0  0  1  0  0  0  0  0  0  0  0  0
  146.8039  137.0599  150.8706 H   0  0  0  0  0  0  0  0  0  0  0  0
  145.0641  136.8833  151.1032 H   0  0  0  0  0  0  0  0  0  0  0  0
  146.1899  135.8870  152.0364 H   0  0  0  0  0  0  0  0  0  0  0  0
  147.6933  139.0258  151.9144 H   0  0  0  0  0  0  0  0  0  0  0  0
  146.9328  142.6315  154.9955 H   0  0  0  0  0  0  0  0  0  0  0  0
  148.5230  142.4734  156.7279 H   0  0  0  0  0  0  0  0  0  0  0  0
  148.9080  139.7726  156.7489 H   0  0  0  0  0  0  0  0  0  0  0  0
  149.8943  142.3418  154.7747 H   0  0  0  0  0  0  0  0  0  0  0  0
  150.7956  139.6483  155.8587 H   0  0  0  0  0  0  0  0  0  0  0  0
  151.7497  140.9350  155.1431 H   0  0  0  0  0  0  0  0  0  0  0  0
  151.1508  143.2390  158.4380 H   0  0  0  0  0  0  0  0  0  0  0  0
  151.5049  144.5720  160.4841 H   0  0  0  0  0  0  0  0  0  0  0  0
  152.9310  143.6945  162.3235 H   0  0  0  0  0  0  0  0  0  0  0  0
  154.0062  141.4634  162.1022 H   0  0  0  0  0  0  0  0  0  0  0  0
  153.6718  140.1124  160.0742 H   0  0  0  0  0  0  0  0  0  0  0  0
  147.6999  141.6376  152.9847 H   0  0  0  0  0  0  0  0  0  0  0  0
  1  2  1  0  0  0  0
  1 26  1  0  0  0  0
  1 27  1  0  0  0  0
  1 28  1  0  0  0  0
  2  7  1  0  0  0  0
  2  3  2  0  0  0  0
  3  4  1  0  0  0  0
  3 29  1  0  0  0  0
  4 25  1  0  0  0  0
  4  5  1  0  0  0  0
  5  6  2  0  0  0  0
  5  9  1  0  0  0  0
  6  7  1  0  0  0  0
  7  8  2  0  0  0  0
  9 10  1  0  0  0  0
 10 25  1  0  0  0  0
 10 11  1  0  0  0  0
 10 30  1  0  0  0  0
 11 12  1  0  0  0  0
 11 13  1  0  0  0  0
 11 31  1  0  0  0  0
 12 32  1  0  0  0  0
 13 14  1  0  0  0  0
 13 24  1  0  0  0  0
 13 33  1  0  0  0  0
 14 15  1  0  0  0  0
 14 34  1  0  0  0  0
 14 35  1  0  0  0  0
 15 16  1  0  0  0  0
 16 17  2  0  0  0  0
 16 18  1  0  0  0  0
 18 23  1  0  0  0  0
 18 19  2  0  0  0  0
 19 20  1  0  0  0  0
 19 36  1  0  0  0  0
 20 21  2  0  0  0  0
 20 37  1  0  0  0  0
 21 22  1  0  0  0  0
 21 38  1  0  0  0  0
 22 23  2  0  0  0  0
 22 39  1  0  0  0  0
 23 40  1  0  0  0  0
 24 25  1  0  0  0  0
 25 41  1  0  0  0  0
M  END
> <s_m_source_file>
AV-unprocessed.smi

> <i_m_source_file_index>
12

> <i_lp_mmshare_version>
43012

> <i_f3d_flags>
0

> <s_epik_input>
W0NIM11jKFtjSF0xKWMoPU8pbmMobjEyKU9bQ0BIXTNbQ0BASF0yT1tDQEBIXShbQ0BASF0zW09IXSlbQ0gyXU9DKD1PKWM0W2NIXVtjSF1bY0hdW2NIXVtjSF00

> <s_epik_cmdline>
J2VwaWtfcHl0aG9uJywgJy1waCcsICc3LjAnLCAnLXRuJywgJzgnLCAnLW1hJywgJzIwMCcsICctbWV0YWxfYmluZGluZycsICctaW1hZScsICc8aW5maWxlLm1hZT4nLCAnLW9tYWUnLCAnPG91dGZpbGUubWFlPic=

> <r_lp_tautomer_probability>
0.933681

> <r_epik_Ionization_Penalty>
0.00399549

> <r_epik_Ionization_Penalty_Charging>
3.09373e-09

> <r_epik_Ionization_Penalty_Neutral>
0.00399549

> <r_epik_State_Penalty>
0.00284953

> <r_epik_Charging_Adjusted_Penalty>
0.00284953

> <i_epik_Tot_Q>
0

> <i_epik_Tot_abs_Q>
0

> <r_epik_Metal_State_Penalty>
-0

> <b_epik_Metal_Only>
0

> <s_epik_Chemistry_Notes>
This compound has an ester and may undergo hydrolysis at high or low pH. This compound contains an acetal/aminal-like group ( X-CH(R)-Y where X, Y are N, S, or O) that may be acid/base labile, releasing an aldehyde.

> <s_lp_Force_Field>
OPLS_2005

> <r_lp_Energy>
52.4365

> <b_lp_Chiralities_Consistent>
1

> <s_lp_Variant>
AV-unprocessed.smi:12-5

> <Gold.Version>
5.8.1

> <Gold.Id.Protein>
6NUR|6NUR_protein|mol2

> <Gold.PLP.Fitness>
46.4658

> <Gold.PLP.PLP>
-40.9843

> <Gold.PLP.part.hbond>
-1.0000

> <Gold.PLP.part.metal>
0.0000

> <Gold.PLP.part.buried>
-2.8861

> <Gold.PLP.part.nonpolar>
-38.6951

> <Gold.PLP.part.repulsive>
0.8176

> <Gold.PLP.ligand.clash>
0.0000

> <Gold.PLP.ligand.torsion>
0.2613

> <Gold.PLP.Chemscore.Hbond>
1.0000

> <Gold.PLP.Chemscore.CHOScore>
1.0000

> <Gold.PLP.Chemscore.Metal>
0.0000

> <Gold.Chemscore.Hbonds>
donor molecule, donor type, donor heavy atom, donor atom, acceptor molecule, acceptor atom, score
      P1  H  7997  8010       L1    17  1.00
      L1  C     3    29       P1  7957  1.00

> <Gold.PLP.Chemscore.Internal.Correction>
0.0042

> <Gold.Rescore>
     Score         DG    S(hbond)    S(metal)    S(lipo)     H(rot)  DE(clash)    DE(int)     intcor
     14.15     -15.68       0.97        0.00     107.21       2.18       0.09       1.44       ----

> <Gold.Chemscore.Fitness>
14.1474

> <Gold.Chemscore.DG>
-15.6772

> <Gold.Chemscore.ZeroCoef>
-5.4800

> <Gold.Chemscore.Hbond>
0.9683

> <Gold.Chemscore.Metal>
0.0000

> <Gold.Chemscore.Lipo>
107.2124

> <Gold.Chemscore.Internal_Hbond>
0.0000

> <Gold.Chemscore.DEClash>
0.0922

> <Gold.Chemscore.DEInternal>
1.4376

> <Gold.Chemscore.Rot>
2.1800

> <Gold.Chemscore.Internal.Correction>
   9.000000E+99

> <Gold.Chemscore.Hbonds>
donor molecule, donor type, donor heavy atom, donor atom, acceptor molecule, acceptor atom, score
      P1  H  7997  8010       L1    17  0.87

> <Gold.Chemscore.Hbond.Weighted>
-3.2341

> <Gold.Chemscore.Metal.Weighted>
-0.0000

> <Gold.Chemscore.Lipo.Weighted>
-12.5438

> <Gold.Chemscore.Internal_Hbond.Weighted>
0.0000

> <Gold.Chemscore.DEClash.Weighted>
0.0922

> <Gold.Chemscore.DEInternal.Weighted>
1.4376

> <Gold.Chemscore.Rot.Weighted>
5.5807

> <Gold.Chemscore.Internal.Correction.Weighted>
   9.000000E+99

> <Gold.Protein.RotatedTorsions>
[ 6907 6896 6895 6894 ] final   31.45 input  -60.11 | X-H torsion
[ 7974 7965 7964 7962 ] final   28.25 input  175.53 | X-H torsion
[ 8008 7997 7996 7995 ] final   66.61 input   59.86 | X-H torsion
[ 10167 10162 10161 10158 ] final  130.17 input  -65.29 | X-H torsion
[ 10718 10713 10712 10709 ] final   25.94 input   66.30 | X-H torsion
[ 10763 10752 10751 10750 ] final -161.68 input  -60.55 | X-H torsion
[ 11005 11000 10999 10996 ] final   50.25 input  -57.11 | X-H torsion

> <Gold.Protein.ActiveResidues>
 VAL166  LYS551  ARG553  GLY616  TRP617  ASP618  TYR619  PRO620  LYS621  CYS622 
 ASP623  PHE694  ASN695  SER759  ASP760  ASP761  ALA762  ILE779  LEU786  VAL792 
 PHE793  MET794  SER795  GLU796  ALA797  LYS798  CYS799  TRP800  GLU811  SER814 

> <Gold.Protein.RotatedAtoms>
  152.0604  134.9598  160.0574 H   0  0  0  0  0  0  0  0  0  0  0  0  # atno 6907 bound_to 6896
  152.0963  133.4222  159.4575 H   0  0  0  0  0  0  0  0  0  0  0  0  # atno 6908 bound_to 6896
  150.6838  134.2732  159.4640 H   0  0  0  0  0  0  0  0  0  0  0  0  # atno 6909 bound_to 6896
  146.1739  139.7081  142.8948 H   0  0  0  0  0  0  0  0  0  0  0  0  # atno 7974 bound_to 7965
  155.6801  140.3496  155.4852 H   0  0  0  0  0  0  0  0  0  0  0  0  # atno 8008 bound_to 7997
  155.9614  140.1138  157.0914 H   0  0  0  0  0  0  0  0  0  0  0  0  # atno 8009 bound_to 7997
  154.4144  140.1175  156.5171 H   0  0  0  0  0  0  0  0  0  0  0  0  # atno 8010 bound_to 7997
  139.5443  144.6759  151.4525 H   0  0  0  0  0  0  0  0  0  0  0  0  # atno 10167 bound_to 10162
  157.2002  130.6886  149.6185 H   0  0  0  0  0  0  0  0  0  0  0  0  # atno 10718 bound_to 10713
  154.7282  135.3040  154.8936 H   0  0  0  0  0  0  0  0  0  0  0  0  # atno 10763 bound_to 10752
  153.9787  135.6733  153.4753 H   0  0  0  0  0  0  0  0  0  0  0  0  # atno 10764 bound_to 10752
  153.0894  135.4967  154.8580 H   0  0  0  0  0  0  0  0  0  0  0  0  # atno 10765 bound_to 10752
  140.1033  134.5052  155.8743 H   0  0  0  0  0  0  0  0  0  0  0  0  # atno 11005 bound_to 11000
  145.4265  141.0411  143.2934 LP  0  0  0  0  0  0  0  0  0  0  0  0  # atno 17320 bound_to 7965
  144.8205  139.5799  143.6989 LP  0  0  0  0  0  0  0  0  0  0  0  0  # atno 17321 bound_to 7965
  140.6685  143.8346  150.6970 LP  0  0  0  0  0  0  0  0  0  0  0  0  # atno 17342 bound_to 10162
  140.1763  143.4152  152.1965 LP  0  0  0  0  0  0  0  0  0  0  0  0  # atno 17343 bound_to 10162
  155.9701  130.4585  150.6003 LP  0  0  0  0  0  0  0  0  0  0  0  0  # atno 17370 bound_to 10713
  157.3775  131.0775  151.1505 LP  0  0  0  0  0  0  0  0  0  0  0  0  # atno 17371 bound_to 10713
  141.2111  133.6703  156.6561 LP  0  0  0  0  0  0  0  0  0  0  0  0  # atno 17394 bound_to 11000
  140.3190  134.8023  157.4237 LP  0  0  0  0  0  0  0  0  0  0  0  0  # atno 17395 bound_to 11000

$$$$
