AV-unprocessed.smi:2748|AV-procd|sdf|10583|dock2
  -GOLD-   2272015 33D 1   1.00000     0.00000
 Structure written by MMmdl.
 29 31  0  0  0  0  0  0  0  0  2 V2000
  151.3400  136.3190  154.8175 O   0  0  0  0  0  0  0  0  0  0  0  0
  151.4699  137.0057  155.8299 C   0  0  0  0  0  0  0  0  0  0  0  0
  151.9605  136.5048  157.0017 N   0  5  0  0  0  0  0  0  0  0  0  0
  152.1103  137.2525  158.1387 C   0  0  0  0  0  0  0  0  0  0  0  0
  152.5637  136.7809  159.1820 O   0  0  0  0  0  0  0  0  0  0  0  0
  151.7444  138.5682  158.1132 N   0  0  0  0  0  0  0  0  0  0  0  0
  151.8721  139.4439  159.2858 C   0  0  0  0  0  0  0  0  0  0  0  0
  152.7656  140.6638  158.9922 C   0  0  2  0  0  0  0  0  0  0  0  0
  153.0656  141.5010  160.2642 C   0  0  0  0  0  0  0  0  0  0  0  0
  152.5047  142.8296  159.8958 C   0  0  0  0  0  0  0  0  0  0  0  0
  152.4799  144.0092  160.6591 C   0  0  0  0  0  0  0  0  0  0  0  0
  151.8809  145.1526  160.0860 C   0  0  0  0  0  0  0  0  0  0  0  0
  151.3267  145.0954  158.7843 C   0  0  0  0  0  0  0  0  0  0  0  0
  151.3650  143.8949  158.0396 C   0  0  0  0  0  0  0  0  0  0  0  0
  151.9656  142.7654  158.6234 C   0  0  0  0  0  0  0  0  0  0  0  0
  152.0966  141.5307  158.0550 O   0  0  0  0  0  0  0  0  0  0  0  0
  151.2410  139.1352  156.9303 C   0  0  0  0  0  0  0  0  0  0  0  0
  151.0911  138.4169  155.8006 C   0  0  0  0  0  0  0  0  0  0  0  0
  150.4722  139.1419  154.3595 Cl  0  0  0  0  0  0  0  0  0  0  0  0
  150.8884  139.7796  159.6177 H   0  0  0  0  0  0  0  0  0  0  0  0
  152.2773  138.8803  160.1280 H   0  0  0  0  0  0  0  0  0  0  0  0
  153.7073  140.3427  158.5450 H   0  0  0  0  0  0  0  0  0  0  0  0
  152.5693  141.1131  161.1545 H   0  0  0  0  0  0  0  0  0  0  0  0
  154.1357  141.5771  160.4588 H   0  0  0  0  0  0  0  0  0  0  0  0
  152.9043  144.0405  161.6518 H   0  0  0  0  0  0  0  0  0  0  0  0
  151.8449  146.0765  160.6442 H   0  0  0  0  0  0  0  0  0  0  0  0
  150.8711  145.9763  158.3568 H   0  0  0  0  0  0  0  0  0  0  0  0
  150.9444  143.8455  157.0461 H   0  0  0  0  0  0  0  0  0  0  0  0
  150.9924  140.1843  156.9965 H   0  0  0  0  0  0  0  0  0  0  0  0
  1  2  2  0  0  0  0
  2 18  1  0  0  0  0
  2  3  1  0  0  0  0
  3  4  1  0  0  0  0
  4  5  2  0  0  0  0
  4  6  1  0  0  0  0
  6  7  1  0  0  0  0
  6 17  1  0  0  0  0
  7  8  1  0  0  0  0
  7 20  1  0  0  0  0
  7 21  1  0  0  0  0
  8 16  1  0  0  0  0
  8  9  1  0  0  0  0
  8 22  1  0  0  0  0
  9 10  1  0  0  0  0
  9 23  1  0  0  0  0
  9 24  1  0  0  0  0
 10 15  2  0  0  0  0
 10 11  1  0  0  0  0
 11 12  2  0  0  0  0
 11 25  1  0  0  0  0
 12 13  1  0  0  0  0
 12 26  1  0  0  0  0
 13 14  2  0  0  0  0
 13 27  1  0  0  0  0
 14 15  1  0  0  0  0
 14 28  1  0  0  0  0
 15 16  1  0  0  0  0
 17 18  2  0  0  0  0
 17 29  1  0  0  0  0
 18 19  1  0  0  0  0
M  CHG  1   3  -1
M  END
> <s_m_source_file>
AV-unprocessed.smi

> <i_m_source_file_index>
2748

> <i_lp_mmshare_version>
43012

> <i_f3d_flags>
0

> <s_epik_input>
Tz1jMVtuSF1jKD1PKW4oW2NIXWMxQ2wpW0NIMl1bQ0BIXShbQ0gyXTIpT2MoYzIzKVtjSF1bY0hdW2NIXVtjSF0z

> <s_epik_cmdline>
J2VwaWtfcHl0aG9uJywgJy1waCcsICc3LjAnLCAnLXRuJywgJzgnLCAnLW1hJywgJzIwMCcsICctbWV0YWxfYmluZGluZycsICctaW1hZScsICc8aW5maWxlLm1hZT4nLCAnLW9tYWUnLCAnPG91dGZpbGUubWFlPic=

> <r_lp_tautomer_probability>
1

> <r_epik_Ionization_Penalty>
2.00749

> <r_epik_Ionization_Penalty_Charging>
2.26533e-08

> <r_epik_Ionization_Penalty_Neutral>
2.00749

> <r_epik_State_Penalty>
2.13675

> <r_epik_Charging_Adjusted_Penalty>
2.13675

> <i_epik_Tot_Q>
-1

> <i_epik_Tot_abs_Q>
1

> <r_epik_Metal_State_Penalty>
0.0208594

> <b_epik_Metal_Only>
0

> <s_lp_Force_Field>
OPLS_2005

> <r_lp_Energy>
29.9215

> <b_lp_Chiralities_Consistent>
1

> <s_lp_Variant>
AV-unprocessed.smi:2748-3

> <Gold.Version>
5.8.1

> <Gold.Id.Protein>
6NUR|6NUR_protein|mol2

> <Gold.PLP.Fitness>
44.0251

> <Gold.PLP.PLP>
-38.1219

> <Gold.PLP.part.hbond>
-2.0000

> <Gold.PLP.part.metal>
0.0000

> <Gold.PLP.part.buried>
-5.3526

> <Gold.PLP.part.nonpolar>
-31.4009

> <Gold.PLP.part.repulsive>
0.1570

> <Gold.PLP.ligand.clash>
0.0000

> <Gold.PLP.ligand.torsion>
0.0369

> <Gold.PLP.Chemscore.Hbond>
1.9920

> <Gold.PLP.Chemscore.CHOScore>
0.0000

> <Gold.PLP.Chemscore.Metal>
0.0000

> <Gold.Chemscore.Hbonds>
donor molecule, donor type, donor heavy atom, donor atom, acceptor molecule, acceptor atom, score
      P1  H  6896  6909       L1     5  0.99
      P1  H 10752 10764       L1     1  1.00

> <Gold.PLP.Chemscore.Internal.Correction>
0.0011

> <Gold.Rescore>
     Score         DG    S(hbond)    S(metal)    S(lipo)     H(rot)  DE(clash)    DE(int)     intcor
     20.28     -21.79       1.88        0.00     114.19       1.29       0.03       1.48       ----

> <Gold.Chemscore.Fitness>
20.2791

> <Gold.Chemscore.DG>
-21.7937

> <Gold.Chemscore.ZeroCoef>
-5.4800

> <Gold.Chemscore.Hbond>
1.8761

> <Gold.Chemscore.Metal>
0.0000

> <Gold.Chemscore.Lipo>
114.1920

> <Gold.Chemscore.Internal_Hbond>
0.0000

> <Gold.Chemscore.DEClash>
0.0299

> <Gold.Chemscore.DEInternal>
1.4847

> <Gold.Chemscore.Rot>
1.2942

> <Gold.Chemscore.Internal.Correction>
   9.000000E+99

> <Gold.Chemscore.Hbonds>
donor molecule, donor type, donor heavy atom, donor atom, acceptor molecule, acceptor atom, score
      P1  H  6896  6909       L1     5  0.91
      P1  H 10752 10764       L1     1  0.80

> <Gold.Chemscore.Hbond.Weighted>
-6.2663

> <Gold.Chemscore.Metal.Weighted>
-0.0000

> <Gold.Chemscore.Lipo.Weighted>
-13.3605

> <Gold.Chemscore.Internal_Hbond.Weighted>
0.0000

> <Gold.Chemscore.DEClash.Weighted>
0.0299

> <Gold.Chemscore.DEInternal.Weighted>
1.4847

> <Gold.Chemscore.Rot.Weighted>
3.3131

> <Gold.Chemscore.Internal.Correction.Weighted>
   9.000000E+99

> <Gold.Protein.RotatedTorsions>
[ 6907 6896 6895 6894 ] final  138.93 input  -60.11 | X-H torsion
[ 7974 7965 7964 7962 ] final  143.87 input  175.53 | X-H torsion
[ 8008 7997 7996 7995 ] final   82.71 input   59.86 | X-H torsion
[ 10167 10162 10161 10158 ] final   65.18 input  -65.29 | X-H torsion
[ 10718 10713 10712 10709 ] final   79.92 input   66.30 | X-H torsion
[ 10763 10752 10751 10750 ] final  -81.40 input  -60.55 | X-H torsion
[ 11005 11000 10999 10996 ] final    3.28 input  -57.11 | X-H torsion

> <Gold.Protein.ActiveResidues>
 VAL166  LYS551  ARG553  GLY616  TRP617  ASP618  TYR619  PRO620  LYS621  CYS622 
 ASP623  PHE694  ASN695  SER759  ASP760  ASP761  ALA762  ILE779  LEU786  VAL792 
 PHE793  MET794  SER795  GLU796  ALA797  LYS798  CYS799  TRP800  GLU811  SER814 

> <Gold.Protein.RotatedAtoms>
  152.2609  133.5296  159.5380 H   0  0  0  0  0  0  0  0  0  0  0  0  # atno 6907 bound_to 6896
  150.7125  134.0831  159.3914 H   0  0  0  0  0  0  0  0  0  0  0  0  # atno 6908 bound_to 6896
  151.8749  135.0475  160.0534 H   0  0  0  0  0  0  0  0  0  0  0  0  # atno 6909 bound_to 6896
  144.8884  139.5594  143.5810 H   0  0  0  0  0  0  0  0  0  0  0  0  # atno 7974 bound_to 7965
  155.9143  140.3425  155.6122 H   0  0  0  0  0  0  0  0  0  0  0  0  # atno 8008 bound_to 7997
  155.7350  140.0800  157.2290 H   0  0  0  0  0  0  0  0  0  0  0  0  # atno 8009 bound_to 7997
  154.4060  140.1581  156.2539 H   0  0  0  0  0  0  0  0  0  0  0  0  # atno 8010 bound_to 7997
  140.1141  144.4792  150.6960 H   0  0  0  0  0  0  0  0  0  0  0  0  # atno 10167 bound_to 10162
  157.6791  130.9936  150.2003 H   0  0  0  0  0  0  0  0  0  0  0  0  # atno 10718 bound_to 10713
  154.5630  135.5628  153.7025 H   0  0  0  0  0  0  0  0  0  0  0  0  # atno 10763 bound_to 10752
  153.0024  135.6278  154.2218 H   0  0  0  0  0  0  0  0  0  0  0  0  # atno 10764 bound_to 10752
  154.2156  135.2872  155.2923 H   0  0  0  0  0  0  0  0  0  0  0  0  # atno 10765 bound_to 10752
  140.5948  133.9890  155.8105 H   0  0  0  0  0  0  0  0  0  0  0  0  # atno 11005 bound_to 11000
  146.3039  139.7515  142.9071 LP  0  0  0  0  0  0  0  0  0  0  0  0  # atno 17320 bound_to 7965
  145.3827  141.0360  143.3168 LP  0  0  0  0  0  0  0  0  0  0  0  0  # atno 17321 bound_to 7965
  140.6909  143.2375  151.5133 LP  0  0  0  0  0  0  0  0  0  0  0  0  # atno 17342 bound_to 10162
  139.5604  144.2172  152.1681 LP  0  0  0  0  0  0  0  0  0  0  0  0  # atno 17343 bound_to 10162
  156.2695  130.3720  149.8046 LP  0  0  0  0  0  0  0  0  0  0  0  0  # atno 17370 bound_to 10713
  156.5767  130.8448  151.3371 LP  0  0  0  0  0  0  0  0  0  0  0  0  # atno 17371 bound_to 10713
  141.0911  133.9915  157.3236 LP  0  0  0  0  0  0  0  0  0  0  0  0  # atno 17394 bound_to 11000
  139.9258  135.0201  156.8228 LP  0  0  0  0  0  0  0  0  0  0  0  0  # atno 17395 bound_to 11000

$$$$
