AV-unprocessed.smi:3163|AV-procd|sdf|12072|dock2
  -GOLD-   2272017503D 1   1.00000     0.00000
 Structure written by MMmdl.
 36 37  0  0  0  0  0  0  0  0  2 V2000
  148.0810  136.2169  155.1003 C   0  0  0  0  0  0  0  0  0  0  0  0
  148.8659  137.2452  154.3858 N   0  3  2  0  0  0  0  0  0  0  0  0
  150.2879  137.3084  154.7865 C   0  0  0  0  0  0  0  0  0  0  0  0
  150.7001  138.7643  154.5860 C   0  0  0  0  0  0  0  0  0  0  0  0
  149.4361  139.5231  154.9807 C   0  0  1  0  0  0  0  0  0  0  0  0
  149.3862  140.9728  154.4597 C   0  0  0  0  0  0  0  0  0  0  0  0
  149.5835  141.9511  155.5246 N   0  0  0  0  0  0  0  0  0  0  0  0
  150.4492  141.8192  156.5400 C   0  0  0  0  0  0  0  0  0  0  0  0
  151.1772  140.8373  156.6810 O   0  0  0  0  0  0  0  0  0  0  0  0
  150.4108  142.8910  157.3512 N   0  0  0  0  0  0  0  0  0  0  0  0
  151.1496  143.1493  158.5390 C   0  0  0  0  0  0  0  0  0  0  0  0
  151.0466  144.4396  159.0992 C   0  0  0  0  0  0  0  0  0  0  0  0
  151.7560  144.7271  160.2822 C   0  0  0  0  0  0  0  0  0  0  0  0
  152.5305  143.8249  160.9201 N   0  0  0  0  0  0  0  0  0  0  0  0
  152.6202  142.5871  160.3896 C   0  0  0  0  0  0  0  0  0  0  0  0
  151.9536  142.1960  159.2110 C   0  0  0  0  0  0  0  0  0  0  0  0
  148.3058  138.6148  154.4722 C   0  0  0  0  0  0  0  0  0  0  0  0
  148.0365  136.4291  156.1695 H   0  0  0  0  0  0  0  0  0  0  0  0
  148.5294  135.2324  154.9634 H   0  0  0  0  0  0  0  0  0  0  0  0
  147.0620  136.1793  154.7144 H   0  0  0  0  0  0  0  0  0  0  0  0
  150.3897  137.0458  155.8412 H   0  0  0  0  0  0  0  0  0  0  0  0
  150.8988  136.6151  154.2076 H   0  0  0  0  0  0  0  0  0  0  0  0
  151.5677  139.0435  155.1848 H   0  0  0  0  0  0  0  0  0  0  0  0
  150.9403  138.9418  153.5366 H   0  0  0  0  0  0  0  0  0  0  0  0
  149.3924  139.5345  156.0713 H   0  0  0  0  0  0  0  0  0  0  0  0
  150.1361  141.1201  153.6806 H   0  0  0  0  0  0  0  0  0  0  0  0
  148.4194  141.1717  153.9965 H   0  0  0  0  0  0  0  0  0  0  0  0
  149.0302  142.7945  155.4767 H   0  0  0  0  0  0  0  0  0  0  0  0
  149.7975  143.6383  157.0612 H   0  0  0  0  0  0  0  0  0  0  0  0
  150.4390  145.2012  158.6323 H   0  0  0  0  0  0  0  0  0  0  0  0
  151.6976  145.7087  160.7285 H   0  0  0  0  0  0  0  0  0  0  0  0
  153.2393  141.8823  160.9248 H   0  0  0  0  0  0  0  0  0  0  0  0
  152.0686  141.1822  158.8627 H   0  0  0  0  0  0  0  0  0  0  0  0
  147.9885  138.9098  153.4713 H   0  0  0  0  0  0  0  0  0  0  0  0
  147.4314  138.6722  155.1226 H   0  0  0  0  0  0  0  0  0  0  0  0
  148.8544  137.0009  153.4058 H   0  0  0  0  0  0  0  0  0  0  0  0
  1  2  1  0  0  0  0
  1 18  1  0  0  0  0
  1 19  1  0  0  0  0
  1 20  1  0  0  0  0
  2 17  1  0  0  0  0
  2  3  1  0  0  0  0
  2 36  1  0  0  0  0
  3  4  1  0  0  0  0
  3 21  1  0  0  0  0
  3 22  1  0  0  0  0
  4  5  1  0  0  0  0
  4 23  1  0  0  0  0
  4 24  1  0  0  0  0
  5  6  1  0  0  0  0
  5 17  1  0  0  0  0
  5 25  1  0  0  0  0
  6  7  1  0  0  0  0
  6 26  1  0  0  0  0
  6 27  1  0  0  0  0
  7  8  1  0  0  0  0
  7 28  1  0  0  0  0
  8  9  2  0  0  0  0
  8 10  1  0  0  0  0
 10 11  1  0  0  0  0
 10 29  1  0  0  0  0
 11 16  1  0  0  0  0
 11 12  2  0  0  0  0
 12 13  1  0  0  0  0
 12 30  1  0  0  0  0
 13 14  2  0  0  0  0
 13 31  1  0  0  0  0
 14 15  1  0  0  0  0
 15 16  2  0  0  0  0
 15 32  1  0  0  0  0
 16 33  1  0  0  0  0
 17 34  1  0  0  0  0
 17 35  1  0  0  0  0
M  CHG  1   2   1
M  END
> <s_m_source_file>
AV-unprocessed.smi

> <i_m_source_file_index>
3163

> <i_lp_mmshare_version>
43012

> <i_f3d_flags>
0

> <s_epik_input>
W0NIM11OMVtDSDJdW0NIMl1bQ0BIXShbQ0gyXTEpW0NIMl1bTkhdQyg9TylbTkhdYzJbY0hdW2NIXW5bY0hdW2NIXTI=

> <s_epik_cmdline>
J2VwaWtfcHl0aG9uJywgJy1waCcsICc3LjAnLCAnLXRuJywgJzgnLCAnLW1hJywgJzIwMCcsICctbWV0YWxfYmluZGluZycsICctaW1hZScsICc8aW5maWxlLm1hZT4nLCAnLW9tYWUnLCAnPG91dGZpbGUubWFlPic=

> <r_epik_Ionization_Penalty>
0.103936

> <r_epik_Ionization_Penalty_Charging>
0.0012301

> <r_epik_Ionization_Penalty_Neutral>
0.102706

> <r_epik_State_Penalty>
0.0926275

> <r_epik_Charging_Adjusted_Penalty>
0.0938576

> <i_epik_Tot_Q>
1

> <i_epik_Tot_abs_Q>
1

> <r_epik_Metal_State_Penalty>
0.0788376

> <b_epik_Metal_Only>
0

> <s_lp_Force_Field>
OPLS_2005

> <r_lp_Energy>
31.7685

> <b_lp_Chiralities_Consistent>
1

> <s_lp_Variant>
AV-unprocessed.smi:3163-2

> <Gold.Version>
5.8.1

> <Gold.Id.Protein>
6NUR|6NUR_protein|mol2

> <Gold.PLP.Fitness>
44.2335

> <Gold.PLP.PLP>
-33.9230

> <Gold.PLP.part.hbond>
-3.0000

> <Gold.PLP.part.metal>
0.0000

> <Gold.PLP.part.buried>
-3.9901

> <Gold.PLP.part.nonpolar>
-28.0685

> <Gold.PLP.part.repulsive>
0.2787

> <Gold.PLP.ligand.clash>
0.0000

> <Gold.PLP.ligand.torsion>
0.8336

> <Gold.PLP.Chemscore.Hbond>
3.9920

> <Gold.PLP.Chemscore.CHOScore>
0.0000

> <Gold.PLP.Chemscore.Metal>
0.0000

> <Gold.Chemscore.Hbonds>
donor molecule, donor type, donor heavy atom, donor atom, acceptor molecule, acceptor atom, score
      L1  H     2    36       P1  7948  2.00
      L1  H     7    28       P1  8028  1.00
      L1  H    10    29       P1  8028  1.00

> <Gold.PLP.Chemscore.Internal.Correction>
0.0017

> <Gold.Rescore>
     Score         DG    S(hbond)    S(metal)    S(lipo)     H(rot)  DE(clash)    DE(int)     intcor
     18.84     -22.46       2.91        0.00      89.42       1.26       0.18       3.44       ----

> <Gold.Chemscore.Fitness>
18.8444

> <Gold.Chemscore.DG>
-22.4569

> <Gold.Chemscore.ZeroCoef>
-5.4800

> <Gold.Chemscore.Hbond>
2.9133

> <Gold.Chemscore.Metal>
0.0000

> <Gold.Chemscore.Lipo>
89.4158

> <Gold.Chemscore.Internal_Hbond>
0.0000

> <Gold.Chemscore.DEClash>
0.1763

> <Gold.Chemscore.DEInternal>
3.4363

> <Gold.Chemscore.Rot>
1.2559

> <Gold.Chemscore.Internal.Correction>
   9.000000E+99

> <Gold.Chemscore.Hbonds>
donor molecule, donor type, donor heavy atom, donor atom, acceptor molecule, acceptor atom, score
      L1  H     2    36       P1  7948  1.00
      L1  H     7    28       P1  8028  0.95
      L1  H    10    29       P1  8028  0.91

> <Gold.Chemscore.Hbond.Weighted>
-9.7303

> <Gold.Chemscore.Metal.Weighted>
-0.0000

> <Gold.Chemscore.Lipo.Weighted>
-10.4616

> <Gold.Chemscore.Internal_Hbond.Weighted>
0.0000

> <Gold.Chemscore.DEClash.Weighted>
0.1763

> <Gold.Chemscore.DEInternal.Weighted>
3.4363

> <Gold.Chemscore.Rot.Weighted>
3.2151

> <Gold.Chemscore.Internal.Correction.Weighted>
   9.000000E+99

> <Gold.Protein.RotatedTorsions>
[ 6907 6896 6895 6894 ] final -124.06 input  -60.11 | X-H torsion
[ 7974 7965 7964 7962 ] final  -82.23 input  175.53 | X-H torsion
[ 8008 7997 7996 7995 ] final  -13.69 input   59.86 | X-H torsion
[ 10167 10162 10161 10158 ] final   96.41 input  -65.29 | X-H torsion
[ 10718 10713 10712 10709 ] final -143.64 input   66.30 | X-H torsion
[ 10763 10752 10751 10750 ] final -100.66 input  -60.55 | X-H torsion
[ 11005 11000 10999 10996 ] final  130.51 input  -57.11 | X-H torsion

> <Gold.Protein.ActiveResidues>
 VAL166  LYS551  ARG553  GLY616  TRP617  ASP618  TYR619  PRO620  LYS621  CYS622 
 ASP623  PHE694  ASN695  SER759  ASP760  ASP761  ALA762  ILE779  LEU786  VAL792 
 PHE793  MET794  SER795  GLU796  ALA797  LYS798  CYS799  TRP800  GLU811  SER814 

> <Gold.Protein.RotatedAtoms>
  150.8731  133.7476  159.2954 H   0  0  0  0  0  0  0  0  0  0  0  0  # atno 6907 bound_to 6896
  151.5082  135.1062  159.9856 H   0  0  0  0  0  0  0  0  0  0  0  0  # atno 6908 bound_to 6896
  152.4709  133.7983  159.6995 H   0  0  0  0  0  0  0  0  0  0  0  0  # atno 6909 bound_to 6896
  145.5361  140.9515  143.1576 H   0  0  0  0  0  0  0  0  0  0  0  0  # atno 7974 bound_to 7965
  154.5272  140.2243  155.8869 H   0  0  0  0  0  0  0  0  0  0  0  0  # atno 8008 bound_to 7997
  156.1725  140.3118  155.8964 H   0  0  0  0  0  0  0  0  0  0  0  0  # atno 8009 bound_to 7997
  155.3527  140.0456  157.3037 H   0  0  0  0  0  0  0  0  0  0  0  0  # atno 8010 bound_to 7997
  139.7897  144.6857  150.9909 H   0  0  0  0  0  0  0  0  0  0  0  0  # atno 10167 bound_to 10162
  156.3604  130.7735  151.1901 H   0  0  0  0  0  0  0  0  0  0  0  0  # atno 10718 bound_to 10713
  154.7597  135.4926  153.9441 H   0  0  0  0  0  0  0  0  0  0  0  0  # atno 10763 bound_to 10752
  153.1237  135.6737  153.9301 H   0  0  0  0  0  0  0  0  0  0  0  0  # atno 10764 bound_to 10752
  153.9025  135.3108  155.3427 H   0  0  0  0  0  0  0  0  0  0  0  0  # atno 10765 bound_to 10752
  139.9676  134.9586  156.9305 H   0  0  0  0  0  0  0  0  0  0  0  0  # atno 11005 bound_to 11000
  144.7601  139.6978  143.7238 LP  0  0  0  0  0  0  0  0  0  0  0  0  # atno 17320 bound_to 7965
  146.2012  139.5308  142.9742 LP  0  0  0  0  0  0  0  0  0  0  0  0  # atno 17321 bound_to 7965
  140.7820  143.4394  151.0574 LP  0  0  0  0  0  0  0  0  0  0  0  0  # atno 17342 bound_to 10162
  139.8071  143.8002  152.3168 LP  0  0  0  0  0  0  0  0  0  0  0  0  # atno 17343 bound_to 10162
  157.7472  131.0402  150.4585 LP  0  0  0  0  0  0  0  0  0  0  0  0  # atno 17370 bound_to 10713
  156.4795  130.4070  149.6470 LP  0  0  0  0  0  0  0  0  0  0  0  0  # atno 17371 bound_to 10713
  140.5362  134.0765  155.7329 LP  0  0  0  0  0  0  0  0  0  0  0  0  # atno 17394 bound_to 11000
  141.1356  133.9227  157.2441 LP  0  0  0  0  0  0  0  0  0  0  0  0  # atno 17395 bound_to 11000

$$$$
