AV-unprocessed.smi:2634|AV-procd|sdf|10254|dock6
  -GOLD-   2272014263D 1   1.00000     0.00000
 Structure written by MMmdl.
 27 28  0  0  0  0  0  0  0  0  2 V2000
  149.9345  142.2896  155.7926 N   0  0  0  0  0  0  0  0  0  0  0  0
  150.7622  142.1410  156.9070 C   0  0  0  0  0  0  0  0  0  0  0  0
  151.1705  143.1253  157.7432 N   0  3  0  0  0  0  0  0  0  0  0  0
  150.8218  144.4511  157.6208 N   0  0  0  0  0  0  0  0  0  0  0  0
  151.9948  142.6246  158.7478 C   0  0  0  0  0  0  0  0  0  0  0  0
  152.6471  143.2332  159.8165 C   0  0  0  0  0  0  0  0  0  0  0  0
  153.4150  142.3915  160.6470 C   0  0  0  0  0  0  0  0  0  0  0  0
  153.5136  141.0061  160.4020 C   0  0  0  0  0  0  0  0  0  0  0  0
  152.8492  140.3983  159.3159 C   0  0  0  0  0  0  0  0  0  0  0  0
  152.0886  141.2313  158.4957 C   0  0  0  0  0  0  0  0  0  0  0  0
  151.3098  140.9757  157.3479 N   0  0  0  0  0  0  0  0  0  0  0  0
  151.2116  139.6068  156.8269 C   0  0  0  0  0  0  0  0  0  0  0  0
  151.4549  139.5537  155.3124 C   0  0  0  0  0  0  0  0  0  0  0  0
  152.8399  139.6141  155.0537 O   0  0  0  0  0  0  0  0  0  0  0  0
  149.5610  143.1899  155.5277 H   0  0  0  0  0  0  0  0  0  0  0  0
  150.4029  144.7337  158.4955 H   0  0  0  0  0  0  0  0  0  0  0  0
  150.1088  144.5104  156.9077 H   0  0  0  0  0  0  0  0  0  0  0  0
  152.5735  144.2942  160.0059 H   0  0  0  0  0  0  0  0  0  0  0  0
  153.9400  142.8174  161.4899 H   0  0  0  0  0  0  0  0  0  0  0  0
  154.1131  140.3955  161.0617 H   0  0  0  0  0  0  0  0  0  0  0  0
  152.9352  139.3360  159.1399 H   0  0  0  0  0  0  0  0  0  0  0  0
  151.9195  138.9753  157.3653 H   0  0  0  0  0  0  0  0  0  0  0  0
  150.2159  139.2307  157.0645 H   0  0  0  0  0  0  0  0  0  0  0  0
  151.0539  138.6318  154.8898 H   0  0  0  0  0  0  0  0  0  0  0  0
  150.9636  140.3864  154.8083 H   0  0  0  0  0  0  0  0  0  0  0  0
  152.9713  139.6710  154.1192 H   0  0  0  0  0  0  0  0  0  0  0  0
  149.6709  141.4998  155.2206 H   0  0  0  0  0  0  0  0  0  0  0  0
  1  2  1  0  0  0  0
  1 15  1  0  0  0  0
  1 27  1  0  0  0  0
  2 11  1  0  0  0  0
  2  3  2  0  0  0  0
  3  4  1  0  0  0  0
  3  5  1  0  0  0  0
  4 16  1  0  0  0  0
  4 17  1  0  0  0  0
  5 10  2  0  0  0  0
  5  6  1  0  0  0  0
  6  7  2  0  0  0  0
  6 18  1  0  0  0  0
  7  8  1  0  0  0  0
  7 19  1  0  0  0  0
  8  9  2  0  0  0  0
  8 20  1  0  0  0  0
  9 10  1  0  0  0  0
  9 21  1  0  0  0  0
 10 11  1  0  0  0  0
 11 12  1  0  0  0  0
 12 13  1  0  0  0  0
 12 22  1  0  0  0  0
 12 23  1  0  0  0  0
 13 14  1  0  0  0  0
 13 24  1  0  0  0  0
 13 25  1  0  0  0  0
 14 26  1  0  0  0  0
M  CHG  1   3   1
M  END
> <s_m_source_file>
AV-unprocessed.smi

> <i_m_source_file_index>
2634

> <i_lp_mmshare_version>
43012

> <i_f3d_flags>
0

> <s_epik_input>
W05IMl1uMS9jKD1OXFtIXSluKFtDSDJdW0NIMl1bT0hdKWMoYzEyKVtjSF1bY0hdW2NIXVtjSF0y

> <s_epik_cmdline>
J2VwaWtfcHl0aG9uJywgJy1waCcsICc3LjAnLCAnLXRuJywgJzgnLCAnLW1hJywgJzIwMCcsICctbWV0YWxfYmluZGluZycsICctaW1hZScsICc8aW5maWxlLm1hZT4nLCAnLW9tYWUnLCAnPG91dGZpbGUubWFlPic=

> <r_lp_tautomer_probability>
1

> <r_epik_Ionization_Penalty>
1.24644e-06

> <r_epik_Ionization_Penalty_Charging>
0

> <r_epik_Ionization_Penalty_Neutral>
1.24644e-06

> <r_epik_State_Penalty>
-0

> <r_epik_Charging_Adjusted_Penalty>
0

> <i_epik_Tot_Q>
1

> <i_epik_Tot_abs_Q>
1

> <r_epik_Metal_State_Penalty>
-0

> <b_epik_Metal_Only>
0

> <s_lp_Force_Field>
OPLS_2005

> <r_lp_Energy>
25.9386

> <b_lp_Chiralities_Consistent>
1

> <s_lp_Variant>
AV-unprocessed.smi:2634-1

> <Gold.Version>
5.8.1

> <Gold.Id.Protein>
6NUR|6NUR_protein|mol2

> <Gold.PLP.Fitness>
46.0254

> <Gold.PLP.PLP>
-34.4585

> <Gold.PLP.part.hbond>
-4.2159

> <Gold.PLP.part.metal>
0.0000

> <Gold.PLP.part.buried>
-4.4868

> <Gold.PLP.part.nonpolar>
-26.6549

> <Gold.PLP.part.repulsive>
0.1521

> <Gold.PLP.ligand.clash>
0.0000

> <Gold.PLP.ligand.torsion>
0.2166

> <Gold.PLP.Chemscore.Hbond>
4.0000

> <Gold.PLP.Chemscore.CHOScore>
0.0000

> <Gold.PLP.Chemscore.Metal>
0.0000

> <Gold.Chemscore.Hbonds>
donor molecule, donor type, donor heavy atom, donor atom, acceptor molecule, acceptor atom, score
      L1  H     1    15       P1  8028  2.00
      L1  H     4    17       P1  8028  1.00
      P1  H  7997  8008       L1    14  1.00

> <Gold.PLP.Chemscore.Internal.Correction>
0.0002

> <Gold.Rescore>
     Score         DG    S(hbond)    S(metal)    S(lipo)     H(rot)  DE(clash)    DE(int)     intcor
     18.69     -18.83       2.93        0.00      73.58       1.96       0.00       0.14       ----

> <Gold.Chemscore.Fitness>
18.6924

> <Gold.Chemscore.DG>
-18.8318

> <Gold.Chemscore.ZeroCoef>
-5.4800

> <Gold.Chemscore.Hbond>
2.9255

> <Gold.Chemscore.Metal>
0.0000

> <Gold.Chemscore.Lipo>
73.5811

> <Gold.Chemscore.Internal_Hbond>
0.0000

> <Gold.Chemscore.DEClash>
0.0009

> <Gold.Chemscore.DEInternal>
0.1385

> <Gold.Chemscore.Rot>
1.9643

> <Gold.Chemscore.Internal.Correction>
   9.000000E+99

> <Gold.Chemscore.Hbonds>
donor molecule, donor type, donor heavy atom, donor atom, acceptor molecule, acceptor atom, score
      L1  H     1    15       P1  8028  1.00
      L1  H     4    17       P1  8028  0.74
      P1  H  7997  8008       L1    14  0.78

> <Gold.Chemscore.Hbond.Weighted>
-9.7713

> <Gold.Chemscore.Metal.Weighted>
-0.0000

> <Gold.Chemscore.Lipo.Weighted>
-8.6090

> <Gold.Chemscore.Internal_Hbond.Weighted>
0.0000

> <Gold.Chemscore.DEClash.Weighted>
0.0009

> <Gold.Chemscore.DEInternal.Weighted>
0.1385

> <Gold.Chemscore.Rot.Weighted>
5.0285

> <Gold.Chemscore.Internal.Correction.Weighted>
   9.000000E+99

> <Gold.Protein.RotatedTorsions>
[ 6907 6896 6895 6894 ] final  123.03 input  -60.11 | X-H torsion
[ 7974 7965 7964 7962 ] final -128.58 input  175.53 | X-H torsion
[ 8008 7997 7996 7995 ] final  -23.27 input   59.86 | X-H torsion
[ 10167 10162 10161 10158 ] final    0.90 input  -65.29 | X-H torsion
[ 10718 10713 10712 10709 ] final  -44.63 input   66.30 | X-H torsion
[ 10763 10752 10751 10750 ] final  142.87 input  -60.55 | X-H torsion
[ 11005 11000 10999 10996 ] final   43.60 input  -57.11 | X-H torsion

> <Gold.Protein.ActiveResidues>
 VAL166  LYS551  ARG553  GLY616  TRP617  ASP618  TYR619  PRO620  LYS621  CYS622 
 ASP623  PHE694  ASN695  SER759  ASP760  ASP761  ALA762  ILE779  LEU786  VAL792 
 PHE793  MET794  SER795  GLU796  ALA797  LYS798  CYS799  TRP800  GLU811  SER814 

> <Gold.Protein.RotatedAtoms>
  152.4195  133.7092  159.6468 H   0  0  0  0  0  0  0  0  0  0  0  0  # atno 6907 bound_to 6896
  150.8071  133.8479  159.3206 H   0  0  0  0  0  0  0  0  0  0  0  0  # atno 6908 bound_to 6896
  151.6200  135.1035  160.0151 H   0  0  0  0  0  0  0  0  0  0  0  0  # atno 6909 bound_to 6896
  144.9656  140.7493  143.4702 H   0  0  0  0  0  0  0  0  0  0  0  0  # atno 7974 bound_to 7965
  154.4595  140.1985  156.0284 H   0  0  0  0  0  0  0  0  0  0  0  0  # atno 8008 bound_to 7997
  156.0812  140.3271  155.7668 H   0  0  0  0  0  0  0  0  0  0  0  0  # atno 8009 bound_to 7997
  155.5108  140.0561  157.2914 H   0  0  0  0  0  0  0  0  0  0  0  0  # atno 8010 bound_to 7997
  140.6707  143.7055  150.7918 H   0  0  0  0  0  0  0  0  0  0  0  0  # atno 10167 bound_to 10162
  156.2366  130.4176  149.8811 H   0  0  0  0  0  0  0  0  0  0  0  0  # atno 10718 bound_to 10713
  153.9629  135.2958  155.3432 H   0  0  0  0  0  0  0  0  0  0  0  0  # atno 10763 bound_to 10752
  154.7365  135.5044  153.9053 H   0  0  0  0  0  0  0  0  0  0  0  0  # atno 10764 bound_to 10752
  153.0937  135.6715  153.9914 H   0  0  0  0  0  0  0  0  0  0  0  0  # atno 10765 bound_to 10752
  140.1629  134.4318  155.8306 H   0  0  0  0  0  0  0  0  0  0  0  0  # atno 11005 bound_to 11000
  145.2634  139.1983  143.4880 LP  0  0  0  0  0  0  0  0  0  0  0  0  # atno 17320 bound_to 7965
  146.3367  140.2568  142.8600 LP  0  0  0  0  0  0  0  0  0  0  0  0  # atno 17321 bound_to 7965
  140.0740  143.5033  152.2565 LP  0  0  0  0  0  0  0  0  0  0  0  0  # atno 17342 bound_to 10162
  139.5975  144.7572  151.3251 LP  0  0  0  0  0  0  0  0  0  0  0  0  # atno 17343 bound_to 10162
  156.6407  130.8703  151.3513 LP  0  0  0  0  0  0  0  0  0  0  0  0  # atno 17370 bound_to 10713
  157.7157  130.9494  150.1246 LP  0  0  0  0  0  0  0  0  0  0  0  0  # atno 17371 bound_to 10713
  141.2211  133.6921  156.7627 LP  0  0  0  0  0  0  0  0  0  0  0  0  # atno 17394 bound_to 11000
  140.2468  134.8571  157.3628 LP  0  0  0  0  0  0  0  0  0  0  0  0  # atno 17395 bound_to 11000

$$$$
