AV-unprocessed.smi:3345|AV-procd|sdf|12901|dock7
  -GOLD-   2272019313D 1   1.00000     0.00000
 Structure written by MMmdl.
 40 41  0  0  0  0  0  0  0  0  1 V2000
  150.7800  143.4166  158.0446 C   0  0  0  0  0  0  0  0  0  0  0  0
  150.9491  141.8899  158.0043 C   0  0  2  0  0  0  0  0  0  0  0  0
  152.3590  141.4630  158.4683 C   0  0  0  0  0  0  0  0  0  0  0  0
  152.5631  141.4584  159.9172 N   0  0  0  0  0  0  0  0  0  0  0  0
  153.7919  140.7736  160.3130 C   0  0  0  0  0  0  0  0  0  0  0  0
  154.0010  140.8029  161.8372 C   0  0  0  0  0  0  0  0  0  0  0  0
  153.9994  142.1510  162.2952 O   0  0  0  0  0  0  0  0  0  0  0  0
  152.7954  142.8385  161.9718 C   0  0  0  0  0  0  0  0  0  0  0  0
  152.5851  142.8176  160.4479 C   0  0  0  0  0  0  0  0  0  0  0  0
  150.7159  141.4309  156.6369 N   0  0  0  0  0  0  0  0  0  0  0  0
  150.5651  140.1521  156.2569 C   0  0  0  0  0  0  0  0  0  0  0  0
  150.6208  139.2031  157.0395 O   0  0  0  0  0  0  0  0  0  0  0  0
  150.2995  139.9131  154.7639 C   0  0  1  0  0  0  0  0  0  0  0  0
  150.4353  138.4238  154.3869 C   0  0  0  0  0  0  0  0  0  0  0  0
  149.0043  140.4729  154.3939 N   0  0  0  0  0  0  0  0  0  0  0  0
  148.5240  141.7057  154.5719 C   0  0  0  0  0  0  0  0  0  0  0  0
  147.2735  141.8627  154.1605 N   0  0  0  0  0  0  0  0  0  0  0  0
  147.0175  140.5947  153.7220 C   0  0  0  0  0  0  0  0  0  0  0  0
  148.0150  139.7202  153.8502 N   0  0  0  0  0  0  0  0  0  0  0  0
  150.9197  143.8004  159.0555 H   0  0  0  0  0  0  0  0  0  0  0  0
  149.7816  143.7110  157.7195 H   0  0  0  0  0  0  0  0  0  0  0  0
  151.5020  143.9145  157.3963 H   0  0  0  0  0  0  0  0  0  0  0  0
  150.2115  141.4606  158.6854 H   0  0  0  0  0  0  0  0  0  0  0  0
  152.6255  140.4935  158.0435 H   0  0  0  0  0  0  0  0  0  0  0  0
  153.0724  142.1679  158.0394 H   0  0  0  0  0  0  0  0  0  0  0  0
  153.7659  139.7342  159.9876 H   0  0  0  0  0  0  0  0  0  0  0  0
  154.6487  141.2365  159.8211 H   0  0  0  0  0  0  0  0  0  0  0  0
  153.2171  140.2387  162.3449 H   0  0  0  0  0  0  0  0  0  0  0  0
  154.9512  140.3375  162.0991 H   0  0  0  0  0  0  0  0  0  0  0  0
  151.9523  142.3738  162.4855 H   0  0  0  0  0  0  0  0  0  0  0  0
  152.8636  143.8653  162.3309 H   0  0  0  0  0  0  0  0  0  0  0  0
  153.3806  143.3896  159.9678 H   0  0  0  0  0  0  0  0  0  0  0  0
  151.6492  143.3237  160.2090 H   0  0  0  0  0  0  0  0  0  0  0  0
  150.6580  142.1443  155.9247 H   0  0  0  0  0  0  0  0  0  0  0  0
  151.0531  140.4589  154.1933 H   0  0  0  0  0  0  0  0  0  0  0  0
  151.4339  138.0519  154.6191 H   0  0  0  0  0  0  0  0  0  0  0  0
  150.2727  138.2770  153.3188 H   0  0  0  0  0  0  0  0  0  0  0  0
  149.7196  137.7961  154.9195 H   0  0  0  0  0  0  0  0  0  0  0  0
  149.1000  142.5040  155.0163 H   0  0  0  0  0  0  0  0  0  0  0  0
  146.0655  140.3056  153.3017 H   0  0  0  0  0  0  0  0  0  0  0  0
  1  2  1  0  0  0  0
  1 20  1  0  0  0  0
  1 21  1  0  0  0  0
  1 22  1  0  0  0  0
  2  3  1  0  0  0  0
  2 10  1  0  0  0  0
  2 23  1  0  0  0  0
  3  4  1  0  0  0  0
  3 24  1  0  0  0  0
  3 25  1  0  0  0  0
  4  9  1  0  0  0  0
  4  5  1  0  0  0  0
  5  6  1  0  0  0  0
  5 26  1  0  0  0  0
  5 27  1  0  0  0  0
  6  7  1  0  0  0  0
  6 28  1  0  0  0  0
  6 29  1  0  0  0  0
  7  8  1  0  0  0  0
  8  9  1  0  0  0  0
  8 30  1  0  0  0  0
  8 31  1  0  0  0  0
  9 32  1  0  0  0  0
  9 33  1  0  0  0  0
 10 11  1  0  0  0  0
 10 34  1  0  0  0  0
 11 12  2  0  0  0  0
 11 13  1  0  0  0  0
 13 14  1  0  0  0  0
 13 15  1  0  0  0  0
 13 35  1  0  0  0  0
 14 36  1  0  0  0  0
 14 37  1  0  0  0  0
 14 38  1  0  0  0  0
 15 19  1  0  0  0  0
 15 16  1  0  0  0  0
 16 17  2  0  0  0  0
 16 39  1  0  0  0  0
 17 18  1  0  0  0  0
 18 19  2  0  0  0  0
 18 40  1  0  0  0  0
M  END
> <s_m_source_file>
AV-unprocessed.smi

> <i_m_source_file_index>
3345

> <i_lp_mmshare_version>
43012

> <i_f3d_flags>
0

> <s_epik_input>
W0NIMl0xW0NIMl1PW0NIMl1bQ0gyXU4xW0NIMl1bQ0BASF0oW0NIM10pW05IXUMoPU8pW0NASF0oW0NIM10pbjJbY0hdbltjSF1uMg==

> <s_epik_cmdline>
J2VwaWtfcHl0aG9uJywgJy1waCcsICc3LjAnLCAnLXRuJywgJzgnLCAnLW1hJywgJzIwMCcsICctbWV0YWxfYmluZGluZycsICctaW1hZScsICc8aW5maWxlLm1hZT4nLCAnLW9tYWUnLCAnPG91dGZpbGUubWFlPic=

> <r_lp_tautomer_probability>
1

> <r_epik_Ionization_Penalty>
0.211373

> <r_epik_Ionization_Penalty_Charging>
0

> <r_epik_Ionization_Penalty_Neutral>
0.211373

> <r_epik_State_Penalty>
0.201459

> <r_epik_Charging_Adjusted_Penalty>
0.201459

> <i_epik_Tot_Q>
0

> <i_epik_Tot_abs_Q>
0

> <r_epik_Metal_State_Penalty>
0.201458

> <b_epik_Metal_Only>
0

> <s_lp_Force_Field>
OPLS_2005

> <r_lp_Energy>
31.9389

> <b_lp_Chiralities_Consistent>
1

> <s_lp_Variant>
AV-unprocessed.smi:3345-3

> <Gold.Version>
5.8.1

> <Gold.Id.Protein>
6NUR|6NUR_protein|mol2

> <Gold.PLP.Fitness>
41.5206

> <Gold.PLP.PLP>
-36.4465

> <Gold.PLP.part.hbond>
-1.0000

> <Gold.PLP.part.metal>
0.0000

> <Gold.PLP.part.buried>
-3.5212

> <Gold.PLP.part.nonpolar>
-32.3745

> <Gold.PLP.part.repulsive>
0.4076

> <Gold.PLP.ligand.clash>
0.0000

> <Gold.PLP.ligand.torsion>
0.5348

> <Gold.PLP.Chemscore.Hbond>
0.0000

> <Gold.PLP.Chemscore.CHOScore>
2.0000

> <Gold.PLP.Chemscore.Metal>
0.0000

> <Gold.Chemscore.Hbonds>
donor molecule, donor type, donor heavy atom, donor atom, acceptor molecule, acceptor atom, score
      L1  C    16    39       P1  8028  1.00
      L1  C    18    40       P1 10175  1.00

> <Gold.PLP.Chemscore.Internal.Correction>
0.1436

> <Gold.Rescore>
     Score         DG    S(hbond)    S(metal)    S(lipo)     H(rot)  DE(clash)    DE(int)     intcor
      7.64      -8.57       0.00        0.00      81.91       2.54       0.08       0.85       ----

> <Gold.Chemscore.Fitness>
7.6367

> <Gold.Chemscore.DG>
-8.5730

> <Gold.Chemscore.ZeroCoef>
-5.4800

> <Gold.Chemscore.Hbond>
0.0000

> <Gold.Chemscore.Metal>
0.0000

> <Gold.Chemscore.Lipo>
81.9099

> <Gold.Chemscore.Internal_Hbond>
0.0000

> <Gold.Chemscore.DEClash>
0.0832

> <Gold.Chemscore.DEInternal>
0.8531

> <Gold.Chemscore.Rot>
2.5353

> <Gold.Chemscore.Internal.Correction>
   9.000000E+99

> <Gold.Chemscore.Hbond.Weighted>
-0.0000

> <Gold.Chemscore.Metal.Weighted>
-0.0000

> <Gold.Chemscore.Lipo.Weighted>
-9.5835

> <Gold.Chemscore.Internal_Hbond.Weighted>
0.0000

> <Gold.Chemscore.DEClash.Weighted>
0.0832

> <Gold.Chemscore.DEInternal.Weighted>
0.8531

> <Gold.Chemscore.Rot.Weighted>
6.4905

> <Gold.Chemscore.Internal.Correction.Weighted>
   9.000000E+99

> <Gold.Protein.RotatedTorsions>
[ 6907 6896 6895 6894 ] final   24.53 input  -60.11 | X-H torsion
[ 7974 7965 7964 7962 ] final  -16.81 input  175.53 | X-H torsion
[ 8008 7997 7996 7995 ] final  109.71 input   59.86 | X-H torsion
[ 10167 10162 10161 10158 ] final -176.61 input  -65.29 | X-H torsion
[ 10718 10713 10712 10709 ] final  153.30 input   66.30 | X-H torsion
[ 10763 10752 10751 10750 ] final -174.18 input  -60.55 | X-H torsion
[ 11005 11000 10999 10996 ] final   69.35 input  -57.11 | X-H torsion

> <Gold.Protein.ActiveResidues>
 VAL166  LYS551  ARG553  GLY616  TRP617  ASP618  TYR619  PRO620  LYS621  CYS622 
 ASP623  PHE694  ASN695  SER759  ASP760  ASP761  ALA762  ILE779  LEU786  VAL792 
 PHE793  MET794  SER795  GLU796  ALA797  LYS798  CYS799  TRP800  GLU811  SER814 

> <Gold.Protein.RotatedAtoms>
  151.9588  135.0133  160.0546 H   0  0  0  0  0  0  0  0  0  0  0  0  # atno 6907 bound_to 6896
  152.1887  133.4753  159.5005 H   0  0  0  0  0  0  0  0  0  0  0  0  # atno 6908 bound_to 6896
  150.6931  134.1657  159.4236 H   0  0  0  0  0  0  0  0  0  0  0  0  # atno 6909 bound_to 6896
  146.1970  140.3689  142.8437 H   0  0  0  0  0  0  0  0  0  0  0  0  # atno 7974 bound_to 7965
  156.1999  140.3052  155.9505 H   0  0  0  0  0  0  0  0  0  0  0  0  # atno 8008 bound_to 7997
  155.2978  140.0445  157.3044 H   0  0  0  0  0  0  0  0  0  0  0  0  # atno 8009 bound_to 7997
  154.5558  140.2305  155.8422 H   0  0  0  0  0  0  0  0  0  0  0  0  # atno 8010 bound_to 7997
  139.5521  144.2082  152.1096 H   0  0  0  0  0  0  0  0  0  0  0  0  # atno 10167 bound_to 10162
  157.2465  131.0770  151.1758 H   0  0  0  0  0  0  0  0  0  0  0  0  # atno 10718 bound_to 10713
  154.5992  135.2853  155.0553 H   0  0  0  0  0  0  0  0  0  0  0  0  # atno 10763 bound_to 10752
  154.1824  135.6454  153.5041 H   0  0  0  0  0  0  0  0  0  0  0  0  # atno 10764 bound_to 10752
  153.0150  135.5427  154.6705 H   0  0  0  0  0  0  0  0  0  0  0  0  # atno 10765 bound_to 10752
  139.9659  134.6982  156.0547 H   0  0  0  0  0  0  0  0  0  0  0  0  # atno 11005 bound_to 11000
  144.8602  140.7128  143.6112 LP  0  0  0  0  0  0  0  0  0  0  0  0  # atno 17320 bound_to 7965
  145.3609  139.1682  143.4383 LP  0  0  0  0  0  0  0  0  0  0  0  0  # atno 17321 bound_to 7965
  140.1579  144.5053  150.6649 LP  0  0  0  0  0  0  0  0  0  0  0  0  # atno 17342 bound_to 10162
  140.6786  143.2316  151.5442 LP  0  0  0  0  0  0  0  0  0  0  0  0  # atno 17343 bound_to 10162
  157.3323  130.6991  149.6332 LP  0  0  0  0  0  0  0  0  0  0  0  0  # atno 17370 bound_to 10713
  155.9668  130.4304  150.4874 LP  0  0  0  0  0  0  0  0  0  0  0  0  # atno 17371 bound_to 10713
  141.1338  133.6580  156.3538 LP  0  0  0  0  0  0  0  0  0  0  0  0  # atno 17394 bound_to 11000
  140.5398  134.6131  157.5376 LP  0  0  0  0  0  0  0  0  0  0  0  0  # atno 17395 bound_to 11000

$$$$
