AV-unprocessed.smi:2050|AV-procd|sdf|8325|dock5
  -GOLD-   2272010593D 1   1.00000     0.00000
 Structure written by MMmdl.
 33 34  0  0  0  0  0  0  0  0  1 V2000
  144.5156  131.5605  150.8739 C   0  0  0  0  0  0  0  0  0  0  0  0
  145.7421  131.9535  151.6237 C   0  0  0  0  0  0  0  0  0  0  0  0
  146.3674  133.1524  151.8226 C   0  0  0  0  0  0  0  0  0  0  0  0
  147.4814  132.8016  152.6310 C   0  0  0  0  0  0  0  0  0  0  0  0
  148.4038  133.7873  153.0656 N   0  0  0  0  0  0  0  0  0  0  0  0
  149.2285  133.7275  154.1252 C   0  0  0  0  0  0  0  0  0  0  0  0
  149.3111  132.7798  154.9069 O   0  0  0  0  0  0  0  0  0  0  0  0
  149.9664  134.8425  154.2297 N   0  0  0  0  0  0  0  0  0  0  0  0
  150.9592  135.1095  155.2663 C   0  0  0  0  0  0  0  0  0  0  0  0
  151.0959  136.6160  155.5582 C   0  0  1  0  0  0  0  0  0  0  0  0
  152.1134  136.9039  156.6793 C   0  0  0  0  0  0  0  0  0  0  0  0
  152.3729  138.4127  156.7289 C   0  0  0  0  0  0  0  0  0  0  0  0
  152.2662  138.9863  154.9932 S   0  0  0  0  0  0  0  0  0  0  0  0
  151.2991  140.0917  154.9137 O   0  0  0  0  0  0  0  0  0  0  0  0
  153.6208  139.1236  154.4375 O   0  0  0  0  0  0  0  0  0  0  0  0
  151.5046  137.4546  154.3345 C   0  0  0  0  0  0  0  0  0  0  0  0
  147.5314  131.5065  152.9018 N   0  0  0  0  0  0  0  0  0  0  0  0
  146.4170  130.9563  152.2574 O   0  0  0  0  0  0  0  0  0  0  0  0
  144.0713  132.4214  150.3740 H   0  0  0  0  0  0  0  0  0  0  0  0
  143.7695  131.1383  151.5473 H   0  0  0  0  0  0  0  0  0  0  0  0
  144.7492  130.8127  150.1160 H   0  0  0  0  0  0  0  0  0  0  0  0
  146.0723  134.1213  151.4480 H   0  0  0  0  0  0  0  0  0  0  0  0
  148.4401  134.6281  152.5086 H   0  0  0  0  0  0  0  0  0  0  0  0
  149.8305  135.5658  153.5387 H   0  0  0  0  0  0  0  0  0  0  0  0
  150.6354  134.5917  156.1696 H   0  0  0  0  0  0  0  0  0  0  0  0
  151.9277  134.6805  155.0025 H   0  0  0  0  0  0  0  0  0  0  0  0
  150.1294  136.9884  155.9019 H   0  0  0  0  0  0  0  0  0  0  0  0
  151.7700  136.5286  157.6437 H   0  0  0  0  0  0  0  0  0  0  0  0
  153.0504  136.3928  156.4537 H   0  0  0  0  0  0  0  0  0  0  0  0
  151.5955  138.9200  157.3008 H   0  0  0  0  0  0  0  0  0  0  0  0
  153.3436  138.6675  157.1539 H   0  0  0  0  0  0  0  0  0  0  0  0
  152.2599  136.9389  153.7404 H   0  0  0  0  0  0  0  0  0  0  0  0
  150.6643  137.7020  153.6857 H   0  0  0  0  0  0  0  0  0  0  0  0
  1  2  1  0  0  0  0
  1 19  1  0  0  0  0
  1 20  1  0  0  0  0
  1 21  1  0  0  0  0
  2 18  1  0  0  0  0
  2  3  2  0  0  0  0
  3  4  1  0  0  0  0
  3 22  1  0  0  0  0
  4  5  1  0  0  0  0
  4 17  2  0  0  0  0
  5  6  1  0  0  0  0
  5 23  1  0  0  0  0
  6  7  2  0  0  0  0
  6  8  1  0  0  0  0
  8  9  1  0  0  0  0
  8 24  1  0  0  0  0
  9 10  1  0  0  0  0
  9 25  1  0  0  0  0
  9 26  1  0  0  0  0
 10 16  1  0  0  0  0
 10 11  1  0  0  0  0
 10 27  1  0  0  0  0
 11 12  1  0  0  0  0
 11 28  1  0  0  0  0
 11 29  1  0  0  0  0
 12 13  1  0  0  0  0
 12 30  1  0  0  0  0
 12 31  1  0  0  0  0
 13 14  2  0  0  0  0
 13 15  2  0  0  0  0
 13 16  1  0  0  0  0
 16 32  1  0  0  0  0
 16 33  1  0  0  0  0
 17 18  1  0  0  0  0
M  END
> <s_m_source_file>
AV-unprocessed.smi

> <i_m_source_file_index>
2050

> <i_lp_mmshare_version>
43012

> <i_f3d_flags>
0

> <s_epik_input>
W0NIM11jMVtjSF1jKG5vMSlbTkhdQyg9TylbTkhdW0NIMl1bQ0BASF0oW0NIMl0yKVtDSDJdW0NIMl1TMig9Tyk9Tw==

> <s_epik_cmdline>
J2VwaWtfcHl0aG9uJywgJy1waCcsICc3LjAnLCAnLXRuJywgJzgnLCAnLW1hJywgJzIwMCcsICctbWV0YWxfYmluZGluZycsICctaW1hZScsICc8aW5maWxlLm1hZT4nLCAnLW9tYWUnLCAnPG91dGZpbGUubWFlPic=

> <r_lp_tautomer_probability>
1

> <r_epik_Ionization_Penalty>
2.22143e-05

> <r_epik_Ionization_Penalty_Charging>
0

> <r_epik_Ionization_Penalty_Neutral>
2.22143e-05

> <r_epik_State_Penalty>
-0

> <r_epik_Charging_Adjusted_Penalty>
0

> <i_epik_Tot_Q>
0

> <i_epik_Tot_abs_Q>
0

> <r_epik_Metal_State_Penalty>
-0

> <b_epik_Metal_Only>
0

> <s_lp_Force_Field>
OPLS_2005

> <r_lp_Energy>
0.896814

> <b_lp_Chiralities_Consistent>
1

> <s_lp_Variant>
AV-unprocessed.smi:2050-2

> <Gold.Version>
5.8.1

> <Gold.Id.Protein>
6NUR|6NUR_protein|mol2

> <Gold.PLP.Fitness>
41.4233

> <Gold.PLP.PLP>
-30.6183

> <Gold.PLP.part.hbond>
-4.2020

> <Gold.PLP.part.metal>
0.0000

> <Gold.PLP.part.buried>
-6.7661

> <Gold.PLP.part.nonpolar>
-20.6502

> <Gold.PLP.part.repulsive>
0.3836

> <Gold.PLP.ligand.clash>
0.0000

> <Gold.PLP.ligand.torsion>
0.2987

> <Gold.PLP.Chemscore.Hbond>
3.8000

> <Gold.PLP.Chemscore.CHOScore>
0.0000

> <Gold.PLP.Chemscore.Metal>
0.0000

> <Gold.Chemscore.Hbonds>
donor molecule, donor type, donor heavy atom, donor atom, acceptor molecule, acceptor atom, score
      L1  H     5    23       P1  7948  0.85
      L1  H     8    24       P1  7948  0.50
      P1  H  7989  7998       L1    14  1.00
      P1  H  7997  8009       L1    15  1.00

> <Gold.PLP.Chemscore.Internal.Correction>
0.0023

> <Gold.Rescore>
     Score         DG    S(hbond)    S(metal)    S(lipo)     H(rot)  DE(clash)    DE(int)     intcor
     17.80     -19.32       3.61        0.00      44.90       1.36       0.00       1.53       ----

> <Gold.Chemscore.Fitness>
17.7957

> <Gold.Chemscore.DG>
-19.3247

> <Gold.Chemscore.ZeroCoef>
-5.4800

> <Gold.Chemscore.Hbond>
3.6121

> <Gold.Chemscore.Metal>
0.0000

> <Gold.Chemscore.Lipo>
44.9034

> <Gold.Chemscore.Internal_Hbond>
0.0000

> <Gold.Chemscore.DEClash>
0.0015

> <Gold.Chemscore.DEInternal>
1.5276

> <Gold.Chemscore.Rot>
1.3567

> <Gold.Chemscore.Internal.Correction>
   9.000000E+99

> <Gold.Chemscore.Hbonds>
donor molecule, donor type, donor heavy atom, donor atom, acceptor molecule, acceptor atom, score
      L1  H     5    23       P1  7948  0.15
      L1  H     8    24       P1  7948  0.02
      P1  H  7989  7998       L1    14  0.50
      P1  H  7997  8009       L1    15  0.49

> <Gold.Chemscore.Hbond.Weighted>
-12.0643

> <Gold.Chemscore.Metal.Weighted>
-0.0000

> <Gold.Chemscore.Lipo.Weighted>
-5.2537

> <Gold.Chemscore.Internal_Hbond.Weighted>
0.0000

> <Gold.Chemscore.DEClash.Weighted>
0.0015

> <Gold.Chemscore.DEInternal.Weighted>
1.5276

> <Gold.Chemscore.Rot.Weighted>
3.4732

> <Gold.Chemscore.Internal.Correction.Weighted>
   9.000000E+99

> <Gold.Protein.RotatedTorsions>
[ 6907 6896 6895 6894 ] final -175.31 input  -60.11 | X-H torsion
[ 7974 7965 7964 7962 ] final   61.92 input  175.53 | X-H torsion
[ 8008 7997 7996 7995 ] final -124.19 input   59.86 | X-H torsion
[ 10167 10162 10161 10158 ] final  179.40 input  -65.29 | X-H torsion
[ 10718 10713 10712 10709 ] final  -36.96 input   66.30 | X-H torsion
[ 10763 10752 10751 10750 ] final  109.28 input  -60.55 | X-H torsion
[ 11005 11000 10999 10996 ] final  -74.25 input  -57.11 | X-H torsion

> <Gold.Protein.ActiveResidues>
 VAL166  LYS551  ARG553  GLY616  TRP617  ASP618  TYR619  PRO620  LYS621  CYS622 
 ASP623  PHE694  ASN695  SER759  ASP760  ASP761  ALA762  ILE779  LEU786  VAL792 
 PHE793  MET794  SER795  GLU796  ALA797  LYS798  CYS799  TRP800  GLU811  SER814 

> <Gold.Protein.RotatedAtoms>
  151.5865  133.3371  159.3018 H   0  0  0  0  0  0  0  0  0  0  0  0  # atno 6907 bound_to 6896
  150.8284  134.7529  159.6844 H   0  0  0  0  0  0  0  0  0  0  0  0  # atno 6908 bound_to 6896
  152.4371  134.5672  159.9962 H   0  0  0  0  0  0  0  0  0  0  0  0  # atno 6909 bound_to 6896
  145.8792  139.3431  143.0716 H   0  0  0  0  0  0  0  0  0  0  0  0  # atno 7974 bound_to 7965
  155.1928  140.0413  157.2903 H   0  0  0  0  0  0  0  0  0  0  0  0  # atno 8008 bound_to 7997
  154.6127  140.2481  155.7620 H   0  0  0  0  0  0  0  0  0  0  0  0  # atno 8009 bound_to 7997
  156.2388  140.2911  156.0397 H   0  0  0  0  0  0  0  0  0  0  0  0  # atno 8010 bound_to 7997
  139.5335  144.2565  152.0742 H   0  0  0  0  0  0  0  0  0  0  0  0  # atno 10167 bound_to 10162
  156.3208  130.4265  149.7962 H   0  0  0  0  0  0  0  0  0  0  0  0  # atno 10718 bound_to 10713
  153.4325  135.3785  155.2179 H   0  0  0  0  0  0  0  0  0  0  0  0  # atno 10763 bound_to 10752
  154.8750  135.3843  154.4251 H   0  0  0  0  0  0  0  0  0  0  0  0  # atno 10764 bound_to 10752
  153.4785  135.7088  153.6015 H   0  0  0  0  0  0  0  0  0  0  0  0  # atno 10765 bound_to 10752
  141.1633  133.6905  156.7336 H   0  0  0  0  0  0  0  0  0  0  0  0  # atno 11005 bound_to 11000
  145.9044  140.9222  143.0486 LP  0  0  0  0  0  0  0  0  0  0  0  0  # atno 17320 bound_to 7965
  144.6727  140.1075  143.7457 LP  0  0  0  0  0  0  0  0  0  0  0  0  # atno 17321 bound_to 7965
  140.2032  144.4637  150.6421 LP  0  0  0  0  0  0  0  0  0  0  0  0  # atno 17342 bound_to 10162
  140.6528  143.2229  151.6039 LP  0  0  0  0  0  0  0  0  0  0  0  0  # atno 17343 bound_to 10162
  156.5271  130.8241  151.3224 LP  0  0  0  0  0  0  0  0  0  0  0  0  # atno 17370 bound_to 10713
  157.7411  130.9864  150.2424 LP  0  0  0  0  0  0  0  0  0  0  0  0  # atno 17371 bound_to 10713
  140.2726  134.8380  157.3861 LP  0  0  0  0  0  0  0  0  0  0  0  0  # atno 17394 bound_to 11000
  140.1507  134.4854  155.7963 LP  0  0  0  0  0  0  0  0  0  0  0  0  # atno 17395 bound_to 11000

$$$$
