AV-unprocessed.smi:2694|AV-procd|sdf|10406|dock3
  -GOLD-   2272014443D 1   1.00000     0.00000
 Structure written by MMmdl.
 42 44  0  0  0  0  0  0  0  0  1 V2000
  150.7976  140.2711  154.6698 O   0  0  0  0  0  0  0  0  0  0  0  0
  151.2820  140.3152  155.8009 C   0  0  0  0  0  0  0  0  0  0  0  0
  151.0379  141.4266  156.7202 C   0  0  0  0  0  0  0  0  0  0  0  0
  151.5925  141.4401  157.9559 C   0  0  0  0  0  0  0  0  0  0  0  0
  151.3750  142.5950  158.9238 C   0  0  0  0  0  0  0  0  0  0  0  0
  150.9248  143.9244  158.2961 C   0  0  0  0  0  0  0  0  0  0  0  0
  151.8362  144.6349  159.3029 C   0  0  0  0  0  0  0  0  0  0  0  0
  152.6403  143.3333  159.3932 C   0  0  0  0  0  0  0  0  0  0  0  0
  152.4219  140.3934  158.3750 N   0  0  0  0  0  0  0  0  0  0  0  0
  152.6541  139.3979  157.5801 C   0  0  0  0  0  0  0  0  0  0  0  0
  152.0932  139.3327  156.2905 N   0  0  0  0  0  0  0  0  0  0  0  0
  152.4379  138.1493  155.4863 C   0  0  0  0  0  0  0  0  0  0  0  0
  151.1889  137.3386  155.0726 C   0  0  1  0  0  0  0  0  0  0  0  0
  151.3450  136.8207  153.7665 O   0  0  0  0  0  0  0  0  0  0  0  0
  150.8994  136.1567  156.0140 C   0  0  0  0  0  0  0  0  0  0  0  0
  150.1583  135.1598  155.3211 O   0  0  0  0  0  0  0  0  0  0  0  0
  150.5137  133.8378  155.4866 C   0  0  0  0  0  0  0  0  0  0  0  0
  151.4709  133.3881  156.4318 C   0  0  0  0  0  0  0  0  0  0  0  0
  151.7768  132.0177  156.5422 C   0  0  0  0  0  0  0  0  0  0  0  0
  151.1341  131.0810  155.7126 C   0  0  0  0  0  0  0  0  0  0  0  0
  150.1847  131.5167  154.7706 C   0  0  0  0  0  0  0  0  0  0  0  0
  149.8764  132.8867  154.6584 C   0  0  0  0  0  0  0  0  0  0  0  0
  148.7079  133.3956  153.4922 Cl  0  0  0  0  0  0  0  0  0  0  0  0
  150.4060  142.2425  156.4008 H   0  0  0  0  0  0  0  0  0  0  0  0
  150.7388  142.3058  159.7623 H   0  0  0  0  0  0  0  0  0  0  0  0
  151.2607  144.0565  157.2659 H   0  0  0  0  0  0  0  0  0  0  0  0
  149.8627  144.1455  158.4065 H   0  0  0  0  0  0  0  0  0  0  0  0
  152.3866  145.4861  158.9013 H   0  0  0  0  0  0  0  0  0  0  0  0
  151.3258  144.8837  160.2349 H   0  0  0  0  0  0  0  0  0  0  0  0
  152.9759  143.0719  160.3971 H   0  0  0  0  0  0  0  0  0  0  0  0
  153.4594  143.3019  158.6721 H   0  0  0  0  0  0  0  0  0  0  0  0
  153.2956  138.5592  157.8559 H   0  0  0  0  0  0  0  0  0  0  0  0
  153.0311  138.4110  154.6073 H   0  0  0  0  0  0  0  0  0  0  0  0
  153.0991  137.5123  156.0767 H   0  0  0  0  0  0  0  0  0  0  0  0
  150.3067  137.9797  155.0642 H   0  0  0  0  0  0  0  0  0  0  0  0
  150.4882  136.6783  153.3944 H   0  0  0  0  0  0  0  0  0  0  0  0
  151.8484  135.7278  156.3398 H   0  0  0  0  0  0  0  0  0  0  0  0
  150.3678  136.4998  156.9035 H   0  0  0  0  0  0  0  0  0  0  0  0
  151.9854  134.0750  157.0861 H   0  0  0  0  0  0  0  0  0  0  0  0
  152.5066  131.6853  157.2657 H   0  0  0  0  0  0  0  0  0  0  0  0
  151.3692  130.0302  155.7983 H   0  0  0  0  0  0  0  0  0  0  0  0
  149.6915  130.7974  154.1330 H   0  0  0  0  0  0  0  0  0  0  0  0
  1  2  2  0  0  0  0
  2 11  1  0  0  0  0
  2  3  1  0  0  0  0
  3  4  2  0  0  0  0
  3 24  1  0  0  0  0
  4  5  1  0  0  0  0
  4  9  1  0  0  0  0
  5  8  1  0  0  0  0
  5  6  1  0  0  0  0
  5 25  1  0  0  0  0
  6  7  1  0  0  0  0
  6 26  1  0  0  0  0
  6 27  1  0  0  0  0
  7  8  1  0  0  0  0
  7 28  1  0  0  0  0
  7 29  1  0  0  0  0
  8 30  1  0  0  0  0
  8 31  1  0  0  0  0
  9 10  2  0  0  0  0
 10 11  1  0  0  0  0
 10 32  1  0  0  0  0
 11 12  1  0  0  0  0
 12 13  1  0  0  0  0
 12 33  1  0  0  0  0
 12 34  1  0  0  0  0
 13 14  1  0  0  0  0
 13 15  1  0  0  0  0
 13 35  1  0  0  0  0
 14 36  1  0  0  0  0
 15 16  1  0  0  0  0
 15 37  1  0  0  0  0
 15 38  1  0  0  0  0
 16 17  1  0  0  0  0
 17 22  1  0  0  0  0
 17 18  2  0  0  0  0
 18 19  1  0  0  0  0
 18 39  1  0  0  0  0
 19 20  2  0  0  0  0
 19 40  1  0  0  0  0
 20 21  1  0  0  0  0
 20 41  1  0  0  0  0
 21 22  2  0  0  0  0
 21 42  1  0  0  0  0
 22 23  1  0  0  0  0
M  END
> <s_m_source_file>
AV-unprocessed.smi

> <i_m_source_file_index>
2694

> <i_lp_mmshare_version>
43012

> <i_f3d_flags>
0

> <s_epik_input>
W0NIMl0xW0NIMl1bQ0gyXVtDSF0xYyhbY0hdYzI9TyluW2NIXW4yW0NIMl1bQ0BIXShbT0hdKVtDSDJdT2MzW2NIXVtjSF1bY0hdW2NIXWMzQ2w=

> <s_epik_cmdline>
J2VwaWtfcHl0aG9uJywgJy1waCcsICc3LjAnLCAnLXRuJywgJzgnLCAnLW1hJywgJzIwMCcsICctbWV0YWxfYmluZGluZycsICctaW1hZScsICc8aW5maWxlLm1hZT4nLCAnLW9tYWUnLCAnPG91dGZpbGUubWFlPic=

> <r_lp_tautomer_probability>
1

> <r_epik_Ionization_Penalty>
1.78212e-05

> <r_epik_Ionization_Penalty_Charging>
5.61663e-08

> <r_epik_Ionization_Penalty_Neutral>
1.7765e-05

> <r_epik_State_Penalty>
-0

> <r_epik_Charging_Adjusted_Penalty>
5.61663e-08

> <i_epik_Tot_Q>
0

> <i_epik_Tot_abs_Q>
0

> <r_epik_Metal_State_Penalty>
-0

> <b_epik_Metal_Only>
0

> <s_lp_Force_Field>
OPLS_2005

> <r_lp_Energy>
33.164

> <b_lp_Chiralities_Consistent>
1

> <s_lp_Variant>
AV-unprocessed.smi:2694-2

> <Gold.Version>
5.8.1

> <Gold.Id.Protein>
6NUR|6NUR_protein|mol2

> <Gold.PLP.Fitness>
51.2535

> <Gold.PLP.PLP>
-46.9241

> <Gold.PLP.part.hbond>
-3.7055

> <Gold.PLP.part.metal>
0.0000

> <Gold.PLP.part.buried>
-3.6137

> <Gold.PLP.part.nonpolar>
-40.1730

> <Gold.PLP.part.repulsive>
0.1937

> <Gold.PLP.ligand.clash>
0.0000

> <Gold.PLP.ligand.torsion>
1.4683

> <Gold.PLP.Chemscore.Hbond>
2.2446

> <Gold.PLP.Chemscore.CHOScore>
0.0000

> <Gold.PLP.Chemscore.Metal>
0.0000

> <Gold.Chemscore.Hbonds>
donor molecule, donor type, donor heavy atom, donor atom, acceptor molecule, acceptor atom, score
      L1  H    14    36       P1  7948  0.20
      P1  H  7989  7998       L1     1  1.00
      P1  H 10752 10763       L1    14  0.90

> <Gold.PLP.Chemscore.Internal.Correction>
0.5323

> <Gold.Rescore>
     Score         DG    S(hbond)    S(metal)    S(lipo)     H(rot)  DE(clash)    DE(int)     intcor
     16.16     -18.49       1.94        0.00     108.97       2.42       0.01       2.32       ----

> <Gold.Chemscore.Fitness>
16.1638

> <Gold.Chemscore.DG>
-18.4905

> <Gold.Chemscore.ZeroCoef>
-5.4800

> <Gold.Chemscore.Hbond>
1.9364

> <Gold.Chemscore.Metal>
0.0000

> <Gold.Chemscore.Lipo>
108.9705

> <Gold.Chemscore.Internal_Hbond>
0.0000

> <Gold.Chemscore.DEClash>
0.0089

> <Gold.Chemscore.DEInternal>
2.3178

> <Gold.Chemscore.Rot>
2.4245

> <Gold.Chemscore.Internal.Correction>
   9.000000E+99

> <Gold.Chemscore.Hbonds>
donor molecule, donor type, donor heavy atom, donor atom, acceptor molecule, acceptor atom, score
      P1  H  7989  7998       L1     1  0.92
      P1  H 10752 10763       L1    14  0.17

> <Gold.Chemscore.Hbond.Weighted>
-6.4675

> <Gold.Chemscore.Metal.Weighted>
-0.0000

> <Gold.Chemscore.Lipo.Weighted>
-12.7496

> <Gold.Chemscore.Internal_Hbond.Weighted>
0.0000

> <Gold.Chemscore.DEClash.Weighted>
0.0089

> <Gold.Chemscore.DEInternal.Weighted>
2.3178

> <Gold.Chemscore.Rot.Weighted>
6.2066

> <Gold.Chemscore.Internal.Correction.Weighted>
   9.000000E+99

> <Gold.Protein.RotatedTorsions>
[ 6907 6896 6895 6894 ] final  120.64 input  -60.11 | X-H torsion
[ 7974 7965 7964 7962 ] final  -47.60 input  175.53 | X-H torsion
[ 8008 7997 7996 7995 ] final  -68.24 input   59.86 | X-H torsion
[ 10167 10162 10161 10158 ] final  153.86 input  -65.29 | X-H torsion
[ 10718 10713 10712 10709 ] final  -69.33 input   66.30 | X-H torsion
[ 10763 10752 10751 10750 ] final   31.73 input  -60.55 | X-H torsion
[ 11005 11000 10999 10996 ] final  -30.13 input  -57.11 | X-H torsion

> <Gold.Protein.ActiveResidues>
 VAL166  LYS551  ARG553  GLY616  TRP617  ASP618  TYR619  PRO620  LYS621  CYS622 
 ASP623  PHE694  ASN695  SER759  ASP760  ASP761  ALA762  ILE779  LEU786  VAL792 
 PHE793  MET794  SER795  GLU796  ALA797  LYS798  CYS799  TRP800  GLU811  SER814 

> <Gold.Protein.RotatedAtoms>
  152.4383  133.7401  159.6635 H   0  0  0  0  0  0  0  0  0  0  0  0  # atno 6907 bound_to 6896
  150.8270  133.8145  159.3120 H   0  0  0  0  0  0  0  0  0  0  0  0  # atno 6908 bound_to 6896
  151.5810  135.1061  160.0069 H   0  0  0  0  0  0  0  0  0  0  0  0  # atno 6909 bound_to 6896
  145.9599  140.7489  142.9462 H   0  0  0  0  0  0  0  0  0  0  0  0  # atno 7974 bound_to 7965
  154.4854  140.0877  156.7475 H   0  0  0  0  0  0  0  0  0  0  0  0  # atno 8008 bound_to 7997
  155.4362  140.3452  155.4267 H   0  0  0  0  0  0  0  0  0  0  0  0  # atno 8009 bound_to 7997
  156.1254  140.1486  156.9132 H   0  0  0  0  0  0  0  0  0  0  0  0  # atno 8010 bound_to 7997
  139.4825  144.5236  151.7836 H   0  0  0  0  0  0  0  0  0  0  0  0  # atno 10167 bound_to 10162
  156.0461  130.4310  150.2131 H   0  0  0  0  0  0  0  0  0  0  0  0  # atno 10718 bound_to 10713
  153.0300  135.6431  154.1244 H   0  0  0  0  0  0  0  0  0  0  0  0  # atno 10763 bound_to 10752
  154.0968  135.2862  155.3261 H   0  0  0  0  0  0  0  0  0  0  0  0  # atno 10764 bound_to 10752
  154.6427  135.5454  153.7871 H   0  0  0  0  0  0  0  0  0  0  0  0  # atno 10765 bound_to 10752
  140.9356  133.7311  156.1000 H   0  0  0  0  0  0  0  0  0  0  0  0  # atno 11005 bound_to 11000
  144.6813  140.2574  143.7323 LP  0  0  0  0  0  0  0  0  0  0  0  0  # atno 17320 bound_to 7965
  145.8054  139.1981  143.2024 LP  0  0  0  0  0  0  0  0  0  0  0  0  # atno 17321 bound_to 7965
  140.4754  144.1527  150.5924 LP  0  0  0  0  0  0  0  0  0  0  0  0  # atno 17342 bound_to 10162
  140.4337  143.2557  151.9563 LP  0  0  0  0  0  0  0  0  0  0  0  0  # atno 17343 bound_to 10162
  157.0221  130.9982  151.3337 LP  0  0  0  0  0  0  0  0  0  0  0  0  # atno 17370 bound_to 10713
  157.5337  130.8075  149.7947 LP  0  0  0  0  0  0  0  0  0  0  0  0  # atno 17371 bound_to 10713
  140.7804  134.3732  157.5488 LP  0  0  0  0  0  0  0  0  0  0  0  0  # atno 17394 bound_to 11000
  139.8807  134.9078  156.2953 LP  0  0  0  0  0  0  0  0  0  0  0  0  # atno 17395 bound_to 11000

$$$$
