AV-unprocessed.smi:2143|AV-procd|sdf|8725|dock4
  -GOLD-   2272011493D 1   1.00000     0.00000
 Structure written by MMmdl.
 44 45  0  0  0  0  0  0  0  0  1 V2000
  153.3479  141.9852  159.4236 C   0  0  0  0  0  0  0  0  0  0  0  0
  151.9814  142.6940  159.5258 C   0  0  1  0  0  0  0  0  0  0  0  0
  152.1318  144.2274  159.4624 C   0  0  0  0  0  0  0  0  0  0  0  0
  152.4778  144.7188  158.0484 C   0  0  0  0  0  0  0  0  0  0  0  0
  151.4398  144.2361  157.0265 C   0  0  0  0  0  0  0  0  0  0  0  0
  151.2699  142.7047  157.0564 C   0  0  2  0  0  0  0  0  0  0  0  0
  150.2170  142.3383  156.1096 N   0  0  0  0  0  0  0  0  0  0  0  0
  150.2053  141.2496  155.3248 C   0  0  0  0  0  0  0  0  0  0  0  0
  151.0891  140.3916  155.3398 O   0  0  0  0  0  0  0  0  0  0  0  0
  148.9889  141.1061  154.4000 C   0  0  0  0  0  0  0  0  0  0  0  0
  147.7727  141.7223  154.9455 N   0  0  0  0  0  0  0  0  0  0  0  0
  147.0342  142.5907  154.1627 C   0  0  0  0  0  0  0  0  0  0  0  0
  145.9157  143.2139  154.5935 C   0  0  0  0  0  0  0  0  0  0  0  0
  145.4105  142.9974  155.9439 C   0  0  0  0  0  0  0  0  0  0  0  0
  144.4081  143.5615  156.3836 O   0  0  0  0  0  0  0  0  0  0  0  0
  146.1756  142.0923  156.7182 N   0  0  0  0  0  0  0  0  0  0  0  0
  145.7641  141.8289  158.0816 C   0  0  0  0  0  0  0  0  0  0  0  0
  147.3535  141.4559  156.2670 C   0  0  0  0  0  0  0  0  0  0  0  0
  148.0053  140.7001  156.9922 O   0  0  0  0  0  0  0  0  0  0  0  0
  150.9337  142.2075  158.4881 C   0  0  1  0  0  0  0  0  0  0  0  0
  150.6980  140.6860  158.5657 C   0  0  0  0  0  0  0  0  0  0  0  0
  153.8064  142.1111  158.4433 H   0  0  0  0  0  0  0  0  0  0  0  0
  153.2594  140.9154  159.6113 H   0  0  0  0  0  0  0  0  0  0  0  0
  154.0454  142.3790  160.1635 H   0  0  0  0  0  0  0  0  0  0  0  0
  151.5908  142.4586  160.5168 H   0  0  0  0  0  0  0  0  0  0  0  0
  151.1977  144.6926  159.7805 H   0  0  0  0  0  0  0  0  0  0  0  0
  152.8907  144.5634  160.1698 H   0  0  0  0  0  0  0  0  0  0  0  0
  152.5265  145.8079  158.0375 H   0  0  0  0  0  0  0  0  0  0  0  0
  153.4689  144.3669  157.7612 H   0  0  0  0  0  0  0  0  0  0  0  0
  150.4830  144.7174  157.2359 H   0  0  0  0  0  0  0  0  0  0  0  0
  151.7340  144.5594  156.0272 H   0  0  0  0  0  0  0  0  0  0  0  0
  152.2154  142.2593  156.7440 H   0  0  0  0  0  0  0  0  0  0  0  0
  149.4395  142.9779  156.0333 H   0  0  0  0  0  0  0  0  0  0  0  0
  149.2374  141.5592  153.4395 H   0  0  0  0  0  0  0  0  0  0  0  0
  148.8083  140.0503  154.1899 H   0  0  0  0  0  0  0  0  0  0  0  0
  147.3698  142.7884  153.1548 H   0  0  0  0  0  0  0  0  0  0  0  0
  145.3894  143.8853  153.9309 H   0  0  0  0  0  0  0  0  0  0  0  0
  145.9056  140.7669  158.2895 H   0  0  0  0  0  0  0  0  0  0  0  0
  144.7074  142.0624  158.2134 H   0  0  0  0  0  0  0  0  0  0  0  0
  146.3888  142.4492  158.7261 H   0  0  0  0  0  0  0  0  0  0  0  0
  149.9872  142.6722  158.7700 H   0  0  0  0  0  0  0  0  0  0  0  0
  151.5471  140.1273  158.1715 H   0  0  0  0  0  0  0  0  0  0  0  0
  149.8184  140.3889  157.9947 H   0  0  0  0  0  0  0  0  0  0  0  0
  150.5341  140.3654  159.5948 H   0  0  0  0  0  0  0  0  0  0  0  0
  1  2  1  0  0  0  0
  1 22  1  0  0  0  0
  1 23  1  0  0  0  0
  1 24  1  0  0  0  0
  2 20  1  0  0  0  0
  2  3  1  0  0  0  0
  2 25  1  0  0  0  0
  3  4  1  0  0  0  0
  3 26  1  0  0  0  0
  3 27  1  0  0  0  0
  4  5  1  0  0  0  0
  4 28  1  0  0  0  0
  4 29  1  0  0  0  0
  5  6  1  0  0  0  0
  5 30  1  0  0  0  0
  5 31  1  0  0  0  0
  6  7  1  0  0  0  0
  6 20  1  0  0  0  0
  6 32  1  0  0  0  0
  7  8  1  0  0  0  0
  7 33  1  0  0  0  0
  8  9  2  0  0  0  0
  8 10  1  0  0  0  0
 10 11  1  0  0  0  0
 10 34  1  0  0  0  0
 10 35  1  0  0  0  0
 11 18  1  0  0  0  0
 11 12  1  0  0  0  0
 12 13  2  0  0  0  0
 12 36  1  0  0  0  0
 13 14  1  0  0  0  0
 13 37  1  0  0  0  0
 14 15  2  0  0  0  0
 14 16  1  0  0  0  0
 16 17  1  0  0  0  0
 16 18  1  0  0  0  0
 17 38  1  0  0  0  0
 17 39  1  0  0  0  0
 17 40  1  0  0  0  0
 18 19  2  0  0  0  0
 20 21  1  0  0  0  0
 20 41  1  0  0  0  0
 21 42  1  0  0  0  0
 21 43  1  0  0  0  0
 21 44  1  0  0  0  0
M  END
> <s_m_source_file>
AV-unprocessed.smi

> <i_m_source_file_index>
2143

> <i_lp_mmshare_version>
43012

> <i_f3d_flags>
0

> <s_epik_input>
W0NIM11bQ0BASF0xW0NIMl1bQ0gyXVtDSDJdW0NASF0oW0NASF0xW0NIM10pW05IXUMoPU8pW0NIMl1uMltjSF1bY0hdYyg9TyluKFtDSDNdKWMyPU8=

> <s_epik_cmdline>
J2VwaWtfcHl0aG9uJywgJy1waCcsICc3LjAnLCAnLXRuJywgJzgnLCAnLW1hJywgJzIwMCcsICctbWV0YWxfYmluZGluZycsICctaW1hZScsICc8aW5maWxlLm1hZT4nLCAnLW9tYWUnLCAnPG91dGZpbGUubWFlPic=

> <r_lp_tautomer_probability>
1

> <r_epik_Ionization_Penalty>
3.18445e-08

> <r_epik_Ionization_Penalty_Charging>
1.27977e-08

> <r_epik_Ionization_Penalty_Neutral>
1.90469e-08

> <r_epik_State_Penalty>
-0

> <r_epik_Charging_Adjusted_Penalty>
1.27977e-08

> <i_epik_Tot_Q>
0

> <i_epik_Tot_abs_Q>
0

> <r_epik_Metal_State_Penalty>
-0

> <b_epik_Metal_Only>
0

> <s_lp_Force_Field>
OPLS_2005

> <r_lp_Energy>
21.4204

> <b_lp_Chiralities_Consistent>
1

> <s_lp_Variant>
AV-unprocessed.smi:2143-4

> <Gold.Version>
5.8.1

> <Gold.Id.Protein>
6NUR|6NUR_protein|mol2

> <Gold.PLP.Fitness>
47.0935

> <Gold.PLP.PLP>
-44.1204

> <Gold.PLP.part.hbond>
-2.0000

> <Gold.PLP.part.metal>
0.0000

> <Gold.PLP.part.buried>
-2.6395

> <Gold.PLP.part.nonpolar>
-38.3286

> <Gold.PLP.part.repulsive>
0.2421

> <Gold.PLP.ligand.clash>
0.0000

> <Gold.PLP.ligand.torsion>
0.8081

> <Gold.PLP.Chemscore.Hbond>
1.5280

> <Gold.PLP.Chemscore.CHOScore>
0.0000

> <Gold.PLP.Chemscore.Metal>
0.0000

> <Gold.Chemscore.Hbonds>
donor molecule, donor type, donor heavy atom, donor atom, acceptor molecule, acceptor atom, score
      L1  H     7    33       P1  8028  0.93
      P1  H  7989  7998       L1     9  0.55

> <Gold.PLP.Chemscore.Internal.Correction>
0.0052

> <Gold.Rescore>
     Score         DG    S(hbond)    S(metal)    S(lipo)     H(rot)  DE(clash)    DE(int)     intcor
     14.49     -16.93       0.94        0.00     104.15       1.51       0.54       1.91       ----

> <Gold.Chemscore.Fitness>
14.4865

> <Gold.Chemscore.DG>
-16.9345

> <Gold.Chemscore.ZeroCoef>
-5.4800

> <Gold.Chemscore.Hbond>
0.9409

> <Gold.Chemscore.Metal>
0.0000

> <Gold.Chemscore.Lipo>
104.1482

> <Gold.Chemscore.Internal_Hbond>
0.0000

> <Gold.Chemscore.DEClash>
0.5351

> <Gold.Chemscore.DEInternal>
1.9129

> <Gold.Chemscore.Rot>
1.5131

> <Gold.Chemscore.Internal.Correction>
   9.000000E+99

> <Gold.Chemscore.Hbonds>
donor molecule, donor type, donor heavy atom, donor atom, acceptor molecule, acceptor atom, score
      L1  H     7    33       P1  8028  0.91
      P1  H  7989  7998       L1     9  0.03

> <Gold.Chemscore.Hbond.Weighted>
-3.1426

> <Gold.Chemscore.Metal.Weighted>
-0.0000

> <Gold.Chemscore.Lipo.Weighted>
-12.1853

> <Gold.Chemscore.Internal_Hbond.Weighted>
0.0000

> <Gold.Chemscore.DEClash.Weighted>
0.5351

> <Gold.Chemscore.DEInternal.Weighted>
1.9129

> <Gold.Chemscore.Rot.Weighted>
3.8734

> <Gold.Chemscore.Internal.Correction.Weighted>
   9.000000E+99

> <Gold.Protein.RotatedTorsions>
[ 6907 6896 6895 6894 ] final  111.03 input  -60.11 | X-H torsion
[ 7974 7965 7964 7962 ] final  144.90 input  175.53 | X-H torsion
[ 8008 7997 7996 7995 ] final  -92.99 input   59.86 | X-H torsion
[ 10167 10162 10161 10158 ] final -141.06 input  -65.29 | X-H torsion
[ 10718 10713 10712 10709 ] final  -92.44 input   66.30 | X-H torsion
[ 10763 10752 10751 10750 ] final   61.26 input  -60.55 | X-H torsion
[ 11005 11000 10999 10996 ] final   -1.23 input  -57.11 | X-H torsion

> <Gold.Protein.ActiveResidues>
 VAL166  LYS551  ARG553  GLY616  TRP617  ASP618  TYR619  PRO620  LYS621  CYS622 
 ASP623  PHE694  ASN695  SER759  ASP760  ASP761  ALA762  ILE779  LEU786  VAL792 
 PHE793  MET794  SER795  GLU796  ALA797  LYS798  CYS799  TRP800  GLU811  SER814 

> <Gold.Protein.RotatedAtoms>
  152.4990  133.8716  159.7300 H   0  0  0  0  0  0  0  0  0  0  0  0  # atno 6907 bound_to 6896
  150.9201  133.6882  159.2841 H   0  0  0  0  0  0  0  0  0  0  0  0  # atno 6908 bound_to 6896
  151.4262  135.1008  159.9681 H   0  0  0  0  0  0  0  0  0  0  0  0  # atno 6909 bound_to 6896
  144.8797  139.5718  143.5849 H   0  0  0  0  0  0  0  0  0  0  0  0  # atno 7974 bound_to 7965
  154.7301  140.0503  157.0718 H   0  0  0  0  0  0  0  0  0  0  0  0  # atno 8008 bound_to 7997
  155.0313  140.3158  155.4738 H   0  0  0  0  0  0  0  0  0  0  0  0  # atno 8009 bound_to 7997
  156.2839  140.2149  156.5435 H   0  0  0  0  0  0  0  0  0  0  0  0  # atno 8010 bound_to 7997
  139.8221  143.7560  152.2666 H   0  0  0  0  0  0  0  0  0  0  0  0  # atno 10167 bound_to 10162
  156.0002  130.4987  150.5626 H   0  0  0  0  0  0  0  0  0  0  0  0  # atno 10718 bound_to 10713
  152.9945  135.5507  154.6005 H   0  0  0  0  0  0  0  0  0  0  0  0  # atno 10763 bound_to 10752
  154.5348  135.2816  155.1150 H   0  0  0  0  0  0  0  0  0  0  0  0  # atno 10764 bound_to 10752
  154.2451  135.6409  153.5273 H   0  0  0  0  0  0  0  0  0  0  0  0  # atno 10765 bound_to 10752
  140.6450  133.9455  155.8348 H   0  0  0  0  0  0  0  0  0  0  0  0  # atno 11005 bound_to 11000
  146.2986  139.7355  142.9108 LP  0  0  0  0  0  0  0  0  0  0  0  0  # atno 17320 bound_to 7965
  145.3977  141.0381  143.3088 LP  0  0  0  0  0  0  0  0  0  0  0  0  # atno 17321 bound_to 7965
  139.7741  144.7467  151.0182 LP  0  0  0  0  0  0  0  0  0  0  0  0  # atno 17342 bound_to 10162
  140.7812  143.4612  151.0274 LP  0  0  0  0  0  0  0  0  0  0  0  0  # atno 17343 bound_to 10162
  157.3533  131.0737  151.1696 LP  0  0  0  0  0  0  0  0  0  0  0  0  # atno 17370 bound_to 10713
  157.2505  130.6612  149.5929 LP  0  0  0  0  0  0  0  0  0  0  0  0  # atno 17371 bound_to 10713
  141.0578  134.0390  157.3698 LP  0  0  0  0  0  0  0  0  0  0  0  0  # atno 17394 bound_to 11000
  139.9066  135.0181  156.7512 LP  0  0  0  0  0  0  0  0  0  0  0  0  # atno 17395 bound_to 11000

$$$$
