AV-unprocessed.smi:2903|AV-procd|sdf|11159|dock3
  -GOLD-   2272016 43D 1   1.00000     0.00000
 Structure written by MMmdl.
 40 41  0  0  0  0  0  0  0  0  1 V2000
  154.4332  132.1158  163.5104 C   0  0  0  0  0  0  0  0  0  0  0  0
  155.4681  132.9293  162.7354 C   0  0  0  0  0  0  0  0  0  0  0  0
  156.6324  132.5326  162.7028 O   0  0  0  0  0  0  0  0  0  0  0  0
  155.0034  134.1691  162.0554 C   0  0  0  0  0  0  0  0  0  0  0  0
  154.5858  135.3144  162.7687 C   0  0  0  0  0  0  0  0  0  0  0  0
  154.1573  136.4495  162.0542 C   0  0  0  0  0  0  0  0  0  0  0  0
  154.1536  136.4238  160.6428 C   0  0  0  0  0  0  0  0  0  0  0  0
  153.6975  137.6158  160.0216 N   0  0  0  0  0  0  0  0  0  0  0  0
  152.9314  137.7456  158.9226 C   0  0  0  0  0  0  0  0  0  0  0  0
  152.5136  136.8104  158.2399 O   0  0  0  0  0  0  0  0  0  0  0  0
  152.5973  139.1798  158.5218 C   0  0  0  0  0  0  0  0  0  0  0  0
  153.2552  140.0650  159.4174 O   0  0  0  0  0  0  0  0  0  0  0  0
  152.5938  141.3095  159.5994 C   0  0  0  0  0  0  0  0  0  0  0  0
  152.1274  141.8768  158.2423 C   0  0  0  0  0  0  0  0  0  0  0  0
  151.5290  143.2844  158.3998 C   0  0  0  0  0  0  0  0  0  0  0  0
  152.5167  144.2395  159.0889 C   0  0  0  0  0  0  0  0  0  0  0  0
  152.9854  143.6745  160.4391 C   0  0  0  0  0  0  0  0  0  0  0  0
  153.5892  142.2708  160.2722 C   0  0  0  0  0  0  0  0  0  0  0  0
  154.5566  135.3247  159.9602 N   0  0  0  0  0  0  0  0  0  0  0  0
  154.9661  134.2362  160.6453 C   0  0  0  0  0  0  0  0  0  0  0  0
  153.6321  131.7865  162.8482 H   0  0  0  0  0  0  0  0  0  0  0  0
  154.0021  132.7130  164.3142 H   0  0  0  0  0  0  0  0  0  0  0  0
  154.8947  131.2322  163.9523 H   0  0  0  0  0  0  0  0  0  0  0  0
  154.5852  135.3440  163.8480 H   0  0  0  0  0  0  0  0  0  0  0  0
  153.8346  137.3305  162.5903 H   0  0  0  0  0  0  0  0  0  0  0  0
  153.9775  138.4758  160.4703 H   0  0  0  0  0  0  0  0  0  0  0  0
  152.9193  139.3428  157.4930 H   0  0  0  0  0  0  0  0  0  0  0  0
  151.5177  139.3343  158.5619 H   0  0  0  0  0  0  0  0  0  0  0  0
  151.7368  141.1853  160.2642 H   0  0  0  0  0  0  0  0  0  0  0  0
  152.9722  141.9168  157.5536 H   0  0  0  0  0  0  0  0  0  0  0  0
  151.3875  141.2205  157.7846 H   0  0  0  0  0  0  0  0  0  0  0  0
  151.2500  143.6809  157.4231 H   0  0  0  0  0  0  0  0  0  0  0  0
  150.6094  143.2260  158.9837 H   0  0  0  0  0  0  0  0  0  0  0  0
  153.3798  144.4019  158.4420 H   0  0  0  0  0  0  0  0  0  0  0  0
  152.0516  145.2147  159.2345 H   0  0  0  0  0  0  0  0  0  0  0  0
  153.7191  144.3442  160.8885 H   0  0  0  0  0  0  0  0  0  0  0  0
  152.1427  143.6302  161.1300 H   0  0  0  0  0  0  0  0  0  0  0  0
  153.8852  141.8774  161.2451 H   0  0  0  0  0  0  0  0  0  0  0  0
  154.4996  142.3356  159.6749 H   0  0  0  0  0  0  0  0  0  0  0  0
  155.2709  133.3957  160.0388 H   0  0  0  0  0  0  0  0  0  0  0  0
  1  2  1  0  0  0  0
  1 21  1  0  0  0  0
  1 22  1  0  0  0  0
  1 23  1  0  0  0  0
  2  3  2  0  0  0  0
  2  4  1  0  0  0  0
  4 20  1  0  0  0  0
  4  5  2  0  0  0  0
  5  6  1  0  0  0  0
  5 24  1  0  0  0  0
  6  7  2  0  0  0  0
  6 25  1  0  0  0  0
  7  8  1  0  0  0  0
  7 19  1  0  0  0  0
  8  9  1  0  0  0  0
  8 26  1  0  0  0  0
  9 10  2  0  0  0  0
  9 11  1  0  0  0  0
 11 12  1  0  0  0  0
 11 27  1  0  0  0  0
 11 28  1  0  0  0  0
 12 13  1  0  0  0  0
 13 18  1  0  0  0  0
 13 14  1  0  0  0  0
 13 29  1  0  0  0  0
 14 15  1  0  0  0  0
 14 30  1  0  0  0  0
 14 31  1  0  0  0  0
 15 16  1  0  0  0  0
 15 32  1  0  0  0  0
 15 33  1  0  0  0  0
 16 17  1  0  0  0  0
 16 34  1  0  0  0  0
 16 35  1  0  0  0  0
 17 18  1  0  0  0  0
 17 36  1  0  0  0  0
 17 37  1  0  0  0  0
 18 38  1  0  0  0  0
 18 39  1  0  0  0  0
 19 20  2  0  0  0  0
 20 40  1  0  0  0  0
M  END
> <s_m_source_file>
AV-unprocessed.smi

> <i_m_source_file_index>
2903

> <i_lp_mmshare_version>
43012

> <i_f3d_flags>
0

> <s_epik_input>
W0NIM11DKD1PKWMxW2NIXVtjSF1jKG5bY0hdMSlbTkhdQyg9TylbQ0gyXU9bQ0hdMltDSDJdW0NIMl1bQ0gyXVtDSDJdW0NIMl0y

> <s_epik_cmdline>
J2VwaWtfcHl0aG9uJywgJy1waCcsICc3LjAnLCAnLXRuJywgJzgnLCAnLW1hJywgJzIwMCcsICctbWV0YWxfYmluZGluZycsICctaW1hZScsICc8aW5maWxlLm1hZT4nLCAnLW9tYWUnLCAnPG91dGZpbGUubWFlPic=

> <r_lp_tautomer_probability>
1

> <r_epik_Ionization_Penalty>
3.51143e-05

> <r_epik_Ionization_Penalty_Charging>
0

> <r_epik_Ionization_Penalty_Neutral>
3.51143e-05

> <r_epik_State_Penalty>
-0

> <r_epik_Charging_Adjusted_Penalty>
0

> <i_epik_Tot_Q>
0

> <i_epik_Tot_abs_Q>
0

> <r_epik_Metal_State_Penalty>
-0

> <b_epik_Metal_Only>
0

> <s_lp_Force_Field>
OPLS_2005

> <r_lp_Energy>
19.6274

> <b_lp_Chiralities_Consistent>
1

> <s_lp_Variant>
AV-unprocessed.smi:2903-1

> <Gold.Version>
5.8.1

> <Gold.Id.Protein>
6NUR|6NUR_protein|mol2

> <Gold.PLP.Fitness>
43.1349

> <Gold.PLP.PLP>
-44.1012

> <Gold.PLP.part.hbond>
-1.0000

> <Gold.PLP.part.metal>
0.0000

> <Gold.PLP.part.buried>
-5.3442

> <Gold.PLP.part.nonpolar>
-38.0010

> <Gold.PLP.part.repulsive>
0.1273

> <Gold.PLP.ligand.clash>
0.0000

> <Gold.PLP.ligand.torsion>
1.8842

> <Gold.PLP.Chemscore.Hbond>
0.9280

> <Gold.PLP.Chemscore.CHOScore>
0.0000

> <Gold.PLP.Chemscore.Metal>
0.0000

> <Gold.PLP.Chemscore.Internal.Correction>
0.0180

> <Gold.Rescore>
     Score         DG    S(hbond)    S(metal)    S(lipo)     H(rot)  DE(clash)    DE(int)     intcor
     15.32     -18.25       0.92        0.00     114.01       1.43       0.04       2.88       ----

> <Gold.Chemscore.Fitness>
15.3199

> <Gold.Chemscore.DG>
-18.2478

> <Gold.Chemscore.ZeroCoef>
-5.4800

> <Gold.Chemscore.Hbond>
0.9221

> <Gold.Chemscore.Metal>
0.0000

> <Gold.Chemscore.Lipo>
114.0140

> <Gold.Chemscore.Internal_Hbond>
0.0000

> <Gold.Chemscore.DEClash>
0.0438

> <Gold.Chemscore.DEInternal>
2.8840

> <Gold.Chemscore.Rot>
1.4264

> <Gold.Chemscore.Internal.Correction>
   9.000000E+99

> <Gold.Chemscore.Hbond.Weighted>
-3.0797

> <Gold.Chemscore.Metal.Weighted>
-0.0000

> <Gold.Chemscore.Lipo.Weighted>
-13.3396

> <Gold.Chemscore.Internal_Hbond.Weighted>
0.0000

> <Gold.Chemscore.DEClash.Weighted>
0.0438

> <Gold.Chemscore.DEInternal.Weighted>
2.8840

> <Gold.Chemscore.Rot.Weighted>
3.6516

> <Gold.Chemscore.Internal.Correction.Weighted>
   9.000000E+99

> <Gold.Protein.RotatedTorsions>
[ 6907 6896 6895 6894 ] final  130.95 input  -60.11 | X-H torsion
[ 7974 7965 7964 7962 ] final  107.95 input  175.53 | X-H torsion
[ 8008 7997 7996 7995 ] final -132.93 input   59.86 | X-H torsion
[ 10167 10162 10161 10158 ] final  174.18 input  -65.29 | X-H torsion
[ 10718 10713 10712 10709 ] final  -49.23 input   66.30 | X-H torsion
[ 10763 10752 10751 10750 ] final -117.92 input  -60.55 | X-H torsion
[ 11005 11000 10999 10996 ] final   33.06 input  -57.11 | X-H torsion

> <Gold.Protein.ActiveResidues>
 VAL166  LYS551  ARG553  GLY616  TRP617  ASP618  TYR619  PRO620  LYS621  CYS622 
 ASP623  PHE694  ASN695  SER759  ASP760  ASP761  ALA762  ILE779  LEU786  VAL792 
 PHE793  MET794  SER795  GLU796  ALA797  LYS798  CYS799  TRP800  GLU811  SER814 

> <Gold.Protein.RotatedAtoms>
  152.3475  133.6140  159.5920 H   0  0  0  0  0  0  0  0  0  0  0  0  # atno 6907 bound_to 6896
  150.7517  133.9626  159.3529 H   0  0  0  0  0  0  0  0  0  0  0  0  # atno 6908 bound_to 6896
  151.7482  135.0839  160.0377 H   0  0  0  0  0  0  0  0  0  0  0  0  # atno 6909 bound_to 6896
  145.2869  139.2613  143.3885 H   0  0  0  0  0  0  0  0  0  0  0  0  # atno 7974 bound_to 7965
  155.3371  140.0470  157.3044 H   0  0  0  0  0  0  0  0  0  0  0  0  # atno 8008 bound_to 7997
  154.5297  140.2253  155.8792 H   0  0  0  0  0  0  0  0  0  0  0  0  # atno 8009 bound_to 7997
  156.1776  140.3081  155.9094 H   0  0  0  0  0  0  0  0  0  0  0  0  # atno 8010 bound_to 7997
  139.5133  144.3176  152.0233 H   0  0  0  0  0  0  0  0  0  0  0  0  # atno 10167 bound_to 10162
  156.1913  130.4153  149.9368 H   0  0  0  0  0  0  0  0  0  0  0  0  # atno 10718 bound_to 10713
  154.8571  135.4292  154.2056 H   0  0  0  0  0  0  0  0  0  0  0  0  # atno 10763 bound_to 10752
  153.3093  135.6974  153.7136 H   0  0  0  0  0  0  0  0  0  0  0  0  # atno 10764 bound_to 10752
  153.6235  135.3497  155.2992 H   0  0  0  0  0  0  0  0  0  0  0  0  # atno 10765 bound_to 10752
  140.2670  134.3126  155.7839 H   0  0  0  0  0  0  0  0  0  0  0  0  # atno 11005 bound_to 11000
  146.3198  140.3351  142.8643 LP  0  0  0  0  0  0  0  0  0  0  0  0  # atno 17320 bound_to 7965
  144.9205  140.7862  143.5751 LP  0  0  0  0  0  0  0  0  0  0  0  0  # atno 17321 bound_to 7965
  140.2619  144.4058  150.6182 LP  0  0  0  0  0  0  0  0  0  0  0  0  # atno 17342 bound_to 10162
  140.6151  143.2172  151.6808 LP  0  0  0  0  0  0  0  0  0  0  0  0  # atno 17343 bound_to 10162
  156.7107  130.8969  151.3609 LP  0  0  0  0  0  0  0  0  0  0  0  0  # atno 17370 bound_to 10713
  157.6931  130.9253  150.0567 LP  0  0  0  0  0  0  0  0  0  0  0  0  # atno 17371 bound_to 10713
  141.2183  133.7444  156.9276 LP  0  0  0  0  0  0  0  0  0  0  0  0  # atno 17394 bound_to 11000
  140.1409  134.9294  157.2466 LP  0  0  0  0  0  0  0  0  0  0  0  0  # atno 17395 bound_to 11000

$$$$
