AV-unprocessed.smi:290|AV-procd|sdf|2246|dock4
  -GOLD-   2262022133D 1   1.00000     0.00000
 Structure written by MMmdl.
 59 62  0  0  0  0  0  0  0  0  2 V2000
  152.5730  145.0473  158.8510 C   0  0  0  0  0  0  0  0  0  0  0  0
  151.5322  144.0659  159.4129 C   0  0  1  0  0  0  0  0  0  0  0  0
  150.5609  143.8486  158.3913 O   0  0  0  0  0  0  0  0  0  0  0  0
  150.0762  142.5210  158.4863 C   0  0  0  0  0  0  0  0  0  0  0  0
  151.3334  141.7365  158.8280 C   0  0  0  0  0  0  0  0  0  0  0  0
  152.0494  142.6551  159.8135 C   0  0  2  0  0  0  0  0  0  0  0  0
  151.5536  142.3672  161.1107 O   0  0  0  0  0  0  0  0  0  0  0  0
  153.5893  142.4661  159.8402 C   0  0  0  0  0  0  0  0  0  0  0  0
  154.0049  141.1720  160.3602 N   0  0  0  0  0  0  0  0  0  0  0  0
  154.4019  140.8920  161.6481 C   0  0  0  0  0  0  0  0  0  0  0  0
  154.7267  139.6483  161.8723 N   0  0  0  0  0  0  0  0  0  0  0  0
  154.5483  139.0223  160.6439 C   0  0  0  0  0  0  0  0  0  0  0  0
  154.7198  137.6870  160.1776 C   0  0  0  0  0  0  0  0  0  0  0  0
  155.1248  136.6734  160.9891 N   0  0  0  0  0  0  0  0  0  0  0  0
  154.3853  136.5083  162.2401 C   0  0  0  0  0  0  0  0  0  0  0  0
  154.0712  135.0114  162.3666 C   0  0  0  0  0  0  0  0  0  0  0  0
  154.2877  134.4775  160.9436 C   0  0  2  0  0  0  0  0  0  0  0  0
  154.5128  133.0074  160.8371 N   0  3  2  0  0  0  0  0  0  0  0  0
  154.6464  132.5374  159.4353 C   0  0  0  0  0  0  0  0  0  0  0  0
  153.5810  132.1640  161.6409 C   0  0  0  0  0  0  0  0  0  0  0  0
  154.2137  131.4475  162.8554 C   0  0  0  0  0  0  0  0  0  0  0  0
  154.9018  132.3493  163.6952 O   0  0  0  0  0  0  0  0  0  0  0  0
  155.4614  135.3516  160.4620 C   0  0  2  0  0  0  0  0  0  0  0  0
  156.8444  134.9195  160.9945 C   0  0  0  0  0  0  0  0  0  0  0  0
  154.4540  137.4497  158.8655 N   0  0  0  0  0  0  0  0  0  0  0  0
  154.0448  138.4387  158.0657 C   0  0  0  0  0  0  0  0  0  0  0  0
  153.8370  139.7214  158.3661 N   0  0  0  0  0  0  0  0  0  0  0  0
  154.1041  139.9710  159.6793 C   0  0  0  0  0  0  0  0  0  0  0  0
  153.4127  134.7350  160.3441 H   0  0  0  0  0  0  0  0  0  0  0  0
  155.5099  135.3314  159.3741 H   0  0  0  0  0  0  0  0  0  0  0  0
  153.3455  145.2741  159.5857 H   0  0  0  0  0  0  0  0  0  0  0  0
  152.1011  145.9904  158.5740 H   0  0  0  0  0  0  0  0  0  0  0  0
  153.0552  144.6499  157.9574 H   0  0  0  0  0  0  0  0  0  0  0  0
  151.0290  144.5425  160.2564 H   0  0  0  0  0  0  0  0  0  0  0  0
  149.3378  142.4523  159.2867 H   0  0  0  0  0  0  0  0  0  0  0  0
  149.6125  142.1931  157.5560 H   0  0  0  0  0  0  0  0  0  0  0  0
  151.1272  140.7395  159.2198 H   0  0  0  0  0  0  0  0  0  0  0  0
  151.9290  141.6216  157.9218 H   0  0  0  0  0  0  0  0  0  0  0  0
  152.2644  142.4524  161.7276 H   0  0  0  0  0  0  0  0  0  0  0  0
  154.0063  142.5700  158.8383 H   0  0  0  0  0  0  0  0  0  0  0  0
  154.0560  143.2405  160.4504 H   0  0  0  0  0  0  0  0  0  0  0  0
  154.4382  141.6441  162.4229 H   0  0  0  0  0  0  0  0  0  0  0  0
  154.9731  136.8659  163.0862 H   0  0  0  0  0  0  0  0  0  0  0  0
  153.4534  137.0753  162.2173 H   0  0  0  0  0  0  0  0  0  0  0  0
  154.7690  134.5451  163.0631 H   0  0  0  0  0  0  0  0  0  0  0  0
  153.0631  134.8387  162.7427 H   0  0  0  0  0  0  0  0  0  0  0  0
  153.7702  132.7969  158.8411 H   0  0  0  0  0  0  0  0  0  0  0  0
  154.7780  131.4555  159.3987 H   0  0  0  0  0  0  0  0  0  0  0  0
  155.5146  132.9809  158.9494 H   0  0  0  0  0  0  0  0  0  0  0  0
  152.7979  132.8268  162.0110 H   0  0  0  0  0  0  0  0  0  0  0  0
  153.0612  131.4478  161.0041 H   0  0  0  0  0  0  0  0  0  0  0  0
  153.4860  130.8802  163.4343 H   0  0  0  0  0  0  0  0  0  0  0  0
  154.9473  130.7246  162.4975 H   0  0  0  0  0  0  0  0  0  0  0  0
  155.4051  132.9405  163.1553 H   0  0  0  0  0  0  0  0  0  0  0  0
  157.1266  133.9290  160.6392 H   0  0  0  0  0  0  0  0  0  0  0  0
  156.8830  134.9025  162.0836 H   0  0  0  0  0  0  0  0  0  0  0  0
  157.6158  135.6114  160.6550 H   0  0  0  0  0  0  0  0  0  0  0  0
  153.8554  138.1627  157.0387 H   0  0  0  0  0  0  0  0  0  0  0  0
  155.4183  132.8533  161.2571 H   0  0  0  0  0  0  0  0  0  0  0  0
  1  2  1  0  0  0  0
  1 31  1  0  0  0  0
  1 32  1  0  0  0  0
  1 33  1  0  0  0  0
  2  6  1  0  0  0  0
  2  3  1  0  0  0  0
  2 34  1  0  0  0  0
  3  4  1  0  0  0  0
  4  5  1  0  0  0  0
  4 35  1  0  0  0  0
  4 36  1  0  0  0  0
  5  6  1  0  0  0  0
  5 37  1  0  0  0  0
  5 38  1  0  0  0  0
  6  7  1  0  0  0  0
  6  8  1  0  0  0  0
  7 39  1  0  0  0  0
  8  9  1  0  0  0  0
  8 40  1  0  0  0  0
  8 41  1  0  0  0  0
  9 28  1  0  0  0  0
  9 10  1  0  0  0  0
 10 11  2  0  0  0  0
 10 42  1  0  0  0  0
 11 12  1  0  0  0  0
 12 28  2  0  0  0  0
 12 13  1  0  0  0  0
 13 14  1  0  0  0  0
 13 25  2  0  0  0  0
 14 23  1  0  0  0  0
 14 15  1  0  0  0  0
 15 16  1  0  0  0  0
 15 43  1  0  0  0  0
 15 44  1  0  0  0  0
 16 17  1  0  0  0  0
 16 45  1  0  0  0  0
 16 46  1  0  0  0  0
 17 29  1  0  0  0  0
 17 18  1  0  0  0  0
 17 23  1  0  0  0  0
 18 19  1  0  0  0  0
 18 20  1  0  0  0  0
 18 59  1  0  0  0  0
 19 47  1  0  0  0  0
 19 48  1  0  0  0  0
 19 49  1  0  0  0  0
 20 21  1  0  0  0  0
 20 50  1  0  0  0  0
 20 51  1  0  0  0  0
 21 22  1  0  0  0  0
 21 52  1  0  0  0  0
 21 53  1  0  0  0  0
 22 54  1  0  0  0  0
 23 30  1  0  0  0  0
 23 24  1  0  0  0  0
 24 55  1  0  0  0  0
 24 56  1  0  0  0  0
 24 57  1  0  0  0  0
 25 26  1  0  0  0  0
 26 27  2  0  0  0  0
 26 58  1  0  0  0  0
 27 28  1  0  0  0  0
M  CHG  1  18   1
M  END
> <s_m_source_file>
AV-unprocessed.smi

> <i_m_source_file_index>
290

> <i_lp_mmshare_version>
43012

> <i_f3d_flags>
0

> <s_epik_input>
W0NIMl0xW0NIMl1PW0NAQEhdKFtDSDNdKVtDQEBdMShbT0hdKVtDSDJdbihbY0hdbjIpYyhjMjMpbltjSF1uYzNONFtDSDJdW0NIMl1bQ0BIXShbQ0BIXTRbQ0gzXSlOKFtDSDNdKVtDSDJdW0NIMl1bT0hd

> <s_epik_cmdline>
J2VwaWtfcHl0aG9uJywgJy1waCcsICc3LjAnLCAnLXRuJywgJzgnLCAnLW1hJywgJzIwMCcsICctbWV0YWxfYmluZGluZycsICctaW1hZScsICc8aW5maWxlLm1hZT4nLCAnLW9tYWUnLCAnPG91dGZpbGUubWFlPic=

> <r_lp_tautomer_probability>
1

> <r_epik_Ionization_Penalty>
0.0036983

> <r_epik_Ionization_Penalty_Charging>
0.0032725

> <r_epik_Ionization_Penalty_Neutral>
0.000425798

> <r_epik_State_Penalty>
-0

> <r_epik_Charging_Adjusted_Penalty>
0.0032725

> <i_epik_Tot_Q>
1

> <i_epik_Tot_abs_Q>
1

> <r_epik_Metal_State_Penalty>
-0

> <b_epik_Metal_Only>
0

> <s_lp_Force_Field>
OPLS_2005

> <r_lp_Energy>
63.8525

> <b_lp_Chiralities_Consistent>
1

> <s_lp_Variant>
AV-unprocessed.smi:290-32

> <Gold.Version>
5.8.1

> <Gold.Id.Protein>
6NUR|6NUR_protein|mol2

> <Gold.PLP.Fitness>
49.4332

> <Gold.PLP.PLP>
-47.9885

> <Gold.PLP.part.hbond>
-3.0000

> <Gold.PLP.part.metal>
0.0000

> <Gold.PLP.part.buried>
-4.2154

> <Gold.PLP.part.nonpolar>
-40.6812

> <Gold.PLP.part.repulsive>
0.1724

> <Gold.PLP.ligand.clash>
0.0000

> <Gold.PLP.ligand.torsion>
1.3737

> <Gold.PLP.Chemscore.Hbond>
1.2184

> <Gold.PLP.Chemscore.CHOScore>
0.0000

> <Gold.PLP.Chemscore.Metal>
0.0000

> <Gold.Chemscore.Hbonds>
donor molecule, donor type, donor heavy atom, donor atom, acceptor molecule, acceptor atom, score
      P1  H  6933  6945       L1     7  0.37
      P1  H  7997  8008       L1    27  0.30

> <Gold.PLP.Chemscore.Internal.Correction>
0.5370

> <Gold.Rescore>
     Score         DG    S(hbond)    S(metal)    S(lipo)     H(rot)  DE(clash)    DE(int)     intcor
     10.84     -12.55       0.94        0.00     113.81       3.67       0.08       1.63       ----

> <Gold.Chemscore.Fitness>
10.8421

> <Gold.Chemscore.DG>
-12.5527

> <Gold.Chemscore.ZeroCoef>
-5.4800

> <Gold.Chemscore.Hbond>
0.9405

> <Gold.Chemscore.Metal>
0.0000

> <Gold.Chemscore.Lipo>
113.8099

> <Gold.Chemscore.Internal_Hbond>
0.0000

> <Gold.Chemscore.DEClash>
0.0846

> <Gold.Chemscore.DEInternal>
1.6260

> <Gold.Chemscore.Rot>
3.6658

> <Gold.Chemscore.Internal.Correction>
   9.000000E+99

> <Gold.Chemscore.Hbonds>
donor molecule, donor type, donor heavy atom, donor atom, acceptor molecule, acceptor atom, score
      P1  H  6933  6945       L1     7  0.16

> <Gold.Chemscore.Hbond.Weighted>
-3.1414

> <Gold.Chemscore.Metal.Weighted>
-0.0000

> <Gold.Chemscore.Lipo.Weighted>
-13.3158

> <Gold.Chemscore.Internal_Hbond.Weighted>
0.0000

> <Gold.Chemscore.DEClash.Weighted>
0.0846

> <Gold.Chemscore.DEInternal.Weighted>
1.6260

> <Gold.Chemscore.Rot.Weighted>
9.3844

> <Gold.Chemscore.Internal.Correction.Weighted>
   9.000000E+99

> <Gold.Protein.RotatedTorsions>
[ 6907 6896 6895 6894 ] final  119.19 input  -60.11 | X-H torsion
[ 7974 7965 7964 7962 ] final   10.74 input  175.53 | X-H torsion
[ 8008 7997 7996 7995 ] final -104.94 input   59.86 | X-H torsion
[ 10167 10162 10161 10158 ] final  -59.22 input  -65.29 | X-H torsion
[ 10718 10713 10712 10709 ] final  125.20 input   66.30 | X-H torsion
[ 10763 10752 10751 10750 ] final  154.29 input  -60.55 | X-H torsion
[ 11005 11000 10999 10996 ] final   42.18 input  -57.11 | X-H torsion

> <Gold.Protein.ActiveResidues>
 VAL166  LYS551  ARG553  GLY616  TRP617  ASP618  TYR619  PRO620  LYS621  CYS622 
 ASP623  PHE694  ASN695  SER759  ASP760  ASP761  ALA762  ILE779  LEU786  VAL792 
 PHE793  MET794  SER795  GLU796  ALA797  LYS798  CYS799  TRP800  GLU811  SER814 

> <Gold.Protein.RotatedAtoms>
  152.4490  133.7591  159.6736 H   0  0  0  0  0  0  0  0  0  0  0  0  # atno 6907 bound_to 6896
  150.8396  133.7946  159.3072 H   0  0  0  0  0  0  0  0  0  0  0  0  # atno 6908 bound_to 6896
  151.5575  135.1069  160.0016 H   0  0  0  0  0  0  0  0  0  0  0  0  # atno 6909 bound_to 6896
  146.2383  139.9588  142.8461 H   0  0  0  0  0  0  0  0  0  0  0  0  # atno 7974 bound_to 7965
  154.8926  140.0415  157.1847 H   0  0  0  0  0  0  0  0  0  0  0  0  # atno 8008 bound_to 7997
  154.8525  140.2931  155.5568 H   0  0  0  0  0  0  0  0  0  0  0  0  # atno 8009 bound_to 7997
  156.2996  140.2462  156.3486 H   0  0  0  0  0  0  0  0  0  0  0  0  # atno 8010 bound_to 7997
  140.6149  143.2399  151.5621 H   0  0  0  0  0  0  0  0  0  0  0  0  # atno 10167 bound_to 10162
  157.5522  131.1093  150.8682 H   0  0  0  0  0  0  0  0  0  0  0  0  # atno 10718 bound_to 10713
  154.1499  135.2815  155.3138 H   0  0  0  0  0  0  0  0  0  0  0  0  # atno 10763 bound_to 10752
  154.6225  135.5462  153.7594 H   0  0  0  0  0  0  0  0  0  0  0  0  # atno 10764 bound_to 10752
  153.0224  135.6442  154.1644 H   0  0  0  0  0  0  0  0  0  0  0  0  # atno 10765 bound_to 10752
  140.1763  134.4159  155.8226 H   0  0  0  0  0  0  0  0  0  0  0  0  # atno 11005 bound_to 11000
  145.1790  140.9758  143.4277 LP  0  0  0  0  0  0  0  0  0  0  0  0  # atno 17320 bound_to 7965
  144.9959  139.3644  143.6192 LP  0  0  0  0  0  0  0  0  0  0  0  0  # atno 17321 bound_to 7965
  139.5390  144.2699  152.1312 LP  0  0  0  0  0  0  0  0  0  0  0  0  # atno 17342 bound_to 10162
  140.1906  144.4755  150.6481 LP  0  0  0  0  0  0  0  0  0  0  0  0  # atno 17343 bound_to 10162
  156.9204  130.5313  149.5279 LP  0  0  0  0  0  0  0  0  0  0  0  0  # atno 17370 bound_to 10713
  156.0587  130.5644  150.9146 LP  0  0  0  0  0  0  0  0  0  0  0  0  # atno 17371 bound_to 10713
  141.2220  133.6979  156.7852 LP  0  0  0  0  0  0  0  0  0  0  0  0  # atno 17394 bound_to 11000
  140.2319  134.8679  157.3485 LP  0  0  0  0  0  0  0  0  0  0  0  0  # atno 17395 bound_to 11000

$$$$
