AV-unprocessed.smi:2001|AV-procd|sdf|8106|dock3
  -GOLD-   2272010333D 1   1.00000     0.00000
 Structure written by MMmdl.
 51 52  0  0  0  0  0  0  0  0  2 V2000
  151.6597  143.6701  158.3381 C   0  0  0  0  0  0  0  0  0  0  0  0
  151.1849  142.3829  158.6898 O   0  0  0  0  0  0  0  0  0  0  0  0
  150.7787  141.6235  157.5633 C   0  0  0  0  0  0  0  0  0  0  0  0
  151.7338  140.4355  157.3596 C   0  0  0  0  0  0  0  0  0  0  0  0
  151.3790  139.6462  156.1741 N   0  0  0  0  0  0  0  0  0  0  0  0
  150.1621  139.9947  155.6101 N   0  0  0  0  0  0  0  0  0  0  0  0
  149.7379  139.3846  154.5508 C   0  0  0  0  0  0  0  0  0  0  0  0
  148.4326  139.7233  153.9180 C   0  0  0  0  0  0  0  0  0  0  0  0
  147.8133  140.7479  154.2095 O   0  0  0  0  0  0  0  0  0  0  0  0
  147.9832  138.8411  153.0086 N   0  0  0  0  0  0  0  0  0  0  0  0
  146.7443  138.9967  152.2595 C   0  0  0  0  0  0  0  0  0  0  0  0
  146.6298  137.9196  151.1689 C   0  0  0  0  0  0  0  0  0  0  0  0
  146.4662  136.5587  151.7382 N   0  3  1  0  0  0  0  0  0  0  0  0
  145.6909  136.5624  153.0013 C   0  0  0  0  0  0  0  0  0  0  0  0
  145.6039  135.1468  153.6054 C   0  0  2  0  0  0  0  0  0  0  0  0
  146.9205  134.6695  154.2439 C   0  0  0  0  0  0  0  0  0  0  0  0
  145.1089  134.2250  152.6340 O   0  0  0  0  0  0  0  0  0  0  0  0
  145.8529  134.1762  151.4194 C   0  0  1  0  0  0  0  0  0  0  0  0
  145.1884  133.1462  150.4991 C   0  0  0  0  0  0  0  0  0  0  0  0
  145.8905  135.5787  150.7859 C   0  0  0  0  0  0  0  0  0  0  0  0
  150.5249  138.3313  153.9328 C   0  0  0  0  0  0  0  0  0  0  0  0
  151.7067  137.9991  154.4964 C   0  0  0  0  0  0  0  0  0  0  0  0
  152.2083  138.6687  155.6975 C   0  0  0  0  0  0  0  0  0  0  0  0
  153.2794  138.3785  156.2291 O   0  0  0  0  0  0  0  0  0  0  0  0
  151.9525  144.2100  159.2385 H   0  0  0  0  0  0  0  0  0  0  0  0
  150.8877  144.2522  157.8335 H   0  0  0  0  0  0  0  0  0  0  0  0
  152.5314  143.6040  157.6862 H   0  0  0  0  0  0  0  0  0  0  0  0
  149.7669  141.2506  157.7277 H   0  0  0  0  0  0  0  0  0  0  0  0
  150.7516  142.2482  156.6690 H   0  0  0  0  0  0  0  0  0  0  0  0
  152.7666  140.7849  157.3149 H   0  0  0  0  0  0  0  0  0  0  0  0
  151.6893  139.7915  158.2395 H   0  0  0  0  0  0  0  0  0  0  0  0
  148.5425  138.0210  152.8217 H   0  0  0  0  0  0  0  0  0  0  0  0
  145.9096  138.9368  152.9581 H   0  0  0  0  0  0  0  0  0  0  0  0
  146.7172  139.9892  151.8063 H   0  0  0  0  0  0  0  0  0  0  0  0
  145.7603  138.1529  150.5521 H   0  0  0  0  0  0  0  0  0  0  0  0
  147.4957  137.9434  150.5051 H   0  0  0  0  0  0  0  0  0  0  0  0
  146.1444  137.2448  153.7216 H   0  0  0  0  0  0  0  0  0  0  0  0
  144.6867  136.9389  152.7999 H   0  0  0  0  0  0  0  0  0  0  0  0
  144.8601  135.1718  154.4023 H   0  0  0  0  0  0  0  0  0  0  0  0
  147.2034  135.3169  155.0742 H   0  0  0  0  0  0  0  0  0  0  0  0
  147.7493  134.6708  153.5366 H   0  0  0  0  0  0  0  0  0  0  0  0
  146.8173  133.6577  154.6365 H   0  0  0  0  0  0  0  0  0  0  0  0
  146.8696  133.8390  151.6222 H   0  0  0  0  0  0  0  0  0  0  0  0
  145.7212  133.0637  149.5513 H   0  0  0  0  0  0  0  0  0  0  0  0
  144.1556  133.4190  150.2800 H   0  0  0  0  0  0  0  0  0  0  0  0
  145.1807  132.1585  150.9609 H   0  0  0  0  0  0  0  0  0  0  0  0
  144.8846  135.8933  150.5023 H   0  0  0  0  0  0  0  0  0  0  0  0
  146.4825  135.5419  149.8722 H   0  0  0  0  0  0  0  0  0  0  0  0
  150.1806  137.8204  153.0453 H   0  0  0  0  0  0  0  0  0  0  0  0
  152.3015  137.2170  154.0477 H   0  0  0  0  0  0  0  0  0  0  0  0
  147.3923  136.2330  151.9764 H   0  0  0  0  0  0  0  0  0  0  0  0
  1  2  1  0  0  0  0
  1 25  1  0  0  0  0
  1 26  1  0  0  0  0
  1 27  1  0  0  0  0
  2  3  1  0  0  0  0
  3  4  1  0  0  0  0
  3 28  1  0  0  0  0
  3 29  1  0  0  0  0
  4  5  1  0  0  0  0
  4 30  1  0  0  0  0
  4 31  1  0  0  0  0
  5 23  1  0  0  0  0
  5  6  1  0  0  0  0
  6  7  2  0  0  0  0
  7  8  1  0  0  0  0
  7 21  1  0  0  0  0
  8  9  2  0  0  0  0
  8 10  1  0  0  0  0
 10 11  1  0  0  0  0
 10 32  1  0  0  0  0
 11 12  1  0  0  0  0
 11 33  1  0  0  0  0
 11 34  1  0  0  0  0
 12 13  1  0  0  0  0
 12 35  1  0  0  0  0
 12 36  1  0  0  0  0
 13 20  1  0  0  0  0
 13 14  1  0  0  0  0
 13 51  1  0  0  0  0
 14 15  1  0  0  0  0
 14 37  1  0  0  0  0
 14 38  1  0  0  0  0
 15 16  1  0  0  0  0
 15 17  1  0  0  0  0
 15 39  1  0  0  0  0
 16 40  1  0  0  0  0
 16 41  1  0  0  0  0
 16 42  1  0  0  0  0
 17 18  1  0  0  0  0
 18 19  1  0  0  0  0
 18 20  1  0  0  0  0
 18 43  1  0  0  0  0
 19 44  1  0  0  0  0
 19 45  1  0  0  0  0
 19 46  1  0  0  0  0
 20 47  1  0  0  0  0
 20 48  1  0  0  0  0
 21 22  2  0  0  0  0
 21 49  1  0  0  0  0
 22 23  1  0  0  0  0
 22 50  1  0  0  0  0
 23 24  2  0  0  0  0
M  CHG  1  13   1
M  END
> <s_m_source_file>
AV-unprocessed.smi

> <i_m_source_file_index>
2001

> <i_lp_mmshare_version>
43012

> <i_f3d_flags>
0

> <s_epik_input>
W0NIM11PW0NIMl1bQ0gyXW4xbmMoW2NIXVtjSF1jMT1PKUMoPU8pW05IXVtDSDJdW0NIMl1OMltDSDJdW0NAQEhdKFtDSDNdKU9bQ0BASF0oW0NIM10pW0NIMl0y

> <s_epik_cmdline>
J2VwaWtfcHl0aG9uJywgJy1waCcsICc3LjAnLCAnLXRuJywgJzgnLCAnLW1hJywgJzIwMCcsICctbWV0YWxfYmluZGluZycsICctaW1hZScsICc8aW5maWxlLm1hZT4nLCAnLW9tYWUnLCAnPG91dGZpbGUubWFlPic=

> <r_lp_tautomer_probability>
1

> <r_epik_Ionization_Penalty>
0.724354

> <r_epik_Ionization_Penalty_Charging>
0.724348

> <r_epik_Ionization_Penalty_Neutral>
6.1656e-06

> <r_epik_State_Penalty>
0.749058

> <r_epik_Charging_Adjusted_Penalty>
1.47341

> <i_epik_Tot_Q>
1

> <i_epik_Tot_abs_Q>
1

> <r_epik_Metal_State_Penalty>
0.750779

> <b_epik_Metal_Only>
0

> <s_lp_Force_Field>
OPLS_2005

> <r_lp_Energy>
40.2507

> <b_lp_Chiralities_Consistent>
1

> <s_lp_Variant>
AV-unprocessed.smi:2001-5

> <Gold.Version>
5.8.1

> <Gold.Id.Protein>
6NUR|6NUR_protein|mol2

> <Gold.PLP.Fitness>
51.4350

> <Gold.PLP.PLP>
-41.4254

> <Gold.PLP.part.hbond>
-3.8706

> <Gold.PLP.part.metal>
0.0000

> <Gold.PLP.part.buried>
0.5195

> <Gold.PLP.part.nonpolar>
-37.1698

> <Gold.PLP.part.repulsive>
0.4297

> <Gold.PLP.ligand.clash>
0.0000

> <Gold.PLP.ligand.torsion>
0.8248

> <Gold.PLP.Chemscore.Hbond>
3.8065

> <Gold.PLP.Chemscore.CHOScore>
0.0000

> <Gold.PLP.Chemscore.Metal>
0.0000

> <Gold.Chemscore.Hbonds>
donor molecule, donor type, donor heavy atom, donor atom, acceptor molecule, acceptor atom, score
      L1  H    10    32       P1  7948  0.96
      L1  H    13    51       P1  7948  2.00
      P1  H  7997  8008       L1    24  0.90

> <Gold.PLP.Chemscore.Internal.Correction>
0.2397

> <Gold.Rescore>
     Score         DG    S(hbond)    S(metal)    S(lipo)     H(rot)  DE(clash)    DE(int)     intcor
     16.36     -18.09       2.01        0.00      95.81       2.07       1.04       0.69       ----

> <Gold.Chemscore.Fitness>
16.3578

> <Gold.Chemscore.DG>
-18.0878

> <Gold.Chemscore.ZeroCoef>
-5.4800

> <Gold.Chemscore.Hbond>
2.0067

> <Gold.Chemscore.Metal>
0.0000

> <Gold.Chemscore.Lipo>
95.8121

> <Gold.Chemscore.Internal_Hbond>
0.0000

> <Gold.Chemscore.DEClash>
1.0450

> <Gold.Chemscore.DEInternal>
0.6850

> <Gold.Chemscore.Rot>
2.0721

> <Gold.Chemscore.Internal.Correction>
   9.000000E+99

> <Gold.Chemscore.Hbonds>
donor molecule, donor type, donor heavy atom, donor atom, acceptor molecule, acceptor atom, score
      L1  H    10    32       P1  7948  0.88
      L1  H    13    51       P1  7948  0.92
      P1  H  7997  8008       L1    24  0.50

> <Gold.Chemscore.Hbond.Weighted>
-6.7025

> <Gold.Chemscore.Metal.Weighted>
-0.0000

> <Gold.Chemscore.Lipo.Weighted>
-11.2100

> <Gold.Chemscore.Internal_Hbond.Weighted>
0.0000

> <Gold.Chemscore.DEClash.Weighted>
1.0450

> <Gold.Chemscore.DEInternal.Weighted>
0.6850

> <Gold.Chemscore.Rot.Weighted>
5.3047

> <Gold.Chemscore.Internal.Correction.Weighted>
   9.000000E+99

> <Gold.Protein.RotatedTorsions>
[ 6907 6896 6895 6894 ] final   26.46 input  -60.11 | X-H torsion
[ 7974 7965 7964 7962 ] final  128.70 input  175.53 | X-H torsion
[ 8008 7997 7996 7995 ] final  -44.23 input   59.86 | X-H torsion
[ 10167 10162 10161 10158 ] final  -67.98 input  -65.29 | X-H torsion
[ 10718 10713 10712 10709 ] final  155.65 input   66.30 | X-H torsion
[ 10763 10752 10751 10750 ] final  -14.43 input  -60.55 | X-H torsion
[ 11005 11000 10999 10996 ] final   45.53 input  -57.11 | X-H torsion

> <Gold.Protein.ActiveResidues>
 VAL166  LYS551  ARG553  GLY616  TRP617  ASP618  TYR619  PRO620  LYS621  CYS622 
 ASP623  PHE694  ASN695  SER759  ASP760  ASP761  ALA762  ILE779  LEU786  VAL792 
 PHE793  MET794  SER795  GLU796  ALA797  LYS798  CYS799  TRP800  GLU811  SER814 

> <Gold.Protein.RotatedAtoms>
  151.9878  134.9995  160.0559 H   0  0  0  0  0  0  0  0  0  0  0  0  # atno 6907 bound_to 6896
  152.1636  133.4593  159.4882 H   0  0  0  0  0  0  0  0  0  0  0  0  # atno 6908 bound_to 6896
  150.6891  134.1958  159.4346 H   0  0  0  0  0  0  0  0  0  0  0  0  # atno 6909 bound_to 6896
  145.0367  139.3999  143.5122 H   0  0  0  0  0  0  0  0  0  0  0  0  # atno 7974 bound_to 7965
  154.3997  140.1427  156.3650 H   0  0  0  0  0  0  0  0  0  0  0  0  # atno 8008 bound_to 7997
  155.8146  140.3471  155.5457 H   0  0  0  0  0  0  0  0  0  0  0  0  # atno 8009 bound_to 7997
  155.8351  140.0918  157.1759 H   0  0  0  0  0  0  0  0  0  0  0  0  # atno 8010 bound_to 7997
  140.5542  143.2312  151.6853 H   0  0  0  0  0  0  0  0  0  0  0  0  # atno 10167 bound_to 10162
  157.2155  131.0707  151.1944 H   0  0  0  0  0  0  0  0  0  0  0  0  # atno 10718 bound_to 10713
  153.5281  135.7015  153.5697 H   0  0  0  0  0  0  0  0  0  0  0  0  # atno 10763 bound_to 10752
  153.3717  135.3943  155.1793 H   0  0  0  0  0  0  0  0  0  0  0  0  # atno 10764 bound_to 10752
  154.8687  135.3813  154.4776 H   0  0  0  0  0  0  0  0  0  0  0  0  # atno 10765 bound_to 10752
  140.1452  134.4532  155.8421 H   0  0  0  0  0  0  0  0  0  0  0  0  # atno 11005 bound_to 11000
  146.3505  139.9946  142.8682 LP  0  0  0  0  0  0  0  0  0  0  0  0  # atno 17320 bound_to 7965
  145.1701  140.9716  143.4327 LP  0  0  0  0  0  0  0  0  0  0  0  0  # atno 17321 bound_to 7965
  139.5041  144.3768  152.0416 LP  0  0  0  0  0  0  0  0  0  0  0  0  # atno 17342 bound_to 10162
  140.2888  144.3777  150.6095 LP  0  0  0  0  0  0  0  0  0  0  0  0  # atno 17343 bound_to 10162
  157.3629  130.7140  149.6513 LP  0  0  0  0  0  0  0  0  0  0  0  0  # atno 17370 bound_to 10713
  155.9687  130.4220  150.4498 LP  0  0  0  0  0  0  0  0  0  0  0  0  # atno 17371 bound_to 10713
  141.2191  133.6849  156.7320 LP  0  0  0  0  0  0  0  0  0  0  0  0  # atno 17394 bound_to 11000
  140.2673  134.8420  157.3814 LP  0  0  0  0  0  0  0  0  0  0  0  0  # atno 17395 bound_to 11000

$$$$
