AV-unprocessed.smi:2032|AV-procd|sdf|8237|dock6
  -GOLD-   2272010503D 1   1.00000     0.00000
 Structure written by MMmdl.
 43 44  0  0  0  0  0  0  0  0  2 V2000
  152.1162  139.3003  155.2361 C   0  0  0  0  0  0  0  0  0  0  0  0
  150.8774  138.5009  154.8163 C   0  0  2  0  0  0  0  0  0  0  0  0
  149.8721  139.3648  154.0311 C   0  0  0  0  0  0  0  0  0  0  0  0
  148.6365  138.5963  153.7189 N   0  3  2  0  0  0  0  0  0  0  0  0
  147.6148  139.3003  152.8750 C   0  0  2  0  0  0  0  0  0  0  0  0
  147.2753  140.6707  153.5048 C   0  0  0  0  0  0  0  0  0  0  0  0
  146.3242  138.4695  152.6265 C   0  0  0  0  0  0  0  0  0  0  0  0
  146.5960  137.1294  152.1103 N   0  0  0  0  0  0  0  0  0  0  0  0
  145.6713  136.1898  151.8613 C   0  0  0  0  0  0  0  0  0  0  0  0
  144.4649  136.3632  152.0366 O   0  0  0  0  0  0  0  0  0  0  0  0
  146.2351  135.0612  151.3964 N   0  0  0  0  0  0  0  0  0  0  0  0
  145.5892  133.8764  150.9556 C   0  0  0  0  0  0  0  0  0  0  0  0
  146.2111  132.8595  150.3473 N   0  0  0  0  0  0  0  0  0  0  0  0
  145.3324  131.8192  150.0348 C   0  0  0  0  0  0  0  0  0  0  0  0
  144.0364  132.0622  150.4158 C   0  0  0  0  0  0  0  0  0  0  0  0
  143.8663  133.6169  151.1859 S   0  0  0  0  0  0  0  0  0  0  0  0
  148.0592  138.0634  154.9829 C   0  0  0  0  0  0  0  0  0  0  0  0
  149.0856  137.2290  155.7712 C   0  0  1  0  0  0  0  0  0  0  0  0
  149.3854  135.8593  155.1357 C   0  0  0  0  0  0  0  0  0  0  0  0
  150.2646  137.9969  155.9978 O   0  0  0  0  0  0  0  0  0  0  0  0
  152.6422  139.6961  154.3669 H   0  0  0  0  0  0  0  0  0  0  0  0
  152.8158  138.6728  155.7889 H   0  0  0  0  0  0  0  0  0  0  0  0
  151.8468  140.1412  155.8760 H   0  0  0  0  0  0  0  0  0  0  0  0
  151.2108  137.6710  154.1929 H   0  0  0  0  0  0  0  0  0  0  0  0
  149.6114  140.2596  154.5989 H   0  0  0  0  0  0  0  0  0  0  0  0
  150.3711  139.6882  153.1181 H   0  0  0  0  0  0  0  0  0  0  0  0
  148.0647  139.4783  151.8969 H   0  0  0  0  0  0  0  0  0  0  0  0
  146.6195  141.2586  152.8634 H   0  0  0  0  0  0  0  0  0  0  0  0
  148.1542  141.2897  153.6737 H   0  0  0  0  0  0  0  0  0  0  0  0
  146.7728  140.5462  154.4646 H   0  0  0  0  0  0  0  0  0  0  0  0
  145.7870  138.3113  153.5616 H   0  0  0  0  0  0  0  0  0  0  0  0
  145.6444  139.0085  151.9640 H   0  0  0  0  0  0  0  0  0  0  0  0
  147.5632  136.8985  151.9354 H   0  0  0  0  0  0  0  0  0  0  0  0
  147.2419  135.0559  151.3269 H   0  0  0  0  0  0  0  0  0  0  0  0
  145.7157  130.9387  149.5406 H   0  0  0  0  0  0  0  0  0  0  0  0
  143.1753  131.4226  150.2907 H   0  0  0  0  0  0  0  0  0  0  0  0
  147.7268  138.9008  155.5986 H   0  0  0  0  0  0  0  0  0  0  0  0
  147.1781  137.4524  154.7962 H   0  0  0  0  0  0  0  0  0  0  0  0
  148.6637  137.0313  156.7570 H   0  0  0  0  0  0  0  0  0  0  0  0
  148.4851  135.2453  155.1010 H   0  0  0  0  0  0  0  0  0  0  0  0
  150.1310  135.3162  155.7167 H   0  0  0  0  0  0  0  0  0  0  0  0
  149.7547  135.9464  154.1143 H   0  0  0  0  0  0  0  0  0  0  0  0
  148.9422  137.8009  153.1767 H   0  0  0  0  0  0  0  0  0  0  0  0
  1  2  1  0  0  0  0
  1 21  1  0  0  0  0
  1 22  1  0  0  0  0
  1 23  1  0  0  0  0
  2 20  1  0  0  0  0
  2  3  1  0  0  0  0
  2 24  1  0  0  0  0
  3  4  1  0  0  0  0
  3 25  1  0  0  0  0
  3 26  1  0  0  0  0
  4  5  1  0  0  0  0
  4 17  1  0  0  0  0
  4 43  1  0  0  0  0
  5  6  1  0  0  0  0
  5  7  1  0  0  0  0
  5 27  1  0  0  0  0
  6 28  1  0  0  0  0
  6 29  1  0  0  0  0
  6 30  1  0  0  0  0
  7  8  1  0  0  0  0
  7 31  1  0  0  0  0
  7 32  1  0  0  0  0
  8  9  1  0  0  0  0
  8 33  1  0  0  0  0
  9 10  2  0  0  0  0
  9 11  1  0  0  0  0
 11 12  1  0  0  0  0
 11 34  1  0  0  0  0
 12 16  1  0  0  0  0
 12 13  2  0  0  0  0
 13 14  1  0  0  0  0
 14 15  2  0  0  0  0
 14 35  1  0  0  0  0
 15 16  1  0  0  0  0
 15 36  1  0  0  0  0
 17 18  1  0  0  0  0
 17 37  1  0  0  0  0
 17 38  1  0  0  0  0
 18 19  1  0  0  0  0
 18 20  1  0  0  0  0
 18 39  1  0  0  0  0
 19 40  1  0  0  0  0
 19 41  1  0  0  0  0
 19 42  1  0  0  0  0
M  CHG  1   4   1
M  END
> <s_m_source_file>
AV-unprocessed.smi

> <i_m_source_file_index>
2032

> <i_lp_mmshare_version>
43012

> <i_f3d_flags>
0

> <s_epik_input>
W0NIM11bQ0BASF0xW0NIMl1OKFtDSDJdW0NASF0oTzEpW0NIM10pW0NASF0oW0NIM10pW0NIMl1bTkhdQyg9TylbTkhdYzJuW2NIXVtjSF1zMg==

> <s_epik_cmdline>
J2VwaWtfcHl0aG9uJywgJy1waCcsICc3LjAnLCAnLXRuJywgJzgnLCAnLW1hJywgJzIwMCcsICctbWV0YWxfYmluZGluZycsICctaW1hZScsICc8aW5maWxlLm1hZT4nLCAnLW9tYWUnLCAnPG91dGZpbGUubWFlPic=

> <r_lp_tautomer_probability>
0.999

> <r_epik_Ionization_Penalty>
0.695838

> <r_epik_Ionization_Penalty_Charging>
0.695697

> <r_epik_Ionization_Penalty_Neutral>
0.000141198

> <r_epik_State_Penalty>
0.717972

> <r_epik_Charging_Adjusted_Penalty>
1.41367

> <i_epik_Tot_Q>
1

> <i_epik_Tot_abs_Q>
1

> <r_epik_Metal_State_Penalty>
0.756405

> <b_epik_Metal_Only>
0

> <s_lp_Force_Field>
OPLS_2005

> <r_lp_Energy>
21.5501

> <b_lp_Chiralities_Consistent>
1

> <s_lp_Variant>
AV-unprocessed.smi:2032-7

> <Gold.Version>
5.8.1

> <Gold.Id.Protein>
6NUR|6NUR_protein|mol2

> <Gold.PLP.Fitness>
45.6606

> <Gold.PLP.PLP>
-32.7021

> <Gold.PLP.part.hbond>
-3.7767

> <Gold.PLP.part.metal>
0.0000

> <Gold.PLP.part.buried>
-1.1470

> <Gold.PLP.part.nonpolar>
-29.9687

> <Gold.PLP.part.repulsive>
0.5714

> <Gold.PLP.ligand.clash>
0.0000

> <Gold.PLP.ligand.torsion>
0.1255

> <Gold.PLP.Chemscore.Hbond>
3.6339

> <Gold.PLP.Chemscore.CHOScore>
0.7548

> <Gold.PLP.Chemscore.Metal>
0.0000

> <Gold.Chemscore.Hbonds>
donor molecule, donor type, donor heavy atom, donor atom, acceptor molecule, acceptor atom, score
      L1  H     4    43       P1  7948  2.00
      L1  H     8    33       P1  7948  0.98
      L1  H    11    34       P1  7948  0.73
      L1  C    15    36       P1 10952  0.61

> <Gold.PLP.Chemscore.Internal.Correction>
0.0434

> <Gold.Rescore>
     Score         DG    S(hbond)    S(metal)    S(lipo)     H(rot)  DE(clash)    DE(int)     intcor
     17.15     -18.68       2.43        0.00      78.64       1.61       0.21       1.32       ----

> <Gold.Chemscore.Fitness>
17.1483

> <Gold.Chemscore.DG>
-18.6788

> <Gold.Chemscore.ZeroCoef>
-5.4800

> <Gold.Chemscore.Hbond>
2.4316

> <Gold.Chemscore.Metal>
0.0000

> <Gold.Chemscore.Lipo>
78.6447

> <Gold.Chemscore.Internal_Hbond>
0.0000

> <Gold.Chemscore.DEClash>
0.2096

> <Gold.Chemscore.DEInternal>
1.3209

> <Gold.Chemscore.Rot>
1.6110

> <Gold.Chemscore.Internal.Correction>
   9.000000E+99

> <Gold.Chemscore.Hbonds>
donor molecule, donor type, donor heavy atom, donor atom, acceptor molecule, acceptor atom, score
      L1  H     4    43       P1  7948  0.93
      L1  H     8    33       P1  7948  0.92
      L1  H    11    34       P1  7948  0.49

> <Gold.Chemscore.Hbond.Weighted>
-8.1215

> <Gold.Chemscore.Metal.Weighted>
-0.0000

> <Gold.Chemscore.Lipo.Weighted>
-9.2014

> <Gold.Chemscore.Internal_Hbond.Weighted>
0.0000

> <Gold.Chemscore.DEClash.Weighted>
0.2096

> <Gold.Chemscore.DEInternal.Weighted>
1.3209

> <Gold.Chemscore.Rot.Weighted>
4.1242

> <Gold.Chemscore.Internal.Correction.Weighted>
   9.000000E+99

> <Gold.Protein.RotatedTorsions>
[ 6907 6896 6895 6894 ] final   54.93 input  -60.11 | X-H torsion
[ 7974 7965 7964 7962 ] final  -30.83 input  175.53 | X-H torsion
[ 8008 7997 7996 7995 ] final  -93.12 input   59.86 | X-H torsion
[ 10167 10162 10161 10158 ] final  140.84 input  -65.29 | X-H torsion
[ 10718 10713 10712 10709 ] final   59.34 input   66.30 | X-H torsion
[ 10763 10752 10751 10750 ] final  -57.28 input  -60.55 | X-H torsion
[ 11005 11000 10999 10996 ] final  -49.49 input  -57.11 | X-H torsion

> <Gold.Protein.ActiveResidues>
 VAL166  LYS551  ARG553  GLY616  TRP617  ASP618  TYR619  PRO620  LYS621  CYS622 
 ASP623  PHE694  ASN695  SER759  ASP760  ASP761  ALA762  ILE779  LEU786  VAL792 
 PHE793  MET794  SER795  GLU796  ALA797  LYS798  CYS799  TRP800  GLU811  SER814 

> <Gold.Protein.RotatedAtoms>
  152.3488  134.7034  160.0242 H   0  0  0  0  0  0  0  0  0  0  0  0  # atno 6907 bound_to 6896
  151.7395  133.3316  159.3370 H   0  0  0  0  0  0  0  0  0  0  0  0  # atno 6908 bound_to 6896
  150.7526  134.6224  159.6187 H   0  0  0  0  0  0  0  0  0  0  0  0  # atno 6909 bound_to 6896
  146.1113  140.5590  142.8776 H   0  0  0  0  0  0  0  0  0  0  0  0  # atno 7974 bound_to 7965
  154.7317  140.0502  157.0732 H   0  0  0  0  0  0  0  0  0  0  0  0  # atno 8008 bound_to 7997
  155.0293  140.3156  155.4745 H   0  0  0  0  0  0  0  0  0  0  0  0  # atno 8009 bound_to 7997
  156.2843  140.2153  156.5414 H   0  0  0  0  0  0  0  0  0  0  0  0  # atno 8010 bound_to 7997
  139.5037  144.6209  151.6053 H   0  0  0  0  0  0  0  0  0  0  0  0  # atno 10167 bound_to 10162
  157.5668  130.8877  149.9201 H   0  0  0  0  0  0  0  0  0  0  0  0  # atno 10718 bound_to 10713
  154.2200  135.6379  153.5141 H   0  0  0  0  0  0  0  0  0  0  0  0  # atno 10763 bound_to 10752
  152.9971  135.5494  154.6124 H   0  0  0  0  0  0  0  0  0  0  0  0  # atno 10764 bound_to 10752
  154.5582  135.2907  155.0918 H   0  0  0  0  0  0  0  0  0  0  0  0  # atno 10765 bound_to 10752
  141.0762  133.6665  156.3594 H   0  0  0  0  0  0  0  0  0  0  0  0  # atno 11005 bound_to 11000
  144.7514  140.5201  143.6799 LP  0  0  0  0  0  0  0  0  0  0  0  0  # atno 17320 bound_to 7965
  145.5657  139.1481  143.3316 LP  0  0  0  0  0  0  0  0  0  0  0  0  # atno 17321 bound_to 7965
  140.5911  143.9778  150.6325 LP  0  0  0  0  0  0  0  0  0  0  0  0  # atno 17342 bound_to 10162
  140.2958  143.3293  152.1019 LP  0  0  0  0  0  0  0  0  0  0  0  0  # atno 17343 bound_to 10162
  156.0716  130.3684  150.0764 LP  0  0  0  0  0  0  0  0  0  0  0  0  # atno 17370 bound_to 10713
  156.8922  130.9592  151.3587 LP  0  0  0  0  0  0  0  0  0  0  0  0  # atno 17371 bound_to 10713
  140.5568  134.5974  157.5423 LP  0  0  0  0  0  0  0  0  0  0  0  0  # atno 17394 bound_to 11000
  139.9575  134.7510  156.0310 LP  0  0  0  0  0  0  0  0  0  0  0  0  # atno 17395 bound_to 11000

$$$$
