AV-unprocessed.smi:1447|AV-procd|sdf|5893|dock7
  -GOLD-   22720 5573D 1   1.00000     0.00000
 Structure written by MMmdl.
 47 49  0  0  0  0  0  0  0  0  1 V2000
  149.2712  133.5188  154.0660 C   0  0  0  0  0  0  0  0  0  0  0  0
  148.0951  134.3077  154.0806 O   0  0  0  0  0  0  0  0  0  0  0  0
  147.9274  135.0144  155.2999 C   0  0  0  0  0  0  0  0  0  0  0  0
  146.7323  135.9845  155.1798 C   0  0  0  0  0  0  0  0  0  0  0  0
  146.9505  137.1748  154.3342 N   0  0  0  0  0  0  0  0  0  0  0  0
  147.9406  138.0519  154.7518 N   0  0  0  0  0  0  0  0  0  0  0  0
  148.1906  139.1289  154.0816 C   0  0  0  0  0  0  0  0  0  0  0  0
  149.2321  140.0973  154.5219 C   0  0  0  0  0  0  0  0  0  0  0  0
  149.5221  141.0915  153.8542 O   0  0  0  0  0  0  0  0  0  0  0  0
  149.8225  139.8061  155.6953 N   0  0  0  0  0  0  0  0  0  0  0  0
  150.8522  140.6052  156.3502 C   0  0  0  0  0  0  0  0  0  0  0  0
  151.3675  139.9088  157.6221 C   0  0  0  0  0  0  0  0  0  0  0  0
  152.3387  140.8197  158.3935 C   0  0  0  0  0  0  0  0  0  0  0  0
  151.6814  142.0778  158.7485 N   0  0  0  0  0  0  0  0  0  0  0  0
  152.6128  142.8935  159.5106 C   0  0  0  0  0  0  0  0  0  0  0  0
  153.1180  142.3373  160.8224 C   0  0  0  0  0  0  0  0  0  0  0  0
  152.1260  143.4750  160.8184 C   0  0  0  0  0  0  0  0  0  0  0  0
  151.3028  142.8005  157.5339 C   0  0  0  0  0  0  0  0  0  0  0  0
  150.2813  141.9820  156.7249 C   0  0  0  0  0  0  0  0  0  0  0  0
  147.4541  139.4356  152.8682 C   0  0  0  0  0  0  0  0  0  0  0  0
  146.5037  138.5662  152.4601 C   0  0  0  0  0  0  0  0  0  0  0  0
  146.2002  137.3415  153.2035 C   0  0  0  0  0  0  0  0  0  0  0  0
  145.3470  136.5313  152.8424 O   0  0  0  0  0  0  0  0  0  0  0  0
  149.3601  133.0125  153.1049 H   0  0  0  0  0  0  0  0  0  0  0  0
  149.2420  132.7558  154.8454 H   0  0  0  0  0  0  0  0  0  0  0  0
  150.1614  134.1331  154.2078 H   0  0  0  0  0  0  0  0  0  0  0  0
  147.7914  134.3290  156.1385 H   0  0  0  0  0  0  0  0  0  0  0  0
  148.8343  135.5844  155.5071 H   0  0  0  0  0  0  0  0  0  0  0  0
  145.8797  135.4370  154.7749 H   0  0  0  0  0  0  0  0  0  0  0  0
  146.4462  136.2998  156.1848 H   0  0  0  0  0  0  0  0  0  0  0  0
  149.5243  138.9685  156.1746 H   0  0  0  0  0  0  0  0  0  0  0  0
  151.6854  140.7539  155.6605 H   0  0  0  0  0  0  0  0  0  0  0  0
  150.5303  139.6414  158.2687 H   0  0  0  0  0  0  0  0  0  0  0  0
  151.8693  138.9756  157.3639 H   0  0  0  0  0  0  0  0  0  0  0  0
  152.6683  140.3124  159.3011 H   0  0  0  0  0  0  0  0  0  0  0  0
  153.2298  141.0154  157.7947 H   0  0  0  0  0  0  0  0  0  0  0  0
  153.3246  143.5124  158.9664 H   0  0  0  0  0  0  0  0  0  0  0  0
  152.7566  141.3595  161.1358 H   0  0  0  0  0  0  0  0  0  0  0  0
  154.1443  142.5660  161.1020 H   0  0  0  0  0  0  0  0  0  0  0  0
  152.4910  144.4623  161.0939 H   0  0  0  0  0  0  0  0  0  0  0  0
  151.1072  143.2517  161.1293 H   0  0  0  0  0  0  0  0  0  0  0  0
  150.8645  143.7620  157.8040 H   0  0  0  0  0  0  0  0  0  0  0  0
  152.1859  143.0102  156.9279 H   0  0  0  0  0  0  0  0  0  0  0  0
  150.0014  142.5290  155.8240 H   0  0  0  0  0  0  0  0  0  0  0  0
  149.3683  141.8632  157.3110 H   0  0  0  0  0  0  0  0  0  0  0  0
  147.6566  140.3324  152.3008 H   0  0  0  0  0  0  0  0  0  0  0  0
  145.9486  138.7800  151.5586 H   0  0  0  0  0  0  0  0  0  0  0  0
  1  2  1  0  0  0  0
  1 24  1  0  0  0  0
  1 25  1  0  0  0  0
  1 26  1  0  0  0  0
  2  3  1  0  0  0  0
  3  4  1  0  0  0  0
  3 27  1  0  0  0  0
  3 28  1  0  0  0  0
  4  5  1  0  0  0  0
  4 29  1  0  0  0  0
  4 30  1  0  0  0  0
  5 22  1  0  0  0  0
  5  6  1  0  0  0  0
  6  7  2  0  0  0  0
  7  8  1  0  0  0  0
  7 20  1  0  0  0  0
  8  9  2  0  0  0  0
  8 10  1  0  0  0  0
 10 11  1  0  0  0  0
 10 31  1  0  0  0  0
 11 19  1  0  0  0  0
 11 12  1  0  0  0  0
 11 32  1  0  0  0  0
 12 13  1  0  0  0  0
 12 33  1  0  0  0  0
 12 34  1  0  0  0  0
 13 14  1  0  0  0  0
 13 35  1  0  0  0  0
 13 36  1  0  0  0  0
 14 15  1  0  0  0  0
 14 18  1  0  0  0  0
 15 17  1  0  0  0  0
 15 16  1  0  0  0  0
 15 37  1  0  0  0  0
 16 17  1  0  0  0  0
 16 38  1  0  0  0  0
 16 39  1  0  0  0  0
 17 40  1  0  0  0  0
 17 41  1  0  0  0  0
 18 19  1  0  0  0  0
 18 42  1  0  0  0  0
 18 43  1  0  0  0  0
 19 44  1  0  0  0  0
 19 45  1  0  0  0  0
 20 21  2  0  0  0  0
 20 46  1  0  0  0  0
 21 22  1  0  0  0  0
 21 47  1  0  0  0  0
 22 23  2  0  0  0  0
M  END
> <s_m_source_file>
AV-unprocessed.smi

> <i_m_source_file_index>
1447

> <i_lp_mmshare_version>
43012

> <i_f3d_flags>
0

> <s_epik_input>
W0NIM11PW0NIMl1bQ0gyXW4xbmMoW2NIXVtjSF1jMT1PKUMoPU8pW05IXVtDSF0yW0NIMl1bQ0gyXU4oW0NIMl1bQ0gyXTIpW0NIXTNbQ0gyXVtDSDJdMw==

> <s_epik_cmdline>
J2VwaWtfcHl0aG9uJywgJy1waCcsICc3LjAnLCAnLXRuJywgJzgnLCAnLW1hJywgJzIwMCcsICctbWV0YWxfYmluZGluZycsICctaW1hZScsICc8aW5maWxlLm1hZT4nLCAnLW9tYWUnLCAnPG91dGZpbGUubWFlPic=

> <r_lp_tautomer_probability>
1

> <r_epik_Ionization_Penalty>
0.826878

> <r_epik_Ionization_Penalty_Charging>
6.86753e-09

> <r_epik_Ionization_Penalty_Neutral>
0.826878

> <r_epik_State_Penalty>
0.8604

> <r_epik_Charging_Adjusted_Penalty>
0.8604

> <i_epik_Tot_Q>
0

> <i_epik_Tot_abs_Q>
0

> <r_epik_Metal_State_Penalty>
0.8604

> <b_epik_Metal_Only>
0

> <s_lp_Force_Field>
OPLS_2005

> <r_lp_Energy>
44.3131

> <b_lp_Chiralities_Consistent>
1

> <s_lp_Variant>
AV-unprocessed.smi:1447-3

> <Gold.Version>
5.8.1

> <Gold.Id.Protein>
6NUR|6NUR_protein|mol2

> <Gold.PLP.Fitness>
39.2261

> <Gold.PLP.PLP>
-36.0155

> <Gold.PLP.part.hbond>
-2.0000

> <Gold.PLP.part.metal>
0.0000

> <Gold.PLP.part.buried>
-2.2881

> <Gold.PLP.part.nonpolar>
-34.0940

> <Gold.PLP.part.repulsive>
2.6719

> <Gold.PLP.ligand.clash>
0.0000

> <Gold.PLP.ligand.torsion>
0.7853

> <Gold.PLP.Chemscore.Hbond>
1.1923

> <Gold.PLP.Chemscore.CHOScore>
0.0000

> <Gold.PLP.Chemscore.Metal>
0.0000

> <Gold.Chemscore.Hbonds>
donor molecule, donor type, donor heavy atom, donor atom, acceptor molecule, acceptor atom, score
      P1  H  7989  7998       L1     9  0.27
      P1  H  8011  8017       L1     9  0.89

> <Gold.PLP.Chemscore.Internal.Correction>
1.2045

> <Gold.Rescore>
     Score         DG    S(hbond)    S(metal)    S(lipo)     H(rot)  DE(clash)    DE(int)     intcor
     13.92     -15.20       0.85        0.00      96.24       1.71       0.51       0.76       ----

> <Gold.Chemscore.Fitness>
13.9249

> <Gold.Chemscore.DG>
-15.1996

> <Gold.Chemscore.ZeroCoef>
-5.4800

> <Gold.Chemscore.Hbond>
0.8527

> <Gold.Chemscore.Metal>
0.0000

> <Gold.Chemscore.Lipo>
96.2414

> <Gold.Chemscore.Internal_Hbond>
0.0000

> <Gold.Chemscore.DEClash>
0.5139

> <Gold.Chemscore.DEInternal>
0.7608

> <Gold.Chemscore.Rot>
1.7143

> <Gold.Chemscore.Internal.Correction>
   9.000000E+99

> <Gold.Chemscore.Hbonds>
donor molecule, donor type, donor heavy atom, donor atom, acceptor molecule, acceptor atom, score
      P1  H  7989  7998       L1     9  0.13
      P1  H  8011  8017       L1     9  0.81

> <Gold.Chemscore.Hbond.Weighted>
-2.8480

> <Gold.Chemscore.Metal.Weighted>
-0.0000

> <Gold.Chemscore.Lipo.Weighted>
-11.2602

> <Gold.Chemscore.Internal_Hbond.Weighted>
0.0000

> <Gold.Chemscore.DEClash.Weighted>
0.5139

> <Gold.Chemscore.DEInternal.Weighted>
0.7608

> <Gold.Chemscore.Rot.Weighted>
4.3887

> <Gold.Chemscore.Internal.Correction.Weighted>
   9.000000E+99

> <Gold.Protein.RotatedTorsions>
[ 6907 6896 6895 6894 ] final  -11.64 input  -60.11 | X-H torsion
[ 7974 7965 7964 7962 ] final   -4.22 input  175.53 | X-H torsion
[ 8008 7997 7996 7995 ] final  -83.09 input   59.86 | X-H torsion
[ 10167 10162 10161 10158 ] final  136.93 input  -65.29 | X-H torsion
[ 10718 10713 10712 10709 ] final   95.97 input   66.30 | X-H torsion
[ 10763 10752 10751 10750 ] final   27.08 input  -60.55 | X-H torsion
[ 11005 11000 10999 10996 ] final   42.22 input  -57.11 | X-H torsion

> <Gold.Protein.ActiveResidues>
 VAL166  LYS551  ARG553  GLY616  TRP617  ASP618  TYR619  PRO620  LYS621  CYS622 
 ASP623  PHE694  ASN695  SER759  ASP760  ASP761  ALA762  ILE779  LEU786  VAL792 
 PHE793  MET794  SER795  GLU796  ALA797  LYS798  CYS799  TRP800  GLU811  SER814 

> <Gold.Protein.RotatedAtoms>
  151.3830  135.0943  159.9501 H   0  0  0  0  0  0  0  0  0  0  0  0  # atno 6907 bound_to 6896
  152.5102  133.9053  159.7472 H   0  0  0  0  0  0  0  0  0  0  0  0  # atno 6908 bound_to 6896
  150.9491  133.6514  159.2804 H   0  0  0  0  0  0  0  0  0  0  0  0  # atno 6909 bound_to 6896
  146.2376  140.1839  142.8332 H   0  0  0  0  0  0  0  0  0  0  0  0  # atno 7974 bound_to 7965
  154.6154  140.0624  156.9547 H   0  0  0  0  0  0  0  0  0  0  0  0  # atno 8008 bound_to 7997
  155.1904  140.3306  155.4341 H   0  0  0  0  0  0  0  0  0  0  0  0  # atno 8009 bound_to 7997
  156.2401  140.1882  156.6995 H   0  0  0  0  0  0  0  0  0  0  0  0  # atno 8010 bound_to 7997
  139.5162  144.6438  151.5496 H   0  0  0  0  0  0  0  0  0  0  0  0  # atno 10167 bound_to 10162
  157.6932  131.0563  150.4419 H   0  0  0  0  0  0  0  0  0  0  0  0  # atno 10718 bound_to 10713
  153.0579  135.6545  154.0532 H   0  0  0  0  0  0  0  0  0  0  0  0  # atno 10763 bound_to 10752
  154.0206  135.2920  155.3383 H   0  0  0  0  0  0  0  0  0  0  0  0  # atno 10764 bound_to 10752
  154.6904  135.5285  153.8452 H   0  0  0  0  0  0  0  0  0  0  0  0  # atno 10765 bound_to 10752
  140.1759  134.4163  155.8228 H   0  0  0  0  0  0  0  0  0  0  0  0  # atno 11005 bound_to 11000
  144.9912  140.8549  143.5338 LP  0  0  0  0  0  0  0  0  0  0  0  0  # atno 17320 bound_to 7965
  145.1845  139.2334  143.5275 LP  0  0  0  0  0  0  0  0  0  0  0  0  # atno 17321 bound_to 7965
  140.6215  143.9249  150.6530 LP  0  0  0  0  0  0  0  0  0  0  0  0  # atno 17342 bound_to 10162
  140.2524  143.3583  152.1394 LP  0  0  0  0  0  0  0  0  0  0  0  0  # atno 17343 bound_to 10162
  156.4777  130.4067  149.6480 LP  0  0  0  0  0  0  0  0  0  0  0  0  # atno 17370 bound_to 10713
  156.3537  130.7445  151.2408 LP  0  0  0  0  0  0  0  0  0  0  0  0  # atno 17371 bound_to 10713
  141.2220  133.6978  156.7846 LP  0  0  0  0  0  0  0  0  0  0  0  0  # atno 17394 bound_to 11000
  140.2323  134.8676  157.3489 LP  0  0  0  0  0  0  0  0  0  0  0  0  # atno 17395 bound_to 11000

$$$$
