AV-unprocessed.smi:527|AV-procd|sdf|2825|dock6
  -GOLD-   2262023313D 1   1.00000     0.00000
 Structure written by MMmdl.
 43 44  0  0  0  0  0  0  0  0  2 V2000
  153.2543  142.4560  161.7364 C   0  0  0  0  0  0  0  0  0  0  0  0
  153.0791  142.8025  160.2461 C   0  0  2  0  0  0  0  0  0  0  0  0
  152.5506  144.2447  160.1124 C   0  0  0  0  0  0  0  0  0  0  0  0
  152.3901  144.6596  158.6461 C   0  0  0  0  0  0  0  0  0  0  0  0
  151.4555  143.6938  157.9123 C   0  0  0  0  0  0  0  0  0  0  0  0
  151.9572  142.2403  158.0124 C   0  0  2  0  0  0  0  0  0  0  0  0
  151.0045  141.3568  157.3415 N   0  0  0  0  0  0  0  0  0  0  0  0
  151.3103  140.4485  156.4032 C   0  0  0  0  0  0  0  0  0  0  0  0
  152.4466  140.0001  156.2368 O   0  0  0  0  0  0  0  0  0  0  0  0
  150.2194  140.1084  155.6900 N   0  0  0  0  0  0  0  0  0  0  0  0
  150.0915  139.0886  154.8171 C   0  0  0  0  0  0  0  0  0  0  0  0
  150.9851  138.2881  154.5291 O   0  0  0  0  0  0  0  0  0  0  0  0
  148.7063  138.9701  154.1681 C   0  0  0  0  0  0  0  0  0  0  0  0
  147.7785  140.0273  154.5901 N   0  0  0  0  0  0  0  0  0  0  0  0
  147.4099  141.1420  153.8805 C   0  0  0  0  0  0  0  0  0  0  0  0
  146.5339  141.8380  154.6732 C   0  0  0  0  0  0  0  0  0  0  0  0
  146.4058  141.1208  155.8324 N   0  3  0  0  0  0  0  0  0  0  0  0
  147.1638  140.0204  155.7807 C   0  0  0  0  0  0  0  0  0  0  0  0
  152.1649  141.7985  159.4870 C   0  0  1  0  0  0  0  0  0  0  0  0
  152.7068  140.3538  159.5606 C   0  0  0  0  0  0  0  0  0  0  0  0
  152.2914  142.3807  162.2422 H   0  0  0  0  0  0  0  0  0  0  0  0
  153.8374  143.2216  162.2492 H   0  0  0  0  0  0  0  0  0  0  0  0
  153.7845  141.5147  161.8769 H   0  0  0  0  0  0  0  0  0  0  0  0
  154.0681  142.7720  159.7863 H   0  0  0  0  0  0  0  0  0  0  0  0
  151.5907  144.3359  160.6228 H   0  0  0  0  0  0  0  0  0  0  0  0
  153.2294  144.9391  160.6088 H   0  0  0  0  0  0  0  0  0  0  0  0
  151.9958  145.6746  158.5874 H   0  0  0  0  0  0  0  0  0  0  0  0
  153.3647  144.6753  158.1566 H   0  0  0  0  0  0  0  0  0  0  0  0
  150.4528  143.7705  158.3351 H   0  0  0  0  0  0  0  0  0  0  0  0
  151.3736  143.9933  156.8666 H   0  0  0  0  0  0  0  0  0  0  0  0
  152.9226  142.1735  157.5065 H   0  0  0  0  0  0  0  0  0  0  0  0
  150.0390  141.4426  157.6229 H   0  0  0  0  0  0  0  0  0  0  0  0
  149.4019  140.6843  155.8264 H   0  0  0  0  0  0  0  0  0  0  0  0
  148.8043  139.0217  153.0830 H   0  0  0  0  0  0  0  0  0  0  0  0
  148.2619  138.0039  154.4121 H   0  0  0  0  0  0  0  0  0  0  0  0
  147.7903  141.3531  152.8916 H   0  0  0  0  0  0  0  0  0  0  0  0
  146.0077  142.7662  154.5042 H   0  0  0  0  0  0  0  0  0  0  0  0
  147.2613  139.2754  156.5503 H   0  0  0  0  0  0  0  0  0  0  0  0
  151.1894  141.8064  159.9763 H   0  0  0  0  0  0  0  0  0  0  0  0
  153.7079  140.2861  159.1340 H   0  0  0  0  0  0  0  0  0  0  0  0
  152.0714  139.6519  159.0208 H   0  0  0  0  0  0  0  0  0  0  0  0
  152.7547  139.9900  160.5861 H   0  0  0  0  0  0  0  0  0  0  0  0
  145.8234  141.3840  156.6176 H   0  0  0  0  0  0  0  0  0  0  0  0
  1  2  1  0  0  0  0
  1 21  1  0  0  0  0
  1 22  1  0  0  0  0
  1 23  1  0  0  0  0
  2 19  1  0  0  0  0
  2  3  1  0  0  0  0
  2 24  1  0  0  0  0
  3  4  1  0  0  0  0
  3 25  1  0  0  0  0
  3 26  1  0  0  0  0
  4  5  1  0  0  0  0
  4 27  1  0  0  0  0
  4 28  1  0  0  0  0
  5  6  1  0  0  0  0
  5 29  1  0  0  0  0
  5 30  1  0  0  0  0
  6  7  1  0  0  0  0
  6 19  1  0  0  0  0
  6 31  1  0  0  0  0
  7  8  1  0  0  0  0
  7 32  1  0  0  0  0
  8  9  2  0  0  0  0
  8 10  1  0  0  0  0
 10 11  1  0  0  0  0
 10 33  1  0  0  0  0
 11 12  2  0  0  0  0
 11 13  1  0  0  0  0
 13 14  1  0  0  0  0
 13 34  1  0  0  0  0
 13 35  1  0  0  0  0
 14 18  1  0  0  0  0
 14 15  1  0  0  0  0
 15 16  2  0  0  0  0
 15 36  1  0  0  0  0
 16 17  1  0  0  0  0
 16 37  1  0  0  0  0
 17 18  2  0  0  0  0
 17 43  1  0  0  0  0
 18 38  1  0  0  0  0
 19 20  1  0  0  0  0
 19 39  1  0  0  0  0
 20 40  1  0  0  0  0
 20 41  1  0  0  0  0
 20 42  1  0  0  0  0
M  CHG  1  17   1
M  END
> <s_m_source_file>
AV-unprocessed.smi

> <i_m_source_file_index>
527

> <i_lp_mmshare_version>
43012

> <i_f3d_flags>
0

> <s_epik_input>
W0NIM11bQ0BASF0xW0NIMl1bQ0gyXVtDSDJdW0NASF0oW0NASF0xW0NIM10pW05IXUMoPU8pW05IXUMoPU8pW0NIMl1uMltjSF1bY0hdbltjSF0y

> <s_epik_cmdline>
J2VwaWtfcHl0aG9uJywgJy1waCcsICc3LjAnLCAnLXRuJywgJzgnLCAnLW1hJywgJzIwMCcsICctbWV0YWxfYmluZGluZycsICctaW1hZScsICc8aW5maWxlLm1hZT4nLCAnLW9tYWUnLCAnPG91dGZpbGUubWFlPic=

> <r_lp_tautomer_probability>
1

> <r_epik_Ionization_Penalty>
0.816441

> <r_epik_Ionization_Penalty_Charging>
0

> <r_epik_Ionization_Penalty_Neutral>
0.816441

> <r_epik_State_Penalty>
0.849034

> <r_epik_Charging_Adjusted_Penalty>
0.849034

> <i_epik_Tot_Q>
1

> <i_epik_Tot_abs_Q>
1

> <r_epik_Metal_State_Penalty>
0.984327

> <b_epik_Metal_Only>
0

> <s_lp_Force_Field>
OPLS_2005

> <r_lp_Energy>
16.8338

> <b_lp_Chiralities_Consistent>
1

> <s_lp_Variant>
AV-unprocessed.smi:527-11

> <Gold.Version>
5.8.1

> <Gold.Id.Protein>
6NUR|6NUR_protein|mol2

> <Gold.PLP.Fitness>
47.4426

> <Gold.PLP.PLP>
-42.3161

> <Gold.PLP.part.hbond>
-1.0000

> <Gold.PLP.part.metal>
0.0000

> <Gold.PLP.part.buried>
-4.7744

> <Gold.PLP.part.nonpolar>
-35.6020

> <Gold.PLP.part.repulsive>
0.3171

> <Gold.PLP.ligand.clash>
0.0000

> <Gold.PLP.ligand.torsion>
0.4453

> <Gold.PLP.Chemscore.Hbond>
1.0000

> <Gold.PLP.Chemscore.CHOScore>
1.0000

> <Gold.PLP.Chemscore.Metal>
0.0000

> <Gold.Chemscore.Hbonds>
donor molecule, donor type, donor heavy atom, donor atom, acceptor molecule, acceptor atom, score
      P1  H  7997  8010       L1     9  1.00
      L1  C    15    36       P1  7957  0.29

> <Gold.PLP.Chemscore.Internal.Correction>
0.0171

> <Gold.Rescore>
     Score         DG    S(hbond)    S(metal)    S(lipo)     H(rot)  DE(clash)    DE(int)     intcor
     15.48     -17.25       0.98        0.00     109.79       1.71       0.02       1.76       ----

> <Gold.Chemscore.Fitness>
15.4764

> <Gold.Chemscore.DG>
-17.2489

> <Gold.Chemscore.ZeroCoef>
-5.4800

> <Gold.Chemscore.Hbond>
0.9846

> <Gold.Chemscore.Metal>
0.0000

> <Gold.Chemscore.Lipo>
109.7921

> <Gold.Chemscore.Internal_Hbond>
0.0000

> <Gold.Chemscore.DEClash>
0.0166

> <Gold.Chemscore.DEInternal>
1.7559

> <Gold.Chemscore.Rot>
1.7052

> <Gold.Chemscore.Internal.Correction>
   9.000000E+99

> <Gold.Chemscore.Hbonds>
donor molecule, donor type, donor heavy atom, donor atom, acceptor molecule, acceptor atom, score
      P1  H  7997  8010       L1     9  0.95

> <Gold.Chemscore.Hbond.Weighted>
-3.2885

> <Gold.Chemscore.Metal.Weighted>
-0.0000

> <Gold.Chemscore.Lipo.Weighted>
-12.8457

> <Gold.Chemscore.Internal_Hbond.Weighted>
0.0000

> <Gold.Chemscore.DEClash.Weighted>
0.0166

> <Gold.Chemscore.DEInternal.Weighted>
1.7559

> <Gold.Chemscore.Rot.Weighted>
4.3653

> <Gold.Chemscore.Internal.Correction.Weighted>
   9.000000E+99

> <Gold.Protein.RotatedTorsions>
[ 6907 6896 6895 6894 ] final -175.66 input  -60.11 | X-H torsion
[ 7974 7965 7964 7962 ] final   79.44 input  175.53 | X-H torsion
[ 8008 7997 7996 7995 ] final   62.68 input   59.86 | X-H torsion
[ 10167 10162 10161 10158 ] final   13.08 input  -65.29 | X-H torsion
[ 10718 10713 10712 10709 ] final    3.11 input   66.30 | X-H torsion
[ 10763 10752 10751 10750 ] final  -34.48 input  -60.55 | X-H torsion
[ 11005 11000 10999 10996 ] final -126.30 input  -57.11 | X-H torsion

> <Gold.Protein.ActiveResidues>
 VAL166  LYS551  ARG553  GLY616  TRP617  ASP618  TYR619  PRO620  LYS621  CYS622 
 ASP623  PHE694  ASN695  SER759  ASP760  ASP761  ALA762  ILE779  LEU786  VAL792 
 PHE793  MET794  SER795  GLU796  ALA797  LYS798  CYS799  TRP800  GLU811  SER814 

> <Gold.Protein.RotatedAtoms>
  151.5922  133.3365  159.3029 H   0  0  0  0  0  0  0  0  0  0  0  0  # atno 6907 bound_to 6896
  150.8253  134.7485  159.6819 H   0  0  0  0  0  0  0  0  0  0  0  0  # atno 6908 bound_to 6896
  152.4343  134.5722  159.9976 H   0  0  0  0  0  0  0  0  0  0  0  0  # atno 6909 bound_to 6896
  145.6641  139.2479  143.1905 H   0  0  0  0  0  0  0  0  0  0  0  0  # atno 7974 bound_to 7965
  155.6183  140.3495  155.4644 H   0  0  0  0  0  0  0  0  0  0  0  0  # atno 8008 bound_to 7997
  156.0100  140.1231  157.0487 H   0  0  0  0  0  0  0  0  0  0  0  0  # atno 8009 bound_to 7997
  154.4277  140.1083  156.5802 H   0  0  0  0  0  0  0  0  0  0  0  0  # atno 8010 bound_to 7997
  140.6026  143.8574  150.6980 H   0  0  0  0  0  0  0  0  0  0  0  0  # atno 10167 bound_to 10162
  156.8730  130.5627  149.5656 H   0  0  0  0  0  0  0  0  0  0  0  0  # atno 10718 bound_to 10713
  153.8474  135.6852  153.4796 H   0  0  0  0  0  0  0  0  0  0  0  0  # atno 10763 bound_to 10752
  153.1418  135.4654  154.9504 H   0  0  0  0  0  0  0  0  0  0  0  0  # atno 10764 bound_to 10752
  154.7818  135.3271  154.7921 H   0  0  0  0  0  0  0  0  0  0  0  0  # atno 10765 bound_to 10752
  140.9692  134.0829  157.3887 H   0  0  0  0  0  0  0  0  0  0  0  0  # atno 11005 bound_to 11000
  146.1100  140.7440  142.9508 LP  0  0  0  0  0  0  0  0  0  0  0  0  # atno 17320 bound_to 7965
  144.7079  140.3924  143.7104 LP  0  0  0  0  0  0  0  0  0  0  0  0  # atno 17321 bound_to 7965
  140.2123  143.3873  152.1708 LP  0  0  0  0  0  0  0  0  0  0  0  0  # atno 17342 bound_to 10162
  139.5302  144.7150  151.5084 LP  0  0  0  0  0  0  0  0  0  0  0  0  # atno 17343 bound_to 10162
  156.0716  130.5748  150.9395 LP  0  0  0  0  0  0  0  0  0  0  0  0  # atno 17370 bound_to 10713
  157.6185  131.0931  150.8667 LP  0  0  0  0  0  0  0  0  0  0  0  0  # atno 17371 bound_to 10713
  139.8906  135.0113  156.6744 LP  0  0  0  0  0  0  0  0  0  0  0  0  # atno 17394 bound_to 11000
  140.7354  133.9023  155.8240 LP  0  0  0  0  0  0  0  0  0  0  0  0  # atno 17395 bound_to 11000

$$$$
