AV-unprocessed.smi:1010|AV-procd|sdf|4417|dock7
  -GOLD-   22720 2363D 1   1.00000     0.00000
 Structure written by MMmdl.
 54 56  0  0  0  0  0  0  0  0  1 V2000
  148.7023  133.3071  153.1700 C   0  0  0  0  0  0  0  0  0  0  0  0
  147.4088  132.6224  153.1492 N   0  0  0  0  0  0  0  0  0  0  0  0
  147.1474  132.1506  154.5104 C   0  0  0  0  0  0  0  0  0  0  0  0
  146.2751  133.3434  152.5032 C   0  0  0  0  0  0  0  0  0  0  0  0
  145.8650  134.5255  153.4376 C   0  0  0  0  0  0  0  0  0  0  0  0
  146.8161  135.6309  153.3828 N   0  0  0  0  0  0  0  0  0  0  0  0
  146.6061  136.8430  153.9087 C   0  0  0  0  0  0  0  0  0  0  0  0
  145.5824  137.1513  154.5188 O   0  0  0  0  0  0  0  0  0  0  0  0
  147.6423  137.6607  153.6609 N   0  0  0  0  0  0  0  0  0  0  0  0
  147.7865  139.0356  153.9999 C   0  0  0  0  0  0  0  0  0  0  0  0
  146.6921  139.9335  153.9487 C   0  0  0  0  0  0  0  0  0  0  0  0
  146.8932  141.2860  154.2734 C   0  0  0  0  0  0  0  0  0  0  0  0
  148.1848  141.6951  154.6433 C   0  0  0  0  0  0  0  0  0  0  0  0
  149.2322  140.8500  154.7174 N   0  0  0  0  0  0  0  0  0  0  0  0
  149.0515  139.5388  154.4216 C   0  0  0  0  0  0  0  0  0  0  0  0
  150.1837  138.6990  154.5348 N   0  0  0  0  0  0  0  0  0  0  0  0
  151.5226  139.2692  154.6401 C   0  0  0  0  0  0  0  0  0  0  0  0
  152.4064  138.1180  155.1112 C   0  0  0  0  0  0  0  0  0  0  0  0
  151.4714  137.3479  156.0388 C   0  0  0  0  0  0  0  0  0  0  0  0
  150.0933  137.5202  155.3910 C   0  0  0  0  0  0  0  0  0  0  0  0
  146.6667  133.8822  151.0989 C   0  0  0  0  0  0  0  0  0  0  0  0
  145.4559  134.4272  150.3161 C   0  0  0  0  0  0  0  0  0  0  0  0
  144.4419  133.4361  150.2099 O   0  0  0  0  0  0  0  0  0  0  0  0
  143.9307  133.0268  151.4720 C   0  0  0  0  0  0  0  0  0  0  0  0
  145.0593  132.3879  152.3016 C   0  0  0  0  0  0  0  0  0  0  0  0
  149.0969  133.4612  152.1670 H   0  0  0  0  0  0  0  0  0  0  0  0
  149.4467  132.7009  153.6875 H   0  0  0  0  0  0  0  0  0  0  0  0
  148.6504  134.2684  153.6805 H   0  0  0  0  0  0  0  0  0  0  0  0
  146.2593  131.5255  154.5740 H   0  0  0  0  0  0  0  0  0  0  0  0
  147.0378  132.9798  155.2095 H   0  0  0  0  0  0  0  0  0  0  0  0
  147.9760  131.5347  154.8615 H   0  0  0  0  0  0  0  0  0  0  0  0
  144.8679  134.8957  153.1996 H   0  0  0  0  0  0  0  0  0  0  0  0
  145.7926  134.2026  154.4749 H   0  0  0  0  0  0  0  0  0  0  0  0
  147.6805  135.4622  152.8892 H   0  0  0  0  0  0  0  0  0  0  0  0
  148.3666  137.2867  153.0656 H   0  0  0  0  0  0  0  0  0  0  0  0
  145.7012  139.6066  153.6731 H   0  0  0  0  0  0  0  0  0  0  0  0
  146.0769  141.9921  154.2374 H   0  0  0  0  0  0  0  0  0  0  0  0
  148.3817  142.7266  154.8946 H   0  0  0  0  0  0  0  0  0  0  0  0
  151.8582  139.6735  153.6848 H   0  0  0  0  0  0  0  0  0  0  0  0
  151.5453  140.0699  155.3804 H   0  0  0  0  0  0  0  0  0  0  0  0
  152.6890  137.4924  154.2633 H   0  0  0  0  0  0  0  0  0  0  0  0
  153.3179  138.4556  155.6048 H   0  0  0  0  0  0  0  0  0  0  0  0
  151.7552  136.3020  156.1575 H   0  0  0  0  0  0  0  0  0  0  0  0
  151.4736  137.8111  157.0265 H   0  0  0  0  0  0  0  0  0  0  0  0
  149.3084  137.6163  156.1424 H   0  0  0  0  0  0  0  0  0  0  0  0
  149.8658  136.6526  154.7714 H   0  0  0  0  0  0  0  0  0  0  0  0
  147.4153  134.6706  151.1782 H   0  0  0  0  0  0  0  0  0  0  0  0
  147.1183  133.0920  150.4999 H   0  0  0  0  0  0  0  0  0  0  0  0
  145.0527  135.3283  150.7791 H   0  0  0  0  0  0  0  0  0  0  0  0
  145.7662  134.7111  149.3105 H   0  0  0  0  0  0  0  0  0  0  0  0
  143.4623  133.8653  151.9871 H   0  0  0  0  0  0  0  0  0  0  0  0
  143.1416  132.2944  151.3010 H   0  0  0  0  0  0  0  0  0  0  0  0
  145.3471  131.4993  151.7427 H   0  0  0  0  0  0  0  0  0  0  0  0
  144.6710  132.0345  153.2572 H   0  0  0  0  0  0  0  0  0  0  0  0
  1  2  1  0  0  0  0
  1 26  1  0  0  0  0
  1 27  1  0  0  0  0
  1 28  1  0  0  0  0
  2  3  1  0  0  0  0
  2  4  1  0  0  0  0
  3 29  1  0  0  0  0
  3 30  1  0  0  0  0
  3 31  1  0  0  0  0
  4 25  1  0  0  0  0
  4  5  1  0  0  0  0
  4 21  1  0  0  0  0
  5  6  1  0  0  0  0
  5 32  1  0  0  0  0
  5 33  1  0  0  0  0
  6  7  1  0  0  0  0
  6 34  1  0  0  0  0
  7  8  2  0  0  0  0
  7  9  1  0  0  0  0
  9 10  1  0  0  0  0
  9 35  1  0  0  0  0
 10 15  1  0  0  0  0
 10 11  2  0  0  0  0
 11 12  1  0  0  0  0
 11 36  1  0  0  0  0
 12 13  2  0  0  0  0
 12 37  1  0  0  0  0
 13 14  1  0  0  0  0
 13 38  1  0  0  0  0
 14 15  2  0  0  0  0
 15 16  1  0  0  0  0
 16 20  1  0  0  0  0
 16 17  1  0  0  0  0
 17 18  1  0  0  0  0
 17 39  1  0  0  0  0
 17 40  1  0  0  0  0
 18 19  1  0  0  0  0
 18 41  1  0  0  0  0
 18 42  1  0  0  0  0
 19 20  1  0  0  0  0
 19 43  1  0  0  0  0
 19 44  1  0  0  0  0
 20 45  1  0  0  0  0
 20 46  1  0  0  0  0
 21 22  1  0  0  0  0
 21 47  1  0  0  0  0
 21 48  1  0  0  0  0
 22 23  1  0  0  0  0
 22 49  1  0  0  0  0
 22 50  1  0  0  0  0
 23 24  1  0  0  0  0
 24 25  1  0  0  0  0
 24 51  1  0  0  0  0
 24 52  1  0  0  0  0
 25 53  1  0  0  0  0
 25 54  1  0  0  0  0
M  END
> <s_m_source_file>
AV-unprocessed.smi

> <i_m_source_file_index>
1010

> <i_lp_mmshare_version>
43012

> <i_f3d_flags>
0

> <s_epik_input>
W0NIMl0xW0NIMl1PW0NIMl1bQ0gyXUMxKE4oW0NIM10pW0NIM10pW0NIMl1bTkhdQyg9TylbTkhdYzJbY0hdW2NIXVtjSF1uYzJOM1tDSDJdW0NIMl1bQ0gyXVtDSDJdMw==

> <s_epik_cmdline>
J2VwaWtfcHl0aG9uJywgJy1waCcsICc3LjAnLCAnLXRuJywgJzgnLCAnLW1hJywgJzIwMCcsICctbWV0YWxfYmluZGluZycsICctaW1hZScsICc8aW5maWxlLm1hZT4nLCAnLW9tYWUnLCAnPG91dGZpbGUubWFlPic=

> <r_lp_tautomer_probability>
1

> <r_epik_Ionization_Penalty>
2.38232

> <r_epik_Ionization_Penalty_Charging>
0

> <r_epik_Ionization_Penalty_Neutral>
2.38232

> <r_epik_State_Penalty>
2.49988

> <r_epik_Charging_Adjusted_Penalty>
2.49988

> <i_epik_Tot_Q>
0

> <i_epik_Tot_abs_Q>
0

> <r_epik_Metal_State_Penalty>
2.47138

> <b_epik_Metal_Only>
0

> <s_lp_Force_Field>
OPLS_2005

> <r_lp_Energy>
56.3274

> <b_lp_Chiralities_Consistent>
1

> <s_lp_Variant>
AV-unprocessed.smi:1010-3

> <Gold.Version>
5.8.1

> <Gold.Id.Protein>
6NUR|6NUR_protein|mol2

> <Gold.PLP.Fitness>
39.1332

> <Gold.PLP.PLP>
-31.5971

> <Gold.PLP.part.hbond>
-2.0000

> <Gold.PLP.part.metal>
0.0000

> <Gold.PLP.part.buried>
-1.3987

> <Gold.PLP.part.nonpolar>
-27.9217

> <Gold.PLP.part.repulsive>
0.6542

> <Gold.PLP.ligand.clash>
0.0000

> <Gold.PLP.ligand.torsion>
0.8021

> <Gold.PLP.Chemscore.Hbond>
1.9120

> <Gold.PLP.Chemscore.CHOScore>
1.0000

> <Gold.PLP.Chemscore.Metal>
0.0000

> <Gold.Chemscore.Hbonds>
donor molecule, donor type, donor heavy atom, donor atom, acceptor molecule, acceptor atom, score
      L1  H     6    34       P1  7948  0.90
      L1  H     9    35       P1  7948  1.00
      L1  C    13    38       P1  8028  1.00

> <Gold.PLP.Chemscore.Internal.Correction>
0.4045

> <Gold.Rescore>
     Score         DG    S(hbond)    S(metal)    S(lipo)     H(rot)  DE(clash)    DE(int)     intcor
     15.36     -17.46       1.78        0.00      85.18       1.54       0.11       1.99       ----

> <Gold.Chemscore.Fitness>
15.3600

> <Gold.Chemscore.DG>
-17.4606

> <Gold.Chemscore.ZeroCoef>
-5.4800

> <Gold.Chemscore.Hbond>
1.7804

> <Gold.Chemscore.Metal>
0.0000

> <Gold.Chemscore.Lipo>
85.1843

> <Gold.Chemscore.Internal_Hbond>
0.0000

> <Gold.Chemscore.DEClash>
0.1068

> <Gold.Chemscore.DEInternal>
1.9937

> <Gold.Chemscore.Rot>
1.5362

> <Gold.Chemscore.Internal.Correction>
   9.000000E+99

> <Gold.Chemscore.Hbonds>
donor molecule, donor type, donor heavy atom, donor atom, acceptor molecule, acceptor atom, score
      L1  H     6    34       P1  7948  0.88
      L1  H     9    35       P1  7948  0.98

> <Gold.Chemscore.Hbond.Weighted>
-5.9466

> <Gold.Chemscore.Metal.Weighted>
-0.0000

> <Gold.Chemscore.Lipo.Weighted>
-9.9666

> <Gold.Chemscore.Internal_Hbond.Weighted>
0.0000

> <Gold.Chemscore.DEClash.Weighted>
0.1068

> <Gold.Chemscore.DEInternal.Weighted>
1.9937

> <Gold.Chemscore.Rot.Weighted>
3.9326

> <Gold.Chemscore.Internal.Correction.Weighted>
   9.000000E+99

> <Gold.Protein.RotatedTorsions>
[ 6907 6896 6895 6894 ] final  -90.16 input  -60.11 | X-H torsion
[ 7974 7965 7964 7962 ] final -126.61 input  175.53 | X-H torsion
[ 8008 7997 7996 7995 ] final  -22.20 input   59.86 | X-H torsion
[ 10167 10162 10161 10158 ] final   21.14 input  -65.29 | X-H torsion
[ 10718 10713 10712 10709 ] final   -3.49 input   66.30 | X-H torsion
[ 10763 10752 10751 10750 ] final   70.44 input  -60.55 | X-H torsion
[ 11005 11000 10999 10996 ] final  147.16 input  -57.11 | X-H torsion

> <Gold.Protein.ActiveResidues>
 VAL166  LYS551  ARG553  GLY616  TRP617  ASP618  TYR619  PRO620  LYS621  CYS622 
 ASP623  PHE694  ASN695  SER759  ASP760  ASP761  ALA762  ILE779  LEU786  VAL792 
 PHE793  MET794  SER795  GLU796  ALA797  LYS798  CYS799  TRP800  GLU811  SER814 

> <Gold.Protein.RotatedAtoms>
  150.6879  134.2475  159.4497 H   0  0  0  0  0  0  0  0  0  0  0  0  # atno 6907 bound_to 6896
  152.0415  134.9706  160.0583 H   0  0  0  0  0  0  0  0  0  0  0  0  # atno 6908 bound_to 6896
  152.1206  133.4316  159.4710 H   0  0  0  0  0  0  0  0  0  0  0  0  # atno 6909 bound_to 6896
  144.9855  140.7681  143.4586 H   0  0  0  0  0  0  0  0  0  0  0  0  # atno 7974 bound_to 7965
  154.4659  140.2014  156.0121 H   0  0  0  0  0  0  0  0  0  0  0  0  # atno 8008 bound_to 7997
  156.0925  140.3256  155.7806 H   0  0  0  0  0  0  0  0  0  0  0  0  # atno 8009 bound_to 7997
  155.4932  140.0548  157.2941 H   0  0  0  0  0  0  0  0  0  0  0  0  # atno 8010 bound_to 7997
  140.5450  143.9611  150.6542 H   0  0  0  0  0  0  0  0  0  0  0  0  # atno 10167 bound_to 10162
  156.7753  130.5313  149.5760 H   0  0  0  0  0  0  0  0  0  0  0  0  # atno 10718 bound_to 10713
  153.0342  135.5173  154.7442 H   0  0  0  0  0  0  0  0  0  0  0  0  # atno 10763 bound_to 10752
  154.6432  135.2915  155.0080 H   0  0  0  0  0  0  0  0  0  0  0  0  # atno 10764 bound_to 10752
  154.0990  135.6639  153.4917 H   0  0  0  0  0  0  0  0  0  0  0  0  # atno 10765 bound_to 10752
  140.0853  134.9073  157.1565 H   0  0  0  0  0  0  0  0  0  0  0  0  # atno 11005 bound_to 11000
  145.2360  139.2093  143.5018 LP  0  0  0  0  0  0  0  0  0  0  0  0  # atno 17320 bound_to 7965
  146.3419  140.2246  142.8592 LP  0  0  0  0  0  0  0  0  0  0  0  0  # atno 17321 bound_to 7965
  140.3021  143.3253  152.0961 LP  0  0  0  0  0  0  0  0  0  0  0  0  # atno 17342 bound_to 10162
  139.5004  144.6690  151.6288 LP  0  0  0  0  0  0  0  0  0  0  0  0  # atno 17343 bound_to 10162
  156.1252  130.6138  151.0252 LP  0  0  0  0  0  0  0  0  0  0  0  0  # atno 17370 bound_to 10713
  157.6672  131.0869  150.7701 LP  0  0  0  0  0  0  0  0  0  0  0  0  # atno 17371 bound_to 10713
  140.3429  134.2684  155.7209 LP  0  0  0  0  0  0  0  0  0  0  0  0  # atno 17394 bound_to 11000
  141.2060  133.7844  157.0199 LP  0  0  0  0  0  0  0  0  0  0  0  0  # atno 17395 bound_to 11000

$$$$
