AV-unprocessed.smi:593|AV-procd|sdf|3013|dock4
  -GOLD-   2262023523D 1   1.00000     0.00000
 Structure written by MMmdl.
 40 41  0  0  0  0  0  0  0  0  3 V2000
  154.2530  138.9256  158.0892 O   0  0  0  0  0  0  0  0  0  0  0  0
  153.1175  138.8586  158.5576 C   0  0  0  0  0  0  0  0  0  0  0  0
  152.1499  137.7858  158.0271 C   0  0  0  0  0  0  0  0  0  0  0  0
  151.5069  138.1113  156.7401 N   0  0  0  0  0  0  0  0  0  0  0  0
  150.9985  139.4171  156.5937 C   0  0  0  0  0  0  0  0  0  0  0  0
  150.4005  139.8302  155.4592 C   0  0  0  0  0  0  0  0  0  0  0  0
  149.8910  141.1771  155.3248 N   0  3  0  0  0  0  0  0  0  0  0  0
  150.0066  141.9472  156.2728 O   0  0  0  0  0  0  0  0  0  0  0  0
  149.3585  141.5098  154.2701 O   0  5  0  0  0  0  0  0  0  0  0  0
  150.2893  138.8786  154.3709 C   0  0  0  0  0  0  0  0  0  0  0  0
  150.7775  137.6295  154.5024 C   0  0  0  0  0  0  0  0  0  0  0  0
  151.4324  137.1838  155.7363 C   0  0  0  0  0  0  0  0  0  0  0  0
  151.8940  136.0491  155.8570 O   0  0  0  0  0  0  0  0  0  0  0  0
  152.6783  139.6876  159.5178 N   0  0  0  0  0  0  0  0  0  0  0  0
  153.4413  140.7832  160.0982 C   0  0  0  0  0  0  0  0  0  0  0  0
  152.5635  142.0377  160.2713 C   0  0  0  0  0  0  0  0  0  0  0  0
  152.5867  142.9508  159.0237 C   0  0  0  0  0  0  0  0  0  0  0  0
  151.7210  144.2060  159.2199 C   0  0  0  0  0  0  0  0  0  0  0  0
  152.1435  144.9862  160.4738 C   0  0  0  0  0  0  0  0  0  0  0  0
  152.1139  144.0876  161.7188 C   0  0  0  0  0  0  0  0  0  0  0  0
  152.9835  142.8351  161.5226 C   0  0  0  0  0  0  0  0  0  0  0  0
  152.6918  136.8416  157.9502 H   0  0  0  0  0  0  0  0  0  0  0  0
  151.3916  137.6095  158.7912 H   0  0  0  0  0  0  0  0  0  0  0  0
  151.1372  140.0506  157.4581 H   0  0  0  0  0  0  0  0  0  0  0  0
  149.8151  139.1610  153.4424 H   0  0  0  0  0  0  0  0  0  0  0  0
  150.6854  136.9374  153.6783 H   0  0  0  0  0  0  0  0  0  0  0  0
  151.7340  139.5653  159.8538 H   0  0  0  0  0  0  0  0  0  0  0  0
  153.8328  140.4600  161.0636 H   0  0  0  0  0  0  0  0  0  0  0  0
  154.3004  141.0147  159.4659 H   0  0  0  0  0  0  0  0  0  0  0  0
  151.5354  141.7043  160.4226 H   0  0  0  0  0  0  0  0  0  0  0  0
  153.6132  143.2482  158.8060 H   0  0  0  0  0  0  0  0  0  0  0  0
  152.2310  142.4108  158.1457 H   0  0  0  0  0  0  0  0  0  0  0  0
  151.7943  144.8482  158.3418 H   0  0  0  0  0  0  0  0  0  0  0  0
  150.6728  143.9168  159.3049 H   0  0  0  0  0  0  0  0  0  0  0  0
  153.1487  145.3859  160.3350 H   0  0  0  0  0  0  0  0  0  0  0  0
  151.4862  145.8440  160.6181 H   0  0  0  0  0  0  0  0  0  0  0  0
  152.4597  144.6473  162.5882 H   0  0  0  0  0  0  0  0  0  0  0  0
  151.0863  143.7900  161.9311 H   0  0  0  0  0  0  0  0  0  0  0  0
  152.9139  142.2027  162.4083 H   0  0  0  0  0  0  0  0  0  0  0  0
  154.0302  143.1304  161.4374 H   0  0  0  0  0  0  0  0  0  0  0  0
  1  2  2  0  0  0  0
  2  3  1  0  0  0  0
  2 14  1  0  0  0  0
  3  4  1  0  0  0  0
  3 22  1  0  0  0  0
  3 23  1  0  0  0  0
  4 12  1  0  0  0  0
  4  5  1  0  0  0  0
  5  6  2  0  0  0  0
  5 24  1  0  0  0  0
  6  7  1  0  0  0  0
  6 10  1  0  0  0  0
  7  8  2  0  0  0  0
  7  9  1  0  0  0  0
 10 11  2  0  0  0  0
 10 25  1  0  0  0  0
 11 12  1  0  0  0  0
 11 26  1  0  0  0  0
 12 13  2  0  0  0  0
 14 15  1  0  0  0  0
 14 27  1  0  0  0  0
 15 16  1  0  0  0  0
 15 28  1  0  0  0  0
 15 29  1  0  0  0  0
 16 21  1  0  0  0  0
 16 17  1  0  0  0  0
 16 30  1  0  0  0  0
 17 18  1  0  0  0  0
 17 31  1  0  0  0  0
 17 32  1  0  0  0  0
 18 19  1  0  0  0  0
 18 33  1  0  0  0  0
 18 34  1  0  0  0  0
 19 20  1  0  0  0  0
 19 35  1  0  0  0  0
 19 36  1  0  0  0  0
 20 21  1  0  0  0  0
 20 37  1  0  0  0  0
 20 38  1  0  0  0  0
 21 39  1  0  0  0  0
 21 40  1  0  0  0  0
M  CHG  1   7   1
M  CHG  1   9  -1
M  END
> <s_m_source_file>
AV-unprocessed.smi

> <i_m_source_file_index>
593

> <i_lp_mmshare_version>
43012

> <i_f3d_flags>
0

> <s_epik_input>
W0NIMl0xW0NIMl1bQ0gyXVtDSDJdW0NIMl1bQ0hdMVtDSDJdW05IXUMoPU8pW0NIMl1uMltjSF1jKFtOK10oPU8pW08tXSlbY0hdW2NIXWMyPU8=

> <s_epik_cmdline>
J2VwaWtfcHl0aG9uJywgJy1waCcsICc3LjAnLCAnLXRuJywgJzgnLCAnLW1hJywgJzIwMCcsICctbWV0YWxfYmluZGluZycsICctaW1hZScsICc8aW5maWxlLm1hZT4nLCAnLW9tYWUnLCAnPG91dGZpbGUubWFlPic=

> <r_lp_tautomer_probability>
1

> <r_epik_Ionization_Penalty>
1.98738e-08

> <r_epik_Ionization_Penalty_Charging>
7.60687e-11

> <r_epik_Ionization_Penalty_Neutral>
1.97978e-08

> <r_epik_State_Penalty>
-0

> <r_epik_Charging_Adjusted_Penalty>
7.60687e-11

> <i_epik_Tot_Q>
0

> <i_epik_Tot_abs_Q>
2

> <r_epik_Metal_State_Penalty>
-0

> <b_epik_Metal_Only>
0

> <s_lp_Force_Field>
OPLS_2005

> <r_lp_Energy>
22.1176

> <b_lp_Chiralities_Consistent>
1

> <s_lp_Variant>
AV-unprocessed.smi:593-1

> <Gold.Version>
5.8.1

> <Gold.Id.Protein>
6NUR|6NUR_protein|mol2

> <Gold.PLP.Fitness>
50.9650

> <Gold.PLP.PLP>
-44.9793

> <Gold.PLP.part.hbond>
-3.9072

> <Gold.PLP.part.metal>
0.0000

> <Gold.PLP.part.buried>
-4.7550

> <Gold.PLP.part.nonpolar>
-36.3870

> <Gold.PLP.part.repulsive>
0.6099

> <Gold.PLP.ligand.clash>
0.0000

> <Gold.PLP.ligand.torsion>
0.9763

> <Gold.PLP.Chemscore.Hbond>
2.6246

> <Gold.PLP.Chemscore.CHOScore>
0.0000

> <Gold.PLP.Chemscore.Metal>
0.0000

> <Gold.Chemscore.Hbonds>
donor molecule, donor type, donor heavy atom, donor atom, acceptor molecule, acceptor atom, score
      P1  H  7997  8010       L1     1  0.94
      P1  H  8011  8017       L1     9  0.39
      P1  H 10752 10763       L1    13  1.00

> <Gold.PLP.Chemscore.Internal.Correction>
0.0644

> <Gold.Rescore>
     Score         DG    S(hbond)    S(metal)    S(lipo)     H(rot)  DE(clash)    DE(int)     intcor
     21.59     -22.61       2.66        0.00     109.60       1.78       0.12       0.91       ----

> <Gold.Chemscore.Fitness>
21.5867

> <Gold.Chemscore.DG>
-22.6126

> <Gold.Chemscore.ZeroCoef>
-5.4800

> <Gold.Chemscore.Hbond>
2.6562

> <Gold.Chemscore.Metal>
0.0000

> <Gold.Chemscore.Lipo>
109.6039

> <Gold.Chemscore.Internal_Hbond>
0.0000

> <Gold.Chemscore.DEClash>
0.1174

> <Gold.Chemscore.DEInternal>
0.9086

> <Gold.Chemscore.Rot>
1.7823

> <Gold.Chemscore.Internal.Correction>
   9.000000E+99

> <Gold.Chemscore.Hbonds>
donor molecule, donor type, donor heavy atom, donor atom, acceptor molecule, acceptor atom, score
      P1  H  7997  8010       L1     1  0.90
      P1  H  8011  8017       L1     9  0.38
      P1  H 10752 10763       L1    13  0.97

> <Gold.Chemscore.Hbond.Weighted>
-8.8717

> <Gold.Chemscore.Metal.Weighted>
-0.0000

> <Gold.Chemscore.Lipo.Weighted>
-12.8237

> <Gold.Chemscore.Internal_Hbond.Weighted>
0.0000

> <Gold.Chemscore.DEClash.Weighted>
0.1174

> <Gold.Chemscore.DEInternal.Weighted>
0.9086

> <Gold.Chemscore.Rot.Weighted>
4.5627

> <Gold.Chemscore.Internal.Correction.Weighted>
   9.000000E+99

> <Gold.Protein.RotatedTorsions>
[ 6907 6896 6895 6894 ] final -124.47 input  -60.11 | X-H torsion
[ 7974 7965 7964 7962 ] final -144.18 input  175.53 | X-H torsion
[ 8008 7997 7996 7995 ] final   11.24 input   59.86 | X-H torsion
[ 10167 10162 10161 10158 ] final   53.42 input  -65.29 | X-H torsion
[ 10718 10713 10712 10709 ] final   89.00 input   66.30 | X-H torsion
[ 10763 10752 10751 10750 ] final   86.33 input  -60.55 | X-H torsion
[ 11005 11000 10999 10996 ] final  108.93 input  -57.11 | X-H torsion

> <Gold.Protein.ActiveResidues>
 VAL166  LYS551  ARG553  GLY616  TRP617  ASP618  TYR619  PRO620  LYS621  CYS622 
 ASP623  PHE694  ASN695  SER759  ASP760  ASP761  ALA762  ILE779  LEU786  VAL792 
 PHE793  MET794  SER795  GLU796  ALA797  LYS798  CYS799  TRP800  GLU811  SER814 

> <Gold.Protein.RotatedAtoms>
  150.8771  133.7423  159.2943 H   0  0  0  0  0  0  0  0  0  0  0  0  # atno 6907 bound_to 6896
  151.5016  135.1060  159.9840 H   0  0  0  0  0  0  0  0  0  0  0  0  # atno 6908 bound_to 6896
  152.4735  133.8039  159.7023 H   0  0  0  0  0  0  0  0  0  0  0  0  # atno 6909 bound_to 6896
  144.8316  140.5742  143.5511 H   0  0  0  0  0  0  0  0  0  0  0  0  # atno 7974 bound_to 7965
  154.8043  140.2857  155.5899 H   0  0  0  0  0  0  0  0  0  0  0  0  # atno 8008 bound_to 7997
  156.2981  140.2580  156.2847 H   0  0  0  0  0  0  0  0  0  0  0  0  # atno 8009 bound_to 7997
  154.9522  140.0379  157.2139 H   0  0  0  0  0  0  0  0  0  0  0  0  # atno 8010 bound_to 7997
  140.2410  144.3584  150.6380 H   0  0  0  0  0  0  0  0  0  0  0  0  # atno 10167 bound_to 10162
  157.6953  131.0316  150.3359 H   0  0  0  0  0  0  0  0  0  0  0  0  # atno 10718 bound_to 10713
  153.1560  135.4584  154.9705 H   0  0  0  0  0  0  0  0  0  0  0  0  # atno 10763 bound_to 10752
  154.7862  135.3205  154.7883 H   0  0  0  0  0  0  0  0  0  0  0  0  # atno 10764 bound_to 10752
  153.8381  135.6932  153.4860 H   0  0  0  0  0  0  0  0  0  0  0  0  # atno 10765 bound_to 10752
  139.8853  134.9444  156.6047 H   0  0  0  0  0  0  0  0  0  0  0  0  # atno 11005 bound_to 11000
  145.4883  139.1490  143.3723 LP  0  0  0  0  0  0  0  0  0  0  0  0  # atno 17320 bound_to 7965
  146.2618  140.5021  142.8850 LP  0  0  0  0  0  0  0  0  0  0  0  0  # atno 17321 bound_to 7965
  140.6114  143.2170  151.6879 LP  0  0  0  0  0  0  0  0  0  0  0  0  # atno 17342 bound_to 10162
  139.5077  144.3636  152.0539 LP  0  0  0  0  0  0  0  0  0  0  0  0  # atno 17343 bound_to 10162
  156.3826  130.3883  149.7090 LP  0  0  0  0  0  0  0  0  0  0  0  0  # atno 17370 bound_to 10713
  156.4467  130.7887  151.2908 LP  0  0  0  0  0  0  0  0  0  0  0  0  # atno 17371 bound_to 10713
  140.7857  133.8624  155.8604 LP  0  0  0  0  0  0  0  0  0  0  0  0  # atno 17394 bound_to 11000
  140.9722  134.1517  157.4567 LP  0  0  0  0  0  0  0  0  0  0  0  0  # atno 17395 bound_to 11000

$$$$
