AV-unprocessed.smi:1401|AV-procd|sdf|5692|dock7
  -GOLD-   22720 5323D 1   1.00000     0.00000
 Structure written by MMmdl.
 48 50  0  0  0  0  0  0  0  0  1 V2000
  150.3844  143.8774  159.2260 C   0  0  0  0  0  0  0  0  0  0  0  0
  151.3472  142.7203  159.2259 C   0  0  0  0  0  0  0  0  0  0  0  0
  151.3074  141.9339  158.2012 N   0  0  0  0  0  0  0  0  0  0  0  0
  152.1488  140.8431  158.0977 N   0  0  0  0  0  0  0  0  0  0  0  0
  151.9513  140.0489  156.8760 C   0  0  0  0  0  0  0  0  0  0  0  0
  150.7088  140.4569  156.0701 C   0  0  0  0  0  0  0  0  0  0  0  0
  150.7892  140.7141  154.8679 O   0  0  0  0  0  0  0  0  0  0  0  0
  149.5566  140.4973  156.7571 N   0  0  0  0  0  0  0  0  0  0  0  0
  148.2485  140.8567  156.2110 C   0  0  2  0  0  0  0  0  0  0  0  0
  147.3411  141.3067  157.3698 C   0  0  0  0  0  0  0  0  0  0  0  0
  147.6683  139.6577  155.4203 C   0  0  2  0  0  0  0  0  0  0  0  0
  148.6099  139.1329  154.3064 C   0  0  0  0  0  0  0  0  0  0  0  0
  147.7207  139.1479  153.0509 C   0  0  1  0  0  0  0  0  0  0  0  0
  146.6379  138.0605  153.1713 C   0  0  0  0  0  0  0  0  0  0  0  0
  145.6920  138.6436  154.2375 C   0  0  0  0  0  0  0  0  0  0  0  0
  146.3805  139.9695  154.6153 C   0  0  2  0  0  0  0  0  0  0  0  0
  146.9188  140.4243  153.2623 C   0  0  0  0  0  0  0  0  0  0  0  0
  153.0899  140.4977  159.0233 C   0  0  0  0  0  0  0  0  0  0  0  0
  153.8297  139.5224  158.8839 O   0  0  0  0  0  0  0  0  0  0  0  0
  153.1271  141.3910  160.1833 C   0  0  0  0  0  0  0  0  0  0  0  0
  154.0973  141.0647  161.1781 C   0  0  0  0  0  0  0  0  0  0  0  0
  154.8874  140.8207  161.9885 N   0  0  0  0  0  0  0  0  0  0  0  0
  152.2968  142.4570  160.3027 C   0  0  0  0  0  0  0  0  0  0  0  0
  152.2999  143.4133  161.4874 C   0  0  0  0  0  0  0  0  0  0  0  0
  150.9059  144.8180  159.4049 H   0  0  0  0  0  0  0  0  0  0  0  0
  149.6322  143.7529  160.0054 H   0  0  0  0  0  0  0  0  0  0  0  0
  149.8607  143.9701  158.2732 H   0  0  0  0  0  0  0  0  0  0  0  0
  152.8218  140.1394  156.2235 H   0  0  0  0  0  0  0  0  0  0  0  0
  151.8854  138.9886  157.1274 H   0  0  0  0  0  0  0  0  0  0  0  0
  149.5869  140.2651  157.7392 H   0  0  0  0  0  0  0  0  0  0  0  0
  148.3619  141.6961  155.5231 H   0  0  0  0  0  0  0  0  0  0  0  0
  146.3775  141.6700  157.0150 H   0  0  0  0  0  0  0  0  0  0  0  0
  147.7998  142.1210  157.9317 H   0  0  0  0  0  0  0  0  0  0  0  0
  147.1529  140.4895  158.0669 H   0  0  0  0  0  0  0  0  0  0  0  0
  147.4659  138.8543  156.1308 H   0  0  0  0  0  0  0  0  0  0  0  0
  149.4639  139.7952  154.1577 H   0  0  0  0  0  0  0  0  0  0  0  0
  148.9998  138.1387  154.5275 H   0  0  0  0  0  0  0  0  0  0  0  0
  148.2819  139.1057  152.1171 H   0  0  0  0  0  0  0  0  0  0  0  0
  146.1123  137.9261  152.2250 H   0  0  0  0  0  0  0  0  0  0  0  0
  147.0534  137.0958  153.4646 H   0  0  0  0  0  0  0  0  0  0  0  0
  144.7053  138.8297  153.8114 H   0  0  0  0  0  0  0  0  0  0  0  0
  145.5644  137.9787  155.0924 H   0  0  0  0  0  0  0  0  0  0  0  0
  145.7004  140.6736  155.0928 H   0  0  0  0  0  0  0  0  0  0  0  0
  147.5373  141.3216  153.3152 H   0  0  0  0  0  0  0  0  0  0  0  0
  146.1386  140.5730  152.5136 H   0  0  0  0  0  0  0  0  0  0  0  0
  152.8947  143.0337  162.3177 H   0  0  0  0  0  0  0  0  0  0  0  0
  151.2894  143.5735  161.8643 H   0  0  0  0  0  0  0  0  0  0  0  0
  152.7156  144.3775  161.1930 H   0  0  0  0  0  0  0  0  0  0  0  0
  1  2  1  0  0  0  0
  1 25  1  0  0  0  0
  1 26  1  0  0  0  0
  1 27  1  0  0  0  0
  2 23  1  0  0  0  0
  2  3  2  0  0  0  0
  3  4  1  0  0  0  0
  4  5  1  0  0  0  0
  4 18  1  0  0  0  0
  5  6  1  0  0  0  0
  5 28  1  0  0  0  0
  5 29  1  0  0  0  0
  6  7  2  0  0  0  0
  6  8  1  0  0  0  0
  8  9  1  0  0  0  0
  8 30  1  0  0  0  0
  9 10  1  0  0  0  0
  9 11  1  0  0  0  0
  9 31  1  0  0  0  0
 10 32  1  0  0  0  0
 10 33  1  0  0  0  0
 10 34  1  0  0  0  0
 11 16  1  0  0  0  0
 11 12  1  0  0  0  0
 11 35  1  0  0  0  0
 12 13  1  0  0  0  0
 12 36  1  0  0  0  0
 12 37  1  0  0  0  0
 13 17  1  0  0  0  0
 13 14  1  0  0  0  0
 13 38  1  0  0  0  0
 14 15  1  0  0  0  0
 14 39  1  0  0  0  0
 14 40  1  0  0  0  0
 15 16  1  0  0  0  0
 15 41  1  0  0  0  0
 15 42  1  0  0  0  0
 16 17  1  0  0  0  0
 16 43  1  0  0  0  0
 17 44  1  0  0  0  0
 17 45  1  0  0  0  0
 18 19  2  0  0  0  0
 18 20  1  0  0  0  0
 20 21  1  0  0  0  0
 20 23  2  0  0  0  0
 21 22  3  0  0  0  0
 23 24  1  0  0  0  0
 24 46  1  0  0  0  0
 24 47  1  0  0  0  0
 24 48  1  0  0  0  0
M  END
> <s_m_source_file>
AV-unprocessed.smi

> <i_m_source_file_index>
1401

> <i_lp_mmshare_version>
43012

> <i_f3d_flags>
0

> <s_epik_input>
TiNDYyhjMVtDSDNdKWMoPU8pbihuYzFbQ0gzXSlbQ0gyXUMoPU8pW05IXVtDQEhdKFtDSDNdKVtDQEhdKFtDSDJdW0NASF0yMylbQ0BIXShbQ0gyXTMpW0NIMl1bQ0gyXTI=

> <s_epik_cmdline>
J2VwaWtfcHl0aG9uJywgJy1waCcsICc3LjAnLCAnLXRuJywgJzgnLCAnLW1hJywgJzIwMCcsICctbWV0YWxfYmluZGluZycsICctaW1hZScsICc8aW5maWxlLm1hZT4nLCAnLW9tYWUnLCAnPG91dGZpbGUubWFlPic=

> <r_lp_tautomer_probability>
1

> <r_epik_Ionization_Penalty>
2.16501e-08

> <r_epik_Ionization_Penalty_Charging>
2.29436e-11

> <r_epik_Ionization_Penalty_Neutral>
2.16271e-08

> <r_epik_State_Penalty>
-0

> <r_epik_Charging_Adjusted_Penalty>
2.29436e-11

> <i_epik_Tot_Q>
0

> <i_epik_Tot_abs_Q>
0

> <r_epik_Metal_State_Penalty>
-0

> <b_epik_Metal_Only>
0

> <s_lp_Force_Field>
OPLS_2005

> <r_lp_Energy>
66.5869

> <b_lp_Chiralities_Consistent>
1

> <s_lp_Variant>
AV-unprocessed.smi:1401-5

> <Gold.Version>
5.8.1

> <Gold.Id.Protein>
6NUR|6NUR_protein|mol2

> <Gold.PLP.Fitness>
42.2464

> <Gold.PLP.PLP>
-37.2499

> <Gold.PLP.part.hbond>
-3.0000

> <Gold.PLP.part.metal>
0.0000

> <Gold.PLP.part.buried>
-3.3629

> <Gold.PLP.part.nonpolar>
-31.4510

> <Gold.PLP.part.repulsive>
0.1393

> <Gold.PLP.ligand.clash>
0.0000

> <Gold.PLP.ligand.torsion>
0.4550

> <Gold.PLP.Chemscore.Hbond>
1.9600

> <Gold.PLP.Chemscore.CHOScore>
0.0000

> <Gold.PLP.Chemscore.Metal>
0.0000

> <Gold.Chemscore.Hbonds>
donor molecule, donor type, donor heavy atom, donor atom, acceptor molecule, acceptor atom, score
      P1  H  7989  7998       L1     7  0.91
      P1  H  7997  8008       L1    19  1.00

> <Gold.PLP.Chemscore.Internal.Correction>
0.0265

> <Gold.Rescore>
     Score         DG    S(hbond)    S(metal)    S(lipo)     H(rot)  DE(clash)    DE(int)     intcor
     13.06     -14.88       1.03        0.00      86.67       1.63       0.07       1.76       ----

> <Gold.Chemscore.Fitness>
13.0556

> <Gold.Chemscore.DG>
-14.8791

> <Gold.Chemscore.ZeroCoef>
-5.4800

> <Gold.Chemscore.Hbond>
1.0257

> <Gold.Chemscore.Metal>
0.0000

> <Gold.Chemscore.Lipo>
86.6743

> <Gold.Chemscore.Internal_Hbond>
0.0000

> <Gold.Chemscore.DEClash>
0.0652

> <Gold.Chemscore.DEInternal>
1.7583

> <Gold.Chemscore.Rot>
1.6281

> <Gold.Chemscore.Internal.Correction>
   9.000000E+99

> <Gold.Chemscore.Hbonds>
donor molecule, donor type, donor heavy atom, donor atom, acceptor molecule, acceptor atom, score
      P1  H  7989  7998       L1     7  0.87
      P1  H  7997  8008       L1    19  0.33

> <Gold.Chemscore.Hbond.Weighted>
-3.4260

> <Gold.Chemscore.Metal.Weighted>
-0.0000

> <Gold.Chemscore.Lipo.Weighted>
-10.1409

> <Gold.Chemscore.Internal_Hbond.Weighted>
0.0000

> <Gold.Chemscore.DEClash.Weighted>
0.0652

> <Gold.Chemscore.DEInternal.Weighted>
1.7583

> <Gold.Chemscore.Rot.Weighted>
4.1678

> <Gold.Chemscore.Internal.Correction.Weighted>
   9.000000E+99

> <Gold.Protein.RotatedTorsions>
[ 6907 6896 6895 6894 ] final -160.19 input  -60.11 | X-H torsion
[ 7974 7965 7964 7962 ] final  139.65 input  175.53 | X-H torsion
[ 8008 7997 7996 7995 ] final -107.82 input   59.86 | X-H torsion
[ 10167 10162 10161 10158 ] final   65.85 input  -65.29 | X-H torsion
[ 10718 10713 10712 10709 ] final   93.53 input   66.30 | X-H torsion
[ 10763 10752 10751 10750 ] final  -34.66 input  -60.55 | X-H torsion
[ 11005 11000 10999 10996 ] final -177.99 input  -57.11 | X-H torsion

> <Gold.Protein.ActiveResidues>
 VAL166  LYS551  ARG553  GLY616  TRP617  ASP618  TYR619  PRO620  LYS621  CYS622 
 ASP623  PHE694  ASN695  SER759  ASP760  ASP761  ALA762  ILE779  LEU786  VAL792 
 PHE793  MET794  SER795  GLU796  ALA797  LYS798  CYS799  TRP800  GLU811  SER814 

> <Gold.Protein.RotatedAtoms>
  151.3452  133.3947  159.2674 H   0  0  0  0  0  0  0  0  0  0  0  0  # atno 6907 bound_to 6896
  150.9846  134.9195  159.7874 H   0  0  0  0  0  0  0  0  0  0  0  0  # atno 6908 bound_to 6896
  152.5228  134.3416  159.9271 H   0  0  0  0  0  0  0  0  0  0  0  0  # atno 6909 bound_to 6896
  144.9259  139.5108  143.5641 H   0  0  0  0  0  0  0  0  0  0  0  0  # atno 7974 bound_to 7965
  154.9350  140.0404  157.2067 H   0  0  0  0  0  0  0  0  0  0  0  0  # atno 8008 bound_to 7997
  154.8124  140.2870  155.5822 H   0  0  0  0  0  0  0  0  0  0  0  0  # atno 8009 bound_to 7997
  156.2972  140.2534  156.3015 H   0  0  0  0  0  0  0  0  0  0  0  0  # atno 8010 bound_to 7997
  140.1068  144.4854  150.7002 H   0  0  0  0  0  0  0  0  0  0  0  0  # atno 10167 bound_to 10162
  157.6954  131.0481  150.4048 H   0  0  0  0  0  0  0  0  0  0  0  0  # atno 10718 bound_to 10713
  153.8504  135.6849  153.4793 H   0  0  0  0  0  0  0  0  0  0  0  0  # atno 10763 bound_to 10752
  153.1400  135.4661  154.9480 H   0  0  0  0  0  0  0  0  0  0  0  0  # atno 10764 bound_to 10752
  154.7805  135.3267  154.7948 H   0  0  0  0  0  0  0  0  0  0  0  0  # atno 10765 bound_to 10752
  140.4347  134.6486  157.4729 H   0  0  0  0  0  0  0  0  0  0  0  0  # atno 11005 bound_to 11000
  146.3226  139.8173  142.8934 LP  0  0  0  0  0  0  0  0  0  0  0  0  # atno 17320 bound_to 7965
  145.3220  141.0246  143.3495 LP  0  0  0  0  0  0  0  0  0  0  0  0  # atno 17321 bound_to 7965
  140.6947  143.2397  151.5033 LP  0  0  0  0  0  0  0  0  0  0  0  0  # atno 17342 bound_to 10162
  139.5641  144.2086  152.1737 LP  0  0  0  0  0  0  0  0  0  0  0  0  # atno 17343 bound_to 10162
  156.4438  130.3997  149.6680 LP  0  0  0  0  0  0  0  0  0  0  0  0  # atno 17370 bound_to 10713
  156.3854  130.7600  151.2597 LP  0  0  0  0  0  0  0  0  0  0  0  0  # atno 17371 bound_to 10713
  140.0110  134.6690  155.9380 LP  0  0  0  0  0  0  0  0  0  0  0  0  # atno 17394 bound_to 11000
  141.1731  133.6538  156.4725 LP  0  0  0  0  0  0  0  0  0  0  0  0  # atno 17395 bound_to 11000

$$$$
