AV-unprocessed.smi:2063|AV-procd|sdf|8414|dock8
  -GOLD-   2272011103D 1   1.00000     0.00000
 Structure written by MMmdl.
 38 39  0  0  0  0  0  0  0  0  2 V2000
  152.1179  144.3775  158.6207 C   0  0  0  0  0  0  0  0  0  0  0  0
  151.8337  142.9592  159.1360 C   0  0  0  0  0  0  0  0  0  0  0  0
  152.7307  142.5548  160.3147 C   0  0  0  0  0  0  0  0  0  0  0  0
  151.8564  141.9439  158.0364 C   0  0  0  0  0  0  0  0  0  0  0  0
  152.6085  140.8394  158.0767 N   0  0  0  0  0  0  0  0  0  0  0  0
  152.4534  140.0573  156.9416 N   0  0  0  0  0  0  0  0  0  0  0  0
  151.5819  140.5723  156.0635 C   0  0  0  0  0  0  0  0  0  0  0  0
  151.2929  139.9699  154.8981 N   0  5  0  0  0  0  0  0  0  0  0  0
  150.0483  139.4897  154.6751 C   0  0  0  0  0  0  0  0  0  0  0  0
  149.7538  138.3247  154.3975 O   0  0  0  0  0  0  0  0  0  0  0  0
  149.0862  140.4178  154.7804 N   0  0  0  0  0  0  0  0  0  0  0  0
  147.6514  140.2008  154.6077 C   0  0  2  0  0  0  0  0  0  0  0  0
  147.3697  139.7064  153.1773 C   0  0  0  0  0  0  0  0  0  0  0  0
  146.9041  141.5096  154.9279 C   0  0  1  0  0  0  0  0  0  0  0  0
  146.9395  142.5600  153.8156 C   0  0  0  0  0  0  0  0  0  0  0  0
  145.6710  143.3706  154.0368 C   0  0  0  0  0  0  0  0  0  0  0  0
  144.8641  142.5380  155.0360 C   0  0  0  0  0  0  0  0  0  0  0  0
  145.5102  141.2745  155.0622 O   0  0  0  0  0  0  0  0  0  0  0  0
  150.8897  142.1096  156.5795 S   0  0  0  0  0  0  0  0  0  0  0  0
  151.4087  144.6605  157.8422 H   0  0  0  0  0  0  0  0  0  0  0  0
  153.1215  144.4535  158.2010 H   0  0  0  0  0  0  0  0  0  0  0  0
  152.0373  145.1105  159.4236 H   0  0  0  0  0  0  0  0  0  0  0  0
  150.8127  142.9729  159.5197 H   0  0  0  0  0  0  0  0  0  0  0  0
  152.4444  141.5790  160.7080 H   0  0  0  0  0  0  0  0  0  0  0  0
  152.6562  143.2748  161.1300 H   0  0  0  0  0  0  0  0  0  0  0  0
  153.7777  142.4991  160.0151 H   0  0  0  0  0  0  0  0  0  0  0  0
  149.3766  141.3557  155.0140 H   0  0  0  0  0  0  0  0  0  0  0  0
  147.3196  139.4375  155.3139 H   0  0  0  0  0  0  0  0  0  0  0  0
  146.3106  139.4955  153.0307 H   0  0  0  0  0  0  0  0  0  0  0  0
  147.9135  138.7859  152.9626 H   0  0  0  0  0  0  0  0  0  0  0  0
  147.6680  140.4487  152.4361 H   0  0  0  0  0  0  0  0  0  0  0  0
  147.2778  141.9438  155.8576 H   0  0  0  0  0  0  0  0  0  0  0  0
  147.8411  143.1722  153.8474 H   0  0  0  0  0  0  0  0  0  0  0  0
  146.8958  142.0774  152.8382 H   0  0  0  0  0  0  0  0  0  0  0  0
  145.8880  144.3593  154.4425 H   0  0  0  0  0  0  0  0  0  0  0  0
  145.1309  143.5029  153.0988 H   0  0  0  0  0  0  0  0  0  0  0  0
  144.9087  142.9830  156.0310 H   0  0  0  0  0  0  0  0  0  0  0  0
  143.8159  142.4403  154.7531 H   0  0  0  0  0  0  0  0  0  0  0  0
  1  2  1  0  0  0  0
  1 20  1  0  0  0  0
  1 21  1  0  0  0  0
  1 22  1  0  0  0  0
  2  3  1  0  0  0  0
  2  4  1  0  0  0  0
  2 23  1  0  0  0  0
  3 24  1  0  0  0  0
  3 25  1  0  0  0  0
  3 26  1  0  0  0  0
  4 19  1  0  0  0  0
  4  5  2  0  0  0  0
  5  6  1  0  0  0  0
  6  7  2  0  0  0  0
  7  8  1  0  0  0  0
  7 19  1  0  0  0  0
  8  9  1  0  0  0  0
  9 10  2  0  0  0  0
  9 11  1  0  0  0  0
 11 12  1  0  0  0  0
 11 27  1  0  0  0  0
 12 13  1  0  0  0  0
 12 14  1  0  0  0  0
 12 28  1  0  0  0  0
 13 29  1  0  0  0  0
 13 30  1  0  0  0  0
 13 31  1  0  0  0  0
 14 18  1  0  0  0  0
 14 15  1  0  0  0  0
 14 32  1  0  0  0  0
 15 16  1  0  0  0  0
 15 33  1  0  0  0  0
 15 34  1  0  0  0  0
 16 17  1  0  0  0  0
 16 35  1  0  0  0  0
 16 36  1  0  0  0  0
 17 18  1  0  0  0  0
 17 37  1  0  0  0  0
 17 38  1  0  0  0  0
M  CHG  1   8  -1
M  END
> <s_m_source_file>
AV-unprocessed.smi

> <i_m_source_file_index>
2063

> <i_lp_mmshare_version>
43012

> <i_f3d_flags>
0

> <s_epik_input>
W0NIM11bQ0hdKFtDSDNdKWMxbm5jKHMxKVtOSF1DKD1PKVtOSF1bQ0BIXShbQ0gzXSlbQ0BASF0yW0NIMl1bQ0gyXVtDSDJdTzI=

> <s_epik_cmdline>
J2VwaWtfcHl0aG9uJywgJy1waCcsICc3LjAnLCAnLXRuJywgJzgnLCAnLW1hJywgJzIwMCcsICctbWV0YWxfYmluZGluZycsICctaW1hZScsICc8aW5maWxlLm1hZT4nLCAnLW9tYWUnLCAnPG91dGZpbGUubWFlPic=

> <r_lp_tautomer_probability>
1

> <r_epik_Ionization_Penalty>
4.37022

> <r_epik_Ionization_Penalty_Charging>
4.21437

> <r_epik_Ionization_Penalty_Neutral>
0.15585

> <r_epik_State_Penalty>
4.21389

> <r_epik_Charging_Adjusted_Penalty>
8.42826

> <i_epik_Tot_Q>
-1

> <i_epik_Tot_abs_Q>
1

> <r_epik_Metal_State_Penalty>
0.693772

> <b_epik_Metal_Only>
1

> <s_lp_Force_Field>
OPLS_2005

> <r_lp_Energy>
10.221

> <b_lp_Chiralities_Consistent>
1

> <s_lp_Variant>
AV-unprocessed.smi:2063-7

> <Gold.Version>
5.8.1

> <Gold.Id.Protein>
6NUR|6NUR_protein|mol2

> <Gold.PLP.Fitness>
40.4671

> <Gold.PLP.PLP>
-37.8211

> <Gold.PLP.part.hbond>
-2.6914

> <Gold.PLP.part.metal>
0.0000

> <Gold.PLP.part.buried>
-4.6792

> <Gold.PLP.part.nonpolar>
-30.0496

> <Gold.PLP.part.repulsive>
0.5130

> <Gold.PLP.ligand.clash>
0.0000

> <Gold.PLP.ligand.torsion>
1.4366

> <Gold.PLP.Chemscore.Hbond>
1.8024

> <Gold.PLP.Chemscore.CHOScore>
0.0000

> <Gold.PLP.Chemscore.Metal>
0.0000

> <Gold.Chemscore.Hbonds>
donor molecule, donor type, donor heavy atom, donor atom, acceptor molecule, acceptor atom, score
      P1  H  7989  7998       L1     8  1.00
      P1  H  7997  8009       L1     6  0.84

> <Gold.PLP.Chemscore.Internal.Correction>
0.1119

> <Gold.Rescore>
     Score         DG    S(hbond)    S(metal)    S(lipo)     H(rot)  DE(clash)    DE(int)     intcor
     10.61     -14.37       0.72        0.00      85.90       1.39       0.22       3.55       ----

> <Gold.Chemscore.Fitness>
10.6082

> <Gold.Chemscore.DG>
-14.3724

> <Gold.Chemscore.ZeroCoef>
-5.4800

> <Gold.Chemscore.Hbond>
0.7182

> <Gold.Chemscore.Metal>
0.0000

> <Gold.Chemscore.Lipo>
85.8992

> <Gold.Chemscore.Internal_Hbond>
0.0000

> <Gold.Chemscore.DEClash>
0.2178

> <Gold.Chemscore.DEInternal>
3.5464

> <Gold.Chemscore.Rot>
1.3893

> <Gold.Chemscore.Internal.Correction>
   9.000000E+99

> <Gold.Chemscore.Hbonds>
donor molecule, donor type, donor heavy atom, donor atom, acceptor molecule, acceptor atom, score
      P1  H  7989  7998       L1     8  0.41
      P1  H  7997  8009       L1     6  0.13

> <Gold.Chemscore.Hbond.Weighted>
-2.3989

> <Gold.Chemscore.Metal.Weighted>
-0.0000

> <Gold.Chemscore.Lipo.Weighted>
-10.0502

> <Gold.Chemscore.Internal_Hbond.Weighted>
0.0000

> <Gold.Chemscore.DEClash.Weighted>
0.2178

> <Gold.Chemscore.DEInternal.Weighted>
3.5464

> <Gold.Chemscore.Rot.Weighted>
3.5567

> <Gold.Chemscore.Internal.Correction.Weighted>
   9.000000E+99

> <Gold.Protein.RotatedTorsions>
[ 6907 6896 6895 6894 ] final   -6.02 input  -60.11 | X-H torsion
[ 7974 7965 7964 7962 ] final  -94.46 input  175.53 | X-H torsion
[ 8008 7997 7996 7995 ] final -157.66 input   59.86 | X-H torsion
[ 10167 10162 10161 10158 ] final  178.83 input  -65.29 | X-H torsion
[ 10718 10713 10712 10709 ] final  129.81 input   66.30 | X-H torsion
[ 10763 10752 10751 10750 ] final  156.66 input  -60.55 | X-H torsion
[ 11005 11000 10999 10996 ] final  155.00 input  -57.11 | X-H torsion

> <Gold.Protein.ActiveResidues>
 VAL166  LYS551  ARG553  GLY616  TRP617  ASP618  TYR619  PRO620  LYS621  CYS622 
 ASP623  PHE694  ASN695  SER759  ASP760  ASP761  ALA762  ILE779  LEU786  VAL792 
 PHE793  MET794  SER795  GLU796  ALA797  LYS798  CYS799  TRP800  GLU811  SER814 

> <Gold.Protein.RotatedAtoms>
  151.4722  135.1046  159.9754 H   0  0  0  0  0  0  0  0  0  0  0  0  # atno 6907 bound_to 6896
  152.4812  133.8254  159.7086 H   0  0  0  0  0  0  0  0  0  0  0  0  # atno 6908 bound_to 6896
  150.8885  133.7214  159.2938 H   0  0  0  0  0  0  0  0  0  0  0  0  # atno 6909 bound_to 6896
  145.3730  140.9508  143.2437 H   0  0  0  0  0  0  0  0  0  0  0  0  # atno 7974 bound_to 7965
  155.7358  140.0808  157.2268 H   0  0  0  0  0  0  0  0  0  0  0  0  # atno 8008 bound_to 7997
  154.4027  140.1587  156.2615 H   0  0  0  0  0  0  0  0  0  0  0  0  # atno 8009 bound_to 7997
  155.9067  140.3406  155.6070 H   0  0  0  0  0  0  0  0  0  0  0  0  # atno 8010 bound_to 7997
  139.5310  144.2633  152.0688 H   0  0  0  0  0  0  0  0  0  0  0  0  # atno 10167 bound_to 10162
  157.5120  131.1097  150.9279 H   0  0  0  0  0  0  0  0  0  0  0  0  # atno 10718 bound_to 10713
  154.1879  135.2796  155.3031 H   0  0  0  0  0  0  0  0  0  0  0  0  # atno 10763 bound_to 10752
  154.5952  135.5547  153.7322 H   0  0  0  0  0  0  0  0  0  0  0  0  # atno 10764 bound_to 10752
  153.0120  135.6378  154.2017 H   0  0  0  0  0  0  0  0  0  0  0  0  # atno 10765 bound_to 10752
  140.1541  134.8655  157.2491 H   0  0  0  0  0  0  0  0  0  0  0  0  # atno 11005 bound_to 11000
  144.8563  139.5245  143.6833 LP  0  0  0  0  0  0  0  0  0  0  0  0  # atno 17320 bound_to 7965
  146.2877  139.7050  142.9184 LP  0  0  0  0  0  0  0  0  0  0  0  0  # atno 17321 bound_to 7965
  140.2097  144.4575  150.6392 LP  0  0  0  0  0  0  0  0  0  0  0  0  # atno 17342 bound_to 10162
  140.6488  143.2220  151.6124 LP  0  0  0  0  0  0  0  0  0  0  0  0  # atno 17343 bound_to 10162
  156.9917  130.5566  149.5304 LP  0  0  0  0  0  0  0  0  0  0  0  0  # atno 17370 bound_to 10713
  156.0295  130.5387  150.8496 LP  0  0  0  0  0  0  0  0  0  0  0  0  # atno 17371 bound_to 10713
  140.2569  134.3617  155.7421 LP  0  0  0  0  0  0  0  0  0  0  0  0  # atno 17394 bound_to 11000
  141.2202  133.7348  156.9021 LP  0  0  0  0  0  0  0  0  0  0  0  0  # atno 17395 bound_to 11000

$$$$
