AV-unprocessed.smi:2878|AV-procd|sdf|11046|dock5
  -GOLD-   2272015513D 1   1.00000     0.00000
 Structure written by MMmdl.
 42 43  0  0  0  0  0  0  0  0  1 V2000
  142.6811  136.2749  153.9003 C   0  0  0  0  0  0  0  0  0  0  0  0
  143.5765  136.4470  152.3334 S   0  0  0  0  0  0  0  0  0  0  0  0
  144.5410  134.9015  152.3043 C   0  0  1  0  0  0  0  0  0  0  0  0
  144.9989  134.5784  150.8685 C   0  0  0  0  0  0  0  0  0  0  0  0
  145.7911  133.2629  150.8119 C   0  0  0  0  0  0  0  0  0  0  0  0
  146.9916  133.2947  151.7694 C   0  0  0  0  0  0  0  0  0  0  0  0
  146.5474  133.6133  153.2073 C   0  0  0  0  0  0  0  0  0  0  0  0
  145.7344  134.9228  153.2916 C   0  0  1  0  0  0  0  0  0  0  0  0
  146.5963  136.0807  153.0517 N   0  0  0  0  0  0  0  0  0  0  0  0
  146.3342  137.3357  153.4408 C   0  0  0  0  0  0  0  0  0  0  0  0
  145.3291  137.6700  154.0684 O   0  0  0  0  0  0  0  0  0  0  0  0
  147.3002  138.1843  153.0638 N   0  0  0  0  0  0  0  0  0  0  0  0
  147.2979  139.6188  153.3260 C   0  0  0  0  0  0  0  0  0  0  0  0
  148.1624  139.9781  154.5454 C   0  0  0  0  0  0  0  0  0  0  0  0
  149.4730  139.2658  154.5406 C   0  0  0  0  0  0  0  0  0  0  0  0
  150.6859  139.8135  154.5465 N   0  0  0  0  0  0  0  0  0  0  0  0
  151.4724  138.7035  154.5985 C   0  0  0  0  0  0  0  0  0  0  0  0
  152.9615  138.7680  154.6183 C   0  0  0  0  0  0  0  0  0  0  0  0
  150.8341  137.5406  154.6432 N   0  0  0  0  0  0  0  0  0  0  0  0
  149.4824  137.9129  154.6151 O   0  0  0  0  0  0  0  0  0  0  0  0
  141.9849  137.1045  154.0227 H   0  0  0  0  0  0  0  0  0  0  0  0
  143.3692  136.2831  154.7448 H   0  0  0  0  0  0  0  0  0  0  0  0
  142.1145  135.3440  153.9172 H   0  0  0  0  0  0  0  0  0  0  0  0
  143.8605  134.1073  152.6147 H   0  0  0  0  0  0  0  0  0  0  0  0
  144.1326  134.5096  150.2098 H   0  0  0  0  0  0  0  0  0  0  0  0
  145.6137  135.3919  150.4809 H   0  0  0  0  0  0  0  0  0  0  0  0
  145.1363  132.4312  151.0745 H   0  0  0  0  0  0  0  0  0  0  0  0
  146.1327  133.0775  149.7931 H   0  0  0  0  0  0  0  0  0  0  0  0
  147.5104  132.3358  151.7458 H   0  0  0  0  0  0  0  0  0  0  0  0
  147.7110  134.0414  151.4310 H   0  0  0  0  0  0  0  0  0  0  0  0
  145.9356  132.7908  153.5796 H   0  0  0  0  0  0  0  0  0  0  0  0
  147.4168  133.6628  153.8641 H   0  0  0  0  0  0  0  0  0  0  0  0
  145.3328  134.9930  154.3030 H   0  0  0  0  0  0  0  0  0  0  0  0
  147.4487  135.9105  152.5382 H   0  0  0  0  0  0  0  0  0  0  0  0
  148.0871  137.8143  152.5506 H   0  0  0  0  0  0  0  0  0  0  0  0
  147.6797  140.1250  152.4389 H   0  0  0  0  0  0  0  0  0  0  0  0
  146.2737  139.9688  153.4670 H   0  0  0  0  0  0  0  0  0  0  0  0
  148.3556  141.0511  154.5748 H   0  0  0  0  0  0  0  0  0  0  0  0
  147.6341  139.7302  155.4669 H   0  0  0  0  0  0  0  0  0  0  0  0
  153.3904  137.9036  154.1102 H   0  0  0  0  0  0  0  0  0  0  0  0
  153.3230  138.7816  155.6467 H   0  0  0  0  0  0  0  0  0  0  0  0
  153.3121  139.6696  154.1151 H   0  0  0  0  0  0  0  0  0  0  0  0
  1  2  1  0  0  0  0
  1 21  1  0  0  0  0
  1 22  1  0  0  0  0
  1 23  1  0  0  0  0
  2  3  1  0  0  0  0
  3  8  1  0  0  0  0
  3  4  1  0  0  0  0
  3 24  1  0  0  0  0
  4  5  1  0  0  0  0
  4 25  1  0  0  0  0
  4 26  1  0  0  0  0
  5  6  1  0  0  0  0
  5 27  1  0  0  0  0
  5 28  1  0  0  0  0
  6  7  1  0  0  0  0
  6 29  1  0  0  0  0
  6 30  1  0  0  0  0
  7  8  1  0  0  0  0
  7 31  1  0  0  0  0
  7 32  1  0  0  0  0
  8  9  1  0  0  0  0
  8 33  1  0  0  0  0
  9 10  1  0  0  0  0
  9 34  1  0  0  0  0
 10 11  2  0  0  0  0
 10 12  1  0  0  0  0
 12 13  1  0  0  0  0
 12 35  1  0  0  0  0
 13 14  1  0  0  0  0
 13 36  1  0  0  0  0
 13 37  1  0  0  0  0
 14 15  1  0  0  0  0
 14 38  1  0  0  0  0
 14 39  1  0  0  0  0
 15 20  1  0  0  0  0
 15 16  2  0  0  0  0
 16 17  1  0  0  0  0
 17 18  1  0  0  0  0
 17 19  2  0  0  0  0
 18 40  1  0  0  0  0
 18 41  1  0  0  0  0
 18 42  1  0  0  0  0
 19 20  1  0  0  0  0
M  END
> <s_m_source_file>
AV-unprocessed.smi

> <i_m_source_file_index>
2878

> <i_lp_mmshare_version>
43012

> <i_f3d_flags>
0

> <s_epik_input>
W0NIM11TW0NAQEhdMVtDSDJdW0NIMl1bQ0gyXVtDSDJdW0NASF0xW05IXUMoPU8pW05IXVtDSDJdW0NIMl1jMm5jKFtDSDNdKW5vMg==

> <s_epik_cmdline>
J2VwaWtfcHl0aG9uJywgJy1waCcsICc3LjAnLCAnLXRuJywgJzgnLCAnLW1hJywgJzIwMCcsICctbWV0YWxfYmluZGluZycsICctaW1hZScsICc8aW5maWxlLm1hZT4nLCAnLW9tYWUnLCAnPG91dGZpbGUubWFlPic=

> <r_lp_tautomer_probability>
1

> <r_epik_Ionization_Penalty>
4.9299e-05

> <r_epik_Ionization_Penalty_Charging>
0

> <r_epik_Ionization_Penalty_Neutral>
4.9299e-05

> <r_epik_State_Penalty>
-0

> <r_epik_Charging_Adjusted_Penalty>
0

> <i_epik_Tot_Q>
0

> <i_epik_Tot_abs_Q>
0

> <r_epik_Metal_State_Penalty>
-0

> <b_epik_Metal_Only>
0

> <s_lp_Force_Field>
OPLS_2005

> <r_lp_Energy>
0.0435146

> <b_lp_Chiralities_Consistent>
1

> <s_lp_Variant>
AV-unprocessed.smi:2878-2

> <Gold.Version>
5.8.1

> <Gold.Id.Protein>
6NUR|6NUR_protein|mol2

> <Gold.PLP.Fitness>
38.4230

> <Gold.PLP.PLP>
-30.7574

> <Gold.PLP.part.hbond>
-3.0000

> <Gold.PLP.part.metal>
0.0000

> <Gold.PLP.part.buried>
-6.5204

> <Gold.PLP.part.nonpolar>
-23.1834

> <Gold.PLP.part.repulsive>
0.6102

> <Gold.PLP.ligand.clash>
0.0000

> <Gold.PLP.ligand.torsion>
0.6328

> <Gold.PLP.Chemscore.Hbond>
2.9600

> <Gold.PLP.Chemscore.CHOScore>
0.0000

> <Gold.PLP.Chemscore.Metal>
0.0000

> <Gold.Chemscore.Hbonds>
donor molecule, donor type, donor heavy atom, donor atom, acceptor molecule, acceptor atom, score
      L1  H     9    34       P1  7948  1.00
      L1  H    12    35       P1  7948  0.94
      P1  H  7989  7998       L1    16  1.00

> <Gold.PLP.Chemscore.Internal.Correction>
0.0512

> <Gold.Rescore>
     Score         DG    S(hbond)    S(metal)    S(lipo)     H(rot)  DE(clash)    DE(int)     intcor
     12.81     -16.39       2.88        0.00      56.87       2.09       0.03       3.55       ----

> <Gold.Chemscore.Fitness>
12.8100

> <Gold.Chemscore.DG>
-16.3900

> <Gold.Chemscore.ZeroCoef>
-5.4800

> <Gold.Chemscore.Hbond>
2.8781

> <Gold.Chemscore.Metal>
0.0000

> <Gold.Chemscore.Lipo>
56.8653

> <Gold.Chemscore.Internal_Hbond>
0.0000

> <Gold.Chemscore.DEClash>
0.0342

> <Gold.Chemscore.DEInternal>
3.5457

> <Gold.Chemscore.Rot>
2.0923

> <Gold.Chemscore.Internal.Correction>
   9.000000E+99

> <Gold.Chemscore.Hbonds>
donor molecule, donor type, donor heavy atom, donor atom, acceptor molecule, acceptor atom, score
      L1  H     9    34       P1  7948  0.99
      L1  H    12    35       P1  7948  0.91
      P1  H  7989  7998       L1    16  0.35

> <Gold.Chemscore.Hbond.Weighted>
-9.6130

> <Gold.Chemscore.Metal.Weighted>
-0.0000

> <Gold.Chemscore.Lipo.Weighted>
-6.6532

> <Gold.Chemscore.Internal_Hbond.Weighted>
0.0000

> <Gold.Chemscore.DEClash.Weighted>
0.0342

> <Gold.Chemscore.DEInternal.Weighted>
3.5457

> <Gold.Chemscore.Rot.Weighted>
5.3562

> <Gold.Chemscore.Internal.Correction.Weighted>
   9.000000E+99

> <Gold.Protein.RotatedTorsions>
[ 6907 6896 6895 6894 ] final   30.94 input  -60.11 | X-H torsion
[ 7974 7965 7964 7962 ] final -110.64 input  175.53 | X-H torsion
[ 8008 7997 7996 7995 ] final   67.35 input   59.86 | X-H torsion
[ 10167 10162 10161 10158 ] final -134.56 input  -65.29 | X-H torsion
[ 10718 10713 10712 10709 ] final  -87.37 input   66.30 | X-H torsion
[ 10763 10752 10751 10750 ] final -171.39 input  -60.55 | X-H torsion
[ 11005 11000 10999 10996 ] final  -82.66 input  -57.11 | X-H torsion

> <Gold.Protein.ActiveResidues>
 VAL166  LYS551  ARG553  GLY616  TRP617  ASP618  TYR619  PRO620  LYS621  CYS622 
 ASP623  PHE694  ASN695  SER759  ASP760  ASP761  ALA762  ILE779  LEU786  VAL792 
 PHE793  MET794  SER795  GLU796  ALA797  LYS798  CYS799  TRP800  GLU811  SER814 

> <Gold.Protein.RotatedAtoms>
  152.0531  134.9641  160.0574 H   0  0  0  0  0  0  0  0  0  0  0  0  # atno 6907 bound_to 6896
  152.1034  133.4257  159.4606 H   0  0  0  0  0  0  0  0  0  0  0  0  # atno 6908 bound_to 6896
  150.6840  134.2653  159.4609 H   0  0  0  0  0  0  0  0  0  0  0  0  # atno 6909 bound_to 6896
  145.1658  140.8901  143.3564 H   0  0  0  0  0  0  0  0  0  0  0  0  # atno 7974 bound_to 7965
  155.6915  140.3496  155.4895 H   0  0  0  0  0  0  0  0  0  0  0  0  # atno 8008 bound_to 7997
  155.9520  140.1121  157.0991 H   0  0  0  0  0  0  0  0  0  0  0  0  # atno 8009 bound_to 7997
  154.4124  140.1192  156.5051 H   0  0  0  0  0  0  0  0  0  0  0  0  # atno 8010 bound_to 7997
  139.8867  143.6772  152.2619 H   0  0  0  0  0  0  0  0  0  0  0  0  # atno 10167 bound_to 10162
  155.9986  130.4797  150.4856 H   0  0  0  0  0  0  0  0  0  0  0  0  # atno 10718 bound_to 10713
  154.6310  135.2886  155.0216 H   0  0  0  0  0  0  0  0  0  0  0  0  # atno 10763 bound_to 10752
  154.1377  135.6523  153.4939 H   0  0  0  0  0  0  0  0  0  0  0  0  # atno 10764 bound_to 10752
  153.0280  135.5325  154.7138 H   0  0  0  0  0  0  0  0  0  0  0  0  # atno 10765 bound_to 10752
  141.1662  133.7256  156.8605 H   0  0  0  0  0  0  0  0  0  0  0  0  # atno 11005 bound_to 11000
  145.0283  139.3363  143.6037 LP  0  0  0  0  0  0  0  0  0  0  0  0  # atno 17320 bound_to 7965
  146.3476  139.9611  142.8717 LP  0  0  0  0  0  0  0  0  0  0  0  0  # atno 17321 bound_to 7965
  139.7146  144.7614  151.1055 LP  0  0  0  0  0  0  0  0  0  0  0  0  # atno 17342 bound_to 10162
  140.7734  143.5286  150.9450 LP  0  0  0  0  0  0  0  0  0  0  0  0  # atno 17343 bound_to 10162
  157.2857  131.0616  151.2168 LP  0  0  0  0  0  0  0  0  0  0  0  0  # atno 17370 bound_to 10713
  157.3198  130.6931  149.6263 LP  0  0  0  0  0  0  0  0  0  0  0  0  # atno 17371 bound_to 10713
  140.1852  134.9005  157.2995 LP  0  0  0  0  0  0  0  0  0  0  0  0  # atno 17394 bound_to 11000
  140.2351  134.3862  155.7504 LP  0  0  0  0  0  0  0  0  0  0  0  0  # atno 17395 bound_to 11000

$$$$
