AV-unprocessed.smi:3193|AV-procd|sdf|12201|dock2
  -GOLD-   2272018 33D 1   1.00000     0.00000
 Structure written by MMmdl.
 40 41  0  0  0  0  0  0  0  0  2 V2000
  151.1249  145.4553  159.5462 C   0  0  0  0  0  0  0  0  0  0  0  0
  151.5442  143.9939  159.7930 C   0  0  2  0  0  0  0  0  0  0  0  0
  152.2486  143.8908  161.1629 C   0  0  0  0  0  0  0  0  0  0  0  0
  152.6742  142.4538  161.4893 C   0  0  0  0  0  0  0  0  0  0  0  0
  153.5736  141.8911  160.3845 C   0  0  0  0  0  0  0  0  0  0  0  0
  152.8744  141.9674  159.0204 C   0  0  0  0  0  0  0  0  0  0  0  0
  152.4404  143.4096  158.6626 C   0  0  1  0  0  0  0  0  0  0  0  0
  151.7517  143.4403  157.2789 C   0  0  0  0  0  0  0  0  0  0  0  0
  150.4699  142.7063  157.2859 N   0  3  0  0  0  0  0  0  0  0  0  0
  150.4589  141.5071  156.4263 C   0  0  0  0  0  0  0  0  0  0  0  0
  151.8073  140.7768  156.4805 C   0  0  0  0  0  0  0  0  0  0  0  0
  151.8696  139.7084  155.5039 N   0  0  0  0  0  0  0  0  0  0  0  0
  150.9026  139.3724  154.5655 C   0  0  0  0  0  0  0  0  0  0  0  0
  151.4003  138.3041  153.8540 C   0  0  0  0  0  0  0  0  0  0  0  0
  152.6637  137.9684  154.3355 N   0  0  0  0  0  0  0  0  0  0  0  0
  152.8736  138.8417  155.3116 C   0  0  0  0  0  0  0  0  0  0  0  0
  151.9917  146.0919  159.3665 H   0  0  0  0  0  0  0  0  0  0  0  0
  150.5929  145.8598  160.4081 H   0  0  0  0  0  0  0  0  0  0  0  0
  150.4513  145.5508  158.6956 H   0  0  0  0  0  0  0  0  0  0  0  0
  150.6324  143.3964  159.8462 H   0  0  0  0  0  0  0  0  0  0  0  0
  153.1259  144.5393  161.1756 H   0  0  0  0  0  0  0  0  0  0  0  0
  151.5879  144.2551  161.9507 H   0  0  0  0  0  0  0  0  0  0  0  0
  153.1979  142.4287  162.4456 H   0  0  0  0  0  0  0  0  0  0  0  0
  151.7905  141.8244  161.6025 H   0  0  0  0  0  0  0  0  0  0  0  0
  154.5097  142.4501  160.3508 H   0  0  0  0  0  0  0  0  0  0  0  0
  153.8376  140.8576  160.6111 H   0  0  0  0  0  0  0  0  0  0  0  0
  153.5497  141.5712  158.2620 H   0  0  0  0  0  0  0  0  0  0  0  0
  152.0028  141.3112  159.0256 H   0  0  0  0  0  0  0  0  0  0  0  0
  153.3388  144.0264  158.6025 H   0  0  0  0  0  0  0  0  0  0  0  0
  151.5836  144.4703  156.9611 H   0  0  0  0  0  0  0  0  0  0  0  0
  152.3812  142.9719  156.5239 H   0  0  0  0  0  0  0  0  0  0  0  0
  150.2682  142.4233  158.2343 H   0  0  0  0  0  0  0  0  0  0  0  0
  149.6591  140.8395  156.7503 H   0  0  0  0  0  0  0  0  0  0  0  0
  150.2365  141.8038  155.4001 H   0  0  0  0  0  0  0  0  0  0  0  0
  152.6269  141.4710  156.2894 H   0  0  0  0  0  0  0  0  0  0  0  0
  151.9738  140.3507  157.4710 H   0  0  0  0  0  0  0  0  0  0  0  0
  149.9669  139.9058  154.4815 H   0  0  0  0  0  0  0  0  0  0  0  0
  150.9508  137.7561  153.0388 H   0  0  0  0  0  0  0  0  0  0  0  0
  153.7809  138.8533  155.8980 H   0  0  0  0  0  0  0  0  0  0  0  0
  149.7415  143.3326  156.9737 H   0  0  0  0  0  0  0  0  0  0  0  0
  1  2  1  0  0  0  0
  1 17  1  0  0  0  0
  1 18  1  0  0  0  0
  1 19  1  0  0  0  0
  2  7  1  0  0  0  0
  2  3  1  0  0  0  0
  2 20  1  0  0  0  0
  3  4  1  0  0  0  0
  3 21  1  0  0  0  0
  3 22  1  0  0  0  0
  4  5  1  0  0  0  0
  4 23  1  0  0  0  0
  4 24  1  0  0  0  0
  5  6  1  0  0  0  0
  5 25  1  0  0  0  0
  5 26  1  0  0  0  0
  6  7  1  0  0  0  0
  6 27  1  0  0  0  0
  6 28  1  0  0  0  0
  7  8  1  0  0  0  0
  7 29  1  0  0  0  0
  8  9  1  0  0  0  0
  8 30  1  0  0  0  0
  8 31  1  0  0  0  0
  9 10  1  0  0  0  0
  9 32  1  0  0  0  0
  9 40  1  0  0  0  0
 10 11  1  0  0  0  0
 10 33  1  0  0  0  0
 10 34  1  0  0  0  0
 11 12  1  0  0  0  0
 11 35  1  0  0  0  0
 11 36  1  0  0  0  0
 12 16  1  0  0  0  0
 12 13  1  0  0  0  0
 13 14  2  0  0  0  0
 13 37  1  0  0  0  0
 14 15  1  0  0  0  0
 14 38  1  0  0  0  0
 15 16  2  0  0  0  0
 16 39  1  0  0  0  0
M  CHG  1   9   1
M  END
> <s_m_source_file>
AV-unprocessed.smi

> <i_m_source_file_index>
3193

> <i_lp_mmshare_version>
43012

> <i_f3d_flags>
0

> <s_epik_input>
W0NIM11bQ0BASF0xW0NIMl1bQ0gyXVtDSDJdW0NIMl1bQ0BIXTFbQ0gyXVtOSF1bQ0gyXVtDSDJdbjJbY0hdW2NIXW5bY0hdMg==

> <s_epik_cmdline>
J2VwaWtfcHl0aG9uJywgJy1waCcsICc3LjAnLCAnLXRuJywgJzgnLCAnLW1hJywgJzIwMCcsICctbWV0YWxfYmluZGluZycsICctaW1hZScsICc8aW5maWxlLm1hZT4nLCAnLW9tYWUnLCAnPG91dGZpbGUubWFlPic=

> <r_lp_tautomer_probability>
1

> <r_epik_Ionization_Penalty>
0.0503046

> <r_epik_Ionization_Penalty_Charging>
0.0503046

> <r_epik_Ionization_Penalty_Neutral>
0

> <r_epik_State_Penalty>
0.0981804

> <r_epik_Charging_Adjusted_Penalty>
0.148485

> <i_epik_Tot_Q>
1

> <i_epik_Tot_abs_Q>
1

> <r_epik_Metal_State_Penalty>
0.000105854

> <b_epik_Metal_Only>
0

> <s_lp_Force_Field>
OPLS_2005

> <r_lp_Energy>
18.7855

> <b_lp_Chiralities_Consistent>
1

> <s_lp_Variant>
AV-unprocessed.smi:3193-1

> <Gold.Version>
5.8.1

> <Gold.Id.Protein>
6NUR|6NUR_protein|mol2

> <Gold.PLP.Fitness>
55.0426

> <Gold.PLP.PLP>
-45.4364

> <Gold.PLP.part.hbond>
-2.0000

> <Gold.PLP.part.metal>
0.0000

> <Gold.PLP.part.buried>
-4.6750

> <Gold.PLP.part.nonpolar>
-38.3649

> <Gold.PLP.part.repulsive>
0.1042

> <Gold.PLP.ligand.clash>
0.0000

> <Gold.PLP.ligand.torsion>
0.5163

> <Gold.PLP.Chemscore.Hbond>
2.3354

> <Gold.PLP.Chemscore.CHOScore>
1.1789

> <Gold.PLP.Chemscore.Metal>
0.0000

> <Gold.Chemscore.Hbonds>
donor molecule, donor type, donor heavy atom, donor atom, acceptor molecule, acceptor atom, score
      L1  H     9    40       P1  8028  1.72
      P1  H 10752 10765       L1    15  0.17
      L1  C    14    38       P1  7948  0.10
      L1  C    14    38       P1  7949  0.99

> <Gold.PLP.Chemscore.Internal.Correction>
0.0961

> <Gold.Rescore>
     Score         DG    S(hbond)    S(metal)    S(lipo)     H(rot)  DE(clash)    DE(int)     intcor
     17.68     -20.41       1.68        0.00     120.97       1.89       1.32       1.40       ----

> <Gold.Chemscore.Fitness>
17.6787

> <Gold.Chemscore.DG>
-20.4053

> <Gold.Chemscore.ZeroCoef>
-5.4800

> <Gold.Chemscore.Hbond>
1.6794

> <Gold.Chemscore.Metal>
0.0000

> <Gold.Chemscore.Lipo>
120.9668

> <Gold.Chemscore.Internal_Hbond>
0.0000

> <Gold.Chemscore.DEClash>
1.3242

> <Gold.Chemscore.DEInternal>
1.4025

> <Gold.Chemscore.Rot>
1.8895

> <Gold.Chemscore.Internal.Correction>
   9.000000E+99

> <Gold.Chemscore.Hbonds>
donor molecule, donor type, donor heavy atom, donor atom, acceptor molecule, acceptor atom, score
      L1  H     9    40       P1  8028  0.81
      P1  H 10752 10765       L1    15  0.14

> <Gold.Chemscore.Hbond.Weighted>
-5.6093

> <Gold.Chemscore.Metal.Weighted>
-0.0000

> <Gold.Chemscore.Lipo.Weighted>
-14.1531

> <Gold.Chemscore.Internal_Hbond.Weighted>
0.0000

> <Gold.Chemscore.DEClash.Weighted>
1.3242

> <Gold.Chemscore.DEInternal.Weighted>
1.4025

> <Gold.Chemscore.Rot.Weighted>
4.8371

> <Gold.Chemscore.Internal.Correction.Weighted>
   9.000000E+99

> <Gold.Protein.RotatedTorsions>
[ 6907 6896 6895 6894 ] final -154.01 input  -60.11 | X-H torsion
[ 7974 7965 7964 7962 ] final  -82.94 input  175.53 | X-H torsion
[ 8008 7997 7996 7995 ] final  161.46 input   59.86 | X-H torsion
[ 10167 10162 10161 10158 ] final -115.13 input  -65.29 | X-H torsion
[ 10718 10713 10712 10709 ] final  -61.77 input   66.30 | X-H torsion
[ 10763 10752 10751 10750 ] final  158.92 input  -60.55 | X-H torsion
[ 11005 11000 10999 10996 ] final  105.66 input  -57.11 | X-H torsion

> <Gold.Protein.ActiveResidues>
 VAL166  LYS551  ARG553  GLY616  TRP617  ASP618  TYR619  PRO620  LYS621  CYS622 
 ASP623  PHE694  ASN695  SER759  ASP760  ASP761  ALA762  ILE779  LEU786  VAL792 
 PHE793  MET794  SER795  GLU796  ALA797  LYS798  CYS799  TRP800  GLU811  SER814 

> <Gold.Protein.RotatedAtoms>
  151.2510  133.4350  159.2611 H   0  0  0  0  0  0  0  0  0  0  0  0  # atno 6907 bound_to 6896
  151.0617  134.9741  159.8274 H   0  0  0  0  0  0  0  0  0  0  0  0  # atno 6908 bound_to 6896
  152.5399  134.2460  159.8933 H   0  0  0  0  0  0  0  0  0  0  0  0  # atno 6909 bound_to 6896
  145.5266  140.9526  143.1626 H   0  0  0  0  0  0  0  0  0  0  0  0  # atno 7974 bound_to 7965
  156.2102  140.1777  156.7712 H   0  0  0  0  0  0  0  0  0  0  0  0  # atno 8008 bound_to 7997
  154.5711  140.0682  156.8995 H   0  0  0  0  0  0  0  0  0  0  0  0  # atno 8009 bound_to 7997
  155.2671  140.3340  155.4270 H   0  0  0  0  0  0  0  0  0  0  0  0  # atno 8010 bound_to 7997
  140.0935  143.4678  152.1856 H   0  0  0  0  0  0  0  0  0  0  0  0  # atno 10167 bound_to 10162
  156.0899  130.4202  150.1040 H   0  0  0  0  0  0  0  0  0  0  0  0  # atno 10718 bound_to 10713
  154.2237  135.2781  155.2915 H   0  0  0  0  0  0  0  0  0  0  0  0  # atno 10763 bound_to 10752
  154.5681  135.5627  153.7073 H   0  0  0  0  0  0  0  0  0  0  0  0  # atno 10764 bound_to 10752
  153.0036  135.6314  154.2377 H   0  0  0  0  0  0  0  0  0  0  0  0  # atno 10765 bound_to 10752
  139.8804  134.9343  156.5547 H   0  0  0  0  0  0  0  0  0  0  0  0  # atno 11005 bound_to 11000
  144.7648  139.6871  143.7219 LP  0  0  0  0  0  0  0  0  0  0  0  0  # atno 17320 bound_to 7965
  146.2072  139.5403  142.9705 LP  0  0  0  0  0  0  0  0  0  0  0  0  # atno 17321 bound_to 7965
  139.5711  144.7463  151.3888 LP  0  0  0  0  0  0  0  0  0  0  0  0  # atno 17342 bound_to 10162
  140.7016  143.7617  150.7412 LP  0  0  0  0  0  0  0  0  0  0  0  0  # atno 17343 bound_to 10162
  156.9053  130.9634  151.3571 LP  0  0  0  0  0  0  0  0  0  0  0  0  # atno 17370 bound_to 10713
  157.6046  130.8537  149.8855 LP  0  0  0  0  0  0  0  0  0  0  0  0  # atno 17371 bound_to 10713
  140.8214  133.8351  155.8899 LP  0  0  0  0  0  0  0  0  0  0  0  0  # atno 17394 bound_to 11000
  140.9415  134.1895  157.4794 LP  0  0  0  0  0  0  0  0  0  0  0  0  # atno 17395 bound_to 11000

$$$$
