AV-unprocessed.smi:287|AV-procd|sdf|2180|dock6
  -GOLD-   2262021553D 1   1.00000     0.00000
 Structure written by MMmdl.
 55 58  0  0  0  0  0  0  0  0  1 V2000
  151.5909  143.5437  157.9841 C   0  0  0  0  0  0  0  0  0  0  0  0
  151.0920  142.2991  157.3338 C   0  0  0  0  0  0  0  0  0  0  0  0
  150.5372  142.0267  156.1176 C   0  0  0  0  0  0  0  0  0  0  0  0
  150.2661  140.6265  156.0763 C   0  0  0  0  0  0  0  0  0  0  0  0
  149.6402  139.8715  154.9112 C   0  0  2  0  0  0  0  0  0  0  0  0
  150.6005  138.7717  154.4291 C   0  0  0  0  0  0  0  0  0  0  0  0
  149.4139  140.6926  153.7817 O   0  0  0  0  0  0  0  0  0  0  0  0
  148.2682  139.2582  155.2734 C   0  0  0  0  0  0  0  0  0  0  0  0
  147.5977  138.6499  154.1288 N   0  0  0  0  0  0  0  0  0  0  0  0
  147.2893  137.3364  154.1420 C   0  0  0  0  0  0  0  0  0  0  0  0
  147.7335  136.5222  155.1353 N   0  0  0  0  0  0  0  0  0  0  0  0
  147.4125  135.2244  155.1283 C   0  0  0  0  0  0  0  0  0  0  0  0
  146.6733  134.5513  154.2431 N   0  0  0  0  0  0  0  0  0  0  0  0
  146.2282  135.3676  153.2444 C   0  0  0  0  0  0  0  0  0  0  0  0
  146.4902  136.7595  153.1218 C   0  0  0  0  0  0  0  0  0  0  0  0
  145.8732  137.2549  151.9802 N   0  0  0  0  0  0  0  0  0  0  0  0
  145.2826  136.2112  151.4615 C   0  0  0  0  0  0  0  0  0  0  0  0
  145.4514  135.0320  152.1577 N   0  0  0  0  0  0  0  0  0  0  0  0
  144.9212  133.6618  151.8583 C   0  0  1  0  0  0  0  0  0  0  0  0
  144.0793  133.7499  150.7472 O   0  0  0  0  0  0  0  0  0  0  0  0
  144.7592  133.2780  149.5890 C   0  0  2  0  0  0  0  0  0  0  0  0
  143.7407  132.8795  148.5106 C   0  0  0  0  0  0  0  0  0  0  0  0
  142.7068  132.1107  149.0872 O   0  0  0  0  0  0  0  0  0  0  0  0
  145.5416  132.0994  150.1675 C   0  0  1  0  0  0  0  0  0  0  0  0
  146.5805  131.6550  149.3148 O   0  0  0  0  0  0  0  0  0  0  0  0
  146.0406  132.6534  151.5005 C   0  0  1  0  0  0  0  0  0  0  0  0
  147.3310  133.2369  151.3898 O   0  0  0  0  0  0  0  0  0  0  0  0
  150.6783  140.1538  157.2992 C   0  0  0  0  0  0  0  0  0  0  0  0
  150.6847  138.8060  157.9426 C   0  0  0  0  0  0  0  0  0  0  0  0
  151.1827  141.1608  158.0659 O   0  0  0  0  0  0  0  0  0  0  0  0
  144.3478  133.3884  152.7449 H   0  0  0  0  0  0  0  0  0  0  0  0
  145.4521  134.0370  149.2198 H   0  0  0  0  0  0  0  0  0  0  0  0
  144.8603  131.2688  150.3584 H   0  0  0  0  0  0  0  0  0  0  0  0
  146.0810  131.8720  152.2599 H   0  0  0  0  0  0  0  0  0  0  0  0
  151.6155  144.3706  157.2741 H   0  0  0  0  0  0  0  0  0  0  0  0
  152.6001  143.4012  158.3712 H   0  0  0  0  0  0  0  0  0  0  0  0
  150.9460  143.8304  158.8148 H   0  0  0  0  0  0  0  0  0  0  0  0
  150.3490  142.7512  155.3391 H   0  0  0  0  0  0  0  0  0  0  0  0
  150.8123  138.0557  155.2243 H   0  0  0  0  0  0  0  0  0  0  0  0
  151.5538  139.1918  154.1049 H   0  0  0  0  0  0  0  0  0  0  0  0
  150.1825  138.2135  153.5904 H   0  0  0  0  0  0  0  0  0  0  0  0
  149.2292  140.1370  153.0401 H   0  0  0  0  0  0  0  0  0  0  0  0
  148.3669  138.5364  156.0859 H   0  0  0  0  0  0  0  0  0  0  0  0
  147.6172  140.0532  155.6401 H   0  0  0  0  0  0  0  0  0  0  0  0
  147.3547  139.2734  153.3719 H   0  0  0  0  0  0  0  0  0  0  0  0
  147.8045  134.6420  155.9489 H   0  0  0  0  0  0  0  0  0  0  0  0
  144.7040  136.2813  150.5520 H   0  0  0  0  0  0  0  0  0  0  0  0
  143.2833  133.7698  148.0783 H   0  0  0  0  0  0  0  0  0  0  0  0
  144.2155  132.3307  147.6967 H   0  0  0  0  0  0  0  0  0  0  0  0
  141.9775  132.6811  149.2765 H   0  0  0  0  0  0  0  0  0  0  0  0
  147.3594  131.5256  149.8342 H   0  0  0  0  0  0  0  0  0  0  0  0
  147.8874  132.6409  150.9119 H   0  0  0  0  0  0  0  0  0  0  0  0
  149.6813  138.3807  157.9581 H   0  0  0  0  0  0  0  0  0  0  0  0
  151.0413  138.8604  158.9714 H   0  0  0  0  0  0  0  0  0  0  0  0
  151.3351  138.1218  157.3980 H   0  0  0  0  0  0  0  0  0  0  0  0
  1  2  1  0  0  0  0
  1 35  1  0  0  0  0
  1 36  1  0  0  0  0
  1 37  1  0  0  0  0
  2 30  1  0  0  0  0
  2  3  2  0  0  0  0
  3  4  1  0  0  0  0
  3 38  1  0  0  0  0
  4  5  1  0  0  0  0
  4 28  2  0  0  0  0
  5  6  1  0  0  0  0
  5  7  1  0  0  0  0
  5  8  1  0  0  0  0
  6 39  1  0  0  0  0
  6 40  1  0  0  0  0
  6 41  1  0  0  0  0
  7 42  1  0  0  0  0
  8  9  1  0  0  0  0
  8 43  1  0  0  0  0
  8 44  1  0  0  0  0
  9 10  1  0  0  0  0
  9 45  1  0  0  0  0
 10 15  1  0  0  0  0
 10 11  2  0  0  0  0
 11 12  1  0  0  0  0
 12 13  2  0  0  0  0
 12 46  1  0  0  0  0
 13 14  1  0  0  0  0
 14 18  1  0  0  0  0
 14 15  2  0  0  0  0
 15 16  1  0  0  0  0
 16 17  2  0  0  0  0
 17 18  1  0  0  0  0
 17 47  1  0  0  0  0
 18 19  1  0  0  0  0
 19 31  1  0  0  0  0
 19 26  1  0  0  0  0
 19 20  1  0  0  0  0
 20 21  1  0  0  0  0
 21 32  1  0  0  0  0
 21 22  1  0  0  0  0
 21 24  1  0  0  0  0
 22 23  1  0  0  0  0
 22 48  1  0  0  0  0
 22 49  1  0  0  0  0
 23 50  1  0  0  0  0
 24 33  1  0  0  0  0
 24 25  1  0  0  0  0
 24 26  1  0  0  0  0
 25 51  1  0  0  0  0
 26 34  1  0  0  0  0
 26 27  1  0  0  0  0
 27 52  1  0  0  0  0
 28 29  1  0  0  0  0
 28 30  1  0  0  0  0
 29 53  1  0  0  0  0
 29 54  1  0  0  0  0
 29 55  1  0  0  0  0
M  END
> <s_m_source_file>
AV-unprocessed.smi

> <i_m_source_file_index>
287

> <i_lp_mmshare_version>
43012

> <i_f3d_flags>
0

> <s_epik_input>
W0NIM11jMVtjSF1jKGMobzEpW0NIM10pW0NAQF0oW0NIM10pKFtPSF0pW0NIMl1bTkhdYyhuW2NIXW4yKWMoYzIzKW5bY0hdbjNbQ0BASF00T1tDQEhdKFtDSDJdW09IXSlbQ0BASF0oW09IXSlbQ0BIXTRbT0hd

> <s_epik_cmdline>
J2VwaWtfcHl0aG9uJywgJy1waCcsICc3LjAnLCAnLXRuJywgJzgnLCAnLW1hJywgJzIwMCcsICctbWV0YWxfYmluZGluZycsICctaW1hZScsICc8aW5maWxlLm1hZT4nLCAnLW9tYWUnLCAnPG91dGZpbGUubWFlPic=

> <r_lp_tautomer_probability>
1

> <r_epik_Ionization_Penalty>
0.000992612

> <r_epik_Ionization_Penalty_Charging>
0

> <r_epik_Ionization_Penalty_Neutral>
0.000992612

> <r_epik_State_Penalty>
-0

> <r_epik_Charging_Adjusted_Penalty>
0

> <i_epik_Tot_Q>
0

> <i_epik_Tot_abs_Q>
0

> <r_epik_Metal_State_Penalty>
-0

> <b_epik_Metal_Only>
0

> <s_epik_Chemistry_Notes>
This compound contains an acetal/aminal-like group ( X-CH(R)-Y where X, Y are N, S, or O) that may be acid/base labile, releasing an aldehyde.

> <s_lp_Force_Field>
OPLS_2005

> <r_lp_Energy>
46.7929

> <b_lp_Chiralities_Consistent>
1

> <s_lp_Variant>
AV-unprocessed.smi:287-4

> <Gold.Version>
5.8.1

> <Gold.Id.Protein>
6NUR|6NUR_protein|mol2

> <Gold.PLP.Fitness>
60.5882

> <Gold.PLP.PLP>
-43.8478

> <Gold.PLP.part.hbond>
-7.2934

> <Gold.PLP.part.metal>
0.0000

> <Gold.PLP.part.buried>
-1.7255

> <Gold.PLP.part.nonpolar>
-34.4622

> <Gold.PLP.part.repulsive>
0.6058

> <Gold.PLP.ligand.clash>
0.0000

> <Gold.PLP.ligand.torsion>
0.2152

> <Gold.PLP.Chemscore.Hbond>
5.0261

> <Gold.PLP.Chemscore.CHOScore>
0.6369

> <Gold.PLP.Chemscore.Metal>
0.0000

> <Gold.Chemscore.Hbonds>
donor molecule, donor type, donor heavy atom, donor atom, acceptor molecule, acceptor atom, score
      L1  H     7    42       P1  7957  0.78
      L1  H    23    50       P1 10186  1.00
      L1  H    25    51       P1 10747  1.00
      L1  H    27    52       P1 10747  0.63
      P1  H  7989  7998       L1     7  0.13
      P1  H  8011  8017       L1     7  0.17
      P1  H 10785 10796       L1    23  0.94
      L1  C    17    47       P1 10171  0.75

> <Gold.PLP.Chemscore.Internal.Correction>
0.1819

> <Gold.Rescore>
     Score         DG    S(hbond)    S(metal)    S(lipo)     H(rot)  DE(clash)    DE(int)     intcor
     13.98     -18.30       4.40        0.00      99.33       5.27       3.20       1.12       ----

> <Gold.Chemscore.Fitness>
13.9794

> <Gold.Chemscore.DG>
-18.3039

> <Gold.Chemscore.ZeroCoef>
-5.4800

> <Gold.Chemscore.Hbond>
4.3972

> <Gold.Chemscore.Metal>
0.0000

> <Gold.Chemscore.Lipo>
99.3261

> <Gold.Chemscore.Internal_Hbond>
0.0000

> <Gold.Chemscore.DEClash>
3.2026

> <Gold.Chemscore.DEInternal>
1.1220

> <Gold.Chemscore.Rot>
5.2672

> <Gold.Chemscore.Internal.Correction>
   9.000000E+99

> <Gold.Chemscore.Hbonds>
donor molecule, donor type, donor heavy atom, donor atom, acceptor molecule, acceptor atom, score
      L1  H     7    42       P1  7957  0.77
      L1  H    23    50       P1 10186  0.96
      L1  H    25    51       P1 10747  0.99
      L1  H    27    52       P1 10747  0.65
      P1  H  8011  8017       L1     7  0.01
      P1  H 10785 10796       L1    23  0.50

> <Gold.Chemscore.Hbond.Weighted>
-14.6867

> <Gold.Chemscore.Metal.Weighted>
-0.0000

> <Gold.Chemscore.Lipo.Weighted>
-11.6212

> <Gold.Chemscore.Internal_Hbond.Weighted>
0.0000

> <Gold.Chemscore.DEClash.Weighted>
3.2026

> <Gold.Chemscore.DEInternal.Weighted>
1.1220

> <Gold.Chemscore.Rot.Weighted>
13.4839

> <Gold.Chemscore.Internal.Correction.Weighted>
   9.000000E+99

> <Gold.Protein.RotatedTorsions>
[ 6907 6896 6895 6894 ] final  158.81 input  -60.11 | X-H torsion
[ 7974 7965 7964 7962 ] final   12.03 input  175.53 | X-H torsion
[ 8008 7997 7996 7995 ] final  167.73 input   59.86 | X-H torsion
[ 10167 10162 10161 10158 ] final   17.23 input  -65.29 | X-H torsion
[ 10718 10713 10712 10709 ] final  133.10 input   66.30 | X-H torsion
[ 10763 10752 10751 10750 ] final -103.68 input  -60.55 | X-H torsion
[ 11005 11000 10999 10996 ] final -129.88 input  -57.11 | X-H torsion

> <Gold.Protein.ActiveResidues>
 VAL166  LYS551  ARG553  GLY616  TRP617  ASP618  TYR619  PRO620  LYS621  CYS622 
 ASP623  PHE694  ASN695  SER759  ASP760  ASP761  ALA762  ILE779  LEU786  VAL792 
 PHE793  MET794  SER795  GLU796  ALA797  LYS798  CYS799  TRP800  GLU811  SER814 

> <Gold.Protein.RotatedAtoms>
  151.9949  133.3804  159.4158 H   0  0  0  0  0  0  0  0  0  0  0  0  # atno 6907 bound_to 6896
  150.6917  134.3896  159.5080 H   0  0  0  0  0  0  0  0  0  0  0  0  # atno 6908 bound_to 6896
  152.1635  134.8892  160.0590 H   0  0  0  0  0  0  0  0  0  0  0  0  # atno 6909 bound_to 6896
  146.2359  139.9398  142.8485 H   0  0  0  0  0  0  0  0  0  0  0  0  # atno 7974 bound_to 7965
  156.1609  140.1609  156.8614 H   0  0  0  0  0  0  0  0  0  0  0  0  # atno 8008 bound_to 7997
  154.5159  140.0789  156.8116 H   0  0  0  0  0  0  0  0  0  0  0  0  # atno 8009 bound_to 7997
  155.3710  140.3400  155.4245 H   0  0  0  0  0  0  0  0  0  0  0  0  # atno 8010 bound_to 7997
  140.5741  143.9106  150.6736 H   0  0  0  0  0  0  0  0  0  0  0  0  # atno 10167 bound_to 10162
  157.4806  131.1085  150.9686 H   0  0  0  0  0  0  0  0  0  0  0  0  # atno 10718 bound_to 10713
  154.7825  135.4814  153.9874 H   0  0  0  0  0  0  0  0  0  0  0  0  # atno 10763 bound_to 10752
  153.1513  135.6791  153.8885 H   0  0  0  0  0  0  0  0  0  0  0  0  # atno 10764 bound_to 10752
  153.8528  135.3165  155.3411 H   0  0  0  0  0  0  0  0  0  0  0  0  # atno 10765 bound_to 10752
  140.9394  134.1213  157.4164 H   0  0  0  0  0  0  0  0  0  0  0  0  # atno 11005 bound_to 11000
  145.1964  140.9835  143.4181 LP  0  0  0  0  0  0  0  0  0  0  0  0  # atno 17320 bound_to 7965
  144.9812  139.3781  143.6261 LP  0  0  0  0  0  0  0  0  0  0  0  0  # atno 17321 bound_to 7965
  140.2589  143.3538  152.1340 LP  0  0  0  0  0  0  0  0  0  0  0  0  # atno 17342 bound_to 10162
  139.5133  144.6930  151.5708 LP  0  0  0  0  0  0  0  0  0  0  0  0  # atno 17343 bound_to 10162
  157.0420  130.5753  149.5357 LP  0  0  0  0  0  0  0  0  0  0  0  0  # atno 17370 bound_to 10713
  156.0120  130.5212  150.8017 LP  0  0  0  0  0  0  0  0  0  0  0  0  # atno 17371 bound_to 10713
  139.8816  135.0031  156.6170 LP  0  0  0  0  0  0  0  0  0  0  0  0  # atno 17394 bound_to 11000
  140.7755  133.8703  155.8525 LP  0  0  0  0  0  0  0  0  0  0  0  0  # atno 17395 bound_to 11000

$$$$
