AV-unprocessed.smi:1682|AV-procd|sdf|6746|dock10
  -GOLD-   22720 7503D 1   1.00000     0.00000
 Structure written by MMmdl.
 39 40  0  0  0  0  0  0  0  0  2 V2000
  147.9505  138.8545  152.9818 O   0  0  0  0  0  0  0  0  0  0  0  0
  146.8975  139.4431  153.2283 C   0  0  0  0  0  0  0  0  0  0  0  0
  145.7087  138.8246  153.2977 N   0  0  0  0  0  0  0  0  0  0  0  0
  145.4934  137.3924  153.1097 C   0  0  0  0  0  0  0  0  0  0  0  0
  145.9304  136.8895  151.7182 C   0  0  0  0  0  0  0  0  0  0  0  0
  146.1173  135.3839  151.6435 C   0  0  0  0  0  0  0  0  0  0  0  0
  145.0318  134.5005  151.4537 C   0  0  0  0  0  0  0  0  0  0  0  0
  145.2755  133.1133  151.3852 C   0  0  0  0  0  0  0  0  0  0  0  0
  146.5976  132.6383  151.5106 C   0  0  0  0  0  0  0  0  0  0  0  0
  147.6437  133.5642  151.7008 C   0  0  0  0  0  0  0  0  0  0  0  0
  147.3699  134.8862  151.7587 N   0  3  0  0  0  0  0  0  0  0  0  0
  146.8986  140.9562  153.4954 C   0  0  1  0  0  0  0  0  0  0  0  0
  146.3623  141.2728  154.9051 C   0  0  0  0  0  0  0  0  0  0  0  0
  147.5700  141.8217  155.6450 C   0  0  0  0  0  0  0  0  0  0  0  0
  147.5521  142.0771  156.8478 O   0  0  0  0  0  0  0  0  0  0  0  0
  148.6149  141.9624  154.8228 N   0  0  0  0  0  0  0  0  0  0  0  0
  149.9494  142.4347  155.1892 C   0  0  0  0  0  0  0  0  0  0  0  0
  150.9455  141.2805  155.4035 C   0  0  0  0  0  0  0  0  0  0  0  0
  151.0369  140.5116  154.3187 F   0  0  0  0  0  0  0  0  0  0  0  0
  152.1493  141.7896  155.6616 F   0  0  0  0  0  0  0  0  0  0  0  0
  150.5705  140.5316  156.4406 F   0  0  0  0  0  0  0  0  0  0  0  0
  148.3161  141.5688  153.4552 C   0  0  0  0  0  0  0  0  0  0  0  0
  144.8941  139.3866  153.4998 H   0  0  0  0  0  0  0  0  0  0  0  0
  146.0683  136.8752  153.8782 H   0  0  0  0  0  0  0  0  0  0  0  0
  144.4462  137.1452  153.2907 H   0  0  0  0  0  0  0  0  0  0  0  0
  145.1945  137.1924  150.9724 H   0  0  0  0  0  0  0  0  0  0  0  0
  146.8638  137.3725  151.4265 H   0  0  0  0  0  0  0  0  0  0  0  0
  144.0248  134.8805  151.3570 H   0  0  0  0  0  0  0  0  0  0  0  0
  144.4582  132.4222  151.2387 H   0  0  0  0  0  0  0  0  0  0  0  0
  146.8056  131.5792  151.4625 H   0  0  0  0  0  0  0  0  0  0  0  0
  148.6831  133.2895  151.8077 H   0  0  0  0  0  0  0  0  0  0  0  0
  146.2740  141.4485  152.7478 H   0  0  0  0  0  0  0  0  0  0  0  0
  145.5822  142.0337  154.8681 H   0  0  0  0  0  0  0  0  0  0  0  0
  145.9599  140.4038  155.4284 H   0  0  0  0  0  0  0  0  0  0  0  0
  150.3214  143.1096  154.4167 H   0  0  0  0  0  0  0  0  0  0  0  0
  149.8790  143.0295  156.1010 H   0  0  0  0  0  0  0  0  0  0  0  0
  149.0713  140.8747  153.0821 H   0  0  0  0  0  0  0  0  0  0  0  0
  148.3370  142.4503  152.8132 H   0  0  0  0  0  0  0  0  0  0  0  0
  148.1426  135.5380  151.8970 H   0  0  0  0  0  0  0  0  0  0  0  0
  1  2  2  0  0  0  0
  2  3  1  0  0  0  0
  2 12  1  0  0  0  0
  3  4  1  0  0  0  0
  3 23  1  0  0  0  0
  4  5  1  0  0  0  0
  4 24  1  0  0  0  0
  4 25  1  0  0  0  0
  5  6  1  0  0  0  0
  5 26  1  0  0  0  0
  5 27  1  0  0  0  0
  6 11  1  0  0  0  0
  6  7  2  0  0  0  0
  7  8  1  0  0  0  0
  7 28  1  0  0  0  0
  8  9  2  0  0  0  0
  8 29  1  0  0  0  0
  9 10  1  0  0  0  0
  9 30  1  0  0  0  0
 10 11  2  0  0  0  0
 10 31  1  0  0  0  0
 11 39  1  0  0  0  0
 12 22  1  0  0  0  0
 12 13  1  0  0  0  0
 12 32  1  0  0  0  0
 13 14  1  0  0  0  0
 13 33  1  0  0  0  0
 13 34  1  0  0  0  0
 14 15  2  0  0  0  0
 14 16  1  0  0  0  0
 16 17  1  0  0  0  0
 16 22  1  0  0  0  0
 17 18  1  0  0  0  0
 17 35  1  0  0  0  0
 17 36  1  0  0  0  0
 18 19  1  0  0  0  0
 18 20  1  0  0  0  0
 18 21  1  0  0  0  0
 22 37  1  0  0  0  0
 22 38  1  0  0  0  0
M  CHG  1  11   1
M  END
> <s_m_source_file>
AV-unprocessed.smi

> <i_m_source_file_index>
1682

> <i_lp_mmshare_version>
43012

> <i_f3d_flags>
0

> <s_epik_input>
RkMoRikoRilbQ0gyXU4oW0NIMl0xKUMoPU8pW0NIMl1bQ0BIXTFDKD1PKVtOSF1bQ0gyXVtDSDJdYzJbY0hdW2NIXVtjSF1bY0hdbjI=

> <s_epik_cmdline>
J2VwaWtfcHl0aG9uJywgJy1waCcsICc3LjAnLCAnLXRuJywgJzgnLCAnLW1hJywgJzIwMCcsICctbWV0YWxfYmluZGluZycsICctaW1hZScsICc8aW5maWxlLm1hZT4nLCAnLW9tYWUnLCAnPG91dGZpbGUubWFlPic=

> <r_epik_Ionization_Penalty>
1.88249

> <r_epik_Ionization_Penalty_Charging>
1.88249

> <r_epik_Ionization_Penalty_Neutral>
2.8664e-08

> <r_epik_State_Penalty>
2.00238

> <r_epik_Charging_Adjusted_Penalty>
3.88487

> <i_epik_Tot_Q>
1

> <i_epik_Tot_abs_Q>
1

> <r_epik_Metal_State_Penalty>
2.02677

> <b_epik_Metal_Only>
0

> <s_lp_Force_Field>
OPLS_2005

> <r_lp_Energy>
19.2524

> <b_lp_Chiralities_Consistent>
1

> <s_lp_Variant>
AV-unprocessed.smi:1682-4

> <Gold.Version>
5.8.1

> <Gold.Id.Protein>
6NUR|6NUR_protein|mol2

> <Gold.PLP.Fitness>
43.3214

> <Gold.PLP.PLP>
-35.6056

> <Gold.PLP.part.hbond>
-2.0000

> <Gold.PLP.part.metal>
0.0000

> <Gold.PLP.part.buried>
-1.2630

> <Gold.PLP.part.nonpolar>
-35.5865

> <Gold.PLP.part.repulsive>
2.9389

> <Gold.PLP.ligand.clash>
0.0000

> <Gold.PLP.ligand.torsion>
0.6958

> <Gold.PLP.Chemscore.Hbond>
3.0000

> <Gold.PLP.Chemscore.CHOScore>
0.0000

> <Gold.PLP.Chemscore.Metal>
0.0000

> <Gold.Chemscore.Hbonds>
donor molecule, donor type, donor heavy atom, donor atom, acceptor molecule, acceptor atom, score
      L1  H     3    23       P1 10175  0.72

> <Gold.PLP.Chemscore.Internal.Correction>
0.1075

> <Gold.Rescore>
     Score         DG    S(hbond)    S(metal)    S(lipo)     H(rot)  DE(clash)    DE(int)     intcor
     11.78     -14.35       1.95        0.00      68.23       2.19       1.76       0.82       ----

> <Gold.Chemscore.Fitness>
11.7757

> <Gold.Chemscore.DG>
-14.3527

> <Gold.Chemscore.ZeroCoef>
-5.4800

> <Gold.Chemscore.Hbond>
1.9475

> <Gold.Chemscore.Metal>
0.0000

> <Gold.Chemscore.Lipo>
68.2253

> <Gold.Chemscore.Internal_Hbond>
0.0000

> <Gold.Chemscore.DEClash>
1.7562

> <Gold.Chemscore.DEInternal>
0.8208

> <Gold.Chemscore.Rot>
2.1932

> <Gold.Chemscore.Internal.Correction>
   9.000000E+99

> <Gold.Chemscore.Hbonds>
donor molecule, donor type, donor heavy atom, donor atom, acceptor molecule, acceptor atom, score
      L1  H     3    23       P1 10175  0.72

> <Gold.Chemscore.Hbond.Weighted>
-6.5048

> <Gold.Chemscore.Metal.Weighted>
-0.0000

> <Gold.Chemscore.Lipo.Weighted>
-7.9824

> <Gold.Chemscore.Internal_Hbond.Weighted>
0.0000

> <Gold.Chemscore.DEClash.Weighted>
1.7562

> <Gold.Chemscore.DEInternal.Weighted>
0.8208

> <Gold.Chemscore.Rot.Weighted>
5.6145

> <Gold.Chemscore.Internal.Correction.Weighted>
   9.000000E+99

> <Gold.Protein.RotatedTorsions>
[ 6907 6896 6895 6894 ] final -157.38 input  -60.11 | X-H torsion
[ 7974 7965 7964 7962 ] final   95.49 input  175.53 | X-H torsion
[ 8008 7997 7996 7995 ] final  -77.05 input   59.86 | X-H torsion
[ 10167 10162 10161 10158 ] final  -24.73 input  -65.29 | X-H torsion
[ 10718 10713 10712 10709 ] final  -64.64 input   66.30 | X-H torsion
[ 10763 10752 10751 10750 ] final -127.58 input  -60.55 | X-H torsion
[ 11005 11000 10999 10996 ] final   91.06 input  -57.11 | X-H torsion

> <Gold.Protein.ActiveResidues>
 VAL166  LYS551  ARG553  GLY616  TRP617  ASP618  TYR619  PRO620  LYS621  CYS622 
 ASP623  PHE694  ASN695  SER759  ASP760  ASP761  ALA762  ILE779  LEU786  VAL792 
 PHE793  MET794  SER795  GLU796  ALA797  LYS798  CYS799  TRP800  GLU811  SER814 

> <Gold.Protein.RotatedAtoms>
  151.3019  133.4118  159.2640 H   0  0  0  0  0  0  0  0  0  0  0  0  # atno 6907 bound_to 6896
  151.0188  134.9454  159.8058 H   0  0  0  0  0  0  0  0  0  0  0  0  # atno 6908 bound_to 6896
  152.5319  134.2982  159.9121 H   0  0  0  0  0  0  0  0  0  0  0  0  # atno 6909 bound_to 6896
  145.4515  139.2293  143.3037 H   0  0  0  0  0  0  0  0  0  0  0  0  # atno 7974 bound_to 7965
  154.5560  140.0717  156.8744 H   0  0  0  0  0  0  0  0  0  0  0  0  # atno 8008 bound_to 7997
  155.2901  140.3377  155.4235 H   0  0  0  0  0  0  0  0  0  0  0  0  # atno 8009 bound_to 7997
  156.2002  140.1719  156.7900 H   0  0  0  0  0  0  0  0  0  0  0  0  # atno 8010 bound_to 7997
  140.7288  143.4327  151.0777 H   0  0  0  0  0  0  0  0  0  0  0  0  # atno 10167 bound_to 10162
  156.0717  130.4236  150.1449 H   0  0  0  0  0  0  0  0  0  0  0  0  # atno 10718 bound_to 10713
  154.8753  135.3957  154.3617 H   0  0  0  0  0  0  0  0  0  0  0  0  # atno 10763 bound_to 10752
  153.4389  135.7026  153.6187 H   0  0  0  0  0  0  0  0  0  0  0  0  # atno 10764 bound_to 10752
  153.4777  135.3776  155.2394 H   0  0  0  0  0  0  0  0  0  0  0  0  # atno 10765 bound_to 10752
  139.8845  134.8651  156.3374 H   0  0  0  0  0  0  0  0  0  0  0  0  # atno 11005 bound_to 11000
  146.2502  140.5274  142.8897 LP  0  0  0  0  0  0  0  0  0  0  0  0  # atno 17320 bound_to 7965
  144.8058  140.6298  143.6447 LP  0  0  0  0  0  0  0  0  0  0  0  0  # atno 17321 bound_to 7965
  139.7985  143.8117  152.3160 LP  0  0  0  0  0  0  0  0  0  0  0  0  # atno 17342 bound_to 10162
  139.8125  144.7330  150.9678 LP  0  0  0  0  0  0  0  0  0  0  0  0  # atno 17343 bound_to 10162
  156.9498  130.9771  151.3500 LP  0  0  0  0  0  0  0  0  0  0  0  0  # atno 17370 bound_to 10713
  157.5791  130.8364  149.8497 LP  0  0  0  0  0  0  0  0  0  0  0  0  # atno 17371 bound_to 10713
  140.9682  133.7344  156.0497 LP  0  0  0  0  0  0  0  0  0  0  0  0  # atno 17394 bound_to 11000
  140.7904  134.3623  157.5466 LP  0  0  0  0  0  0  0  0  0  0  0  0  # atno 17395 bound_to 11000

$$$$
