AV-unprocessed.smi:625|AV-procd|sdf|3105|dock8
  -GOLD-   22720 0 23D 1   1.00000     0.00000
 Structure written by MMmdl.
 49 51  0  0  0  0  0  0  0  0  1 V2000
  146.0165  133.0746  150.4890 C   0  0  0  0  0  0  0  0  0  0  0  0
  146.9576  132.9380  151.5896 N   0  0  0  0  0  0  0  0  0  0  0  0
  146.9698  133.7143  152.6876 C   0  0  0  0  0  0  0  0  0  0  0  0
  146.1647  134.6341  152.8374 O   0  0  0  0  0  0  0  0  0  0  0  0
  147.9991  133.3529  153.6663 C   0  0  0  0  0  0  0  0  0  0  0  0
  148.2271  131.9554  153.9780 C   0  0  0  0  0  0  0  0  0  0  0  0
  149.1971  131.5906  154.8398 C   0  0  0  0  0  0  0  0  0  0  0  0
  150.0575  132.5791  155.4974 C   0  0  0  0  0  0  0  0  0  0  0  0
  150.9620  132.2486  156.2641 O   0  0  0  0  0  0  0  0  0  0  0  0
  149.7908  133.8869  155.2010 N   0  0  0  0  0  0  0  0  0  0  0  0
  150.5978  134.9849  155.7565 C   0  0  0  0  0  0  0  0  0  0  0  0
  149.9563  135.5350  157.0345 C   0  0  0  0  0  0  0  0  0  0  0  0
  149.5870  134.7677  157.9236 O   0  0  0  0  0  0  0  0  0  0  0  0
  149.8612  136.8710  157.1146 N   0  0  0  0  0  0  0  0  0  0  0  0
  149.4711  137.6340  158.2983 C   0  0  2  0  0  0  0  0  0  0  0  0
  148.0317  137.2471  158.6755 C   0  0  0  0  0  0  0  0  0  0  0  0
  149.6347  139.1472  158.0022 C   0  0  2  0  0  0  0  0  0  0  0  0
  148.9993  139.6032  156.6619 C   0  0  0  0  0  0  0  0  0  0  0  0
  150.1492  140.3375  155.9534 C   0  0  1  0  0  0  0  0  0  0  0  0
  150.4583  141.6508  156.6941 C   0  0  0  0  0  0  0  0  0  0  0  0
  151.1456  141.1578  157.9815 C   0  0  0  0  0  0  0  0  0  0  0  0
  151.0984  139.6248  157.8288 C   0  0  2  0  0  0  0  0  0  0  0  0
  151.3395  139.4661  156.3306 C   0  0  0  0  0  0  0  0  0  0  0  0
  148.7760  134.2599  154.2965 C   0  0  0  0  0  0  0  0  0  0  0  0
  146.2154  132.3129  149.7353 H   0  0  0  0  0  0  0  0  0  0  0  0
  146.1088  134.0544  150.0185 H   0  0  0  0  0  0  0  0  0  0  0  0
  144.9906  132.9494  150.8376 H   0  0  0  0  0  0  0  0  0  0  0  0
  147.6386  132.1955  151.5232 H   0  0  0  0  0  0  0  0  0  0  0  0
  147.6209  131.1872  153.5197 H   0  0  0  0  0  0  0  0  0  0  0  0
  149.3468  130.5422  155.0520 H   0  0  0  0  0  0  0  0  0  0  0  0
  151.6048  134.6193  155.9661 H   0  0  0  0  0  0  0  0  0  0  0  0
  150.7305  135.8066  155.0513 H   0  0  0  0  0  0  0  0  0  0  0  0
  150.1722  137.4089  156.3187 H   0  0  0  0  0  0  0  0  0  0  0  0
  150.1165  137.3747  159.1390 H   0  0  0  0  0  0  0  0  0  0  0  0
  147.7107  137.7311  159.5971 H   0  0  0  0  0  0  0  0  0  0  0  0
  147.9463  136.1715  158.8336 H   0  0  0  0  0  0  0  0  0  0  0  0
  147.3270  137.5235  157.8905 H   0  0  0  0  0  0  0  0  0  0  0  0
  149.1701  139.6971  158.8225 H   0  0  0  0  0  0  0  0  0  0  0  0
  148.6849  138.7553  156.0522 H   0  0  0  0  0  0  0  0  0  0  0  0
  148.1274  140.2406  156.8119 H   0  0  0  0  0  0  0  0  0  0  0  0
  149.9912  140.4644  154.8819 H   0  0  0  0  0  0  0  0  0  0  0  0
  151.1368  142.2764  156.1127 H   0  0  0  0  0  0  0  0  0  0  0  0
  149.5573  142.2309  156.8977 H   0  0  0  0  0  0  0  0  0  0  0  0
  152.1775  141.5094  158.0211 H   0  0  0  0  0  0  0  0  0  0  0  0
  150.6417  141.5061  158.8840 H   0  0  0  0  0  0  0  0  0  0  0  0
  151.8233  139.1154  158.4625 H   0  0  0  0  0  0  0  0  0  0  0  0
  151.2517  138.4363  155.9801 H   0  0  0  0  0  0  0  0  0  0  0  0
  152.2963  139.8746  156.0003 H   0  0  0  0  0  0  0  0  0  0  0  0
  148.7050  135.3281  154.1463 H   0  0  0  0  0  0  0  0  0  0  0  0
  1  2  1  0  0  0  0
  1 25  1  0  0  0  0
  1 26  1  0  0  0  0
  1 27  1  0  0  0  0
  2  3  1  0  0  0  0
  2 28  1  0  0  0  0
  3  4  2  0  0  0  0
  3  5  1  0  0  0  0
  5 24  2  0  0  0  0
  5  6  1  0  0  0  0
  6  7  2  0  0  0  0
  6 29  1  0  0  0  0
  7  8  1  0  0  0  0
  7 30  1  0  0  0  0
  8  9  2  0  0  0  0
  8 10  1  0  0  0  0
 10 11  1  0  0  0  0
 10 24  1  0  0  0  0
 11 12  1  0  0  0  0
 11 31  1  0  0  0  0
 11 32  1  0  0  0  0
 12 13  2  0  0  0  0
 12 14  1  0  0  0  0
 14 15  1  0  0  0  0
 14 33  1  0  0  0  0
 15 16  1  0  0  0  0
 15 17  1  0  0  0  0
 15 34  1  0  0  0  0
 16 35  1  0  0  0  0
 16 36  1  0  0  0  0
 16 37  1  0  0  0  0
 17 22  1  0  0  0  0
 17 18  1  0  0  0  0
 17 38  1  0  0  0  0
 18 19  1  0  0  0  0
 18 39  1  0  0  0  0
 18 40  1  0  0  0  0
 19 23  1  0  0  0  0
 19 20  1  0  0  0  0
 19 41  1  0  0  0  0
 20 21  1  0  0  0  0
 20 42  1  0  0  0  0
 20 43  1  0  0  0  0
 21 22  1  0  0  0  0
 21 44  1  0  0  0  0
 21 45  1  0  0  0  0
 22 23  1  0  0  0  0
 22 46  1  0  0  0  0
 23 47  1  0  0  0  0
 23 48  1  0  0  0  0
 24 49  1  0  0  0  0
M  END
> <s_m_source_file>
AV-unprocessed.smi

> <i_m_source_file_index>
625

> <i_lp_mmshare_version>
43012

> <i_f3d_flags>
0

> <s_epik_input>
W0NIM11bTkhdQyg9TyljMVtjSF1bY0hdYyg9TyluKFtjSF0xKVtDSDJdQyg9TylbTkhdW0NASF0oW0NIM10pW0NASF0oW0NIMl1bQ0BIXTIzKVtDQEhdKFtDSDJdMylbQ0gyXVtDSDJdMg==

> <s_epik_cmdline>
J2VwaWtfcHl0aG9uJywgJy1waCcsICc3LjAnLCAnLXRuJywgJzgnLCAnLW1hJywgJzIwMCcsICctbWV0YWxfYmluZGluZycsICctaW1hZScsICc8aW5maWxlLm1hZT4nLCAnLW9tYWUnLCAnPG91dGZpbGUubWFlPic=

> <r_lp_tautomer_probability>
1

> <r_epik_Ionization_Penalty>
3.7129e-07

> <r_epik_Ionization_Penalty_Charging>
5.04114e-08

> <r_epik_Ionization_Penalty_Neutral>
3.20879e-07

> <r_epik_State_Penalty>
-0

> <r_epik_Charging_Adjusted_Penalty>
5.04114e-08

> <i_epik_Tot_Q>
0

> <i_epik_Tot_abs_Q>
0

> <r_epik_Metal_State_Penalty>
-0

> <b_epik_Metal_Only>
0

> <s_lp_Force_Field>
OPLS_2005

> <r_lp_Energy>
64.2087

> <b_lp_Chiralities_Consistent>
1

> <s_lp_Variant>
AV-unprocessed.smi:625-5

> <Gold.Version>
5.8.1

> <Gold.Id.Protein>
6NUR|6NUR_protein|mol2

> <Gold.PLP.Fitness>
42.5888

> <Gold.PLP.PLP>
-37.0923

> <Gold.PLP.part.hbond>
-2.0000

> <Gold.PLP.part.metal>
0.0000

> <Gold.PLP.part.buried>
-4.7674

> <Gold.PLP.part.nonpolar>
-30.7759

> <Gold.PLP.part.repulsive>
0.2007

> <Gold.PLP.ligand.clash>
0.0000

> <Gold.PLP.ligand.torsion>
1.3431

> <Gold.PLP.Chemscore.Hbond>
1.7120

> <Gold.PLP.Chemscore.CHOScore>
1.0000

> <Gold.PLP.Chemscore.Metal>
0.0000

> <Gold.Chemscore.Hbonds>
donor molecule, donor type, donor heavy atom, donor atom, acceptor molecule, acceptor atom, score
      L1  H     2    28       P1 10747  0.41
      P1  H  6896  6908       L1    13  0.74
      L1  C    24    49       P1  7948  0.76

> <Gold.PLP.Chemscore.Internal.Correction>
0.0468

> <Gold.Rescore>
     Score         DG    S(hbond)    S(metal)    S(lipo)     H(rot)  DE(clash)    DE(int)     intcor
     14.67     -16.00       1.82        0.00      74.48       1.67       0.01       1.32       ----

> <Gold.Chemscore.Fitness>
14.6651

> <Gold.Chemscore.DG>
-15.9955

> <Gold.Chemscore.ZeroCoef>
-5.4800

> <Gold.Chemscore.Hbond>
1.8199

> <Gold.Chemscore.Metal>
0.0000

> <Gold.Chemscore.Lipo>
74.4815

> <Gold.Chemscore.Internal_Hbond>
0.0000

> <Gold.Chemscore.DEClash>
0.0118

> <Gold.Chemscore.DEInternal>
1.3186

> <Gold.Chemscore.Rot>
1.6709

> <Gold.Chemscore.Internal.Correction>
   9.000000E+99

> <Gold.Chemscore.Hbonds>
donor molecule, donor type, donor heavy atom, donor atom, acceptor molecule, acceptor atom, score
      L1  H     2    28       P1 10747  0.39
      P1  H  6896  6908       L1    13  0.70

> <Gold.Chemscore.Hbond.Weighted>
-6.0785

> <Gold.Chemscore.Metal.Weighted>
-0.0000

> <Gold.Chemscore.Lipo.Weighted>
-8.7143

> <Gold.Chemscore.Internal_Hbond.Weighted>
0.0000

> <Gold.Chemscore.DEClash.Weighted>
0.0118

> <Gold.Chemscore.DEInternal.Weighted>
1.3186

> <Gold.Chemscore.Rot.Weighted>
4.2774

> <Gold.Chemscore.Internal.Correction.Weighted>
   9.000000E+99

> <Gold.Protein.RotatedTorsions>
[ 6907 6896 6895 6894 ] final  121.09 input  -60.11 | X-H torsion
[ 7974 7965 7964 7962 ] final  125.19 input  175.53 | X-H torsion
[ 8008 7997 7996 7995 ] final  -85.85 input   59.86 | X-H torsion
[ 10167 10162 10161 10158 ] final  126.36 input  -65.29 | X-H torsion
[ 10718 10713 10712 10709 ] final   -3.57 input   66.30 | X-H torsion
[ 10763 10752 10751 10750 ] final  -35.12 input  -60.55 | X-H torsion
[ 11005 11000 10999 10996 ] final  102.09 input  -57.11 | X-H torsion

> <Gold.Protein.ActiveResidues>
 VAL166  LYS551  ARG553  GLY616  TRP617  ASP618  TYR619  PRO620  LYS621  CYS622 
 ASP623  PHE694  ASN695  SER759  ASP760  ASP761  ALA762  ILE779  LEU786  VAL792 
 PHE793  MET794  SER795  GLU796  ALA797  LYS798  CYS799  TRP800  GLU811  SER814 

> <Gold.Protein.RotatedAtoms>
  152.4348  133.7342  159.6604 H   0  0  0  0  0  0  0  0  0  0  0  0  # atno 6907 bound_to 6896
  150.8231  133.8208  159.3136 H   0  0  0  0  0  0  0  0  0  0  0  0  # atno 6908 bound_to 6896
  151.5884  135.1057  160.0085 H   0  0  0  0  0  0  0  0  0  0  0  0  # atno 6909 bound_to 6896
  145.0759  139.3694  143.4934 H   0  0  0  0  0  0  0  0  0  0  0  0  # atno 7974 bound_to 7965
  154.6453  140.0586  156.9893 H   0  0  0  0  0  0  0  0  0  0  0  0  # atno 8008 bound_to 7997
  155.1454  140.3269  155.4424 H   0  0  0  0  0  0  0  0  0  0  0  0  # atno 8009 bound_to 7997
  156.2550  140.1957  156.6568 H   0  0  0  0  0  0  0  0  0  0  0  0  # atno 8010 bound_to 7997
  139.5635  144.6897  151.3975 H   0  0  0  0  0  0  0  0  0  0  0  0  # atno 10167 bound_to 10162
  156.7740  130.5309  149.5762 H   0  0  0  0  0  0  0  0  0  0  0  0  # atno 10718 bound_to 10713
  153.8579  135.6843  153.4785 H   0  0  0  0  0  0  0  0  0  0  0  0  # atno 10763 bound_to 10752
  153.1359  135.4678  154.9419 H   0  0  0  0  0  0  0  0  0  0  0  0  # atno 10764 bound_to 10752
  154.7772  135.3257  154.8016 H   0  0  0  0  0  0  0  0  0  0  0  0  # atno 10765 bound_to 10752
  139.8776  134.9210  156.5005 H   0  0  0  0  0  0  0  0  0  0  0  0  # atno 11005 bound_to 11000
  146.3530  140.0526  142.8635 LP  0  0  0  0  0  0  0  0  0  0  0  0  # atno 17320 bound_to 7965
  145.1237  140.9477  143.4585 LP  0  0  0  0  0  0  0  0  0  0  0  0  # atno 17321 bound_to 7965
  140.6917  143.7846  150.7265 LP  0  0  0  0  0  0  0  0  0  0  0  0  # atno 17342 bound_to 10162
  140.1330  143.4509  152.2242 LP  0  0  0  0  0  0  0  0  0  0  0  0  # atno 17343 bound_to 10162
  156.1260  130.6144  151.0263 LP  0  0  0  0  0  0  0  0  0  0  0  0  # atno 17370 bound_to 10713
  157.6677  131.0868  150.7687 LP  0  0  0  0  0  0  0  0  0  0  0  0  # atno 17371 bound_to 10713
  140.8593  133.8072  155.9248 LP  0  0  0  0  0  0  0  0  0  0  0  0  # atno 17394 bound_to 11000
  140.9066  134.2313  157.5011 LP  0  0  0  0  0  0  0  0  0  0  0  0  # atno 17395 bound_to 11000

$$$$
