AV-unprocessed.smi:2124|AV-procd|sdf|8661|dock6
  -GOLD-   2272011413D 1   1.00000     0.00000
 Structure written by MMmdl.
 47 49  0  0  0  0  0  0  0  0  1 V2000
  149.5478  133.8352  153.8069 C   0  0  0  0  0  0  0  0  0  0  0  0
  149.9109  134.8200  154.8969 C   0  0  0  0  0  0  0  0  0  0  0  0
  150.5577  135.9525  154.4301 N   0  0  0  0  0  0  0  0  0  0  0  0
  150.9263  136.9143  155.3541 C   0  0  0  0  0  0  0  0  0  0  0  0
  151.6300  138.1226  154.7614 C   0  0  0  0  0  0  0  0  0  0  0  0
  150.6660  136.7541  156.6766 C   0  0  0  0  0  0  0  0  0  0  0  0
  151.0617  137.7891  157.7294 C   0  0  0  0  0  0  0  0  0  0  0  0
  150.5529  139.2150  157.5011 C   0  0  0  0  0  0  0  0  0  0  0  0
  149.3735  139.5020  157.7081 O   0  0  0  0  0  0  0  0  0  0  0  0
  151.4642  140.1025  157.0739 N   0  0  0  0  0  0  0  0  0  0  0  0
  151.2048  141.5119  156.7846 C   0  0  1  0  0  0  0  0  0  0  0  0
  149.9215  141.6206  155.9400 C   0  0  0  0  0  0  0  0  0  0  0  0
  151.1189  142.3076  158.1109 C   0  0  1  0  0  0  0  0  0  0  0  0
  152.4057  142.2300  158.9723 C   0  0  0  0  0  0  0  0  0  0  0  0
  152.7513  143.7066  159.2314 C   0  0  2  0  0  0  0  0  0  0  0  0
  151.7039  144.3270  160.1737 C   0  0  0  0  0  0  0  0  0  0  0  0
  150.4634  144.4441  159.2690 C   0  0  0  0  0  0  0  0  0  0  0  0
  150.9536  143.8394  157.9389 C   0  0  1  0  0  0  0  0  0  0  0  0
  152.3943  144.3397  157.8940 C   0  0  0  0  0  0  0  0  0  0  0  0
  149.9774  135.5178  157.1164 C   0  0  0  0  0  0  0  0  0  0  0  0
  149.7254  135.3080  158.3022 O   0  0  0  0  0  0  0  0  0  0  0  0
  149.6187  134.5763  156.1381 N   0  0  0  0  0  0  0  0  0  0  0  0
  150.7721  136.1106  153.4560 H   0  0  0  0  0  0  0  0  0  0  0  0
  149.0871  132.9401  154.2273 H   0  0  0  0  0  0  0  0  0  0  0  0
  150.4381  133.5322  153.2551 H   0  0  0  0  0  0  0  0  0  0  0  0
  148.8427  134.2863  153.1082 H   0  0  0  0  0  0  0  0  0  0  0  0
  152.6164  138.2476  155.2088 H   0  0  0  0  0  0  0  0  0  0  0  0
  151.0512  139.0280  154.9440 H   0  0  0  0  0  0  0  0  0  0  0  0
  151.7619  138.0225  153.6833 H   0  0  0  0  0  0  0  0  0  0  0  0
  152.1457  137.8225  157.8439 H   0  0  0  0  0  0  0  0  0  0  0  0
  150.6909  137.4532  158.6980 H   0  0  0  0  0  0  0  0  0  0  0  0
  152.4088  139.7764  156.9292 H   0  0  0  0  0  0  0  0  0  0  0  0
  152.0356  141.9097  156.1996 H   0  0  0  0  0  0  0  0  0  0  0  0
  149.7309  142.6443  155.6212 H   0  0  0  0  0  0  0  0  0  0  0  0
  149.0496  141.2770  156.4973 H   0  0  0  0  0  0  0  0  0  0  0  0
  149.9940  141.0166  155.0347 H   0  0  0  0  0  0  0  0  0  0  0  0
  150.2773  141.9135  158.6833 H   0  0  0  0  0  0  0  0  0  0  0  0
  152.2535  141.6706  159.8961 H   0  0  0  0  0  0  0  0  0  0  0  0
  153.2241  141.7531  158.4309 H   0  0  0  0  0  0  0  0  0  0  0  0
  153.7803  143.8637  159.5562 H   0  0  0  0  0  0  0  0  0  0  0  0
  151.5220  143.7081  161.0530 H   0  0  0  0  0  0  0  0  0  0  0  0
  152.0224  145.3123  160.5166 H   0  0  0  0  0  0  0  0  0  0  0  0
  149.5981  143.9188  159.6750 H   0  0  0  0  0  0  0  0  0  0  0  0
  150.1846  145.4903  159.1373 H   0  0  0  0  0  0  0  0  0  0  0  0
  150.3423  144.1417  157.0898 H   0  0  0  0  0  0  0  0  0  0  0  0
  152.4755  145.4281  157.8958 H   0  0  0  0  0  0  0  0  0  0  0  0
  152.9713  143.9412  157.0581 H   0  0  0  0  0  0  0  0  0  0  0  0
  1 24  1  0  0  0  0
  1 25  1  0  0  0  0
  1 26  1  0  0  0  0
  1  2  1  0  0  0  0
  2  3  1  0  0  0  0
  2 22  2  0  0  0  0
  3  4  1  0  0  0  0
  3 23  1  0  0  0  0
  4  6  2  0  0  0  0
  4  5  1  0  0  0  0
  5 27  1  0  0  0  0
  5 28  1  0  0  0  0
  5 29  1  0  0  0  0
  6 20  1  0  0  0  0
  6  7  1  0  0  0  0
  7  8  1  0  0  0  0
  7 30  1  0  0  0  0
  7 31  1  0  0  0  0
  8  9  2  0  0  0  0
  8 10  1  0  0  0  0
 10 11  1  0  0  0  0
 10 32  1  0  0  0  0
 11 12  1  0  0  0  0
 11 13  1  0  0  0  0
 11 33  1  0  0  0  0
 12 34  1  0  0  0  0
 12 35  1  0  0  0  0
 12 36  1  0  0  0  0
 13 18  1  0  0  0  0
 13 14  1  0  0  0  0
 13 37  1  0  0  0  0
 14 15  1  0  0  0  0
 14 38  1  0  0  0  0
 14 39  1  0  0  0  0
 15 19  1  0  0  0  0
 15 16  1  0  0  0  0
 15 40  1  0  0  0  0
 16 17  1  0  0  0  0
 16 41  1  0  0  0  0
 16 42  1  0  0  0  0
 17 18  1  0  0  0  0
 17 43  1  0  0  0  0
 17 44  1  0  0  0  0
 18 19  1  0  0  0  0
 18 45  1  0  0  0  0
 19 46  1  0  0  0  0
 19 47  1  0  0  0  0
 20 21  2  0  0  0  0
 20 22  1  0  0  0  0
M  END
> <s_m_source_file>
AV-unprocessed.smi

> <i_m_source_file_index>
2124

> <i_lp_mmshare_version>
43012

> <i_f3d_flags>
0

> <s_epik_input>
W0NIM11jMW5jKFtDSDNdKWMoYyg9TylbbkhdMSlbQ0gyXUMoPU8pW05IXVtDQEhdKFtDSDNdKVtDQEhdKFtDSDJdW0NASF0yMylbQ0BIXShbQ0gyXTMpW0NIMl1bQ0gyXTI=

> <s_epik_cmdline>
J2VwaWtfcHl0aG9uJywgJy1waCcsICc3LjAnLCAnLXRuJywgJzgnLCAnLW1hJywgJzIwMCcsICctbWV0YWxfYmluZGluZycsICctaW1hZScsICc8aW5maWxlLm1hZT4nLCAnLW9tYWUnLCAnPG91dGZpbGUubWFlPic=

> <r_lp_tautomer_probability>
0.156392

> <r_epik_Ionization_Penalty>
0.0139374

> <r_epik_Ionization_Penalty_Charging>
0.0138122

> <r_epik_Ionization_Penalty_Neutral>
0.000125146

> <r_epik_State_Penalty>
1.15342

> <r_epik_Charging_Adjusted_Penalty>
1.16723

> <i_epik_Tot_Q>
0

> <i_epik_Tot_abs_Q>
0

> <r_epik_Metal_State_Penalty>
1.3173

> <b_epik_Metal_Only>
0

> <s_lp_Force_Field>
OPLS_2005

> <r_lp_Energy>
56.04

> <b_lp_Chiralities_Consistent>
1

> <s_lp_Variant>
AV-unprocessed.smi:2124-12

> <Gold.Version>
5.8.1

> <Gold.Id.Protein>
6NUR|6NUR_protein|mol2

> <Gold.PLP.Fitness>
45.3174

> <Gold.PLP.PLP>
-40.4273

> <Gold.PLP.part.hbond>
-2.7699

> <Gold.PLP.part.metal>
0.0000

> <Gold.PLP.part.buried>
-4.6400

> <Gold.PLP.part.nonpolar>
-32.5140

> <Gold.PLP.part.repulsive>
0.2007

> <Gold.PLP.ligand.clash>
0.0000

> <Gold.PLP.ligand.torsion>
0.4178

> <Gold.PLP.Chemscore.Hbond>
1.9000

> <Gold.PLP.Chemscore.CHOScore>
0.0000

> <Gold.PLP.Chemscore.Metal>
0.0000

> <Gold.Chemscore.Hbonds>
donor molecule, donor type, donor heavy atom, donor atom, acceptor molecule, acceptor atom, score
      L1  H     3    23       P1  7949  0.60
      P1  H  6896  6907       L1    21  1.00

> <Gold.PLP.Chemscore.Internal.Correction>
0.0257

> <Gold.Rescore>
     Score         DG    S(hbond)    S(metal)    S(lipo)     H(rot)  DE(clash)    DE(int)     intcor
     19.33     -21.07       1.94        0.00     114.08       1.65       0.09       1.65       ----

> <Gold.Chemscore.Fitness>
19.3311

> <Gold.Chemscore.DG>
-21.0685

> <Gold.Chemscore.ZeroCoef>
-5.4800

> <Gold.Chemscore.Hbond>
1.9382

> <Gold.Chemscore.Metal>
0.0000

> <Gold.Chemscore.Lipo>
114.0813

> <Gold.Chemscore.Internal_Hbond>
0.0000

> <Gold.Chemscore.DEClash>
0.0863

> <Gold.Chemscore.DEInternal>
1.6512

> <Gold.Chemscore.Rot>
1.6534

> <Gold.Chemscore.Internal.Correction>
   9.000000E+99

> <Gold.Chemscore.Hbonds>
donor molecule, donor type, donor heavy atom, donor atom, acceptor molecule, acceptor atom, score
      L1  H     3    23       P1  7949  0.04
      P1  H  6896  6907       L1    21  0.99

> <Gold.Chemscore.Hbond.Weighted>
-6.4736

> <Gold.Chemscore.Metal.Weighted>
-0.0000

> <Gold.Chemscore.Lipo.Weighted>
-13.3475

> <Gold.Chemscore.Internal_Hbond.Weighted>
0.0000

> <Gold.Chemscore.DEClash.Weighted>
0.0863

> <Gold.Chemscore.DEInternal.Weighted>
1.6512

> <Gold.Chemscore.Rot.Weighted>
4.2326

> <Gold.Chemscore.Internal.Correction.Weighted>
   9.000000E+99

> <Gold.Protein.RotatedTorsions>
[ 6907 6896 6895 6894 ] final  -75.33 input  -60.11 | X-H torsion
[ 7974 7965 7964 7962 ] final   63.44 input  175.53 | X-H torsion
[ 8008 7997 7996 7995 ] final  -91.61 input   59.86 | X-H torsion
[ 10167 10162 10161 10158 ] final -168.90 input  -65.29 | X-H torsion
[ 10718 10713 10712 10709 ] final  102.60 input   66.30 | X-H torsion
[ 10763 10752 10751 10750 ] final   41.06 input  -60.55 | X-H torsion
[ 11005 11000 10999 10996 ] final  -75.71 input  -57.11 | X-H torsion

> <Gold.Protein.ActiveResidues>
 VAL166  LYS551  ARG553  GLY616  TRP617  ASP618  TYR619  PRO620  LYS621  CYS622 
 ASP623  PHE694  ASN695  SER759  ASP760  ASP761  ALA762  ILE779  LEU786  VAL792 
 PHE793  MET794  SER795  GLU796  ALA797  LYS798  CYS799  TRP800  GLU811  SER814 

> <Gold.Protein.RotatedAtoms>
  150.7062  134.4736  159.5436 H   0  0  0  0  0  0  0  0  0  0  0  0  # atno 6907 bound_to 6896
  152.2387  134.8247  160.0472 H   0  0  0  0  0  0  0  0  0  0  0  0  # atno 6908 bound_to 6896
  151.9036  133.3509  159.3876 H   0  0  0  0  0  0  0  0  0  0  0  0  # atno 6909 bound_to 6896
  145.8618  139.3320  143.0814 H   0  0  0  0  0  0  0  0  0  0  0  0  # atno 7974 bound_to 7965
  154.7128  140.0517  157.0566 H   0  0  0  0  0  0  0  0  0  0  0  0  # atno 8008 bound_to 7997
  155.0531  140.3181  155.4666 H   0  0  0  0  0  0  0  0  0  0  0  0  # atno 8009 bound_to 7997
  156.2794  140.2112  156.5657 H   0  0  0  0  0  0  0  0  0  0  0  0  # atno 8010 bound_to 7997
  139.5956  144.1119  152.1685 H   0  0  0  0  0  0  0  0  0  0  0  0  # atno 10167 bound_to 10162
  157.6797  131.0757  150.5428 H   0  0  0  0  0  0  0  0  0  0  0  0  # atno 10718 bound_to 10713
  152.9918  135.6173  154.2727 H   0  0  0  0  0  0  0  0  0  0  0  0  # atno 10763 bound_to 10752
  154.2459  135.2787  155.2837 H   0  0  0  0  0  0  0  0  0  0  0  0  # atno 10764 bound_to 10752
  154.5329  135.5783  153.6832 H   0  0  0  0  0  0  0  0  0  0  0  0  # atno 10765 bound_to 10752
  141.1648  133.6956  156.7559 H   0  0  0  0  0  0  0  0  0  0  0  0  # atno 11005 bound_to 11000
  145.9239  140.9096  143.0391 LP  0  0  0  0  0  0  0  0  0  0  0  0  # atno 17320 bound_to 7965
  144.6726  140.1326  143.7442 LP  0  0  0  0  0  0  0  0  0  0  0  0  # atno 17321 bound_to 7965
  140.0703  144.5784  150.7196 LP  0  0  0  0  0  0  0  0  0  0  0  0  # atno 17342 bound_to 10162
  140.7209  143.2588  151.4281 LP  0  0  0  0  0  0  0  0  0  0  0  0  # atno 17343 bound_to 10162
  156.5734  130.4286  149.6009 LP  0  0  0  0  0  0  0  0  0  0  0  0  # atno 17370 bound_to 10713
  156.2721  130.7023  151.1823 LP  0  0  0  0  0  0  0  0  0  0  0  0  # atno 17371 bound_to 10713
  140.2570  134.8496  157.3722 LP  0  0  0  0  0  0  0  0  0  0  0  0  # atno 17394 bound_to 11000
  140.1648  134.4683  155.7870 LP  0  0  0  0  0  0  0  0  0  0  0  0  # atno 17395 bound_to 11000

$$$$
