AV-unprocessed.smi:1999|AV-procd|sdf|8099|dock7
  -GOLD-   2272010323D 1   1.00000     0.00000
 Structure written by MMmdl.
 38 39  0  0  0  0  0  0  0  0  3 V2000
  152.2489  140.6042  159.3695 C   0  0  0  0  0  0  0  0  0  0  0  0
  151.9101  140.4115  157.9309 C   0  0  0  0  0  0  0  0  0  0  0  0
  152.6768  139.7093  157.0926 N   0  0  0  0  0  0  0  0  0  0  0  0
  152.1503  139.6726  155.8099 N   0  0  0  0  0  0  0  0  0  0  0  0
  150.9900  140.3355  155.6988 C   0  0  0  0  0  0  0  0  0  0  0  0
  150.3149  140.4153  154.5403 N   0  5  0  0  0  0  0  0  0  0  0  0
  148.9654  140.3566  154.5446 C   0  0  0  0  0  0  0  0  0  0  0  0
  148.2316  140.5311  155.5197 O   0  0  0  0  0  0  0  0  0  0  0  0
  148.4364  140.0406  153.3526 N   0  0  0  0  0  0  0  0  0  0  0  0
  147.0239  139.7859  153.0625 C   0  0  1  0  0  0  0  0  0  0  0  0
  146.8784  139.3371  151.6023 C   0  0  0  0  0  0  0  0  0  0  0  0
  146.4484  138.7349  154.0389 C   0  0  0  0  0  0  0  0  0  0  0  0
  145.0162  138.4419  153.7808 N   0  3  0  0  0  0  0  0  0  0  0  0
  144.7988  137.3557  152.7966 C   0  0  0  0  0  0  0  0  0  0  0  0
  143.2968  137.2075  152.5048 C   0  0  0  0  0  0  0  0  0  0  0  0
  142.6012  136.9490  153.7191 O   0  0  0  0  0  0  0  0  0  0  0  0
  142.7437  138.0133  154.6531 C   0  0  0  0  0  0  0  0  0  0  0  0
  144.2291  138.1944  155.0098 C   0  0  0  0  0  0  0  0  0  0  0  0
  150.4620  141.0870  157.2034 S   0  0  0  0  0  0  0  0  0  0  0  0
  151.6760  139.9080  159.9822 H   0  0  0  0  0  0  0  0  0  0  0  0
  152.0098  141.6220  159.6779 H   0  0  0  0  0  0  0  0  0  0  0  0
  153.3117  140.4295  159.5397 H   0  0  0  0  0  0  0  0  0  0  0  0
  149.0822  139.9236  152.5851 H   0  0  0  0  0  0  0  0  0  0  0  0
  146.4584  140.7130  153.1655 H   0  0  0  0  0  0  0  0  0  0  0  0
  145.8325  139.1643  151.3478 H   0  0  0  0  0  0  0  0  0  0  0  0
  147.4240  138.4118  151.4132 H   0  0  0  0  0  0  0  0  0  0  0  0
  147.2621  140.0953  150.9188 H   0  0  0  0  0  0  0  0  0  0  0  0
  147.0297  137.8121  154.0084 H   0  0  0  0  0  0  0  0  0  0  0  0
  146.5525  139.1254  155.0525 H   0  0  0  0  0  0  0  0  0  0  0  0
  145.3318  137.5703  151.8705 H   0  0  0  0  0  0  0  0  0  0  0  0
  145.1995  136.4189  153.1864 H   0  0  0  0  0  0  0  0  0  0  0  0
  142.9026  138.1061  152.0270 H   0  0  0  0  0  0  0  0  0  0  0  0
  143.1276  136.3794  151.8164 H   0  0  0  0  0  0  0  0  0  0  0  0
  142.3288  138.9338  154.2387 H   0  0  0  0  0  0  0  0  0  0  0  0
  142.1674  137.7786  155.5479 H   0  0  0  0  0  0  0  0  0  0  0  0
  144.6086  137.3070  155.5186 H   0  0  0  0  0  0  0  0  0  0  0  0
  144.3388  139.0343  155.6969 H   0  0  0  0  0  0  0  0  0  0  0  0
  144.6343  139.2843  153.3724 H   0  0  0  0  0  0  0  0  0  0  0  0
  1  2  1  0  0  0  0
  1 20  1  0  0  0  0
  1 21  1  0  0  0  0
  1 22  1  0  0  0  0
  2 19  1  0  0  0  0
  2  3  2  0  0  0  0
  3  4  1  0  0  0  0
  4  5  2  0  0  0  0
  5  6  1  0  0  0  0
  5 19  1  0  0  0  0
  6  7  1  0  0  0  0
  7  8  2  0  0  0  0
  7  9  1  0  0  0  0
  9 10  1  0  0  0  0
  9 23  1  0  0  0  0
 10 11  1  0  0  0  0
 10 12  1  0  0  0  0
 10 24  1  0  0  0  0
 11 25  1  0  0  0  0
 11 26  1  0  0  0  0
 11 27  1  0  0  0  0
 12 13  1  0  0  0  0
 12 28  1  0  0  0  0
 12 29  1  0  0  0  0
 13 18  1  0  0  0  0
 13 14  1  0  0  0  0
 13 38  1  0  0  0  0
 14 15  1  0  0  0  0
 14 30  1  0  0  0  0
 14 31  1  0  0  0  0
 15 16  1  0  0  0  0
 15 32  1  0  0  0  0
 15 33  1  0  0  0  0
 16 17  1  0  0  0  0
 17 18  1  0  0  0  0
 17 34  1  0  0  0  0
 17 35  1  0  0  0  0
 18 36  1  0  0  0  0
 18 37  1  0  0  0  0
M  CHG  1   6  -1
M  CHG  1  13   1
M  END
> <s_m_source_file>
AV-unprocessed.smi

> <i_m_source_file_index>
1999

> <i_lp_mmshare_version>
43012

> <i_f3d_flags>
0

> <s_epik_input>
W0NIM11jMW5uYyhzMSlbTkhdQyg9TylbTkhdW0NASF0oW0NIM10pW0NIMl1OMltDSDJdW0NIMl1PW0NIMl1bQ0gyXTI=

> <s_epik_cmdline>
J2VwaWtfcHl0aG9uJywgJy1waCcsICc3LjAnLCAnLXRuJywgJzgnLCAnLW1hJywgJzIwMCcsICctbWV0YWxfYmluZGluZycsICctaW1hZScsICc8aW5maWxlLm1hZT4nLCAnLW9tYWUnLCAnPG91dGZpbGUubWFlPic=

> <r_lp_tautomer_probability>
1

> <r_epik_Ionization_Penalty>
3.39984

> <r_epik_Ionization_Penalty_Charging>
3.28696

> <r_epik_Ionization_Penalty_Neutral>
0.11288

> <r_epik_State_Penalty>
3.47917

> <r_epik_Charging_Adjusted_Penalty>
6.76613

> <i_epik_Tot_Q>
0

> <i_epik_Tot_abs_Q>
2

> <r_epik_Metal_State_Penalty>
1.13142

> <b_epik_Metal_Only>
1

> <s_lp_Force_Field>
OPLS_2005

> <r_lp_Energy>
12.2925

> <b_lp_Chiralities_Consistent>
1

> <s_lp_Variant>
AV-unprocessed.smi:1999-8

> <Gold.Version>
5.8.1

> <Gold.Id.Protein>
6NUR|6NUR_protein|mol2

> <Gold.PLP.Fitness>
41.4063

> <Gold.PLP.PLP>
-28.1378

> <Gold.PLP.part.hbond>
-4.0832

> <Gold.PLP.part.metal>
0.0000

> <Gold.PLP.part.buried>
-1.7320

> <Gold.PLP.part.nonpolar>
-22.6082

> <Gold.PLP.part.repulsive>
0.3743

> <Gold.PLP.ligand.clash>
0.0000

> <Gold.PLP.ligand.torsion>
0.8300

> <Gold.PLP.Chemscore.Hbond>
4.9272

> <Gold.PLP.Chemscore.CHOScore>
0.0000

> <Gold.PLP.Chemscore.Metal>
0.0000

> <Gold.Chemscore.Hbonds>
donor molecule, donor type, donor heavy atom, donor atom, acceptor molecule, acceptor atom, score
      L1  H     9    23       P1  7957  0.98
      L1  H    13    38       P1 10175  2.00
      P1  H  7989  7998       L1     6  0.95
      P1  H  7997  8010       L1     3  1.00

> <Gold.PLP.Chemscore.Internal.Correction>
0.1469

> <Gold.Rescore>
     Score         DG    S(hbond)    S(metal)    S(lipo)     H(rot)  DE(clash)    DE(int)     intcor
     13.12     -16.66       2.84        0.00      49.72       1.60       0.23       3.32       ----

> <Gold.Chemscore.Fitness>
13.1162

> <Gold.Chemscore.DG>
-16.6648

> <Gold.Chemscore.ZeroCoef>
-5.4800

> <Gold.Chemscore.Hbond>
2.8361

> <Gold.Chemscore.Metal>
0.0000

> <Gold.Chemscore.Lipo>
49.7229

> <Gold.Chemscore.Internal_Hbond>
0.0000

> <Gold.Chemscore.DEClash>
0.2293

> <Gold.Chemscore.DEInternal>
3.3193

> <Gold.Chemscore.Rot>
1.6036

> <Gold.Chemscore.Internal.Correction>
   9.000000E+99

> <Gold.Chemscore.Hbonds>
donor molecule, donor type, donor heavy atom, donor atom, acceptor molecule, acceptor atom, score
      L1  H     9    23       P1  7957  0.91
      L1  H    13    38       P1 10175  1.00
      P1  H  7989  7998       L1     6  0.20
      P1  H  7997  8010       L1     3  0.30

> <Gold.Chemscore.Hbond.Weighted>
-9.4726

> <Gold.Chemscore.Metal.Weighted>
-0.0000

> <Gold.Chemscore.Lipo.Weighted>
-5.8176

> <Gold.Chemscore.Internal_Hbond.Weighted>
0.0000

> <Gold.Chemscore.DEClash.Weighted>
0.2293

> <Gold.Chemscore.DEInternal.Weighted>
3.3193

> <Gold.Chemscore.Rot.Weighted>
4.1053

> <Gold.Chemscore.Internal.Correction.Weighted>
   9.000000E+99

> <Gold.Protein.RotatedTorsions>
[ 6907 6896 6895 6894 ] final   90.57 input  -60.11 | X-H torsion
[ 7974 7965 7964 7962 ] final  -71.57 input  175.53 | X-H torsion
[ 8008 7997 7996 7995 ] final   53.45 input   59.86 | X-H torsion
[ 10167 10162 10161 10158 ] final   47.52 input  -65.29 | X-H torsion
[ 10718 10713 10712 10709 ] final   48.33 input   66.30 | X-H torsion
[ 10763 10752 10751 10750 ] final -125.83 input  -60.55 | X-H torsion
[ 11005 11000 10999 10996 ] final   42.11 input  -57.11 | X-H torsion

> <Gold.Protein.ActiveResidues>
 VAL166  LYS551  ARG553  GLY616  TRP617  ASP618  TYR619  PRO620  LYS621  CYS622 
 ASP623  PHE694  ASN695  SER759  ASP760  ASP761  ALA762  ILE779  LEU786  VAL792 
 PHE793  MET794  SER795  GLU796  ALA797  LYS798  CYS799  TRP800  GLU811  SER814 

> <Gold.Protein.RotatedAtoms>
  152.5445  134.1791  159.8627 H   0  0  0  0  0  0  0  0  0  0  0  0  # atno 6907 bound_to 6896
  151.1795  133.4727  159.2601 H   0  0  0  0  0  0  0  0  0  0  0  0  # atno 6908 bound_to 6896
  151.1193  135.0082  159.8586 H   0  0  0  0  0  0  0  0  0  0  0  0  # atno 6909 bound_to 6896
  145.6764  140.9203  143.0856 H   0  0  0  0  0  0  0  0  0  0  0  0  # atno 7974 bound_to 7965
  155.4684  140.3464  155.4322 H   0  0  0  0  0  0  0  0  0  0  0  0  # atno 8008 bound_to 7997
  156.1116  140.1462  156.9359 H   0  0  0  0  0  0  0  0  0  0  0  0  # atno 8009 bound_to 7997
  154.4760  140.0885  156.7242 H   0  0  0  0  0  0  0  0  0  0  0  0  # atno 8010 bound_to 7997
  140.3027  144.2914  150.6215 H   0  0  0  0  0  0  0  0  0  0  0  0  # atno 10167 bound_to 10162
  157.4676  130.8235  149.7953 H   0  0  0  0  0  0  0  0  0  0  0  0  # atno 10718 bound_to 10713
  154.8740  135.4016  154.3331 H   0  0  0  0  0  0  0  0  0  0  0  0  # atno 10763 bound_to 10752
  153.4142  135.7021  153.6344 H   0  0  0  0  0  0  0  0  0  0  0  0  # atno 10764 bound_to 10752
  153.5033  135.3723  155.2521 H   0  0  0  0  0  0  0  0  0  0  0  0  # atno 10765 bound_to 10752
  140.1770  134.4151  155.8222 H   0  0  0  0  0  0  0  0  0  0  0  0  # atno 11005 bound_to 11000
  144.7040  139.8639  143.7435 LP  0  0  0  0  0  0  0  0  0  0  0  0  # atno 17320 bound_to 7965
  146.1002  139.3997  143.0351 LP  0  0  0  0  0  0  0  0  0  0  0  0  # atno 17321 bound_to 7965
  140.5637  143.2189  151.7721 LP  0  0  0  0  0  0  0  0  0  0  0  0  # atno 17342 bound_to 10162
  139.4911  144.4314  151.9868 LP  0  0  0  0  0  0  0  0  0  0  0  0  # atno 17343 bound_to 10162
  156.0058  130.3856  150.2438 LP  0  0  0  0  0  0  0  0  0  0  0  0  # atno 17370 bound_to 10713
  157.0619  131.0092  151.3219 LP  0  0  0  0  0  0  0  0  0  0  0  0  # atno 17371 bound_to 10713
  141.2221  133.6982  156.7864 LP  0  0  0  0  0  0  0  0  0  0  0  0  # atno 17394 bound_to 11000
  140.2311  134.8685  157.3477 LP  0  0  0  0  0  0  0  0  0  0  0  0  # atno 17395 bound_to 11000

$$$$
