AV-unprocessed.smi:1413|AV-procd|sdf|5757|dock2
  -GOLD-   22720 5393D 1   1.00000     0.00000
 Structure written by MMmdl.
 53 55  0  0  0  0  0  0  0  0  1 V2000
  152.1935  144.9762  158.3089 C   0  0  0  0  0  0  0  0  0  0  0  0
  152.1250  143.5998  158.9789 C   0  0  1  0  0  0  0  0  0  0  0  0
  151.7126  142.4968  157.9876 C   0  0  0  0  0  0  0  0  0  0  0  0
  151.7662  141.1965  158.6399 N   0  0  0  0  0  0  0  0  0  0  0  0
  151.2482  140.1564  157.8570 C   0  0  0  0  0  0  0  0  0  0  0  0
  151.0415  138.8624  158.3867 C   0  0  0  0  0  0  0  0  0  0  0  0
  150.5322  137.8599  157.5399 C   0  0  0  0  0  0  0  0  0  0  0  0
  150.2540  138.1718  156.1942 C   0  0  0  0  0  0  0  0  0  0  0  0
  149.7341  137.1423  155.3638 N   0  0  0  0  0  0  0  0  0  0  0  0
  149.4652  135.8657  155.6869 C   0  0  0  0  0  0  0  0  0  0  0  0
  149.6352  135.3639  156.7978 O   0  0  0  0  0  0  0  0  0  0  0  0
  148.9625  135.1991  154.6376 N   0  0  0  0  0  0  0  0  0  0  0  0
  148.5636  133.7928  154.6267 C   0  0  1  0  0  0  0  0  0  0  0  0
  147.7970  133.5054  153.3259 C   0  0  0  0  0  0  0  0  0  0  0  0
  149.8144  132.9064  154.7855 C   0  0  2  0  0  0  0  0  0  0  0  0
  149.5444  131.4024  154.7037 C   0  0  0  0  0  0  0  0  0  0  0  0
  150.7082  130.8373  155.4843 C   0  0  0  0  0  0  0  0  0  0  0  0
  150.8464  131.8550  156.6112 C   0  0  0  0  0  0  0  0  0  0  0  0
  150.3994  133.0967  156.0735 O   0  0  0  0  0  0  0  0  0  0  0  0
  150.4776  139.5035  155.7670 C   0  0  0  0  0  0  0  0  0  0  0  0
  150.9646  140.4700  156.5746 N   0  0  0  0  0  0  0  0  0  0  0  0
  153.0792  140.9071  159.2003 C   0  0  0  0  0  0  0  0  0  0  0  0
  153.5206  142.0304  160.1601 C   0  0  2  0  0  0  0  0  0  0  0  0
  152.7841  142.0080  161.5114 C   0  0  0  0  0  0  0  0  0  0  0  0
  153.4164  143.3013  159.5113 O   0  0  0  0  0  0  0  0  0  0  0  0
  151.2271  145.2571  157.8894 H   0  0  0  0  0  0  0  0  0  0  0  0
  152.9255  144.9860  157.5009 H   0  0  0  0  0  0  0  0  0  0  0  0
  152.4797  145.7446  159.0276 H   0  0  0  0  0  0  0  0  0  0  0  0
  151.3974  143.6546  159.7889 H   0  0  0  0  0  0  0  0  0  0  0  0
  150.7029  142.6813  157.6183 H   0  0  0  0  0  0  0  0  0  0  0  0
  152.3794  142.5030  157.1242 H   0  0  0  0  0  0  0  0  0  0  0  0
  151.2696  138.6370  159.4181 H   0  0  0  0  0  0  0  0  0  0  0  0
  150.3665  136.8628  157.9206 H   0  0  0  0  0  0  0  0  0  0  0  0
  149.4709  137.4287  154.4325 H   0  0  0  0  0  0  0  0  0  0  0  0
  148.8590  135.7008  153.7679 H   0  0  0  0  0  0  0  0  0  0  0  0
  147.8927  133.5842  155.4619 H   0  0  0  0  0  0  0  0  0  0  0  0
  147.4364  132.4772  153.2953 H   0  0  0  0  0  0  0  0  0  0  0  0
  148.4261  133.6639  152.4492 H   0  0  0  0  0  0  0  0  0  0  0  0
  146.9269  134.1561  153.2332 H   0  0  0  0  0  0  0  0  0  0  0  0
  150.5661  133.1741  154.0406 H   0  0  0  0  0  0  0  0  0  0  0  0
  148.6064  131.1503  155.2011 H   0  0  0  0  0  0  0  0  0  0  0  0
  149.5000  131.0320  153.6792 H   0  0  0  0  0  0  0  0  0  0  0  0
  150.5344  129.8229  155.8436 H   0  0  0  0  0  0  0  0  0  0  0  0
  151.6073  130.8340  154.8666 H   0  0  0  0  0  0  0  0  0  0  0  0
  150.1988  131.5883  157.4471 H   0  0  0  0  0  0  0  0  0  0  0  0
  151.8686  131.9269  156.9835 H   0  0  0  0  0  0  0  0  0  0  0  0
  150.2507  139.8286  154.7638 H   0  0  0  0  0  0  0  0  0  0  0  0
  153.0624  139.9476  159.7193 H   0  0  0  0  0  0  0  0  0  0  0  0
  153.8039  140.8184  158.3898 H   0  0  0  0  0  0  0  0  0  0  0  0
  154.5793  141.8847  160.3762 H   0  0  0  0  0  0  0  0  0  0  0  0
  152.9791  141.0753  162.0410 H   0  0  0  0  0  0  0  0  0  0  0  0
  151.7039  142.0933  161.3961 H   0  0  0  0  0  0  0  0  0  0  0  0
  153.1185  142.8259  162.1498 H   0  0  0  0  0  0  0  0  0  0  0  0
  1  2  1  0  0  0  0
  1 26  1  0  0  0  0
  1 27  1  0  0  0  0
  1 28  1  0  0  0  0
  2 25  1  0  0  0  0
  2  3  1  0  0  0  0
  2 29  1  0  0  0  0
  3  4  1  0  0  0  0
  3 30  1  0  0  0  0
  3 31  1  0  0  0  0
  4  5  1  0  0  0  0
  4 22  1  0  0  0  0
  5 21  1  0  0  0  0
  5  6  2  0  0  0  0
  6  7  1  0  0  0  0
  6 32  1  0  0  0  0
  7  8  2  0  0  0  0
  7 33  1  0  0  0  0
  8  9  1  0  0  0  0
  8 20  1  0  0  0  0
  9 10  1  0  0  0  0
  9 34  1  0  0  0  0
 10 11  2  0  0  0  0
 10 12  1  0  0  0  0
 12 13  1  0  0  0  0
 12 35  1  0  0  0  0
 13 14  1  0  0  0  0
 13 15  1  0  0  0  0
 13 36  1  0  0  0  0
 14 37  1  0  0  0  0
 14 38  1  0  0  0  0
 14 39  1  0  0  0  0
 15 19  1  0  0  0  0
 15 16  1  0  0  0  0
 15 40  1  0  0  0  0
 16 17  1  0  0  0  0
 16 41  1  0  0  0  0
 16 42  1  0  0  0  0
 17 18  1  0  0  0  0
 17 43  1  0  0  0  0
 17 44  1  0  0  0  0
 18 19  1  0  0  0  0
 18 45  1  0  0  0  0
 18 46  1  0  0  0  0
 20 21  2  0  0  0  0
 20 47  1  0  0  0  0
 22 23  1  0  0  0  0
 22 48  1  0  0  0  0
 22 49  1  0  0  0  0
 23 24  1  0  0  0  0
 23 25  1  0  0  0  0
 23 50  1  0  0  0  0
 24 51  1  0  0  0  0
 24 52  1  0  0  0  0
 24 53  1  0  0  0  0
M  END
> <s_m_source_file>
AV-unprocessed.smi

> <i_m_source_file_index>
1413

> <i_lp_mmshare_version>
43012

> <i_f3d_flags>
0

> <s_epik_input>
W0NIM11bQ0BASF0xW0NIMl1OKFtDSDJdW0NASF0oTzEpW0NIM10pYzJbY0hdW2NIXWMoW2NIXW4yKVtOSF1DKD1PKVtOSF1bQ0BIXShbQ0gzXSlbQ0BASF0zW0NIMl1bQ0gyXVtDSDJdTzM=

> <s_epik_cmdline>
J2VwaWtfcHl0aG9uJywgJy1waCcsICc3LjAnLCAnLXRuJywgJzgnLCAnLW1hJywgJzIwMCcsICctbWV0YWxfYmluZGluZycsICctaW1hZScsICc8aW5maWxlLm1hZT4nLCAnLW9tYWUnLCAnPG91dGZpbGUubWFlPic=

> <r_lp_tautomer_probability>
1

> <r_epik_Ionization_Penalty>
0.00271172

> <r_epik_Ionization_Penalty_Charging>
0

> <r_epik_Ionization_Penalty_Neutral>
0.00271172

> <r_epik_State_Penalty>
0.00186503

> <r_epik_Charging_Adjusted_Penalty>
0.00186503

> <i_epik_Tot_Q>
0

> <i_epik_Tot_abs_Q>
0

> <r_epik_Metal_State_Penalty>
-0

> <b_epik_Metal_Only>
0

> <s_lp_Force_Field>
OPLS_2005

> <r_lp_Energy>
38.2473

> <b_lp_Chiralities_Consistent>
1

> <s_lp_Variant>
AV-unprocessed.smi:1413-10

> <Gold.Version>
5.8.1

> <Gold.Id.Protein>
6NUR|6NUR_protein|mol2

> <Gold.PLP.Fitness>
43.8366

> <Gold.PLP.PLP>
-41.1093

> <Gold.PLP.part.hbond>
-1.0000

> <Gold.PLP.part.metal>
0.0000

> <Gold.PLP.part.buried>
-6.8761

> <Gold.PLP.part.nonpolar>
-33.1129

> <Gold.PLP.part.repulsive>
0.0442

> <Gold.PLP.ligand.clash>
0.0108

> <Gold.PLP.ligand.torsion>
0.1922

> <Gold.PLP.Chemscore.Hbond>
1.0000

> <Gold.PLP.Chemscore.CHOScore>
0.0000

> <Gold.PLP.Chemscore.Metal>
0.0000

> <Gold.Chemscore.Hbonds>
donor molecule, donor type, donor heavy atom, donor atom, acceptor molecule, acceptor atom, score
      L1  H    12    35       P1  7948  1.00

> <Gold.PLP.Chemscore.Internal.Correction>
0.1224

> <Gold.Rescore>
     Score         DG    S(hbond)    S(metal)    S(lipo)     H(rot)  DE(clash)    DE(int)     intcor
     14.95     -18.60       0.95        0.00     114.40       1.35       0.16       3.50       ----

> <Gold.Chemscore.Fitness>
14.9526

> <Gold.Chemscore.DG>
-18.6043

> <Gold.Chemscore.ZeroCoef>
-5.4800

> <Gold.Chemscore.Hbond>
0.9546

> <Gold.Chemscore.Metal>
0.0000

> <Gold.Chemscore.Lipo>
114.3977

> <Gold.Chemscore.Internal_Hbond>
0.0000

> <Gold.Chemscore.DEClash>
0.1559

> <Gold.Chemscore.DEInternal>
3.4958

> <Gold.Chemscore.Rot>
1.3471

> <Gold.Chemscore.Internal.Correction>
   9.000000E+99

> <Gold.Chemscore.Hbonds>
donor molecule, donor type, donor heavy atom, donor atom, acceptor molecule, acceptor atom, score
      L1  H    12    35       P1  7948  0.93

> <Gold.Chemscore.Hbond.Weighted>
-3.1883

> <Gold.Chemscore.Metal.Weighted>
-0.0000

> <Gold.Chemscore.Lipo.Weighted>
-13.3845

> <Gold.Chemscore.Internal_Hbond.Weighted>
0.0000

> <Gold.Chemscore.DEClash.Weighted>
0.1559

> <Gold.Chemscore.DEInternal.Weighted>
3.4958

> <Gold.Chemscore.Rot.Weighted>
3.4485

> <Gold.Chemscore.Internal.Correction.Weighted>
   9.000000E+99

> <Gold.Protein.RotatedTorsions>
[ 6907 6896 6895 6894 ] final   11.63 input  -60.11 | X-H torsion
[ 7974 7965 7964 7962 ] final   -4.09 input  175.53 | X-H torsion
[ 8008 7997 7996 7995 ] final  -78.48 input   59.86 | X-H torsion
[ 10167 10162 10161 10158 ] final  111.70 input  -65.29 | X-H torsion
[ 10718 10713 10712 10709 ] final  -10.98 input   66.30 | X-H torsion
[ 10763 10752 10751 10750 ] final -145.58 input  -60.55 | X-H torsion
[ 11005 11000 10999 10996 ] final  -36.12 input  -57.11 | X-H torsion

> <Gold.Protein.ActiveResidues>
 VAL166  LYS551  ARG553  GLY616  TRP617  ASP618  TYR619  PRO620  LYS621  CYS622 
 ASP623  PHE694  ASN695  SER759  ASP760  ASP761  ALA762  ILE779  LEU786  VAL792 
 PHE793  MET794  SER795  GLU796  ALA797  LYS798  CYS799  TRP800  GLU811  SER814 

> <Gold.Protein.RotatedAtoms>
  151.7574  135.0818  160.0340 H   0  0  0  0  0  0  0  0  0  0  0  0  # atno 6907 bound_to 6896
  152.3376  133.6025  159.5862 H   0  0  0  0  0  0  0  0  0  0  0  0  # atno 6908 bound_to 6896
  150.7459  133.9688  159.3581 H   0  0  0  0  0  0  0  0  0  0  0  0  # atno 6909 bound_to 6896
  146.2378  140.1819  142.8332 H   0  0  0  0  0  0  0  0  0  0  0  0  # atno 7974 bound_to 7965
  154.5694  140.0693  156.8941 H   0  0  0  0  0  0  0  0  0  0  0  0  # atno 8008 bound_to 7997
  155.2663  140.3362  155.4250 H   0  0  0  0  0  0  0  0  0  0  0  0  # atno 8009 bound_to 7997
  156.2106  140.1757  156.7689 H   0  0  0  0  0  0  0  0  0  0  0  0  # atno 8010 bound_to 7997
  139.6591  144.7129  151.1899 H   0  0  0  0  0  0  0  0  0  0  0  0  # atno 10167 bound_to 10162
  156.6656  130.4994  149.6016 H   0  0  0  0  0  0  0  0  0  0  0  0  # atno 10718 bound_to 10713
  154.8376  135.3409  154.6527 H   0  0  0  0  0  0  0  0  0  0  0  0  # atno 10763 bound_to 10752
  153.7140  135.6962  153.5034 H   0  0  0  0  0  0  0  0  0  0  0  0  # atno 10764 bound_to 10752
  153.2430  135.4378  155.0671 H   0  0  0  0  0  0  0  0  0  0  0  0  # atno 10765 bound_to 10752
  140.9850  133.7035  156.1749 H   0  0  0  0  0  0  0  0  0  0  0  0  # atno 11005 bound_to 11000
  144.9927  140.8562  143.5329 LP  0  0  0  0  0  0  0  0  0  0  0  0  # atno 17320 bound_to 7965
  145.1827  139.2343  143.5284 LP  0  0  0  0  0  0  0  0  0  0  0  0  # atno 17321 bound_to 7965
  140.7572  143.6023  150.8687 LP  0  0  0  0  0  0  0  0  0  0  0  0  # atno 17342 bound_to 10162
  139.9679  143.6090  152.2982 LP  0  0  0  0  0  0  0  0  0  0  0  0  # atno 17343 bound_to 10162
  156.1977  130.6600  151.1133 LP  0  0  0  0  0  0  0  0  0  0  0  0  # atno 17370 bound_to 10713
  157.7095  131.0741  150.6552 LP  0  0  0  0  0  0  0  0  0  0  0  0  # atno 17371 bound_to 10713
  140.7128  134.4443  157.5580 LP  0  0  0  0  0  0  0  0  0  0  0  0  # atno 17394 bound_to 11000
  139.8966  134.8655  156.2078 LP  0  0  0  0  0  0  0  0  0  0  0  0  # atno 17395 bound_to 11000

$$$$
