AV-unprocessed.smi:1644|AV-procd|sdf|6588|dock10
  -GOLD-   22720 7283D 1   1.00000     0.00000
 Structure written by MMmdl.
 50 52  0  0  0  0  0  0  0  0  2 V2000
  149.2780  130.9146  153.7030 C   0  0  0  0  0  0  0  0  0  0  0  0
  148.8406  132.0468  154.6386 C   0  0  0  0  0  0  0  0  0  0  0  0
  149.8826  133.1733  154.7265 C   0  0  0  0  0  0  0  0  0  0  0  0
  149.4580  134.3207  155.6640 C   0  0  2  0  0  0  0  0  0  0  0  0
  148.3231  135.0669  155.1578 N   0  0  0  0  0  0  0  0  0  0  0  0
  148.6017  136.3627  154.9673 C   0  0  0  0  0  0  0  0  0  0  0  0
  147.8118  137.2024  154.5387 O   0  0  0  0  0  0  0  0  0  0  0  0
  149.8840  136.5760  155.3148 N   0  0  0  0  0  0  0  0  0  0  0  0
  150.5622  137.8728  155.2220 C   0  0  0  0  0  0  0  0  0  0  0  0
  151.1063  138.3357  156.5892 C   0  0  2  0  0  0  0  0  0  0  0  0
  150.0228  138.7961  157.3733 O   0  0  0  0  0  0  0  0  0  0  0  0
  152.1270  139.4807  156.4361 C   0  0  0  0  0  0  0  0  0  0  0  0
  151.5296  140.8078  156.6426 N   0  0  0  0  0  0  0  0  0  0  0  0
  150.6858  141.5119  155.8406 C   0  0  0  0  0  0  0  0  0  0  0  0
  150.4133  142.6909  156.4647 N   0  3  0  0  0  0  0  0  0  0  0  0
  151.0954  142.7418  157.6822 C   0  0  0  0  0  0  0  0  0  0  0  0
  151.1378  143.7283  158.6602 C   0  0  0  0  0  0  0  0  0  0  0  0
  151.9403  143.4769  159.7960 C   0  0  0  0  0  0  0  0  0  0  0  0
  152.0126  144.5369  160.8820 C   0  0  0  0  0  0  0  0  0  0  0  0
  152.6658  142.2640  159.9230 C   0  0  0  0  0  0  0  0  0  0  0  0
  153.5275  142.0043  161.1472 C   0  0  0  0  0  0  0  0  0  0  0  0
  152.6080  141.2724  158.9177 C   0  0  0  0  0  0  0  0  0  0  0  0
  151.8134  141.5362  157.8041 C   0  0  0  0  0  0  0  0  0  0  0  0
  150.4760  135.4444  155.7179 C   0  0  0  0  0  0  0  0  0  0  0  0
  151.6467  135.2992  156.0695 O   0  0  0  0  0  0  0  0  0  0  0  0
  148.5242  130.1279  153.6666 H   0  0  0  0  0  0  0  0  0  0  0  0
  150.2124  130.4646  154.0395 H   0  0  0  0  0  0  0  0  0  0  0  0
  149.4276  131.2794  152.6865 H   0  0  0  0  0  0  0  0  0  0  0  0
  147.8879  132.4469  154.2903 H   0  0  0  0  0  0  0  0  0  0  0  0
  148.6593  131.6396  155.6339 H   0  0  0  0  0  0  0  0  0  0  0  0
  150.8253  132.7536  155.0811 H   0  0  0  0  0  0  0  0  0  0  0  0
  150.0810  133.5628  153.7264 H   0  0  0  0  0  0  0  0  0  0  0  0
  149.2507  133.9573  156.6713 H   0  0  0  0  0  0  0  0  0  0  0  0
  147.4264  134.6420  154.9705 H   0  0  0  0  0  0  0  0  0  0  0  0
  151.3887  137.7689  154.5165 H   0  0  0  0  0  0  0  0  0  0  0  0
  149.9102  138.6314  154.7843 H   0  0  0  0  0  0  0  0  0  0  0  0
  151.5867  137.5042  157.1071 H   0  0  0  0  0  0  0  0  0  0  0  0
  149.2162  138.5528  156.9448 H   0  0  0  0  0  0  0  0  0  0  0  0
  152.9175  139.3721  157.1798 H   0  0  0  0  0  0  0  0  0  0  0  0
  152.6184  139.4503  155.4633 H   0  0  0  0  0  0  0  0  0  0  0  0
  150.3025  141.1933  154.8817 H   0  0  0  0  0  0  0  0  0  0  0  0
  150.5835  144.6496  158.5555 H   0  0  0  0  0  0  0  0  0  0  0  0
  151.6348  144.1439  161.8262 H   0  0  0  0  0  0  0  0  0  0  0  0
  151.4175  145.4138  160.6244 H   0  0  0  0  0  0  0  0  0  0  0  0
  153.0418  144.8654  161.0296 H   0  0  0  0  0  0  0  0  0  0  0  0
  153.9928  141.0191  161.1058 H   0  0  0  0  0  0  0  0  0  0  0  0
  152.9268  142.0490  162.0560 H   0  0  0  0  0  0  0  0  0  0  0  0
  154.3230  142.7461  161.2196 H   0  0  0  0  0  0  0  0  0  0  0  0
  153.1672  140.3534  159.0115 H   0  0  0  0  0  0  0  0  0  0  0  0
  149.8083  143.4073  156.0841 H   0  0  0  0  0  0  0  0  0  0  0  0
  1  2  1  0  0  0  0
  1 26  1  0  0  0  0
  1 27  1  0  0  0  0
  1 28  1  0  0  0  0
  2  3  1  0  0  0  0
  2 29  1  0  0  0  0
  2 30  1  0  0  0  0
  3  4  1  0  0  0  0
  3 31  1  0  0  0  0
  3 32  1  0  0  0  0
  4 24  1  0  0  0  0
  4  5  1  0  0  0  0
  4 33  1  0  0  0  0
  5  6  1  0  0  0  0
  5 34  1  0  0  0  0
  6  7  2  0  0  0  0
  6  8  1  0  0  0  0
  8  9  1  0  0  0  0
  8 24  1  0  0  0  0
  9 10  1  0  0  0  0
  9 35  1  0  0  0  0
  9 36  1  0  0  0  0
 10 11  1  0  0  0  0
 10 12  1  0  0  0  0
 10 37  1  0  0  0  0
 11 38  1  0  0  0  0
 12 13  1  0  0  0  0
 12 39  1  0  0  0  0
 12 40  1  0  0  0  0
 13 23  1  0  0  0  0
 13 14  1  0  0  0  0
 14 15  2  0  0  0  0
 14 41  1  0  0  0  0
 15 16  1  0  0  0  0
 15 50  1  0  0  0  0
 16 23  2  0  0  0  0
 16 17  1  0  0  0  0
 17 18  2  0  0  0  0
 17 42  1  0  0  0  0
 18 19  1  0  0  0  0
 18 20  1  0  0  0  0
 19 43  1  0  0  0  0
 19 44  1  0  0  0  0
 19 45  1  0  0  0  0
 20 21  1  0  0  0  0
 20 22  2  0  0  0  0
 21 46  1  0  0  0  0
 21 47  1  0  0  0  0
 21 48  1  0  0  0  0
 22 23  1  0  0  0  0
 22 49  1  0  0  0  0
 24 25  2  0  0  0  0
M  CHG  1  15   1
M  END
> <s_m_source_file>
AV-unprocessed.smi

> <i_m_source_file_index>
1644

> <i_lp_mmshare_version>
43012

> <i_f3d_flags>
0

> <s_epik_input>
W0NIM11bQ0gyXVtDSDJdW0NAQEhdMVtOSF1DKD1PKU4oQzE9TylbQ0gyXVtDQEhdKFtPSF0pW0NIMl1uKFtjSF1uMiljKGMyMylbY0hdYyhbQ0gzXSljKFtjSF0zKVtDSDNd

> <s_epik_cmdline>
J2VwaWtfcHl0aG9uJywgJy1waCcsICc3LjAnLCAnLXRuJywgJzgnLCAnLW1hJywgJzIwMCcsICctbWV0YWxfYmluZGluZycsICctaW1hZScsICc8aW5maWxlLm1hZT4nLCAnLW9tYWUnLCAnPG91dGZpbGUubWFlPic=

> <r_lp_tautomer_probability>
1

> <r_epik_Ionization_Penalty>
1.06742

> <r_epik_Ionization_Penalty_Charging>
1.06736

> <r_epik_Ionization_Penalty_Neutral>
5.56132e-05

> <r_epik_State_Penalty>
1.12163

> <r_epik_Charging_Adjusted_Penalty>
2.18899

> <i_epik_Tot_Q>
1

> <i_epik_Tot_abs_Q>
1

> <r_epik_Metal_State_Penalty>
1.26636

> <b_epik_Metal_Only>
0

> <s_lp_Force_Field>
OPLS_2005

> <r_lp_Energy>
29.1926

> <b_lp_Chiralities_Consistent>
1

> <s_lp_Variant>
AV-unprocessed.smi:1644-5

> <Gold.Version>
5.8.1

> <Gold.Id.Protein>
6NUR|6NUR_protein|mol2

> <Gold.PLP.Fitness>
52.5072

> <Gold.PLP.PLP>
-44.9666

> <Gold.PLP.part.hbond>
-2.0000

> <Gold.PLP.part.metal>
0.0000

> <Gold.PLP.part.buried>
-5.9654

> <Gold.PLP.part.nonpolar>
-36.4407

> <Gold.PLP.part.repulsive>
0.1846

> <Gold.PLP.ligand.clash>
0.0000

> <Gold.PLP.ligand.torsion>
0.7840

> <Gold.PLP.Chemscore.Hbond>
3.0000

> <Gold.PLP.Chemscore.CHOScore>
0.0000

> <Gold.PLP.Chemscore.Metal>
0.0000

> <Gold.Chemscore.Hbonds>
donor molecule, donor type, donor heavy atom, donor atom, acceptor molecule, acceptor atom, score
      L1  H    15    50       P1  8028  2.00
      P1  H 10752 10763       L1    25  1.00

> <Gold.PLP.Chemscore.Internal.Correction>
0.1087

> <Gold.Rescore>
     Score         DG    S(hbond)    S(metal)    S(lipo)     H(rot)  DE(clash)    DE(int)     intcor
     18.04     -18.83       1.99        0.00     118.46       2.80       0.01       0.79       ----

> <Gold.Chemscore.Fitness>
18.0385

> <Gold.Chemscore.DG>
-18.8328

> <Gold.Chemscore.ZeroCoef>
-5.4800

> <Gold.Chemscore.Hbond>
1.9914

> <Gold.Chemscore.Metal>
0.0000

> <Gold.Chemscore.Lipo>
118.4566

> <Gold.Chemscore.Internal_Hbond>
0.0000

> <Gold.Chemscore.DEClash>
0.0064

> <Gold.Chemscore.DEInternal>
0.7879

> <Gold.Chemscore.Rot>
2.7961

> <Gold.Chemscore.Internal.Correction>
   9.000000E+99

> <Gold.Chemscore.Hbonds>
donor molecule, donor type, donor heavy atom, donor atom, acceptor molecule, acceptor atom, score
      L1  H    15    50       P1  8028  1.00
      P1  H 10752 10763       L1    25  0.98

> <Gold.Chemscore.Hbond.Weighted>
-6.6514

> <Gold.Chemscore.Metal.Weighted>
-0.0000

> <Gold.Chemscore.Lipo.Weighted>
-13.8594

> <Gold.Chemscore.Internal_Hbond.Weighted>
0.0000

> <Gold.Chemscore.DEClash.Weighted>
0.0064

> <Gold.Chemscore.DEInternal.Weighted>
0.7879

> <Gold.Chemscore.Rot.Weighted>
7.1580

> <Gold.Chemscore.Internal.Correction.Weighted>
   9.000000E+99

> <Gold.Protein.RotatedTorsions>
[ 6907 6896 6895 6894 ] final  152.40 input  -60.11 | X-H torsion
[ 7974 7965 7964 7962 ] final  104.46 input  175.53 | X-H torsion
[ 8008 7997 7996 7995 ] final  -20.21 input   59.86 | X-H torsion
[ 10167 10162 10161 10158 ] final -102.66 input  -65.29 | X-H torsion
[ 10718 10713 10712 10709 ] final   88.72 input   66.30 | X-H torsion
[ 10763 10752 10751 10750 ] final   80.35 input  -60.55 | X-H torsion
[ 11005 11000 10999 10996 ] final  -30.07 input  -57.11 | X-H torsion

> <Gold.Protein.ActiveResidues>
 VAL166  LYS551  ARG553  GLY616  TRP617  ASP618  TYR619  PRO620  LYS621  CYS622 
 ASP623  PHE694  ASN695  SER759  ASP760  ASP761  ALA762  ILE779  LEU786  VAL792 
 PHE793  MET794  SER795  GLU796  ALA797  LYS798  CYS799  TRP800  GLU811  SER814 

> <Gold.Protein.RotatedAtoms>
  152.0873  133.4182  159.4527 H   0  0  0  0  0  0  0  0  0  0  0  0  # atno 6907 bound_to 6896
  150.6862  134.2913  159.4677 H   0  0  0  0  0  0  0  0  0  0  0  0  # atno 6908 bound_to 6896
  152.0760  134.9502  160.0624 H   0  0  0  0  0  0  0  0  0  0  0  0  # atno 6909 bound_to 6896
  145.3325  139.2483  143.3653 H   0  0  0  0  0  0  0  0  0  0  0  0  # atno 7974 bound_to 7965
  154.4785  140.2068  155.9820 H   0  0  0  0  0  0  0  0  0  0  0  0  # atno 8008 bound_to 7997
  156.1128  140.3226  155.8066 H   0  0  0  0  0  0  0  0  0  0  0  0  # atno 8009 bound_to 7997
  155.4605  140.0524  157.2982 H   0  0  0  0  0  0  0  0  0  0  0  0  # atno 8010 bound_to 7997
  140.2282  143.3626  152.0910 H   0  0  0  0  0  0  0  0  0  0  0  0  # atno 10167 bound_to 10162
  157.6951  131.0305  150.3317 H   0  0  0  0  0  0  0  0  0  0  0  0  # atno 10718 bound_to 10713
  153.1026  135.4806  154.8894 H   0  0  0  0  0  0  0  0  0  0  0  0  # atno 10763 bound_to 10752
  154.7395  135.3079  154.8755 H   0  0  0  0  0  0  0  0  0  0  0  0  # atno 10764 bound_to 10752
  153.9367  135.6838  153.4798 H   0  0  0  0  0  0  0  0  0  0  0  0  # atno 10765 bound_to 10752
  140.9351  133.7313  156.0993 H   0  0  0  0  0  0  0  0  0  0  0  0  # atno 11005 bound_to 11000
  146.3040  140.3906  142.8694 LP  0  0  0  0  0  0  0  0  0  0  0  0  # atno 17320 bound_to 7965
  144.8853  140.7454  143.5961 LP  0  0  0  0  0  0  0  0  0  0  0  0  # atno 17321 bound_to 7965
  139.5119  144.6908  151.5763 LP  0  0  0  0  0  0  0  0  0  0  0  0  # atno 17342 bound_to 10162
  140.6204  143.9268  150.6522 LP  0  0  0  0  0  0  0  0  0  0  0  0  # atno 17343 bound_to 10162
  156.3790  130.3877  149.7116 LP  0  0  0  0  0  0  0  0  0  0  0  0  # atno 17370 bound_to 10713
  156.4505  130.7904  151.2925 LP  0  0  0  0  0  0  0  0  0  0  0  0  # atno 17371 bound_to 10713
  140.7810  134.3725  157.5487 LP  0  0  0  0  0  0  0  0  0  0  0  0  # atno 17394 bound_to 11000
  139.8806  134.9081  156.2961 LP  0  0  0  0  0  0  0  0  0  0  0  0  # atno 17395 bound_to 11000

$$$$
