AV-unprocessed.smi:196|AV-procd|sdf|1542|dock3
  -GOLD-   2262019403D 1   1.00000     0.00000
 Structure written by MMmdl.
 47 50  0  0  0  0  0  0  0  0  1 V2000
  147.8278  140.8556  153.9699 C   0  0  0  0  0  0  0  0  0  0  0  0
  148.5366  140.3220  155.2253 C   0  0  2  0  0  0  0  0  0  0  0  0
  148.8912  141.3925  156.1004 O   0  0  0  0  0  0  0  0  0  0  0  0
  150.2818  141.3502  156.3890 C   0  0  0  0  0  0  0  0  0  0  0  0
  150.6681  139.8905  156.1894 C   0  0  0  0  0  0  0  0  0  0  0  0
  149.8159  139.4851  154.9957 C   0  0  2  0  0  0  0  0  0  0  0  0
  150.4825  139.8917  153.8104 O   0  0  0  0  0  0  0  0  0  0  0  0
  149.5372  137.9663  154.9051 C   0  0  0  0  0  0  0  0  0  0  0  0
  148.7556  137.4536  156.0194 N   0  0  0  0  0  0  0  0  0  0  0  0
  147.4830  136.9300  155.9608 C   0  0  0  0  0  0  0  0  0  0  0  0
  146.9891  136.5348  157.1024 N   0  0  0  0  0  0  0  0  0  0  0  0
  147.9941  136.8185  158.0175 C   0  0  0  0  0  0  0  0  0  0  0  0
  148.1212  136.6603  159.4212 C   0  0  0  0  0  0  0  0  0  0  0  0
  147.1308  136.1255  160.1693 N   0  0  0  0  0  0  0  0  0  0  0  0
  147.5169  134.9866  160.9961 C   0  0  0  0  0  0  0  0  0  0  0  0
  146.8231  135.1833  162.3468 C   0  0  1  0  0  0  0  0  0  0  0  0
  147.6707  135.7613  163.1994 F   0  0  0  0  0  0  0  0  0  0  0  0
  145.6871  136.1501  162.0264 C   0  0  0  0  0  0  0  0  0  0  0  0
  146.2937  137.0467  160.9398 C   0  0  2  0  0  0  0  0  0  0  0  0
  145.2152  137.7133  160.0728 C   0  0  0  0  0  0  0  0  0  0  0  0
  144.3666  136.9013  159.4386 N   0  0  0  0  0  0  0  0  0  0  0  0
  145.1524  138.9369  159.9646 O   0  0  0  0  0  0  0  0  0  0  0  0
  149.2823  137.0552  160.0060 N   0  0  0  0  0  0  0  0  0  0  0  0
  150.2568  137.5843  159.2596 C   0  0  0  0  0  0  0  0  0  0  0  0
  150.2756  137.8011  157.9422 N   0  0  0  0  0  0  0  0  0  0  0  0
  149.1119  137.3970  157.3556 C   0  0  0  0  0  0  0  0  0  0  0  0
  146.4862  134.2506  162.8000 H   0  0  0  0  0  0  0  0  0  0  0  0
  146.9091  137.8137  161.4144 H   0  0  0  0  0  0  0  0  0  0  0  0
  147.5694  140.0437  153.2898 H   0  0  0  0  0  0  0  0  0  0  0  0
  148.4516  141.5668  153.4275 H   0  0  0  0  0  0  0  0  0  0  0  0
  146.9046  141.3698  154.2381 H   0  0  0  0  0  0  0  0  0  0  0  0
  147.8213  139.7183  155.7858 H   0  0  0  0  0  0  0  0  0  0  0  0
  150.8113  141.9892  155.6812 H   0  0  0  0  0  0  0  0  0  0  0  0
  150.4935  141.7079  157.3967 H   0  0  0  0  0  0  0  0  0  0  0  0
  151.7386  139.7446  156.0388 H   0  0  0  0  0  0  0  0  0  0  0  0
  150.3738  139.3222  157.0725 H   0  0  0  0  0  0  0  0  0  0  0  0
  149.8873  139.7906  153.0834 H   0  0  0  0  0  0  0  0  0  0  0  0
  149.0048  137.7333  153.9819 H   0  0  0  0  0  0  0  0  0  0  0  0
  150.4763  137.4131  154.8620 H   0  0  0  0  0  0  0  0  0  0  0  0
  146.9295  136.8460  155.0366 H   0  0  0  0  0  0  0  0  0  0  0  0
  147.1447  134.0838  160.5109 H   0  0  0  0  0  0  0  0  0  0  0  0
  148.5970  134.8753  161.1089 H   0  0  0  0  0  0  0  0  0  0  0  0
  144.8330  135.5917  161.6388 H   0  0  0  0  0  0  0  0  0  0  0  0
  145.3521  136.7104  162.9000 H   0  0  0  0  0  0  0  0  0  0  0  0
  143.6399  137.2877  158.8536 H   0  0  0  0  0  0  0  0  0  0  0  0
  144.4571  135.9012  159.5453 H   0  0  0  0  0  0  0  0  0  0  0  0
  151.1486  137.8760  159.7942 H   0  0  0  0  0  0  0  0  0  0  0  0
  1  2  1  0  0  0  0
  1 29  1  0  0  0  0
  1 30  1  0  0  0  0
  1 31  1  0  0  0  0
  2  6  1  0  0  0  0
  2  3  1  0  0  0  0
  2 32  1  0  0  0  0
  3  4  1  0  0  0  0
  4  5  1  0  0  0  0
  4 33  1  0  0  0  0
  4 34  1  0  0  0  0
  5  6  1  0  0  0  0
  5 35  1  0  0  0  0
  5 36  1  0  0  0  0
  6  7  1  0  0  0  0
  6  8  1  0  0  0  0
  7 37  1  0  0  0  0
  8  9  1  0  0  0  0
  8 38  1  0  0  0  0
  8 39  1  0  0  0  0
  9 26  1  0  0  0  0
  9 10  1  0  0  0  0
 10 11  2  0  0  0  0
 10 40  1  0  0  0  0
 11 12  1  0  0  0  0
 12 26  2  0  0  0  0
 12 13  1  0  0  0  0
 13 14  1  0  0  0  0
 13 23  2  0  0  0  0
 14 19  1  0  0  0  0
 14 15  1  0  0  0  0
 15 16  1  0  0  0  0
 15 41  1  0  0  0  0
 15 42  1  0  0  0  0
 16 27  1  0  0  0  0
 16 17  1  0  0  0  0
 16 18  1  0  0  0  0
 18 19  1  0  0  0  0
 18 43  1  0  0  0  0
 18 44  1  0  0  0  0
 19 28  1  0  0  0  0
 19 20  1  0  0  0  0
 20 21  1  0  0  0  0
 20 22  2  0  0  0  0
 21 45  1  0  0  0  0
 21 46  1  0  0  0  0
 23 24  1  0  0  0  0
 24 25  2  0  0  0  0
 24 47  1  0  0  0  0
 25 26  1  0  0  0  0
M  END
> <s_m_source_file>
AV-unprocessed.smi

> <i_m_source_file_index>
196

> <i_lp_mmshare_version>
43012

> <i_f3d_flags>
0

> <s_epik_input>
W0NIMl0xW0NIMl1PW0NAQEhdKFtDSDNdKVtDQEBdMShbT0hdKVtDSDJdbihbY0hdbjIpYyhjMjMpbltjSF1uYzNONFtDSDJdW0NASF0oRilbQ0gyXVtDQEhdNEMoPU8pW05IMl0=

> <s_epik_cmdline>
J2VwaWtfcHl0aG9uJywgJy1waCcsICc3LjAnLCAnLXRuJywgJzgnLCAnLW1hJywgJzIwMCcsICctbWV0YWxfYmluZGluZycsICctaW1hZScsICc8aW5maWxlLm1hZT4nLCAnLW9tYWUnLCAnPG91dGZpbGUubWFlPic=

> <r_lp_tautomer_probability>
1

> <r_epik_Ionization_Penalty>
0.000857933

> <r_epik_Ionization_Penalty_Charging>
0

> <r_epik_Ionization_Penalty_Neutral>
0.000857933

> <r_epik_State_Penalty>
0.000462053

> <r_epik_Charging_Adjusted_Penalty>
0.000462053

> <i_epik_Tot_Q>
0

> <i_epik_Tot_abs_Q>
0

> <r_epik_Metal_State_Penalty>
-0

> <b_epik_Metal_Only>
0

> <s_lp_Force_Field>
OPLS_2005

> <r_lp_Energy>
44.722

> <b_lp_Chiralities_Consistent>
1

> <s_lp_Variant>
AV-unprocessed.smi:196-15

> <Gold.Version>
5.8.1

> <Gold.Id.Protein>
6NUR|6NUR_protein|mol2

> <Gold.PLP.Fitness>
35.7538

> <Gold.PLP.PLP>
-29.5568

> <Gold.PLP.part.hbond>
-3.7400

> <Gold.PLP.part.metal>
0.0000

> <Gold.PLP.part.buried>
-2.8654

> <Gold.PLP.part.nonpolar>
-23.2400

> <Gold.PLP.part.repulsive>
0.1110

> <Gold.PLP.ligand.clash>
0.0000

> <Gold.PLP.ligand.torsion>
0.3431

> <Gold.PLP.Chemscore.Hbond>
2.2315

> <Gold.PLP.Chemscore.CHOScore>
0.0000

> <Gold.PLP.Chemscore.Metal>
0.0000

> <Gold.Chemscore.Hbonds>
donor molecule, donor type, donor heavy atom, donor atom, acceptor molecule, acceptor atom, score
      L1  H     7    37       P1  7957  0.91
      P1  H  6931  6943       L1    23  0.23
      P1  H  6934  6947       L1    22  0.08
      P1  H  7989  7998       L1     7  0.98

> <Gold.PLP.Chemscore.Internal.Correction>
0.1884

> <Gold.Rescore>
     Score         DG    S(hbond)    S(metal)    S(lipo)     H(rot)  DE(clash)    DE(int)     intcor
      8.21     -10.74       1.68        0.00      63.52       3.04       0.68       1.84       ----

> <Gold.Chemscore.Fitness>
8.2133

> <Gold.Chemscore.DG>
-10.7408

> <Gold.Chemscore.ZeroCoef>
-5.4800

> <Gold.Chemscore.Hbond>
1.6812

> <Gold.Chemscore.Metal>
0.0000

> <Gold.Chemscore.Lipo>
63.5155

> <Gold.Chemscore.Internal_Hbond>
0.0000

> <Gold.Chemscore.DEClash>
0.6827

> <Gold.Chemscore.DEInternal>
1.8447

> <Gold.Chemscore.Rot>
3.0413

> <Gold.Chemscore.Internal.Correction>
   9.000000E+99

> <Gold.Chemscore.Hbonds>
donor molecule, donor type, donor heavy atom, donor atom, acceptor molecule, acceptor atom, score
      L1  H     7    37       P1  7957  0.88
      P1  H  6931  6943       L1    23  0.15
      P1  H  7989  7998       L1     7  0.68

> <Gold.Chemscore.Hbond.Weighted>
-5.6151

> <Gold.Chemscore.Metal.Weighted>
-0.0000

> <Gold.Chemscore.Lipo.Weighted>
-7.4313

> <Gold.Chemscore.Internal_Hbond.Weighted>
0.0000

> <Gold.Chemscore.DEClash.Weighted>
0.6827

> <Gold.Chemscore.DEInternal.Weighted>
1.8447

> <Gold.Chemscore.Rot.Weighted>
7.7856

> <Gold.Chemscore.Internal.Correction.Weighted>
   9.000000E+99

> <Gold.Protein.RotatedTorsions>
[ 6907 6896 6895 6894 ] final  108.85 input  -60.11 | X-H torsion
[ 7974 7965 7964 7962 ] final  131.94 input  175.53 | X-H torsion
[ 8008 7997 7996 7995 ] final -102.32 input   59.86 | X-H torsion
[ 10167 10162 10161 10158 ] final   21.87 input  -65.29 | X-H torsion
[ 10718 10713 10712 10709 ] final   15.71 input   66.30 | X-H torsion
[ 10763 10752 10751 10750 ] final  -73.85 input  -60.55 | X-H torsion
[ 11005 11000 10999 10996 ] final   82.91 input  -57.11 | X-H torsion

> <Gold.Protein.ActiveResidues>
 VAL166  LYS551  ARG553  GLY616  TRP617  ASP618  TYR619  PRO620  LYS621  CYS622 
 ASP623  PHE694  ASN695  SER759  ASP760  ASP761  ALA762  ILE779  LEU786  VAL792 
 PHE793  MET794  SER795  GLU796  ALA797  LYS798  CYS799  TRP800  GLU811  SER814 

> <Gold.Protein.RotatedAtoms>
  152.5094  133.9029  159.7449 H   0  0  0  0  0  0  0  0  0  0  0  0  # atno 6907 bound_to 6896
  150.9441  133.6615  159.2791 H   0  0  0  0  0  0  0  0  0  0  0  0  # atno 6908 bound_to 6896
  151.3916  135.0962  159.9580 H   0  0  0  0  0  0  0  0  0  0  0  0  # atno 6909 bound_to 6896
  145.0020  139.4303  143.5287 H   0  0  0  0  0  0  0  0  0  0  0  0  # atno 7974 bound_to 7965
  154.8551  140.0429  157.1629 H   0  0  0  0  0  0  0  0  0  0  0  0  # atno 8008 bound_to 7997
  154.8901  140.2985  155.5355 H   0  0  0  0  0  0  0  0  0  0  0  0  # atno 8009 bound_to 7997
  156.2997  140.2395  156.3915 H   0  0  0  0  0  0  0  0  0  0  0  0  # atno 8010 bound_to 7997
  140.5393  143.9706  150.6510 H   0  0  0  0  0  0  0  0  0  0  0  0  # atno 10167 bound_to 10162
  157.0574  130.6295  149.5779 H   0  0  0  0  0  0  0  0  0  0  0  0  # atno 10718 bound_to 10713
  154.4651  135.5884  153.6282 H   0  0  0  0  0  0  0  0  0  0  0  0  # atno 10763 bound_to 10752
  152.9827  135.6053  154.3438 H   0  0  0  0  0  0  0  0  0  0  0  0  # atno 10764 bound_to 10752
  154.3314  135.2842  155.2449 H   0  0  0  0  0  0  0  0  0  0  0  0  # atno 10765 bound_to 10752
  139.9048  134.8106  156.2238 H   0  0  0  0  0  0  0  0  0  0  0  0  # atno 11005 bound_to 11000
  146.3454  139.9414  142.8740 LP  0  0  0  0  0  0  0  0  0  0  0  0  # atno 17320 bound_to 7965
  145.2140  140.9907  143.4084 LP  0  0  0  0  0  0  0  0  0  0  0  0  # atno 17321 bound_to 7965
  140.3102  143.3203  152.0887 LP  0  0  0  0  0  0  0  0  0  0  0  0  # atno 17342 bound_to 10162
  139.4982  144.6641  151.6396 LP  0  0  0  0  0  0  0  0  0  0  0  0  # atno 17343 bound_to 10162
  155.9989  130.5063  150.7587 LP  0  0  0  0  0  0  0  0  0  0  0  0  # atno 17370 bound_to 10713
  157.4982  131.0916  151.0346 LP  0  0  0  0  0  0  0  0  0  0  0  0  # atno 17371 bound_to 10713
  141.0389  133.6948  156.1562 LP  0  0  0  0  0  0  0  0  0  0  0  0  # atno 17394 bound_to 11000
  140.6985  134.4589  157.5587 LP  0  0  0  0  0  0  0  0  0  0  0  0  # atno 17395 bound_to 11000

$$$$
