AV-unprocessed.smi:1159|AV-procd|sdf|4915|dock4
  -GOLD-   22720 3493D 1   1.00000     0.00000
 Structure written by MMmdl.
 41 42  0  0  0  0  0  0  0  0  1 V2000
  146.5040  136.7831  153.0814 O   0  0  0  0  0  0  0  0  0  0  0  0
  145.7291  137.6198  152.6180 C   0  0  0  0  0  0  0  0  0  0  0  0
  145.8854  138.9520  152.7020 N   0  0  0  0  0  0  0  0  0  0  0  0
  146.9549  139.6758  153.2948 C   0  0  0  0  0  0  0  0  0  0  0  0
  146.9278  141.0683  153.5444 C   0  0  0  0  0  0  0  0  0  0  0  0
  148.0434  141.6715  154.1557 C   0  0  0  0  0  0  0  0  0  0  0  0
  149.1469  140.8683  154.5055 C   0  0  0  0  0  0  0  0  0  0  0  0
  150.2366  141.4689  155.1012 O   0  0  0  0  0  0  0  0  0  0  0  0
  151.2076  140.6410  155.7362 C   0  0  0  0  0  0  0  0  0  0  0  0
  151.2138  140.9343  157.2408 C   0  0  0  0  0  0  0  0  0  0  0  0
  152.1908  140.2526  157.8382 F   0  0  0  0  0  0  0  0  0  0  0  0
  151.4198  142.2363  157.4349 F   0  0  0  0  0  0  0  0  0  0  0  0
  150.0413  140.6022  157.7805 F   0  0  0  0  0  0  0  0  0  0  0  0
  149.1740  139.5309  154.2827 N   0  0  0  0  0  0  0  0  0  0  0  0
  148.1002  138.9585  153.6980 C   0  0  0  0  0  0  0  0  0  0  0  0
  144.5927  137.3045  151.9801 N   0  0  0  0  0  0  0  0  0  0  0  0
  144.1005  135.9487  151.7290 C   0  0  1  0  0  0  0  0  0  0  0  0
  145.0437  135.2187  150.7465 C   0  0  0  0  0  0  0  0  0  0  0  0
  144.3874  134.0460  150.0003 C   0  0  0  0  0  0  0  0  0  0  0  0
  143.9181  132.8924  150.8989 C   0  0  0  0  0  0  0  0  0  0  0  0
  142.7777  133.2810  151.8552 C   0  0  0  0  0  0  0  0  0  0  0  0
  143.2519  134.0044  153.0283 N   0  0  0  0  0  0  0  0  0  0  0  0
  143.8623  135.1993  153.0539 C   0  0  0  0  0  0  0  0  0  0  0  0
  144.2330  135.6878  154.1210 O   0  0  0  0  0  0  0  0  0  0  0  0
  145.1196  139.5130  152.3580 H   0  0  0  0  0  0  0  0  0  0  0  0
  146.0741  141.6789  153.2944 H   0  0  0  0  0  0  0  0  0  0  0  0
  148.0506  142.7327  154.3565 H   0  0  0  0  0  0  0  0  0  0  0  0
  150.9738  139.5882  155.5696 H   0  0  0  0  0  0  0  0  0  0  0  0
  152.1982  140.8337  155.3210 H   0  0  0  0  0  0  0  0  0  0  0  0
  148.1619  137.8915  153.5414 H   0  0  0  0  0  0  0  0  0  0  0  0
  144.0202  138.0586  151.6292 H   0  0  0  0  0  0  0  0  0  0  0  0
  143.1208  136.0481  151.2573 H   0  0  0  0  0  0  0  0  0  0  0  0
  145.3984  135.9217  149.9914 H   0  0  0  0  0  0  0  0  0  0  0  0
  145.9372  134.8756  151.2701 H   0  0  0  0  0  0  0  0  0  0  0  0
  143.5467  134.4146  149.4111 H   0  0  0  0  0  0  0  0  0  0  0  0
  145.1040  133.6527  149.2787 H   0  0  0  0  0  0  0  0  0  0  0  0
  143.5643  132.0879  150.2535 H   0  0  0  0  0  0  0  0  0  0  0  0
  144.7588  132.4785  151.4576 H   0  0  0  0  0  0  0  0  0  0  0  0
  142.0074  133.8552  151.3385 H   0  0  0  0  0  0  0  0  0  0  0  0
  142.2914  132.3744  152.2163 H   0  0  0  0  0  0  0  0  0  0  0  0
  143.1115  133.5454  153.9169 H   0  0  0  0  0  0  0  0  0  0  0  0
  1  2  2  0  0  0  0
  2  3  1  0  0  0  0
  2 16  1  0  0  0  0
  3  4  1  0  0  0  0
  3 25  1  0  0  0  0
  4 15  1  0  0  0  0
  4  5  2  0  0  0  0
  5  6  1  0  0  0  0
  5 26  1  0  0  0  0
  6  7  2  0  0  0  0
  6 27  1  0  0  0  0
  7  8  1  0  0  0  0
  7 14  1  0  0  0  0
  8  9  1  0  0  0  0
  9 10  1  0  0  0  0
  9 28  1  0  0  0  0
  9 29  1  0  0  0  0
 10 11  1  0  0  0  0
 10 12  1  0  0  0  0
 10 13  1  0  0  0  0
 14 15  2  0  0  0  0
 15 30  1  0  0  0  0
 16 17  1  0  0  0  0
 16 31  1  0  0  0  0
 17 23  1  0  0  0  0
 17 18  1  0  0  0  0
 17 32  1  0  0  0  0
 18 19  1  0  0  0  0
 18 33  1  0  0  0  0
 18 34  1  0  0  0  0
 19 20  1  0  0  0  0
 19 35  1  0  0  0  0
 19 36  1  0  0  0  0
 20 21  1  0  0  0  0
 20 37  1  0  0  0  0
 20 38  1  0  0  0  0
 21 22  1  0  0  0  0
 21 39  1  0  0  0  0
 21 40  1  0  0  0  0
 22 23  1  0  0  0  0
 22 41  1  0  0  0  0
 23 24  2  0  0  0  0
M  END
> <s_m_source_file>
AV-unprocessed.smi

> <i_m_source_file_index>
1159

> <i_lp_mmshare_version>
43012

> <i_f3d_flags>
0

> <s_epik_input>
Tz1DMVtOSF1bQ0gyXVtDSDJdW0NIMl1bQ0gyXVtDQEhdMVtOSF1DKD1PKVtOSF1jMltjSF1bY0hdYyhuW2NIXTIpT1tDSDJdQyhGKShGKUY=

> <s_epik_cmdline>
J2VwaWtfcHl0aG9uJywgJy1waCcsICc3LjAnLCAnLXRuJywgJzgnLCAnLW1hJywgJzIwMCcsICctbWV0YWxfYmluZGluZycsICctaW1hZScsICc8aW5maWxlLm1hZT4nLCAnLW9tYWUnLCAnPG91dGZpbGUubWFlPic=

> <r_lp_tautomer_probability>
1

> <r_epik_Ionization_Penalty>
3.53205e-05

> <r_epik_Ionization_Penalty_Charging>
0

> <r_epik_Ionization_Penalty_Neutral>
3.53205e-05

> <r_epik_State_Penalty>
-0

> <r_epik_Charging_Adjusted_Penalty>
0

> <i_epik_Tot_Q>
0

> <i_epik_Tot_abs_Q>
0

> <r_epik_Metal_State_Penalty>
-0

> <b_epik_Metal_Only>
0

> <s_lp_Force_Field>
OPLS_2005

> <r_lp_Energy>
11.134

> <b_lp_Chiralities_Consistent>
1

> <s_lp_Variant>
AV-unprocessed.smi:1159-2

> <Gold.Version>
5.8.1

> <Gold.Id.Protein>
6NUR|6NUR_protein|mol2

> <Gold.PLP.Fitness>
49.3683

> <Gold.PLP.PLP>
-40.5155

> <Gold.PLP.part.hbond>
-4.0396

> <Gold.PLP.part.metal>
0.0000

> <Gold.PLP.part.buried>
-3.7340

> <Gold.PLP.part.nonpolar>
-35.3418

> <Gold.PLP.part.repulsive>
2.3031

> <Gold.PLP.ligand.clash>
0.0000

> <Gold.PLP.ligand.torsion>
0.6097

> <Gold.PLP.Chemscore.Hbond>
2.3957

> <Gold.PLP.Chemscore.CHOScore>
0.9482

> <Gold.PLP.Chemscore.Metal>
0.0000

> <Gold.Chemscore.Hbonds>
donor molecule, donor type, donor heavy atom, donor atom, acceptor molecule, acceptor atom, score
      L1  H     3    25       P1 10175  1.00
      L1  H    16    31       P1 10171  0.53
      L1  H    22    41       P1 10957  0.86
      L1  C    15    30       P1  7948  1.00

> <Gold.PLP.Chemscore.Internal.Correction>
0.0407

> <Gold.Rescore>
     Score         DG    S(hbond)    S(metal)    S(lipo)     H(rot)  DE(clash)    DE(int)     intcor
     12.09     -17.78       2.52        0.00      72.64       1.81       1.19       4.50       ----

> <Gold.Chemscore.Fitness>
12.0949

> <Gold.Chemscore.DG>
-17.7848

> <Gold.Chemscore.ZeroCoef>
-5.4800

> <Gold.Chemscore.Hbond>
2.5240

> <Gold.Chemscore.Metal>
0.0000

> <Gold.Chemscore.Lipo>
72.6365

> <Gold.Chemscore.Internal_Hbond>
0.0000

> <Gold.Chemscore.DEClash>
1.1870

> <Gold.Chemscore.DEInternal>
4.5029

> <Gold.Chemscore.Rot>
1.8062

> <Gold.Chemscore.Internal.Correction>
   9.000000E+99

> <Gold.Chemscore.Hbonds>
donor molecule, donor type, donor heavy atom, donor atom, acceptor molecule, acceptor atom, score
      L1  H     3    25       P1 10175  0.99
      L1  H    16    31       P1 10171  0.54
      L1  H    22    41       P1 10957  0.79

> <Gold.Chemscore.Hbond.Weighted>
-8.4302

> <Gold.Chemscore.Metal.Weighted>
-0.0000

> <Gold.Chemscore.Lipo.Weighted>
-8.4985

> <Gold.Chemscore.Internal_Hbond.Weighted>
0.0000

> <Gold.Chemscore.DEClash.Weighted>
1.1870

> <Gold.Chemscore.DEInternal.Weighted>
4.5029

> <Gold.Chemscore.Rot.Weighted>
4.6238

> <Gold.Chemscore.Internal.Correction.Weighted>
   9.000000E+99

> <Gold.Protein.RotatedTorsions>
[ 6907 6896 6895 6894 ] final  -45.99 input  -60.11 | X-H torsion
[ 7974 7965 7964 7962 ] final -149.26 input  175.53 | X-H torsion
[ 8008 7997 7996 7995 ] final   23.12 input   59.86 | X-H torsion
[ 10167 10162 10161 10158 ] final -130.74 input  -65.29 | X-H torsion
[ 10718 10713 10712 10709 ] final   84.92 input   66.30 | X-H torsion
[ 10763 10752 10751 10750 ] final -118.45 input  -60.55 | X-H torsion
[ 11005 11000 10999 10996 ] final  170.19 input  -57.11 | X-H torsion

> <Gold.Protein.ActiveResidues>
 VAL166  LYS551  ARG553  GLY616  TRP617  ASP618  TYR619  PRO620  LYS621  CYS622 
 ASP623  PHE694  ASN695  SER759  ASP760  ASP761  ALA762  ILE779  LEU786  VAL792 
 PHE793  MET794  SER795  GLU796  ALA797  LYS798  CYS799  TRP800  GLU811  SER814 

> <Gold.Protein.RotatedAtoms>
  150.9160  134.8578  159.7457 H   0  0  0  0  0  0  0  0  0  0  0  0  # atno 6907 bound_to 6896
  152.4969  134.4288  159.9515 H   0  0  0  0  0  0  0  0  0  0  0  0  # atno 6908 bound_to 6896
  151.4326  133.3626  159.2806 H   0  0  0  0  0  0  0  0  0  0  0  0  # atno 6909 bound_to 6896
  144.7978  140.5088  143.5728 H   0  0  0  0  0  0  0  0  0  0  0  0  # atno 7974 bound_to 7965
  154.9761  140.3096  155.4967 H   0  0  0  0  0  0  0  0  0  0  0  0  # atno 8008 bound_to 7997
  156.2959  140.2275  156.4796 H   0  0  0  0  0  0  0  0  0  0  0  0  # atno 8009 bound_to 7997
  154.7832  140.0444  157.1132 H   0  0  0  0  0  0  0  0  0  0  0  0  # atno 8010 bound_to 7997
  139.9261  143.6325  152.2541 H   0  0  0  0  0  0  0  0  0  0  0  0  # atno 10167 bound_to 10162
  157.6906  131.0153  150.2745 H   0  0  0  0  0  0  0  0  0  0  0  0  # atno 10718 bound_to 10713
  154.8588  135.4273  154.2142 H   0  0  0  0  0  0  0  0  0  0  0  0  # atno 10763 bound_to 10752
  153.3161  135.6979  153.7078 H   0  0  0  0  0  0  0  0  0  0  0  0  # atno 10764 bound_to 10752
  153.6151  135.3512  155.2966 H   0  0  0  0  0  0  0  0  0  0  0  0  # atno 10765 bound_to 10752
  140.3057  134.7558  157.3951 H   0  0  0  0  0  0  0  0  0  0  0  0  # atno 11005 bound_to 11000
  145.5629  139.1480  143.3331 LP  0  0  0  0  0  0  0  0  0  0  0  0  # atno 17320 bound_to 7965
  146.2251  140.5764  142.9000 LP  0  0  0  0  0  0  0  0  0  0  0  0  # atno 17321 bound_to 7965
  139.6821  144.7654  151.1590 LP  0  0  0  0  0  0  0  0  0  0  0  0  # atno 17342 bound_to 10162
  140.7649  143.5710  150.8995 LP  0  0  0  0  0  0  0  0  0  0  0  0  # atno 17343 bound_to 10162
  156.3302  130.3799  149.7498 LP  0  0  0  0  0  0  0  0  0  0  0  0  # atno 17370 bound_to 10713
  156.5040  130.8141  151.3143 LP  0  0  0  0  0  0  0  0  0  0  0  0  # atno 17371 bound_to 10713
  140.1069  134.5397  155.8301 LP  0  0  0  0  0  0  0  0  0  0  0  0  # atno 17394 bound_to 11000
  141.2119  133.6712  156.6616 LP  0  0  0  0  0  0  0  0  0  0  0  0  # atno 17395 bound_to 11000

$$$$
