AV-unprocessed.smi:2083|AV-procd|sdf|8506|dock8
  -GOLD-   2272011223D 1   1.00000     0.00000
 Structure written by MMmdl.
 44 45  0  0  0  0  0  0  0  0  3 V2000
  149.1364  141.1639  154.4328 C   0  0  0  0  0  0  0  0  0  0  0  0
  149.6130  139.7530  154.4870 C   0  0  0  0  0  0  0  0  0  0  0  0
  148.9650  138.5508  154.4502 C   0  0  0  0  0  0  0  0  0  0  0  0
  150.0251  137.6108  154.5508 C   0  0  0  0  0  0  0  0  0  0  0  0
  149.7566  136.2167  154.5549 N   0  0  0  0  0  0  0  0  0  0  0  0
  150.4109  135.2332  155.1992 C   0  0  0  0  0  0  0  0  0  0  0  0
  151.4007  135.4920  155.8945 O   0  0  0  0  0  0  0  0  0  0  0  0
  149.8495  134.0134  154.9777 N   0  5  0  0  0  0  0  0  0  0  0  0
  149.2407  133.5985  153.7150 C   0  0  0  0  0  0  0  0  0  0  0  0
  148.5713  132.1950  153.8691 C   0  0  2  0  0  0  0  0  0  0  0  0
  149.5899  131.0483  154.0740 C   0  0  0  0  0  0  0  0  0  0  0  0
  147.5898  131.8212  152.7934 N   0  3  1  0  0  0  0  0  0  0  0  0
  146.9032  130.5134  152.9912 C   0  0  0  0  0  0  0  0  0  0  0  0
  146.2300  130.0536  151.6889 C   0  0  0  0  0  0  0  0  0  0  0  0
  145.2544  131.1178  151.1681 C   0  0  0  0  0  0  0  0  0  0  0  0
  145.9725  132.4682  150.9986 C   0  0  1  0  0  0  0  0  0  0  0  0
  145.0119  133.5548  150.4952 C   0  0  0  0  0  0  0  0  0  0  0  0
  146.6499  132.8820  152.3201 C   0  0  0  0  0  0  0  0  0  0  0  0
  151.2143  138.1889  154.6362 N   0  0  0  0  0  0  0  0  0  0  0  0
  150.9562  139.5643  154.5955 O   0  0  0  0  0  0  0  0  0  0  0  0
  148.0558  141.2154  154.5670 H   0  0  0  0  0  0  0  0  0  0  0  0
  149.3804  141.6166  153.4719 H   0  0  0  0  0  0  0  0  0  0  0  0
  149.6020  141.7604  155.2174 H   0  0  0  0  0  0  0  0  0  0  0  0
  147.9031  138.3737  154.3678 H   0  0  0  0  0  0  0  0  0  0  0  0
  148.9599  135.9257  154.0084 H   0  0  0  0  0  0  0  0  0  0  0  0
  148.4842  134.3170  153.3988 H   0  0  0  0  0  0  0  0  0  0  0  0
  149.9646  133.5569  152.9002 H   0  0  0  0  0  0  0  0  0  0  0  0
  147.9852  132.2251  154.7892 H   0  0  0  0  0  0  0  0  0  0  0  0
  150.1829  131.1836  154.9805 H   0  0  0  0  0  0  0  0  0  0  0  0
  150.2887  130.9478  153.2424 H   0  0  0  0  0  0  0  0  0  0  0  0
  149.0754  130.0929  154.1819 H   0  0  0  0  0  0  0  0  0  0  0  0
  147.6216  129.7561  153.3067 H   0  0  0  0  0  0  0  0  0  0  0  0
  146.1571  130.5941  153.7829 H   0  0  0  0  0  0  0  0  0  0  0  0
  146.9918  129.8534  150.9341 H   0  0  0  0  0  0  0  0  0  0  0  0
  145.7032  129.1133  151.8536 H   0  0  0  0  0  0  0  0  0  0  0  0
  144.8268  130.7942  150.2186 H   0  0  0  0  0  0  0  0  0  0  0  0
  144.4222  131.2240  151.8655 H   0  0  0  0  0  0  0  0  0  0  0  0
  146.7518  132.3445  150.2450 H   0  0  0  0  0  0  0  0  0  0  0  0
  144.2065  133.7337  151.2083 H   0  0  0  0  0  0  0  0  0  0  0  0
  144.5585  133.2688  149.5459 H   0  0  0  0  0  0  0  0  0  0  0  0
  145.5342  134.4991  150.3388 H   0  0  0  0  0  0  0  0  0  0  0  0
  145.8866  133.0751  153.0758 H   0  0  0  0  0  0  0  0  0  0  0  0
  147.1852  133.8183  152.1662 H   0  0  0  0  0  0  0  0  0  0  0  0
  148.1885  131.6541  151.9979 H   0  0  0  0  0  0  0  0  0  0  0  0
  1  2  1  0  0  0  0
  1 21  1  0  0  0  0
  1 22  1  0  0  0  0
  1 23  1  0  0  0  0
  2 20  1  0  0  0  0
  2  3  2  0  0  0  0
  3  4  1  0  0  0  0
  3 24  1  0  0  0  0
  4  5  1  0  0  0  0
  4 19  2  0  0  0  0
  5  6  1  0  0  0  0
  5 25  1  0  0  0  0
  6  7  2  0  0  0  0
  6  8  1  0  0  0  0
  8  9  1  0  0  0  0
  9 10  1  0  0  0  0
  9 26  1  0  0  0  0
  9 27  1  0  0  0  0
 10 11  1  0  0  0  0
 10 12  1  0  0  0  0
 10 28  1  0  0  0  0
 11 29  1  0  0  0  0
 11 30  1  0  0  0  0
 11 31  1  0  0  0  0
 12 18  1  0  0  0  0
 12 13  1  0  0  0  0
 12 44  1  0  0  0  0
 13 14  1  0  0  0  0
 13 32  1  0  0  0  0
 13 33  1  0  0  0  0
 14 15  1  0  0  0  0
 14 34  1  0  0  0  0
 14 35  1  0  0  0  0
 15 16  1  0  0  0  0
 15 36  1  0  0  0  0
 15 37  1  0  0  0  0
 16 17  1  0  0  0  0
 16 18  1  0  0  0  0
 16 38  1  0  0  0  0
 17 39  1  0  0  0  0
 17 40  1  0  0  0  0
 17 41  1  0  0  0  0
 18 42  1  0  0  0  0
 18 43  1  0  0  0  0
 19 20  1  0  0  0  0
M  CHG  1   8  -1
M  CHG  1  12   1
M  END
> <s_m_source_file>
AV-unprocessed.smi

> <i_m_source_file_index>
2083

> <i_lp_mmshare_version>
43012

> <i_f3d_flags>
0

> <s_epik_input>
W0NIM11jMVtjSF1jKG5vMSlbTkhdQyg9TylbTkhdW0NIMl1bQ0BIXShbQ0gzXSlOMltDSDJdW0NIMl1bQ0gyXVtDQEBIXShbQ0gzXSlbQ0gyXTI=

> <s_epik_cmdline>
J2VwaWtfcHl0aG9uJywgJy1waCcsICc3LjAnLCAnLXRuJywgJzgnLCAnLW1hJywgJzIwMCcsICctbWV0YWxfYmluZGluZycsICctaW1hZScsICc8aW5maWxlLm1hZT4nLCAnLW9tYWUnLCAnPG91dGZpbGUubWFlPic=

> <r_epik_Ionization_Penalty>
6.76934

> <r_epik_Ionization_Penalty_Charging>
6.76934

> <r_epik_Ionization_Penalty_Neutral>
5.77849e-06

> <r_epik_State_Penalty>
6.79457

> <r_epik_Charging_Adjusted_Penalty>
13.5639

> <i_epik_Tot_Q>
0

> <i_epik_Tot_abs_Q>
2

> <r_epik_Metal_State_Penalty>
2.72837

> <b_epik_Metal_Only>
1

> <s_lp_Force_Field>
OPLS_2005

> <r_lp_Energy>
20.364

> <b_lp_Chiralities_Consistent>
1

> <s_lp_Variant>
AV-unprocessed.smi:2083-17

> <Gold.Version>
5.8.1

> <Gold.Id.Protein>
6NUR|6NUR_protein|mol2

> <Gold.PLP.Fitness>
46.8043

> <Gold.PLP.PLP>
-38.1795

> <Gold.PLP.part.hbond>
-4.0000

> <Gold.PLP.part.metal>
0.0000

> <Gold.PLP.part.buried>
-4.1056

> <Gold.PLP.part.nonpolar>
-30.3744

> <Gold.PLP.part.repulsive>
0.4270

> <Gold.PLP.ligand.clash>
0.0000

> <Gold.PLP.ligand.torsion>
0.6894

> <Gold.PLP.Chemscore.Hbond>
3.2513

> <Gold.PLP.Chemscore.CHOScore>
0.0000

> <Gold.PLP.Chemscore.Metal>
0.0000

> <Gold.Chemscore.Hbonds>
donor molecule, donor type, donor heavy atom, donor atom, acceptor molecule, acceptor atom, score
      L1  H     5    25       P1  7948  0.27
      L1  H    12    44       P1 10747  0.96
      P1  H  7989  7998       L1    20  1.00
      P1  H 10752 10765       L1     7  1.00

> <Gold.PLP.Chemscore.Internal.Correction>
0.2499

> <Gold.Rescore>
     Score         DG    S(hbond)    S(metal)    S(lipo)     H(rot)  DE(clash)    DE(int)     intcor
     19.93     -21.97       3.15        0.00      84.24       1.52       0.18       1.85       ----

> <Gold.Chemscore.Fitness>
19.9337

> <Gold.Chemscore.DG>
-21.9701

> <Gold.Chemscore.ZeroCoef>
-5.4800

> <Gold.Chemscore.Hbond>
3.1506

> <Gold.Chemscore.Metal>
0.0000

> <Gold.Chemscore.Lipo>
84.2359

> <Gold.Chemscore.Internal_Hbond>
0.0000

> <Gold.Chemscore.DEClash>
0.1829

> <Gold.Chemscore.DEInternal>
1.8535

> <Gold.Chemscore.Rot>
1.5190

> <Gold.Chemscore.Internal.Correction>
   9.000000E+99

> <Gold.Chemscore.Hbonds>
donor molecule, donor type, donor heavy atom, donor atom, acceptor molecule, acceptor atom, score
      L1  H     5    25       P1  7948  0.26
      L1  H    12    44       P1 10747  0.91
      P1  H  7989  7998       L1    20  0.40
      P1  H 10752 10765       L1     7  0.68

> <Gold.Chemscore.Hbond.Weighted>
-10.5232

> <Gold.Chemscore.Metal.Weighted>
-0.0000

> <Gold.Chemscore.Lipo.Weighted>
-9.8556

> <Gold.Chemscore.Internal_Hbond.Weighted>
0.0000

> <Gold.Chemscore.DEClash.Weighted>
0.1829

> <Gold.Chemscore.DEInternal.Weighted>
1.8535

> <Gold.Chemscore.Rot.Weighted>
3.8886

> <Gold.Chemscore.Internal.Correction.Weighted>
   9.000000E+99

> <Gold.Protein.RotatedTorsions>
[ 6907 6896 6895 6894 ] final   97.60 input  -60.11 | X-H torsion
[ 7974 7965 7964 7962 ] final  -35.57 input  175.53 | X-H torsion
[ 8008 7997 7996 7995 ] final  -70.21 input   59.86 | X-H torsion
[ 10167 10162 10161 10158 ] final  -37.83 input  -65.29 | X-H torsion
[ 10718 10713 10712 10709 ] final  143.71 input   66.30 | X-H torsion
[ 10763 10752 10751 10750 ] final -170.59 input  -60.55 | X-H torsion
[ 11005 11000 10999 10996 ] final -109.97 input  -57.11 | X-H torsion

> <Gold.Protein.ActiveResidues>
 VAL166  LYS551  ARG553  GLY616  TRP617  ASP618  TYR619  PRO620  LYS621  CYS622 
 ASP623  PHE694  ASN695  SER759  ASP760  ASP761  ALA762  ILE779  LEU786  VAL792 
 PHE793  MET794  SER795  GLU796  ALA797  LYS798  CYS799  TRP800  GLU811  SER814 

> <Gold.Protein.RotatedAtoms>
  152.5421  134.0708  159.8192 H   0  0  0  0  0  0  0  0  0  0  0  0  # atno 6907 bound_to 6896
  151.0823  133.5373  159.2627 H   0  0  0  0  0  0  0  0  0  0  0  0  # atno 6908 bound_to 6896
  151.2196  135.0522  159.8998 H   0  0  0  0  0  0  0  0  0  0  0  0  # atno 6909 bound_to 6896
  146.0735  140.6175  142.8941 H   0  0  0  0  0  0  0  0  0  0  0  0  # atno 7974 bound_to 7965
  154.4995  140.0838  156.7768 H   0  0  0  0  0  0  0  0  0  0  0  0  # atno 8008 bound_to 7997
  155.4036  140.3438  155.4240 H   0  0  0  0  0  0  0  0  0  0  0  0  # atno 8009 bound_to 7997
  156.1438  140.1537  156.8867 H   0  0  0  0  0  0  0  0  0  0  0  0  # atno 8010 bound_to 7997
  140.7108  143.3316  151.2556 H   0  0  0  0  0  0  0  0  0  0  0  0  # atno 10167 bound_to 10162
  157.3658  131.0972  151.0874 H   0  0  0  0  0  0  0  0  0  0  0  0  # atno 10718 bound_to 10713
  154.6398  135.2897  155.0117 H   0  0  0  0  0  0  0  0  0  0  0  0  # atno 10763 bound_to 10752
  154.1248  135.6542  153.4914 H   0  0  0  0  0  0  0  0  0  0  0  0  # atno 10764 bound_to 10752
  153.0321  135.5296  154.7260 H   0  0  0  0  0  0  0  0  0  0  0  0  # atno 10765 bound_to 10752
  141.0818  133.9207  157.2273 H   0  0  0  0  0  0  0  0  0  0  0  0  # atno 11005 bound_to 11000
  144.7246  140.4485  143.6982 LP  0  0  0  0  0  0  0  0  0  0  0  0  # atno 17320 bound_to 7965
  145.6348  139.1541  143.2948 LP  0  0  0  0  0  0  0  0  0  0  0  0  # atno 17321 bound_to 7965
  139.6800  143.9872  152.2803 LP  0  0  0  0  0  0  0  0  0  0  0  0  # atno 17342 bound_to 10162
  139.9498  144.6628  150.8183 LP  0  0  0  0  0  0  0  0  0  0  0  0  # atno 17343 bound_to 10162
  157.1996  130.6389  149.5734 LP  0  0  0  0  0  0  0  0  0  0  0  0  # atno 17370 bound_to 10713
  155.9746  130.4695  150.6397 LP  0  0  0  0  0  0  0  0  0  0  0  0  # atno 17371 bound_to 10713
  139.9632  135.0149  156.9317 LP  0  0  0  0  0  0  0  0  0  0  0  0  # atno 17394 bound_to 11000
  140.5452  134.0681  155.7353 LP  0  0  0  0  0  0  0  0  0  0  0  0  # atno 17395 bound_to 11000

$$$$
