AV-unprocessed.smi:232|AV-procd|sdf|1771|dock8
  -GOLD-   2262020313D 1   1.00000     0.00000
 Structure written by MMmdl.
 52 55  0  0  0  0  0  0  0  0  1 V2000
  150.9052  141.0727  156.2612 C   0  0  0  0  0  0  0  0  0  0  0  0
  149.4181  140.9513  156.6188 C   0  0  0  0  0  0  0  0  0  0  0  0
  148.5520  140.4630  155.4411 C   0  0  2  0  0  0  0  0  0  0  0  0
  148.8636  141.2228  154.1315 C   0  0  0  0  0  0  0  0  0  0  0  0
  147.5795  141.9791  153.7758 C   0  0  0  0  0  0  0  0  0  0  0  0
  146.7891  141.9544  155.0822 C   0  0  1  0  0  0  0  0  0  0  0  0
  145.2856  142.2559  154.9311 C   0  0  0  0  0  0  0  0  0  0  0  0
  147.1267  140.6747  155.7037 N   0  0  0  0  0  0  0  0  0  0  0  0
  146.3127  139.6242  155.4320 C   0  0  0  0  0  0  0  0  0  0  0  0
  145.4923  139.1129  156.3888 N   0  0  0  0  0  0  0  0  0  0  0  0
  144.7130  138.0633  156.1107 C   0  0  0  0  0  0  0  0  0  0  0  0
  144.6028  137.3851  154.9660 N   0  0  0  0  0  0  0  0  0  0  0  0
  145.4258  137.8966  154.0061 C   0  0  0  0  0  0  0  0  0  0  0  0
  146.3049  139.0049  154.1545 C   0  0  0  0  0  0  0  0  0  0  0  0
  146.9880  139.2357  152.9672 N   0  0  0  0  0  0  0  0  0  0  0  0
  146.5392  138.3124  152.1606 C   0  0  0  0  0  0  0  0  0  0  0  0
  145.6007  137.4641  152.7036 N   0  0  0  0  0  0  0  0  0  0  0  0
  144.9465  136.3542  152.0330 C   0  0  0  0  0  0  0  0  0  0  0  0
  145.9489  135.2907  151.5432 C   0  0  1  0  0  0  0  0  0  0  0  0
  146.8764  135.0128  152.5747 O   0  0  0  0  0  0  0  0  0  0  0  0
  145.2528  133.9795  151.1348 C   0  0  2  0  0  0  0  0  0  0  0  0
  146.2012  132.8709  150.6727 C   0  0  0  0  0  0  0  0  0  0  0  0
  145.3442  132.0220  149.7460 C   0  0  0  0  0  0  0  0  0  0  0  0
  144.1158  132.8930  149.4717 C   0  0  0  0  0  0  0  0  0  0  0  0
  144.4539  134.1762  149.9782 O   0  0  0  0  0  0  0  0  0  0  0  0
  151.4779  141.4474  157.1096 H   0  0  0  0  0  0  0  0  0  0  0  0
  151.0545  141.7607  155.4288 H   0  0  0  0  0  0  0  0  0  0  0  0
  151.3274  140.1079  155.9785 H   0  0  0  0  0  0  0  0  0  0  0  0
  149.3014  140.2889  157.4772 H   0  0  0  0  0  0  0  0  0  0  0  0
  149.0623  141.9305  156.9408 H   0  0  0  0  0  0  0  0  0  0  0  0
  148.7633  139.4026  155.2916 H   0  0  0  0  0  0  0  0  0  0  0  0
  149.6924  141.9193  154.2649 H   0  0  0  0  0  0  0  0  0  0  0  0
  149.1434  140.5378  153.3305 H   0  0  0  0  0  0  0  0  0  0  0  0
  147.7699  142.9921  153.4207 H   0  0  0  0  0  0  0  0  0  0  0  0
  147.0389  141.4452  152.9931 H   0  0  0  0  0  0  0  0  0  0  0  0
  147.2009  142.7224  155.7382 H   0  0  0  0  0  0  0  0  0  0  0  0
  145.1342  143.2582  154.5300 H   0  0  0  0  0  0  0  0  0  0  0  0
  144.7760  142.2078  155.8939 H   0  0  0  0  0  0  0  0  0  0  0  0
  144.7941  141.5573  154.2529 H   0  0  0  0  0  0  0  0  0  0  0  0
  144.0907  137.7153  156.9220 H   0  0  0  0  0  0  0  0  0  0  0  0
  146.8846  138.2218  151.1409 H   0  0  0  0  0  0  0  0  0  0  0  0
  144.2170  135.9116  152.7127 H   0  0  0  0  0  0  0  0  0  0  0  0
  144.3813  136.7562  151.1914 H   0  0  0  0  0  0  0  0  0  0  0  0
  146.5035  135.6847  150.6904 H   0  0  0  0  0  0  0  0  0  0  0  0
  147.7477  135.1711  152.2447 H   0  0  0  0  0  0  0  0  0  0  0  0
  144.6181  133.6136  151.9447 H   0  0  0  0  0  0  0  0  0  0  0  0
  147.0337  133.2956  150.1098 H   0  0  0  0  0  0  0  0  0  0  0  0
  146.6163  132.3015  151.5048 H   0  0  0  0  0  0  0  0  0  0  0  0
  145.8835  131.7862  148.8280 H   0  0  0  0  0  0  0  0  0  0  0  0
  145.0534  131.0818  150.2160 H   0  0  0  0  0  0  0  0  0  0  0  0
  143.8640  132.9420  148.4124 H   0  0  0  0  0  0  0  0  0  0  0  0
  143.2476  132.5124  150.0114 H   0  0  0  0  0  0  0  0  0  0  0  0
  1  2  1  0  0  0  0
  1 26  1  0  0  0  0
  1 27  1  0  0  0  0
  1 28  1  0  0  0  0
  2  3  1  0  0  0  0
  2 29  1  0  0  0  0
  2 30  1  0  0  0  0
  3  8  1  0  0  0  0
  3  4  1  0  0  0  0
  3 31  1  0  0  0  0
  4  5  1  0  0  0  0
  4 32  1  0  0  0  0
  4 33  1  0  0  0  0
  5  6  1  0  0  0  0
  5 34  1  0  0  0  0
  5 35  1  0  0  0  0
  6  7  1  0  0  0  0
  6  8  1  0  0  0  0
  6 36  1  0  0  0  0
  7 37  1  0  0  0  0
  7 38  1  0  0  0  0
  7 39  1  0  0  0  0
  8  9  1  0  0  0  0
  9 14  1  0  0  0  0
  9 10  2  0  0  0  0
 10 11  1  0  0  0  0
 11 12  2  0  0  0  0
 11 40  1  0  0  0  0
 12 13  1  0  0  0  0
 13 17  1  0  0  0  0
 13 14  2  0  0  0  0
 14 15  1  0  0  0  0
 15 16  2  0  0  0  0
 16 17  1  0  0  0  0
 16 41  1  0  0  0  0
 17 18  1  0  0  0  0
 18 19  1  0  0  0  0
 18 42  1  0  0  0  0
 18 43  1  0  0  0  0
 19 20  1  0  0  0  0
 19 21  1  0  0  0  0
 19 44  1  0  0  0  0
 20 45  1  0  0  0  0
 21 25  1  0  0  0  0
 21 22  1  0  0  0  0
 21 46  1  0  0  0  0
 22 23  1  0  0  0  0
 22 47  1  0  0  0  0
 22 48  1  0  0  0  0
 23 24  1  0  0  0  0
 23 49  1  0  0  0  0
 23 50  1  0  0  0  0
 24 25  1  0  0  0  0
 24 51  1  0  0  0  0
 24 52  1  0  0  0  0
M  END
> <s_m_source_file>
AV-unprocessed.smi

> <i_m_source_file_index>
232

> <i_lp_mmshare_version>
43012

> <i_f3d_flags>
0

> <s_epik_input>
W0NIM11bQ0gyXVtDQEBIXTFbQ0gyXVtDSDJdW0NAQEhdKFtDSDNdKU4xYyhuW2NIXW4yKWMoYzIzKW5bY0hdbjNbQ0gyXVtDQEhdKFtPSF0pW0NAQEhdNFtDSDJdW0NIMl1bQ0gyXU80

> <s_epik_cmdline>
J2VwaWtfcHl0aG9uJywgJy1waCcsICc3LjAnLCAnLXRuJywgJzgnLCAnLW1hJywgJzIwMCcsICctbWV0YWxfYmluZGluZycsICctaW1hZScsICc8aW5maWxlLm1hZT4nLCAnLW9tYWUnLCAnPG91dGZpbGUubWFlPic=

> <r_lp_tautomer_probability>
1

> <r_epik_Ionization_Penalty>
0.00258048

> <r_epik_Ionization_Penalty_Charging>
0

> <r_epik_Ionization_Penalty_Neutral>
0.00258048

> <r_epik_State_Penalty>
0.00168551

> <r_epik_Charging_Adjusted_Penalty>
0.00168551

> <i_epik_Tot_Q>
0

> <i_epik_Tot_abs_Q>
0

> <r_epik_Metal_State_Penalty>
-0

> <b_epik_Metal_Only>
0

> <s_lp_Force_Field>
OPLS_2005

> <r_lp_Energy>
56.5001

> <b_lp_Chiralities_Consistent>
1

> <s_lp_Variant>
AV-unprocessed.smi:232-5

> <Gold.Version>
5.8.1

> <Gold.Id.Protein>
6NUR|6NUR_protein|mol2

> <Gold.PLP.Fitness>
40.2733

> <Gold.PLP.PLP>
-37.8938

> <Gold.PLP.part.hbond>
-0.7126

> <Gold.PLP.part.metal>
0.0000

> <Gold.PLP.part.buried>
-4.8895

> <Gold.PLP.part.nonpolar>
-32.9907

> <Gold.PLP.part.repulsive>
1.9612

> <Gold.PLP.ligand.clash>
0.0000

> <Gold.PLP.ligand.torsion>
0.3543

> <Gold.PLP.Chemscore.Hbond>
1.0000

> <Gold.PLP.Chemscore.CHOScore>
0.0000

> <Gold.PLP.Chemscore.Metal>
0.0000

> <Gold.Chemscore.Hbonds>
donor molecule, donor type, donor heavy atom, donor atom, acceptor molecule, acceptor atom, score
      L1  H    20    45       P1  7948  1.00
      L1  C    16    41       P1  7948  0.01

> <Gold.PLP.Chemscore.Internal.Correction>
0.0881

> <Gold.Rescore>
     Score         DG    S(hbond)    S(metal)    S(lipo)     H(rot)  DE(clash)    DE(int)     intcor
     10.93     -12.82       1.00        0.00      87.44       2.43       0.03       1.86       ----

> <Gold.Chemscore.Fitness>
10.9307

> <Gold.Chemscore.DG>
-12.8227

> <Gold.Chemscore.ZeroCoef>
-5.4800

> <Gold.Chemscore.Hbond>
0.9950

> <Gold.Chemscore.Metal>
0.0000

> <Gold.Chemscore.Lipo>
87.4358

> <Gold.Chemscore.Internal_Hbond>
0.0000

> <Gold.Chemscore.DEClash>
0.0288

> <Gold.Chemscore.DEInternal>
1.8632

> <Gold.Chemscore.Rot>
2.4260

> <Gold.Chemscore.Internal.Correction>
   9.000000E+99

> <Gold.Chemscore.Hbonds>
donor molecule, donor type, donor heavy atom, donor atom, acceptor molecule, acceptor atom, score
      L1  H    20    45       P1  7948  0.92

> <Gold.Chemscore.Hbond.Weighted>
-3.3234

> <Gold.Chemscore.Metal.Weighted>
-0.0000

> <Gold.Chemscore.Lipo.Weighted>
-10.2300

> <Gold.Chemscore.Internal_Hbond.Weighted>
0.0000

> <Gold.Chemscore.DEClash.Weighted>
0.0288

> <Gold.Chemscore.DEInternal.Weighted>
1.8632

> <Gold.Chemscore.Rot.Weighted>
6.2107

> <Gold.Chemscore.Internal.Correction.Weighted>
   9.000000E+99

> <Gold.Protein.RotatedTorsions>
[ 6907 6896 6895 6894 ] final    0.73 input  -60.11 | X-H torsion
[ 7974 7965 7964 7962 ] final  126.77 input  175.53 | X-H torsion
[ 8008 7997 7996 7995 ] final  -43.47 input   59.86 | X-H torsion
[ 10167 10162 10161 10158 ] final   -8.28 input  -65.29 | X-H torsion
[ 10718 10713 10712 10709 ] final  -94.65 input   66.30 | X-H torsion
[ 10763 10752 10751 10750 ] final  -57.16 input  -60.55 | X-H torsion
[ 11005 11000 10999 10996 ] final    2.30 input  -57.11 | X-H torsion

> <Gold.Protein.ActiveResidues>
 VAL166  LYS551  ARG553  GLY616  TRP617  ASP618  TYR619  PRO620  LYS621  CYS622 
 ASP623  PHE694  ASN695  SER759  ASP760  ASP761  ALA762  ILE779  LEU786  VAL792 
 PHE793  MET794  SER795  GLU796  ALA797  LYS798  CYS799  TRP800  GLU811  SER814 

> <Gold.Protein.RotatedAtoms>
  151.5812  135.1058  160.0017 H   0  0  0  0  0  0  0  0  0  0  0  0  # atno 6907 bound_to 6896
  152.4353  133.7345  159.6617 H   0  0  0  0  0  0  0  0  0  0  0  0  # atno 6908 bound_to 6896
  150.8250  133.8118  159.3146 H   0  0  0  0  0  0  0  0  0  0  0  0  # atno 6909 bound_to 6896
  145.0579  139.3829  143.5020 H   0  0  0  0  0  0  0  0  0  0  0  0  # atno 7974 bound_to 7965
  154.3997  140.1447  156.3524 H   0  0  0  0  0  0  0  0  0  0  0  0  # atno 8008 bound_to 7997
  155.8257  140.3468  155.5520 H   0  0  0  0  0  0  0  0  0  0  0  0  # atno 8009 bound_to 7997
  155.8242  140.0902  157.1822 H   0  0  0  0  0  0  0  0  0  0  0  0  # atno 8010 bound_to 7997
  140.7054  143.5986  150.8821 H   0  0  0  0  0  0  0  0  0  0  0  0  # atno 10167 bound_to 10162
  156.0030  130.5076  150.5959 H   0  0  0  0  0  0  0  0  0  0  0  0  # atno 10718 bound_to 10713
  154.2181  135.6382  153.5136 H   0  0  0  0  0  0  0  0  0  0  0  0  # atno 10763 bound_to 10752
  152.9975  135.5490  154.6144 H   0  0  0  0  0  0  0  0  0  0  0  0  # atno 10764 bound_to 10752
  154.5597  135.2908  155.0905 H   0  0  0  0  0  0  0  0  0  0  0  0  # atno 10765 bound_to 10752
  140.6058  133.9793  155.8154 H   0  0  0  0  0  0  0  0  0  0  0  0  # atno 11005 bound_to 11000
  146.3522  140.0263  142.8654 LP  0  0  0  0  0  0  0  0  0  0  0  0  # atno 17320 bound_to 7965
  145.1445  140.9589  143.4469 LP  0  0  0  0  0  0  0  0  0  0  0  0  # atno 17321 bound_to 7965
  139.9710  143.6056  152.2973 LP  0  0  0  0  0  0  0  0  0  0  0  0  # atno 17342 bound_to 10162
  139.6643  144.7662  151.1903 LP  0  0  0  0  0  0  0  0  0  0  0  0  # atno 17343 bound_to 10162
  157.3816  131.0782  151.1472 LP  0  0  0  0  0  0  0  0  0  0  0  0  # atno 17370 bound_to 10713
  157.2193  130.6474  149.5804 LP  0  0  0  0  0  0  0  0  0  0  0  0  # atno 17371 bound_to 10713
  141.0841  134.0017  157.3340 LP  0  0  0  0  0  0  0  0  0  0  0  0  # atno 17394 bound_to 11000
  139.9213  135.0200  156.8073 LP  0  0  0  0  0  0  0  0  0  0  0  0  # atno 17395 bound_to 11000

$$$$
