AV-unprocessed.smi:72|AV-procd|sdf|695|dock4
  -GOLD-   2262017 13D 1   1.00000     0.00000
 Structure written by MMmdl.
 30 31  0  0  0  0  0  0  0  0  2 V2000
  146.0587  138.5307  151.7676 N   0  0  0  0  0  0  0  0  0  0  0  0
  146.8934  139.2612  152.5875 C   0  0  0  0  0  0  0  0  0  0  0  0
  147.9805  138.6096  153.1428 N   0  3  0  0  0  0  0  0  0  0  0  0
  148.8878  139.1758  153.9505 C   0  0  0  0  0  0  0  0  0  0  0  0
  148.7695  140.4537  154.2477 N   0  0  0  0  0  0  0  0  0  0  0  0
  149.7631  141.1352  155.1472 C   0  0  2  0  0  0  0  0  0  0  0  0
  150.9641  140.4284  155.0686 O   0  0  0  0  0  0  0  0  0  0  0  0
  151.4643  140.1637  156.3756 C   0  0  2  0  0  0  0  0  0  0  0  0
  152.3372  138.8996  156.3529 C   0  0  0  0  0  0  0  0  0  0  0  0
  153.3453  139.0260  155.3734 O   0  0  0  0  0  0  0  0  0  0  0  0
  150.1819  140.0102  157.1931 C   0  0  1  0  0  0  0  0  0  0  0  0
  150.3893  140.1517  158.5854 O   0  0  0  0  0  0  0  0  0  0  0  0
  149.2788  141.0882  156.6047 C   0  0  1  0  0  0  0  0  0  0  0  0
  149.4465  142.3460  157.2321 O   0  0  0  0  0  0  0  0  0  0  0  0
  147.6694  141.1983  153.7522 C   0  0  0  0  0  0  0  0  0  0  0  0
  147.5260  142.3799  154.0639 O   0  0  0  0  0  0  0  0  0  0  0  0
  146.7742  140.5188  152.9132 N   0  0  0  0  0  0  0  0  0  0  0  0
  149.9045  142.1417  154.7487 H   0  0  0  0  0  0  0  0  0  0  0  0
  152.0263  141.0302  156.7309 H   0  0  0  0  0  0  0  0  0  0  0  0
  149.7405  139.0315  156.9992 H   0  0  0  0  0  0  0  0  0  0  0  0
  148.2256  140.8104  156.6673 H   0  0  0  0  0  0  0  0  0  0  0  0
  145.2395  138.9210  151.3230 H   0  0  0  0  0  0  0  0  0  0  0  0
  146.1961  137.5549  151.5466 H   0  0  0  0  0  0  0  0  0  0  0  0
  149.6966  138.5760  154.3490 H   0  0  0  0  0  0  0  0  0  0  0  0
  152.8323  138.7670  157.3153 H   0  0  0  0  0  0  0  0  0  0  0  0
  151.7396  138.0061  156.1704 H   0  0  0  0  0  0  0  0  0  0  0  0
  152.9358  139.1952  154.5387 H   0  0  0  0  0  0  0  0  0  0  0  0
  150.9803  139.4733  158.8745 H   0  0  0  0  0  0  0  0  0  0  0  0
  149.3095  143.0268  156.5906 H   0  0  0  0  0  0  0  0  0  0  0  0
  148.0961  137.6313  152.9195 H   0  0  0  0  0  0  0  0  0  0  0  0
  1  2  1  0  0  0  0
  1 22  1  0  0  0  0
  1 23  1  0  0  0  0
  2 17  2  0  0  0  0
  2  3  1  0  0  0  0
  3  4  2  0  0  0  0
  3 30  1  0  0  0  0
  4  5  1  0  0  0  0
  4 24  1  0  0  0  0
  5  6  1  0  0  0  0
  5 15  1  0  0  0  0
  6 18  1  0  0  0  0
  6 13  1  0  0  0  0
  6  7  1  0  0  0  0
  7  8  1  0  0  0  0
  8 19  1  0  0  0  0
  8  9  1  0  0  0  0
  8 11  1  0  0  0  0
  9 10  1  0  0  0  0
  9 25  1  0  0  0  0
  9 26  1  0  0  0  0
 10 27  1  0  0  0  0
 11 20  1  0  0  0  0
 11 12  1  0  0  0  0
 11 13  1  0  0  0  0
 12 28  1  0  0  0  0
 13 21  1  0  0  0  0
 13 14  1  0  0  0  0
 14 29  1  0  0  0  0
 15 16  2  0  0  0  0
 15 17  1  0  0  0  0
M  CHG  1   3   1
M  END
> <s_m_source_file>
AV-unprocessed.smi

> <i_m_source_file_index>
72

> <i_lp_mmshare_version>
43012

> <i_f3d_flags>
0

> <s_epik_input>
W05IMl1jMW5bY0hdbihjKD1PKW4xKVtDQEBIXTJPW0NASF0oW0NIMl1bT0hdKVtDQEBIXShbT0hdKVtDQEhdMltPSF0=

> <s_epik_cmdline>
J2VwaWtfcHl0aG9uJywgJy1waCcsICc3LjAnLCAnLXRuJywgJzgnLCAnLW1hJywgJzIwMCcsICctbWV0YWxfYmluZGluZycsICctaW1hZScsICc8aW5maWxlLm1hZT4nLCAnLW9tYWUnLCAnPG91dGZpbGUubWFlPic=

> <r_lp_tautomer_probability>
4.77166e-05

> <r_epik_Ionization_Penalty>
0.104979

> <r_epik_Ionization_Penalty_Charging>
0.0999619

> <r_epik_Ionization_Penalty_Neutral>
0.00501745

> <r_epik_State_Penalty>
2.51541

> <r_epik_Charging_Adjusted_Penalty>
2.61537

> <i_epik_Tot_Q>
1

> <i_epik_Tot_abs_Q>
1

> <r_epik_Metal_State_Penalty>
3.53763

> <b_epik_Metal_Only>
0

> <s_epik_Chemistry_Notes>
This compound contains an acetal/aminal-like group ( X-CH(R)-Y where X, Y are N, S, or O) that may be acid/base labile, releasing an aldehyde.

> <s_lp_Force_Field>
OPLS_2005

> <r_lp_Energy>
34.3488

> <b_lp_Chiralities_Consistent>
1

> <s_lp_Variant>
AV-unprocessed.smi:72-33

> <Gold.Version>
5.8.1

> <Gold.Id.Protein>
6NUR|6NUR_protein|mol2

> <Gold.PLP.Fitness>
43.2240

> <Gold.PLP.PLP>
-27.2576

> <Gold.PLP.part.hbond>
-6.6784

> <Gold.PLP.part.metal>
0.0000

> <Gold.PLP.part.buried>
-1.6106

> <Gold.PLP.part.nonpolar>
-19.6656

> <Gold.PLP.part.repulsive>
0.9254

> <Gold.PLP.ligand.clash>
0.0000

> <Gold.PLP.ligand.torsion>
0.7477

> <Gold.PLP.Chemscore.Hbond>
5.8143

> <Gold.PLP.Chemscore.CHOScore>
0.0000

> <Gold.PLP.Chemscore.Metal>
0.0000

> <Gold.Chemscore.Hbonds>
donor molecule, donor type, donor heavy atom, donor atom, acceptor molecule, acceptor atom, score
      L1  H     1    22       P1 10171  0.84
      L1  H     3    30       P1  7948  1.95
      L1  H    14    29       P1  8028  1.00
      P1  H  7989  7998       L1     7  1.00
      P1  H  7997  8008       L1    10  1.00

> <Gold.PLP.Chemscore.Internal.Correction>
0.0190

> <Gold.Rescore>
     Score         DG    S(hbond)    S(metal)    S(lipo)     H(rot)  DE(clash)    DE(int)     intcor
     10.62     -12.15       4.46        0.00      18.86       4.08       0.67       0.86       ----

> <Gold.Chemscore.Fitness>
10.6217

> <Gold.Chemscore.DG>
-12.1457

> <Gold.Chemscore.ZeroCoef>
-5.4800

> <Gold.Chemscore.Hbond>
4.4609

> <Gold.Chemscore.Metal>
0.0000

> <Gold.Chemscore.Lipo>
18.8618

> <Gold.Chemscore.Internal_Hbond>
0.0000

> <Gold.Chemscore.DEClash>
0.6683

> <Gold.Chemscore.DEInternal>
0.8557

> <Gold.Chemscore.Rot>
4.0783

> <Gold.Chemscore.Internal.Correction>
   9.000000E+99

> <Gold.Chemscore.Hbonds>
donor molecule, donor type, donor heavy atom, donor atom, acceptor molecule, acceptor atom, score
      L1  H     1    22       P1 10171  0.78
      L1  H     3    30       P1  7948  0.93
      L1  H    14    29       P1  8028  0.98
      P1  H  7989  7998       L1     7  0.43
      P1  H  7997  8008       L1    10  0.66

> <Gold.Chemscore.Hbond.Weighted>
-14.8993

> <Gold.Chemscore.Metal.Weighted>
-0.0000

> <Gold.Chemscore.Lipo.Weighted>
-2.2068

> <Gold.Chemscore.Internal_Hbond.Weighted>
0.0000

> <Gold.Chemscore.DEClash.Weighted>
0.6683

> <Gold.Chemscore.DEInternal.Weighted>
0.8557

> <Gold.Chemscore.Rot.Weighted>
10.4404

> <Gold.Chemscore.Internal.Correction.Weighted>
   9.000000E+99

> <Gold.Protein.RotatedTorsions>
[ 6907 6896 6895 6894 ] final  -45.37 input  -60.11 | X-H torsion
[ 7974 7965 7964 7962 ] final -123.45 input  175.53 | X-H torsion
[ 8008 7997 7996 7995 ] final  -10.73 input   59.86 | X-H torsion
[ 10167 10162 10161 10158 ] final -121.91 input  -65.29 | X-H torsion
[ 10718 10713 10712 10709 ] final  -38.60 input   66.30 | X-H torsion
[ 10763 10752 10751 10750 ] final  -49.07 input  -60.55 | X-H torsion
[ 11005 11000 10999 10996 ] final  -74.42 input  -57.11 | X-H torsion

> <Gold.Protein.ActiveResidues>
 VAL166  LYS551  ARG553  GLY616  TRP617  ASP618  TYR619  PRO620  LYS621  CYS622 
 ASP623  PHE694  ASN695  SER759  ASP760  ASP761  ALA762  ILE779  LEU786  VAL792 
 PHE793  MET794  SER795  GLU796  ALA797  LYS798  CYS799  TRP800  GLU811  SER814 

> <Gold.Protein.RotatedAtoms>
  150.9226  134.8644  159.7498 H   0  0  0  0  0  0  0  0  0  0  0  0  # atno 6907 bound_to 6896
  152.5000  134.4195  159.9486 H   0  0  0  0  0  0  0  0  0  0  0  0  # atno 6908 bound_to 6896
  151.4228  133.3653  159.2793 H   0  0  0  0  0  0  0  0  0  0  0  0  # atno 6909 bound_to 6896
  145.0186  140.7968  143.4395 H   0  0  0  0  0  0  0  0  0  0  0  0  # atno 7974 bound_to 7965
  154.5528  140.2321  155.8458 H   0  0  0  0  0  0  0  0  0  0  0  0  # atno 8008 bound_to 7997
  156.1962  140.3064  155.9392 H   0  0  0  0  0  0  0  0  0  0  0  0  # atno 8009 bound_to 7997
  155.3037  140.0432  157.3021 H   0  0  0  0  0  0  0  0  0  0  0  0  # atno 8010 bound_to 7997
  140.0200  143.5354  152.2225 H   0  0  0  0  0  0  0  0  0  0  0  0  # atno 10167 bound_to 10162
  156.3019  130.4241  149.8134 H   0  0  0  0  0  0  0  0  0  0  0  0  # atno 10718 bound_to 10713
  154.0881  135.6581  153.4848 H   0  0  0  0  0  0  0  0  0  0  0  0  # atno 10763 bound_to 10752
  153.0331  135.5196  154.7407 H   0  0  0  0  0  0  0  0  0  0  0  0  # atno 10764 bound_to 10752
  154.6523  135.3003  154.9940 H   0  0  0  0  0  0  0  0  0  0  0  0  # atno 10765 bound_to 10752
  141.1635  133.6911  156.7362 H   0  0  0  0  0  0  0  0  0  0  0  0  # atno 11005 bound_to 11000
  145.1927  139.2293  143.5234 LP  0  0  0  0  0  0  0  0  0  0  0  0  # atno 17320 bound_to 7965
  146.3482  140.1726  142.8589 LP  0  0  0  0  0  0  0  0  0  0  0  0  # atno 17321 bound_to 7965
  139.6147  144.7616  151.2874 LP  0  0  0  0  0  0  0  0  0  0  0  0  # atno 17342 bound_to 10162
  140.7346  143.6760  150.8041 LP  0  0  0  0  0  0  0  0  0  0  0  0  # atno 17343 bound_to 10162
  156.5509  130.8341  151.3299 LP  0  0  0  0  0  0  0  0  0  0  0  0  # atno 17370 bound_to 10713
  157.7370  130.9788  150.2168 LP  0  0  0  0  0  0  0  0  0  0  0  0  # atno 17371 bound_to 10713
  140.2708  134.8393  157.3845 LP  0  0  0  0  0  0  0  0  0  0  0  0  # atno 17394 bound_to 11000
  140.1523  134.4834  155.7952 LP  0  0  0  0  0  0  0  0  0  0  0  0  # atno 17395 bound_to 11000

$$$$
