AV-unprocessed.smi:1069|AV-procd|sdf|4675|dock1
  -GOLD-   22720 3193D 1   1.00000     0.00000
 Structure written by MMmdl.
 54 55  0  0  0  0  0  0  0  0  1 V2000
  150.8143  139.1019  159.1888 C   0  0  0  0  0  0  0  0  0  0  0  0
  149.9065  138.7327  158.0038 C   0  0  0  0  0  0  0  0  0  0  0  0
  150.2830  137.3506  157.4377 C   0  0  0  0  0  0  0  0  0  0  0  0
  149.9654  139.8274  156.9164 C   0  0  0  0  0  0  0  0  0  0  0  0
  151.0407  140.0243  156.3473 O   0  0  0  0  0  0  0  0  0  0  0  0
  148.8450  140.5181  156.5854 N   0  0  0  0  0  0  0  0  0  0  0  0
  148.7767  141.3956  155.4105 C   0  0  0  0  0  0  0  0  0  0  0  0
  147.8722  140.7306  154.3562 C   0  0  0  0  0  0  0  0  0  0  0  0
  146.4740  140.4081  154.9291 C   0  0  0  0  0  0  0  0  0  0  0  0
  145.7256  139.6051  153.9666 N   0  0  0  0  0  0  0  0  0  0  0  0
  145.9505  138.3119  153.6951 C   0  0  0  0  0  0  0  0  0  0  0  0
  146.8418  137.6529  154.2286 O   0  0  0  0  0  0  0  0  0  0  0  0
  145.0872  137.8565  152.7713 N   0  0  0  0  0  0  0  0  0  0  0  0
  144.9717  136.5518  152.2191 C   0  0  0  0  0  0  0  0  0  0  0  0
  145.7930  135.5270  152.7298 C   0  0  0  0  0  0  0  0  0  0  0  0
  145.7488  134.2666  152.2499 N   0  0  0  0  0  0  0  0  0  0  0  0
  144.8663  134.0023  151.2778 C   0  0  0  0  0  0  0  0  0  0  0  0
  144.9231  132.6049  150.6361 C   0  0  0  0  0  0  0  0  0  0  0  0
  146.3267  132.3176  150.0529 C   0  0  0  0  0  0  0  0  0  0  0  0
  143.9370  132.4962  149.4493 C   0  0  0  0  0  0  0  0  0  0  0  0
  144.5758  131.5406  151.6929 C   0  0  0  0  0  0  0  0  0  0  0  0
  144.0755  134.9102  150.6911 N   0  0  0  0  0  0  0  0  0  0  0  0
  144.1091  136.1754  151.1613 C   0  0  0  0  0  0  0  0  0  0  0  0
  146.5710  139.6809  156.2914 C   0  0  0  0  0  0  0  0  0  0  0  0
  147.5348  140.4151  157.2390 C   0  0  0  0  0  0  0  0  0  0  0  0
  150.5464  140.0696  159.6143 H   0  0  0  0  0  0  0  0  0  0  0  0
  151.8619  139.1508  158.8882 H   0  0  0  0  0  0  0  0  0  0  0  0
  150.7340  138.3624  159.9858 H   0  0  0  0  0  0  0  0  0  0  0  0
  148.8818  138.6271  158.3569 H   0  0  0  0  0  0  0  0  0  0  0  0
  149.6713  137.0960  156.5712 H   0  0  0  0  0  0  0  0  0  0  0  0
  150.1290  136.5712  158.1843 H   0  0  0  0  0  0  0  0  0  0  0  0
  151.3295  137.3087  157.1329 H   0  0  0  0  0  0  0  0  0  0  0  0
  148.3690  142.3652  155.7000 H   0  0  0  0  0  0  0  0  0  0  0  0
  149.7549  141.6051  154.9762 H   0  0  0  0  0  0  0  0  0  0  0  0
  147.7791  141.3783  153.4836 H   0  0  0  0  0  0  0  0  0  0  0  0
  148.3501  139.8129  154.0095 H   0  0  0  0  0  0  0  0  0  0  0  0
  145.9550  141.3566  155.0818 H   0  0  0  0  0  0  0  0  0  0  0  0
  144.9748  140.0691  153.4767 H   0  0  0  0  0  0  0  0  0  0  0  0
  144.4363  138.5356  152.4050 H   0  0  0  0  0  0  0  0  0  0  0  0
  146.4982  135.7184  153.5253 H   0  0  0  0  0  0  0  0  0  0  0  0
  146.3592  131.3479  149.5550 H   0  0  0  0  0  0  0  0  0  0  0  0
  147.0952  132.2989  150.8265 H   0  0  0  0  0  0  0  0  0  0  0  0
  146.6139  133.0719  149.3194 H   0  0  0  0  0  0  0  0  0  0  0  0
  144.1394  133.2566  148.6941 H   0  0  0  0  0  0  0  0  0  0  0  0
  142.9001  132.6129  149.7666 H   0  0  0  0  0  0  0  0  0  0  0  0
  144.0082  131.5234  148.9614 H   0  0  0  0  0  0  0  0  0  0  0  0
  144.6071  130.5355  151.2713 H   0  0  0  0  0  0  0  0  0  0  0  0
  143.5757  131.6968  152.0984 H   0  0  0  0  0  0  0  0  0  0  0  0
  145.2764  131.5690  152.5281 H   0  0  0  0  0  0  0  0  0  0  0  0
  143.4504  136.8669  150.6615 H   0  0  0  0  0  0  0  0  0  0  0  0
  145.5849  139.6068  156.7512 H   0  0  0  0  0  0  0  0  0  0  0  0
  146.9216  138.6580  156.1443 H   0  0  0  0  0  0  0  0  0  0  0  0
  147.5642  139.9318  158.2135 H   0  0  0  0  0  0  0  0  0  0  0  0
  147.1563  141.4186  157.4396 H   0  0  0  0  0  0  0  0  0  0  0  0
  1  2  1  0  0  0  0
  1 26  1  0  0  0  0
  1 27  1  0  0  0  0
  1 28  1  0  0  0  0
  2  3  1  0  0  0  0
  2  4  1  0  0  0  0
  2 29  1  0  0  0  0
  3 30  1  0  0  0  0
  3 31  1  0  0  0  0
  3 32  1  0  0  0  0
  4  5  2  0  0  0  0
  4  6  1  0  0  0  0
  6 25  1  0  0  0  0
  6  7  1  0  0  0  0
  7  8  1  0  0  0  0
  7 33  1  0  0  0  0
  7 34  1  0  0  0  0
  8  9  1  0  0  0  0
  8 35  1  0  0  0  0
  8 36  1  0  0  0  0
  9 10  1  0  0  0  0
  9 24  1  0  0  0  0
  9 37  1  0  0  0  0
 10 11  1  0  0  0  0
 10 38  1  0  0  0  0
 11 12  2  0  0  0  0
 11 13  1  0  0  0  0
 13 14  1  0  0  0  0
 13 39  1  0  0  0  0
 14 23  1  0  0  0  0
 14 15  2  0  0  0  0
 15 16  1  0  0  0  0
 15 40  1  0  0  0  0
 16 17  2  0  0  0  0
 17 18  1  0  0  0  0
 17 22  1  0  0  0  0
 18 19  1  0  0  0  0
 18 20  1  0  0  0  0
 18 21  1  0  0  0  0
 19 41  1  0  0  0  0
 19 42  1  0  0  0  0
 19 43  1  0  0  0  0
 20 44  1  0  0  0  0
 20 45  1  0  0  0  0
 20 46  1  0  0  0  0
 21 47  1  0  0  0  0
 21 48  1  0  0  0  0
 21 49  1  0  0  0  0
 22 23  2  0  0  0  0
 23 50  1  0  0  0  0
 24 25  1  0  0  0  0
 24 51  1  0  0  0  0
 24 52  1  0  0  0  0
 25 53  1  0  0  0  0
 25 54  1  0  0  0  0
M  END
> <s_m_source_file>
AV-unprocessed.smi

> <i_m_source_file_index>
1069

> <i_lp_mmshare_version>
43012

> <i_f3d_flags>
0

> <s_epik_input>
W0NIM11bQ0hdKFtDSDNdKUMoPU8pTjFbQ0gyXVtDSDJdW0NIXShbQ0gyXVtDSDJdMSlbTkhdQyg9TylbTkhdYzJbY0hdbmMoQyhbQ0gzXSkoW0NIM10pW0NIM10pbltjSF0y

> <s_epik_cmdline>
J2VwaWtfcHl0aG9uJywgJy1waCcsICc3LjAnLCAnLXRuJywgJzgnLCAnLW1hJywgJzIwMCcsICctbWV0YWxfYmluZGluZycsICctaW1hZScsICc8aW5maWxlLm1hZT4nLCAnLW9tYWUnLCAnPG91dGZpbGUubWFlPic=

> <r_lp_tautomer_probability>
1

> <r_epik_Ionization_Penalty>
2.58562e-05

> <r_epik_Ionization_Penalty_Charging>
0

> <r_epik_Ionization_Penalty_Neutral>
2.58562e-05

> <r_epik_State_Penalty>
-0

> <r_epik_Charging_Adjusted_Penalty>
0

> <i_epik_Tot_Q>
0

> <i_epik_Tot_abs_Q>
0

> <r_epik_Metal_State_Penalty>
-0

> <b_epik_Metal_Only>
0

> <s_lp_Force_Field>
OPLS_2005

> <r_lp_Energy>
23.7976

> <b_lp_Chiralities_Consistent>
1

> <s_lp_Variant>
AV-unprocessed.smi:1069-1

> <Gold.Version>
5.8.1

> <Gold.Id.Protein>
6NUR|6NUR_protein|mol2

> <Gold.PLP.Fitness>
45.7677

> <Gold.PLP.PLP>
-33.1518

> <Gold.PLP.part.hbond>
-3.5480

> <Gold.PLP.part.metal>
0.0000

> <Gold.PLP.part.buried>
1.1895

> <Gold.PLP.part.nonpolar>
-30.5147

> <Gold.PLP.part.repulsive>
0.8997

> <Gold.PLP.ligand.clash>
0.0000

> <Gold.PLP.ligand.torsion>
0.2410

> <Gold.PLP.Chemscore.Hbond>
2.8793

> <Gold.PLP.Chemscore.CHOScore>
1.4101

> <Gold.PLP.Chemscore.Metal>
0.0000

> <Gold.Chemscore.Hbonds>
donor molecule, donor type, donor heavy atom, donor atom, acceptor molecule, acceptor atom, score
      L1  H    10    38       P1 10175  1.00
      L1  H    13    39       P1 10175  0.92
      L1  C    23    50       P1 10171  0.78

> <Gold.PLP.Chemscore.Internal.Correction>
0.2296

> <Gold.Rescore>
     Score         DG    S(hbond)    S(metal)    S(lipo)     H(rot)  DE(clash)    DE(int)     intcor
     17.60     -22.45       2.89        0.00      91.92       1.34       1.79       3.05       ----

> <Gold.Chemscore.Fitness>
17.6038

> <Gold.Chemscore.DG>
-22.4522

> <Gold.Chemscore.ZeroCoef>
-5.4800

> <Gold.Chemscore.Hbond>
2.8862

> <Gold.Chemscore.Metal>
0.0000

> <Gold.Chemscore.Lipo>
91.9150

> <Gold.Chemscore.Internal_Hbond>
0.0000

> <Gold.Chemscore.DEClash>
1.7935

> <Gold.Chemscore.DEInternal>
3.0549

> <Gold.Chemscore.Rot>
1.3366

> <Gold.Chemscore.Internal.Correction>
   9.000000E+99

> <Gold.Chemscore.Hbonds>
donor molecule, donor type, donor heavy atom, donor atom, acceptor molecule, acceptor atom, score
      L1  H    10    38       P1 10175  1.00
      L1  H    13    39       P1 10175  0.83

> <Gold.Chemscore.Hbond.Weighted>
-9.6398

> <Gold.Chemscore.Metal.Weighted>
-0.0000

> <Gold.Chemscore.Lipo.Weighted>
-10.7541

> <Gold.Chemscore.Internal_Hbond.Weighted>
0.0000

> <Gold.Chemscore.DEClash.Weighted>
1.7935

> <Gold.Chemscore.DEInternal.Weighted>
3.0549

> <Gold.Chemscore.Rot.Weighted>
3.4217

> <Gold.Chemscore.Internal.Correction.Weighted>
   9.000000E+99

> <Gold.Protein.RotatedTorsions>
[ 6907 6896 6895 6894 ] final  -51.98 input  -60.11 | X-H torsion
[ 7974 7965 7964 7962 ] final  -71.98 input  175.53 | X-H torsion
[ 8008 7997 7996 7995 ] final  -38.14 input   59.86 | X-H torsion
[ 10167 10162 10161 10158 ] final  -39.14 input  -65.29 | X-H torsion
[ 10718 10713 10712 10709 ] final  -76.50 input   66.30 | X-H torsion
[ 10763 10752 10751 10750 ] final  -23.26 input  -60.55 | X-H torsion
[ 11005 11000 10999 10996 ] final   39.69 input  -57.11 | X-H torsion

> <Gold.Protein.ActiveResidues>
 VAL166  LYS551  ARG553  GLY616  TRP617  ASP618  TYR619  PRO620  LYS621  CYS622 
 ASP623  PHE694  ASN695  SER759  ASP760  ASP761  ALA762  ILE779  LEU786  VAL792 
 PHE793  MET794  SER795  GLU796  ALA797  LYS798  CYS799  TRP800  GLU811  SER814 

> <Gold.Protein.RotatedAtoms>
  150.8560  134.7899  159.7045 H   0  0  0  0  0  0  0  0  0  0  0  0  # atno 6907 bound_to 6896
  152.4612  134.5177  159.9783 H   0  0  0  0  0  0  0  0  0  0  0  0  # atno 6908 bound_to 6896
  151.5289  133.3414  159.2950 H   0  0  0  0  0  0  0  0  0  0  0  0  # atno 6909 bound_to 6896
  145.6711  140.9220  143.0882 H   0  0  0  0  0  0  0  0  0  0  0  0  # atno 7974 bound_to 7965
  154.4041  140.1586  156.2651 H   0  0  0  0  0  0  0  0  0  0  0  0  # atno 8008 bound_to 7997
  155.9003  140.3433  155.5999 H   0  0  0  0  0  0  0  0  0  0  0  0  # atno 8009 bound_to 7997
  155.7456  140.0798  157.2216 H   0  0  0  0  0  0  0  0  0  0  0  0  # atno 8010 bound_to 7997
  140.7072  143.3233  151.2740 H   0  0  0  0  0  0  0  0  0  0  0  0  # atno 10167 bound_to 10162
  156.0173  130.4467  150.3203 H   0  0  0  0  0  0  0  0  0  0  0  0  # atno 10718 bound_to 10713
  153.6650  135.6974  153.5165 H   0  0  0  0  0  0  0  0  0  0  0  0  # atno 10763 bound_to 10752
  153.2602  135.4247  155.0885 H   0  0  0  0  0  0  0  0  0  0  0  0  # atno 10764 bound_to 10752
  154.8442  135.3553  154.6194 H   0  0  0  0  0  0  0  0  0  0  0  0  # atno 10765 bound_to 10752
  140.2003  134.3878  155.8099 H   0  0  0  0  0  0  0  0  0  0  0  0  # atno 11005 bound_to 11000
  144.7056  139.8574  143.7431 LP  0  0  0  0  0  0  0  0  0  0  0  0  # atno 17320 bound_to 7965
  146.1044  139.4043  143.0326 LP  0  0  0  0  0  0  0  0  0  0  0  0  # atno 17321 bound_to 7965
  139.6693  144.0048  152.2743 LP  0  0  0  0  0  0  0  0  0  0  0  0  # atno 17342 bound_to 10162
  139.9641  144.6538  150.8051 LP  0  0  0  0  0  0  0  0  0  0  0  0  # atno 17343 bound_to 10162
  157.1303  131.0270  151.2972 LP  0  0  0  0  0  0  0  0  0  0  0  0  # atno 17370 bound_to 10713
  157.4555  130.7623  149.7189 LP  0  0  0  0  0  0  0  0  0  0  0  0  # atno 17371 bound_to 10713
  141.2227  133.7091  156.8247 LP  0  0  0  0  0  0  0  0  0  0  0  0  # atno 17394 bound_to 11000
  140.2061  134.8861  157.3223 LP  0  0  0  0  0  0  0  0  0  0  0  0  # atno 17395 bound_to 11000

$$$$
