AV-unprocessed.smi:1748|AV-procd|sdf|7039|dock10
  -GOLD-   22720 8253D 1   1.00000     0.00000
 Structure written by MMmdl.
 40 41  0  0  0  0  0  0  0  0  2 V2000
  142.1119  134.3970  153.5327 C   0  0  0  0  0  0  0  0  0  0  0  0
  142.9018  135.0345  152.4573 N   0  3  2  0  0  0  0  0  0  0  0  0
  143.8753  134.0984  151.8412 C   0  0  0  0  0  0  0  0  0  0  0  0
  144.5925  134.7530  150.6486 C   0  0  0  0  0  0  0  0  0  0  0  0
  145.2722  136.0647  151.0655 C   0  0  0  0  0  0  0  0  0  0  0  0
  144.2486  137.0043  151.7231 C   0  0  2  0  0  0  0  0  0  0  0  0
  144.9097  138.2269  152.1702 N   0  0  0  0  0  0  0  0  0  0  0  0
  146.1026  138.2789  152.7804 C   0  0  0  0  0  0  0  0  0  0  0  0
  146.7800  137.2790  153.0184 O   0  0  0  0  0  0  0  0  0  0  0  0
  146.4452  139.5491  153.0628 N   0  0  0  0  0  0  0  0  0  0  0  0
  147.5914  140.0338  153.7154 C   0  0  0  0  0  0  0  0  0  0  0  0
  148.6956  139.2933  153.9957 C   0  0  0  0  0  0  0  0  0  0  0  0
  149.8437  139.8522  154.6894 C   0  0  0  0  0  0  0  0  0  0  0  0
  151.1002  139.0297  154.9288 C   0  0  0  0  0  0  0  0  0  0  0  0
  152.1833  139.6413  154.4475 F   0  0  0  0  0  0  0  0  0  0  0  0
  151.2750  138.8412  156.2363 F   0  0  0  0  0  0  0  0  0  0  0  0
  151.0013  137.8337  154.3482 F   0  0  0  0  0  0  0  0  0  0  0  0
  149.7624  141.1503  155.0356 C   0  0  0  0  0  0  0  0  0  0  0  0
  148.6225  141.9128  154.7700 N   0  0  0  0  0  0  0  0  0  0  0  0
  147.5255  141.4436  154.1343 C   0  0  0  0  0  0  0  0  0  0  0  0
  146.5587  142.1791  153.9374 O   0  0  0  0  0  0  0  0  0  0  0  0
  143.5463  136.2958  152.9011 C   0  0  0  0  0  0  0  0  0  0  0  0
  148.6325  142.8750  155.0762 H   0  0  0  0  0  0  0  0  0  0  0  0
  142.7528  134.0929  154.3613 H   0  0  0  0  0  0  0  0  0  0  0  0
  141.5941  133.5134  153.1582 H   0  0  0  0  0  0  0  0  0  0  0  0
  141.3582  135.0849  153.9171 H   0  0  0  0  0  0  0  0  0  0  0  0
  144.6034  133.7826  152.5902 H   0  0  0  0  0  0  0  0  0  0  0  0
  143.3563  133.1999  151.5049 H   0  0  0  0  0  0  0  0  0  0  0  0
  145.3309  134.0660  150.2344 H   0  0  0  0  0  0  0  0  0  0  0  0
  143.8734  134.9508  149.8524 H   0  0  0  0  0  0  0  0  0  0  0  0
  146.0849  135.8500  151.7613 H   0  0  0  0  0  0  0  0  0  0  0  0
  145.7232  136.5428  150.1951 H   0  0  0  0  0  0  0  0  0  0  0  0
  143.5002  137.2667  150.9722 H   0  0  0  0  0  0  0  0  0  0  0  0
  144.4209  139.0957  152.0079 H   0  0  0  0  0  0  0  0  0  0  0  0
  145.8165  140.2682  152.7352 H   0  0  0  0  0  0  0  0  0  0  0  0
  148.7471  138.2497  153.7308 H   0  0  0  0  0  0  0  0  0  0  0  0
  150.5498  141.6996  155.5306 H   0  0  0  0  0  0  0  0  0  0  0  0
  142.7868  136.9519  153.3288 H   0  0  0  0  0  0  0  0  0  0  0  0
  144.2618  136.0791  153.6964 H   0  0  0  0  0  0  0  0  0  0  0  0
  142.2457  135.2876  151.7321 H   0  0  0  0  0  0  0  0  0  0  0  0
  1  2  1  0  0  0  0
  1 24  1  0  0  0  0
  1 25  1  0  0  0  0
  1 26  1  0  0  0  0
  2 22  1  0  0  0  0
  2  3  1  0  0  0  0
  2 40  1  0  0  0  0
  3  4  1  0  0  0  0
  3 27  1  0  0  0  0
  3 28  1  0  0  0  0
  4  5  1  0  0  0  0
  4 29  1  0  0  0  0
  4 30  1  0  0  0  0
  5  6  1  0  0  0  0
  5 31  1  0  0  0  0
  5 32  1  0  0  0  0
  6  7  1  0  0  0  0
  6 22  1  0  0  0  0
  6 33  1  0  0  0  0
  7  8  1  0  0  0  0
  7 34  1  0  0  0  0
  8  9  2  0  0  0  0
  8 10  1  0  0  0  0
 10 11  1  0  0  0  0
 10 35  1  0  0  0  0
 11 20  1  0  0  0  0
 11 12  2  0  0  0  0
 12 13  1  0  0  0  0
 12 36  1  0  0  0  0
 13 14  1  0  0  0  0
 13 18  2  0  0  0  0
 14 15  1  0  0  0  0
 14 16  1  0  0  0  0
 14 17  1  0  0  0  0
 18 19  1  0  0  0  0
 18 37  1  0  0  0  0
 19 23  1  0  0  0  0
 19 20  1  0  0  0  0
 20 21  2  0  0  0  0
 22 38  1  0  0  0  0
 22 39  1  0  0  0  0
M  CHG  1   2   1
M  END
> <s_m_source_file>
AV-unprocessed.smi

> <i_m_source_file_index>
1748

> <i_lp_mmshare_version>
43012

> <i_f3d_flags>
0

> <s_epik_input>
W0NIM11OMVtDSDJdW0NIMl1bQ0gyXVtDQEhdKFtDSDJdMSlbTkhdQyg9TylbTkhdYzJbY0hdYyhDKEYpKEYpRilbY0hdW25IXWMyPU8=

> <s_epik_cmdline>
J2VwaWtfcHl0aG9uJywgJy1waCcsICc3LjAnLCAnLXRuJywgJzgnLCAnLW1hJywgJzIwMCcsICctbWV0YWxfYmluZGluZycsICctaW1hZScsICc8aW5maWxlLm1hZT4nLCAnLW9tYWUnLCAnPG91dGZpbGUubWFlPic=

> <r_lp_tautomer_probability>
1

> <r_epik_Ionization_Penalty>
0.00746315

> <r_epik_Ionization_Penalty_Charging>
0.00744398

> <r_epik_Ionization_Penalty_Neutral>
1.91704e-05

> <r_epik_State_Penalty>
-0

> <r_epik_Charging_Adjusted_Penalty>
0.00744398

> <i_epik_Tot_Q>
1

> <i_epik_Tot_abs_Q>
1

> <r_epik_Metal_State_Penalty>
0.379332

> <b_epik_Metal_Only>
0

> <s_lp_Force_Field>
OPLS_2005

> <r_lp_Energy>
25.4307

> <b_lp_Chiralities_Consistent>
1

> <s_lp_Variant>
AV-unprocessed.smi:1748-4

> <Gold.Version>
5.8.1

> <Gold.Id.Protein>
6NUR|6NUR_protein|mol2

> <Gold.PLP.Fitness>
39.8758

> <Gold.PLP.PLP>
-33.7151

> <Gold.PLP.part.hbond>
-4.0000

> <Gold.PLP.part.metal>
0.0000

> <Gold.PLP.part.buried>
2.7547

> <Gold.PLP.part.nonpolar>
-35.1288

> <Gold.PLP.part.repulsive>
3.0606

> <Gold.PLP.ligand.clash>
0.0037

> <Gold.PLP.ligand.torsion>
0.4372

> <Gold.PLP.Chemscore.Hbond>
2.3364

> <Gold.PLP.Chemscore.CHOScore>
0.0000

> <Gold.PLP.Chemscore.Metal>
0.0000

> <Gold.Chemscore.Hbonds>
donor molecule, donor type, donor heavy atom, donor atom, acceptor molecule, acceptor atom, score
      L1  H     7    34       P1 10175  1.00
      L1  H    10    35       P1 10175  0.51
      L1  H    19    23       P1  8028  1.00

> <Gold.PLP.Chemscore.Internal.Correction>
0.0298

> <Gold.Rescore>
     Score         DG    S(hbond)    S(metal)    S(lipo)     H(rot)  DE(clash)    DE(int)     intcor
     11.64     -19.00       2.47        0.00      67.06       1.00       4.06       3.30       ----

> <Gold.Chemscore.Fitness>
11.6437

> <Gold.Chemscore.DG>
-19.0006

> <Gold.Chemscore.ZeroCoef>
-5.4800

> <Gold.Chemscore.Hbond>
2.4656

> <Gold.Chemscore.Metal>
0.0000

> <Gold.Chemscore.Lipo>
67.0557

> <Gold.Chemscore.Internal_Hbond>
0.0000

> <Gold.Chemscore.DEClash>
4.0604

> <Gold.Chemscore.DEInternal>
3.2965

> <Gold.Chemscore.Rot>
1.0000

> <Gold.Chemscore.Internal.Correction>
   9.000000E+99

> <Gold.Chemscore.Hbonds>
donor molecule, donor type, donor heavy atom, donor atom, acceptor molecule, acceptor atom, score
      L1  H     7    34       P1 10175  0.97
      L1  H    10    35       P1 10175  0.43
      L1  H    19    23       P1  8028  0.99

> <Gold.Chemscore.Hbond.Weighted>
-8.2351

> <Gold.Chemscore.Metal.Weighted>
-0.0000

> <Gold.Chemscore.Lipo.Weighted>
-7.8455

> <Gold.Chemscore.Internal_Hbond.Weighted>
0.0000

> <Gold.Chemscore.DEClash.Weighted>
4.0604

> <Gold.Chemscore.DEInternal.Weighted>
3.2965

> <Gold.Chemscore.Rot.Weighted>
2.5600

> <Gold.Chemscore.Internal.Correction.Weighted>
   9.000000E+99

> <Gold.Protein.RotatedTorsions>
[ 6907 6896 6895 6894 ] final -131.27 input  -60.11 | X-H torsion
[ 7974 7965 7964 7962 ] final   77.70 input  175.53 | X-H torsion
[ 8008 7997 7996 7995 ] final  170.17 input   59.86 | X-H torsion
[ 10167 10162 10161 10158 ] final   73.28 input  -65.29 | X-H torsion
[ 10718 10713 10712 10709 ] final  126.58 input   66.30 | X-H torsion
[ 10763 10752 10751 10750 ] final  150.04 input  -60.55 | X-H torsion
[ 11005 11000 10999 10996 ] final   15.98 input  -57.11 | X-H torsion

> <Gold.Protein.ActiveResidues>
 VAL166  LYS551  ARG553  GLY616  TRP617  ASP618  TYR619  PRO620  LYS621  CYS622 
 ASP623  PHE694  ASN695  SER759  ASP760  ASP761  ALA762  ILE779  LEU786  VAL792 
 PHE793  MET794  SER795  GLU796  ALA797  LYS798  CYS799  TRP800  GLU811  SER814 

> <Gold.Protein.RotatedAtoms>
  150.9491  133.6569  159.2775 H   0  0  0  0  0  0  0  0  0  0  0  0  # atno 6907 bound_to 6896
  151.3932  135.0958  159.9542 H   0  0  0  0  0  0  0  0  0  0  0  0  # atno 6908 bound_to 6896
  152.5102  133.9001  159.7491 H   0  0  0  0  0  0  0  0  0  0  0  0  # atno 6909 bound_to 6896
  145.6866  139.2539  143.1784 H   0  0  0  0  0  0  0  0  0  0  0  0  # atno 7974 bound_to 7965
  156.1390  140.1545  156.8950 H   0  0  0  0  0  0  0  0  0  0  0  0  # atno 8008 bound_to 7997
  154.4971  140.0835  156.7759 H   0  0  0  0  0  0  0  0  0  0  0  0  # atno 8009 bound_to 7997
  155.4115  140.3419  155.4266 H   0  0  0  0  0  0  0  0  0  0  0  0  # atno 8010 bound_to 7997
  140.0261  144.5502  150.7543 H   0  0  0  0  0  0  0  0  0  0  0  0  # atno 10167 bound_to 10162
  157.5406  131.1097  150.8864 H   0  0  0  0  0  0  0  0  0  0  0  0  # atno 10718 bound_to 10713
  154.0810  135.2859  155.3290 H   0  0  0  0  0  0  0  0  0  0  0  0  # atno 10763 bound_to 10752
  154.6684  135.5309  153.8109 H   0  0  0  0  0  0  0  0  0  0  0  0  # atno 10764 bound_to 10752
  153.0449  135.6551  154.0985 H   0  0  0  0  0  0  0  0  0  0  0  0  # atno 10765 bound_to 10752
  140.4522  134.1213  155.7704 H   0  0  0  0  0  0  0  0  0  0  0  0  # atno 11005 bound_to 11000
  146.0918  140.7647  142.9591 LP  0  0  0  0  0  0  0  0  0  0  0  0  # atno 17320 bound_to 7965
  144.7009  140.3649  143.7156 LP  0  0  0  0  0  0  0  0  0  0  0  0  # atno 17321 bound_to 7965
  140.7322  143.2703  151.3911 LP  0  0  0  0  0  0  0  0  0  0  0  0  # atno 17342 bound_to 10162
  139.6107  144.1105  152.2295 LP  0  0  0  0  0  0  0  0  0  0  0  0  # atno 17343 bound_to 10162
  156.9418  130.5387  149.5280 LP  0  0  0  0  0  0  0  0  0  0  0  0  # atno 17370 bound_to 10713
  156.0494  130.5566  150.8955 LP  0  0  0  0  0  0  0  0  0  0  0  0  # atno 17371 bound_to 10713
  141.1659  133.8704  157.1716 LP  0  0  0  0  0  0  0  0  0  0  0  0  # atno 17394 bound_to 11000
  139.9999  135.0032  157.0167 LP  0  0  0  0  0  0  0  0  0  0  0  0  # atno 17395 bound_to 11000

$$$$
