AV-unprocessed.smi:69|AV-procd|sdf|650|dock6
  -GOLD-   2262016543D 1   1.00000     0.00000
 Structure written by MMmdl.
 32 34  0  0  0  0  0  0  0  0  1 V2000
  154.1706  137.5980  156.7156 N   0  0  0  0  0  0  0  0  0  0  0  0
  153.0252  138.2929  156.7428 C   0  0  0  0  0  0  0  0  0  0  0  0
  152.9901  139.4499  157.4454 N   0  0  0  0  0  0  0  0  0  0  0  0
  151.8574  140.1600  157.4904 C   0  0  0  0  0  0  0  0  0  0  0  0
  150.6800  139.8945  156.9170 N   0  0  0  0  0  0  0  0  0  0  0  0
  150.7219  138.7287  156.2080 C   0  0  0  0  0  0  0  0  0  0  0  0
  151.8486  137.8724  156.0726 C   0  0  0  0  0  0  0  0  0  0  0  0
  151.5176  136.7774  155.2845 N   0  0  0  0  0  0  0  0  0  0  0  0
  150.2642  136.9797  154.9749 C   0  0  0  0  0  0  0  0  0  0  0  0
  149.7104  138.1331  155.4889 N   0  0  0  0  0  0  0  0  0  0  0  0
  148.3191  138.6551  155.3371 C   0  0  1  0  0  0  0  0  0  0  0  0
  148.3247  140.0214  155.5869 O   0  0  0  0  0  0  0  0  0  0  0  0
  147.2111  140.6077  154.9235 C   0  0  1  0  0  0  0  0  0  0  0  0
  147.5787  142.0292  154.4617 C   0  0  0  0  0  0  0  0  0  0  0  0
  148.9776  142.2193  154.4078 O   0  0  0  0  0  0  0  0  0  0  0  0
  146.7719  139.6248  153.8156 C   0  0  2  0  0  0  0  0  0  0  0  0
  145.4715  139.1450  154.1007 O   0  0  0  0  0  0  0  0  0  0  0  0
  147.7752  138.4802  153.9133 C   0  0  1  0  0  0  0  0  0  0  0  0
  148.7767  138.5967  152.9184 O   0  0  0  0  0  0  0  0  0  0  0  0
  147.7220  138.1422  156.0936 H   0  0  0  0  0  0  0  0  0  0  0  0
  146.4253  140.6926  155.6766 H   0  0  0  0  0  0  0  0  0  0  0  0
  146.7556  140.0739  152.8217 H   0  0  0  0  0  0  0  0  0  0  0  0
  147.3146  137.4960  153.8147 H   0  0  0  0  0  0  0  0  0  0  0  0
  154.2199  136.7312  156.1994 H   0  0  0  0  0  0  0  0  0  0  0  0
  154.9804  137.9404  157.2120 H   0  0  0  0  0  0  0  0  0  0  0  0
  151.8999  141.0707  158.0693 H   0  0  0  0  0  0  0  0  0  0  0  0
  149.7038  136.2861  154.3644 H   0  0  0  0  0  0  0  0  0  0  0  0
  147.1788  142.2057  153.4631 H   0  0  0  0  0  0  0  0  0  0  0  0
  147.1333  142.7750  155.1208 H   0  0  0  0  0  0  0  0  0  0  0  0
  149.2023  142.9600  154.9501 H   0  0  0  0  0  0  0  0  0  0  0  0
  144.8441  139.7040  153.6681 H   0  0  0  0  0  0  0  0  0  0  0  0
  148.9110  137.7447  152.5319 H   0  0  0  0  0  0  0  0  0  0  0  0
  1  2  1  0  0  0  0
  1 24  1  0  0  0  0
  1 25  1  0  0  0  0
  2  7  1  0  0  0  0
  2  3  2  0  0  0  0
  3  4  1  0  0  0  0
  4  5  2  0  0  0  0
  4 26  1  0  0  0  0
  5  6  1  0  0  0  0
  6 10  1  0  0  0  0
  6  7  2  0  0  0  0
  7  8  1  0  0  0  0
  8  9  2  0  0  0  0
  9 10  1  0  0  0  0
  9 27  1  0  0  0  0
 10 11  1  0  0  0  0
 11 20  1  0  0  0  0
 11 18  1  0  0  0  0
 11 12  1  0  0  0  0
 12 13  1  0  0  0  0
 13 21  1  0  0  0  0
 13 14  1  0  0  0  0
 13 16  1  0  0  0  0
 14 15  1  0  0  0  0
 14 28  1  0  0  0  0
 14 29  1  0  0  0  0
 15 30  1  0  0  0  0
 16 22  1  0  0  0  0
 16 17  1  0  0  0  0
 16 18  1  0  0  0  0
 17 31  1  0  0  0  0
 18 23  1  0  0  0  0
 18 19  1  0  0  0  0
 19 32  1  0  0  0  0
M  END
> <s_m_source_file>
AV-unprocessed.smi

> <i_m_source_file_index>
69

> <i_lp_mmshare_version>
43012

> <i_f3d_flags>
0

> <s_epik_input>
bjFbY0hdbmMoW05IMl0pYyhjMTIpbltjSF1uMltDQEBIXTNPW0NASF0oW0NIMl1bT0hdKVtDQEBIXShbT0hdKVtDQEhdM1tPSF0=

> <s_epik_cmdline>
J2VwaWtfcHl0aG9uJywgJy1waCcsICc3LjAnLCAnLXRuJywgJzgnLCAnLW1hJywgJzIwMCcsICctbWV0YWxfYmluZGluZycsICctaW1hZScsICc8aW5maWxlLm1hZT4nLCAnLW9tYWUnLCAnPG91dGZpbGUubWFlPic=

> <r_lp_tautomer_probability>
1

> <r_epik_Ionization_Penalty>
0.000428445

> <r_epik_Ionization_Penalty_Charging>
0

> <r_epik_Ionization_Penalty_Neutral>
0.000428445

> <r_epik_State_Penalty>
-0

> <r_epik_Charging_Adjusted_Penalty>
0

> <i_epik_Tot_Q>
0

> <i_epik_Tot_abs_Q>
0

> <r_epik_Metal_State_Penalty>
-0

> <b_epik_Metal_Only>
0

> <s_epik_Chemistry_Notes>
This compound contains an acetal/aminal-like group ( X-CH(R)-Y where X, Y are N, S, or O) that may be acid/base labile, releasing an aldehyde.

> <s_lp_Force_Field>
OPLS_2005

> <r_lp_Energy>
41.0304

> <b_lp_Chiralities_Consistent>
1

> <s_lp_Variant>
AV-unprocessed.smi:69-8

> <Gold.Version>
5.8.1

> <Gold.Id.Protein>
6NUR|6NUR_protein|mol2

> <Gold.PLP.Fitness>
35.9285

> <Gold.PLP.PLP>
-19.5157

> <Gold.PLP.part.hbond>
-6.4791

> <Gold.PLP.part.metal>
0.0000

> <Gold.PLP.part.buried>
-1.8126

> <Gold.PLP.part.nonpolar>
-11.6176

> <Gold.PLP.part.repulsive>
0.3859

> <Gold.PLP.ligand.clash>
0.0000

> <Gold.PLP.ligand.torsion>
1.1648

> <Gold.PLP.Chemscore.Hbond>
5.2447

> <Gold.PLP.Chemscore.CHOScore>
1.0000

> <Gold.PLP.Chemscore.Metal>
0.0000

> <Gold.Chemscore.Hbonds>
donor molecule, donor type, donor heavy atom, donor atom, acceptor molecule, acceptor atom, score
      L1  H    15    30       P1  8028  1.00
      L1  H    17    31       P1 10175  1.00
      L1  H    19    32       P1  7948  1.00
      P1  H  7997  8010       L1     3  0.75
      P1  H  8011  8017       L1    15  0.13
      P1  H 10752 10763       L1     8  1.00
      L1  C     9    27       P1  7948  0.87

> <Gold.PLP.Chemscore.Internal.Correction>
0.0082

> <Gold.Rescore>
     Score         DG    S(hbond)    S(metal)    S(lipo)     H(rot)  DE(clash)    DE(int)     intcor
      8.81     -13.20       4.43        0.00      27.51       4.03       0.71       3.67       ----

> <Gold.Chemscore.Fitness>
8.8136

> <Gold.Chemscore.DG>
-13.1979

> <Gold.Chemscore.ZeroCoef>
-5.4800

> <Gold.Chemscore.Hbond>
4.4342

> <Gold.Chemscore.Metal>
0.0000

> <Gold.Chemscore.Lipo>
27.5092

> <Gold.Chemscore.Internal_Hbond>
0.0000

> <Gold.Chemscore.DEClash>
0.7134

> <Gold.Chemscore.DEInternal>
3.6709

> <Gold.Chemscore.Rot>
4.0277

> <Gold.Chemscore.Internal.Correction>
   9.000000E+99

> <Gold.Chemscore.Hbonds>
donor molecule, donor type, donor heavy atom, donor atom, acceptor molecule, acceptor atom, score
      L1  H    15    30       P1  8028  0.96
      L1  H    17    31       P1 10175  1.00
      L1  H    19    32       P1  7948  0.99
      P1  H  7997  8010       L1     3  0.09
      P1  H  8011  8017       L1    15  0.09
      P1  H 10752 10763       L1     8  0.92

> <Gold.Chemscore.Hbond.Weighted>
-14.8104

> <Gold.Chemscore.Metal.Weighted>
-0.0000

> <Gold.Chemscore.Lipo.Weighted>
-3.2186

> <Gold.Chemscore.Internal_Hbond.Weighted>
0.0000

> <Gold.Chemscore.DEClash.Weighted>
0.7134

> <Gold.Chemscore.DEInternal.Weighted>
3.6709

> <Gold.Chemscore.Rot.Weighted>
10.3110

> <Gold.Chemscore.Internal.Correction.Weighted>
   9.000000E+99

> <Gold.Protein.RotatedTorsions>
[ 6907 6896 6895 6894 ] final  132.62 input  -60.11 | X-H torsion
[ 7974 7965 7964 7962 ] final  -33.87 input  175.53 | X-H torsion
[ 8008 7997 7996 7995 ] final   50.82 input   59.86 | X-H torsion
[ 10167 10162 10161 10158 ] final -120.06 input  -65.29 | X-H torsion
[ 10718 10713 10712 10709 ] final  -48.08 input   66.30 | X-H torsion
[ 10763 10752 10751 10750 ] final   71.23 input  -60.55 | X-H torsion
[ 11005 11000 10999 10996 ] final   74.72 input  -57.11 | X-H torsion

> <Gold.Protein.ActiveResidues>
 VAL166  LYS551  ARG553  GLY616  TRP617  ASP618  TYR619  PRO620  LYS621  CYS622 
 ASP623  PHE694  ASN695  SER759  ASP760  ASP761  ALA762  ILE779  LEU786  VAL792 
 PHE793  MET794  SER795  GLU796  ALA797  LYS798  CYS799  TRP800  GLU811  SER814 

> <Gold.Protein.RotatedAtoms>
  152.3305  133.5953  159.5806 H   0  0  0  0  0  0  0  0  0  0  0  0  # atno 6907 bound_to 6896
  150.7420  133.9875  159.3605 H   0  0  0  0  0  0  0  0  0  0  0  0  # atno 6908 bound_to 6896
  151.7750  135.0777  160.0416 H   0  0  0  0  0  0  0  0  0  0  0  0  # atno 6909 bound_to 6896
  146.0875  140.5969  142.8879 H   0  0  0  0  0  0  0  0  0  0  0  0  # atno 7974 bound_to 7965
  155.4251  140.3448  155.4275 H   0  0  0  0  0  0  0  0  0  0  0  0  # atno 8008 bound_to 7997
  156.1370  140.1530  156.9011 H   0  0  0  0  0  0  0  0  0  0  0  0  # atno 8009 bound_to 7997
  154.4939  140.0833  156.7635 H   0  0  0  0  0  0  0  0  0  0  0  0  # atno 8010 bound_to 7997
  140.0399  143.5163  152.2135 H   0  0  0  0  0  0  0  0  0  0  0  0  # atno 10167 bound_to 10162
  156.2022  130.4157  149.9225 H   0  0  0  0  0  0  0  0  0  0  0  0  # atno 10718 bound_to 10713
  153.0387  135.5144  154.7562 H   0  0  0  0  0  0  0  0  0  0  0  0  # atno 10763 bound_to 10752
  154.6517  135.2926  154.9980 H   0  0  0  0  0  0  0  0  0  0  0  0  # atno 10764 bound_to 10752
  154.0862  135.6657  153.4898 H   0  0  0  0  0  0  0  0  0  0  0  0  # atno 10765 bound_to 10752
  139.9377  134.7457  156.1183 H   0  0  0  0  0  0  0  0  0  0  0  0  # atno 11005 bound_to 11000
  144.7336  140.4745  143.6920 LP  0  0  0  0  0  0  0  0  0  0  0  0  # atno 17320 bound_to 7965
  145.6101  139.1512  143.3080 LP  0  0  0  0  0  0  0  0  0  0  0  0  # atno 17321 bound_to 7965
  139.6020  144.7585  151.3149 LP  0  0  0  0  0  0  0  0  0  0  0  0  # atno 17342 bound_to 10162
  140.7264  143.6990  150.7860 LP  0  0  0  0  0  0  0  0  0  0  0  0  # atno 17343 bound_to 10162
  156.6931  130.8903  151.3590 LP  0  0  0  0  0  0  0  0  0  0  0  0  # atno 17370 bound_to 10713
  157.6992  130.9315  150.0735 LP  0  0  0  0  0  0  0  0  0  0  0  0  # atno 17371 bound_to 10713
  141.0998  133.6681  156.2729 LP  0  0  0  0  0  0  0  0  0  0  0  0  # atno 17394 bound_to 11000
  140.6032  134.5534  157.5521 LP  0  0  0  0  0  0  0  0  0  0  0  0  # atno 17395 bound_to 11000

$$$$
