AV-unprocessed.smi:1824|AV-procd|sdf|7405|dock3
  -GOLD-   22720 9 83D 1   1.00000     0.00000
 Structure written by MMmdl.
 45 47  0  0  0  0  0  0  0  0  2 V2000
  144.4108  144.1610  154.1989 C   0  0  0  0  0  0  0  0  0  0  0  0
  145.6606  143.6575  154.9290 C   0  0  2  0  0  0  0  0  0  0  0  0
  146.4431  142.6235  154.0973 C   0  0  0  0  0  0  0  0  0  0  0  0
  147.5996  142.1071  154.8697 N   0  3  2  0  0  0  0  0  0  0  0  0
  148.4431  141.1472  154.1123 C   0  0  0  0  0  0  0  0  0  0  0  0
  149.6162  140.6048  154.9519 C   0  0  1  0  0  0  0  0  0  0  0  0
  150.4899  139.8876  154.1004 O   0  0  0  0  0  0  0  0  0  0  0  0
  150.3942  141.7364  155.6511 C   0  0  0  0  0  0  0  0  0  0  0  0
  151.0535  141.2888  156.8654 N   0  0  0  0  0  0  0  0  0  0  0  0
  151.4588  140.0367  157.1522 C   0  0  0  0  0  0  0  0  0  0  0  0
  152.0523  139.8417  158.3261 N   0  0  0  0  0  0  0  0  0  0  0  0
  152.0294  141.1160  158.8666 C   0  0  0  0  0  0  0  0  0  0  0  0
  152.5107  141.5956  160.1056 C   0  0  0  0  0  0  0  0  0  0  0  0
  152.3769  142.9578  160.4458 C   0  0  0  0  0  0  0  0  0  0  0  0
  152.8452  143.4010  161.6366 F   0  0  0  0  0  0  0  0  0  0  0  0
  151.7596  143.8594  159.5536 C   0  0  0  0  0  0  0  0  0  0  0  0
  151.6352  145.1657  159.8877 F   0  0  0  0  0  0  0  0  0  0  0  0
  151.2718  143.4045  158.3135 C   0  0  0  0  0  0  0  0  0  0  0  0
  151.4086  142.0449  157.9779 C   0  0  0  0  0  0  0  0  0  0  0  0
  147.1475  141.5649  156.1723 C   0  0  0  0  0  0  0  0  0  0  0  0
  146.3464  142.6267  156.9492 C   0  0  2  0  0  0  0  0  0  0  0  0
  145.7947  142.0830  158.2718 C   0  0  0  0  0  0  0  0  0  0  0  0
  145.2482  143.0546  156.1510 O   0  0  0  0  0  0  0  0  0  0  0  0
  144.6733  144.6407  153.2558 H   0  0  0  0  0  0  0  0  0  0  0  0
  143.8736  144.8915  154.8043 H   0  0  0  0  0  0  0  0  0  0  0  0
  143.7246  143.3426  153.9793 H   0  0  0  0  0  0  0  0  0  0  0  0
  146.3012  144.5135  155.1486 H   0  0  0  0  0  0  0  0  0  0  0  0
  145.7910  141.7939  153.8191 H   0  0  0  0  0  0  0  0  0  0  0  0
  146.7812  143.0869  153.1709 H   0  0  0  0  0  0  0  0  0  0  0  0
  147.8353  140.3036  153.7805 H   0  0  0  0  0  0  0  0  0  0  0  0
  148.8103  141.6301  153.2051 H   0  0  0  0  0  0  0  0  0  0  0  0
  149.2492  139.9184  155.7144 H   0  0  0  0  0  0  0  0  0  0  0  0
  150.7046  139.0632  154.5100 H   0  0  0  0  0  0  0  0  0  0  0  0
  151.1438  142.1603  154.9816 H   0  0  0  0  0  0  0  0  0  0  0  0
  149.7171  142.5506  155.9130 H   0  0  0  0  0  0  0  0  0  0  0  0
  151.3123  139.2218  156.4581 H   0  0  0  0  0  0  0  0  0  0  0  0
  152.9853  140.9150  160.7966 H   0  0  0  0  0  0  0  0  0  0  0  0
  150.8005  144.0939  157.6293 H   0  0  0  0  0  0  0  0  0  0  0  0
  146.5368  140.6759  156.0044 H   0  0  0  0  0  0  0  0  0  0  0  0
  148.0117  141.2550  156.7614 H   0  0  0  0  0  0  0  0  0  0  0  0
  146.9866  143.4834  157.1677 H   0  0  0  0  0  0  0  0  0  0  0  0
  146.6008  141.7519  158.9268 H   0  0  0  0  0  0  0  0  0  0  0  0
  145.1293  141.2352  158.1046 H   0  0  0  0  0  0  0  0  0  0  0  0
  145.2295  142.8494  158.8027 H   0  0  0  0  0  0  0  0  0  0  0  0
  148.1917  142.8977  155.0832 H   0  0  0  0  0  0  0  0  0  0  0  0
  1  2  1  0  0  0  0
  1 24  1  0  0  0  0
  1 25  1  0  0  0  0
  1 26  1  0  0  0  0
  2 23  1  0  0  0  0
  2  3  1  0  0  0  0
  2 27  1  0  0  0  0
  3  4  1  0  0  0  0
  3 28  1  0  0  0  0
  3 29  1  0  0  0  0
  4  5  1  0  0  0  0
  4 20  1  0  0  0  0
  4 45  1  0  0  0  0
  5  6  1  0  0  0  0
  5 30  1  0  0  0  0
  5 31  1  0  0  0  0
  6  7  1  0  0  0  0
  6  8  1  0  0  0  0
  6 32  1  0  0  0  0
  7 33  1  0  0  0  0
  8  9  1  0  0  0  0
  8 34  1  0  0  0  0
  8 35  1  0  0  0  0
  9 19  1  0  0  0  0
  9 10  1  0  0  0  0
 10 11  2  0  0  0  0
 10 36  1  0  0  0  0
 11 12  1  0  0  0  0
 12 19  2  0  0  0  0
 12 13  1  0  0  0  0
 13 14  2  0  0  0  0
 13 37  1  0  0  0  0
 14 15  1  0  0  0  0
 14 16  1  0  0  0  0
 16 17  1  0  0  0  0
 16 18  2  0  0  0  0
 18 19  1  0  0  0  0
 18 38  1  0  0  0  0
 20 21  1  0  0  0  0
 20 39  1  0  0  0  0
 20 40  1  0  0  0  0
 21 22  1  0  0  0  0
 21 23  1  0  0  0  0
 21 41  1  0  0  0  0
 22 42  1  0  0  0  0
 22 43  1  0  0  0  0
 22 44  1  0  0  0  0
M  CHG  1   4   1
M  END
> <s_m_source_file>
AV-unprocessed.smi

> <i_m_source_file_index>
1824

> <i_lp_mmshare_version>
43012

> <i_f3d_flags>
0

> <s_epik_input>
W0NIM11bQ0BASF0xW0NIMl1OKFtDSDJdW0NASF0oTzEpW0NIM10pW0NIMl1bQ0BIXShbT0hdKVtDSDJdbihbY0hdbjIpYyhjMjMpW2NIXWMoRiljKEYpW2NIXTM=

> <s_epik_cmdline>
J2VwaWtfcHl0aG9uJywgJy1waCcsICc3LjAnLCAnLXRuJywgJzgnLCAnLW1hJywgJzIwMCcsICctbWV0YWxfYmluZGluZycsICctaW1hZScsICc8aW5maWxlLm1hZT4nLCAnLW9tYWUnLCAnPG91dGZpbGUubWFlPic=

> <r_epik_Ionization_Penalty>
0.61967

> <r_epik_Ionization_Penalty_Charging>
0.608065

> <r_epik_Ionization_Penalty_Neutral>
0.0116057

> <r_epik_State_Penalty>
0.664205

> <r_epik_Charging_Adjusted_Penalty>
1.27227

> <i_epik_Tot_Q>
1

> <i_epik_Tot_abs_Q>
1

> <r_epik_Metal_State_Penalty>
0.654947

> <b_epik_Metal_Only>
0

> <s_lp_Force_Field>
OPLS_2005

> <r_lp_Energy>
20.1531

> <b_lp_Chiralities_Consistent>
1

> <s_lp_Variant>
AV-unprocessed.smi:1824-13

> <Gold.Version>
5.8.1

> <Gold.Id.Protein>
6NUR|6NUR_protein|mol2

> <Gold.PLP.Fitness>
56.7097

> <Gold.PLP.PLP>
-49.1104

> <Gold.PLP.part.hbond>
-2.8834

> <Gold.PLP.part.metal>
0.0000

> <Gold.PLP.part.buried>
-7.3699

> <Gold.PLP.part.nonpolar>
-39.2722

> <Gold.PLP.part.repulsive>
0.2351

> <Gold.PLP.ligand.clash>
0.0000

> <Gold.PLP.ligand.torsion>
0.7297

> <Gold.PLP.Chemscore.Hbond>
3.0000

> <Gold.PLP.Chemscore.CHOScore>
0.0000

> <Gold.PLP.Chemscore.Metal>
0.0000

> <Gold.Chemscore.Hbonds>
donor molecule, donor type, donor heavy atom, donor atom, acceptor molecule, acceptor atom, score
      L1  H     4    45       P1  8028  2.00
      P1  H  7989  7998       L1     7  1.00

> <Gold.PLP.Chemscore.Internal.Correction>
0.0587

> <Gold.Rescore>
     Score         DG    S(hbond)    S(metal)    S(lipo)     H(rot)  DE(clash)    DE(int)     intcor
     17.22     -18.06       1.88        0.00     104.59       2.33       0.13       0.71       ----

> <Gold.Chemscore.Fitness>
17.2159

> <Gold.Chemscore.DG>
-18.0567

> <Gold.Chemscore.ZeroCoef>
-5.4800

> <Gold.Chemscore.Hbond>
1.8839

> <Gold.Chemscore.Metal>
0.0000

> <Gold.Chemscore.Lipo>
104.5871

> <Gold.Chemscore.Internal_Hbond>
0.0000

> <Gold.Chemscore.DEClash>
0.1336

> <Gold.Chemscore.DEInternal>
0.7072

> <Gold.Chemscore.Rot>
2.3251

> <Gold.Chemscore.Internal.Correction>
   9.000000E+99

> <Gold.Chemscore.Hbonds>
donor molecule, donor type, donor heavy atom, donor atom, acceptor molecule, acceptor atom, score
      L1  H     4    45       P1  8028  0.94
      P1  H  7989  7998       L1     7  0.76

> <Gold.Chemscore.Hbond.Weighted>
-6.2923

> <Gold.Chemscore.Metal.Weighted>
-0.0000

> <Gold.Chemscore.Lipo.Weighted>
-12.2367

> <Gold.Chemscore.Internal_Hbond.Weighted>
0.0000

> <Gold.Chemscore.DEClash.Weighted>
0.1336

> <Gold.Chemscore.DEInternal.Weighted>
0.7072

> <Gold.Chemscore.Rot.Weighted>
5.9523

> <Gold.Chemscore.Internal.Correction.Weighted>
   9.000000E+99

> <Gold.Protein.RotatedTorsions>
[ 6907 6896 6895 6894 ] final -132.26 input  -60.11 | X-H torsion
[ 7974 7965 7964 7962 ] final   -0.55 input  175.53 | X-H torsion
[ 8008 7997 7996 7995 ] final   33.78 input   59.86 | X-H torsion
[ 10167 10162 10161 10158 ] final  127.75 input  -65.29 | X-H torsion
[ 10718 10713 10712 10709 ] final  -62.94 input   66.30 | X-H torsion
[ 10763 10752 10751 10750 ] final   55.11 input  -60.55 | X-H torsion
[ 11005 11000 10999 10996 ] final   34.89 input  -57.11 | X-H torsion

> <Gold.Protein.ActiveResidues>
 VAL166  LYS551  ARG553  GLY616  TRP617  ASP618  TYR619  PRO620  LYS621  CYS622 
 ASP623  PHE694  ASN695  SER759  ASP760  ASP761  ALA762  ILE779  LEU786  VAL792 
 PHE793  MET794  SER795  GLU796  ALA797  LYS798  CYS799  TRP800  GLU811  SER814 

> <Gold.Protein.RotatedAtoms>
  150.9603  133.6452  159.2755 H   0  0  0  0  0  0  0  0  0  0  0  0  # atno 6907 bound_to 6896
  151.3777  135.0933  159.9496 H   0  0  0  0  0  0  0  0  0  0  0  0  # atno 6908 bound_to 6896
  152.5145  133.9144  159.7558 H   0  0  0  0  0  0  0  0  0  0  0  0  # atno 6909 bound_to 6896
  146.2426  140.1287  142.8338 H   0  0  0  0  0  0  0  0  0  0  0  0  # atno 7974 bound_to 7965
  155.1442  140.3269  155.4445 H   0  0  0  0  0  0  0  0  0  0  0  0  # atno 8008 bound_to 7997
  156.2595  140.1988  156.6506 H   0  0  0  0  0  0  0  0  0  0  0  0  # atno 8009 bound_to 7997
  154.6520  140.0557  156.9953 H   0  0  0  0  0  0  0  0  0  0  0  0  # atno 8010 bound_to 7997
  139.5562  144.6850  151.4176 H   0  0  0  0  0  0  0  0  0  0  0  0  # atno 10167 bound_to 10162
  156.0823  130.4215  150.1206 H   0  0  0  0  0  0  0  0  0  0  0  0  # atno 10718 bound_to 10713
  152.9812  135.5722  154.5014 H   0  0  0  0  0  0  0  0  0  0  0  0  # atno 10763 bound_to 10752
  154.4533  135.2779  155.1768 H   0  0  0  0  0  0  0  0  0  0  0  0  # atno 10764 bound_to 10752
  154.3386  135.6234  153.5639 H   0  0  0  0  0  0  0  0  0  0  0  0  # atno 10765 bound_to 10752
  140.2482  134.3334  155.7900 H   0  0  0  0  0  0  0  0  0  0  0  0  # atno 11005 bound_to 11000
  145.0345  140.8897  143.5089 LP  0  0  0  0  0  0  0  0  0  0  0  0  # atno 17320 bound_to 7965
  145.1356  139.2604  143.5516 LP  0  0  0  0  0  0  0  0  0  0  0  0  # atno 17321 bound_to 7965
  140.6835  143.8027  150.7154 LP  0  0  0  0  0  0  0  0  0  0  0  0  # atno 17342 bound_to 10162
  140.1488  143.4376  152.2145 LP  0  0  0  0  0  0  0  0  0  0  0  0  # atno 17343 bound_to 10162
  156.9234  130.9690  151.3545 LP  0  0  0  0  0  0  0  0  0  0  0  0  # atno 17370 bound_to 10713
  157.5944  130.8467  149.8707 LP  0  0  0  0  0  0  0  0  0  0  0  0  # atno 17371 bound_to 10713
  141.2204  133.7338  156.8995 LP  0  0  0  0  0  0  0  0  0  0  0  0  # atno 17394 bound_to 11000
  140.1584  134.9182  157.2683 LP  0  0  0  0  0  0  0  0  0  0  0  0  # atno 17395 bound_to 11000

$$$$
