AV-unprocessed.smi:1507|AV-procd|sdf|6082|dock5
  -GOLD-   22720 6203D 1   1.00000     0.00000
 Structure written by MMmdl.
 34 35  0  0  0  0  0  0  0  0  3 V2000
  147.1437  137.0243  153.1858 N   0  0  0  0  0  0  0  0  0  0  0  0
  147.9719  137.6198  154.5677 S   0  0  0  0  0  0  0  0  0  0  0  0
  146.9289  138.0809  155.4982 O   0  0  0  0  0  0  0  0  0  0  0  0
  148.8713  136.5373  154.9978 O   0  0  0  0  0  0  0  0  0  0  0  0
  148.7350  138.8261  153.8044 N   0  5  0  0  0  0  0  0  0  0  0  0
  150.1680  138.9703  153.9778 C   0  0  0  0  0  0  0  0  0  0  0  0
  150.4910  139.9396  155.1041 C   0  0  0  0  0  0  0  0  0  0  0  0
  151.3772  139.5757  156.1452 C   0  0  0  0  0  0  0  0  0  0  0  0
  151.6442  140.4946  157.1819 C   0  0  0  0  0  0  0  0  0  0  0  0
  151.0216  141.7603  157.1655 C   0  0  0  0  0  0  0  0  0  0  0  0
  151.2546  142.6944  158.1844 N   0  0  0  0  0  0  0  0  0  0  0  0
  151.9671  142.1371  159.3271 C   0  0  0  0  0  0  0  0  0  0  0  0
  152.0777  143.1916  160.4419 C   0  0  0  0  0  0  0  0  0  0  0  0
  152.7064  144.3627  159.9289 O   0  0  0  0  0  0  0  0  0  0  0  0
  151.9645  144.9450  158.8608 C   0  0  0  0  0  0  0  0  0  0  0  0
  151.8500  143.9358  157.7053 C   0  0  0  0  0  0  0  0  0  0  0  0
  150.1819  142.0725  156.1496 N   0  3  0  0  0  0  0  0  0  0  0  0
  149.8986  141.2226  155.1375 C   0  0  0  0  0  0  0  0  0  0  0  0
  146.2774  136.5466  153.4315 H   0  0  0  0  0  0  0  0  0  0  0  0
  147.7534  136.4814  152.5756 H   0  0  0  0  0  0  0  0  0  0  0  0
  150.6463  138.0155  154.1986 H   0  0  0  0  0  0  0  0  0  0  0  0
  150.6508  139.3381  153.0718 H   0  0  0  0  0  0  0  0  0  0  0  0
  151.8508  138.6034  156.1671 H   0  0  0  0  0  0  0  0  0  0  0  0
  152.3163  140.2246  157.9834 H   0  0  0  0  0  0  0  0  0  0  0  0
  151.4425  141.2550  159.6961 H   0  0  0  0  0  0  0  0  0  0  0  0
  152.9640  141.8164  159.0208 H   0  0  0  0  0  0  0  0  0  0  0  0
  151.0933  143.4403  160.8421 H   0  0  0  0  0  0  0  0  0  0  0  0
  152.6704  142.8033  161.2703 H   0  0  0  0  0  0  0  0  0  0  0  0
  150.9775  145.2494  159.2128 H   0  0  0  0  0  0  0  0  0  0  0  0
  152.4746  145.8470  158.5233 H   0  0  0  0  0  0  0  0  0  0  0  0
  152.8394  143.7365  157.2911 H   0  0  0  0  0  0  0  0  0  0  0  0
  151.2409  144.3522  156.9020 H   0  0  0  0  0  0  0  0  0  0  0  0
  149.2034  141.5970  154.3984 H   0  0  0  0  0  0  0  0  0  0  0  0
  149.7353  142.9894  156.1494 H   0  0  0  0  0  0  0  0  0  0  0  0
  1  2  1  0  0  0  0
  1 19  1  0  0  0  0
  1 20  1  0  0  0  0
  2  3  2  0  0  0  0
  2  4  2  0  0  0  0
  2  5  1  0  0  0  0
  5  6  1  0  0  0  0
  6  7  1  0  0  0  0
  6 21  1  0  0  0  0
  6 22  1  0  0  0  0
  7 18  1  0  0  0  0
  7  8  2  0  0  0  0
  8  9  1  0  0  0  0
  8 23  1  0  0  0  0
  9 10  2  0  0  0  0
  9 24  1  0  0  0  0
 10 11  1  0  0  0  0
 10 17  1  0  0  0  0
 11 16  1  0  0  0  0
 11 12  1  0  0  0  0
 12 13  1  0  0  0  0
 12 25  1  0  0  0  0
 12 26  1  0  0  0  0
 13 14  1  0  0  0  0
 13 27  1  0  0  0  0
 13 28  1  0  0  0  0
 14 15  1  0  0  0  0
 15 16  1  0  0  0  0
 15 29  1  0  0  0  0
 15 30  1  0  0  0  0
 16 31  1  0  0  0  0
 16 32  1  0  0  0  0
 17 18  2  0  0  0  0
 17 34  1  0  0  0  0
 18 33  1  0  0  0  0
M  CHG  1   5  -1
M  CHG  1  17   1
M  END
> <s_m_source_file>
AV-unprocessed.smi

> <i_m_source_file_index>
1507

> <i_lp_mmshare_version>
43012

> <i_f3d_flags>
0

> <s_epik_input>
W05IMl1TKD1PKSg9TylbTkhdW0NIMl1jMVtjSF1bY0hdYyhuW2NIXTEpTjJbQ0gyXVtDSDJdT1tDSDJdW0NIMl0y

> <s_epik_cmdline>
J2VwaWtfcHl0aG9uJywgJy1waCcsICc3LjAnLCAnLXRuJywgJzgnLCAnLW1hJywgJzIwMCcsICctbWV0YWxfYmluZGluZycsICctaW1hZScsICc8aW5maWxlLm1hZT4nLCAnLW9tYWUnLCAnPG91dGZpbGUubWFlPic=

> <r_epik_Ionization_Penalty>
1.53449

> <r_epik_Ionization_Penalty_Charging>
1.53276

> <r_epik_Ionization_Penalty_Neutral>
0.00173209

> <r_epik_State_Penalty>
2.14469

> <r_epik_Charging_Adjusted_Penalty>
3.67745

> <i_epik_Tot_Q>
0

> <i_epik_Tot_abs_Q>
2

> <r_epik_Metal_State_Penalty>
2.50812

> <b_epik_Metal_Only>
0

> <s_lp_Force_Field>
OPLS_2005

> <r_lp_Energy>
19.2824

> <b_lp_Chiralities_Consistent>
1

> <s_lp_Variant>
AV-unprocessed.smi:1507-3

> <Gold.Version>
5.8.1

> <Gold.Id.Protein>
6NUR|6NUR_protein|mol2

> <Gold.PLP.Fitness>
38.2041

> <Gold.PLP.PLP>
-31.0345

> <Gold.PLP.part.hbond>
-1.9332

> <Gold.PLP.part.metal>
0.0000

> <Gold.PLP.part.buried>
-0.8514

> <Gold.PLP.part.nonpolar>
-28.7939

> <Gold.PLP.part.repulsive>
0.5381

> <Gold.PLP.ligand.clash>
1.0487

> <Gold.PLP.ligand.torsion>
0.9087

> <Gold.PLP.Chemscore.Hbond>
3.0000

> <Gold.PLP.Chemscore.CHOScore>
0.0000

> <Gold.PLP.Chemscore.Metal>
0.0000

> <Gold.Chemscore.Hbonds>
donor molecule, donor type, donor heavy atom, donor atom, acceptor molecule, acceptor atom, score
      L1  H     1    20       P1  7948  0.71
      L1  H    17    34       P1  8028  2.00

> <Gold.PLP.Chemscore.Internal.Correction>
1.0358

> <Gold.Rescore>
     Score         DG    S(hbond)    S(metal)    S(lipo)     H(rot)  DE(clash)    DE(int)     intcor
     15.53     -16.70       1.94        0.00      82.20       1.91       0.18       0.99       ----

> <Gold.Chemscore.Fitness>
15.5312

> <Gold.Chemscore.DG>
-16.6956

> <Gold.Chemscore.ZeroCoef>
-5.4800

> <Gold.Chemscore.Hbond>
1.9441

> <Gold.Chemscore.Metal>
0.0000

> <Gold.Chemscore.Lipo>
82.2004

> <Gold.Chemscore.Internal_Hbond>
0.0000

> <Gold.Chemscore.DEClash>
0.1756

> <Gold.Chemscore.DEInternal>
0.9888

> <Gold.Chemscore.Rot>
1.9121

> <Gold.Chemscore.Internal.Correction>
   9.000000E+99

> <Gold.Chemscore.Hbonds>
donor molecule, donor type, donor heavy atom, donor atom, acceptor molecule, acceptor atom, score
      L1  H     1    20       P1  7948  0.69
      L1  H    17    34       P1  8028  0.97

> <Gold.Chemscore.Hbond.Weighted>
-6.4932

> <Gold.Chemscore.Metal.Weighted>
-0.0000

> <Gold.Chemscore.Lipo.Weighted>
-9.6175

> <Gold.Chemscore.Internal_Hbond.Weighted>
0.0000

> <Gold.Chemscore.DEClash.Weighted>
0.1756

> <Gold.Chemscore.DEInternal.Weighted>
0.9888

> <Gold.Chemscore.Rot.Weighted>
4.8950

> <Gold.Chemscore.Internal.Correction.Weighted>
   9.000000E+99

> <Gold.Protein.RotatedTorsions>
[ 6907 6896 6895 6894 ] final   -1.10 input  -60.11 | X-H torsion
[ 7974 7965 7964 7962 ] final  -48.24 input  175.53 | X-H torsion
[ 8008 7997 7996 7995 ] final   13.94 input   59.86 | X-H torsion
[ 10167 10162 10161 10158 ] final   75.93 input  -65.29 | X-H torsion
[ 10718 10713 10712 10709 ] final   35.00 input   66.30 | X-H torsion
[ 10763 10752 10751 10750 ] final  155.02 input  -60.55 | X-H torsion
[ 11005 11000 10999 10996 ] final -139.76 input  -57.11 | X-H torsion

> <Gold.Protein.ActiveResidues>
 VAL166  LYS551  ARG553  GLY616  TRP617  ASP618  TYR619  PRO620  LYS621  CYS622 
 ASP623  PHE694  ASN695  SER759  ASP760  ASP761  ALA762  ILE779  LEU786  VAL792 
 PHE793  MET794  SER795  GLU796  ALA797  LYS798  CYS799  TRP800  GLU811  SER814 

> <Gold.Protein.RotatedAtoms>
  151.5515  135.1067  159.9950 H   0  0  0  0  0  0  0  0  0  0  0  0  # atno 6907 bound_to 6896
  152.4489  133.7586  159.6745 H   0  0  0  0  0  0  0  0  0  0  0  0  # atno 6908 bound_to 6896
  150.8412  133.7866  159.3084 H   0  0  0  0  0  0  0  0  0  0  0  0  # atno 6909 bound_to 6896
  145.9532  140.7552  142.9494 H   0  0  0  0  0  0  0  0  0  0  0  0  # atno 7974 bound_to 7965
  154.8414  140.2915  155.5657 H   0  0  0  0  0  0  0  0  0  0  0  0  # atno 8008 bound_to 7997
  156.3012  140.2513  156.3289 H   0  0  0  0  0  0  0  0  0  0  0  0  # atno 8009 bound_to 7997
  154.9121  140.0388  157.1941 H   0  0  0  0  0  0  0  0  0  0  0  0  # atno 8010 bound_to 7997
  139.9977  144.5709  150.7763 H   0  0  0  0  0  0  0  0  0  0  0  0  # atno 10167 bound_to 10162
  157.3172  130.7430  149.6762 H   0  0  0  0  0  0  0  0  0  0  0  0  # atno 10718 bound_to 10713
  154.1617  135.2809  155.3107 H   0  0  0  0  0  0  0  0  0  0  0  0  # atno 10763 bound_to 10752
  154.6142  135.5489  153.7509 H   0  0  0  0  0  0  0  0  0  0  0  0  # atno 10764 bound_to 10752
  153.0190  135.6423  154.1759 H   0  0  0  0  0  0  0  0  0  0  0  0  # atno 10765 bound_to 10752
  140.8488  134.2311  157.4771 H   0  0  0  0  0  0  0  0  0  0  0  0  # atno 11005 bound_to 11000
  144.6800  140.2469  143.7336 LP  0  0  0  0  0  0  0  0  0  0  0  0  # atno 17320 bound_to 7965
  145.8142  139.2016  143.1975 LP  0  0  0  0  0  0  0  0  0  0  0  0  # atno 17321 bound_to 7965
  140.7431  143.2841  151.3514 LP  0  0  0  0  0  0  0  0  0  0  0  0  # atno 17342 bound_to 10162
  139.6294  144.0750  152.2463 LP  0  0  0  0  0  0  0  0  0  0  0  0  # atno 17343 bound_to 10162
  155.9682  130.4234  150.4559 LP  0  0  0  0  0  0  0  0  0  0  0  0  # atno 17370 bound_to 10713
  157.2568  131.0558  151.2345 LP  0  0  0  0  0  0  0  0  0  0  0  0  # atno 17371 bound_to 10713
  139.8704  134.9673  156.4591 LP  0  0  0  0  0  0  0  0  0  0  0  0  # atno 17394 bound_to 11000
  140.8813  133.7915  155.9470 LP  0  0  0  0  0  0  0  0  0  0  0  0  # atno 17395 bound_to 11000

$$$$
