AV-unprocessed.smi:630|AV-procd|sdf|3117|dock7
  -GOLD-   22720 0 43D 1   1.00000     0.00000
 Structure written by MMmdl.
 37 38  0  0  0  0  0  0  0  0  1 V2000
  145.2833  136.2521  149.9121 N   0  0  0  0  0  0  0  0  0  0  0  0
  145.5491  135.6941  151.0962 C   0  0  0  0  0  0  0  0  0  0  0  0
  145.4159  136.3103  152.1517 O   0  0  0  0  0  0  0  0  0  0  0  0
  146.0370  134.2324  151.0961 C   0  0  2  0  0  0  0  0  0  0  0  0
  144.9826  133.3506  150.3841 C   0  0  0  0  0  0  0  0  0  0  0  0
  145.5403  131.9971  149.9141 C   0  0  0  0  0  0  0  0  0  0  0  0
  145.4617  130.8645  150.9506 C   0  0  0  0  0  0  0  0  0  0  0  0
  145.7294  131.2636  152.4113 C   0  0  0  0  0  0  0  0  0  0  0  0
  146.8625  132.2817  152.6187 C   0  0  0  0  0  0  0  0  0  0  0  0
  146.3940  133.7536  152.5330 C   0  0  1  0  0  0  0  0  0  0  0  0
  147.4408  134.6131  153.0934 N   0  0  0  0  0  0  0  0  0  0  0  0
  147.7640  134.7065  154.3920 C   0  0  0  0  0  0  0  0  0  0  0  0
  147.2312  134.0353  155.2762 O   0  0  0  0  0  0  0  0  0  0  0  0
  148.7316  135.6194  154.5856 N   0  0  0  0  0  0  0  0  0  0  0  0
  149.3270  136.0219  155.8097 C   0  0  0  0  0  0  0  0  0  0  0  0
  148.7695  135.8485  157.0138 N   0  0  0  0  0  0  0  0  0  0  0  0
  149.5768  136.3418  158.0417 C   0  0  0  0  0  0  0  0  0  0  0  0
  150.7548  136.8905  157.5992 C   0  0  0  0  0  0  0  0  0  0  0  0
  150.8976  136.8092  155.8635 S   0  0  0  0  0  0  0  0  0  0  0  0
  144.9575  137.2071  149.8723 H   0  0  0  0  0  0  0  0  0  0  0  0
  145.4039  135.7196  149.0631 H   0  0  0  0  0  0  0  0  0  0  0  0
  146.9508  134.2024  150.4993 H   0  0  0  0  0  0  0  0  0  0  0  0
  144.1001  133.2085  151.0096 H   0  0  0  0  0  0  0  0  0  0  0  0
  144.6281  133.8762  149.4956 H   0  0  0  0  0  0  0  0  0  0  0  0
  144.9930  131.6760  149.0271 H   0  0  0  0  0  0  0  0  0  0  0  0
  146.5717  132.1206  149.5823 H   0  0  0  0  0  0  0  0  0  0  0  0
  144.4745  130.4032  150.9017 H   0  0  0  0  0  0  0  0  0  0  0  0
  146.1638  130.0835  150.6566 H   0  0  0  0  0  0  0  0  0  0  0  0
  144.8125  131.6432  152.8638 H   0  0  0  0  0  0  0  0  0  0  0  0
  145.9644  130.3548  152.9665 H   0  0  0  0  0  0  0  0  0  0  0  0
  147.2656  132.1078  153.6177 H   0  0  0  0  0  0  0  0  0  0  0  0
  147.6885  132.0907  151.9323 H   0  0  0  0  0  0  0  0  0  0  0  0
  145.5004  133.8588  153.1520 H   0  0  0  0  0  0  0  0  0  0  0  0
  147.9389  135.1996  152.4404 H   0  0  0  0  0  0  0  0  0  0  0  0
  149.0741  136.0912  153.7619 H   0  0  0  0  0  0  0  0  0  0  0  0
  149.2342  136.2608  159.0626 H   0  0  0  0  0  0  0  0  0  0  0  0
  151.5438  137.3359  158.1868 H   0  0  0  0  0  0  0  0  0  0  0  0
  1  2  1  0  0  0  0
  1 20  1  0  0  0  0
  1 21  1  0  0  0  0
  2  3  2  0  0  0  0
  2  4  1  0  0  0  0
  4 10  1  0  0  0  0
  4  5  1  0  0  0  0
  4 22  1  0  0  0  0
  5  6  1  0  0  0  0
  5 23  1  0  0  0  0
  5 24  1  0  0  0  0
  6  7  1  0  0  0  0
  6 25  1  0  0  0  0
  6 26  1  0  0  0  0
  7  8  1  0  0  0  0
  7 27  1  0  0  0  0
  7 28  1  0  0  0  0
  8  9  1  0  0  0  0
  8 29  1  0  0  0  0
  8 30  1  0  0  0  0
  9 10  1  0  0  0  0
  9 31  1  0  0  0  0
  9 32  1  0  0  0  0
 10 11  1  0  0  0  0
 10 33  1  0  0  0  0
 11 12  1  0  0  0  0
 11 34  1  0  0  0  0
 12 13  2  0  0  0  0
 12 14  1  0  0  0  0
 14 15  1  0  0  0  0
 14 35  1  0  0  0  0
 15 19  1  0  0  0  0
 15 16  2  0  0  0  0
 16 17  1  0  0  0  0
 17 18  2  0  0  0  0
 17 36  1  0  0  0  0
 18 19  1  0  0  0  0
 18 37  1  0  0  0  0
M  END
> <s_m_source_file>
AV-unprocessed.smi

> <i_m_source_file_index>
630

> <i_lp_mmshare_version>
43012

> <i_f3d_flags>
0

> <s_epik_input>
W05IMl1DKD1PKVtDQEBIXTFbQ0gyXVtDSDJdW0NIMl1bQ0gyXVtDSDJdW0NASF0xW05IXUMoPU8pW05IXWMybltjSF1bY0hdczI=

> <s_epik_cmdline>
J2VwaWtfcHl0aG9uJywgJy1waCcsICc3LjAnLCAnLXRuJywgJzgnLCAnLW1hJywgJzIwMCcsICctbWV0YWxfYmluZGluZycsICctaW1hZScsICc8aW5maWxlLm1hZT4nLCAnLW9tYWUnLCAnPG91dGZpbGUubWFlPic=

> <r_lp_tautomer_probability>
0.999

> <r_epik_Ionization_Penalty>
0.000342689

> <r_epik_Ionization_Penalty_Charging>
0

> <r_epik_Ionization_Penalty_Neutral>
0.000342689

> <r_epik_State_Penalty>
0.000177984

> <r_epik_Charging_Adjusted_Penalty>
0.000177984

> <i_epik_Tot_Q>
0

> <i_epik_Tot_abs_Q>
0

> <r_epik_Metal_State_Penalty>
0.00743087

> <b_epik_Metal_Only>
0

> <s_lp_Force_Field>
OPLS_2005

> <r_lp_Energy>
11.5687

> <b_lp_Chiralities_Consistent>
1

> <s_lp_Variant>
AV-unprocessed.smi:630-1

> <Gold.Version>
5.8.1

> <Gold.Id.Protein>
6NUR|6NUR_protein|mol2

> <Gold.PLP.Fitness>
39.1419

> <Gold.PLP.PLP>
-27.8686

> <Gold.PLP.part.hbond>
-3.9557

> <Gold.PLP.part.metal>
0.0000

> <Gold.PLP.part.buried>
-5.5877

> <Gold.PLP.part.nonpolar>
-18.8500

> <Gold.PLP.part.repulsive>
0.3516

> <Gold.PLP.ligand.clash>
0.0000

> <Gold.PLP.ligand.torsion>
0.2854

> <Gold.PLP.Chemscore.Hbond>
3.9280

> <Gold.PLP.Chemscore.CHOScore>
0.0000

> <Gold.PLP.Chemscore.Metal>
0.0000

> <Gold.Chemscore.Hbonds>
donor molecule, donor type, donor heavy atom, donor atom, acceptor molecule, acceptor atom, score
      L1  H     1    20       P1 10171  1.00
      L1  H     1    21       P1  7921  1.00
      L1  H    11    34       P1  7948  0.99
      L1  H    14    35       P1  7948  0.93

> <Gold.PLP.Chemscore.Internal.Correction>
0.0601

> <Gold.Rescore>
     Score         DG    S(hbond)    S(metal)    S(lipo)     H(rot)  DE(clash)    DE(int)     intcor
     20.62     -22.01       3.88        0.00      63.77       1.52       0.01       1.38       ----

> <Gold.Chemscore.Fitness>
20.6150

> <Gold.Chemscore.DG>
-22.0107

> <Gold.Chemscore.ZeroCoef>
-5.4800

> <Gold.Chemscore.Hbond>
3.8793

> <Gold.Chemscore.Metal>
0.0000

> <Gold.Chemscore.Lipo>
63.7703

> <Gold.Chemscore.Internal_Hbond>
0.0000

> <Gold.Chemscore.DEClash>
0.0126

> <Gold.Chemscore.DEInternal>
1.3831

> <Gold.Chemscore.Rot>
1.5184

> <Gold.Chemscore.Internal.Correction>
   9.000000E+99

> <Gold.Chemscore.Hbonds>
donor molecule, donor type, donor heavy atom, donor atom, acceptor molecule, acceptor atom, score
      L1  H     1    20       P1 10171  1.00
      L1  H     1    21       P1  7921  1.00
      L1  H    11    34       P1  7948  0.89
      L1  H    14    35       P1  7948  0.86

> <Gold.Chemscore.Hbond.Weighted>
-12.9568

> <Gold.Chemscore.Metal.Weighted>
-0.0000

> <Gold.Chemscore.Lipo.Weighted>
-7.4611

> <Gold.Chemscore.Internal_Hbond.Weighted>
0.0000

> <Gold.Chemscore.DEClash.Weighted>
0.0126

> <Gold.Chemscore.DEInternal.Weighted>
1.3831

> <Gold.Chemscore.Rot.Weighted>
3.8872

> <Gold.Chemscore.Internal.Correction.Weighted>
   9.000000E+99

> <Gold.Protein.RotatedTorsions>
[ 6907 6896 6895 6894 ] final -153.21 input  -60.11 | X-H torsion
[ 7974 7965 7964 7962 ] final  129.15 input  175.53 | X-H torsion
[ 8008 7997 7996 7995 ] final  145.18 input   59.86 | X-H torsion
[ 10167 10162 10161 10158 ] final  126.98 input  -65.29 | X-H torsion
[ 10718 10713 10712 10709 ] final  177.86 input   66.30 | X-H torsion
[ 10763 10752 10751 10750 ] final  -77.63 input  -60.55 | X-H torsion
[ 11005 11000 10999 10996 ] final   46.91 input  -57.11 | X-H torsion

> <Gold.Protein.ActiveResidues>
 VAL166  LYS551  ARG553  GLY616  TRP617  ASP618  TYR619  PRO620  LYS621  CYS622 
 ASP623  PHE694  ASN695  SER759  ASP760  ASP761  ALA762  ILE779  LEU786  VAL792 
 PHE793  MET794  SER795  GLU796  ALA797  LYS798  CYS799  TRP800  GLU811  SER814 

> <Gold.Protein.RotatedAtoms>
  151.2391  133.4409  159.2606 H   0  0  0  0  0  0  0  0  0  0  0  0  # atno 6907 bound_to 6896
  151.0722  134.9805  159.8324 H   0  0  0  0  0  0  0  0  0  0  0  0  # atno 6908 bound_to 6896
  152.5413  134.2336  159.8887 H   0  0  0  0  0  0  0  0  0  0  0  0  # atno 6909 bound_to 6896
  145.0318  139.4039  143.5146 H   0  0  0  0  0  0  0  0  0  0  0  0  # atno 7974 bound_to 7965
  156.2890  140.2216  156.5173 H   0  0  0  0  0  0  0  0  0  0  0  0  # atno 8008 bound_to 7997
  154.7558  140.0477  157.0954 H   0  0  0  0  0  0  0  0  0  0  0  0  # atno 8009 bound_to 7997
  155.0052  140.3106  155.4854 H   0  0  0  0  0  0  0  0  0  0  0  0  # atno 8010 bound_to 7997
  139.5602  144.6877  151.4064 H   0  0  0  0  0  0  0  0  0  0  0  0  # atno 10167 bound_to 10162
  156.8992  130.9873  151.3038 H   0  0  0  0  0  0  0  0  0  0  0  0  # atno 10718 bound_to 10713
  154.5154  135.5757  153.6638 H   0  0  0  0  0  0  0  0  0  0  0  0  # atno 10763 bound_to 10752
  152.9906  135.6169  154.2824 H   0  0  0  0  0  0  0  0  0  0  0  0  # atno 10764 bound_to 10752
  154.2742  135.2852  155.2705 H   0  0  0  0  0  0  0  0  0  0  0  0  # atno 10765 bound_to 10752
  140.1326  134.4686  155.8510 H   0  0  0  0  0  0  0  0  0  0  0  0  # atno 11005 bound_to 11000
  146.3499  139.9872  142.8689 LP  0  0  0  0  0  0  0  0  0  0  0  0  # atno 17320 bound_to 7965
  145.1760  140.9744  143.4294 LP  0  0  0  0  0  0  0  0  0  0  0  0  # atno 17321 bound_to 7965
  140.6881  143.7926  150.7215 LP  0  0  0  0  0  0  0  0  0  0  0  0  # atno 17342 bound_to 10162
  140.1400  143.4449  152.2200 LP  0  0  0  0  0  0  0  0  0  0  0  0  # atno 17343 bound_to 10162
  157.6037  130.8531  149.8841 LP  0  0  0  0  0  0  0  0  0  0  0  0  # atno 17370 bound_to 10713
  156.0590  130.3703  150.1024 LP  0  0  0  0  0  0  0  0  0  0  0  0  # atno 17371 bound_to 10713
  141.2173  133.6802  156.7098 LP  0  0  0  0  0  0  0  0  0  0  0  0  # atno 17394 bound_to 11000
  140.2823  134.8307  157.3944 LP  0  0  0  0  0  0  0  0  0  0  0  0  # atno 17395 bound_to 11000

$$$$
