AV-unprocessed.smi:2291|AV-procd|sdf|9212|dock3
  -GOLD-   2272012433D 1   1.00000     0.00000
 Structure written by MMmdl.
 44 46  0  0  0  0  0  0  0  0  1 V2000
  146.9763  138.3965  154.6715 O   0  0  0  0  0  0  0  0  0  0  0  0
  146.2488  138.9763  153.8642 C   0  0  0  0  0  0  0  0  0  0  0  0
  145.5384  138.3788  152.8916 N   0  0  0  0  0  0  0  0  0  0  0  0
  145.4870  136.9975  152.5647 C   0  0  0  0  0  0  0  0  0  0  0  0
  145.0978  136.7116  151.2364 C   0  0  0  0  0  0  0  0  0  0  0  0
  145.0200  135.3716  150.8099 C   0  0  0  0  0  0  0  0  0  0  0  0
  145.3329  134.3514  151.7259 C   0  0  0  0  0  0  0  0  0  0  0  0
  145.2574  132.6916  151.2615 Cl  0  0  0  0  0  0  0  0  0  0  0  0
  145.7094  134.7205  153.0306 C   0  0  0  0  0  0  0  0  0  0  0  0
  145.7845  136.0046  153.4403 N   0  0  0  0  0  0  0  0  0  0  0  0
  146.0707  140.3090  153.8444 N   0  0  0  0  0  0  0  0  0  0  0  0
  146.7088  141.3068  154.7146 C   0  0  0  0  0  0  0  0  0  0  0  0
  148.2525  141.1793  154.5974 C   0  0  0  0  0  0  0  0  0  0  0  0
  148.7648  141.0546  153.4837 O   0  0  0  0  0  0  0  0  0  0  0  0
  148.9840  141.1734  155.7236 N   0  0  0  0  0  0  0  0  0  0  0  0
  150.4325  141.0334  155.7833 C   0  0  0  0  0  0  0  0  0  0  0  0
  151.0218  141.0718  157.1803 C   0  0  0  0  0  0  0  0  0  0  0  0
  152.1495  140.1481  157.5798 C   0  0  0  0  0  0  0  0  0  0  0  0
  150.7666  139.9388  158.1468 C   0  0  0  0  0  0  0  0  0  0  0  0
  146.2632  142.7249  154.2464 C   0  0  0  0  0  0  0  0  0  0  0  0
  145.5224  143.3893  155.4122 C   0  0  0  0  0  0  0  0  0  0  0  0
  146.0029  142.6510  156.6535 C   0  0  0  0  0  0  0  0  0  0  0  0
  146.1521  141.2133  156.1674 C   0  0  0  0  0  0  0  0  0  0  0  0
  144.9856  138.9846  152.3037 H   0  0  0  0  0  0  0  0  0  0  0  0
  144.8624  137.5085  150.5458 H   0  0  0  0  0  0  0  0  0  0  0  0
  144.7264  135.1337  149.7982 H   0  0  0  0  0  0  0  0  0  0  0  0
  145.9571  133.9680  153.7647 H   0  0  0  0  0  0  0  0  0  0  0  0
  145.4528  140.6795  153.1378 H   0  0  0  0  0  0  0  0  0  0  0  0
  148.4966  141.2584  156.6040 H   0  0  0  0  0  0  0  0  0  0  0  0
  150.6871  140.0732  155.3341 H   0  0  0  0  0  0  0  0  0  0  0  0
  150.9060  141.7954  155.1617 H   0  0  0  0  0  0  0  0  0  0  0  0
  151.0331  142.0663  157.6227 H   0  0  0  0  0  0  0  0  0  0  0  0
  152.5039  139.4303  156.8423 H   0  0  0  0  0  0  0  0  0  0  0  0
  152.9130  140.5492  158.2430 H   0  0  0  0  0  0  0  0  0  0  0  0
  150.6076  140.1960  159.1920 H   0  0  0  0  0  0  0  0  0  0  0  0
  150.2013  139.0814  157.7862 H   0  0  0  0  0  0  0  0  0  0  0  0
  147.1126  143.3557  153.9784 H   0  0  0  0  0  0  0  0  0  0  0  0
  145.6245  142.6947  153.3622 H   0  0  0  0  0  0  0  0  0  0  0  0
  145.7037  144.4632  155.4674 H   0  0  0  0  0  0  0  0  0  0  0  0
  144.4481  143.2413  155.2942 H   0  0  0  0  0  0  0  0  0  0  0  0
  146.9712  143.0405  156.9710 H   0  0  0  0  0  0  0  0  0  0  0  0
  145.3106  142.7425  157.4909 H   0  0  0  0  0  0  0  0  0  0  0  0
  145.1599  140.7584  156.1563 H   0  0  0  0  0  0  0  0  0  0  0  0
  146.7421  140.6098  156.8568 H   0  0  0  0  0  0  0  0  0  0  0  0
  1  2  2  0  0  0  0
  2  3  1  0  0  0  0
  2 11  1  0  0  0  0
  3  4  1  0  0  0  0
  3 24  1  0  0  0  0
  4 10  1  0  0  0  0
  4  5  2  0  0  0  0
  5  6  1  0  0  0  0
  5 25  1  0  0  0  0
  6  7  2  0  0  0  0
  6 26  1  0  0  0  0
  7  8  1  0  0  0  0
  7  9  1  0  0  0  0
  9 10  2  0  0  0  0
  9 27  1  0  0  0  0
 11 12  1  0  0  0  0
 11 28  1  0  0  0  0
 12 23  1  0  0  0  0
 12 13  1  0  0  0  0
 12 20  1  0  0  0  0
 13 14  2  0  0  0  0
 13 15  1  0  0  0  0
 15 16  1  0  0  0  0
 15 29  1  0  0  0  0
 16 17  1  0  0  0  0
 16 30  1  0  0  0  0
 16 31  1  0  0  0  0
 17 19  1  0  0  0  0
 17 18  1  0  0  0  0
 17 32  1  0  0  0  0
 18 19  1  0  0  0  0
 18 33  1  0  0  0  0
 18 34  1  0  0  0  0
 19 35  1  0  0  0  0
 19 36  1  0  0  0  0
 20 21  1  0  0  0  0
 20 37  1  0  0  0  0
 20 38  1  0  0  0  0
 21 22  1  0  0  0  0
 21 39  1  0  0  0  0
 21 40  1  0  0  0  0
 22 23  1  0  0  0  0
 22 41  1  0  0  0  0
 22 42  1  0  0  0  0
 23 43  1  0  0  0  0
 23 44  1  0  0  0  0
M  END
> <s_m_source_file>
AV-unprocessed.smi

> <i_m_source_file_index>
2291

> <i_lp_mmshare_version>
43012

> <i_f3d_flags>
0

> <s_epik_input>
bjFbY0hdYyhDbClbY0hdW2NIXWMxW05IXUMoPU8pW05IXUMyKFtDSDJdW0NIMl1bQ0gyXVtDSDJdMilDKD1PKVtOSF1bQ0gyXVtDSF0zW0NIMl1bQ0gyXTM=

> <s_epik_cmdline>
J2VwaWtfcHl0aG9uJywgJy1waCcsICc3LjAnLCAnLXRuJywgJzgnLCAnLW1hJywgJzIwMCcsICctbWV0YWxfYmluZGluZycsICctaW1hZScsICc8aW5maWxlLm1hZT4nLCAnLW9tYWUnLCAnPG91dGZpbGUubWFlPic=

> <r_lp_tautomer_probability>
1

> <r_epik_Ionization_Penalty>
3.27384e-05

> <r_epik_Ionization_Penalty_Charging>
0

> <r_epik_Ionization_Penalty_Neutral>
3.27384e-05

> <r_epik_State_Penalty>
-0

> <r_epik_Charging_Adjusted_Penalty>
0

> <i_epik_Tot_Q>
0

> <i_epik_Tot_abs_Q>
0

> <r_epik_Metal_State_Penalty>
-0

> <b_epik_Metal_Only>
0

> <s_lp_Force_Field>
OPLS_2005

> <r_lp_Energy>
31.8647

> <b_lp_Chiralities_Consistent>
1

> <s_lp_Variant>
AV-unprocessed.smi:2291-1

> <Gold.Version>
5.8.1

> <Gold.Id.Protein>
6NUR|6NUR_protein|mol2

> <Gold.PLP.Fitness>
41.3851

> <Gold.PLP.PLP>
-35.9064

> <Gold.PLP.part.hbond>
-4.1332

> <Gold.PLP.part.metal>
0.0000

> <Gold.PLP.part.buried>
-3.2262

> <Gold.PLP.part.nonpolar>
-30.6671

> <Gold.PLP.part.repulsive>
1.9338

> <Gold.PLP.ligand.clash>
0.0000

> <Gold.PLP.ligand.torsion>
0.8995

> <Gold.PLP.Chemscore.Hbond>
2.2103

> <Gold.PLP.Chemscore.CHOScore>
0.0000

> <Gold.PLP.Chemscore.Metal>
0.0000

> <Gold.Chemscore.Hbonds>
donor molecule, donor type, donor heavy atom, donor atom, acceptor molecule, acceptor atom, score
      L1  H     3    24       P1 10175  0.82
      L1  H    11    28       P1 10175  0.83
      P1  H  8011  8017       L1    14  0.93

> <Gold.PLP.Chemscore.Internal.Correction>
0.6467

> <Gold.Rescore>
     Score         DG    S(hbond)    S(metal)    S(lipo)     H(rot)  DE(clash)    DE(int)     intcor
     14.10     -15.86       2.27        0.00      61.37       1.71       0.13       1.64       ----

> <Gold.Chemscore.Fitness>
14.1005

> <Gold.Chemscore.DG>
-15.8649

> <Gold.Chemscore.ZeroCoef>
-5.4800

> <Gold.Chemscore.Hbond>
2.2670

> <Gold.Chemscore.Metal>
0.0000

> <Gold.Chemscore.Lipo>
61.3704

> <Gold.Chemscore.Internal_Hbond>
0.0000

> <Gold.Chemscore.DEClash>
0.1284

> <Gold.Chemscore.DEInternal>
1.6360

> <Gold.Chemscore.Rot>
1.7059

> <Gold.Chemscore.Internal.Correction>
   9.000000E+99

> <Gold.Chemscore.Hbonds>
donor molecule, donor type, donor heavy atom, donor atom, acceptor molecule, acceptor atom, score
      L1  H     3    24       P1 10175  0.78
      L1  H    11    28       P1 10175  0.65
      P1  H  8011  8017       L1    14  0.85

> <Gold.Chemscore.Hbond.Weighted>
-7.5716

> <Gold.Chemscore.Metal.Weighted>
-0.0000

> <Gold.Chemscore.Lipo.Weighted>
-7.1803

> <Gold.Chemscore.Internal_Hbond.Weighted>
0.0000

> <Gold.Chemscore.DEClash.Weighted>
0.1284

> <Gold.Chemscore.DEInternal.Weighted>
1.6360

> <Gold.Chemscore.Rot.Weighted>
4.3671

> <Gold.Chemscore.Internal.Correction.Weighted>
   9.000000E+99

> <Gold.Protein.RotatedTorsions>
[ 6907 6896 6895 6894 ] final  -15.49 input  -60.11 | X-H torsion
[ 7974 7965 7964 7962 ] final -170.52 input  175.53 | X-H torsion
[ 8008 7997 7996 7995 ] final -152.45 input   59.86 | X-H torsion
[ 10167 10162 10161 10158 ] final  152.41 input  -65.29 | X-H torsion
[ 10718 10713 10712 10709 ] final   35.07 input   66.30 | X-H torsion
[ 10763 10752 10751 10750 ] final  -46.00 input  -60.55 | X-H torsion
[ 11005 11000 10999 10996 ] final -110.29 input  -57.11 | X-H torsion

> <Gold.Protein.ActiveResidues>
 VAL166  LYS551  ARG553  GLY616  TRP617  ASP618  TYR619  PRO620  LYS621  CYS622 
 ASP623  PHE694  ASN695  SER759  ASP760  ASP761  ALA762  ILE779  LEU786  VAL792 
 PHE793  MET794  SER795  GLU796  ALA797  LYS798  CYS799  TRP800  GLU811  SER814 

> <Gold.Protein.RotatedAtoms>
  151.3232  135.0823  159.9312 H   0  0  0  0  0  0  0  0  0  0  0  0  # atno 6907 bound_to 6896
  152.5252  133.9618  159.7731 H   0  0  0  0  0  0  0  0  0  0  0  0  # atno 6908 bound_to 6896
  150.9943  133.6066  159.2734 H   0  0  0  0  0  0  0  0  0  0  0  0  # atno 6909 bound_to 6896
  144.7169  140.2059  143.6333 H   0  0  0  0  0  0  0  0  0  0  0  0  # atno 7974 bound_to 7965
  155.6553  140.0716  157.2573 H   0  0  0  0  0  0  0  0  0  0  0  0  # atno 8008 bound_to 7997
  154.4154  140.1726  156.1768 H   0  0  0  0  0  0  0  0  0  0  0  0  # atno 8009 bound_to 7997
  155.9743  140.3359  155.6607 H   0  0  0  0  0  0  0  0  0  0  0  0  # atno 8010 bound_to 7997
  139.4833  144.5360  151.7645 H   0  0  0  0  0  0  0  0  0  0  0  0  # atno 10167 bound_to 10162
  157.3182  130.7434  149.6768 H   0  0  0  0  0  0  0  0  0  0  0  0  # atno 10718 bound_to 10713
  154.0379  135.6648  153.4787 H   0  0  0  0  0  0  0  0  0  0  0  0  # atno 10763 bound_to 10752
  153.0514  135.5082  154.7871 H   0  0  0  0  0  0  0  0  0  0  0  0  # atno 10764 bound_to 10752
  154.6837  135.3049  154.9543 H   0  0  0  0  0  0  0  0  0  0  0  0  # atno 10765 bound_to 10752
  141.0800  133.9236  157.2309 H   0  0  0  0  0  0  0  0  0  0  0  0  # atno 11005 bound_to 11000
  145.8636  139.2235  143.1702 LP  0  0  0  0  0  0  0  0  0  0  0  0  # atno 17320 bound_to 7965
  146.0150  140.8400  142.9952 LP  0  0  0  0  0  0  0  0  0  0  0  0  # atno 17321 bound_to 7965
  140.4892  144.1335  150.5947 LP  0  0  0  0  0  0  0  0  0  0  0  0  # atno 17342 bound_to 10162
  140.4190  143.2620  151.9739 LP  0  0  0  0  0  0  0  0  0  0  0  0  # atno 17343 bound_to 10162
  155.9683  130.4231  150.4546 LP  0  0  0  0  0  0  0  0  0  0  0  0  # atno 17370 bound_to 10713
  157.2557  131.0556  151.2351 LP  0  0  0  0  0  0  0  0  0  0  0  0  # atno 17371 bound_to 10713
  139.9613  135.0153  156.9269 LP  0  0  0  0  0  0  0  0  0  0  0  0  # atno 17394 bound_to 11000
  140.5490  134.0646  155.7363 LP  0  0  0  0  0  0  0  0  0  0  0  0  # atno 17395 bound_to 11000

$$$$
