AV-unprocessed.smi:2965|AV-procd|sdf|11323|dock2
  -GOLD-   2272016223D 1   1.00000     0.00000
 Structure written by MMmdl.
 36 37  0  0  0  0  0  0  0  0  1 V2000
  152.3778  139.7430  155.4636 O   0  0  0  0  0  0  0  0  0  0  0  0
  151.5509  139.7606  156.3764 C   0  0  0  0  0  0  0  0  0  0  0  0
  151.9223  139.2634  157.7804 C   0  0  0  0  0  0  0  0  0  0  0  0
  152.2401  140.3564  158.7146 N   0  0  0  0  0  0  0  0  0  0  0  0
  151.8144  141.6506  158.3568 C   0  0  0  0  0  0  0  0  0  0  0  0
  152.0487  142.7361  159.1189 C   0  0  0  0  0  0  0  0  0  0  0  0
  151.5215  144.1097  158.7333 C   0  0  0  0  0  0  0  0  0  0  0  0
  152.0018  144.4964  157.5513 F   0  0  0  0  0  0  0  0  0  0  0  0
  150.1921  144.0777  158.6512 F   0  0  0  0  0  0  0  0  0  0  0  0
  151.8581  145.0253  159.6424 F   0  0  0  0  0  0  0  0  0  0  0  0
  152.7478  142.5083  160.3686 C   0  0  0  0  0  0  0  0  0  0  0  0
  153.1495  141.2746  160.7322 C   0  0  0  0  0  0  0  0  0  0  0  0
  152.9013  140.1064  159.8845 C   0  0  0  0  0  0  0  0  0  0  0  0
  153.2633  138.9741  160.2060 O   0  0  0  0  0  0  0  0  0  0  0  0
  150.2909  140.1938  156.2206 N   0  0  0  0  0  0  0  0  0  0  0  0
  149.7294  140.7400  154.9895 C   0  0  0  0  0  0  0  0  0  0  0  0
  148.2084  140.9423  155.1005 C   0  0  1  0  0  0  0  0  0  0  0  0
  147.7491  141.8007  156.2792 C   0  0  0  0  0  0  0  0  0  0  0  0
  146.3932  142.2660  155.8009 C   0  0  0  0  0  0  0  0  0  0  0  0
  146.6406  142.4878  154.3105 C   0  0  0  0  0  0  0  0  0  0  0  0
  147.7149  141.6218  153.9499 O   0  0  0  0  0  0  0  0  0  0  0  0
  151.1074  138.6571  158.1810 H   0  0  0  0  0  0  0  0  0  0  0  0
  152.7665  138.5790  157.6863 H   0  0  0  0  0  0  0  0  0  0  0  0
  151.2723  141.7038  157.4238 H   0  0  0  0  0  0  0  0  0  0  0  0
  152.9558  143.3410  161.0240 H   0  0  0  0  0  0  0  0  0  0  0  0
  153.6683  141.1421  161.6704 H   0  0  0  0  0  0  0  0  0  0  0  0
  149.6784  140.1636  157.0228 H   0  0  0  0  0  0  0  0  0  0  0  0
  150.2214  141.6736  154.7117 H   0  0  0  0  0  0  0  0  0  0  0  0
  149.9428  140.0334  154.1872 H   0  0  0  0  0  0  0  0  0  0  0  0
  147.7072  139.9739  155.1470 H   0  0  0  0  0  0  0  0  0  0  0  0
  147.7054  141.2488  157.2186 H   0  0  0  0  0  0  0  0  0  0  0  0
  148.4114  142.6570  156.4140 H   0  0  0  0  0  0  0  0  0  0  0  0
  145.6563  141.4748  155.9464 H   0  0  0  0  0  0  0  0  0  0  0  0
  146.0399  143.1612  156.3131 H   0  0  0  0  0  0  0  0  0  0  0  0
  145.7516  142.2868  153.7119 H   0  0  0  0  0  0  0  0  0  0  0  0
  146.9493  143.5166  154.1223 H   0  0  0  0  0  0  0  0  0  0  0  0
  1  2  2  0  0  0  0
  2  3  1  0  0  0  0
  2 15  1  0  0  0  0
  3  4  1  0  0  0  0
  3 22  1  0  0  0  0
  3 23  1  0  0  0  0
  4 13  1  0  0  0  0
  4  5  1  0  0  0  0
  5  6  2  0  0  0  0
  5 24  1  0  0  0  0
  6  7  1  0  0  0  0
  6 11  1  0  0  0  0
  7  8  1  0  0  0  0
  7  9  1  0  0  0  0
  7 10  1  0  0  0  0
 11 12  2  0  0  0  0
 11 25  1  0  0  0  0
 12 13  1  0  0  0  0
 12 26  1  0  0  0  0
 13 14  2  0  0  0  0
 15 16  1  0  0  0  0
 15 27  1  0  0  0  0
 16 17  1  0  0  0  0
 16 28  1  0  0  0  0
 16 29  1  0  0  0  0
 17 21  1  0  0  0  0
 17 18  1  0  0  0  0
 17 30  1  0  0  0  0
 18 19  1  0  0  0  0
 18 31  1  0  0  0  0
 18 32  1  0  0  0  0
 19 20  1  0  0  0  0
 19 33  1  0  0  0  0
 19 34  1  0  0  0  0
 20 21  1  0  0  0  0
 20 35  1  0  0  0  0
 20 36  1  0  0  0  0
M  END
> <s_m_source_file>
AV-unprocessed.smi

> <i_m_source_file_index>
2965

> <i_lp_mmshare_version>
43012

> <i_f3d_flags>
0

> <s_epik_input>
TzFbQ0gyXVtDSDJdW0NIMl1bQ0BIXTFbQ0gyXVtOSF1DKD1PKVtDSDJdbjJbY0hdYyhDKEYpKEYpRilbY0hdW2NIXWMyPU8=

> <s_epik_cmdline>
J2VwaWtfcHl0aG9uJywgJy1waCcsICc3LjAnLCAnLXRuJywgJzgnLCAnLW1hJywgJzIwMCcsICctbWV0YWxfYmluZGluZycsICctaW1hZScsICc8aW5maWxlLm1hZT4nLCAnLW9tYWUnLCAnPG91dGZpbGUubWFlPic=

> <r_lp_tautomer_probability>
1

> <r_epik_Ionization_Penalty>
4.53327e-08

> <r_epik_Ionization_Penalty_Charging>
1.84737e-08

> <r_epik_Ionization_Penalty_Neutral>
2.6859e-08

> <r_epik_State_Penalty>
-0

> <r_epik_Charging_Adjusted_Penalty>
1.84737e-08

> <i_epik_Tot_Q>
0

> <i_epik_Tot_abs_Q>
0

> <r_epik_Metal_State_Penalty>
-0

> <b_epik_Metal_Only>
0

> <s_lp_Force_Field>
OPLS_2005

> <r_lp_Energy>
29.2256

> <b_lp_Chiralities_Consistent>
1

> <s_lp_Variant>
AV-unprocessed.smi:2965-2

> <Gold.Version>
5.8.1

> <Gold.Id.Protein>
6NUR|6NUR_protein|mol2

> <Gold.PLP.Fitness>
49.6817

> <Gold.PLP.PLP>
-46.5416

> <Gold.PLP.part.hbond>
-2.0000

> <Gold.PLP.part.metal>
0.0000

> <Gold.PLP.part.buried>
-5.4330

> <Gold.PLP.part.nonpolar>
-39.7316

> <Gold.PLP.part.repulsive>
0.2257

> <Gold.PLP.ligand.clash>
0.0000

> <Gold.PLP.ligand.torsion>
0.5866

> <Gold.PLP.Chemscore.Hbond>
1.3952

> <Gold.PLP.Chemscore.CHOScore>
0.0000

> <Gold.PLP.Chemscore.Metal>
0.0000

> <Gold.Chemscore.Hbonds>
donor molecule, donor type, donor heavy atom, donor atom, acceptor molecule, acceptor atom, score
      P1  H  7989  7998       L1     1  0.12
      P1  H  7997  8010       L1     1  0.73

> <Gold.PLP.Chemscore.Internal.Correction>
0.1277

> <Gold.Rescore>
     Score         DG    S(hbond)    S(metal)    S(lipo)     H(rot)  DE(clash)    DE(int)     intcor
     12.63     -14.01       1.15        0.00      80.92       1.87       0.01       1.37       ----

> <Gold.Chemscore.Fitness>
12.6292

> <Gold.Chemscore.DG>
-14.0053

> <Gold.Chemscore.ZeroCoef>
-5.4800

> <Gold.Chemscore.Hbond>
1.1498

> <Gold.Chemscore.Metal>
0.0000

> <Gold.Chemscore.Lipo>
80.9166

> <Gold.Chemscore.Internal_Hbond>
0.0000

> <Gold.Chemscore.DEClash>
0.0101

> <Gold.Chemscore.DEInternal>
1.3660

> <Gold.Chemscore.Rot>
1.8681

> <Gold.Chemscore.Internal.Correction>
   9.000000E+99

> <Gold.Chemscore.Hbonds>
donor molecule, donor type, donor heavy atom, donor atom, acceptor molecule, acceptor atom, score
      P1  H  7989  7998       L1     1  0.11
      P1  H  7997  8010       L1     1  0.69

> <Gold.Chemscore.Hbond.Weighted>
-3.8403

> <Gold.Chemscore.Metal.Weighted>
-0.0000

> <Gold.Chemscore.Lipo.Weighted>
-9.4672

> <Gold.Chemscore.Internal_Hbond.Weighted>
0.0000

> <Gold.Chemscore.DEClash.Weighted>
0.0101

> <Gold.Chemscore.DEInternal.Weighted>
1.3660

> <Gold.Chemscore.Rot.Weighted>
4.7822

> <Gold.Chemscore.Internal.Correction.Weighted>
   9.000000E+99

> <Gold.Protein.RotatedTorsions>
[ 6907 6896 6895 6894 ] final -179.70 input  -60.11 | X-H torsion
[ 7974 7965 7964 7962 ] final  173.84 input  175.53 | X-H torsion
[ 8008 7997 7996 7995 ] final   98.46 input   59.86 | X-H torsion
[ 10167 10162 10161 10158 ] final  102.30 input  -65.29 | X-H torsion
[ 10718 10713 10712 10709 ] final   24.40 input   66.30 | X-H torsion
[ 10763 10752 10751 10750 ] final  -42.22 input  -60.55 | X-H torsion
[ 11005 11000 10999 10996 ] final   43.03 input  -57.11 | X-H torsion

> <Gold.Protein.ActiveResidues>
 VAL166  LYS551  ARG553  GLY616  TRP617  ASP618  TYR619  PRO620  LYS621  CYS622 
 ASP623  PHE694  ASN695  SER759  ASP760  ASP761  ALA762  ILE779  LEU786  VAL792 
 PHE793  MET794  SER795  GLU796  ALA797  LYS798  CYS799  TRP800  GLU811  SER814 

> <Gold.Protein.RotatedAtoms>
  151.6577  133.3318  159.3166 H   0  0  0  0  0  0  0  0  0  0  0  0  # atno 6907 bound_to 6896
  150.7929  134.6970  159.6538 H   0  0  0  0  0  0  0  0  0  0  0  0  # atno 6908 bound_to 6896
  152.4012  134.6288  160.0121 H   0  0  0  0  0  0  0  0  0  0  0  0  # atno 6909 bound_to 6896
  144.7234  139.9708  143.6437 H   0  0  0  0  0  0  0  0  0  0  0  0  # atno 7974 bound_to 7965
  156.1007  140.3243  155.7938 H   0  0  0  0  0  0  0  0  0  0  0  0  # atno 8008 bound_to 7997
  155.4841  140.0556  157.2980 H   0  0  0  0  0  0  0  0  0  0  0  0  # atno 8009 bound_to 7997
  154.4695  140.2005  156.0046 H   0  0  0  0  0  0  0  0  0  0  0  0  # atno 8010 bound_to 7997
  139.7361  144.7023  151.0646 H   0  0  0  0  0  0  0  0  0  0  0  0  # atno 10167 bound_to 10162
  157.1792  130.6795  149.6107 H   0  0  0  0  0  0  0  0  0  0  0  0  # atno 10718 bound_to 10713
  153.9754  135.6723  153.4748 H   0  0  0  0  0  0  0  0  0  0  0  0  # atno 10763 bound_to 10752
  153.0773  135.4942  154.8427 H   0  0  0  0  0  0  0  0  0  0  0  0  # atno 10764 bound_to 10752
  154.7195  135.3114  154.9032 H   0  0  0  0  0  0  0  0  0  0  0  0  # atno 10765 bound_to 10752
  140.1683  134.4254  155.8273 H   0  0  0  0  0  0  0  0  0  0  0  0  # atno 11005 bound_to 11000
  146.0564  139.3561  143.0608 LP  0  0  0  0  0  0  0  0  0  0  0  0  # atno 17320 bound_to 7965
  145.8149  140.9708  143.0929 LP  0  0  0  0  0  0  0  0  0  0  0  0  # atno 17321 bound_to 7965
  140.7779  143.4982  150.9806 LP  0  0  0  0  0  0  0  0  0  0  0  0  # atno 17342 bound_to 10162
  139.8670  143.7241  152.3169 LP  0  0  0  0  0  0  0  0  0  0  0  0  # atno 17343 bound_to 10162
  155.9727  130.4652  150.6246 LP  0  0  0  0  0  0  0  0  0  0  0  0  # atno 17370 bound_to 10713
  157.3969  131.0804  151.1344 LP  0  0  0  0  0  0  0  0  0  0  0  0  # atno 17371 bound_to 10713
  141.2215  133.6944  156.7718 LP  0  0  0  0  0  0  0  0  0  0  0  0  # atno 17394 bound_to 11000
  140.2407  134.8615  157.3570 LP  0  0  0  0  0  0  0  0  0  0  0  0  # atno 17395 bound_to 11000

$$$$
