AV-unprocessed.smi:445|AV-procd|sdf|2591|dock4
  -GOLD-   2262022583D 1   1.00000     0.00000
 Structure written by MMmdl.
 44 45  0  0  0  0  0  0  0  0  3 V2000
  145.4022  136.1311  151.2656 C   0  0  0  0  0  0  0  0  0  0  0  0
  145.0958  134.7239  150.7245 C   0  0  2  0  0  0  0  0  0  0  0  0
  143.7147  134.2232  151.1961 C   0  0  0  0  0  0  0  0  0  0  0  0
  143.3829  132.8424  150.6074 C   0  0  0  0  0  0  0  0  0  0  0  0
  144.4758  131.8154  150.9396 C   0  0  0  0  0  0  0  0  0  0  0  0
  145.8590  132.3041  150.4752 C   0  0  0  0  0  0  0  0  0  0  0  0
  146.2093  133.6939  151.0444 C   0  0  2  0  0  0  0  0  0  0  0  0
  146.4567  133.5923  152.4842 N   0  0  0  0  0  0  0  0  0  0  0  0
  147.5029  132.9891  153.0692 C   0  0  0  0  0  0  0  0  0  0  0  0
  148.4157  132.4504  152.4413 O   0  0  0  0  0  0  0  0  0  0  0  0
  147.5238  133.0282  154.6038 C   0  0  0  0  0  0  0  0  0  0  0  0
  148.8814  133.1670  155.1618 N   0  0  0  0  0  0  0  0  0  0  0  0
  149.5273  134.3969  154.9427 C   0  0  0  0  0  0  0  0  0  0  0  0
  150.7699  134.6445  155.3923 C   0  0  0  0  0  0  0  0  0  0  0  0
  151.4157  135.9168  155.1489 N   0  3  0  0  0  0  0  0  0  0  0  0
  152.5586  136.0865  155.5614 O   0  0  0  0  0  0  0  0  0  0  0  0
  150.8037  136.7884  154.5389 O   0  5  0  0  0  0  0  0  0  0  0  0
  151.4457  133.5946  156.1263 C   0  0  0  0  0  0  0  0  0  0  0  0
  150.8438  132.3976  156.3459 C   0  0  0  0  0  0  0  0  0  0  0  0
  151.4968  131.2969  157.0895 C   0  0  0  0  0  0  0  0  0  0  0  0
  151.0652  130.0740  156.7559 N   0  0  0  0  0  0  0  0  0  0  0  0
  152.3665  131.4018  157.9542 O   0  0  0  0  0  0  0  0  0  0  0  0
  149.4694  132.1322  155.8402 C   0  0  0  0  0  0  0  0  0  0  0  0
  148.8553  131.0724  155.9916 O   0  0  0  0  0  0  0  0  0  0  0  0
  145.4060  136.1539  152.3556 H   0  0  0  0  0  0  0  0  0  0  0  0
  144.6569  136.8505  150.9255 H   0  0  0  0  0  0  0  0  0  0  0  0
  146.3765  136.4793  150.9214 H   0  0  0  0  0  0  0  0  0  0  0  0
  145.0498  134.8128  149.6380 H   0  0  0  0  0  0  0  0  0  0  0  0
  143.6882  134.1719  152.2854 H   0  0  0  0  0  0  0  0  0  0  0  0
  142.9419  134.9353  150.9050 H   0  0  0  0  0  0  0  0  0  0  0  0
  142.4212  132.4975  150.9880 H   0  0  0  0  0  0  0  0  0  0  0  0
  143.2754  132.9236  149.5251 H   0  0  0  0  0  0  0  0  0  0  0  0
  144.4901  131.6300  152.0142 H   0  0  0  0  0  0  0  0  0  0  0  0
  144.2433  130.8607  150.4672 H   0  0  0  0  0  0  0  0  0  0  0  0
  146.6246  131.5785  150.7534 H   0  0  0  0  0  0  0  0  0  0  0  0
  145.8706  132.3519  149.3856 H   0  0  0  0  0  0  0  0  0  0  0  0
  147.1221  134.0226  150.5446 H   0  0  0  0  0  0  0  0  0  0  0  0
  145.7645  134.0137  153.0867 H   0  0  0  0  0  0  0  0  0  0  0  0
  146.8872  133.8525  154.9279 H   0  0  0  0  0  0  0  0  0  0  0  0
  147.0424  132.1311  154.9984 H   0  0  0  0  0  0  0  0  0  0  0  0
  148.9471  135.1138  154.3795 H   0  0  0  0  0  0  0  0  0  0  0  0
  152.4415  133.7943  156.4924 H   0  0  0  0  0  0  0  0  0  0  0  0
  151.4528  129.2584  157.2068 H   0  0  0  0  0  0  0  0  0  0  0  0
  150.3515  129.9732  156.0485 H   0  0  0  0  0  0  0  0  0  0  0  0
  1  2  1  0  0  0  0
  1 25  1  0  0  0  0
  1 26  1  0  0  0  0
  1 27  1  0  0  0  0
  2  7  1  0  0  0  0
  2  3  1  0  0  0  0
  2 28  1  0  0  0  0
  3  4  1  0  0  0  0
  3 29  1  0  0  0  0
  3 30  1  0  0  0  0
  4  5  1  0  0  0  0
  4 31  1  0  0  0  0
  4 32  1  0  0  0  0
  5  6  1  0  0  0  0
  5 33  1  0  0  0  0
  5 34  1  0  0  0  0
  6  7  1  0  0  0  0
  6 35  1  0  0  0  0
  6 36  1  0  0  0  0
  7  8  1  0  0  0  0
  7 37  1  0  0  0  0
  8  9  1  0  0  0  0
  8 38  1  0  0  0  0
  9 10  2  0  0  0  0
  9 11  1  0  0  0  0
 11 12  1  0  0  0  0
 11 39  1  0  0  0  0
 11 40  1  0  0  0  0
 12 23  1  0  0  0  0
 12 13  1  0  0  0  0
 13 14  2  0  0  0  0
 13 41  1  0  0  0  0
 14 15  1  0  0  0  0
 14 18  1  0  0  0  0
 15 16  2  0  0  0  0
 15 17  1  0  0  0  0
 18 19  2  0  0  0  0
 18 42  1  0  0  0  0
 19 20  1  0  0  0  0
 19 23  1  0  0  0  0
 20 21  1  0  0  0  0
 20 22  2  0  0  0  0
 21 43  1  0  0  0  0
 21 44  1  0  0  0  0
 23 24  2  0  0  0  0
M  CHG  1  15   1
M  CHG  1  17  -1
M  END
> <s_m_source_file>
AV-unprocessed.smi

> <i_m_source_file_index>
445

> <i_lp_mmshare_version>
43012

> <i_f3d_flags>
0

> <s_epik_input>
W0NIM11bQ0BASF0xW0NIMl1bQ0gyXVtDSDJdW0NIMl1bQ0BIXTFbTkhdQyg9TylbQ0gyXW4yW2NIXWMoW04rXSg9TylbTy1dKVtjSF1jKGMyPU8pQyg9TylbTkgyXQ==

> <s_epik_cmdline>
J2VwaWtfcHl0aG9uJywgJy1waCcsICc3LjAnLCAnLXRuJywgJzgnLCAnLW1hJywgJzIwMCcsICctbWV0YWxfYmluZGluZycsICctaW1hZScsICc8aW5maWxlLm1hZT4nLCAnLW9tYWUnLCAnPG91dGZpbGUubWFlPic=

> <r_lp_tautomer_probability>
1

> <r_epik_Ionization_Penalty>
2.81321e-06

> <r_epik_Ionization_Penalty_Charging>
2.43777e-12

> <r_epik_Ionization_Penalty_Neutral>
2.81321e-06

> <r_epik_State_Penalty>
-0

> <r_epik_Charging_Adjusted_Penalty>
2.43777e-12

> <i_epik_Tot_Q>
0

> <i_epik_Tot_abs_Q>
2

> <r_epik_Metal_State_Penalty>
-0

> <b_epik_Metal_Only>
0

> <s_lp_Force_Field>
OPLS_2005

> <r_lp_Energy>
27.547

> <b_lp_Chiralities_Consistent>
1

> <s_lp_Variant>
AV-unprocessed.smi:445-3

> <Gold.Version>
5.8.1

> <Gold.Id.Protein>
6NUR|6NUR_protein|mol2

> <Gold.PLP.Fitness>
40.6419

> <Gold.PLP.PLP>
-35.1188

> <Gold.PLP.part.hbond>
-2.0000

> <Gold.PLP.part.metal>
0.0000

> <Gold.PLP.part.buried>
-4.5817

> <Gold.PLP.part.nonpolar>
-30.3554

> <Gold.PLP.part.repulsive>
1.7873

> <Gold.PLP.ligand.clash>
0.0000

> <Gold.PLP.ligand.torsion>
0.8382

> <Gold.PLP.Chemscore.Hbond>
1.9280

> <Gold.PLP.Chemscore.CHOScore>
0.4607

> <Gold.PLP.Chemscore.Metal>
0.0000

> <Gold.Chemscore.Hbonds>
donor molecule, donor type, donor heavy atom, donor atom, acceptor molecule, acceptor atom, score
      L1  C    13    41       P1  7948  0.51

> <Gold.PLP.Chemscore.Internal.Correction>
0.0332

> <Gold.Rescore>
     Score         DG    S(hbond)    S(metal)    S(lipo)     H(rot)  DE(clash)    DE(int)     intcor
     12.50     -15.77       1.78        0.00      74.62       1.71       0.48       2.79       ----

> <Gold.Chemscore.Fitness>
12.5031

> <Gold.Chemscore.DG>
-15.7723

> <Gold.Chemscore.ZeroCoef>
-5.4800

> <Gold.Chemscore.Hbond>
1.7802

> <Gold.Chemscore.Metal>
0.0000

> <Gold.Chemscore.Lipo>
74.6159

> <Gold.Chemscore.Internal_Hbond>
0.0000

> <Gold.Chemscore.DEClash>
0.4787

> <Gold.Chemscore.DEInternal>
2.7905

> <Gold.Chemscore.Rot>
1.7123

> <Gold.Chemscore.Internal.Correction>
   9.000000E+99

> <Gold.Chemscore.Hbonds>
donor molecule, donor type, donor heavy atom, donor atom, acceptor molecule, acceptor atom, score
      P1  H  6896  6908       L1    22  0.02

> <Gold.Chemscore.Hbond.Weighted>
-5.9457

> <Gold.Chemscore.Metal.Weighted>
-0.0000

> <Gold.Chemscore.Lipo.Weighted>
-8.7301

> <Gold.Chemscore.Internal_Hbond.Weighted>
0.0000

> <Gold.Chemscore.DEClash.Weighted>
0.4787

> <Gold.Chemscore.DEInternal.Weighted>
2.7905

> <Gold.Chemscore.Rot.Weighted>
4.3835

> <Gold.Chemscore.Internal.Correction.Weighted>
   9.000000E+99

> <Gold.Protein.RotatedTorsions>
[ 6907 6896 6895 6894 ] final   28.14 input  -60.11 | X-H torsion
[ 7974 7965 7964 7962 ] final  160.41 input  175.53 | X-H torsion
[ 8008 7997 7996 7995 ] final  128.09 input   59.86 | X-H torsion
[ 10167 10162 10161 10158 ] final  -39.26 input  -65.29 | X-H torsion
[ 10718 10713 10712 10709 ] final  -58.62 input   66.30 | X-H torsion
[ 10763 10752 10751 10750 ] final  -28.62 input  -60.55 | X-H torsion
[ 11005 11000 10999 10996 ] final  -27.16 input  -57.11 | X-H torsion

> <Gold.Protein.ActiveResidues>
 VAL166  LYS551  ARG553  GLY616  TRP617  ASP618  TYR619  PRO620  LYS621  CYS622 
 ASP623  PHE694  ASN695  SER759  ASP760  ASP761  ALA762  ILE779  LEU786  VAL792 
 PHE793  MET794  SER795  GLU796  ALA797  LYS798  CYS799  TRP800  GLU811  SER814 

> <Gold.Protein.RotatedAtoms>
  152.0126  134.9868  160.0568 H   0  0  0  0  0  0  0  0  0  0  0  0  # atno 6907 bound_to 6896
  152.1415  133.4462  159.4777 H   0  0  0  0  0  0  0  0  0  0  0  0  # atno 6908 bound_to 6896
  150.6865  134.2218  159.4443 H   0  0  0  0  0  0  0  0  0  0  0  0  # atno 6909 bound_to 6896
  144.7738  139.7753  143.6286 H   0  0  0  0  0  0  0  0  0  0  0  0  # atno 7974 bound_to 7965
  156.2906  140.2653  156.2379 H   0  0  0  0  0  0  0  0  0  0  0  0  # atno 8008 bound_to 7997
  155.0007  140.0388  157.2377 H   0  0  0  0  0  0  0  0  0  0  0  0  # atno 8009 bound_to 7997
  154.7604  140.2759  155.6224 H   0  0  0  0  0  0  0  0  0  0  0  0  # atno 8010 bound_to 7997
  140.7069  143.3225  151.2757 H   0  0  0  0  0  0  0  0  0  0  0  0  # atno 10167 bound_to 10162
  156.1122  130.4174  150.0602 H   0  0  0  0  0  0  0  0  0  0  0  0  # atno 10718 bound_to 10713
  153.7513  135.6926  153.4945 H   0  0  0  0  0  0  0  0  0  0  0  0  # atno 10763 bound_to 10752
  153.2001  135.4439  155.0255 H   0  0  0  0  0  0  0  0  0  0  0  0  # atno 10764 bound_to 10752
  154.8186  135.3411  154.7033 H   0  0  0  0  0  0  0  0  0  0  0  0  # atno 10765 bound_to 10752
  140.9094  133.7471  156.0650 H   0  0  0  0  0  0  0  0  0  0  0  0  # atno 11005 bound_to 11000
  146.1904  139.5141  142.9809 LP  0  0  0  0  0  0  0  0  0  0  0  0  # atno 17320 bound_to 7965
  145.6245  141.0316  143.1897 LP  0  0  0  0  0  0  0  0  0  0  0  0  # atno 17321 bound_to 7965
  139.6684  144.0064  152.2737 LP  0  0  0  0  0  0  0  0  0  0  0  0  # atno 17342 bound_to 10162
  139.9655  144.6529  150.8039 LP  0  0  0  0  0  0  0  0  0  0  0  0  # atno 17343 bound_to 10162
  156.8562  130.9476  151.3621 LP  0  0  0  0  0  0  0  0  0  0  0  0  # atno 17370 bound_to 10713
  157.6303  130.8724  149.9263 LP  0  0  0  0  0  0  0  0  0  0  0  0  # atno 17371 bound_to 10713
  140.8129  134.3378  157.5406 LP  0  0  0  0  0  0  0  0  0  0  0  0  # atno 17394 bound_to 11000
  139.8755  134.9265  156.3401 LP  0  0  0  0  0  0  0  0  0  0  0  0  # atno 17395 bound_to 11000

$$$$
