AV-unprocessed.smi:283|AV-procd|sdf|2134|dock8
  -GOLD-   2262021453D 1   1.00000     0.00000
 Structure written by MMmdl.
 48 51  0  0  0  0  0  0  0  0  1 V2000
  151.6582  140.1187  155.6897 C   0  0  0  0  0  0  0  0  0  0  0  0
  150.6409  141.0209  156.4014 C   0  0  1  0  0  0  0  0  0  0  0  0
  149.4572  140.2409  156.7549 N   0  0  0  0  0  0  0  0  0  0  0  0
  148.5316  139.8899  155.8344 C   0  0  0  0  0  0  0  0  0  0  0  0
  148.2617  140.8306  154.8986 N   0  0  0  0  0  0  0  0  0  0  0  0
  147.3712  140.5825  153.9349 C   0  0  0  0  0  0  0  0  0  0  0  0
  146.6516  139.4793  153.7310 N   0  0  0  0  0  0  0  0  0  0  0  0
  146.9053  138.5277  154.6747 C   0  0  0  0  0  0  0  0  0  0  0  0
  147.8233  138.6531  155.7579 C   0  0  0  0  0  0  0  0  0  0  0  0
  147.7982  137.4868  156.5144 N   0  0  0  0  0  0  0  0  0  0  0  0
  146.9362  136.7207  155.9051 C   0  0  0  0  0  0  0  0  0  0  0  0
  146.3493  137.2682  154.7882 N   0  0  0  0  0  0  0  0  0  0  0  0
  145.3221  136.6348  153.9051 C   0  0  2  0  0  0  0  0  0  0  0  0
  145.8082  135.4026  153.4667 O   0  0  0  0  0  0  0  0  0  0  0  0
  145.4784  135.2478  152.0961 C   0  0  2  0  0  0  0  0  0  0  0  0
  146.2438  134.0963  151.4094 C   0  0  0  0  0  0  0  0  0  0  0  0
  145.7138  133.7325  150.1519 O   0  0  0  0  0  0  0  0  0  0  0  0
  145.5050  136.6629  151.4978 C   0  0  2  0  0  0  0  0  0  0  0  0
  146.7935  137.0736  151.0862 O   0  0  0  0  0  0  0  0  0  0  0  0
  145.0425  137.5216  152.6727 C   0  0  1  0  0  0  0  0  0  0  0  0
  143.6607  137.7950  152.5491 O   0  0  0  0  0  0  0  0  0  0  0  0
  151.3058  141.7506  157.5725 C   0  0  0  0  0  0  0  0  0  0  0  0
  151.3676  143.1639  157.5845 C   0  0  0  0  0  0  0  0  0  0  0  0
  151.9788  143.8472  158.6524 C   0  0  0  0  0  0  0  0  0  0  0  0
  152.5274  143.1248  159.7271 C   0  0  0  0  0  0  0  0  0  0  0  0
  152.4585  141.7197  159.7339 C   0  0  0  0  0  0  0  0  0  0  0  0
  151.8485  141.0303  158.6669 C   0  0  0  0  0  0  0  0  0  0  0  0
  151.7816  139.3036  158.7356 Cl  0  0  0  0  0  0  0  0  0  0  0  0
  144.4536  136.4935  154.5503 H   0  0  0  0  0  0  0  0  0  0  0  0
  144.4303  134.9420  152.1029 H   0  0  0  0  0  0  0  0  0  0  0  0
  144.8444  136.7388  150.6329 H   0  0  0  0  0  0  0  0  0  0  0  0
  145.5798  138.4697  152.7370 H   0  0  0  0  0  0  0  0  0  0  0  0
  152.5156  140.6934  155.3384 H   0  0  0  0  0  0  0  0  0  0  0  0
  151.2129  139.6325  154.8209 H   0  0  0  0  0  0  0  0  0  0  0  0
  152.0307  139.3384  156.3546 H   0  0  0  0  0  0  0  0  0  0  0  0
  150.3076  141.7562  155.6712 H   0  0  0  0  0  0  0  0  0  0  0  0
  149.2715  140.1812  157.7454 H   0  0  0  0  0  0  0  0  0  0  0  0
  147.2138  141.3799  153.2236 H   0  0  0  0  0  0  0  0  0  0  0  0
  146.6986  135.7290  156.2614 H   0  0  0  0  0  0  0  0  0  0  0  0
  147.2919  134.3683  151.2831 H   0  0  0  0  0  0  0  0  0  0  0  0
  146.2228  133.2127  152.0477 H   0  0  0  0  0  0  0  0  0  0  0  0
  145.4168  132.8366  150.1981 H   0  0  0  0  0  0  0  0  0  0  0  0
  147.4347  136.6216  151.6135 H   0  0  0  0  0  0  0  0  0  0  0  0
  143.4764  138.0001  151.6451 H   0  0  0  0  0  0  0  0  0  0  0  0
  150.9479  143.7366  156.7705 H   0  0  0  0  0  0  0  0  0  0  0  0
  152.0250  144.9263  158.6471 H   0  0  0  0  0  0  0  0  0  0  0  0
  152.9963  143.6476  160.5476 H   0  0  0  0  0  0  0  0  0  0  0  0
  152.8748  141.1682  160.5641 H   0  0  0  0  0  0  0  0  0  0  0  0
  1  2  1  0  0  0  0
  1 33  1  0  0  0  0
  1 34  1  0  0  0  0
  1 35  1  0  0  0  0
  2  3  1  0  0  0  0
  2 22  1  0  0  0  0
  2 36  1  0  0  0  0
  3  4  1  0  0  0  0
  3 37  1  0  0  0  0
  4  9  1  0  0  0  0
  4  5  2  0  0  0  0
  5  6  1  0  0  0  0
  6  7  2  0  0  0  0
  6 38  1  0  0  0  0
  7  8  1  0  0  0  0
  8 12  1  0  0  0  0
  8  9  2  0  0  0  0
  9 10  1  0  0  0  0
 10 11  2  0  0  0  0
 11 12  1  0  0  0  0
 11 39  1  0  0  0  0
 12 13  1  0  0  0  0
 13 29  1  0  0  0  0
 13 20  1  0  0  0  0
 13 14  1  0  0  0  0
 14 15  1  0  0  0  0
 15 30  1  0  0  0  0
 15 16  1  0  0  0  0
 15 18  1  0  0  0  0
 16 17  1  0  0  0  0
 16 40  1  0  0  0  0
 16 41  1  0  0  0  0
 17 42  1  0  0  0  0
 18 31  1  0  0  0  0
 18 19  1  0  0  0  0
 18 20  1  0  0  0  0
 19 43  1  0  0  0  0
 20 32  1  0  0  0  0
 20 21  1  0  0  0  0
 21 44  1  0  0  0  0
 22 27  1  0  0  0  0
 22 23  2  0  0  0  0
 23 24  1  0  0  0  0
 23 45  1  0  0  0  0
 24 25  2  0  0  0  0
 24 46  1  0  0  0  0
 25 26  1  0  0  0  0
 25 47  1  0  0  0  0
 26 27  2  0  0  0  0
 26 48  1  0  0  0  0
 27 28  1  0  0  0  0
M  END
> <s_m_source_file>
AV-unprocessed.smi

> <i_m_source_file_index>
283

> <i_lp_mmshare_version>
43012

> <i_f3d_flags>
0

> <s_epik_input>
Q2xjMVtjSF1bY0hdW2NIXVtjSF1jMVtDQEhdKFtDSDNdKVtOSF1jKG5bY0hdbjIpYyhjMjMpbltjSF1uM1tDQEBIXTRPW0NASF0oW0NIMl1bT0hdKVtDQEBIXShbT0hdKVtDQEhdNFtPSF0=

> <s_epik_cmdline>
J2VwaWtfcHl0aG9uJywgJy1waCcsICc3LjAnLCAnLXRuJywgJzgnLCAnLW1hJywgJzIwMCcsICctbWV0YWxfYmluZGluZycsICctaW1hZScsICc8aW5maWxlLm1hZT4nLCAnLW9tYWUnLCAnPG91dGZpbGUubWFlPic=

> <r_lp_tautomer_probability>
1

> <r_epik_Ionization_Penalty>
0.000266407

> <r_epik_Ionization_Penalty_Charging>
0

> <r_epik_Ionization_Penalty_Neutral>
0.000266407

> <r_epik_State_Penalty>
-0

> <r_epik_Charging_Adjusted_Penalty>
0

> <i_epik_Tot_Q>
0

> <i_epik_Tot_abs_Q>
0

> <r_epik_Metal_State_Penalty>
-0

> <b_epik_Metal_Only>
0

> <s_epik_Chemistry_Notes>
This compound contains an acetal/aminal-like group ( X-CH(R)-Y where X, Y are N, S, or O) that may be acid/base labile, releasing an aldehyde.

> <s_lp_Force_Field>
OPLS_2005

> <r_lp_Energy>
45.8165

> <b_lp_Chiralities_Consistent>
1

> <s_lp_Variant>
AV-unprocessed.smi:283-10

> <Gold.Version>
5.8.1

> <Gold.Id.Protein>
6NUR|6NUR_protein|mol2

> <Gold.PLP.Fitness>
45.7864

> <Gold.PLP.PLP>
-39.3431

> <Gold.PLP.part.hbond>
-4.5422

> <Gold.PLP.part.metal>
0.0000

> <Gold.PLP.part.buried>
-3.3392

> <Gold.PLP.part.nonpolar>
-32.3237

> <Gold.PLP.part.repulsive>
0.3742

> <Gold.PLP.ligand.clash>
0.1373

> <Gold.PLP.ligand.torsion>
0.6857

> <Gold.PLP.Chemscore.Hbond>
2.6280

> <Gold.PLP.Chemscore.CHOScore>
0.0000

> <Gold.PLP.Chemscore.Metal>
0.0000

> <Gold.Chemscore.Hbonds>
donor molecule, donor type, donor heavy atom, donor atom, acceptor molecule, acceptor atom, score
      L1  H    19    43       P1  7948  0.94
      L1  H    21    44       P1 10171  1.00
      P1  H  7954  7966       L1    19  0.65

> <Gold.PLP.Chemscore.Internal.Correction>
0.0679

> <Gold.Rescore>
     Score         DG    S(hbond)    S(metal)    S(lipo)     H(rot)  DE(clash)    DE(int)     intcor
     10.30     -12.44       1.83        0.00      96.79       4.10       0.04       2.11       ----

> <Gold.Chemscore.Fitness>
10.2969

> <Gold.Chemscore.DG>
-12.4438

> <Gold.Chemscore.ZeroCoef>
-5.4800

> <Gold.Chemscore.Hbond>
1.8344

> <Gold.Chemscore.Metal>
0.0000

> <Gold.Chemscore.Lipo>
96.7947

> <Gold.Chemscore.Internal_Hbond>
0.0000

> <Gold.Chemscore.DEClash>
0.0361

> <Gold.Chemscore.DEInternal>
2.1108

> <Gold.Chemscore.Rot>
4.0968

> <Gold.Chemscore.Internal.Correction>
   9.000000E+99

> <Gold.Chemscore.Hbonds>
donor molecule, donor type, donor heavy atom, donor atom, acceptor molecule, acceptor atom, score
      L1  H    19    43       P1  7948  0.87
      L1  H    21    44       P1 10171  0.87
      P1  H  7954  7966       L1    19  0.05

> <Gold.Chemscore.Hbond.Weighted>
-6.1267

> <Gold.Chemscore.Metal.Weighted>
-0.0000

> <Gold.Chemscore.Lipo.Weighted>
-11.3250

> <Gold.Chemscore.Internal_Hbond.Weighted>
0.0000

> <Gold.Chemscore.DEClash.Weighted>
0.0361

> <Gold.Chemscore.DEInternal.Weighted>
2.1108

> <Gold.Chemscore.Rot.Weighted>
10.4879

> <Gold.Chemscore.Internal.Correction.Weighted>
   9.000000E+99

> <Gold.Protein.RotatedTorsions>
[ 6907 6896 6895 6894 ] final  144.53 input  -60.11 | X-H torsion
[ 7974 7965 7964 7962 ] final  -94.41 input  175.53 | X-H torsion
[ 8008 7997 7996 7995 ] final  -46.54 input   59.86 | X-H torsion
[ 10167 10162 10161 10158 ] final  120.68 input  -65.29 | X-H torsion
[ 10718 10713 10712 10709 ] final  165.05 input   66.30 | X-H torsion
[ 10763 10752 10751 10750 ] final  -82.60 input  -60.55 | X-H torsion
[ 11005 11000 10999 10996 ] final  152.63 input  -57.11 | X-H torsion

> <Gold.Protein.ActiveResidues>
 VAL166  LYS551  ARG553  GLY616  TRP617  ASP618  TYR619  PRO620  LYS621  CYS622 
 ASP623  PHE694  ASN695  SER759  ASP760  ASP761  ALA762  ILE779  LEU786  VAL792 
 PHE793  MET794  SER795  GLU796  ALA797  LYS798  CYS799  TRP800  GLU811  SER814 

> <Gold.Protein.RotatedAtoms>
  152.1925  133.4783  159.5015 H   0  0  0  0  0  0  0  0  0  0  0  0  # atno 6907 bound_to 6896
  150.6954  134.1694  159.4215 H   0  0  0  0  0  0  0  0  0  0  0  0  # atno 6908 bound_to 6896
  151.9609  135.0124  160.0598 H   0  0  0  0  0  0  0  0  0  0  0  0  # atno 6909 bound_to 6896
  145.3736  140.9508  143.2433 H   0  0  0  0  0  0  0  0  0  0  0  0  # atno 7974 bound_to 7965
  154.4008  140.1369  156.4027 H   0  0  0  0  0  0  0  0  0  0  0  0  # atno 8008 bound_to 7997
  155.7808  140.3481  155.5276 H   0  0  0  0  0  0  0  0  0  0  0  0  # atno 8009 bound_to 7997
  155.8675  140.0966  157.1563 H   0  0  0  0  0  0  0  0  0  0  0  0  # atno 8010 bound_to 7997
  139.5967  144.7044  151.3159 H   0  0  0  0  0  0  0  0  0  0  0  0  # atno 10167 bound_to 10162
  157.0857  131.0404  151.2557 H   0  0  0  0  0  0  0  0  0  0  0  0  # atno 10718 bound_to 10713
  154.5777  135.5585  153.7155 H   0  0  0  0  0  0  0  0  0  0  0  0  # atno 10763 bound_to 10752
  153.0070  135.6312  154.2026 H   0  0  0  0  0  0  0  0  0  0  0  0  # atno 10764 bound_to 10752
  154.1966  135.2880  155.2984 H   0  0  0  0  0  0  0  0  0  0  0  0  # atno 10765 bound_to 10752
  140.1325  134.8793  157.2222 H   0  0  0  0  0  0  0  0  0  0  0  0  # atno 11005 bound_to 11000
  144.8558  139.5251  143.6835 LP  0  0  0  0  0  0  0  0  0  0  0  0  # atno 17320 bound_to 7965
  146.2874  139.7042  142.9185 LP  0  0  0  0  0  0  0  0  0  0  0  0  # atno 17321 bound_to 7965
  140.7217  143.7116  150.7765 LP  0  0  0  0  0  0  0  0  0  0  0  0  # atno 17342 bound_to 10162
  140.0684  143.5085  152.2592 LP  0  0  0  0  0  0  0  0  0  0  0  0  # atno 17343 bound_to 10162
  157.4763  130.7738  149.7371 LP  0  0  0  0  0  0  0  0  0  0  0  0  # atno 17370 bound_to 10713
  155.9911  130.3940  150.2998 LP  0  0  0  0  0  0  0  0  0  0  0  0  # atno 17371 bound_to 10713
  140.2824  134.3334  155.7339 LP  0  0  0  0  0  0  0  0  0  0  0  0  # atno 17394 bound_to 11000
  141.2172  133.7486  156.9384 LP  0  0  0  0  0  0  0  0  0  0  0  0  # atno 17395 bound_to 11000

$$$$
