AV-unprocessed.smi:3031|AV-procd|sdf|11542|dock1
  -GOLD-   2272016493D 1   1.00000     0.00000
 Structure written by MMmdl.
 47 48  0  0  0  0  0  0  0  0  2 V2000
  151.2549  142.4713  158.4086 C   0  0  0  0  0  0  0  0  0  0  0  0
  150.8967  141.7009  157.1707 C   0  0  0  0  0  0  0  0  0  0  0  0
  151.7007  140.7674  156.4563 C   0  0  0  0  0  0  0  0  0  0  0  0
  151.0816  140.2552  155.4048 N   0  0  0  0  0  0  0  0  0  0  0  0
  149.8658  140.8424  155.4106 N   0  0  0  0  0  0  0  0  0  0  0  0
  148.8902  140.4933  154.3938 C   0  0  0  0  0  0  0  0  0  0  0  0
  148.7763  138.9694  154.1669 C   0  0  1  0  0  0  0  0  0  0  0  0
  147.9515  138.3170  155.2844 C   0  0  0  0  0  0  0  0  0  0  0  0
  148.1549  138.6647  152.8574 N   0  3  0  0  0  0  0  0  0  0  0  0
  146.6759  138.6830  152.8429 C   0  0  0  0  0  0  0  0  0  0  0  0
  146.1098  137.4272  152.1589 C   0  0  2  0  0  0  0  0  0  0  0  0
  146.3305  137.5675  150.7692 O   0  0  0  0  0  0  0  0  0  0  0  0
  144.5944  137.1943  152.3500 C   0  0  0  0  0  0  0  0  0  0  0  0
  144.1824  135.7957  152.5071 N   0  0  0  0  0  0  0  0  0  0  0  0
  142.7281  135.6384  152.5688 C   0  0  0  0  0  0  0  0  0  0  0  0
  142.3161  134.1645  152.7256 C   0  0  0  0  0  0  0  0  0  0  0  0
  142.8475  133.4046  151.6463 O   0  0  0  0  0  0  0  0  0  0  0  0
  144.2651  133.4968  151.5577 C   0  0  0  0  0  0  0  0  0  0  0  0
  144.6769  134.9717  151.4065 C   0  0  0  0  0  0  0  0  0  0  0  0
  149.7292  141.7234  156.4618 C   0  0  0  0  0  0  0  0  0  0  0  0
  152.2978  142.3254  158.6903 H   0  0  0  0  0  0  0  0  0  0  0  0
  150.6467  142.1667  159.2603 H   0  0  0  0  0  0  0  0  0  0  0  0
  151.1061  143.5424  158.2732 H   0  0  0  0  0  0  0  0  0  0  0  0
  152.7087  140.4453  156.6733 H   0  0  0  0  0  0  0  0  0  0  0  0
  147.9268  140.8956  154.7098 H   0  0  0  0  0  0  0  0  0  0  0  0
  149.1462  141.0026  153.4630 H   0  0  0  0  0  0  0  0  0  0  0  0
  149.7732  138.5266  154.2015 H   0  0  0  0  0  0  0  0  0  0  0  0
  148.4023  138.4962  156.2609 H   0  0  0  0  0  0  0  0  0  0  0  0
  147.8885  137.2369  155.1469 H   0  0  0  0  0  0  0  0  0  0  0  0
  146.9346  138.7098  155.3109 H   0  0  0  0  0  0  0  0  0  0  0  0
  148.4669  139.3536  152.1877 H   0  0  0  0  0  0  0  0  0  0  0  0
  146.3402  138.7193  153.8732 H   0  0  0  0  0  0  0  0  0  0  0  0
  146.3185  139.5910  152.3551 H   0  0  0  0  0  0  0  0  0  0  0  0
  146.6520  136.5437  152.4994 H   0  0  0  0  0  0  0  0  0  0  0  0
  145.4923  137.6337  150.3367 H   0  0  0  0  0  0  0  0  0  0  0  0
  144.2090  137.8026  153.1698 H   0  0  0  0  0  0  0  0  0  0  0  0
  144.1139  137.5930  151.4546 H   0  0  0  0  0  0  0  0  0  0  0  0
  142.3023  136.2046  153.3915 H   0  0  0  0  0  0  0  0  0  0  0  0
  142.2755  136.0378  151.6596 H   0  0  0  0  0  0  0  0  0  0  0  0
  142.6732  133.7613  153.6743 H   0  0  0  0  0  0  0  0  0  0  0  0
  141.2300  134.0718  152.7256 H   0  0  0  0  0  0  0  0  0  0  0  0
  144.7215  133.0571  152.4459 H   0  0  0  0  0  0  0  0  0  0  0  0
  144.6073  132.9170  150.7002 H   0  0  0  0  0  0  0  0  0  0  0  0
  144.3018  135.3564  150.4565 H   0  0  0  0  0  0  0  0  0  0  0  0
  145.7648  135.0309  151.3588 H   0  0  0  0  0  0  0  0  0  0  0  0
  148.8183  142.2815  156.6224 H   0  0  0  0  0  0  0  0  0  0  0  0
  148.4769  137.7567  152.5540 H   0  0  0  0  0  0  0  0  0  0  0  0
  1  2  1  0  0  0  0
  1 21  1  0  0  0  0
  1 22  1  0  0  0  0
  1 23  1  0  0  0  0
  2 20  2  0  0  0  0
  2  3  1  0  0  0  0
  3  4  2  0  0  0  0
  3 24  1  0  0  0  0
  4  5  1  0  0  0  0
  5  6  1  0  0  0  0
  5 20  1  0  0  0  0
  6  7  1  0  0  0  0
  6 25  1  0  0  0  0
  6 26  1  0  0  0  0
  7  8  1  0  0  0  0
  7  9  1  0  0  0  0
  7 27  1  0  0  0  0
  8 28  1  0  0  0  0
  8 29  1  0  0  0  0
  8 30  1  0  0  0  0
  9 10  1  0  0  0  0
  9 31  1  0  0  0  0
  9 47  1  0  0  0  0
 10 11  1  0  0  0  0
 10 32  1  0  0  0  0
 10 33  1  0  0  0  0
 11 12  1  0  0  0  0
 11 13  1  0  0  0  0
 11 34  1  0  0  0  0
 12 35  1  0  0  0  0
 13 14  1  0  0  0  0
 13 36  1  0  0  0  0
 13 37  1  0  0  0  0
 14 19  1  0  0  0  0
 14 15  1  0  0  0  0
 15 16  1  0  0  0  0
 15 38  1  0  0  0  0
 15 39  1  0  0  0  0
 16 17  1  0  0  0  0
 16 40  1  0  0  0  0
 16 41  1  0  0  0  0
 17 18  1  0  0  0  0
 18 19  1  0  0  0  0
 18 42  1  0  0  0  0
 18 43  1  0  0  0  0
 19 44  1  0  0  0  0
 19 45  1  0  0  0  0
 20 46  1  0  0  0  0
M  CHG  1   9   1
M  END
> <s_m_source_file>
AV-unprocessed.smi

> <i_m_source_file_index>
3031

> <i_lp_mmshare_version>
43012

> <i_f3d_flags>
0

> <s_epik_input>
W0NIM11jMVtjSF1ubihbY0hdMSlbQ0gyXVtDQEhdKFtDSDNdKVtOSF1bQ0gyXVtDQEhdKFtPSF0pW0NIMl1OMltDSDJdW0NIMl1PW0NIMl1bQ0gyXTI=

> <s_epik_cmdline>
J2VwaWtfcHl0aG9uJywgJy1waCcsICc3LjAnLCAnLXRuJywgJzgnLCAnLW1hJywgJzIwMCcsICctbWV0YWxfYmluZGluZycsICctaW1hZScsICc8aW5maWxlLm1hZT4nLCAnLW9tYWUnLCAnPG91dGZpbGUubWFlPic=

> <r_lp_tautomer_probability>
1

> <r_epik_Ionization_Penalty>
0.108564

> <r_epik_Ionization_Penalty_Charging>
0.01811

> <r_epik_Ionization_Penalty_Neutral>
0.0904541

> <r_epik_State_Penalty>
0.141043

> <r_epik_Charging_Adjusted_Penalty>
0.159153

> <i_epik_Tot_Q>
1

> <i_epik_Tot_abs_Q>
1

> <r_epik_Metal_State_Penalty>
0.141052

> <b_epik_Metal_Only>
0

> <s_lp_Force_Field>
OPLS_2005

> <r_lp_Energy>
29.6303

> <b_lp_Chiralities_Consistent>
1

> <s_lp_Variant>
AV-unprocessed.smi:3031-2

> <Gold.Version>
5.8.1

> <Gold.Id.Protein>
6NUR|6NUR_protein|mol2

> <Gold.PLP.Fitness>
51.3255

> <Gold.PLP.PLP>
-34.1736

> <Gold.PLP.part.hbond>
-5.8609

> <Gold.PLP.part.metal>
0.0000

> <Gold.PLP.part.buried>
-2.0250

> <Gold.PLP.part.nonpolar>
-27.6233

> <Gold.PLP.part.repulsive>
1.0169

> <Gold.PLP.ligand.clash>
0.0000

> <Gold.PLP.ligand.torsion>
1.5123

> <Gold.PLP.Chemscore.Hbond>
5.8500

> <Gold.PLP.Chemscore.CHOScore>
0.7127

> <Gold.PLP.Chemscore.Metal>
0.0000

> <Gold.Chemscore.Hbonds>
donor molecule, donor type, donor heavy atom, donor atom, acceptor molecule, acceptor atom, score
      L1  H     9    31       P1  7957  1.00
      L1  H     9    47       P1  7948  2.00
      L1  H    12    35       P1 10171  1.00
      P1  H  7954  7966       L1    12  0.96
      P1  H  7989  7998       L1     4  0.76
      L1  C    20    46       P1  8028  0.54

> <Gold.PLP.Chemscore.Internal.Correction>
0.4884

> <Gold.Rescore>
     Score         DG    S(hbond)    S(metal)    S(lipo)     H(rot)  DE(clash)    DE(int)     intcor
     20.56     -22.92       4.51        0.00      77.88       2.63       1.11       1.25       ----

> <Gold.Chemscore.Fitness>
20.5591

> <Gold.Chemscore.DG>
-22.9216

> <Gold.Chemscore.ZeroCoef>
-5.4800

> <Gold.Chemscore.Hbond>
4.5073

> <Gold.Chemscore.Metal>
0.0000

> <Gold.Chemscore.Lipo>
77.8836

> <Gold.Chemscore.Internal_Hbond>
0.0000

> <Gold.Chemscore.DEClash>
1.1120

> <Gold.Chemscore.DEInternal>
1.2505

> <Gold.Chemscore.Rot>
2.6270

> <Gold.Chemscore.Internal.Correction>
   9.000000E+99

> <Gold.Chemscore.Hbonds>
donor molecule, donor type, donor heavy atom, donor atom, acceptor molecule, acceptor atom, score
      L1  H     9    31       P1  7957  0.97
      L1  H     9    47       P1  7948  1.00
      L1  H    12    35       P1 10171  0.96
      P1  H  7954  7966       L1    12  0.87
      P1  H  7989  7998       L1     4  0.12

> <Gold.Chemscore.Hbond.Weighted>
-15.0544

> <Gold.Chemscore.Metal.Weighted>
-0.0000

> <Gold.Chemscore.Lipo.Weighted>
-9.1124

> <Gold.Chemscore.Internal_Hbond.Weighted>
0.0000

> <Gold.Chemscore.DEClash.Weighted>
1.1120

> <Gold.Chemscore.DEInternal.Weighted>
1.2505

> <Gold.Chemscore.Rot.Weighted>
6.7251

> <Gold.Chemscore.Internal.Correction.Weighted>
   9.000000E+99

> <Gold.Protein.RotatedTorsions>
[ 6907 6896 6895 6894 ] final  -14.65 input  -60.11 | X-H torsion
[ 7974 7965 7964 7962 ] final  139.07 input  175.53 | X-H torsion
[ 8008 7997 7996 7995 ] final -114.26 input   59.86 | X-H torsion
[ 10167 10162 10161 10158 ] final  -58.68 input  -65.29 | X-H torsion
[ 10718 10713 10712 10709 ] final   39.01 input   66.30 | X-H torsion
[ 10763 10752 10751 10750 ] final   19.35 input  -60.55 | X-H torsion
[ 11005 11000 10999 10996 ] final -152.69 input  -57.11 | X-H torsion

> <Gold.Protein.ActiveResidues>
 VAL166  LYS551  ARG553  GLY616  TRP617  ASP618  TYR619  PRO620  LYS621  CYS622 
 ASP623  PHE694  ASN695  SER759  ASP760  ASP761  ALA762  ILE779  LEU786  VAL792 
 PHE793  MET794  SER795  GLU796  ALA797  LYS798  CYS799  TRP800  GLU811  SER814 

> <Gold.Protein.RotatedAtoms>
  151.3361  135.0853  159.9354 H   0  0  0  0  0  0  0  0  0  0  0  0  # atno 6907 bound_to 6896
  152.5223  133.9494  159.7675 H   0  0  0  0  0  0  0  0  0  0  0  0  # atno 6908 bound_to 6896
  150.9842  133.6162  159.2748 H   0  0  0  0  0  0  0  0  0  0  0  0  # atno 6909 bound_to 6896
  144.9313  139.5043  143.5616 H   0  0  0  0  0  0  0  0  0  0  0  0  # atno 7974 bound_to 7965
  155.0336  140.0393  157.2483 H   0  0  0  0  0  0  0  0  0  0  0  0  # atno 8008 bound_to 7997
  154.7276  140.2724  155.6461 H   0  0  0  0  0  0  0  0  0  0  0  0  # atno 8009 bound_to 7997
  156.2833  140.2690  156.1966 H   0  0  0  0  0  0  0  0  0  0  0  0  # atno 8010 bound_to 7997
  140.6182  143.2410  151.5545 H   0  0  0  0  0  0  0  0  0  0  0  0  # atno 10167 bound_to 10162
  157.3656  130.7673  149.7080 H   0  0  0  0  0  0  0  0  0  0  0  0  # atno 10718 bound_to 10713
  153.1170  135.6710  153.9401 H   0  0  0  0  0  0  0  0  0  0  0  0  # atno 10763 bound_to 10752
  153.8928  135.3045  155.3449 H   0  0  0  0  0  0  0  0  0  0  0  0  # atno 10764 bound_to 10752
  154.7585  135.5000  153.9498 H   0  0  0  0  0  0  0  0  0  0  0  0  # atno 10765 bound_to 10752
  140.7162  134.3778  157.5190 H   0  0  0  0  0  0  0  0  0  0  0  0  # atno 11005 bound_to 11000
  146.3248  139.8266  142.8916 LP  0  0  0  0  0  0  0  0  0  0  0  0  # atno 17320 bound_to 7965
  145.3137  141.0226  143.3540 LP  0  0  0  0  0  0  0  0  0  0  0  0  # atno 17321 bound_to 7965
  139.5416  144.2632  152.1362 LP  0  0  0  0  0  0  0  0  0  0  0  0  # atno 17342 bound_to 10162
  140.1846  144.4811  150.6510 LP  0  0  0  0  0  0  0  0  0  0  0  0  # atno 17343 bound_to 10162
  155.9745  130.4102  150.3916 LP  0  0  0  0  0  0  0  0  0  0  0  0  # atno 17370 bound_to 10713
  157.1999  131.0435  151.2656 LP  0  0  0  0  0  0  0  0  0  0  0  0  # atno 17371 bound_to 10713
  139.8859  134.8923  156.2614 LP  0  0  0  0  0  0  0  0  0  0  0  0  # atno 17394 bound_to 11000
  141.0043  133.7133  156.1009 LP  0  0  0  0  0  0  0  0  0  0  0  0  # atno 17395 bound_to 11000

$$$$
