AV-unprocessed.smi:1512|AV-procd|sdf|6106|dock9
  -GOLD-   22720 6243D 1   1.00000     0.00000
 Structure written by MMmdl.
 44 46  0  0  0  0  0  0  0  0  3 V2000
  146.2737  137.9281  152.7328 C   0  0  0  0  0  0  0  0  0  0  0  0
  146.2337  136.7402  153.7092 C   0  0  2  0  0  0  0  0  0  0  0  0
  147.6073  136.2888  153.9308 N   0  0  0  0  0  0  0  0  0  0  0  0
  148.2076  136.1350  155.1212 C   0  0  0  0  0  0  0  0  0  0  0  0
  147.6445  136.3376  156.1975 O   0  0  0  0  0  0  0  0  0  0  0  0
  149.6668  135.6589  155.0765 C   0  0  0  0  0  0  0  0  0  0  0  0
  150.6382  136.7251  155.3761 N   0  0  0  0  0  0  0  0  0  0  0  0
  150.8346  137.7046  154.3846 C   0  0  0  0  0  0  0  0  0  0  0  0
  151.6965  138.7179  154.5505 C   0  0  0  0  0  0  0  0  0  0  0  0
  152.4409  138.7862  155.7841 C   0  0  0  0  0  0  0  0  0  0  0  0
  152.2725  137.8539  156.7502 C   0  0  0  0  0  0  0  0  0  0  0  0
  153.0598  137.9743  157.9558 N   0  3  0  0  0  0  0  0  0  0  0  0
  153.8417  138.9140  158.0619 O   0  0  0  0  0  0  0  0  0  0  0  0
  152.9084  137.1370  158.8405 O   0  5  0  0  0  0  0  0  0  0  0  0
  151.3102  136.7470  156.5693 C   0  0  0  0  0  0  0  0  0  0  0  0
  151.1055  135.8910  157.4323 O   0  0  0  0  0  0  0  0  0  0  0  0
  145.3719  135.5606  153.1922 C   0  0  1  0  0  0  0  0  0  0  0  0
  143.9591  135.9831  152.7141 C   0  0  0  0  0  0  0  0  0  0  0  0
  143.8751  135.4038  151.2915 C   0  0  2  0  0  0  0  0  0  0  0  0
  143.8028  133.8679  151.3624 C   0  0  0  0  0  0  0  0  0  0  0  0
  145.2344  133.4826  151.7793 C   0  0  0  0  0  0  0  0  0  0  0  0
  145.9259  134.8516  151.9297 C   0  0  1  0  0  0  0  0  0  0  0  0
  145.2919  135.6357  150.7852 C   0  0  0  0  0  0  0  0  0  0  0  0
  145.2909  138.3777  152.5980 H   0  0  0  0  0  0  0  0  0  0  0  0
  146.6398  137.6238  151.7515 H   0  0  0  0  0  0  0  0  0  0  0  0
  146.9335  138.7139  153.1028 H   0  0  0  0  0  0  0  0  0  0  0  0
  145.8034  137.0971  154.6460 H   0  0  0  0  0  0  0  0  0  0  0  0
  148.1515  136.0889  153.1042 H   0  0  0  0  0  0  0  0  0  0  0  0
  149.7730  134.8317  155.7797 H   0  0  0  0  0  0  0  0  0  0  0  0
  149.8776  135.2266  154.0964 H   0  0  0  0  0  0  0  0  0  0  0  0
  150.2473  137.5778  153.4866 H   0  0  0  0  0  0  0  0  0  0  0  0
  151.8352  139.4595  153.7776 H   0  0  0  0  0  0  0  0  0  0  0  0
  153.1493  139.5906  155.9197 H   0  0  0  0  0  0  0  0  0  0  0  0
  145.2772  134.8356  154.0024 H   0  0  0  0  0  0  0  0  0  0  0  0
  143.1703  135.6041  153.3648 H   0  0  0  0  0  0  0  0  0  0  0  0
  143.8568  137.0682  152.6718 H   0  0  0  0  0  0  0  0  0  0  0  0
  143.0890  135.8525  150.6834 H   0  0  0  0  0  0  0  0  0  0  0  0
  143.0536  133.5230  152.0758 H   0  0  0  0  0  0  0  0  0  0  0  0
  143.5594  133.4433  150.3877 H   0  0  0  0  0  0  0  0  0  0  0  0
  145.2589  132.8970  152.6987 H   0  0  0  0  0  0  0  0  0  0  0  0
  145.7132  132.8921  150.9971 H   0  0  0  0  0  0  0  0  0  0  0  0
  147.0117  134.7793  151.8833 H   0  0  0  0  0  0  0  0  0  0  0  0
  145.4780  135.1958  149.8038 H   0  0  0  0  0  0  0  0  0  0  0  0
  145.5784  136.6882  150.7634 H   0  0  0  0  0  0  0  0  0  0  0  0
  1  2  1  0  0  0  0
  1 24  1  0  0  0  0
  1 25  1  0  0  0  0
  1 26  1  0  0  0  0
  2  3  1  0  0  0  0
  2 17  1  0  0  0  0
  2 27  1  0  0  0  0
  3  4  1  0  0  0  0
  3 28  1  0  0  0  0
  4  5  2  0  0  0  0
  4  6  1  0  0  0  0
  6  7  1  0  0  0  0
  6 29  1  0  0  0  0
  6 30  1  0  0  0  0
  7 15  1  0  0  0  0
  7  8  1  0  0  0  0
  8  9  2  0  0  0  0
  8 31  1  0  0  0  0
  9 10  1  0  0  0  0
  9 32  1  0  0  0  0
 10 11  2  0  0  0  0
 10 33  1  0  0  0  0
 11 12  1  0  0  0  0
 11 15  1  0  0  0  0
 12 13  2  0  0  0  0
 12 14  1  0  0  0  0
 15 16  2  0  0  0  0
 17 22  1  0  0  0  0
 17 18  1  0  0  0  0
 17 34  1  0  0  0  0
 18 19  1  0  0  0  0
 18 35  1  0  0  0  0
 18 36  1  0  0  0  0
 19 23  1  0  0  0  0
 19 20  1  0  0  0  0
 19 37  1  0  0  0  0
 20 21  1  0  0  0  0
 20 38  1  0  0  0  0
 20 39  1  0  0  0  0
 21 22  1  0  0  0  0
 21 40  1  0  0  0  0
 21 41  1  0  0  0  0
 22 23  1  0  0  0  0
 22 42  1  0  0  0  0
 23 43  1  0  0  0  0
 23 44  1  0  0  0  0
M  CHG  1  12   1
M  CHG  1  14  -1
M  END
> <s_m_source_file>
AV-unprocessed.smi

> <i_m_source_file_index>
1512

> <i_lp_mmshare_version>
43012

> <i_f3d_flags>
0

> <s_epik_input>
W0NIMl0xW0NIMl1bQ0BIXShbQ0gyXTIpW0NAQEhdKFtDSDJdW0NAQEhdMTIpW0NASF0oW0NIM10pW05IXUMoPU8pW0NIMl1uM1tjSF1bY0hdW2NIXWMoW04rXSg9TylbTy1dKWMzPU8=

> <s_epik_cmdline>
J2VwaWtfcHl0aG9uJywgJy1waCcsICc3LjAnLCAnLXRuJywgJzgnLCAnLW1hJywgJzIwMCcsICctbWV0YWxfYmluZGluZycsICctaW1hZScsICc8aW5maWxlLm1hZT4nLCAnLW9tYWUnLCAnPG91dGZpbGUubWFlPic=

> <r_lp_tautomer_probability>
1

> <r_epik_Ionization_Penalty>
2.17697e-08

> <r_epik_Ionization_Penalty_Charging>
1.42735e-10

> <r_epik_Ionization_Penalty_Neutral>
2.16269e-08

> <r_epik_State_Penalty>
-0

> <r_epik_Charging_Adjusted_Penalty>
1.42735e-10

> <i_epik_Tot_Q>
0

> <i_epik_Tot_abs_Q>
2

> <r_epik_Metal_State_Penalty>
-0

> <b_epik_Metal_Only>
0

> <s_lp_Force_Field>
OPLS_2005

> <r_lp_Energy>
64.581

> <b_lp_Chiralities_Consistent>
1

> <s_lp_Variant>
AV-unprocessed.smi:1512-7

> <Gold.Version>
5.8.1

> <Gold.Id.Protein>
6NUR|6NUR_protein|mol2

> <Gold.PLP.Fitness>
41.5134

> <Gold.PLP.PLP>
-33.0232

> <Gold.PLP.part.hbond>
-3.1023

> <Gold.PLP.part.metal>
0.0000

> <Gold.PLP.part.buried>
-6.6387

> <Gold.PLP.part.nonpolar>
-24.9148

> <Gold.PLP.part.repulsive>
0.0193

> <Gold.PLP.ligand.clash>
0.0000

> <Gold.PLP.ligand.torsion>
0.4677

> <Gold.PLP.Chemscore.Hbond>
2.0281

> <Gold.PLP.Chemscore.CHOScore>
1.1037

> <Gold.PLP.Chemscore.Metal>
0.0000

> <Gold.Chemscore.Hbonds>
donor molecule, donor type, donor heavy atom, donor atom, acceptor molecule, acceptor atom, score
      L1  H     3    28       P1  7948  0.88
      P1  H  7997  8010       L1    13  1.00
      L1  C     8    31       P1  7948  0.96
      L1  C     8    31       P1  7949  0.13

> <Gold.PLP.Chemscore.Internal.Correction>
0.0302

> <Gold.Rescore>
     Score         DG    S(hbond)    S(metal)    S(lipo)     H(rot)  DE(clash)    DE(int)     intcor
     13.99     -16.10       1.99        0.00      72.06       1.75       0.00       2.11       ----

> <Gold.Chemscore.Fitness>
13.9909

> <Gold.Chemscore.DG>
-16.0960

> <Gold.Chemscore.ZeroCoef>
-5.4800

> <Gold.Chemscore.Hbond>
1.9935

> <Gold.Chemscore.Metal>
0.0000

> <Gold.Chemscore.Lipo>
72.0589

> <Gold.Chemscore.Internal_Hbond>
0.0000

> <Gold.Chemscore.DEClash>
0.0000

> <Gold.Chemscore.DEInternal>
2.1051

> <Gold.Chemscore.Rot>
1.7474

> <Gold.Chemscore.Internal.Correction>
   9.000000E+99

> <Gold.Chemscore.Hbonds>
donor molecule, donor type, donor heavy atom, donor atom, acceptor molecule, acceptor atom, score
      L1  H     3    28       P1  7948  0.85
      P1  H  6896  6909       L1    16  0.01
      P1  H  7997  8010       L1    13  0.99

> <Gold.Chemscore.Hbond.Weighted>
-6.6584

> <Gold.Chemscore.Metal.Weighted>
-0.0000

> <Gold.Chemscore.Lipo.Weighted>
-8.4309

> <Gold.Chemscore.Internal_Hbond.Weighted>
0.0000

> <Gold.Chemscore.DEClash.Weighted>
0.0000

> <Gold.Chemscore.DEInternal.Weighted>
2.1051

> <Gold.Chemscore.Rot.Weighted>
4.4733

> <Gold.Chemscore.Internal.Correction.Weighted>
   9.000000E+99

> <Gold.Protein.RotatedTorsions>
[ 6907 6896 6895 6894 ] final   74.65 input  -60.11 | X-H torsion
[ 7974 7965 7964 7962 ] final  -54.44 input  175.53 | X-H torsion
[ 8008 7997 7996 7995 ] final   39.24 input   59.86 | X-H torsion
[ 10167 10162 10161 10158 ] final  148.84 input  -65.29 | X-H torsion
[ 10718 10713 10712 10709 ] final  124.88 input   66.30 | X-H torsion
[ 10763 10752 10751 10750 ] final  -95.87 input  -60.55 | X-H torsion
[ 11005 11000 10999 10996 ] final -101.21 input  -57.11 | X-H torsion

> <Gold.Protein.ActiveResidues>
 VAL166  LYS551  ARG553  GLY616  TRP617  ASP618  TYR619  PRO620  LYS621  CYS622 
 ASP623  PHE694  ASN695  SER759  ASP760  ASP761  ALA762  ILE779  LEU786  VAL792 
 PHE793  MET794  SER795  GLU796  ALA797  LYS798  CYS799  TRP800  GLU811  SER814 

> <Gold.Protein.RotatedAtoms>
  152.4986  134.4239  159.9489 H   0  0  0  0  0  0  0  0  0  0  0  0  # atno 6907 bound_to 6896
  151.4214  133.3691  159.2764 H   0  0  0  0  0  0  0  0  0  0  0  0  # atno 6908 bound_to 6896
  150.9220  134.8660  159.7555 H   0  0  0  0  0  0  0  0  0  0  0  0  # atno 6909 bound_to 6896
  145.8855  140.8111  142.9818 H   0  0  0  0  0  0  0  0  0  0  0  0  # atno 7974 bound_to 7965
  155.2334  140.3340  155.4300 H   0  0  0  0  0  0  0  0  0  0  0  0  # atno 8008 bound_to 7997
  156.2286  140.1840  156.7347 H   0  0  0  0  0  0  0  0  0  0  0  0  # atno 8009 bound_to 7997
  154.5939  140.0633  156.9262 H   0  0  0  0  0  0  0  0  0  0  0  0  # atno 8010 bound_to 7997
  139.4869  144.5648  151.7164 H   0  0  0  0  0  0  0  0  0  0  0  0  # atno 10167 bound_to 10162
  157.5549  131.1092  150.8639 H   0  0  0  0  0  0  0  0  0  0  0  0  # atno 10718 bound_to 10713
  154.7188  135.5105  153.8779 H   0  0  0  0  0  0  0  0  0  0  0  0  # atno 10763 bound_to 10752
  153.0843  135.6641  153.9989 H   0  0  0  0  0  0  0  0  0  0  0  0  # atno 10764 bound_to 10752
  153.9816  135.3028  155.3399 H   0  0  0  0  0  0  0  0  0  0  0  0  # atno 10765 bound_to 10752
  141.1240  133.8460  157.1202 H   0  0  0  0  0  0  0  0  0  0  0  0  # atno 11005 bound_to 11000
  144.6728  140.1449  143.7434 LP  0  0  0  0  0  0  0  0  0  0  0  0  # atno 17320 bound_to 7965
  145.8972  139.2409  143.1515 LP  0  0  0  0  0  0  0  0  0  0  0  0  # atno 17321 bound_to 7965
  140.5225  144.0857  150.6027 LP  0  0  0  0  0  0  0  0  0  0  0  0  # atno 17342 bound_to 10162
  140.3820  143.2798  152.0159 LP  0  0  0  0  0  0  0  0  0  0  0  0  # atno 17343 bound_to 10162
  156.9153  130.5295  149.5280 LP  0  0  0  0  0  0  0  0  0  0  0  0  # atno 17370 bound_to 10713
  156.0609  130.5662  150.9191 LP  0  0  0  0  0  0  0  0  0  0  0  0  # atno 17371 bound_to 10713
  140.0222  134.9941  157.0614 LP  0  0  0  0  0  0  0  0  0  0  0  0  # atno 17394 bound_to 11000
  140.4422  134.1670  155.7174 LP  0  0  0  0  0  0  0  0  0  0  0  0  # atno 17395 bound_to 11000

$$$$
