AV-unprocessed.smi:790|AV-procd|sdf|3743|dock8
  -GOLD-   22720 1173D 1   1.00000     0.00000
 Structure written by MMmdl.
 38 40  0  0  0  0  0  0  0  0  1 V2000
  145.3047  137.5421  154.1203 O   0  0  0  0  0  0  0  0  0  0  0  0
  146.3116  137.0739  153.5906 C   0  0  0  0  0  0  0  0  0  0  0  0
  147.4735  137.7251  153.4108 N   0  0  0  0  0  0  0  0  0  0  0  0
  147.8036  139.0673  153.7433 C   0  0  0  0  0  0  0  0  0  0  0  0
  149.1322  139.3412  154.1286 C   0  0  0  0  0  0  0  0  0  0  0  0
  149.4970  140.6626  154.4488 C   0  0  0  0  0  0  0  0  0  0  0  0
  148.5144  141.6674  154.3634 C   0  0  0  0  0  0  0  0  0  0  0  0
  147.2419  141.4265  153.9839 N   0  0  0  0  0  0  0  0  0  0  0  0
  146.8985  140.1562  153.6788 C   0  0  0  0  0  0  0  0  0  0  0  0
  146.3894  135.8159  153.1346 N   0  0  0  0  0  0  0  0  0  0  0  0
  145.3016  134.8358  153.1564 C   0  0  1  0  0  0  0  0  0  0  0  0
  144.0931  135.2801  152.2951 C   0  0  1  0  0  0  0  0  0  0  0  0
  144.5345  135.6949  150.8752 C   0  0  0  0  0  0  0  0  0  0  0  0
  144.9425  134.3514  150.2452 C   0  0  0  0  0  0  0  0  0  0  0  0
  144.6487  133.3378  151.3712 C   0  0  2  0  0  0  0  0  0  0  0  0
  143.4048  133.9504  152.0041 C   0  0  0  0  0  0  0  0  0  0  0  0
  145.6612  133.4533  152.5373 C   0  0  1  0  0  0  0  0  0  0  0  0
  147.1414  133.1941  152.1758 C   0  0  0  0  0  0  0  0  0  0  0  0
  147.3477  131.8238  151.9045 O   0  0  0  0  0  0  0  0  0  0  0  0
  148.2304  137.1791  153.0258 H   0  0  0  0  0  0  0  0  0  0  0  0
  149.8650  138.5493  154.1821 H   0  0  0  0  0  0  0  0  0  0  0  0
  150.5057  140.9008  154.7519 H   0  0  0  0  0  0  0  0  0  0  0  0
  148.7580  142.6919  154.6021 H   0  0  0  0  0  0  0  0  0  0  0  0
  145.8757  140.0352  153.3593 H   0  0  0  0  0  0  0  0  0  0  0  0
  147.2610  135.5124  152.7260 H   0  0  0  0  0  0  0  0  0  0  0  0
  144.9599  134.6902  154.1832 H   0  0  0  0  0  0  0  0  0  0  0  0
  143.4612  136.0217  152.7848 H   0  0  0  0  0  0  0  0  0  0  0  0
  143.6951  136.1267  150.3282 H   0  0  0  0  0  0  0  0  0  0  0  0
  145.3393  136.4296  150.8593 H   0  0  0  0  0  0  0  0  0  0  0  0
  144.3231  134.1415  149.3723 H   0  0  0  0  0  0  0  0  0  0  0  0
  145.9798  134.3398  149.9134 H   0  0  0  0  0  0  0  0  0  0  0  0
  144.5147  132.3167  151.0125 H   0  0  0  0  0  0  0  0  0  0  0  0
  143.0716  133.4291  152.9034 H   0  0  0  0  0  0  0  0  0  0  0  0
  142.5642  134.0382  151.3132 H   0  0  0  0  0  0  0  0  0  0  0  0
  145.3891  132.6954  153.2747 H   0  0  0  0  0  0  0  0  0  0  0  0
  147.4675  133.7835  151.3197 H   0  0  0  0  0  0  0  0  0  0  0  0
  147.7839  133.4698  153.0121 H   0  0  0  0  0  0  0  0  0  0  0  0
  148.0904  131.7403  151.3261 H   0  0  0  0  0  0  0  0  0  0  0  0
  1  2  2  0  0  0  0
  2  3  1  0  0  0  0
  2 10  1  0  0  0  0
  3  4  1  0  0  0  0
  3 20  1  0  0  0  0
  4  9  1  0  0  0  0
  4  5  2  0  0  0  0
  5  6  1  0  0  0  0
  5 21  1  0  0  0  0
  6  7  2  0  0  0  0
  6 22  1  0  0  0  0
  7  8  1  0  0  0  0
  7 23  1  0  0  0  0
  8  9  2  0  0  0  0
  9 24  1  0  0  0  0
 10 11  1  0  0  0  0
 10 25  1  0  0  0  0
 11 17  1  0  0  0  0
 11 12  1  0  0  0  0
 11 26  1  0  0  0  0
 12 16  1  0  0  0  0
 12 13  1  0  0  0  0
 12 27  1  0  0  0  0
 13 14  1  0  0  0  0
 13 28  1  0  0  0  0
 13 29  1  0  0  0  0
 14 15  1  0  0  0  0
 14 30  1  0  0  0  0
 14 31  1  0  0  0  0
 15 16  1  0  0  0  0
 15 17  1  0  0  0  0
 15 32  1  0  0  0  0
 16 33  1  0  0  0  0
 16 34  1  0  0  0  0
 17 18  1  0  0  0  0
 17 35  1  0  0  0  0
 18 19  1  0  0  0  0
 18 36  1  0  0  0  0
 18 37  1  0  0  0  0
 19 38  1  0  0  0  0
M  END
> <s_m_source_file>
AV-unprocessed.smi

> <i_m_source_file_index>
790

> <i_lp_mmshare_version>
43012

> <i_f3d_flags>
0

> <s_epik_input>
W0NIMl0xW0NIMl1bQ0BASF0oW0NIMl0yKVtDQEBIXShbQ0gyXVtPSF0pW0NAQEhdKFtDQEhdMTIpW05IXUMoPU8pW05IXWMzW2NIXVtjSF1bY0hdbltjSF0z

> <s_epik_cmdline>
J2VwaWtfcHl0aG9uJywgJy1waCcsICc3LjAnLCAnLXRuJywgJzgnLCAnLW1hJywgJzIwMCcsICctbWV0YWxfYmluZGluZycsICctaW1hZScsICc8aW5maWxlLm1hZT4nLCAnLW9tYWUnLCAnPG91dGZpbGUubWFlPic=

> <r_epik_Ionization_Penalty>
0.00497582

> <r_epik_Ionization_Penalty_Charging>
0

> <r_epik_Ionization_Penalty_Neutral>
0.00497582

> <r_epik_State_Penalty>
0.00358602

> <r_epik_Charging_Adjusted_Penalty>
0.00358602

> <i_epik_Tot_Q>
0

> <i_epik_Tot_abs_Q>
0

> <r_epik_Metal_State_Penalty>
-0

> <b_epik_Metal_Only>
0

> <s_lp_Force_Field>
OPLS_2005

> <r_lp_Energy>
55.7442

> <b_lp_Chiralities_Consistent>
1

> <s_lp_Variant>
AV-unprocessed.smi:790-4

> <Gold.Version>
5.8.1

> <Gold.Id.Protein>
6NUR|6NUR_protein|mol2

> <Gold.PLP.Fitness>
42.9630

> <Gold.PLP.PLP>
-28.9754

> <Gold.PLP.part.hbond>
-2.8281

> <Gold.PLP.part.metal>
0.0000

> <Gold.PLP.part.buried>
0.2220

> <Gold.PLP.part.nonpolar>
-25.4666

> <Gold.PLP.part.repulsive>
0.2864

> <Gold.PLP.ligand.clash>
0.0000

> <Gold.PLP.ligand.torsion>
0.3066

> <Gold.PLP.Chemscore.Hbond>
2.8640

> <Gold.PLP.Chemscore.CHOScore>
2.0000

> <Gold.PLP.Chemscore.Metal>
0.0000

> <Gold.Chemscore.Hbonds>
donor molecule, donor type, donor heavy atom, donor atom, acceptor molecule, acceptor atom, score
      L1  H     3    20       P1  7948  1.00
      L1  H    10    25       P1  7948  0.85
      L1  H    19    38       P1 10747  1.00
      L1  C     7    23       P1  8028  1.00
      L1  C     9    24       P1 10175  1.00

> <Gold.PLP.Chemscore.Internal.Correction>
0.0087

> <Gold.Rescore>
     Score         DG    S(hbond)    S(metal)    S(lipo)     H(rot)  DE(clash)    DE(int)     intcor
     17.42     -18.75       2.68        0.00      75.88       1.78       0.99       0.34       ----

> <Gold.Chemscore.Fitness>
17.4235

> <Gold.Chemscore.DG>
-18.7532

> <Gold.Chemscore.ZeroCoef>
-5.4800

> <Gold.Chemscore.Hbond>
2.6788

> <Gold.Chemscore.Metal>
0.0000

> <Gold.Chemscore.Lipo>
75.8845

> <Gold.Chemscore.Internal_Hbond>
0.0000

> <Gold.Chemscore.DEClash>
0.9945

> <Gold.Chemscore.DEInternal>
0.3351

> <Gold.Chemscore.Rot>
1.7783

> <Gold.Chemscore.Internal.Correction>
   9.000000E+99

> <Gold.Chemscore.Hbonds>
donor molecule, donor type, donor heavy atom, donor atom, acceptor molecule, acceptor atom, score
      L1  H     3    20       P1  7948  0.97
      L1  H    10    25       P1  7948  0.80
      L1  H    19    38       P1 10747  0.95

> <Gold.Chemscore.Hbond.Weighted>
-8.9472

> <Gold.Chemscore.Metal.Weighted>
-0.0000

> <Gold.Chemscore.Lipo.Weighted>
-8.8785

> <Gold.Chemscore.Internal_Hbond.Weighted>
0.0000

> <Gold.Chemscore.DEClash.Weighted>
0.9945

> <Gold.Chemscore.DEInternal.Weighted>
0.3351

> <Gold.Chemscore.Rot.Weighted>
4.5525

> <Gold.Chemscore.Internal.Correction.Weighted>
   9.000000E+99

> <Gold.Protein.RotatedTorsions>
[ 6907 6896 6895 6894 ] final -137.05 input  -60.11 | X-H torsion
[ 7974 7965 7964 7962 ] final  -33.16 input  175.53 | X-H torsion
[ 8008 7997 7996 7995 ] final   33.76 input   59.86 | X-H torsion
[ 10167 10162 10161 10158 ] final   23.21 input  -65.29 | X-H torsion
[ 10718 10713 10712 10709 ] final  179.91 input   66.30 | X-H torsion
[ 10763 10752 10751 10750 ] final  -83.01 input  -60.55 | X-H torsion
[ 11005 11000 10999 10996 ] final  -90.35 input  -57.11 | X-H torsion

> <Gold.Protein.ActiveResidues>
 VAL166  LYS551  ARG553  GLY616  TRP617  ASP618  TYR619  PRO620  LYS621  CYS622 
 ASP623  PHE694  ASN695  SER759  ASP760  ASP761  ALA762  ILE779  LEU786  VAL792 
 PHE793  MET794  SER795  GLU796  ALA797  LYS798  CYS799  TRP800  GLU811  SER814 

> <Gold.Protein.RotatedAtoms>
  151.0177  133.5906  159.2674 H   0  0  0  0  0  0  0  0  0  0  0  0  # atno 6907 bound_to 6896
  151.3034  135.0774  159.9256 H   0  0  0  0  0  0  0  0  0  0  0  0  # atno 6908 bound_to 6896
  152.5315  133.9854  159.7880 H   0  0  0  0  0  0  0  0  0  0  0  0  # atno 6909 bound_to 6896
  146.0933  140.5881  142.8854 H   0  0  0  0  0  0  0  0  0  0  0  0  # atno 7974 bound_to 7965
  155.1439  140.3268  155.4446 H   0  0  0  0  0  0  0  0  0  0  0  0  # atno 8008 bound_to 7997
  156.2596  140.1989  156.6503 H   0  0  0  0  0  0  0  0  0  0  0  0  # atno 8009 bound_to 7997
  154.6522  140.0557  156.9955 H   0  0  0  0  0  0  0  0  0  0  0  0  # atno 8010 bound_to 7997
  140.5287  143.9879  150.6454 H   0  0  0  0  0  0  0  0  0  0  0  0  # atno 10167 bound_to 10162
  156.8688  130.9777  151.3075 H   0  0  0  0  0  0  0  0  0  0  0  0  # atno 10718 bound_to 10713
  154.5826  135.5571  153.7200 H   0  0  0  0  0  0  0  0  0  0  0  0  # atno 10763 bound_to 10752
  153.0087  135.6324  154.1961 H   0  0  0  0  0  0  0  0  0  0  0  0  # atno 10764 bound_to 10752
  154.1901  135.2883  155.3004 H   0  0  0  0  0  0  0  0  0  0  0  0  # atno 10765 bound_to 10752
  141.1567  133.7686  156.9725 H   0  0  0  0  0  0  0  0  0  0  0  0  # atno 11005 bound_to 11000
  144.7376  140.4853  143.6892 LP  0  0  0  0  0  0  0  0  0  0  0  0  # atno 17320 bound_to 7965
  145.5997  139.1502  143.3136 LP  0  0  0  0  0  0  0  0  0  0  0  0  # atno 17321 bound_to 7965
  140.3248  143.3114  152.0748 LP  0  0  0  0  0  0  0  0  0  0  0  0  # atno 17342 bound_to 10162
  139.4947  144.6549  151.6593 LP  0  0  0  0  0  0  0  0  0  0  0  0  # atno 17343 bound_to 10162
  157.6208  130.8653  149.9105 LP  0  0  0  0  0  0  0  0  0  0  0  0  # atno 17370 bound_to 10713
  156.0737  130.3681  150.0721 LP  0  0  0  0  0  0  0  0  0  0  0  0  # atno 17371 bound_to 10713
  140.1120  134.9471  157.2079 LP  0  0  0  0  0  0  0  0  0  0  0  0  # atno 17394 bound_to 11000
  140.3182  134.2947  155.7252 LP  0  0  0  0  0  0  0  0  0  0  0  0  # atno 17395 bound_to 11000

$$$$
