AV-unprocessed.smi:2414|AV-procd|sdf|9540|dock4
  -GOLD-   2272013173D 1   1.00000     0.00000
 Structure written by MMmdl.
 43 44  0  0  0  0  0  0  0  0  1 V2000
  150.7807  142.0255  158.1688 C   0  0  0  0  0  0  0  0  0  0  0  0
  150.4151  141.3358  156.8983 C   0  0  0  0  0  0  0  0  0  0  0  0
  151.2652  140.8782  155.9224 C   0  0  0  0  0  0  0  0  0  0  0  0
  150.6141  140.2748  154.8445 N   0  0  0  0  0  0  0  0  0  0  0  0
  149.2860  140.2641  154.9895 C   0  0  0  0  0  0  0  0  0  0  0  0
  148.3429  139.6908  153.9753 C   0  0  2  0  0  0  0  0  0  0  0  0
  147.4045  140.7583  153.3941 C   0  0  0  0  0  0  0  0  0  0  0  0
  147.5926  138.4456  154.4867 C   0  0  0  0  0  0  0  0  0  0  0  0
  147.3328  137.4923  153.4138 N   0  0  0  0  0  0  0  0  0  0  0  0
  146.1744  136.8441  153.2423 C   0  0  0  0  0  0  0  0  0  0  0  0
  145.1907  136.9904  153.9679 O   0  0  0  0  0  0  0  0  0  0  0  0
  146.2199  136.0215  152.1861 N   0  0  0  0  0  0  0  0  0  0  0  0
  145.1197  135.1869  151.7122 C   0  0  0  0  0  0  0  0  0  0  0  0
  145.5027  133.6915  151.6963 C   0  0  2  0  0  0  0  0  0  0  0  0
  146.1351  133.2300  153.0239 C   0  0  0  0  0  0  0  0  0  0  0  0
  146.4142  133.3539  150.5024 C   0  0  0  0  0  0  0  0  0  0  0  0
  145.8762  132.0263  150.0158 C   0  0  0  0  0  0  0  0  0  0  0  0
  144.3867  132.2038  150.2663 C   0  0  0  0  0  0  0  0  0  0  0  0
  144.3193  132.9133  151.4965 O   0  0  0  0  0  0  0  0  0  0  0  0
  148.7502  141.0128  156.4897 S   0  0  0  0  0  0  0  0  0  0  0  0
  151.5198  142.8059  157.9868 H   0  0  0  0  0  0  0  0  0  0  0  0
  151.2040  141.3191  158.8830 H   0  0  0  0  0  0  0  0  0  0  0  0
  149.9093  142.4904  158.6302 H   0  0  0  0  0  0  0  0  0  0  0  0
  152.3434  140.9416  155.9127 H   0  0  0  0  0  0  0  0  0  0  0  0
  148.9642  139.3528  153.1445 H   0  0  0  0  0  0  0  0  0  0  0  0
  147.9701  141.5777  152.9493 H   0  0  0  0  0  0  0  0  0  0  0  0
  146.7572  141.1793  154.1641 H   0  0  0  0  0  0  0  0  0  0  0  0
  146.7654  140.3381  152.6172 H   0  0  0  0  0  0  0  0  0  0  0  0
  148.1842  137.9519  155.2596 H   0  0  0  0  0  0  0  0  0  0  0  0
  146.6482  138.7388  154.9476 H   0  0  0  0  0  0  0  0  0  0  0  0
  148.0871  137.3086  152.7684 H   0  0  0  0  0  0  0  0  0  0  0  0
  147.0782  135.9752  151.6563 H   0  0  0  0  0  0  0  0  0  0  0  0
  144.2663  135.3507  152.3712 H   0  0  0  0  0  0  0  0  0  0  0  0
  144.8013  135.4871  150.7124 H   0  0  0  0  0  0  0  0  0  0  0  0
  147.0412  133.7950  153.2443 H   0  0  0  0  0  0  0  0  0  0  0  0
  146.4045  132.1743  152.9869 H   0  0  0  0  0  0  0  0  0  0  0  0
  145.4524  133.3578  153.8642 H   0  0  0  0  0  0  0  0  0  0  0  0
  146.3022  134.0942  149.7089 H   0  0  0  0  0  0  0  0  0  0  0  0
  147.4725  133.3124  150.7628 H   0  0  0  0  0  0  0  0  0  0  0  0
  146.1130  131.8230  148.9712 H   0  0  0  0  0  0  0  0  0  0  0  0
  146.2690  131.2105  150.6240 H   0  0  0  0  0  0  0  0  0  0  0  0
  143.9349  132.8111  149.4806 H   0  0  0  0  0  0  0  0  0  0  0  0
  143.8506  131.2560  150.3189 H   0  0  0  0  0  0  0  0  0  0  0  0
  1  2  1  0  0  0  0
  1 21  1  0  0  0  0
  1 22  1  0  0  0  0
  1 23  1  0  0  0  0
  2 20  1  0  0  0  0
  2  3  2  0  0  0  0
  3  4  1  0  0  0  0
  3 24  1  0  0  0  0
  4  5  2  0  0  0  0
  5  6  1  0  0  0  0
  5 20  1  0  0  0  0
  6  7  1  0  0  0  0
  6  8  1  0  0  0  0
  6 25  1  0  0  0  0
  7 26  1  0  0  0  0
  7 27  1  0  0  0  0
  7 28  1  0  0  0  0
  8  9  1  0  0  0  0
  8 29  1  0  0  0  0
  8 30  1  0  0  0  0
  9 10  1  0  0  0  0
  9 31  1  0  0  0  0
 10 11  2  0  0  0  0
 10 12  1  0  0  0  0
 12 13  1  0  0  0  0
 12 32  1  0  0  0  0
 13 14  1  0  0  0  0
 13 33  1  0  0  0  0
 13 34  1  0  0  0  0
 14 19  1  0  0  0  0
 14 15  1  0  0  0  0
 14 16  1  0  0  0  0
 15 35  1  0  0  0  0
 15 36  1  0  0  0  0
 15 37  1  0  0  0  0
 16 17  1  0  0  0  0
 16 38  1  0  0  0  0
 16 39  1  0  0  0  0
 17 18  1  0  0  0  0
 17 40  1  0  0  0  0
 17 41  1  0  0  0  0
 18 19  1  0  0  0  0
 18 42  1  0  0  0  0
 18 43  1  0  0  0  0
M  END
> <s_m_source_file>
AV-unprocessed.smi

> <i_m_source_file_index>
2414

> <i_lp_mmshare_version>
43012

> <i_f3d_flags>
0

> <s_epik_input>
W0NIM11jMVtjSF1uYyhzMSlbQ0BIXShbQ0gzXSlbQ0gyXVtOSF1DKD1PKVtOSF1bQ0gyXVtDQEBdMihbQ0gzXSlbQ0gyXVtDSDJdW0NIMl1PMg==

> <s_epik_cmdline>
J2VwaWtfcHl0aG9uJywgJy1waCcsICc3LjAnLCAnLXRuJywgJzgnLCAnLW1hJywgJzIwMCcsICctbWV0YWxfYmluZGluZycsICctaW1hZScsICc8aW5maWxlLm1hZT4nLCAnLW9tYWUnLCAnPG91dGZpbGUubWFlPic=

> <r_epik_Ionization_Penalty>
0.000646956

> <r_epik_Ionization_Penalty_Charging>
0

> <r_epik_Ionization_Penalty_Neutral>
0.000646956

> <r_epik_State_Penalty>
0.000375727

> <r_epik_Charging_Adjusted_Penalty>
0.000375727

> <i_epik_Tot_Q>
0

> <i_epik_Tot_abs_Q>
0

> <r_epik_Metal_State_Penalty>
-0

> <b_epik_Metal_Only>
0

> <s_lp_Force_Field>
OPLS_2005

> <r_lp_Energy>
9.0626

> <b_lp_Chiralities_Consistent>
1

> <s_lp_Variant>
AV-unprocessed.smi:2414-3

> <Gold.Version>
5.8.1

> <Gold.Id.Protein>
6NUR|6NUR_protein|mol2

> <Gold.PLP.Fitness>
40.5385

> <Gold.PLP.PLP>
-33.1774

> <Gold.PLP.part.hbond>
-3.0000

> <Gold.PLP.part.metal>
0.0000

> <Gold.PLP.part.buried>
-3.2566

> <Gold.PLP.part.nonpolar>
-26.0170

> <Gold.PLP.part.repulsive>
0.3495

> <Gold.PLP.ligand.clash>
0.0000

> <Gold.PLP.ligand.torsion>
0.6490

> <Gold.PLP.Chemscore.Hbond>
2.8480

> <Gold.PLP.Chemscore.CHOScore>
0.0000

> <Gold.PLP.Chemscore.Metal>
0.0000

> <Gold.Chemscore.Hbonds>
donor molecule, donor type, donor heavy atom, donor atom, acceptor molecule, acceptor atom, score
      L1  H     9    31       P1  7948  1.00
      L1  H    12    32       P1  7948  0.85
      P1  H  7989  7998       L1     4  1.00

> <Gold.PLP.Chemscore.Internal.Correction>
0.1152

> <Gold.Rescore>
     Score         DG    S(hbond)    S(metal)    S(lipo)     H(rot)  DE(clash)    DE(int)     intcor
     19.24     -19.80       2.68        0.00      82.06       1.65       0.00       0.55       ----

> <Gold.Chemscore.Fitness>
19.2449

> <Gold.Chemscore.DG>
-19.7963

> <Gold.Chemscore.ZeroCoef>
-5.4800

> <Gold.Chemscore.Hbond>
2.6783

> <Gold.Chemscore.Metal>
0.0000

> <Gold.Chemscore.Lipo>
82.0555

> <Gold.Chemscore.Internal_Hbond>
0.0000

> <Gold.Chemscore.DEClash>
0.0048

> <Gold.Chemscore.DEInternal>
0.5466

> <Gold.Chemscore.Rot>
1.6522

> <Gold.Chemscore.Internal.Correction>
   9.000000E+99

> <Gold.Chemscore.Hbonds>
donor molecule, donor type, donor heavy atom, donor atom, acceptor molecule, acceptor atom, score
      L1  H     9    31       P1  7948  0.94
      L1  H    12    32       P1  7948  0.85
      P1  H  7989  7998       L1     4  0.25

> <Gold.Chemscore.Hbond.Weighted>
-8.9454

> <Gold.Chemscore.Metal.Weighted>
-0.0000

> <Gold.Chemscore.Lipo.Weighted>
-9.6005

> <Gold.Chemscore.Internal_Hbond.Weighted>
0.0000

> <Gold.Chemscore.DEClash.Weighted>
0.0048

> <Gold.Chemscore.DEInternal.Weighted>
0.5466

> <Gold.Chemscore.Rot.Weighted>
4.2295

> <Gold.Chemscore.Internal.Correction.Weighted>
   9.000000E+99

> <Gold.Protein.RotatedTorsions>
[ 6907 6896 6895 6894 ] final   12.61 input  -60.11 | X-H torsion
[ 7974 7965 7964 7962 ] final  120.61 input  175.53 | X-H torsion
[ 8008 7997 7996 7995 ] final   99.41 input   59.86 | X-H torsion
[ 10167 10162 10161 10158 ] final  148.79 input  -65.29 | X-H torsion
[ 10718 10713 10712 10709 ] final   31.52 input   66.30 | X-H torsion
[ 10763 10752 10751 10750 ] final   44.79 input  -60.55 | X-H torsion
[ 11005 11000 10999 10996 ] final -178.82 input  -57.11 | X-H torsion

> <Gold.Protein.ActiveResidues>
 VAL166  LYS551  ARG553  GLY616  TRP617  ASP618  TYR619  PRO620  LYS621  CYS622 
 ASP623  PHE694  ASN695  SER759  ASP760  ASP761  ALA762  ILE779  LEU786  VAL792 
 PHE793  MET794  SER795  GLU796  ALA797  LYS798  CYS799  TRP800  GLU811  SER814 

> <Gold.Protein.RotatedAtoms>
  151.7731  135.0781  160.0362 H   0  0  0  0  0  0  0  0  0  0  0  0  # atno 6907 bound_to 6896
  152.3275  133.5917  159.5795 H   0  0  0  0  0  0  0  0  0  0  0  0  # atno 6908 bound_to 6896
  150.7403  133.9835  159.3625 H   0  0  0  0  0  0  0  0  0  0  0  0  # atno 6909 bound_to 6896
  145.1291  139.3339  143.4674 H   0  0  0  0  0  0  0  0  0  0  0  0  # atno 7974 bound_to 7965
  156.1102  140.3229  155.8062 H   0  0  0  0  0  0  0  0  0  0  0  0  # atno 8008 bound_to 7997
  155.4686  140.0545  157.2999 H   0  0  0  0  0  0  0  0  0  0  0  0  # atno 8009 bound_to 7997
  154.4755  140.2030  155.9904 H   0  0  0  0  0  0  0  0  0  0  0  0  # atno 8010 bound_to 7997
  139.4870  144.5652  151.7157 H   0  0  0  0  0  0  0  0  0  0  0  0  # atno 10167 bound_to 10162
  157.2735  130.7220  149.6517 H   0  0  0  0  0  0  0  0  0  0  0  0  # atno 10718 bound_to 10713
  152.9835  135.6060  154.3331 H   0  0  0  0  0  0  0  0  0  0  0  0  # atno 10763 bound_to 10752
  154.3033  135.2772  155.2602 H   0  0  0  0  0  0  0  0  0  0  0  0  # atno 10764 bound_to 10752
  154.4845  135.5908  153.6469 H   0  0  0  0  0  0  0  0  0  0  0  0  # atno 10765 bound_to 10752
  140.4255  134.6566  157.4686 H   0  0  0  0  0  0  0  0  0  0  0  0  # atno 11005 bound_to 11000
  146.3515  140.1283  142.8598 LP  0  0  0  0  0  0  0  0  0  0  0  0  # atno 17320 bound_to 7965
  145.0655  140.9118  143.4913 LP  0  0  0  0  0  0  0  0  0  0  0  0  # atno 17321 bound_to 7965
  140.5229  144.0850  150.6028 LP  0  0  0  0  0  0  0  0  0  0  0  0  # atno 17342 bound_to 10162
  140.3814  143.2800  152.0165 LP  0  0  0  0  0  0  0  0  0  0  0  0  # atno 17343 bound_to 10162
  155.9663  130.4360  150.5115 LP  0  0  0  0  0  0  0  0  0  0  0  0  # atno 17370 bound_to 10713
  157.3045  131.0651  151.2045 LP  0  0  0  0  0  0  0  0  0  0  0  0  # atno 17371 bound_to 10713
  140.0170  134.6604  155.9295 LP  0  0  0  0  0  0  0  0  0  0  0  0  # atno 17394 bound_to 11000
  141.1767  133.6541  156.4855 LP  0  0  0  0  0  0  0  0  0  0  0  0  # atno 17395 bound_to 11000

$$$$
