AV-unprocessed.smi:1793|AV-procd|sdf|7228|dock8
  -GOLD-   22720 8473D 1   1.00000     0.00000
 Structure written by MMmdl.
 47 49  0  0  0  0  0  0  0  0  2 V2000
  155.1651  139.8763  162.7450 C   0  0  0  0  0  0  0  0  0  0  0  0
  155.1485  139.1882  161.3690 C   0  0  2  0  0  0  0  0  0  0  0  0
  154.0837  139.7567  160.5469 N   0  0  0  0  0  0  0  0  0  0  0  0
  153.7742  141.0581  160.4680 C   0  0  0  0  0  0  0  0  0  0  0  0
  154.3396  141.9363  161.1191 O   0  0  0  0  0  0  0  0  0  0  0  0
  152.7908  141.2683  159.5775 N   0  0  0  0  0  0  0  0  0  0  0  0
  152.2284  142.5103  159.1683 C   0  0  0  0  0  0  0  0  0  0  0  0
  152.5384  143.7167  159.8474 C   0  0  0  0  0  0  0  0  0  0  0  0
  151.9860  144.9339  159.4069 C   0  0  0  0  0  0  0  0  0  0  0  0
  151.1268  144.9273  158.2951 C   0  0  0  0  0  0  0  0  0  0  0  0
  150.8344  143.7612  157.6834 N   0  3  0  0  0  0  0  0  0  0  0  0
  151.3224  142.5553  158.0686 C   0  0  0  0  0  0  0  0  0  0  0  0
  150.9159  141.4168  157.3353 N   0  0  0  0  0  0  0  0  0  0  0  0
  151.9069  140.5001  156.7835 C   0  0  0  0  0  0  0  0  0  0  0  0
  151.1342  139.6278  155.7980 C   0  0  0  0  0  0  0  0  0  0  0  0
  150.1058  140.6027  155.2326 C   0  0  0  0  0  0  0  0  0  0  0  0
  149.7869  141.5222  156.4163 C   0  0  0  0  0  0  0  0  0  0  0  0
  154.9367  137.6663  161.4798 C   0  0  2  0  0  0  0  0  0  0  0  0
  153.8362  137.2401  162.4559 C   0  0  0  0  0  0  0  0  0  0  0  0
  154.2938  135.8793  162.9630 C   0  0  0  0  0  0  0  0  0  0  0  0
  155.7079  135.7250  162.4014 C   0  0  0  0  0  0  0  0  0  0  0  0
  156.0872  137.0402  162.0285 O   0  0  0  0  0  0  0  0  0  0  0  0
  155.9730  139.4947  163.3696 H   0  0  0  0  0  0  0  0  0  0  0  0
  154.2280  139.7173  163.2797 H   0  0  0  0  0  0  0  0  0  0  0  0
  155.3141  140.9522  162.6472 H   0  0  0  0  0  0  0  0  0  0  0  0
  156.1084  139.3634  160.8793 H   0  0  0  0  0  0  0  0  0  0  0  0
  153.5677  139.1083  159.9705 H   0  0  0  0  0  0  0  0  0  0  0  0
  152.4926  140.4602  159.0513 H   0  0  0  0  0  0  0  0  0  0  0  0
  153.1911  143.7272  160.7074 H   0  0  0  0  0  0  0  0  0  0  0  0
  152.2208  145.8582  159.9143 H   0  0  0  0  0  0  0  0  0  0  0  0
  150.6601  145.8109  157.8839 H   0  0  0  0  0  0  0  0  0  0  0  0
  152.6831  141.0525  156.2522 H   0  0  0  0  0  0  0  0  0  0  0  0
  152.3797  139.9055  157.5658 H   0  0  0  0  0  0  0  0  0  0  0  0
  151.7709  139.1846  155.0319 H   0  0  0  0  0  0  0  0  0  0  0  0
  150.6280  138.8205  156.3294 H   0  0  0  0  0  0  0  0  0  0  0  0
  150.5576  141.1835  154.4272 H   0  0  0  0  0  0  0  0  0  0  0  0
  149.2220  140.1049  154.8325 H   0  0  0  0  0  0  0  0  0  0  0  0
  148.8880  141.1739  156.9255 H   0  0  0  0  0  0  0  0  0  0  0  0
  149.6174  142.5483  156.0866 H   0  0  0  0  0  0  0  0  0  0  0  0
  154.7430  137.2360  160.4951 H   0  0  0  0  0  0  0  0  0  0  0  0
  153.7763  137.9371  163.2930 H   0  0  0  0  0  0  0  0  0  0  0  0
  152.8552  137.2040  161.9816 H   0  0  0  0  0  0  0  0  0  0  0  0
  154.3015  135.8646  164.0536 H   0  0  0  0  0  0  0  0  0  0  0  0
  153.6444  135.0726  162.6213 H   0  0  0  0  0  0  0  0  0  0  0  0
  156.4042  135.2987  163.1238 H   0  0  0  0  0  0  0  0  0  0  0  0
  155.7027  135.0882  161.5154 H   0  0  0  0  0  0  0  0  0  0  0  0
  150.2001  143.7879  156.8851 H   0  0  0  0  0  0  0  0  0  0  0  0
  1  2  1  0  0  0  0
  1 23  1  0  0  0  0
  1 24  1  0  0  0  0
  1 25  1  0  0  0  0
  2  3  1  0  0  0  0
  2 18  1  0  0  0  0
  2 26  1  0  0  0  0
  3  4  1  0  0  0  0
  3 27  1  0  0  0  0
  4  5  2  0  0  0  0
  4  6  1  0  0  0  0
  6  7  1  0  0  0  0
  6 28  1  0  0  0  0
  7 12  1  0  0  0  0
  7  8  2  0  0  0  0
  8  9  1  0  0  0  0
  8 29  1  0  0  0  0
  9 10  2  0  0  0  0
  9 30  1  0  0  0  0
 10 11  1  0  0  0  0
 10 31  1  0  0  0  0
 11 12  2  0  0  0  0
 11 47  1  0  0  0  0
 12 13  1  0  0  0  0
 13 17  1  0  0  0  0
 13 14  1  0  0  0  0
 14 15  1  0  0  0  0
 14 32  1  0  0  0  0
 14 33  1  0  0  0  0
 15 16  1  0  0  0  0
 15 34  1  0  0  0  0
 15 35  1  0  0  0  0
 16 17  1  0  0  0  0
 16 36  1  0  0  0  0
 16 37  1  0  0  0  0
 17 38  1  0  0  0  0
 17 39  1  0  0  0  0
 18 22  1  0  0  0  0
 18 19  1  0  0  0  0
 18 40  1  0  0  0  0
 19 20  1  0  0  0  0
 19 41  1  0  0  0  0
 19 42  1  0  0  0  0
 20 21  1  0  0  0  0
 20 43  1  0  0  0  0
 20 44  1  0  0  0  0
 21 22  1  0  0  0  0
 21 45  1  0  0  0  0
 21 46  1  0  0  0  0
M  CHG  1  11   1
M  END
> <s_m_source_file>
AV-unprocessed.smi

> <i_m_source_file_index>
1793

> <i_lp_mmshare_version>
43012

> <i_f3d_flags>
0

> <s_epik_input>
TzFbQ0gyXVtDSDJdW0NIMl1bQ0BIXTFbQ0BIXShbQ0gzXSlbTkhdQyg9TylbTkhdYzJbY0hdW2NIXVtjSF1uYzJOM1tDSDJdW0NIMl1bQ0gyXVtDSDJdMw==

> <s_epik_cmdline>
J2VwaWtfcHl0aG9uJywgJy1waCcsICc3LjAnLCAnLXRuJywgJzgnLCAnLW1hJywgJzIwMCcsICctbWV0YWxfYmluZGluZycsICctaW1hZScsICc8aW5maWxlLm1hZT4nLCAnLW9tYWUnLCAnPG91dGZpbGUubWFlPic=

> <r_lp_tautomer_probability>
0.999994

> <r_epik_Ionization_Penalty>
1.11092

> <r_epik_Ionization_Penalty_Charging>
1.1109

> <r_epik_Ionization_Penalty_Neutral>
1.9363e-05

> <r_epik_State_Penalty>
1.16888

> <r_epik_Charging_Adjusted_Penalty>
2.27978

> <i_epik_Tot_Q>
1

> <i_epik_Tot_abs_Q>
1

> <r_epik_Metal_State_Penalty>
1.25472

> <b_epik_Metal_Only>
0

> <s_lp_Force_Field>
OPLS_2005

> <r_lp_Energy>
52.5047

> <b_lp_Chiralities_Consistent>
1

> <s_lp_Variant>
AV-unprocessed.smi:1793-5

> <Gold.Version>
5.8.1

> <Gold.Id.Protein>
6NUR|6NUR_protein|mol2

> <Gold.PLP.Fitness>
46.1939

> <Gold.PLP.PLP>
-41.0428

> <Gold.PLP.part.hbond>
-2.0000

> <Gold.PLP.part.metal>
0.0000

> <Gold.PLP.part.buried>
-3.4831

> <Gold.PLP.part.nonpolar>
-35.5323

> <Gold.PLP.part.repulsive>
0.1976

> <Gold.PLP.ligand.clash>
0.0000

> <Gold.PLP.ligand.torsion>
0.6425

> <Gold.PLP.Chemscore.Hbond>
2.0000

> <Gold.PLP.Chemscore.CHOScore>
0.0000

> <Gold.PLP.Chemscore.Metal>
0.0000

> <Gold.Chemscore.Hbonds>
donor molecule, donor type, donor heavy atom, donor atom, acceptor molecule, acceptor atom, score
      L1  H    11    47       P1  8028  2.00

> <Gold.PLP.Chemscore.Internal.Correction>
0.4360

> <Gold.Rescore>
     Score         DG    S(hbond)    S(metal)    S(lipo)     H(rot)  DE(clash)    DE(int)     intcor
     14.53     -18.21       0.97        0.00     111.41       1.38       0.31       3.37       ----

> <Gold.Chemscore.Fitness>
14.5312

> <Gold.Chemscore.DG>
-18.2140

> <Gold.Chemscore.ZeroCoef>
-5.4800

> <Gold.Chemscore.Hbond>
0.9678

> <Gold.Chemscore.Metal>
0.0000

> <Gold.Chemscore.Lipo>
111.4090

> <Gold.Chemscore.Internal_Hbond>
0.0000

> <Gold.Chemscore.DEClash>
0.3143

> <Gold.Chemscore.DEInternal>
3.3685

> <Gold.Chemscore.Rot>
1.3802

> <Gold.Chemscore.Internal.Correction>
   9.000000E+99

> <Gold.Chemscore.Hbonds>
donor molecule, donor type, donor heavy atom, donor atom, acceptor molecule, acceptor atom, score
      L1  H    11    47       P1  8028  0.91

> <Gold.Chemscore.Hbond.Weighted>
-3.2323

> <Gold.Chemscore.Metal.Weighted>
-0.0000

> <Gold.Chemscore.Lipo.Weighted>
-13.0348

> <Gold.Chemscore.Internal_Hbond.Weighted>
0.0000

> <Gold.Chemscore.DEClash.Weighted>
0.3143

> <Gold.Chemscore.DEInternal.Weighted>
3.3685

> <Gold.Chemscore.Rot.Weighted>
3.5332

> <Gold.Chemscore.Internal.Correction.Weighted>
   9.000000E+99

> <Gold.Protein.RotatedTorsions>
[ 6907 6896 6895 6894 ] final   -0.57 input  -60.11 | X-H torsion
[ 7974 7965 7964 7962 ] final  -54.03 input  175.53 | X-H torsion
[ 8008 7997 7996 7995 ] final   40.67 input   59.86 | X-H torsion
[ 10167 10162 10161 10158 ] final  107.17 input  -65.29 | X-H torsion
[ 10718 10713 10712 10709 ] final -143.52 input   66.30 | X-H torsion
[ 10763 10752 10751 10750 ] final  144.25 input  -60.55 | X-H torsion
[ 11005 11000 10999 10996 ] final -146.60 input  -57.11 | X-H torsion

> <Gold.Protein.ActiveResidues>
 VAL166  LYS551  ARG553  GLY616  TRP617  ASP618  TYR619  PRO620  LYS621  CYS622 
 ASP623  PHE694  ASN695  SER759  ASP760  ASP761  ALA762  ILE779  LEU786  VAL792 
 PHE793  MET794  SER795  GLU796  ALA797  LYS798  CYS799  TRP800  GLU811  SER814 

> <Gold.Protein.RotatedAtoms>
  151.5601  135.1065  159.9970 H   0  0  0  0  0  0  0  0  0  0  0  0  # atno 6907 bound_to 6896
  152.4450  133.7516  159.6707 H   0  0  0  0  0  0  0  0  0  0  0  0  # atno 6908 bound_to 6896
  150.8364  133.7939  159.3102 H   0  0  0  0  0  0  0  0  0  0  0  0  # atno 6909 bound_to 6896
  145.8902  140.8076  142.9795 H   0  0  0  0  0  0  0  0  0  0  0  0  # atno 7974 bound_to 7965
  155.2569  140.3356  155.4277 H   0  0  0  0  0  0  0  0  0  0  0  0  # atno 8008 bound_to 7997
  156.2191  140.1801  156.7562 H   0  0  0  0  0  0  0  0  0  0  0  0  # atno 8009 bound_to 7997
  154.5798  140.0655  156.9072 H   0  0  0  0  0  0  0  0  0  0  0  0  # atno 8010 bound_to 7997
  139.6948  144.7103  151.1285 H   0  0  0  0  0  0  0  0  0  0  0  0  # atno 10167 bound_to 10162
  156.3589  130.7728  151.1892 H   0  0  0  0  0  0  0  0  0  0  0  0  # atno 10718 bound_to 10713
  153.9858  135.2937  155.3416 H   0  0  0  0  0  0  0  0  0  0  0  0  # atno 10763 bound_to 10752
  154.7243  135.5096  153.8864 H   0  0  0  0  0  0  0  0  0  0  0  0  # atno 10764 bound_to 10752
  153.0833  135.6685  154.0116 H   0  0  0  0  0  0  0  0  0  0  0  0  # atno 10765 bound_to 10752
  140.7803  134.3086  157.5047 H   0  0  0  0  0  0  0  0  0  0  0  0  # atno 11005 bound_to 11000
  144.6730  140.1518  143.7429 LP  0  0  0  0  0  0  0  0  0  0  0  0  # atno 17320 bound_to 7965
  145.8918  139.2380  143.1545 LP  0  0  0  0  0  0  0  0  0  0  0  0  # atno 17321 bound_to 7965
  140.7693  143.5507  150.9208 LP  0  0  0  0  0  0  0  0  0  0  0  0  # atno 17342 bound_to 10162
  139.9186  143.6633  152.3101 LP  0  0  0  0  0  0  0  0  0  0  0  0  # atno 17343 bound_to 10162
  157.7471  131.0406  150.4604 LP  0  0  0  0  0  0  0  0  0  0  0  0  # atno 17370 bound_to 10713
  156.4812  130.4074  149.6461 LP  0  0  0  0  0  0  0  0  0  0  0  0  # atno 17371 bound_to 10713
  139.8743  134.9314  156.3528 LP  0  0  0  0  0  0  0  0  0  0  0  0  # atno 17394 bound_to 11000
  140.9488  133.7465  156.0244 LP  0  0  0  0  0  0  0  0  0  0  0  0  # atno 17395 bound_to 11000

$$$$
