AV-unprocessed.smi:34|AV-procd|sdf|218|dock8
  -GOLD-   2262015533D 1   1.00000     0.00000
 Structure written by MMmdl.
 55 59  0  0  0  0  0  0  0  0  1 V2000
  153.4056  140.3297  158.5800 O   0  0  0  0  0  0  0  0  0  0  0  0
  153.8118  140.9947  159.5334 C   0  0  0  0  0  0  0  0  0  0  0  0
  154.8987  140.5447  160.3848 N   0  0  0  0  0  0  0  0  0  0  0  0
  155.6535  139.4280  160.2587 C   0  0  0  0  0  0  0  0  0  0  0  0
  157.0035  139.4392  160.4118 N   0  0  0  0  0  0  0  0  0  0  0  0
  157.7044  138.3100  160.2764 C   0  0  0  0  0  0  0  0  0  0  0  0
  157.2611  137.0834  159.9957 N   0  0  0  0  0  0  0  0  0  0  0  0
  155.9054  137.0601  159.8424 C   0  0  0  0  0  0  0  0  0  0  0  0
  155.0395  138.1835  159.9608 C   0  0  0  0  0  0  0  0  0  0  0  0
  153.7254  137.7899  159.7471 N   0  0  0  0  0  0  0  0  0  0  0  0
  153.8136  136.5085  159.5145 C   0  0  0  0  0  0  0  0  0  0  0  0
  155.0868  135.9843  159.5531 N   0  0  0  0  0  0  0  0  0  0  0  0
  155.4786  134.5532  159.3288 C   0  0  1  0  0  0  0  0  0  0  0  0
  154.3344  133.7828  159.0895 O   0  0  0  0  0  0  0  0  0  0  0  0
  154.4027  133.1951  157.7918 C   0  0  2  0  0  0  0  0  0  0  0  0
  153.6388  131.8667  157.7692 C   0  0  0  0  0  0  0  0  0  0  0  0
  152.6918  131.8884  156.7138 O   0  0  0  0  0  0  0  0  0  0  0  0
  152.0762  130.7522  156.3337 C   0  0  0  0  0  0  0  0  0  0  0  0
  152.4192  129.6307  156.7135 O   0  0  0  0  0  0  0  0  0  0  0  0
  150.9327  130.9948  155.4072 C   0  0  0  0  0  0  0  0  0  0  0  0
  150.4953  132.3203  155.1773 C   0  0  0  0  0  0  0  0  0  0  0  0
  149.4208  132.5801  154.3043 C   0  0  0  0  0  0  0  0  0  0  0  0
  148.7698  131.5175  153.6512 C   0  0  0  0  0  0  0  0  0  0  0  0
  149.1939  130.1943  153.8730 C   0  0  0  0  0  0  0  0  0  0  0  0
  150.2684  129.9325  154.7454 C   0  0  0  0  0  0  0  0  0  0  0  0
  155.9037  133.0688  157.5485 C   0  0  1  0  0  0  0  0  0  0  0  0
  156.2384  132.8894  156.2694 F   0  0  0  0  0  0  0  0  0  0  0  0
  156.4321  134.3673  158.1301 C   0  0  1  0  0  0  0  0  0  0  0  0
  156.3750  135.4264  157.1884 O   0  0  0  0  0  0  0  0  0  0  0  0
  153.1514  142.2799  159.9378 C   0  0  0  0  0  0  0  0  0  0  0  0
  153.1264  142.6646  161.2972 C   0  0  0  0  0  0  0  0  0  0  0  0
  152.5011  143.8651  161.6866 C   0  0  0  0  0  0  0  0  0  0  0  0
  151.8875  144.6858  160.7214 C   0  0  0  0  0  0  0  0  0  0  0  0
  151.8954  144.3028  159.3668 C   0  0  0  0  0  0  0  0  0  0  0  0
  152.5211  143.1029  158.9761 C   0  0  0  0  0  0  0  0  0  0  0  0
  155.1185  141.1396  161.1702 H   0  0  0  0  0  0  0  0  0  0  0  0
  158.7716  138.4030  160.4124 H   0  0  0  0  0  0  0  0  0  0  0  0
  152.9426  135.9034  159.3087 H   0  0  0  0  0  0  0  0  0  0  0  0
  155.9219  134.2387  160.2743 H   0  0  0  0  0  0  0  0  0  0  0  0
  153.9661  133.8896  157.0731 H   0  0  0  0  0  0  0  0  0  0  0  0
  154.3277  131.0292  157.6496 H   0  0  0  0  0  0  0  0  0  0  0  0
  153.1142  131.7282  158.7155 H   0  0  0  0  0  0  0  0  0  0  0  0
  150.9801  133.1527  155.6668 H   0  0  0  0  0  0  0  0  0  0  0  0
  149.0967  133.5965  154.1357 H   0  0  0  0  0  0  0  0  0  0  0  0
  147.9463  131.7171  152.9813 H   0  0  0  0  0  0  0  0  0  0  0  0
  148.6946  129.3771  153.3736 H   0  0  0  0  0  0  0  0  0  0  0  0
  150.5677  128.9051  154.8936 H   0  0  0  0  0  0  0  0  0  0  0  0
  156.3044  132.2223  158.1079 H   0  0  0  0  0  0  0  0  0  0  0  0
  157.4584  134.2696  158.4852 H   0  0  0  0  0  0  0  0  0  0  0  0
  155.5974  135.3184  156.6623 H   0  0  0  0  0  0  0  0  0  0  0  0
  153.5937  142.0456  162.0496 H   0  0  0  0  0  0  0  0  0  0  0  0
  152.4922  144.1560  162.7266 H   0  0  0  0  0  0  0  0  0  0  0  0
  151.4084  145.6065  161.0202 H   0  0  0  0  0  0  0  0  0  0  0  0
  151.4193  144.9289  158.6267 H   0  0  0  0  0  0  0  0  0  0  0  0
  152.5083  142.8222  157.9327 H   0  0  0  0  0  0  0  0  0  0  0  0
  1  2  2  0  0  0  0
  2  3  1  0  0  0  0
  2 30  1  0  0  0  0
  3  4  1  0  0  0  0
  3 36  1  0  0  0  0
  4  9  1  0  0  0  0
  4  5  2  0  0  0  0
  5  6  1  0  0  0  0
  6  7  2  0  0  0  0
  6 37  1  0  0  0  0
  7  8  1  0  0  0  0
  8 12  1  0  0  0  0
  8  9  2  0  0  0  0
  9 10  1  0  0  0  0
 10 11  2  0  0  0  0
 11 12  1  0  0  0  0
 11 38  1  0  0  0  0
 12 13  1  0  0  0  0
 13 28  1  0  0  0  0
 13 14  1  0  0  0  0
 13 39  1  0  0  0  0
 14 15  1  0  0  0  0
 15 16  1  0  0  0  0
 15 26  1  0  0  0  0
 15 40  1  0  0  0  0
 16 17  1  0  0  0  0
 16 41  1  0  0  0  0
 16 42  1  0  0  0  0
 17 18  1  0  0  0  0
 18 19  2  0  0  0  0
 18 20  1  0  0  0  0
 20 25  1  0  0  0  0
 20 21  2  0  0  0  0
 21 22  1  0  0  0  0
 21 43  1  0  0  0  0
 22 23  2  0  0  0  0
 22 44  1  0  0  0  0
 23 24  1  0  0  0  0
 23 45  1  0  0  0  0
 24 25  2  0  0  0  0
 24 46  1  0  0  0  0
 25 47  1  0  0  0  0
 26 27  1  0  0  0  0
 26 28  1  0  0  0  0
 26 48  1  0  0  0  0
 28 29  1  0  0  0  0
 28 49  1  0  0  0  0
 29 50  1  0  0  0  0
 30 35  1  0  0  0  0
 30 31  2  0  0  0  0
 31 32  1  0  0  0  0
 31 51  1  0  0  0  0
 32 33  2  0  0  0  0
 32 52  1  0  0  0  0
 33 34  1  0  0  0  0
 33 53  1  0  0  0  0
 34 35  2  0  0  0  0
 34 54  1  0  0  0  0
 35 55  1  0  0  0  0
M  END
> <s_m_source_file>
AV-unprocessed.smi

> <i_m_source_file_index>
34

> <i_lp_mmshare_version>
43012

> <i_f3d_flags>
0

> <s_epik_input>
W2NIXTFbY0hdW2NIXVtjSF1bY0hdYzFDKD1PKVtOSF1jKG5bY0hdbjIpYyhjMjMpbltjSF1uM1tDQEBIXTRPW0NASF0oW0NAQEhdKEYpW0NASF00W09IXSlbQ0gyXU9DKD1PKWM1W2NIXVtjSF1bY0hdW2NIXVtjSF01

> <s_epik_cmdline>
J2VwaWtfcHl0aG9uJywgJy1waCcsICc3LjAnLCAnLXRuJywgJzgnLCAnLW1hJywgJzIwMCcsICctbWV0YWxfYmluZGluZycsICctaW1hZScsICc8aW5maWxlLm1hZT4nLCAnLW9tYWUnLCAnPG91dGZpbGUubWFlPic=

> <r_lp_tautomer_probability>
1

> <r_epik_Ionization_Penalty>
0.00257489

> <r_epik_Ionization_Penalty_Charging>
0

> <r_epik_Ionization_Penalty_Neutral>
0.00257489

> <r_epik_State_Penalty>
0.00519398

> <r_epik_Charging_Adjusted_Penalty>
0.00519398

> <i_epik_Tot_Q>
0

> <i_epik_Tot_abs_Q>
0

> <r_epik_Metal_State_Penalty>
0.335891

> <b_epik_Metal_Only>
0

> <s_epik_Chemistry_Notes>
This compound has an ester and may undergo hydrolysis at high or low pH. This compound contains an acetal/aminal-like group ( X-CH(R)-Y where X, Y are N, S, or O) that may be acid/base labile, releasing an aldehyde.

> <s_lp_Force_Field>
OPLS_2005

> <r_lp_Energy>
55.7216

> <b_lp_Chiralities_Consistent>
1

> <s_lp_Variant>
AV-unprocessed.smi:34-4

> <Gold.Version>
5.8.1

> <Gold.Id.Protein>
6NUR|6NUR_protein|mol2

> <Gold.PLP.Fitness>
53.4392

> <Gold.PLP.PLP>
-50.9310

> <Gold.PLP.part.hbond>
-2.0000

> <Gold.PLP.part.metal>
0.0000

> <Gold.PLP.part.buried>
-5.6335

> <Gold.PLP.part.nonpolar>
-42.5690

> <Gold.PLP.part.repulsive>
0.1169

> <Gold.PLP.ligand.clash>
0.0000

> <Gold.PLP.ligand.torsion>
1.6633

> <Gold.PLP.Chemscore.Hbond>
1.8640

> <Gold.PLP.Chemscore.CHOScore>
0.0000

> <Gold.PLP.Chemscore.Metal>
0.0000

> <Gold.Chemscore.Hbonds>
donor molecule, donor type, donor heavy atom, donor atom, acceptor molecule, acceptor atom, score
      P1  H  6896  6909       L1    14  1.00
      P1  H  7997  8009       L1     1  0.85

> <Gold.PLP.Chemscore.Internal.Correction>
0.2428

> <Gold.Rescore>
     Score         DG    S(hbond)    S(metal)    S(lipo)     H(rot)  DE(clash)    DE(int)     intcor
     14.34     -18.24       1.74        0.00     119.00       2.72       0.05       3.85       ----

> <Gold.Chemscore.Fitness>
14.3442

> <Gold.Chemscore.DG>
-18.2400

> <Gold.Chemscore.ZeroCoef>
-5.4800

> <Gold.Chemscore.Hbond>
1.7376

> <Gold.Chemscore.Metal>
0.0000

> <Gold.Chemscore.Lipo>
119.0047

> <Gold.Chemscore.Internal_Hbond>
0.0000

> <Gold.Chemscore.DEClash>
0.0484

> <Gold.Chemscore.DEInternal>
3.8475

> <Gold.Chemscore.Rot>
2.7215

> <Gold.Chemscore.Internal.Correction>
   9.000000E+99

> <Gold.Chemscore.Hbonds>
donor molecule, donor type, donor heavy atom, donor atom, acceptor molecule, acceptor atom, score
      P1  H  6896  6909       L1    14  0.93
      P1  H  7997  8009       L1     1  0.71

> <Gold.Chemscore.Hbond.Weighted>
-5.8035

> <Gold.Chemscore.Metal.Weighted>
-0.0000

> <Gold.Chemscore.Lipo.Weighted>
-13.9235

> <Gold.Chemscore.Internal_Hbond.Weighted>
0.0000

> <Gold.Chemscore.DEClash.Weighted>
0.0484

> <Gold.Chemscore.DEInternal.Weighted>
3.8475

> <Gold.Chemscore.Rot.Weighted>
6.9670

> <Gold.Chemscore.Internal.Correction.Weighted>
   9.000000E+99

> <Gold.Protein.RotatedTorsions>
[ 6907 6896 6895 6894 ] final -152.20 input  -60.11 | X-H torsion
[ 7974 7965 7964 7962 ] final  -34.29 input  175.53 | X-H torsion
[ 8008 7997 7996 7995 ] final  140.80 input   59.86 | X-H torsion
[ 10167 10162 10161 10158 ] final   36.01 input  -65.29 | X-H torsion
[ 10718 10713 10712 10709 ] final -156.35 input   66.30 | X-H torsion
[ 10763 10752 10751 10750 ] final -163.83 input  -60.55 | X-H torsion
[ 11005 11000 10999 10996 ] final  103.13 input  -57.11 | X-H torsion

> <Gold.Protein.ActiveResidues>
 VAL166  LYS551  ARG553  GLY616  TRP617  ASP618  TYR619  PRO620  LYS621  CYS622 
 ASP623  PHE694  ASN695  SER759  ASP760  ASP761  ALA762  ILE779  LEU786  VAL792 
 PHE793  MET794  SER795  GLU796  ALA797  LYS798  CYS799  TRP800  GLU811  SER814 

> <Gold.Protein.RotatedAtoms>
  151.2243  133.4485  159.2601 H   0  0  0  0  0  0  0  0  0  0  0  0  # atno 6907 bound_to 6896
  151.0854  134.9884  159.8387 H   0  0  0  0  0  0  0  0  0  0  0  0  # atno 6908 bound_to 6896
  152.5429  134.2180  159.8829 H   0  0  0  0  0  0  0  0  0  0  0  0  # atno 6909 bound_to 6896
  146.0841  140.6021  142.8894 H   0  0  0  0  0  0  0  0  0  0  0  0  # atno 7974 bound_to 7965
  156.2974  140.2332  156.4461 H   0  0  0  0  0  0  0  0  0  0  0  0  # atno 8008 bound_to 7997
  154.8143  140.0441  157.1386 H   0  0  0  0  0  0  0  0  0  0  0  0  # atno 8009 bound_to 7997
  154.9387  140.3026  155.5135 H   0  0  0  0  0  0  0  0  0  0  0  0  # atno 8010 bound_to 7997
  140.4168  144.1516  150.6144 H   0  0  0  0  0  0  0  0  0  0  0  0  # atno 10167 bound_to 10162
  156.5254  130.8497  151.2697 H   0  0  0  0  0  0  0  0  0  0  0  0  # atno 10718 bound_to 10713
  154.7085  135.3001  154.9233 H   0  0  0  0  0  0  0  0  0  0  0  0  # atno 10763 bound_to 10752
  154.0142  135.6691  153.4771 H   0  0  0  0  0  0  0  0  0  0  0  0  # atno 10764 bound_to 10752
  153.0736  135.5047  154.8270 H   0  0  0  0  0  0  0  0  0  0  0  0  # atno 10765 bound_to 10752
  139.8782  134.9251  156.5164 H   0  0  0  0  0  0  0  0  0  0  0  0  # atno 11005 bound_to 11000
  144.7313  140.4681  143.6935 LP  0  0  0  0  0  0  0  0  0  0  0  0  # atno 17320 bound_to 7965
  145.6163  139.1519  143.3048 LP  0  0  0  0  0  0  0  0  0  0  0  0  # atno 17321 bound_to 7965
  140.4577  143.2461  151.9262 LP  0  0  0  0  0  0  0  0  0  0  0  0  # atno 17342 bound_to 10162
  139.4782  144.5498  151.8402 LP  0  0  0  0  0  0  0  0  0  0  0  0  # atno 17343 bound_to 10162
  157.7430  130.9903  150.2561 LP  0  0  0  0  0  0  0  0  0  0  0  0  # atno 17370 bound_to 10713
  156.3110  130.3772  149.7662 LP  0  0  0  0  0  0  0  0  0  0  0  0  # atno 17371 bound_to 10713
  140.8483  133.8152  155.9143 LP  0  0  0  0  0  0  0  0  0  0  0  0  # atno 17394 bound_to 11000
  140.9170  134.2190  157.4951 LP  0  0  0  0  0  0  0  0  0  0  0  0  # atno 17395 bound_to 11000

$$$$
