AV-unprocessed.smi:2041|AV-procd|sdf|8292|dock4
  -GOLD-   2272010553D 1   1.00000     0.00000
 Structure written by MMmdl.
 30 31  0  0  0  0  0  0  0  0  2 V2000
  150.8668  138.8399  156.7089 O   0  0  0  0  0  0  0  0  0  0  0  0
  151.4275  139.8997  156.9979 C   0  0  0  0  0  0  0  0  0  0  0  0
  152.6153  140.0317  157.6317 N   0  5  0  0  0  0  0  0  0  0  0  0
  152.7292  140.8632  158.6802 C   0  0  0  0  0  0  0  0  0  0  0  0
  151.8393  141.8261  158.9473 N   0  0  0  0  0  0  0  0  0  0  0  0
  152.1482  142.5659  160.0902 C   0  0  0  0  0  0  0  0  0  0  0  0
  153.2963  142.1521  160.7120 C   0  0  0  0  0  0  0  0  0  0  0  0
  154.0280  140.8125  159.8757 S   0  0  0  0  0  0  0  0  0  0  0  0
  150.8540  141.0699  156.6778 N   0  0  0  0  0  0  0  0  0  0  0  0
  149.5694  141.2498  155.9976 C   0  0  2  0  0  0  0  0  0  0  0  0
  148.5003  140.4374  156.7710 C   0  0  0  0  0  0  0  0  0  0  0  0
  147.1755  140.1575  156.0261 C   0  0  0  0  0  0  0  0  0  0  0  0
  146.5837  141.3607  155.2640 C   0  0  0  0  0  0  0  0  0  0  0  0
  147.4567  141.9684  154.1352 C   0  0  0  0  0  0  0  0  0  0  0  0
  148.5967  141.1463  153.7293 N   0  0  0  0  0  0  0  0  0  0  0  0
  149.6188  140.7859  154.5243 C   0  0  0  0  0  0  0  0  0  0  0  0
  150.5412  140.0887  154.1036 O   0  0  0  0  0  0  0  0  0  0  0  0
  151.4931  143.3707  160.3891 H   0  0  0  0  0  0  0  0  0  0  0  0
  153.7534  142.5490  161.6056 H   0  0  0  0  0  0  0  0  0  0  0  0
  151.3482  141.9097  156.9408 H   0  0  0  0  0  0  0  0  0  0  0  0
  149.3119  142.3091  156.0357 H   0  0  0  0  0  0  0  0  0  0  0  0
  148.9169  139.4776  157.0810 H   0  0  0  0  0  0  0  0  0  0  0  0
  148.2757  140.9702  157.6956 H   0  0  0  0  0  0  0  0  0  0  0  0
  147.3151  139.3278  155.3317 H   0  0  0  0  0  0  0  0  0  0  0  0
  146.4413  139.7988  156.7478 H   0  0  0  0  0  0  0  0  0  0  0  0
  145.6371  141.0409  154.8266 H   0  0  0  0  0  0  0  0  0  0  0  0
  146.3223  142.1459  155.9741 H   0  0  0  0  0  0  0  0  0  0  0  0
  146.8390  142.1494  153.2552 H   0  0  0  0  0  0  0  0  0  0  0  0
  147.8237  142.9507  154.4356 H   0  0  0  0  0  0  0  0  0  0  0  0
  148.6179  140.8362  152.7687 H   0  0  0  0  0  0  0  0  0  0  0  0
  1  2  2  0  0  0  0
  2  3  1  0  0  0  0
  2  9  1  0  0  0  0
  3  4  1  0  0  0  0
  4  8  1  0  0  0  0
  4  5  2  0  0  0  0
  5  6  1  0  0  0  0
  6  7  2  0  0  0  0
  6 18  1  0  0  0  0
  7  8  1  0  0  0  0
  7 19  1  0  0  0  0
  9 10  1  0  0  0  0
  9 20  1  0  0  0  0
 10 16  1  0  0  0  0
 10 11  1  0  0  0  0
 10 21  1  0  0  0  0
 11 12  1  0  0  0  0
 11 22  1  0  0  0  0
 11 23  1  0  0  0  0
 12 13  1  0  0  0  0
 12 24  1  0  0  0  0
 12 25  1  0  0  0  0
 13 14  1  0  0  0  0
 13 26  1  0  0  0  0
 13 27  1  0  0  0  0
 14 15  1  0  0  0  0
 14 28  1  0  0  0  0
 14 29  1  0  0  0  0
 15 16  1  0  0  0  0
 15 30  1  0  0  0  0
 16 17  2  0  0  0  0
M  CHG  1   3  -1
M  END
> <s_m_source_file>
AV-unprocessed.smi

> <i_m_source_file_index>
2041

> <i_lp_mmshare_version>
43012

> <i_f3d_flags>
0

> <s_epik_input>
czFbY0hdW2NIXW5jMVtOSF1DKD1PKVtOSF1bQ0BASF0yW0NIMl1bQ0gyXVtDSDJdW0NIMl1bTkhdQzI9Tw==

> <s_epik_cmdline>
J2VwaWtfcHl0aG9uJywgJy1waCcsICc3LjAnLCAnLXRuJywgJzgnLCAnLW1hJywgJzIwMCcsICctbWV0YWxfYmluZGluZycsICctaW1hZScsICc8aW5maWxlLm1hZT4nLCAnLW9tYWUnLCAnPG91dGZpbGUubWFlPic=

> <r_lp_tautomer_probability>
1

> <r_epik_Ionization_Penalty>
7.83857

> <r_epik_Ionization_Penalty_Charging>
6.39911

> <r_epik_Ionization_Penalty_Neutral>
1.43945

> <r_epik_State_Penalty>
6.3991

> <r_epik_Charging_Adjusted_Penalty>
12.7982

> <i_epik_Tot_Q>
-1

> <i_epik_Tot_abs_Q>
1

> <r_epik_Metal_State_Penalty>
2.33024

> <b_epik_Metal_Only>
1

> <s_lp_Force_Field>
OPLS_2005

> <r_lp_Energy>
11.6521

> <b_lp_Chiralities_Consistent>
1

> <s_lp_Variant>
AV-unprocessed.smi:2041-3

> <Gold.Version>
5.8.1

> <Gold.Id.Protein>
6NUR|6NUR_protein|mol2

> <Gold.PLP.Fitness>
38.9594

> <Gold.PLP.PLP>
-28.1004

> <Gold.PLP.part.hbond>
-2.8790

> <Gold.PLP.part.metal>
0.0000

> <Gold.PLP.part.buried>
-3.6904

> <Gold.PLP.part.nonpolar>
-21.7526

> <Gold.PLP.part.repulsive>
0.7016

> <Gold.PLP.ligand.clash>
0.0000

> <Gold.PLP.ligand.torsion>
0.5592

> <Gold.PLP.Chemscore.Hbond>
3.9913

> <Gold.PLP.Chemscore.CHOScore>
0.0000

> <Gold.PLP.Chemscore.Metal>
0.0000

> <Gold.Chemscore.Hbonds>
donor molecule, donor type, donor heavy atom, donor atom, acceptor molecule, acceptor atom, score
      L1  H    15    30       P1  7957  0.98
      P1  H  7989  7998       L1    17  0.84
      P1  H  7997  8009       L1     3  2.00

> <Gold.PLP.Chemscore.Internal.Correction>
0.0037

> <Gold.Rescore>
     Score         DG    S(hbond)    S(metal)    S(lipo)     H(rot)  DE(clash)    DE(int)     intcor
     12.84     -17.07       2.60        0.00      46.61       1.00       0.01       4.22       ----

> <Gold.Chemscore.Fitness>
12.8353

> <Gold.Chemscore.DG>
-17.0680

> <Gold.Chemscore.ZeroCoef>
-5.4800

> <Gold.Chemscore.Hbond>
2.6032

> <Gold.Chemscore.Metal>
0.0000

> <Gold.Chemscore.Lipo>
46.6101

> <Gold.Chemscore.Internal_Hbond>
0.0000

> <Gold.Chemscore.DEClash>
0.0137

> <Gold.Chemscore.DEInternal>
4.2191

> <Gold.Chemscore.Rot>
1.0000

> <Gold.Chemscore.Internal.Correction>
   9.000000E+99

> <Gold.Chemscore.Hbonds>
donor molecule, donor type, donor heavy atom, donor atom, acceptor molecule, acceptor atom, score
      L1  H    15    30       P1  7957  0.88
      P1  H  7989  7998       L1    17  0.69
      P1  H  7997  8009       L1     3  0.50

> <Gold.Chemscore.Hbond.Weighted>
-8.6947

> <Gold.Chemscore.Metal.Weighted>
-0.0000

> <Gold.Chemscore.Lipo.Weighted>
-5.4534

> <Gold.Chemscore.Internal_Hbond.Weighted>
0.0000

> <Gold.Chemscore.DEClash.Weighted>
0.0137

> <Gold.Chemscore.DEInternal.Weighted>
4.2191

> <Gold.Chemscore.Rot.Weighted>
2.5600

> <Gold.Chemscore.Internal.Correction.Weighted>
   9.000000E+99

> <Gold.Protein.RotatedTorsions>
[ 6907 6896 6895 6894 ] final   54.12 input  -60.11 | X-H torsion
[ 7974 7965 7964 7962 ] final  -53.70 input  175.53 | X-H torsion
[ 8008 7997 7996 7995 ] final -179.65 input   59.86 | X-H torsion
[ 10167 10162 10161 10158 ] final    2.09 input  -65.29 | X-H torsion
[ 10718 10713 10712 10709 ] final -172.74 input   66.30 | X-H torsion
[ 10763 10752 10751 10750 ] final -147.99 input  -60.55 | X-H torsion
[ 11005 11000 10999 10996 ] final  -20.13 input  -57.11 | X-H torsion

> <Gold.Protein.ActiveResidues>
 VAL166  LYS551  ARG553  GLY616  TRP617  ASP618  TYR619  PRO620  LYS621  CYS622 
 ASP623  PHE694  ASN695  SER759  ASP760  ASP761  ALA762  ILE779  LEU786  VAL792 
 PHE793  MET794  SER795  GLU796  ALA797  LYS798  CYS799  TRP800  GLU811  SER814 

> <Gold.Protein.RotatedAtoms>
  152.3407  134.7139  160.0264 H   0  0  0  0  0  0  0  0  0  0  0  0  # atno 6907 bound_to 6896
  151.7525  133.3323  159.3403 H   0  0  0  0  0  0  0  0  0  0  0  0  # atno 6908 bound_to 6896
  150.7478  134.6112  159.6131 H   0  0  0  0  0  0  0  0  0  0  0  0  # atno 6909 bound_to 6896
  145.8939  140.8049  142.9778 H   0  0  0  0  0  0  0  0  0  0  0  0  # atno 7974 bound_to 7965
  156.0329  140.1286  157.0239 H   0  0  0  0  0  0  0  0  0  0  0  0  # atno 8008 bound_to 7997
  154.4357  140.1046  156.6196 H   0  0  0  0  0  0  0  0  0  0  0  0  # atno 8009 bound_to 7997
  155.5780  140.3467  155.4535 H   0  0  0  0  0  0  0  0  0  0  0  0  # atno 8010 bound_to 7997
  140.6652  143.7199  150.7813 H   0  0  0  0  0  0  0  0  0  0  0  0  # atno 10167 bound_to 10162
  156.7600  130.9410  151.3117 H   0  0  0  0  0  0  0  0  0  0  0  0  # atno 10718 bound_to 10713
  154.8257  135.3346  154.6905 H   0  0  0  0  0  0  0  0  0  0  0  0  # atno 10763 bound_to 10752
  153.7531  135.6938  153.4946 H   0  0  0  0  0  0  0  0  0  0  0  0  # atno 10764 bound_to 10752
  153.2162  135.4464  155.0387 H   0  0  0  0  0  0  0  0  0  0  0  0  # atno 10765 bound_to 10752
  140.8435  133.7909  155.9886 H   0  0  0  0  0  0  0  0  0  0  0  0  # atno 11005 bound_to 11000
  144.6732  140.1572  143.7425 LP  0  0  0  0  0  0  0  0  0  0  0  0  # atno 17320 bound_to 7965
  145.8875  139.2357  143.1569 LP  0  0  0  0  0  0  0  0  0  0  0  0  # atno 17321 bound_to 7965
  140.0875  143.4910  152.2497 LP  0  0  0  0  0  0  0  0  0  0  0  0  # atno 17342 bound_to 10162
  139.5898  144.7545  151.3429 LP  0  0  0  0  0  0  0  0  0  0  0  0  # atno 17343 bound_to 10162
  157.6739  130.9076  150.0104 LP  0  0  0  0  0  0  0  0  0  0  0  0  # atno 17370 bound_to 10713
  156.1345  130.3643  149.9679 LP  0  0  0  0  0  0  0  0  0  0  0  0  # atno 17371 bound_to 10713
  140.8869  134.2542  157.5115 LP  0  0  0  0  0  0  0  0  0  0  0  0  # atno 17394 bound_to 11000
  139.8703  134.9643  156.4489 LP  0  0  0  0  0  0  0  0  0  0  0  0  # atno 17395 bound_to 11000

$$$$
