AV-unprocessed.smi:3068|AV-procd|sdf|11708|dock10
  -GOLD-   2272017113D 1   1.00000     0.00000
 Structure written by MMmdl.
 39 41  0  0  0  0  0  0  0  0  1 V2000
  150.8418  139.8419  154.8112 N   0  0  0  0  0  0  0  0  0  0  0  0
  149.7401  140.1708  154.9421 C   0  0  0  0  0  0  0  0  0  0  0  0
  148.3522  140.5845  155.1067 C   0  0  0  0  0  0  0  0  0  0  0  0
  147.4237  139.8819  154.4172 N   0  0  0  0  0  0  0  0  0  0  0  0
  146.1341  140.2539  154.5611 C   0  0  0  0  0  0  0  0  0  0  0  0
  145.7652  141.3284  155.3933 C   0  0  0  0  0  0  0  0  0  0  0  0
  146.6846  142.0353  156.0834 N   0  0  0  0  0  0  0  0  0  0  0  0
  147.9848  141.6712  155.9500 C   0  0  0  0  0  0  0  0  0  0  0  0
  148.9561  142.4005  156.6610 N   0  0  0  0  0  0  0  0  0  0  0  0
  149.9335  141.7428  157.5205 C   0  0  0  0  0  0  0  0  0  0  0  0
  151.3515  142.3320  157.3597 C   0  0  2  0  0  0  0  0  0  0  0  0
  152.3467  141.7841  158.4001 C   0  0  0  0  0  0  0  0  0  0  0  0
  152.1088  142.3063  159.7403 N   0  0  0  0  0  0  0  0  0  0  0  0
  153.0855  141.7773  160.6916 C   0  0  0  0  0  0  0  0  0  0  0  0
  152.8448  142.2821  162.1226 C   0  0  0  0  0  0  0  0  0  0  0  0
  152.8551  143.8167  162.1526 C   0  0  0  0  0  0  0  0  0  0  0  0
  151.8643  144.3692  161.1167 C   0  0  0  0  0  0  0  0  0  0  0  0
  152.1314  143.7714  159.7191 C   0  0  2  0  0  0  0  0  0  0  0  0
  151.1184  144.3237  158.6969 C   0  0  0  0  0  0  0  0  0  0  0  0
  151.3502  143.7603  157.4082 O   0  0  0  0  0  0  0  0  0  0  0  0
  145.3937  139.6930  154.0102 H   0  0  0  0  0  0  0  0  0  0  0  0
  144.7317  141.6213  155.5050 H   0  0  0  0  0  0  0  0  0  0  0  0
  149.1134  143.3688  156.4207 H   0  0  0  0  0  0  0  0  0  0  0  0
  149.5947  141.8274  158.5524 H   0  0  0  0  0  0  0  0  0  0  0  0
  149.9458  140.6738  157.3061 H   0  0  0  0  0  0  0  0  0  0  0  0
  151.7259  142.0524  156.3747 H   0  0  0  0  0  0  0  0  0  0  0  0
  152.3009  140.6944  158.4114 H   0  0  0  0  0  0  0  0  0  0  0  0
  153.3587  142.0442  158.0858 H   0  0  0  0  0  0  0  0  0  0  0  0
  153.0460  140.6874  160.6888 H   0  0  0  0  0  0  0  0  0  0  0  0
  154.0940  142.0496  160.3765 H   0  0  0  0  0  0  0  0  0  0  0  0
  151.8851  141.9116  162.4852 H   0  0  0  0  0  0  0  0  0  0  0  0
  153.6069  141.8870  162.7947 H   0  0  0  0  0  0  0  0  0  0  0  0
  152.6038  144.1789  163.1499 H   0  0  0  0  0  0  0  0  0  0  0  0
  153.8588  144.1812  161.9299 H   0  0  0  0  0  0  0  0  0  0  0  0
  150.8457  144.1352  161.4296 H   0  0  0  0  0  0  0  0  0  0  0  0
  151.9358  145.4568  161.0822 H   0  0  0  0  0  0  0  0  0  0  0  0
  153.1247  144.0965  159.4038 H   0  0  0  0  0  0  0  0  0  0  0  0
  150.0946  144.1255  159.0154 H   0  0  0  0  0  0  0  0  0  0  0  0
  151.2134  145.4070  158.6194 H   0  0  0  0  0  0  0  0  0  0  0  0
  1  2  3  0  0  0  0
  2  3  1  0  0  0  0
  3  8  1  0  0  0  0
  3  4  2  0  0  0  0
  4  5  1  0  0  0  0
  5  6  2  0  0  0  0
  5 21  1  0  0  0  0
  6  7  1  0  0  0  0
  6 22  1  0  0  0  0
  7  8  2  0  0  0  0
  8  9  1  0  0  0  0
  9 10  1  0  0  0  0
  9 23  1  0  0  0  0
 10 11  1  0  0  0  0
 10 24  1  0  0  0  0
 10 25  1  0  0  0  0
 11 20  1  0  0  0  0
 11 12  1  0  0  0  0
 11 26  1  0  0  0  0
 12 13  1  0  0  0  0
 12 27  1  0  0  0  0
 12 28  1  0  0  0  0
 13 18  1  0  0  0  0
 13 14  1  0  0  0  0
 14 15  1  0  0  0  0
 14 29  1  0  0  0  0
 14 30  1  0  0  0  0
 15 16  1  0  0  0  0
 15 31  1  0  0  0  0
 15 32  1  0  0  0  0
 16 17  1  0  0  0  0
 16 33  1  0  0  0  0
 16 34  1  0  0  0  0
 17 18  1  0  0  0  0
 17 35  1  0  0  0  0
 17 36  1  0  0  0  0
 18 19  1  0  0  0  0
 18 37  1  0  0  0  0
 19 20  1  0  0  0  0
 19 38  1  0  0  0  0
 19 39  1  0  0  0  0
M  END
> <s_m_source_file>
AV-unprocessed.smi

> <i_m_source_file_index>
3068

> <i_lp_mmshare_version>
43012

> <i_f3d_flags>
0

> <s_epik_input>
TiNDYzFuW2NIXVtjSF1uYzFbTkhdW0NIMl1bQ0BIXShbQ0gyXTIpT1tDSDJdW0NAQEhdKE4yMylbQ0gyXVtDSDJdW0NIMl1bQ0gyXTM=

> <s_epik_cmdline>
J2VwaWtfcHl0aG9uJywgJy1waCcsICc3LjAnLCAnLXRuJywgJzgnLCAnLW1hJywgJzIwMCcsICctbWV0YWxfYmluZGluZycsICctaW1hZScsICc8aW5maWxlLm1hZT4nLCAnLW9tYWUnLCAnPG91dGZpbGUubWFlPic=

> <r_epik_Ionization_Penalty>
1.22359

> <r_epik_Ionization_Penalty_Charging>
0

> <r_epik_Ionization_Penalty_Neutral>
1.22359

> <r_epik_State_Penalty>
1.29103

> <r_epik_Charging_Adjusted_Penalty>
1.29103

> <i_epik_Tot_Q>
0

> <i_epik_Tot_abs_Q>
0

> <r_epik_Metal_State_Penalty>
1.29103

> <b_epik_Metal_Only>
0

> <s_lp_Force_Field>
OPLS_2005

> <r_lp_Energy>
49.2937

> <b_lp_Chiralities_Consistent>
1

> <s_lp_Variant>
AV-unprocessed.smi:3068-11

> <Gold.Version>
5.8.1

> <Gold.Id.Protein>
6NUR|6NUR_protein|mol2

> <Gold.PLP.Fitness>
44.7232

> <Gold.PLP.PLP>
-37.0807

> <Gold.PLP.part.hbond>
-1.7142

> <Gold.PLP.part.metal>
0.0000

> <Gold.PLP.part.buried>
-4.9085

> <Gold.PLP.part.nonpolar>
-29.5835

> <Gold.PLP.part.repulsive>
0.5060

> <Gold.PLP.ligand.clash>
0.0000

> <Gold.PLP.ligand.torsion>
0.6437

> <Gold.PLP.Chemscore.Hbond>
1.9750

> <Gold.PLP.Chemscore.CHOScore>
1.0000

> <Gold.PLP.Chemscore.Metal>
0.0000

> <Gold.Chemscore.Hbonds>
donor molecule, donor type, donor heavy atom, donor atom, acceptor molecule, acceptor atom, score
      L1  H     9    23       P1  8028  1.00
      P1  H  7989  7998       L1     1  1.00
      L1  C     5    21       P1 10175  0.99

> <Gold.PLP.Chemscore.Internal.Correction>
0.0048

> <Gold.Rescore>
     Score         DG    S(hbond)    S(metal)    S(lipo)     H(rot)  DE(clash)    DE(int)     intcor
     19.46     -20.43       1.92        0.00     101.32       1.30       0.16       0.80       ----

> <Gold.Chemscore.Fitness>
19.4634

> <Gold.Chemscore.DG>
-20.4262

> <Gold.Chemscore.ZeroCoef>
-5.4800

> <Gold.Chemscore.Hbond>
1.9235

> <Gold.Chemscore.Metal>
0.0000

> <Gold.Chemscore.Lipo>
101.3218

> <Gold.Chemscore.Internal_Hbond>
0.0000

> <Gold.Chemscore.DEClash>
0.1581

> <Gold.Chemscore.DEInternal>
0.8047

> <Gold.Chemscore.Rot>
1.3019

> <Gold.Chemscore.Internal.Correction>
   9.000000E+99

> <Gold.Chemscore.Hbonds>
donor molecule, donor type, donor heavy atom, donor atom, acceptor molecule, acceptor atom, score
      L1  H     9    23       P1  8028  0.95
      P1  H  7989  7998       L1     1  0.70

> <Gold.Chemscore.Hbond.Weighted>
-6.4243

> <Gold.Chemscore.Metal.Weighted>
-0.0000

> <Gold.Chemscore.Lipo.Weighted>
-11.8546

> <Gold.Chemscore.Internal_Hbond.Weighted>
0.0000

> <Gold.Chemscore.DEClash.Weighted>
0.1581

> <Gold.Chemscore.DEInternal.Weighted>
0.8047

> <Gold.Chemscore.Rot.Weighted>
3.3327

> <Gold.Chemscore.Internal.Correction.Weighted>
   9.000000E+99

> <Gold.Protein.RotatedTorsions>
[ 6907 6896 6895 6894 ] final  -20.90 input  -60.11 | X-H torsion
[ 7974 7965 7964 7962 ] final  135.36 input  175.53 | X-H torsion
[ 8008 7997 7996 7995 ] final   15.37 input   59.86 | X-H torsion
[ 10167 10162 10161 10158 ] final -107.06 input  -65.29 | X-H torsion
[ 10718 10713 10712 10709 ] final  160.42 input   66.30 | X-H torsion
[ 10763 10752 10751 10750 ] final  135.63 input  -60.55 | X-H torsion
[ 11005 11000 10999 10996 ] final  180.00 input  -57.11 | X-H torsion

> <Gold.Protein.ActiveResidues>
 VAL166  LYS551  ARG553  GLY616  TRP617  ASP618  TYR619  PRO620  LYS621  CYS622 
 ASP623  PHE694  ASN695  SER759  ASP760  ASP761  ALA762  ILE779  LEU786  VAL792 
 PHE793  MET794  SER795  GLU796  ALA797  LYS798  CYS799  TRP800  GLU811  SER814 

> <Gold.Protein.RotatedAtoms>
  151.2413  135.0590  159.9025 H   0  0  0  0  0  0  0  0  0  0  0  0  # atno 6907 bound_to 6896
  152.5393  134.0431  159.8087 H   0  0  0  0  0  0  0  0  0  0  0  0  # atno 6908 bound_to 6896
  151.0626  133.5483  159.2664 H   0  0  0  0  0  0  0  0  0  0  0  0  # atno 6909 bound_to 6896
  144.9671  139.4646  143.5451 H   0  0  0  0  0  0  0  0  0  0  0  0  # atno 7974 bound_to 7965
  154.8617  140.2945  155.5535 H   0  0  0  0  0  0  0  0  0  0  0  0  # atno 8008 bound_to 7997
  156.3020  140.2477  156.3525 H   0  0  0  0  0  0  0  0  0  0  0  0  # atno 8009 bound_to 7997
  154.8911  140.0394  157.1828 H   0  0  0  0  0  0  0  0  0  0  0  0  # atno 8010 bound_to 7997
  140.1810  143.3967  152.1281 H   0  0  0  0  0  0  0  0  0  0  0  0  # atno 10167 bound_to 10162
  157.1506  131.0563  151.2282 H   0  0  0  0  0  0  0  0  0  0  0  0  # atno 10718 bound_to 10713
  153.8432  135.3089  155.3427 H   0  0  0  0  0  0  0  0  0  0  0  0  # atno 10763 bound_to 10752
  154.7923  135.4775  154.0085 H   0  0  0  0  0  0  0  0  0  0  0  0  # atno 10764 bound_to 10752
  153.1563  135.6852  153.8900 H   0  0  0  0  0  0  0  0  0  0  0  0  # atno 10765 bound_to 10752
  140.4124  134.6680  157.4621 H   0  0  0  0  0  0  0  0  0  0  0  0  # atno 11005 bound_to 11000
  146.3371  139.8859  142.8817 LP  0  0  0  0  0  0  0  0  0  0  0  0  # atno 17320 bound_to 7965
  145.2614  141.0078  143.3824 LP  0  0  0  0  0  0  0  0  0  0  0  0  # atno 17321 bound_to 7965
  139.5296  144.7144  151.5103 LP  0  0  0  0  0  0  0  0  0  0  0  0  # atno 17342 bound_to 10162
  140.6519  143.8678  150.6795 LP  0  0  0  0  0  0  0  0  0  0  0  0  # atno 17343 bound_to 10162
  157.4224  130.7445  149.6924 LP  0  0  0  0  0  0  0  0  0  0  0  0  # atno 17370 bound_to 10713
  155.9771  130.4067  150.3733 LP  0  0  0  0  0  0  0  0  0  0  0  0  # atno 17371 bound_to 10713
  140.0258  134.6479  155.9175 LP  0  0  0  0  0  0  0  0  0  0  0  0  # atno 17394 bound_to 11000
  141.1816  133.6547  156.5043 LP  0  0  0  0  0  0  0  0  0  0  0  0  # atno 17395 bound_to 11000

$$$$
