AV-unprocessed.smi:3348|AV-procd|sdf|12920|dock2
  -GOLD-   2272019343D 1   1.00000     0.00000
 Structure written by MMmdl.
 47 48  0  0  0  0  0  0  0  0  2 V2000
  152.2534  139.1411  155.4166 C   0  0  0  0  0  0  0  0  0  0  0  0
  150.8984  139.8543  155.5136 C   0  0  1  0  0  0  0  0  0  0  0  0
  149.9675  139.4391  154.3566 C   0  0  0  0  0  0  0  0  0  0  0  0
  148.7361  140.2089  154.3280 N   0  0  0  0  0  0  0  0  0  0  0  0
  148.5737  141.5717  154.4619 C   0  0  0  0  0  0  0  0  0  0  0  0
  147.2357  141.8307  154.3782 C   0  0  0  0  0  0  0  0  0  0  0  0
  146.6529  140.5466  154.1885 C   0  0  0  0  0  0  0  0  0  0  0  0
  147.5534  139.5773  154.1605 N   0  0  0  0  0  0  0  0  0  0  0  0
  150.2746  139.5538  156.8216 N   0  3  0  0  0  0  0  0  0  0  0  0
  150.1502  140.7116  157.7306 C   0  0  0  0  0  0  0  0  0  0  0  0
  151.4981  141.0453  158.3747 C   0  0  0  0  0  0  0  0  0  0  0  0
  151.4208  142.3443  158.9407 O   0  0  0  0  0  0  0  0  0  0  0  0
  152.6824  142.9707  159.1474 C   0  0  2  0  0  0  0  0  0  0  0  0
  153.5145  142.0580  160.0672 C   0  0  0  0  0  0  0  0  0  0  0  0
  152.9128  141.9625  161.4794 C   0  0  0  0  0  0  0  0  0  0  0  0
  152.7285  143.3546  162.1013 C   0  0  0  0  0  0  0  0  0  0  0  0
  151.8839  144.2634  161.1941 C   0  0  0  0  0  0  0  0  0  0  0  0
  152.4872  144.3696  159.7793 C   0  0  2  0  0  0  0  0  0  0  0  0
  151.6722  145.3157  158.8841 C   0  0  0  0  0  0  0  0  0  0  0  0
  152.7509  139.3696  154.4736 H   0  0  0  0  0  0  0  0  0  0  0  0
  152.1391  138.0581  155.4778 H   0  0  0  0  0  0  0  0  0  0  0  0
  152.9192  139.4522  156.2224 H   0  0  0  0  0  0  0  0  0  0  0  0
  151.0872  140.9269  155.4380 H   0  0  0  0  0  0  0  0  0  0  0  0
  150.4734  139.5821  153.4007 H   0  0  0  0  0  0  0  0  0  0  0  0
  149.7212  138.3778  154.4198 H   0  0  0  0  0  0  0  0  0  0  0  0
  149.4135  142.2360  154.6049 H   0  0  0  0  0  0  0  0  0  0  0  0
  146.7471  142.7916  154.4413 H   0  0  0  0  0  0  0  0  0  0  0  0
  145.6098  140.2919  154.0720 H   0  0  0  0  0  0  0  0  0  0  0  0
  149.3516  139.1802  156.6502 H   0  0  0  0  0  0  0  0  0  0  0  0
  149.7673  141.5727  157.1817 H   0  0  0  0  0  0  0  0  0  0  0  0
  149.4259  140.4761  158.5113 H   0  0  0  0  0  0  0  0  0  0  0  0
  151.7229  140.3208  159.1585 H   0  0  0  0  0  0  0  0  0  0  0  0
  152.2968  140.9855  157.6340 H   0  0  0  0  0  0  0  0  0  0  0  0
  153.2224  143.0769  158.2042 H   0  0  0  0  0  0  0  0  0  0  0  0
  153.5968  141.0626  159.6295 H   0  0  0  0  0  0  0  0  0  0  0  0
  154.5313  142.4465  160.1362 H   0  0  0  0  0  0  0  0  0  0  0  0
  151.9502  141.4514  161.4358 H   0  0  0  0  0  0  0  0  0  0  0  0
  153.5556  141.3541  162.1160 H   0  0  0  0  0  0  0  0  0  0  0  0
  152.2562  143.2648  163.0799 H   0  0  0  0  0  0  0  0  0  0  0  0
  153.7045  143.8113  162.2698 H   0  0  0  0  0  0  0  0  0  0  0  0
  150.8655  143.8767  161.1359 H   0  0  0  0  0  0  0  0  0  0  0  0
  151.8108  145.2548  161.6425 H   0  0  0  0  0  0  0  0  0  0  0  0
  153.4780  144.8147  159.8836 H   0  0  0  0  0  0  0  0  0  0  0  0
  150.6490  144.9623  158.7551 H   0  0  0  0  0  0  0  0  0  0  0  0
  152.1236  145.4082  157.8961 H   0  0  0  0  0  0  0  0  0  0  0  0
  151.6226  146.3153  159.3165 H   0  0  0  0  0  0  0  0  0  0  0  0
  150.8251  138.8462  157.2870 H   0  0  0  0  0  0  0  0  0  0  0  0
  1  2  1  0  0  0  0
  1 20  1  0  0  0  0
  1 21  1  0  0  0  0
  1 22  1  0  0  0  0
  2  3  1  0  0  0  0
  2  9  1  0  0  0  0
  2 23  1  0  0  0  0
  3  4  1  0  0  0  0
  3 24  1  0  0  0  0
  3 25  1  0  0  0  0
  4  8  1  0  0  0  0
  4  5  1  0  0  0  0
  5  6  2  0  0  0  0
  5 26  1  0  0  0  0
  6  7  1  0  0  0  0
  6 27  1  0  0  0  0
  7  8  2  0  0  0  0
  7 28  1  0  0  0  0
  9 10  1  0  0  0  0
  9 29  1  0  0  0  0
  9 47  1  0  0  0  0
 10 11  1  0  0  0  0
 10 30  1  0  0  0  0
 10 31  1  0  0  0  0
 11 12  1  0  0  0  0
 11 32  1  0  0  0  0
 11 33  1  0  0  0  0
 12 13  1  0  0  0  0
 13 18  1  0  0  0  0
 13 14  1  0  0  0  0
 13 34  1  0  0  0  0
 14 15  1  0  0  0  0
 14 35  1  0  0  0  0
 14 36  1  0  0  0  0
 15 16  1  0  0  0  0
 15 37  1  0  0  0  0
 15 38  1  0  0  0  0
 16 17  1  0  0  0  0
 16 39  1  0  0  0  0
 16 40  1  0  0  0  0
 17 18  1  0  0  0  0
 17 41  1  0  0  0  0
 17 42  1  0  0  0  0
 18 19  1  0  0  0  0
 18 43  1  0  0  0  0
 19 44  1  0  0  0  0
 19 45  1  0  0  0  0
 19 46  1  0  0  0  0
M  CHG  1   9   1
M  END
> <s_m_source_file>
AV-unprocessed.smi

> <i_m_source_file_index>
3348

> <i_lp_mmshare_version>
43012

> <i_f3d_flags>
0

> <s_epik_input>
bjFbY0hdW2NIXVtjSF1uMVtDSDJdW0NAQEhdKFtDSDNdKVtOSF1bQ0gyXVtDSDJdT1tDQEBIXTJbQ0gyXVtDSDJdW0NIMl1bQ0gyXVtDQEhdMltDSDNd

> <s_epik_cmdline>
J2VwaWtfcHl0aG9uJywgJy1waCcsICc3LjAnLCAnLXRuJywgJzgnLCAnLW1hJywgJzIwMCcsICctbWV0YWxfYmluZGluZycsICctaW1hZScsICc8aW5maWxlLm1hZT4nLCAnLW9tYWUnLCAnPG91dGZpbGUubWFlPic=

> <r_lp_tautomer_probability>
1

> <r_epik_Ionization_Penalty>
0.00925088

> <r_epik_Ionization_Penalty_Charging>
0.00924645

> <r_epik_Ionization_Penalty_Neutral>
4.42413e-06

> <r_epik_State_Penalty>
0.0070118

> <r_epik_Charging_Adjusted_Penalty>
0.0162583

> <i_epik_Tot_Q>
1

> <i_epik_Tot_abs_Q>
1

> <r_epik_Metal_State_Penalty>
0.00701222

> <b_epik_Metal_Only>
0

> <s_lp_Force_Field>
OPLS_2005

> <r_lp_Energy>
18.0188

> <b_lp_Chiralities_Consistent>
1

> <s_lp_Variant>
AV-unprocessed.smi:3348-6

> <Gold.Version>
5.8.1

> <Gold.Id.Protein>
6NUR|6NUR_protein|mol2

> <Gold.PLP.Fitness>
51.9453

> <Gold.PLP.PLP>
-48.8731

> <Gold.PLP.part.hbond>
0.0000

> <Gold.PLP.part.metal>
0.0000

> <Gold.PLP.part.buried>
-4.3504

> <Gold.PLP.part.nonpolar>
-44.7780

> <Gold.PLP.part.repulsive>
0.1524

> <Gold.PLP.ligand.clash>
0.0000

> <Gold.PLP.ligand.torsion>
1.1538

> <Gold.PLP.Chemscore.Hbond>
0.0000

> <Gold.PLP.Chemscore.CHOScore>
1.7306

> <Gold.PLP.Chemscore.Metal>
0.0000

> <Gold.Chemscore.Hbonds>
donor molecule, donor type, donor heavy atom, donor atom, acceptor molecule, acceptor atom, score
      L1  C     5    26       P1  8028  0.36
      L1  C     7    28       P1 10175  1.00

> <Gold.PLP.Chemscore.Internal.Correction>
0.1880

> <Gold.Rescore>
     Score         DG    S(hbond)    S(metal)    S(lipo)     H(rot)  DE(clash)    DE(int)     intcor
     16.17     -17.28       0.00        0.00     140.60       1.82       0.13       0.98       ----

> <Gold.Chemscore.Fitness>
16.1704

> <Gold.Chemscore.DG>
-17.2803

> <Gold.Chemscore.ZeroCoef>
-5.4800

> <Gold.Chemscore.Hbond>
0.0000

> <Gold.Chemscore.Metal>
0.0000

> <Gold.Chemscore.Lipo>
140.5987

> <Gold.Chemscore.Internal_Hbond>
0.0000

> <Gold.Chemscore.DEClash>
0.1284

> <Gold.Chemscore.DEInternal>
0.9815

> <Gold.Chemscore.Rot>
1.8163

> <Gold.Chemscore.Internal.Correction>
   9.000000E+99

> <Gold.Chemscore.Hbond.Weighted>
-0.0000

> <Gold.Chemscore.Metal.Weighted>
-0.0000

> <Gold.Chemscore.Lipo.Weighted>
-16.4500

> <Gold.Chemscore.Internal_Hbond.Weighted>
0.0000

> <Gold.Chemscore.DEClash.Weighted>
0.1284

> <Gold.Chemscore.DEInternal.Weighted>
0.9815

> <Gold.Chemscore.Rot.Weighted>
4.6497

> <Gold.Chemscore.Internal.Correction.Weighted>
   9.000000E+99

> <Gold.Protein.RotatedTorsions>
[ 6907 6896 6895 6894 ] final   -8.13 input  -60.11 | X-H torsion
[ 7974 7965 7964 7962 ] final  -54.22 input  175.53 | X-H torsion
[ 8008 7997 7996 7995 ] final -179.37 input   59.86 | X-H torsion
[ 10167 10162 10161 10158 ] final -134.20 input  -65.29 | X-H torsion
[ 10718 10713 10712 10709 ] final  -79.82 input   66.30 | X-H torsion
[ 10763 10752 10751 10750 ] final  -61.41 input  -60.55 | X-H torsion
[ 11005 11000 10999 10996 ] final  -49.90 input  -57.11 | X-H torsion

> <Gold.Protein.ActiveResidues>
 VAL166  LYS551  ARG553  GLY616  TRP617  ASP618  TYR619  PRO620  LYS621  CYS622 
 ASP623  PHE694  ASN695  SER759  ASP760  ASP761  ALA762  ILE779  LEU786  VAL792 
 PHE793  MET794  SER795  GLU796  ALA797  LYS798  CYS799  TRP800  GLU811  SER814 

> <Gold.Protein.RotatedAtoms>
  151.4386  135.1018  159.9663 H   0  0  0  0  0  0  0  0  0  0  0  0  # atno 6907 bound_to 6896
  152.4931  133.8550  159.7231 H   0  0  0  0  0  0  0  0  0  0  0  0  # atno 6908 bound_to 6896
  150.9104  133.6946  159.2884 H   0  0  0  0  0  0  0  0  0  0  0  0  # atno 6909 bound_to 6896
  145.8880  140.8093  142.9806 H   0  0  0  0  0  0  0  0  0  0  0  0  # atno 7974 bound_to 7965
  156.0297  140.1279  157.0271 H   0  0  0  0  0  0  0  0  0  0  0  0  # atno 8008 bound_to 7997
  154.4345  140.1052  156.6152 H   0  0  0  0  0  0  0  0  0  0  0  0  # atno 8009 bound_to 7997
  155.5825  140.3468  155.4546 H   0  0  0  0  0  0  0  0  0  0  0  0  # atno 8010 bound_to 7997
  139.8905  143.6728  152.2613 H   0  0  0  0  0  0  0  0  0  0  0  0  # atno 10167 bound_to 10162
  156.0084  130.4556  150.3706 H   0  0  0  0  0  0  0  0  0  0  0  0  # atno 10718 bound_to 10713
  154.2841  135.6266  153.5359 H   0  0  0  0  0  0  0  0  0  0  0  0  # atno 10763 bound_to 10752
  152.9861  135.5640  154.5462 H   0  0  0  0  0  0  0  0  0  0  0  0  # atno 10764 bound_to 10752
  154.5059  135.2874  155.1358 H   0  0  0  0  0  0  0  0  0  0  0  0  # atno 10765 bound_to 10752
  141.0785  133.6659  156.3652 H   0  0  0  0  0  0  0  0  0  0  0  0  # atno 11005 bound_to 11000
  144.6729  140.1486  143.7432 LP  0  0  0  0  0  0  0  0  0  0  0  0  # atno 17320 bound_to 7965
  145.8943  139.2393  143.1531 LP  0  0  0  0  0  0  0  0  0  0  0  0  # atno 17321 bound_to 7965
  139.7114  144.7619  151.1106 LP  0  0  0  0  0  0  0  0  0  0  0  0  # atno 17342 bound_to 10162
  140.7727  143.5326  150.9405 LP  0  0  0  0  0  0  0  0  0  0  0  0  # atno 17343 bound_to 10162
  157.1791  131.0387  151.2757 LP  0  0  0  0  0  0  0  0  0  0  0  0  # atno 17370 bound_to 10713
  157.4162  130.7412  149.6877 LP  0  0  0  0  0  0  0  0  0  0  0  0  # atno 17371 bound_to 10713
  140.5520  134.6018  157.5410 LP  0  0  0  0  0  0  0  0  0  0  0  0  # atno 17394 bound_to 11000
  139.9598  134.7472  156.0261 LP  0  0  0  0  0  0  0  0  0  0  0  0  # atno 17395 bound_to 11000

$$$$
