AV-unprocessed.smi:1749|AV-procd|sdf|7044|dock3
  -GOLD-   22720 8263D 1   1.00000     0.00000
 Structure written by MMmdl.
 32 33  0  0  0  0  0  0  0  0  1 V2000
  145.9610  129.4191  151.7812 C   0  0  0  0  0  0  0  0  0  0  0  0
  145.5428  130.8940  151.7044 C   0  0  2  0  0  0  0  0  0  0  0  0
  145.7358  131.4611  150.2848 C   0  0  0  0  0  0  0  0  0  0  0  0
  145.3222  132.9391  150.2040 C   0  0  0  0  0  0  0  0  0  0  0  0
  146.0775  133.7899  151.2400 C   0  0  0  0  0  0  0  0  0  0  0  0
  145.9132  133.2426  152.6709 C   0  0  1  0  0  0  0  0  0  0  0  0
  144.5407  133.4423  153.1292 N   0  0  0  0  0  0  0  0  0  0  0  0
  143.8175  134.5660  152.9966 C   0  0  0  0  0  0  0  0  0  0  0  0
  144.2317  135.5596  152.4022 O   0  0  0  0  0  0  0  0  0  0  0  0
  142.5876  134.5474  153.5524 N   0  0  0  0  0  0  0  0  0  0  0  0
  141.5664  135.5406  153.6054 C   0  0  0  0  0  0  0  0  0  0  0  0
  140.3169  135.3211  154.0479 N   0  0  0  0  0  0  0  0  0  0  0  0
  139.5396  136.4704  154.0121 N   0  0  0  0  0  0  0  0  0  0  0  0
  140.2344  137.5168  153.5578 C   0  0  0  0  0  0  0  0  0  0  0  0
  141.9063  137.1986  153.1289 S   0  0  0  0  0  0  0  0  0  0  0  0
  146.3070  131.7510  152.7358 C   0  0  0  0  0  0  0  0  0  0  0  0
  147.0196  129.2943  151.5518 H   0  0  0  0  0  0  0  0  0  0  0  0
  145.3932  128.8129  151.0749 H   0  0  0  0  0  0  0  0  0  0  0  0
  145.7857  129.0133  152.7778 H   0  0  0  0  0  0  0  0  0  0  0  0
  144.4791  130.9409  151.9431 H   0  0  0  0  0  0  0  0  0  0  0  0
  146.7802  131.3604  149.9864 H   0  0  0  0  0  0  0  0  0  0  0  0
  145.1534  130.8802  149.5688 H   0  0  0  0  0  0  0  0  0  0  0  0
  145.5138  133.3221  149.2015 H   0  0  0  0  0  0  0  0  0  0  0  0
  144.2471  133.0274  150.3650 H   0  0  0  0  0  0  0  0  0  0  0  0
  147.1373  133.8036  150.9830 H   0  0  0  0  0  0  0  0  0  0  0  0
  145.7403  134.8261  151.1902 H   0  0  0  0  0  0  0  0  0  0  0  0
  146.5780  133.8099  153.3248 H   0  0  0  0  0  0  0  0  0  0  0  0
  144.1176  132.6719  153.6270 H   0  0  0  0  0  0  0  0  0  0  0  0
  142.3177  133.6547  153.9391 H   0  0  0  0  0  0  0  0  0  0  0  0
  139.7603  138.4838  153.4778 H   0  0  0  0  0  0  0  0  0  0  0  0
  146.1411  131.3632  153.7418 H   0  0  0  0  0  0  0  0  0  0  0  0
  147.3788  131.6606  152.5538 H   0  0  0  0  0  0  0  0  0  0  0  0
  1  2  1  0  0  0  0
  1 17  1  0  0  0  0
  1 18  1  0  0  0  0
  1 19  1  0  0  0  0
  2 16  1  0  0  0  0
  2  3  1  0  0  0  0
  2 20  1  0  0  0  0
  3  4  1  0  0  0  0
  3 21  1  0  0  0  0
  3 22  1  0  0  0  0
  4  5  1  0  0  0  0
  4 23  1  0  0  0  0
  4 24  1  0  0  0  0
  5  6  1  0  0  0  0
  5 25  1  0  0  0  0
  5 26  1  0  0  0  0
  6  7  1  0  0  0  0
  6 16  1  0  0  0  0
  6 27  1  0  0  0  0
  7  8  1  0  0  0  0
  7 28  1  0  0  0  0
  8  9  2  0  0  0  0
  8 10  1  0  0  0  0
 10 11  1  0  0  0  0
 10 29  1  0  0  0  0
 11 15  1  0  0  0  0
 11 12  2  0  0  0  0
 12 13  1  0  0  0  0
 13 14  2  0  0  0  0
 14 15  1  0  0  0  0
 14 30  1  0  0  0  0
 16 31  1  0  0  0  0
 16 32  1  0  0  0  0
M  END
> <s_m_source_file>
AV-unprocessed.smi

> <i_m_source_file_index>
1749

> <i_lp_mmshare_version>
43012

> <i_f3d_flags>
0

> <s_epik_input>
W0NIM11bQ0BASF0xW0NIMl1bQ0gyXVtDSDJdW0NASF0oW0NIMl0xKVtOSF1DKD1PKVtOSF1jMm5uW2NIXXMy

> <s_epik_cmdline>
J2VwaWtfcHl0aG9uJywgJy1waCcsICc3LjAnLCAnLXRuJywgJzgnLCAnLW1hJywgJzIwMCcsICctbWV0YWxfYmluZGluZycsICctaW1hZScsICc8aW5maWxlLm1hZT4nLCAnLW9tYWUnLCAnPG91dGZpbGUubWFlPic=

> <r_lp_tautomer_probability>
1

> <r_epik_Ionization_Penalty>
0.000318591

> <r_epik_Ionization_Penalty_Charging>
0

> <r_epik_Ionization_Penalty_Neutral>
0.000318591

> <r_epik_State_Penalty>
-0

> <r_epik_Charging_Adjusted_Penalty>
0

> <i_epik_Tot_Q>
0

> <i_epik_Tot_abs_Q>
0

> <r_epik_Metal_State_Penalty>
0.169791

> <b_epik_Metal_Only>
0

> <s_lp_Force_Field>
OPLS_2005

> <r_lp_Energy>
10.2552

> <b_lp_Chiralities_Consistent>
1

> <s_lp_Variant>
AV-unprocessed.smi:1749-1

> <Gold.Version>
5.8.1

> <Gold.Id.Protein>
6NUR|6NUR_protein|mol2

> <Gold.PLP.Fitness>
38.0135

> <Gold.PLP.PLP>
-29.6770

> <Gold.PLP.part.hbond>
-3.9696

> <Gold.PLP.part.metal>
0.0000

> <Gold.PLP.part.buried>
-6.8956

> <Gold.PLP.part.nonpolar>
-20.0314

> <Gold.PLP.part.repulsive>
0.3997

> <Gold.PLP.ligand.clash>
0.0000

> <Gold.PLP.ligand.torsion>
0.1752

> <Gold.PLP.Chemscore.Hbond>
2.8938

> <Gold.PLP.Chemscore.CHOScore>
0.0000

> <Gold.PLP.Chemscore.Metal>
0.0000

> <Gold.Chemscore.Hbonds>
donor molecule, donor type, donor heavy atom, donor atom, acceptor molecule, acceptor atom, score
      L1  H     7    28       P1 10957  0.94
      L1  H    10    29       P1 10957  0.86
      P1  H 11000 11005       L1    12  1.00

> <Gold.PLP.Chemscore.Internal.Correction>
0.0056

> <Gold.Rescore>
     Score         DG    S(hbond)    S(metal)    S(lipo)     H(rot)  DE(clash)    DE(int)     intcor
     16.08     -18.88       2.51        0.00      64.83       1.00       0.00       2.80       ----

> <Gold.Chemscore.Fitness>
16.0788

> <Gold.Chemscore.DG>
-18.8831

> <Gold.Chemscore.ZeroCoef>
-5.4800

> <Gold.Chemscore.Hbond>
2.5083

> <Gold.Chemscore.Metal>
0.0000

> <Gold.Chemscore.Lipo>
64.8317

> <Gold.Chemscore.Internal_Hbond>
0.0000

> <Gold.Chemscore.DEClash>
0.0009

> <Gold.Chemscore.DEInternal>
2.8034

> <Gold.Chemscore.Rot>
1.0000

> <Gold.Chemscore.Internal.Correction>
   9.000000E+99

> <Gold.Chemscore.Hbonds>
donor molecule, donor type, donor heavy atom, donor atom, acceptor molecule, acceptor atom, score
      L1  H     7    28       P1 10957  0.49
      L1  H    10    29       P1 10957  0.83
      P1  H 11000 11005       L1    12  0.74

> <Gold.Chemscore.Hbond.Weighted>
-8.3778

> <Gold.Chemscore.Metal.Weighted>
-0.0000

> <Gold.Chemscore.Lipo.Weighted>
-7.5853

> <Gold.Chemscore.Internal_Hbond.Weighted>
0.0000

> <Gold.Chemscore.DEClash.Weighted>
0.0009

> <Gold.Chemscore.DEInternal.Weighted>
2.8034

> <Gold.Chemscore.Rot.Weighted>
2.5600

> <Gold.Chemscore.Internal.Correction.Weighted>
   9.000000E+99

> <Gold.Protein.RotatedTorsions>
[ 6907 6896 6895 6894 ] final  169.05 input  -60.11 | X-H torsion
[ 7974 7965 7964 7962 ] final  -43.36 input  175.53 | X-H torsion
[ 8008 7997 7996 7995 ] final -171.97 input   59.86 | X-H torsion
[ 10167 10162 10161 10158 ] final   84.85 input  -65.29 | X-H torsion
[ 10718 10713 10712 10709 ] final  174.11 input   66.30 | X-H torsion
[ 10763 10752 10751 10750 ] final -159.64 input  -60.55 | X-H torsion
[ 11005 11000 10999 10996 ] final   39.55 input  -57.11 | X-H torsion

> <Gold.Protein.ActiveResidues>
 VAL166  LYS551  ARG553  GLY616  TRP617  ASP618  TYR619  PRO620  LYS621  CYS622 
 ASP623  PHE694  ASN695  SER759  ASP760  ASP761  ALA762  ILE779  LEU786  VAL792 
 PHE793  MET794  SER795  GLU796  ALA797  LYS798  CYS799  TRP800  GLU811  SER814 

> <Gold.Protein.RotatedAtoms>
  151.8380  133.3419  159.3633 H   0  0  0  0  0  0  0  0  0  0  0  0  # atno 6907 bound_to 6896
  150.7244  134.5419  159.5761 H   0  0  0  0  0  0  0  0  0  0  0  0  # atno 6908 bound_to 6896
  152.2886  134.7748  160.0433 H   0  0  0  0  0  0  0  0  0  0  0  0  # atno 6909 bound_to 6896
  146.0026  140.7056  142.9263 H   0  0  0  0  0  0  0  0  0  0  0  0  # atno 7974 bound_to 7965
  155.9385  140.1104  157.1075 H   0  0  0  0  0  0  0  0  0  0  0  0  # atno 8008 bound_to 7997
  154.4084  140.1223  156.4962 H   0  0  0  0  0  0  0  0  0  0  0  0  # atno 8009 bound_to 7997
  155.6991  140.3472  155.4928 H   0  0  0  0  0  0  0  0  0  0  0  0  # atno 8010 bound_to 7997
  139.9038  144.6313  150.8609 H   0  0  0  0  0  0  0  0  0  0  0  0  # atno 10167 bound_to 10162
  156.9545  131.0041  151.2941 H   0  0  0  0  0  0  0  0  0  0  0  0  # atno 10718 bound_to 10713
  154.7457  135.3079  154.8648 H   0  0  0  0  0  0  0  0  0  0  0  0  # atno 10763 bound_to 10752
  153.9450  135.6770  153.4748 H   0  0  0  0  0  0  0  0  0  0  0  0  # atno 10764 bound_to 10752
  153.1054  135.4892  154.8868 H   0  0  0  0  0  0  0  0  0  0  0  0  # atno 10765 bound_to 10752
  140.2017  134.3863  155.8093 H   0  0  0  0  0  0  0  0  0  0  0  0  # atno 11005 bound_to 11000
  144.6925  140.3260  143.7224 LP  0  0  0  0  0  0  0  0  0  0  0  0  # atno 17320 bound_to 7965
  145.7464  139.1780  143.2347 LP  0  0  0  0  0  0  0  0  0  0  0  0  # atno 17321 bound_to 7965
  140.7701  143.3417  151.2195 LP  0  0  0  0  0  0  0  0  0  0  0  0  # atno 17342 bound_to 10162
  139.7002  143.9546  152.2902 LP  0  0  0  0  0  0  0  0  0  0  0  0  # atno 17343 bound_to 10162
  157.5700  130.8304  149.8378 LP  0  0  0  0  0  0  0  0  0  0  0  0  # atno 17370 bound_to 10713
  156.0348  130.3754  150.1588 LP  0  0  0  0  0  0  0  0  0  0  0  0  # atno 17371 bound_to 10713
  141.2227  133.7097  156.8268 LP  0  0  0  0  0  0  0  0  0  0  0  0  # atno 17394 bound_to 11000
  140.2047  134.8871  157.3208 LP  0  0  0  0  0  0  0  0  0  0  0  0  # atno 17395 bound_to 11000

$$$$
