AV-unprocessed.smi:3030|AV-procd|sdf|11538|dock4
  -GOLD-   2272016483D 1   1.00000     0.00000
 Structure written by MMmdl.
 52 53  0  0  0  0  0  0  0  0  1 V2000
  141.3915  145.0705  160.3794 C   0  0  0  0  0  0  0  0  0  0  0  0
  142.4283  144.8554  159.2714 C   0  0  0  0  0  0  0  0  0  0  0  0
  143.7246  144.4729  159.8123 N   0  0  0  0  0  0  0  0  0  0  0  0
  143.9207  144.3243  161.1814 C   0  0  0  0  0  0  0  0  0  0  0  0
  145.1080  144.0319  161.7462 C   0  0  0  0  0  0  0  0  0  0  0  0
  146.2952  143.8567  160.8853 C   0  0  0  0  0  0  0  0  0  0  0  0
  147.3954  143.5885  161.3682 O   0  0  0  0  0  0  0  0  0  0  0  0
  146.0873  144.0209  159.4219 C   0  0  0  0  0  0  0  0  0  0  0  0
  147.2205  143.8426  158.6113 N   0  0  0  0  0  0  0  0  0  0  0  0
  148.0847  142.8125  158.5634 C   0  0  0  0  0  0  0  0  0  0  0  0
  148.0208  141.7824  159.2336 O   0  0  0  0  0  0  0  0  0  0  0  0
  149.0512  143.0474  157.6649 N   0  0  0  0  0  0  0  0  0  0  0  0
  150.1625  142.1501  157.3545 C   0  0  1  0  0  0  0  0  0  0  0  0
  151.1066  142.0767  158.5721 C   0  0  0  0  0  0  0  0  0  0  0  0
  152.2832  141.1146  158.3340 C   0  0  1  0  0  0  0  0  0  0  0  0
  153.2144  141.0539  159.5535 C   0  0  0  0  0  0  0  0  0  0  0  0
  151.7567  139.7201  157.9561 C   0  0  0  0  0  0  0  0  0  0  0  0
  150.8310  139.7815  156.7319 C   0  0  0  0  0  0  0  0  0  0  0  0
  149.6395  140.7428  156.9555 C   0  0  2  0  0  0  0  0  0  0  0  0
  148.6295  140.7584  155.7684 C   0  0  0  0  0  0  0  0  0  0  0  0
  148.0700  139.3600  155.4548 C   0  0  0  0  0  0  0  0  0  0  0  0
  149.1702  141.4268  154.4908 C   0  0  0  0  0  0  0  0  0  0  0  0
  144.8352  144.3132  158.9858 C   0  0  0  0  0  0  0  0  0  0  0  0
  140.4281  145.3570  159.9578 H   0  0  0  0  0  0  0  0  0  0  0  0
  141.7042  145.8603  161.0632 H   0  0  0  0  0  0  0  0  0  0  0  0
  141.2432  144.1609  160.9621 H   0  0  0  0  0  0  0  0  0  0  0  0
  142.0798  144.0849  158.5825 H   0  0  0  0  0  0  0  0  0  0  0  0
  142.5343  145.7664  158.6814 H   0  0  0  0  0  0  0  0  0  0  0  0
  143.0285  144.4569  161.7762 H   0  0  0  0  0  0  0  0  0  0  0  0
  145.2121  143.9228  162.8158 H   0  0  0  0  0  0  0  0  0  0  0  0
  147.3966  144.6027  157.9703 H   0  0  0  0  0  0  0  0  0  0  0  0
  149.0224  143.9199  157.1580 H   0  0  0  0  0  0  0  0  0  0  0  0
  150.7323  142.5533  156.5160 H   0  0  0  0  0  0  0  0  0  0  0  0
  151.4912  143.0723  158.7988 H   0  0  0  0  0  0  0  0  0  0  0  0
  150.5464  141.7571  159.4522 H   0  0  0  0  0  0  0  0  0  0  0  0
  152.8661  141.4951  157.4938 H   0  0  0  0  0  0  0  0  0  0  0  0
  152.6904  140.6830  160.4349 H   0  0  0  0  0  0  0  0  0  0  0  0
  153.6113  142.0406  159.7932 H   0  0  0  0  0  0  0  0  0  0  0  0
  154.0626  140.3944  159.3679 H   0  0  0  0  0  0  0  0  0  0  0  0
  152.5918  139.0503  157.7478 H   0  0  0  0  0  0  0  0  0  0  0  0
  151.2170  139.2861  158.7992 H   0  0  0  0  0  0  0  0  0  0  0  0
  151.4120  140.0975  155.8652 H   0  0  0  0  0  0  0  0  0  0  0  0
  150.4769  138.7744  156.5154 H   0  0  0  0  0  0  0  0  0  0  0  0
  149.0902  140.3622  157.8186 H   0  0  0  0  0  0  0  0  0  0  0  0
  147.7653  141.3450  156.0807 H   0  0  0  0  0  0  0  0  0  0  0  0
  148.8281  138.7045  155.0263 H   0  0  0  0  0  0  0  0  0  0  0  0
  147.2528  139.4219  154.7354 H   0  0  0  0  0  0  0  0  0  0  0  0
  147.6782  138.8798  156.3518 H   0  0  0  0  0  0  0  0  0  0  0  0
  150.0195  140.8840  154.0767 H   0  0  0  0  0  0  0  0  0  0  0  0
  149.4832  142.4545  154.6726 H   0  0  0  0  0  0  0  0  0  0  0  0
  148.4012  141.4613  153.7186 H   0  0  0  0  0  0  0  0  0  0  0  0
  144.5881  144.4334  157.9434 H   0  0  0  0  0  0  0  0  0  0  0  0
  1  2  1  0  0  0  0
  1 24  1  0  0  0  0
  1 25  1  0  0  0  0
  1 26  1  0  0  0  0
  2  3  1  0  0  0  0
  2 27  1  0  0  0  0
  2 28  1  0  0  0  0
  3 23  1  0  0  0  0
  3  4  1  0  0  0  0
  4  5  2  0  0  0  0
  4 29  1  0  0  0  0
  5  6  1  0  0  0  0
  5 30  1  0  0  0  0
  6  7  2  0  0  0  0
  6  8  1  0  0  0  0
  8  9  1  0  0  0  0
  8 23  2  0  0  0  0
  9 10  1  0  0  0  0
  9 31  1  0  0  0  0
 10 11  2  0  0  0  0
 10 12  1  0  0  0  0
 12 13  1  0  0  0  0
 12 32  1  0  0  0  0
 13 19  1  0  0  0  0
 13 14  1  0  0  0  0
 13 33  1  0  0  0  0
 14 15  1  0  0  0  0
 14 34  1  0  0  0  0
 14 35  1  0  0  0  0
 15 16  1  0  0  0  0
 15 17  1  0  0  0  0
 15 36  1  0  0  0  0
 16 37  1  0  0  0  0
 16 38  1  0  0  0  0
 16 39  1  0  0  0  0
 17 18  1  0  0  0  0
 17 40  1  0  0  0  0
 17 41  1  0  0  0  0
 18 19  1  0  0  0  0
 18 42  1  0  0  0  0
 18 43  1  0  0  0  0
 19 20  1  0  0  0  0
 19 44  1  0  0  0  0
 20 21  1  0  0  0  0
 20 22  1  0  0  0  0
 20 45  1  0  0  0  0
 21 46  1  0  0  0  0
 21 47  1  0  0  0  0
 21 48  1  0  0  0  0
 22 49  1  0  0  0  0
 22 50  1  0  0  0  0
 22 51  1  0  0  0  0
 23 52  1  0  0  0  0
M  END
> <s_m_source_file>
AV-unprocessed.smi

> <i_m_source_file_index>
3030

> <i_lp_mmshare_version>
43012

> <i_f3d_flags>
0

> <s_epik_input>
W0NIM11bQ0gyXW4xW2NIXVtjSF1jKD1PKWMoW2NIXTEpW05IXUMoPU8pW05IXVtDQEBIXTJbQ0gyXVtDQEBIXShbQ0gzXSlbQ0gyXVtDSDJdW0NASF0yW0NIXShbQ0gzXSlbQ0gzXQ==

> <s_epik_cmdline>
J2VwaWtfcHl0aG9uJywgJy1waCcsICc3LjAnLCAnLXRuJywgJzgnLCAnLW1hJywgJzIwMCcsICctbWV0YWxfYmluZGluZycsICctaW1hZScsICc8aW5maWxlLm1hZT4nLCAnLW9tYWUnLCAnPG91dGZpbGUubWFlPic=

> <r_lp_tautomer_probability>
1

> <r_epik_Ionization_Penalty>
0.00147933

> <r_epik_Ionization_Penalty_Charging>
0.00145753

> <r_epik_Ionization_Penalty_Neutral>
2.17987e-05

> <r_epik_State_Penalty>
0.00097457

> <r_epik_Charging_Adjusted_Penalty>
0.0024321

> <i_epik_Tot_Q>
0

> <i_epik_Tot_abs_Q>
0

> <r_epik_Metal_State_Penalty>
-0

> <b_epik_Metal_Only>
0

> <s_lp_Force_Field>
OPLS_2005

> <r_lp_Energy>
9.50568

> <b_lp_Chiralities_Consistent>
1

> <s_lp_Variant>
AV-unprocessed.smi:3030-6

> <Gold.Version>
5.8.1

> <Gold.Id.Protein>
6NUR|6NUR_protein|mol2

> <Gold.PLP.Fitness>
38.0598

> <Gold.PLP.PLP>
-29.9469

> <Gold.PLP.part.hbond>
-5.4576

> <Gold.PLP.part.metal>
0.0000

> <Gold.PLP.part.buried>
-0.9497

> <Gold.PLP.part.nonpolar>
-23.4927

> <Gold.PLP.part.repulsive>
0.2086

> <Gold.PLP.ligand.clash>
0.0000

> <Gold.PLP.ligand.torsion>
0.5696

> <Gold.PLP.Chemscore.Hbond>
3.0610

> <Gold.PLP.Chemscore.CHOScore>
0.0000

> <Gold.PLP.Chemscore.Metal>
0.0000

> <Gold.Chemscore.Hbonds>
donor molecule, donor type, donor heavy atom, donor atom, acceptor molecule, acceptor atom, score
      L1  H     9    31       P1  8029  1.00
      L1  H    12    32       P1  8028  0.89
      P1  H  6933  6944       L1     7  1.00
      P1  H  6934  6946       L1    11  0.14

> <Gold.PLP.Chemscore.Internal.Correction>
0.0691

> <Gold.Rescore>
     Score         DG    S(hbond)    S(metal)    S(lipo)     H(rot)  DE(clash)    DE(int)     intcor
     16.38     -18.86       2.13        0.00      81.23       1.27       0.49       1.99       ----

> <Gold.Chemscore.Fitness>
16.3797

> <Gold.Chemscore.DG>
-18.8554

> <Gold.Chemscore.ZeroCoef>
-5.4800

> <Gold.Chemscore.Hbond>
2.1313

> <Gold.Chemscore.Metal>
0.0000

> <Gold.Chemscore.Lipo>
81.2342

> <Gold.Chemscore.Internal_Hbond>
0.0000

> <Gold.Chemscore.DEClash>
0.4886

> <Gold.Chemscore.DEInternal>
1.9870

> <Gold.Chemscore.Rot>
1.2685

> <Gold.Chemscore.Internal.Correction>
   9.000000E+99

> <Gold.Chemscore.Hbonds>
donor molecule, donor type, donor heavy atom, donor atom, acceptor molecule, acceptor atom, score
      L1  H     9    31       P1  8029  0.49
      L1  H    12    32       P1  8028  0.17
      P1  H  6933  6944       L1     7  1.00
      P1  H  6934  6946       L1    11  0.14

> <Gold.Chemscore.Hbond.Weighted>
-7.1184

> <Gold.Chemscore.Metal.Weighted>
-0.0000

> <Gold.Chemscore.Lipo.Weighted>
-9.5044

> <Gold.Chemscore.Internal_Hbond.Weighted>
0.0000

> <Gold.Chemscore.DEClash.Weighted>
0.4886

> <Gold.Chemscore.DEInternal.Weighted>
1.9870

> <Gold.Chemscore.Rot.Weighted>
3.2474

> <Gold.Chemscore.Internal.Correction.Weighted>
   9.000000E+99

> <Gold.Protein.RotatedTorsions>
[ 6907 6896 6895 6894 ] final  168.88 input  -60.11 | X-H torsion
[ 7974 7965 7964 7962 ] final  -86.91 input  175.53 | X-H torsion
[ 8008 7997 7996 7995 ] final -153.94 input   59.86 | X-H torsion
[ 10167 10162 10161 10158 ] final  -10.73 input  -65.29 | X-H torsion
[ 10718 10713 10712 10709 ] final -125.83 input   66.30 | X-H torsion
[ 10763 10752 10751 10750 ] final  -59.50 input  -60.55 | X-H torsion
[ 11005 11000 10999 10996 ] final   38.85 input  -57.11 | X-H torsion

> <Gold.Protein.ActiveResidues>
 VAL166  LYS551  ARG553  GLY616  TRP617  ASP618  TYR619  PRO620  LYS621  CYS622 
 ASP623  PHE694  ASN695  SER759  ASP760  ASP761  ALA762  ILE779  LEU786  VAL792 
 PHE793  MET794  SER795  GLU796  ALA797  LYS798  CYS799  TRP800  GLU811  SER814 

> <Gold.Protein.RotatedAtoms>
  151.8407  133.3423  159.3641 H   0  0  0  0  0  0  0  0  0  0  0  0  # atno 6907 bound_to 6896
  150.7235  134.5394  159.5749 H   0  0  0  0  0  0  0  0  0  0  0  0  # atno 6908 bound_to 6896
  152.2867  134.7769  160.0437 H   0  0  0  0  0  0  0  0  0  0  0  0  # atno 6909 bound_to 6896
  145.4736  140.9559  143.1903 H   0  0  0  0  0  0  0  0  0  0  0  0  # atno 7974 bound_to 7965
  155.6787  140.0742  157.2493 H   0  0  0  0  0  0  0  0  0  0  0  0  # atno 8008 bound_to 7997
  154.4109  140.1686  156.2010 H   0  0  0  0  0  0  0  0  0  0  0  0  # atno 8009 bound_to 7997
  155.9554  140.3374  155.6447 H   0  0  0  0  0  0  0  0  0  0  0  0  # atno 8010 bound_to 7997
  140.7121  143.5717  150.9086 H   0  0  0  0  0  0  0  0  0  0  0  0  # atno 10167 bound_to 10162
  156.1711  130.6668  151.0180 H   0  0  0  0  0  0  0  0  0  0  0  0  # atno 10718 bound_to 10713
  154.2546  135.6319  153.5252 H   0  0  0  0  0  0  0  0  0  0  0  0  # atno 10763 bound_to 10752
  152.9906  135.5573  154.5770 H   0  0  0  0  0  0  0  0  0  0  0  0  # atno 10764 bound_to 10752
  154.5305  135.2888  155.1159 H   0  0  0  0  0  0  0  0  0  0  0  0  # atno 10765 bound_to 10752
  140.2086  134.3783  155.8060 H   0  0  0  0  0  0  0  0  0  0  0  0  # atno 11005 bound_to 11000
  144.7931  139.6289  143.7105 LP  0  0  0  0  0  0  0  0  0  0  0  0  # atno 17320 bound_to 7965
  146.2382  139.5948  142.9509 LP  0  0  0  0  0  0  0  0  0  0  0  0  # atno 17321 bound_to 7965
  139.9443  143.6346  152.3046 LP  0  0  0  0  0  0  0  0  0  0  0  0  # atno 17342 bound_to 10162
  139.6842  144.7653  151.1554 LP  0  0  0  0  0  0  0  0  0  0  0  0  # atno 17343 bound_to 10162
  157.6803  131.0840  150.7387 LP  0  0  0  0  0  0  0  0  0  0  0  0  # atno 17370 bound_to 10713
  156.7447  130.4750  149.5470 LP  0  0  0  0  0  0  0  0  0  0  0  0  # atno 17371 bound_to 10713
  141.2226  133.7131  156.8379 LP  0  0  0  0  0  0  0  0  0  0  0  0  # atno 17394 bound_to 11000
  140.1975  134.8921  157.3132 LP  0  0  0  0  0  0  0  0  0  0  0  0  # atno 17395 bound_to 11000

$$$$
