AV-unprocessed.smi:213|AV-procd|sdf|1634|dock5
  -GOLD-   2262019593D 1   1.00000     0.00000
 Structure written by MMmdl.
 59 62  0  0  0  0  0  0  0  0  2 V2000
  148.1443  134.4266  156.6021 C   0  0  0  0  0  0  0  0  0  0  0  0
  148.2500  134.7115  155.0923 C   0  0  1  0  0  0  0  0  0  0  0  0
  147.0367  135.5108  154.5617 C   0  0  0  0  0  0  0  0  0  0  0  0
  146.8060  135.3009  153.1105 N   0  3  0  0  0  0  0  0  0  0  0  0
  146.9769  133.8853  152.7062 C   0  0  0  0  0  0  0  0  0  0  0  0
  146.7778  133.7312  151.1887 C   0  0  0  0  0  0  0  0  0  0  0  0
  145.4926  134.2187  150.8243 O   0  0  0  0  0  0  0  0  0  0  0  0
  145.3425  135.6001  151.1264 C   0  0  0  0  0  0  0  0  0  0  0  0
  145.4966  135.8187  152.6410 C   0  0  0  0  0  0  0  0  0  0  0  0
  149.5171  135.3829  154.7717 N   0  0  0  0  0  0  0  0  0  0  0  0
  150.4763  134.7413  153.8747 C   0  0  0  0  0  0  0  0  0  0  0  0
  150.0045  136.3470  155.6037 C   0  0  0  0  0  0  0  0  0  0  0  0
  150.5059  135.9899  156.8177 N   0  0  0  0  0  0  0  0  0  0  0  0
  150.9995  136.9097  157.6508 C   0  0  0  0  0  0  0  0  0  0  0  0
  151.0882  138.2283  157.4776 N   0  0  0  0  0  0  0  0  0  0  0  0
  150.5841  138.6010  156.2670 C   0  0  0  0  0  0  0  0  0  0  0  0
  150.0272  137.7372  155.2802 C   0  0  0  0  0  0  0  0  0  0  0  0
  149.6085  138.4898  154.1874 N   0  0  0  0  0  0  0  0  0  0  0  0
  149.9201  139.7174  154.4999 C   0  0  0  0  0  0  0  0  0  0  0  0
  150.5178  139.8743  155.7287 N   0  0  0  0  0  0  0  0  0  0  0  0
  150.9746  141.1193  156.3239 C   0  0  0  0  0  0  0  0  0  0  0  0
  150.2477  141.4957  157.6351 C   0  0  2  0  0  0  0  0  0  0  0  0
  148.9214  141.9139  157.3751 O   0  0  0  0  0  0  0  0  0  0  0  0
  150.9778  142.5309  158.5218 C   0  0  2  0  0  0  0  0  0  0  0  0
  151.3036  143.8689  157.8572 C   0  0  0  0  0  0  0  0  0  0  0  0
  152.3750  144.4017  158.7824 C   0  0  0  0  0  0  0  0  0  0  0  0
  153.1470  143.1342  159.1443 C   0  0  0  0  0  0  0  0  0  0  0  0
  152.2208  142.0575  159.0326 O   0  0  0  0  0  0  0  0  0  0  0  0
  147.2669  133.8206  156.8277 H   0  0  0  0  0  0  0  0  0  0  0  0
  148.0677  135.3423  157.1883 H   0  0  0  0  0  0  0  0  0  0  0  0
  149.0166  133.8765  156.9565 H   0  0  0  0  0  0  0  0  0  0  0  0
  148.2669  133.7319  154.6167 H   0  0  0  0  0  0  0  0  0  0  0  0
  146.1477  135.2070  155.1160 H   0  0  0  0  0  0  0  0  0  0  0  0
  147.1572  136.5784  154.7512 H   0  0  0  0  0  0  0  0  0  0  0  0
  147.9742  133.5388  152.9797 H   0  0  0  0  0  0  0  0  0  0  0  0
  146.2608  133.2617  153.2438 H   0  0  0  0  0  0  0  0  0  0  0  0
  147.5530  134.2656  150.6371 H   0  0  0  0  0  0  0  0  0  0  0  0
  146.8513  132.6814  150.9046 H   0  0  0  0  0  0  0  0  0  0  0  0
  146.0743  136.1887  150.5705 H   0  0  0  0  0  0  0  0  0  0  0  0
  144.3557  135.9271  150.7981 H   0  0  0  0  0  0  0  0  0  0  0  0
  144.6899  135.3105  153.1721 H   0  0  0  0  0  0  0  0  0  0  0  0
  145.4026  136.8811  152.8628 H   0  0  0  0  0  0  0  0  0  0  0  0
  151.4725  134.7045  154.3178 H   0  0  0  0  0  0  0  0  0  0  0  0
  150.5360  135.2897  152.9345 H   0  0  0  0  0  0  0  0  0  0  0  0
  150.1894  133.7166  153.6428 H   0  0  0  0  0  0  0  0  0  0  0  0
  151.3791  136.5359  158.5903 H   0  0  0  0  0  0  0  0  0  0  0  0
  149.7263  140.5471  153.8358 H   0  0  0  0  0  0  0  0  0  0  0  0
  152.0477  141.0382  156.5007 H   0  0  0  0  0  0  0  0  0  0  0  0
  150.8488  141.9181  155.5925 H   0  0  0  0  0  0  0  0  0  0  0  0
  150.1580  140.5803  158.2207 H   0  0  0  0  0  0  0  0  0  0  0  0
  148.9129  142.8555  157.2983 H   0  0  0  0  0  0  0  0  0  0  0  0
  150.3509  142.7361  159.3913 H   0  0  0  0  0  0  0  0  0  0  0  0
  151.7166  143.7270  156.8580 H   0  0  0  0  0  0  0  0  0  0  0  0
  150.4387  144.5280  157.7806 H   0  0  0  0  0  0  0  0  0  0  0  0
  153.0015  145.1657  158.3216 H   0  0  0  0  0  0  0  0  0  0  0  0
  151.9167  144.8289  159.6754 H   0  0  0  0  0  0  0  0  0  0  0  0
  153.9585  142.9645  158.4360 H   0  0  0  0  0  0  0  0  0  0  0  0
  153.5756  143.1834  160.1452 H   0  0  0  0  0  0  0  0  0  0  0  0
  147.5237  135.8210  152.6263 H   0  0  0  0  0  0  0  0  0  0  0  0
  1  2  1  0  0  0  0
  1 29  1  0  0  0  0
  1 30  1  0  0  0  0
  1 31  1  0  0  0  0
  2  3  1  0  0  0  0
  2 10  1  0  0  0  0
  2 32  1  0  0  0  0
  3  4  1  0  0  0  0
  3 33  1  0  0  0  0
  3 34  1  0  0  0  0
  4  9  1  0  0  0  0
  4  5  1  0  0  0  0
  4 59  1  0  0  0  0
  5  6  1  0  0  0  0
  5 35  1  0  0  0  0
  5 36  1  0  0  0  0
  6  7  1  0  0  0  0
  6 37  1  0  0  0  0
  6 38  1  0  0  0  0
  7  8  1  0  0  0  0
  8  9  1  0  0  0  0
  8 39  1  0  0  0  0
  8 40  1  0  0  0  0
  9 41  1  0  0  0  0
  9 42  1  0  0  0  0
 10 11  1  0  0  0  0
 10 12  1  0  0  0  0
 11 43  1  0  0  0  0
 11 44  1  0  0  0  0
 11 45  1  0  0  0  0
 12 17  1  0  0  0  0
 12 13  2  0  0  0  0
 13 14  1  0  0  0  0
 14 15  2  0  0  0  0
 14 46  1  0  0  0  0
 15 16  1  0  0  0  0
 16 20  1  0  0  0  0
 16 17  2  0  0  0  0
 17 18  1  0  0  0  0
 18 19  2  0  0  0  0
 19 20  1  0  0  0  0
 19 47  1  0  0  0  0
 20 21  1  0  0  0  0
 21 22  1  0  0  0  0
 21 48  1  0  0  0  0
 21 49  1  0  0  0  0
 22 23  1  0  0  0  0
 22 24  1  0  0  0  0
 22 50  1  0  0  0  0
 23 51  1  0  0  0  0
 24 28  1  0  0  0  0
 24 25  1  0  0  0  0
 24 52  1  0  0  0  0
 25 26  1  0  0  0  0
 25 53  1  0  0  0  0
 25 54  1  0  0  0  0
 26 27  1  0  0  0  0
 26 55  1  0  0  0  0
 26 56  1  0  0  0  0
 27 28  1  0  0  0  0
 27 57  1  0  0  0  0
 27 58  1  0  0  0  0
M  CHG  1   4   1
M  END
> <s_m_source_file>
AV-unprocessed.smi

> <i_m_source_file_index>
213

> <i_lp_mmshare_version>
43012

> <i_f3d_flags>
0

> <s_epik_input>
W0NIMl0xW0NIMl1PW0NIMl1bQ0gyXU4xW0NIMl1bQ0BASF0oW0NIM10pTihbQ0gzXSljKG5bY0hdbjIpYyhjMjMpbltjSF1uM1tDSDJdW0NASF0oW09IXSlbQ0BASF00W0NIMl1bQ0gyXVtDSDJdTzQ=

> <s_epik_cmdline>
J2VwaWtfcHl0aG9uJywgJy1waCcsICc3LjAnLCAnLXRuJywgJzgnLCAnLW1hJywgJzIwMCcsICctbWV0YWxfYmluZGluZycsICctaW1hZScsICc8aW5maWxlLm1hZT4nLCAnLW9tYWUnLCAnPG91dGZpbGUubWFlPic=

> <r_lp_tautomer_probability>
1

> <r_epik_Ionization_Penalty>
0.399679

> <r_epik_Ionization_Penalty_Charging>
0.399433

> <r_epik_Ionization_Penalty_Neutral>
0.000246213

> <r_epik_State_Penalty>
0.286032

> <r_epik_Charging_Adjusted_Penalty>
0.685465

> <i_epik_Tot_Q>
1

> <i_epik_Tot_abs_Q>
1

> <r_epik_Metal_State_Penalty>
0.286072

> <b_epik_Metal_Only>
0

> <s_lp_Force_Field>
OPLS_2005

> <r_lp_Energy>
46.153

> <b_lp_Chiralities_Consistent>
1

> <s_lp_Variant>
AV-unprocessed.smi:213-2

> <Gold.Version>
5.8.1

> <Gold.Id.Protein>
6NUR|6NUR_protein|mol2

> <Gold.PLP.Fitness>
50.4235

> <Gold.PLP.PLP>
-42.2059

> <Gold.PLP.part.hbond>
-2.0000

> <Gold.PLP.part.metal>
0.0000

> <Gold.PLP.part.buried>
-5.5037

> <Gold.PLP.part.nonpolar>
-35.5368

> <Gold.PLP.part.repulsive>
0.3983

> <Gold.PLP.ligand.clash>
0.0000

> <Gold.PLP.ligand.torsion>
2.2894

> <Gold.PLP.Chemscore.Hbond>
3.0000

> <Gold.PLP.Chemscore.CHOScore>
0.9670

> <Gold.PLP.Chemscore.Metal>
0.0000

> <Gold.Chemscore.Hbonds>
donor molecule, donor type, donor heavy atom, donor atom, acceptor molecule, acceptor atom, score
      L1  H     4    59       P1  7948  2.00
      L1  C    19    47       P1  7957  0.40

> <Gold.PLP.Chemscore.Internal.Correction>
0.8955

> <Gold.Rescore>
     Score         DG    S(hbond)    S(metal)    S(lipo)     H(rot)  DE(clash)    DE(int)     intcor
     12.50     -16.14       1.96        0.00      96.90       2.83       0.09       3.56       ----

> <Gold.Chemscore.Fitness>
12.4979

> <Gold.Chemscore.DG>
-16.1447

> <Gold.Chemscore.ZeroCoef>
-5.4800

> <Gold.Chemscore.Hbond>
1.9641

> <Gold.Chemscore.Metal>
0.0000

> <Gold.Chemscore.Lipo>
96.9023

> <Gold.Chemscore.Internal_Hbond>
0.0000

> <Gold.Chemscore.DEClash>
0.0885

> <Gold.Chemscore.DEInternal>
3.5584

> <Gold.Chemscore.Rot>
2.8254

> <Gold.Chemscore.Internal.Correction>
   9.000000E+99

> <Gold.Chemscore.Hbonds>
donor molecule, donor type, donor heavy atom, donor atom, acceptor molecule, acceptor atom, score
      L1  H     4    59       P1  7948  1.00
      L1  H    23    51       P1  8028  0.02

> <Gold.Chemscore.Hbond.Weighted>
-6.5601

> <Gold.Chemscore.Metal.Weighted>
-0.0000

> <Gold.Chemscore.Lipo.Weighted>
-11.3376

> <Gold.Chemscore.Internal_Hbond.Weighted>
0.0000

> <Gold.Chemscore.DEClash.Weighted>
0.0885

> <Gold.Chemscore.DEInternal.Weighted>
3.5584

> <Gold.Chemscore.Rot.Weighted>
7.2330

> <Gold.Chemscore.Internal.Correction.Weighted>
   9.000000E+99

> <Gold.Protein.RotatedTorsions>
[ 6907 6896 6895 6894 ] final   42.02 input  -60.11 | X-H torsion
[ 7974 7965 7964 7962 ] final   76.49 input  175.53 | X-H torsion
[ 8008 7997 7996 7995 ] final   76.30 input   59.86 | X-H torsion
[ 10167 10162 10161 10158 ] final   48.21 input  -65.29 | X-H torsion
[ 10718 10713 10712 10709 ] final -163.29 input   66.30 | X-H torsion
[ 10763 10752 10751 10750 ] final  168.95 input  -60.55 | X-H torsion
[ 11005 11000 10999 10996 ] final   19.03 input  -57.11 | X-H torsion

> <Gold.Protein.ActiveResidues>
 VAL166  LYS551  ARG553  GLY616  TRP617  ASP618  TYR619  PRO620  LYS621  CYS622 
 ASP623  PHE694  ASN695  SER759  ASP760  ASP761  ALA762  ILE779  LEU786  VAL792 
 PHE793  MET794  SER795  GLU796  ALA797  LYS798  CYS799  TRP800  GLU811  SER814 

> <Gold.Protein.RotatedAtoms>
  152.2026  134.8574  160.0506 H   0  0  0  0  0  0  0  0  0  0  0  0  # atno 6907 bound_to 6896
  151.9422  133.3636  159.3977 H   0  0  0  0  0  0  0  0  0  0  0  0  # atno 6908 bound_to 6896
  150.6958  134.4351  159.5310 H   0  0  0  0  0  0  0  0  0  0  0  0  # atno 6909 bound_to 6896
  145.7022  139.2586  143.1699 H   0  0  0  0  0  0  0  0  0  0  0  0  # atno 7974 bound_to 7965
  155.8254  140.3468  155.5539 H   0  0  0  0  0  0  0  0  0  0  0  0  # atno 8008 bound_to 7997
  155.8298  140.0925  157.1819 H   0  0  0  0  0  0  0  0  0  0  0  0  # atno 8009 bound_to 7997
  154.4004  140.1414  156.3588 H   0  0  0  0  0  0  0  0  0  0  0  0  # atno 8010 bound_to 7997
  140.2957  144.2994  150.6230 H   0  0  0  0  0  0  0  0  0  0  0  0  # atno 10167 bound_to 10162
  156.6226  130.8896  151.2961 H   0  0  0  0  0  0  0  0  0  0  0  0  # atno 10718 bound_to 10713
  154.3761  135.2753  155.2238 H   0  0  0  0  0  0  0  0  0  0  0  0  # atno 10763 bound_to 10752
  154.4365  135.5964  153.6105 H   0  0  0  0  0  0  0  0  0  0  0  0  # atno 10764 bound_to 10752
  152.9836  135.6008  154.3998 H   0  0  0  0  0  0  0  0  0  0  0  0  # atno 10765 bound_to 10752
  140.4182  134.1547  155.7671 H   0  0  0  0  0  0  0  0  0  0  0  0  # atno 11005 bound_to 11000
  146.0788  140.7788  142.9652 LP  0  0  0  0  0  0  0  0  0  0  0  0  # atno 17320 bound_to 7965
  144.6965  140.3456  143.7191 LP  0  0  0  0  0  0  0  0  0  0  0  0  # atno 17321 bound_to 7965
  140.5694  143.2182  151.7625 LP  0  0  0  0  0  0  0  0  0  0  0  0  # atno 17342 bound_to 10162
  139.4927  144.4237  151.9949 LP  0  0  0  0  0  0  0  0  0  0  0  0  # atno 17343 bound_to 10162
  157.7223  130.9575  150.1489 LP  0  0  0  0  0  0  0  0  0  0  0  0  # atno 17370 bound_to 10713
  156.2299  130.3681  149.8457 LP  0  0  0  0  0  0  0  0  0  0  0  0  # atno 17371 bound_to 10713
  141.1794  133.8445  157.1309 LP  0  0  0  0  0  0  0  0  0  0  0  0  # atno 17394 bound_to 11000
  140.0219  134.9942  157.0608 LP  0  0  0  0  0  0  0  0  0  0  0  0  # atno 17395 bound_to 11000

$$$$
