AV-unprocessed.smi:489|AV-procd|sdf|2702|dock4
  -GOLD-   2262023133D 1   1.00000     0.00000
 Structure written by MMmdl.
 42 43  0  0  0  0  0  0  0  0  1 V2000
  150.6462  141.2866  158.3267 C   0  0  0  0  0  0  0  0  0  0  0  0
  151.0388  140.2272  157.3325 C   0  0  0  0  0  0  0  0  0  0  0  0
  150.4324  140.2487  156.1913 N   0  0  0  0  0  0  0  0  0  0  0  0
  150.7192  139.3235  155.2062 N   0  0  0  0  0  0  0  0  0  0  0  0
  149.9478  139.5076  153.9681 C   0  0  0  0  0  0  0  0  0  0  0  0
  148.4401  139.3051  154.1788 C   0  0  0  0  0  0  0  0  0  0  0  0
  147.8316  140.0542  154.9472 O   0  0  0  0  0  0  0  0  0  0  0  0
  147.8968  138.2840  153.4770 N   0  0  0  0  0  0  0  0  0  0  0  0
  146.6185  137.8472  153.3860 C   0  0  0  0  0  0  0  0  0  0  0  0
  145.7546  138.2784  154.1480 O   0  0  0  0  0  0  0  0  0  0  0  0
  146.3500  136.9249  152.4425 N   0  0  0  0  0  0  0  0  0  0  0  0
  145.0176  136.5646  151.9662 C   0  0  0  0  0  0  0  0  0  0  0  0
  144.1602  135.9234  153.0784 C   0  0  0  0  0  0  0  0  0  0  0  0
  143.5796  134.6405  152.4819 C   0  0  0  0  0  0  0  0  0  0  0  0
  144.6156  134.2028  151.4518 C   0  0  0  0  0  0  0  0  0  0  0  0
  145.1138  135.5146  150.8442 C   0  0  0  0  0  0  0  0  0  0  0  0
  151.6225  138.3090  155.3335 C   0  0  0  0  0  0  0  0  0  0  0  0
  151.8304  137.4911  154.4358 O   0  0  0  0  0  0  0  0  0  0  0  0
  152.3115  138.2952  156.6259 C   0  0  0  0  0  0  0  0  0  0  0  0
  153.2811  137.2611  156.7927 C   0  0  0  0  0  0  0  0  0  0  0  0
  154.0554  136.4095  156.9158 N   0  0  0  0  0  0  0  0  0  0  0  0
  152.0469  139.2053  157.5965 C   0  0  0  0  0  0  0  0  0  0  0  0
  152.7335  139.2336  158.9551 C   0  0  0  0  0  0  0  0  0  0  0  0
  150.1950  140.8371  159.2115 H   0  0  0  0  0  0  0  0  0  0  0  0
  149.9232  141.9889  157.9091 H   0  0  0  0  0  0  0  0  0  0  0  0
  151.5157  141.8618  158.6449 H   0  0  0  0  0  0  0  0  0  0  0  0
  150.1431  140.4998  153.5563 H   0  0  0  0  0  0  0  0  0  0  0  0
  150.2778  138.8029  153.2029 H   0  0  0  0  0  0  0  0  0  0  0  0
  148.5558  137.7577  152.9219 H   0  0  0  0  0  0  0  0  0  0  0  0
  147.1299  136.4349  152.0274 H   0  0  0  0  0  0  0  0  0  0  0  0
  144.5253  137.4567  151.5745 H   0  0  0  0  0  0  0  0  0  0  0  0
  144.7776  135.6641  153.9400 H   0  0  0  0  0  0  0  0  0  0  0  0
  143.3799  136.5967  153.4344 H   0  0  0  0  0  0  0  0  0  0  0  0
  143.3861  133.8773  153.2362 H   0  0  0  0  0  0  0  0  0  0  0  0
  142.6359  134.8619  151.9814 H   0  0  0  0  0  0  0  0  0  0  0  0
  145.4394  133.6924  151.9527 H   0  0  0  0  0  0  0  0  0  0  0  0
  144.2054  133.5226  150.7049 H   0  0  0  0  0  0  0  0  0  0  0  0
  144.4522  135.8032  150.0260 H   0  0  0  0  0  0  0  0  0  0  0  0
  146.1163  135.4174  150.4249 H   0  0  0  0  0  0  0  0  0  0  0  0
  153.4169  138.3961  159.0902 H   0  0  0  0  0  0  0  0  0  0  0  0
  151.9989  139.1858  159.7595 H   0  0  0  0  0  0  0  0  0  0  0  0
  153.3106  140.1515  159.0700 H   0  0  0  0  0  0  0  0  0  0  0  0
  1  2  1  0  0  0  0
  1 24  1  0  0  0  0
  1 25  1  0  0  0  0
  1 26  1  0  0  0  0
  2 22  1  0  0  0  0
  2  3  2  0  0  0  0
  3  4  1  0  0  0  0
  4  5  1  0  0  0  0
  4 17  1  0  0  0  0
  5  6  1  0  0  0  0
  5 27  1  0  0  0  0
  5 28  1  0  0  0  0
  6  7  2  0  0  0  0
  6  8  1  0  0  0  0
  8  9  1  0  0  0  0
  8 29  1  0  0  0  0
  9 10  2  0  0  0  0
  9 11  1  0  0  0  0
 11 12  1  0  0  0  0
 11 30  1  0  0  0  0
 12 16  1  0  0  0  0
 12 13  1  0  0  0  0
 12 31  1  0  0  0  0
 13 14  1  0  0  0  0
 13 32  1  0  0  0  0
 13 33  1  0  0  0  0
 14 15  1  0  0  0  0
 14 34  1  0  0  0  0
 14 35  1  0  0  0  0
 15 16  1  0  0  0  0
 15 36  1  0  0  0  0
 15 37  1  0  0  0  0
 16 38  1  0  0  0  0
 16 39  1  0  0  0  0
 17 18  2  0  0  0  0
 17 19  1  0  0  0  0
 19 20  1  0  0  0  0
 19 22  2  0  0  0  0
 20 21  3  0  0  0  0
 22 23  1  0  0  0  0
 23 40  1  0  0  0  0
 23 41  1  0  0  0  0
 23 42  1  0  0  0  0
M  END
> <s_m_source_file>
AV-unprocessed.smi

> <i_m_source_file_index>
489

> <i_lp_mmshare_version>
43012

> <i_f3d_flags>
0

> <s_epik_input>
TiNDYyhjMVtDSDNdKWMoPU8pbihuYzFbQ0gzXSlbQ0gyXUMoPU8pW05IXUMoPU8pW05IXVtDSF0yW0NIMl1bQ0gyXVtDSDJdW0NIMl0y

> <s_epik_cmdline>
J2VwaWtfcHl0aG9uJywgJy1waCcsICc3LjAnLCAnLXRuJywgJzgnLCAnLW1hJywgJzIwMCcsICctbWV0YWxfYmluZGluZycsICctaW1hZScsICc8aW5maWxlLm1hZT4nLCAnLW9tYWUnLCAnPG91dGZpbGUubWFlPic=

> <r_lp_tautomer_probability>
1

> <r_epik_Ionization_Penalty>
3.28905e-05

> <r_epik_Ionization_Penalty_Charging>
1.69167e-11

> <r_epik_Ionization_Penalty_Neutral>
3.28905e-05

> <r_epik_State_Penalty>
-0

> <r_epik_Charging_Adjusted_Penalty>
1.69167e-11

> <i_epik_Tot_Q>
0

> <i_epik_Tot_abs_Q>
0

> <r_epik_Metal_State_Penalty>
-0

> <b_epik_Metal_Only>
0

> <s_lp_Force_Field>
OPLS_2005

> <r_lp_Energy>
37.6869

> <b_lp_Chiralities_Consistent>
1

> <s_lp_Variant>
AV-unprocessed.smi:489-1

> <Gold.Version>
5.8.1

> <Gold.Id.Protein>
6NUR|6NUR_protein|mol2

> <Gold.PLP.Fitness>
40.9286

> <Gold.PLP.PLP>
-29.4344

> <Gold.PLP.part.hbond>
-4.0948

> <Gold.PLP.part.metal>
0.0000

> <Gold.PLP.part.buried>
-0.8234

> <Gold.PLP.part.nonpolar>
-24.6893

> <Gold.PLP.part.repulsive>
0.4078

> <Gold.PLP.ligand.clash>
0.0000

> <Gold.PLP.ligand.torsion>
0.1158

> <Gold.PLP.Chemscore.Hbond>
3.9040

> <Gold.PLP.Chemscore.CHOScore>
0.0000

> <Gold.PLP.Chemscore.Metal>
0.0000

> <Gold.Chemscore.Hbonds>
donor molecule, donor type, donor heavy atom, donor atom, acceptor molecule, acceptor atom, score
      L1  H     8    29       P1  7948  1.00
      L1  H    11    30       P1  7948  0.99
      P1  H 10752 10763       L1    21  0.94
      P1  H 10752 10765       L1    18  0.66

> <Gold.PLP.Chemscore.Internal.Correction>
0.0139

> <Gold.Rescore>
     Score         DG    S(hbond)    S(metal)    S(lipo)     H(rot)  DE(clash)    DE(int)     intcor
     15.45     -19.41       3.48        0.00      54.89       1.61       1.22       2.74       ----

> <Gold.Chemscore.Fitness>
15.4544

> <Gold.Chemscore.DG>
-19.4063

> <Gold.Chemscore.ZeroCoef>
-5.4800

> <Gold.Chemscore.Hbond>
3.4826

> <Gold.Chemscore.Metal>
0.0000

> <Gold.Chemscore.Lipo>
54.8869

> <Gold.Chemscore.Internal_Hbond>
0.0000

> <Gold.Chemscore.DEClash>
1.2154

> <Gold.Chemscore.DEInternal>
2.7364

> <Gold.Chemscore.Rot>
1.6122

> <Gold.Chemscore.Internal.Correction>
   9.000000E+99

> <Gold.Chemscore.Hbonds>
donor molecule, donor type, donor heavy atom, donor atom, acceptor molecule, acceptor atom, score
      L1  H     8    29       P1  7948  0.95
      L1  H    11    30       P1  7948  0.94
      P1  H 10752 10763       L1    21  0.71
      P1  H 10752 10765       L1    18  0.64

> <Gold.Chemscore.Hbond.Weighted>
-11.6317

> <Gold.Chemscore.Metal.Weighted>
-0.0000

> <Gold.Chemscore.Lipo.Weighted>
-6.4218

> <Gold.Chemscore.Internal_Hbond.Weighted>
0.0000

> <Gold.Chemscore.DEClash.Weighted>
1.2154

> <Gold.Chemscore.DEInternal.Weighted>
2.7364

> <Gold.Chemscore.Rot.Weighted>
4.1272

> <Gold.Chemscore.Internal.Correction.Weighted>
   9.000000E+99

> <Gold.Protein.RotatedTorsions>
[ 6907 6896 6895 6894 ] final  136.76 input  -60.11 | X-H torsion
[ 7974 7965 7964 7962 ] final  -49.58 input  175.53 | X-H torsion
[ 8008 7997 7996 7995 ] final -101.56 input   59.86 | X-H torsion
[ 10167 10162 10161 10158 ] final  119.07 input  -65.29 | X-H torsion
[ 10718 10713 10712 10709 ] final  -94.60 input   66.30 | X-H torsion
[ 10763 10752 10751 10750 ] final  153.73 input  -60.55 | X-H torsion
[ 11005 11000 10999 10996 ] final -148.43 input  -57.11 | X-H torsion

> <Gold.Protein.ActiveResidues>
 VAL166  LYS551  ARG553  GLY616  TRP617  ASP618  TYR619  PRO620  LYS621  CYS622 
 ASP623  PHE694  ASN695  SER759  ASP760  ASP761  ALA762  ILE779  LEU786  VAL792 
 PHE793  MET794  SER795  GLU796  ALA797  LYS798  CYS799  TRP800  GLU811  SER814 

> <Gold.Protein.RotatedAtoms>
  152.2858  133.5513  159.5525 H   0  0  0  0  0  0  0  0  0  0  0  0  # atno 6907 bound_to 6896
  150.7214  134.0500  159.3804 H   0  0  0  0  0  0  0  0  0  0  0  0  # atno 6908 bound_to 6896
  151.8408  135.0591  160.0498 H   0  0  0  0  0  0  0  0  0  0  0  0  # atno 6909 bound_to 6896
  145.9391  140.7679  142.9561 H   0  0  0  0  0  0  0  0  0  0  0  0  # atno 7974 bound_to 7965
  154.8443  140.0433  157.1562 H   0  0  0  0  0  0  0  0  0  0  0  0  # atno 8008 bound_to 7997
  154.9013  140.3000  155.5296 H   0  0  0  0  0  0  0  0  0  0  0  0  # atno 8009 bound_to 7997
  156.2993  140.2375  156.4041 H   0  0  0  0  0  0  0  0  0  0  0  0  # atno 8010 bound_to 7997
  139.6070  144.7072  151.2931 H   0  0  0  0  0  0  0  0  0  0  0  0  # atno 10167 bound_to 10162
  156.0029  130.5074  150.5951 H   0  0  0  0  0  0  0  0  0  0  0  0  # atno 10718 bound_to 10713
  154.1409  135.2821  155.3161 H   0  0  0  0  0  0  0  0  0  0  0  0  # atno 10763 bound_to 10752
  154.6288  135.5442  153.7660 H   0  0  0  0  0  0  0  0  0  0  0  0  # atno 10764 bound_to 10752
  153.0251  135.6457  154.1556 H   0  0  0  0  0  0  0  0  0  0  0  0  # atno 10765 bound_to 10752
  140.7614  134.3294  157.5100 H   0  0  0  0  0  0  0  0  0  0  0  0  # atno 11005 bound_to 11000
  144.6776  140.2251  143.7362 LP  0  0  0  0  0  0  0  0  0  0  0  0  # atno 17320 bound_to 7965
  145.8324  139.2092  143.1875 LP  0  0  0  0  0  0  0  0  0  0  0  0  # atno 17321 bound_to 7965
  140.7292  143.6915  150.7918 LP  0  0  0  0  0  0  0  0  0  0  0  0  # atno 17342 bound_to 10162
  140.0503  143.5257  152.2677 LP  0  0  0  0  0  0  0  0  0  0  0  0  # atno 17343 bound_to 10162
  157.3809  131.0781  151.1477 LP  0  0  0  0  0  0  0  0  0  0  0  0  # atno 17370 bound_to 10713
  157.2200  130.6477  149.5807 LP  0  0  0  0  0  0  0  0  0  0  0  0  # atno 17371 bound_to 10713
  139.8770  134.9204  156.3250 LP  0  0  0  0  0  0  0  0  0  0  0  0  # atno 17394 bound_to 11000
  140.9660  133.7358  156.0467 LP  0  0  0  0  0  0  0  0  0  0  0  0  # atno 17395 bound_to 11000

$$$$
