AV-unprocessed.smi:1203|AV-procd|sdf|5035|dock10
  -GOLD-   22720 4 63D 1   1.00000     0.00000
 Structure written by MMmdl.
 40 41  0  0  0  0  0  0  0  0  2 V2000
  149.2458  139.4381  156.8372 C   0  0  0  0  0  0  0  0  0  0  0  0
  149.6954  138.9181  155.1314 S   0  0  0  0  0  0  0  0  0  0  0  0
  151.0700  139.3636  154.8566 O   0  0  0  0  0  0  0  0  0  0  0  0
  149.3332  137.5045  154.9492 O   0  0  0  0  0  0  0  0  0  0  0  0
  148.6366  139.8666  154.1455 N   0  0  0  0  0  0  0  0  0  0  0  0
  148.8001  141.3264  154.1387 C   0  0  0  0  0  0  0  0  0  0  0  0
  147.4505  141.8885  153.7023 C   0  0  0  0  0  0  0  0  0  0  0  0
  146.4630  140.8683  154.2498 C   0  0  0  0  0  0  0  0  0  0  0  0
  147.2040  139.5248  154.1311 C   0  0  1  0  0  0  0  0  0  0  0  0
  146.7991  138.7163  152.8918 C   0  0  0  0  0  0  0  0  0  0  0  0
  146.9863  139.1643  151.7602 O   0  0  0  0  0  0  0  0  0  0  0  0
  146.2614  137.5097  153.1242 N   0  0  0  0  0  0  0  0  0  0  0  0
  145.8186  136.5699  152.0991 C   0  0  0  0  0  0  0  0  0  0  0  0
  145.9270  135.0964  152.5411 C   0  0  0  0  0  0  0  0  0  0  0  0
  145.3885  134.1086  151.5198 C   0  0  0  0  0  0  0  0  0  0  0  0
  146.2073  133.0723  151.0193 C   0  0  0  0  0  0  0  0  0  0  0  0
  145.6822  132.1743  150.0670 C   0  0  0  0  0  0  0  0  0  0  0  0
  144.3479  132.3301  149.6395 C   0  0  0  0  0  0  0  0  0  0  0  0
  143.5934  133.3315  150.1428 N   0  3  0  0  0  0  0  0  0  0  0  0
  144.0605  134.2149  151.0520 C   0  0  0  0  0  0  0  0  0  0  0  0
  149.9140  138.9557  157.5504 H   0  0  0  0  0  0  0  0  0  0  0  0
  148.2193  139.1406  157.0511 H   0  0  0  0  0  0  0  0  0  0  0  0
  149.3339  140.5198  156.9263 H   0  0  0  0  0  0  0  0  0  0  0  0
  149.0401  141.6692  155.1460 H   0  0  0  0  0  0  0  0  0  0  0  0
  149.6103  141.6247  153.4730 H   0  0  0  0  0  0  0  0  0  0  0  0
  147.2705  142.8965  154.0770 H   0  0  0  0  0  0  0  0  0  0  0  0
  147.3930  141.9177  152.6133 H   0  0  0  0  0  0  0  0  0  0  0  0
  146.2573  141.0810  155.3000 H   0  0  0  0  0  0  0  0  0  0  0  0
  145.5083  140.8945  153.7223 H   0  0  0  0  0  0  0  0  0  0  0  0
  146.9696  138.9314  155.0170 H   0  0  0  0  0  0  0  0  0  0  0  0
  146.1539  137.2193  154.0856 H   0  0  0  0  0  0  0  0  0  0  0  0
  144.7775  136.8054  151.8777 H   0  0  0  0  0  0  0  0  0  0  0  0
  146.3731  136.7320  151.1734 H   0  0  0  0  0  0  0  0  0  0  0  0
  146.9691  134.8523  152.7497 H   0  0  0  0  0  0  0  0  0  0  0  0
  145.3939  134.9576  153.4825 H   0  0  0  0  0  0  0  0  0  0  0  0
  147.2280  132.9682  151.3579 H   0  0  0  0  0  0  0  0  0  0  0  0
  146.2943  131.3778  149.6700 H   0  0  0  0  0  0  0  0  0  0  0  0
  143.8655  131.6903  148.9150 H   0  0  0  0  0  0  0  0  0  0  0  0
  143.3640  134.9766  151.3712 H   0  0  0  0  0  0  0  0  0  0  0  0
  142.6304  133.4267  149.8203 H   0  0  0  0  0  0  0  0  0  0  0  0
  1  2  1  0  0  0  0
  1 21  1  0  0  0  0
  1 22  1  0  0  0  0
  1 23  1  0  0  0  0
  2  3  2  0  0  0  0
  2  4  2  0  0  0  0
  2  5  1  0  0  0  0
  5  9  1  0  0  0  0
  5  6  1  0  0  0  0
  6  7  1  0  0  0  0
  6 24  1  0  0  0  0
  6 25  1  0  0  0  0
  7  8  1  0  0  0  0
  7 26  1  0  0  0  0
  7 27  1  0  0  0  0
  8  9  1  0  0  0  0
  8 28  1  0  0  0  0
  8 29  1  0  0  0  0
  9 10  1  0  0  0  0
  9 30  1  0  0  0  0
 10 11  2  0  0  0  0
 10 12  1  0  0  0  0
 12 13  1  0  0  0  0
 12 31  1  0  0  0  0
 13 14  1  0  0  0  0
 13 32  1  0  0  0  0
 13 33  1  0  0  0  0
 14 15  1  0  0  0  0
 14 34  1  0  0  0  0
 14 35  1  0  0  0  0
 15 20  1  0  0  0  0
 15 16  2  0  0  0  0
 16 17  1  0  0  0  0
 16 36  1  0  0  0  0
 17 18  2  0  0  0  0
 17 37  1  0  0  0  0
 18 19  1  0  0  0  0
 18 38  1  0  0  0  0
 19 20  2  0  0  0  0
 19 40  1  0  0  0  0
 20 39  1  0  0  0  0
M  CHG  1  19   1
M  END
> <s_m_source_file>
AV-unprocessed.smi

> <i_m_source_file_index>
1203

> <i_lp_mmshare_version>
43012

> <i_f3d_flags>
0

> <s_epik_input>
W0NIM11TKD1PKSg9TylOMVtDSDJdW0NIMl1bQ0gyXVtDQEhdMUMoPU8pW05IXVtDSDJdW0NIMl1jMltjSF1bY0hdW2NIXW5bY0hdMg==

> <s_epik_cmdline>
J2VwaWtfcHl0aG9uJywgJy1waCcsICc3LjAnLCAnLXRuJywgJzgnLCAnLW1hJywgJzIwMCcsICctbWV0YWxfYmluZGluZycsICctaW1hZScsICc8aW5maWxlLm1hZT4nLCAnLW9tYWUnLCAnPG91dGZpbGUubWFlPic=

> <r_epik_Ionization_Penalty>
2.2835

> <r_epik_Ionization_Penalty_Charging>
2.2835

> <r_epik_Ionization_Penalty_Neutral>
1.4017e-07

> <r_epik_State_Penalty>
2.43297

> <r_epik_Charging_Adjusted_Penalty>
4.71647

> <i_epik_Tot_Q>
1

> <i_epik_Tot_abs_Q>
1

> <r_epik_Metal_State_Penalty>
2.44558

> <b_epik_Metal_Only>
0

> <s_lp_Force_Field>
OPLS_2005

> <r_lp_Energy>
11.8017

> <b_lp_Chiralities_Consistent>
1

> <s_lp_Variant>
AV-unprocessed.smi:1203-3

> <Gold.Version>
5.8.1

> <Gold.Id.Protein>
6NUR|6NUR_protein|mol2

> <Gold.PLP.Fitness>
41.6701

> <Gold.PLP.PLP>
-33.0998

> <Gold.PLP.part.hbond>
-2.4622

> <Gold.PLP.part.metal>
0.0000

> <Gold.PLP.part.buried>
-6.2564

> <Gold.PLP.part.nonpolar>
-26.1686

> <Gold.PLP.part.repulsive>
1.9996

> <Gold.PLP.ligand.clash>
0.0000

> <Gold.PLP.ligand.torsion>
0.4676

> <Gold.PLP.Chemscore.Hbond>
3.0000

> <Gold.PLP.Chemscore.CHOScore>
0.0000

> <Gold.PLP.Chemscore.Metal>
0.0000

> <Gold.Chemscore.Hbonds>
donor molecule, donor type, donor heavy atom, donor atom, acceptor molecule, acceptor atom, score
      L1  H    19    40       P1 10186  2.00
      P1  H  7989  7998       L1     3  0.83

> <Gold.PLP.Chemscore.Internal.Correction>
0.5056

> <Gold.Rescore>
     Score         DG    S(hbond)    S(metal)    S(lipo)     H(rot)  DE(clash)    DE(int)     intcor
     14.43     -15.55       1.98        0.00      73.30       2.00       0.30       0.82       ----

> <Gold.Chemscore.Fitness>
14.4320

> <Gold.Chemscore.DG>
-15.5531

> <Gold.Chemscore.ZeroCoef>
-5.4800

> <Gold.Chemscore.Hbond>
1.9843

> <Gold.Chemscore.Metal>
0.0000

> <Gold.Chemscore.Lipo>
73.3033

> <Gold.Chemscore.Internal_Hbond>
0.0000

> <Gold.Chemscore.DEClash>
0.3042

> <Gold.Chemscore.DEInternal>
0.8170

> <Gold.Chemscore.Rot>
2.0043

> <Gold.Chemscore.Internal.Correction>
   9.000000E+99

> <Gold.Chemscore.Hbonds>
donor molecule, donor type, donor heavy atom, donor atom, acceptor molecule, acceptor atom, score
      L1  H    19    40       P1 10186  0.96
      P1  H  7989  7998       L1     3  0.80

> <Gold.Chemscore.Hbond.Weighted>
-6.6275

> <Gold.Chemscore.Metal.Weighted>
-0.0000

> <Gold.Chemscore.Lipo.Weighted>
-8.5765

> <Gold.Chemscore.Internal_Hbond.Weighted>
0.0000

> <Gold.Chemscore.DEClash.Weighted>
0.3042

> <Gold.Chemscore.DEInternal.Weighted>
0.8170

> <Gold.Chemscore.Rot.Weighted>
5.1309

> <Gold.Chemscore.Internal.Correction.Weighted>
   9.000000E+99

> <Gold.Protein.RotatedTorsions>
[ 6907 6896 6895 6894 ] final   62.82 input  -60.11 | X-H torsion
[ 7974 7965 7964 7962 ] final  -96.28 input  175.53 | X-H torsion
[ 8008 7997 7996 7995 ] final  177.99 input   59.86 | X-H torsion
[ 10167 10162 10161 10158 ] final  169.55 input  -65.29 | X-H torsion
[ 10718 10713 10712 10709 ] final  123.83 input   66.30 | X-H torsion
[ 10763 10752 10751 10750 ] final  -77.38 input  -60.55 | X-H torsion
[ 11005 11000 10999 10996 ] final  -77.85 input  -57.11 | X-H torsion

> <Gold.Protein.ActiveResidues>
 VAL166  LYS551  ARG553  GLY616  TRP617  ASP618  TYR619  PRO620  LYS621  CYS622 
 ASP623  PHE694  ASN695  SER759  ASP760  ASP761  ALA762  ILE779  LEU786  VAL792 
 PHE793  MET794  SER795  GLU796  ALA797  LYS798  CYS799  TRP800  GLU811  SER814 

> <Gold.Protein.RotatedAtoms>
  152.4203  134.5967  159.9988 H   0  0  0  0  0  0  0  0  0  0  0  0  # atno 6907 bound_to 6896
  151.6118  133.3341  159.3077 H   0  0  0  0  0  0  0  0  0  0  0  0  # atno 6908 bound_to 6896
  150.8091  134.7273  159.6737 H   0  0  0  0  0  0  0  0  0  0  0  0  # atno 6909 bound_to 6896
  145.3489  140.9473  143.2565 H   0  0  0  0  0  0  0  0  0  0  0  0  # atno 7974 bound_to 7965
  156.0596  140.1344  156.9956 H   0  0  0  0  0  0  0  0  0  0  0  0  # atno 8008 bound_to 7997
  154.4475  140.0994  156.6568 H   0  0  0  0  0  0  0  0  0  0  0  0  # atno 8009 bound_to 7997
  155.5398  140.3460  155.4446 H   0  0  0  0  0  0  0  0  0  0  0  0  # atno 8010 bound_to 7997
  139.4995  144.3694  151.9741 H   0  0  0  0  0  0  0  0  0  0  0  0  # atno 10167 bound_to 10162
  157.5634  131.1088  150.8498 H   0  0  0  0  0  0  0  0  0  0  0  0  # atno 10718 bound_to 10713
  154.5122  135.5766  153.6614 H   0  0  0  0  0  0  0  0  0  0  0  0  # atno 10763 bound_to 10752
  152.9899  135.6161  154.2864 H   0  0  0  0  0  0  0  0  0  0  0  0  # atno 10764 bound_to 10752
  154.2780  135.2851  155.2689 H   0  0  0  0  0  0  0  0  0  0  0  0  # atno 10765 bound_to 10752
  141.1662  133.7039  156.7883 H   0  0  0  0  0  0  0  0  0  0  0  0  # atno 11005 bound_to 11000
  144.8733  139.5007  143.6757 LP  0  0  0  0  0  0  0  0  0  0  0  0  # atno 17320 bound_to 7965
  146.2976  139.7326  142.9115 LP  0  0  0  0  0  0  0  0  0  0  0  0  # atno 17321 bound_to 7965
  140.3130  144.3516  150.6029 LP  0  0  0  0  0  0  0  0  0  0  0  0  # atno 17342 bound_to 10162
  140.5784  143.2174  151.7474 LP  0  0  0  0  0  0  0  0  0  0  0  0  # atno 17343 bound_to 10162
  156.8990  130.5240  149.5283 LP  0  0  0  0  0  0  0  0  0  0  0  0  # atno 17370 bound_to 10713
  156.0684  130.5722  150.9335 LP  0  0  0  0  0  0  0  0  0  0  0  0  # atno 17371 bound_to 10713
  140.2344  134.8661  157.3510 LP  0  0  0  0  0  0  0  0  0  0  0  0  # atno 17394 bound_to 11000
  140.1858  134.4432  155.7744 LP  0  0  0  0  0  0  0  0  0  0  0  0  # atno 17395 bound_to 11000

$$$$
