AV-unprocessed.smi:1430|AV-procd|sdf|5823|dock10
  -GOLD-   22720 5483D 1   1.00000     0.00000
 Structure written by MMmdl.
 46 47  0  0  0  0  0  0  0  0  1 V2000
  135.9475  137.6161  155.8934 C   0  0  0  0  0  0  0  0  0  0  0  0
  136.4282  138.5273  154.9113 O   0  0  0  0  0  0  0  0  0  0  0  0
  137.7526  138.4446  154.5331 C   0  0  0  0  0  0  0  0  0  0  0  0
  138.4788  137.2852  154.8700 C   0  0  0  0  0  0  0  0  0  0  0  0
  139.8305  137.1914  154.4864 C   0  0  0  0  0  0  0  0  0  0  0  0
  140.4136  138.2627  153.7681 C   0  0  0  0  0  0  0  0  0  0  0  0
  141.7681  138.3001  153.3388 N   0  0  0  0  0  0  0  0  0  0  0  0
  142.6956  137.3288  153.3959 C   0  0  0  0  0  0  0  0  0  0  0  0
  142.5117  136.1903  153.8262 O   0  0  0  0  0  0  0  0  0  0  0  0
  143.8671  137.7495  152.8984 N   0  0  0  0  0  0  0  0  0  0  0  0
  145.0719  136.9351  152.7949 C   0  0  0  0  0  0  0  0  0  0  0  0
  145.0397  136.0496  151.5353 C   0  0  0  0  0  0  0  0  0  0  0  0
  145.7275  134.7667  151.6652 N   0  0  0  0  0  0  0  0  0  0  0  0
  145.1543  133.7769  150.7618 C   0  0  0  0  0  0  0  0  0  0  0  0
  145.8833  132.4242  150.8487 C   0  0  2  0  0  0  0  0  0  0  0  0
  145.2279  131.3594  149.9630 C   0  0  0  0  0  0  0  0  0  0  0  0
  145.8553  131.9574  152.1961 O   0  0  0  0  0  0  0  0  0  0  0  0
  146.3696  132.8703  153.1670 C   0  0  1  0  0  0  0  0  0  0  0  0
  147.9050  132.9490  153.1174 C   0  0  0  0  0  0  0  0  0  0  0  0
  145.6825  134.2442  153.0297 C   0  0  0  0  0  0  0  0  0  0  0  0
  139.6042  139.3842  153.4928 C   0  0  0  0  0  0  0  0  0  0  0  0
  138.3081  139.4803  153.8567 N   0  0  0  0  0  0  0  0  0  0  0  0
  134.8911  137.8102  156.0790 H   0  0  0  0  0  0  0  0  0  0  0  0
  136.4767  137.7343  156.8401 H   0  0  0  0  0  0  0  0  0  0  0  0
  136.0396  136.5821  155.5582 H   0  0  0  0  0  0  0  0  0  0  0  0
  138.0079  136.4820  155.4172 H   0  0  0  0  0  0  0  0  0  0  0  0
  140.3890  136.3109  154.7622 H   0  0  0  0  0  0  0  0  0  0  0  0
  142.0525  139.1566  152.8862 H   0  0  0  0  0  0  0  0  0  0  0  0
  143.9294  138.6992  152.5616 H   0  0  0  0  0  0  0  0  0  0  0  0
  145.9309  137.6052  152.7547 H   0  0  0  0  0  0  0  0  0  0  0  0
  145.1827  136.3394  153.7016 H   0  0  0  0  0  0  0  0  0  0  0  0
  144.0061  135.8808  151.2287 H   0  0  0  0  0  0  0  0  0  0  0  0
  145.5030  136.6146  150.7250 H   0  0  0  0  0  0  0  0  0  0  0  0
  144.0964  133.6368  150.9915 H   0  0  0  0  0  0  0  0  0  0  0  0
  145.2034  134.1433  149.7356 H   0  0  0  0  0  0  0  0  0  0  0  0
  146.9183  132.5465  150.5286 H   0  0  0  0  0  0  0  0  0  0  0  0
  145.2314  131.6628  148.9158 H   0  0  0  0  0  0  0  0  0  0  0  0
  144.1931  131.1836  150.2581 H   0  0  0  0  0  0  0  0  0  0  0  0
  145.7606  130.4109  150.0365 H   0  0  0  0  0  0  0  0  0  0  0  0
  146.1052  132.4605  154.1421 H   0  0  0  0  0  0  0  0  0  0  0  0
  148.2882  133.5618  153.9336 H   0  0  0  0  0  0  0  0  0  0  0  0
  148.2629  133.3875  152.1862 H   0  0  0  0  0  0  0  0  0  0  0  0
  148.3478  131.9574  153.2125 H   0  0  0  0  0  0  0  0  0  0  0  0
  146.1507  134.9416  153.7237 H   0  0  0  0  0  0  0  0  0  0  0  0
  144.6422  134.1490  153.3451 H   0  0  0  0  0  0  0  0  0  0  0  0
  140.0070  140.2324  152.9584 H   0  0  0  0  0  0  0  0  0  0  0  0
  1  2  1  0  0  0  0
  1 23  1  0  0  0  0
  1 24  1  0  0  0  0
  1 25  1  0  0  0  0
  2  3  1  0  0  0  0
  3 22  1  0  0  0  0
  3  4  2  0  0  0  0
  4  5  1  0  0  0  0
  4 26  1  0  0  0  0
  5  6  2  0  0  0  0
  5 27  1  0  0  0  0
  6  7  1  0  0  0  0
  6 21  1  0  0  0  0
  7  8  1  0  0  0  0
  7 28  1  0  0  0  0
  8  9  2  0  0  0  0
  8 10  1  0  0  0  0
 10 11  1  0  0  0  0
 10 29  1  0  0  0  0
 11 12  1  0  0  0  0
 11 30  1  0  0  0  0
 11 31  1  0  0  0  0
 12 13  1  0  0  0  0
 12 32  1  0  0  0  0
 12 33  1  0  0  0  0
 13 20  1  0  0  0  0
 13 14  1  0  0  0  0
 14 15  1  0  0  0  0
 14 34  1  0  0  0  0
 14 35  1  0  0  0  0
 15 16  1  0  0  0  0
 15 17  1  0  0  0  0
 15 36  1  0  0  0  0
 16 37  1  0  0  0  0
 16 38  1  0  0  0  0
 16 39  1  0  0  0  0
 17 18  1  0  0  0  0
 18 19  1  0  0  0  0
 18 20  1  0  0  0  0
 18 40  1  0  0  0  0
 19 41  1  0  0  0  0
 19 42  1  0  0  0  0
 19 43  1  0  0  0  0
 20 44  1  0  0  0  0
 20 45  1  0  0  0  0
 21 22  2  0  0  0  0
 21 46  1  0  0  0  0
M  END
> <s_m_source_file>
AV-unprocessed.smi

> <i_m_source_file_index>
1430

> <i_lp_mmshare_version>
43012

> <i_f3d_flags>
0

> <s_epik_input>
W0NIM11PYzFbY0hdW2NIXWMoW2NIXW4xKVtOSF1DKD1PKVtOSF1bQ0gyXVtDSDJdTjJbQ0gyXVtDQEBIXShbQ0gzXSlPW0NAQEhdKFtDSDNdKVtDSDJdMg==

> <s_epik_cmdline>
J2VwaWtfcHl0aG9uJywgJy1waCcsICc3LjAnLCAnLXRuJywgJzgnLCAnLW1hJywgJzIwMCcsICctbWV0YWxfYmluZGluZycsICctaW1hZScsICc8aW5maWxlLm1hZT4nLCAnLW9tYWUnLCAnPG91dGZpbGUubWFlPic=

> <r_lp_tautomer_probability>
1

> <r_epik_Ionization_Penalty>
0.266083

> <r_epik_Ionization_Penalty_Charging>
0

> <r_epik_Ionization_Penalty_Neutral>
0.266083

> <r_epik_State_Penalty>
0.257924

> <r_epik_Charging_Adjusted_Penalty>
0.257924

> <i_epik_Tot_Q>
0

> <i_epik_Tot_abs_Q>
0

> <r_epik_Metal_State_Penalty>
0.257922

> <b_epik_Metal_Only>
0

> <s_lp_Force_Field>
OPLS_2005

> <r_lp_Energy>
25.3264

> <b_lp_Chiralities_Consistent>
1

> <s_lp_Variant>
AV-unprocessed.smi:1430-2

> <Gold.Version>
5.8.1

> <Gold.Id.Protein>
6NUR|6NUR_protein|mol2

> <Gold.PLP.Fitness>
44.0643

> <Gold.PLP.PLP>
-37.0281

> <Gold.PLP.part.hbond>
-2.6210

> <Gold.PLP.part.metal>
0.0000

> <Gold.PLP.part.buried>
-2.0133

> <Gold.PLP.part.nonpolar>
-33.5764

> <Gold.PLP.part.repulsive>
0.9963

> <Gold.PLP.ligand.clash>
0.0000

> <Gold.PLP.ligand.torsion>
0.9060

> <Gold.PLP.Chemscore.Hbond>
1.9920

> <Gold.PLP.Chemscore.CHOScore>
0.9535

> <Gold.PLP.Chemscore.Metal>
0.0000

> <Gold.Chemscore.Hbonds>
donor molecule, donor type, donor heavy atom, donor atom, acceptor molecule, acceptor atom, score
      L1  H     7    28       P1 10175  0.91
      L1  H    10    29       P1 10175  1.00
      L1  C    21    46       P1 10160  1.00

> <Gold.PLP.Chemscore.Internal.Correction>
0.0116

> <Gold.Rescore>
     Score         DG    S(hbond)    S(metal)    S(lipo)     H(rot)  DE(clash)    DE(int)     intcor
     14.79     -17.42       1.92        0.00      84.57       1.71       0.17       2.46       ----

> <Gold.Chemscore.Fitness>
14.7908

> <Gold.Chemscore.DG>
-17.4188

> <Gold.Chemscore.ZeroCoef>
-5.4800

> <Gold.Chemscore.Hbond>
1.9231

> <Gold.Chemscore.Metal>
0.0000

> <Gold.Chemscore.Lipo>
84.5728

> <Gold.Chemscore.Internal_Hbond>
0.0000

> <Gold.Chemscore.DEClash>
0.1686

> <Gold.Chemscore.DEInternal>
2.4594

> <Gold.Chemscore.Rot>
1.7107

> <Gold.Chemscore.Internal.Correction>
   9.000000E+99

> <Gold.Chemscore.Hbonds>
donor molecule, donor type, donor heavy atom, donor atom, acceptor molecule, acceptor atom, score
      L1  H     7    28       P1 10175  0.77
      L1  H    10    29       P1 10175  1.00

> <Gold.Chemscore.Hbond.Weighted>
-6.4232

> <Gold.Chemscore.Metal.Weighted>
-0.0000

> <Gold.Chemscore.Lipo.Weighted>
-9.8950

> <Gold.Chemscore.Internal_Hbond.Weighted>
0.0000

> <Gold.Chemscore.DEClash.Weighted>
0.1686

> <Gold.Chemscore.DEInternal.Weighted>
2.4594

> <Gold.Chemscore.Rot.Weighted>
4.3794

> <Gold.Chemscore.Internal.Correction.Weighted>
   9.000000E+99

> <Gold.Protein.RotatedTorsions>
[ 6907 6896 6895 6894 ] final   95.87 input  -60.11 | X-H torsion
[ 7974 7965 7964 7962 ] final -143.48 input  175.53 | X-H torsion
[ 8008 7997 7996 7995 ] final   67.88 input   59.86 | X-H torsion
[ 10167 10162 10161 10158 ] final -123.96 input  -65.29 | X-H torsion
[ 10718 10713 10712 10709 ] final  110.89 input   66.30 | X-H torsion
[ 10763 10752 10751 10750 ] final  -45.67 input  -60.55 | X-H torsion
[ 11005 11000 10999 10996 ] final   62.80 input  -57.11 | X-H torsion

> <Gold.Protein.ActiveResidues>
 VAL166  LYS551  ARG553  GLY616  TRP617  ASP618  TYR619  PRO620  LYS621  CYS622 
 ASP623  PHE694  ASN695  SER759  ASP760  ASP761  ALA762  ILE779  LEU786  VAL792 
 PHE793  MET794  SER795  GLU796  ALA797  LYS798  CYS799  TRP800  GLU811  SER814 

> <Gold.Protein.RotatedAtoms>
  152.5440  134.0974  159.8302 H   0  0  0  0  0  0  0  0  0  0  0  0  # atno 6907 bound_to 6896
  151.1056  133.5203  159.2615 H   0  0  0  0  0  0  0  0  0  0  0  0  # atno 6908 bound_to 6896
  151.1942  135.0424  159.8899 H   0  0  0  0  0  0  0  0  0  0  0  0  # atno 6909 bound_to 6896
  144.8367  140.5830  143.5479 H   0  0  0  0  0  0  0  0  0  0  0  0  # atno 7974 bound_to 7965
  155.6997  140.3495  155.4927 H   0  0  0  0  0  0  0  0  0  0  0  0  # atno 8008 bound_to 7997
  155.9452  140.1109  157.1045 H   0  0  0  0  0  0  0  0  0  0  0  0  # atno 8009 bound_to 7997
  154.4110  140.1205  156.4966 H   0  0  0  0  0  0  0  0  0  0  0  0  # atno 8010 bound_to 7997
  139.9979  143.5571  152.2315 H   0  0  0  0  0  0  0  0  0  0  0  0  # atno 10167 bound_to 10162
  157.6472  131.0941  150.6667 H   0  0  0  0  0  0  0  0  0  0  0  0  # atno 10718 bound_to 10713
  154.0323  135.6655  153.4782 H   0  0  0  0  0  0  0  0  0  0  0  0  # atno 10763 bound_to 10752
  153.0535  135.5070  154.7921 H   0  0  0  0  0  0  0  0  0  0  0  0  # atno 10764 bound_to 10752
  154.6870  135.3055  154.9498 H   0  0  0  0  0  0  0  0  0  0  0  0  # atno 10765 bound_to 10752
  140.0068  134.6358  155.9843 H   0  0  0  0  0  0  0  0  0  0  0  0  # atno 11005 bound_to 11000
  145.4781  139.1497  143.3777 LP  0  0  0  0  0  0  0  0  0  0  0  0  # atno 17320 bound_to 7965
  146.2664  140.4916  142.8832 LP  0  0  0  0  0  0  0  0  0  0  0  0  # atno 17321 bound_to 7965
  139.6292  144.7642  151.2572 LP  0  0  0  0  0  0  0  0  0  0  0  0  # atno 17342 bound_to 10162
  140.7430  143.6509  150.8250 LP  0  0  0  0  0  0  0  0  0  0  0  0  # atno 17343 bound_to 10162
  156.6983  130.4615  149.5580 LP  0  0  0  0  0  0  0  0  0  0  0  0  # atno 17370 bound_to 10713
  156.1813  130.6501  151.0954 LP  0  0  0  0  0  0  0  0  0  0  0  0  # atno 17371 bound_to 10713
  141.1682  133.6537  156.4556 LP  0  0  0  0  0  0  0  0  0  0  0  0  # atno 17394 bound_to 11000
  140.4627  134.6826  157.5093 LP  0  0  0  0  0  0  0  0  0  0  0  0  # atno 17395 bound_to 11000

$$$$
