AV-unprocessed.smi:2522|AV-procd|sdf|9919|dock5
  -GOLD-   2272013553D 1   1.00000     0.00000
 Structure written by MMmdl.
 41 42  0  0  0  0  0  0  0  0  1 V2000
  149.2921  133.2799  153.1941 C   0  0  0  0  0  0  0  0  0  0  0  0
  149.0935  133.7599  154.6471 C   0  0  0  0  0  0  0  0  0  0  0  0
  147.8295  134.6372  154.7125 C   0  0  0  0  0  0  0  0  0  0  0  0
  148.8916  132.5326  155.5597 C   0  0  0  0  0  0  0  0  0  0  0  0
  150.3056  134.6075  155.1157 C   0  0  0  0  0  0  0  0  0  0  0  0
  150.3644  135.9169  154.4722 N   0  0  0  0  0  0  0  0  0  0  0  0
  151.2232  136.9056  154.7677 C   0  0  0  0  0  0  0  0  0  0  0  0
  152.0158  136.8637  155.7083 O   0  0  0  0  0  0  0  0  0  0  0  0
  151.2061  138.1159  153.8317 C   0  0  0  0  0  0  0  0  0  0  0  0
  150.8012  139.3421  154.5994 C   0  0  0  0  0  0  0  0  0  0  0  0
  149.6857  140.1162  154.3929 C   0  0  0  0  0  0  0  0  0  0  0  0
  149.5700  141.4168  155.5480 S   0  0  0  0  0  0  0  0  0  0  0  0
  151.0699  140.8544  156.2829 C   0  0  0  0  0  0  0  0  0  0  0  0
  151.6647  141.4619  157.4292 N   0  0  0  0  0  0  0  0  0  0  0  0
  151.2671  142.7929  157.8713 C   0  0  0  0  0  0  0  0  0  0  0  0
  151.9472  143.0089  159.2278 C   0  0  0  0  0  0  0  0  0  0  0  0
  152.9969  141.9050  159.3382 C   0  0  0  0  0  0  0  0  0  0  0  0
  152.6248  140.9459  158.2201 C   0  0  0  0  0  0  0  0  0  0  0  0
  153.1705  139.8485  158.1061 O   0  0  0  0  0  0  0  0  0  0  0  0
  151.5908  139.7896  155.6640 N   0  0  0  0  0  0  0  0  0  0  0  0
  148.4174  132.7380  152.8328 H   0  0  0  0  0  0  0  0  0  0  0  0
  150.1445  132.6067  153.1029 H   0  0  0  0  0  0  0  0  0  0  0  0
  149.4615  134.1182  152.5177 H   0  0  0  0  0  0  0  0  0  0  0  0
  147.9207  135.5140  154.0705 H   0  0  0  0  0  0  0  0  0  0  0  0
  147.6438  134.9912  155.7272 H   0  0  0  0  0  0  0  0  0  0  0  0
  146.9446  134.0869  154.3906 H   0  0  0  0  0  0  0  0  0  0  0  0
  147.9938  131.9783  155.2845 H   0  0  0  0  0  0  0  0  0  0  0  0
  148.7874  132.8284  156.6041 H   0  0  0  0  0  0  0  0  0  0  0  0
  149.7287  131.8367  155.4959 H   0  0  0  0  0  0  0  0  0  0  0  0
  150.2410  134.7795  156.1906 H   0  0  0  0  0  0  0  0  0  0  0  0
  151.2355  134.0580  154.9591 H   0  0  0  0  0  0  0  0  0  0  0  0
  149.7547  136.0530  153.6785 H   0  0  0  0  0  0  0  0  0  0  0  0
  152.1932  138.2432  153.3852 H   0  0  0  0  0  0  0  0  0  0  0  0
  150.5148  137.9288  153.0090 H   0  0  0  0  0  0  0  0  0  0  0  0
  148.9190  139.9908  153.6426 H   0  0  0  0  0  0  0  0  0  0  0  0
  151.6099  143.5299  157.1436 H   0  0  0  0  0  0  0  0  0  0  0  0
  150.1832  142.8787  157.9586 H   0  0  0  0  0  0  0  0  0  0  0  0
  152.3888  144.0030  159.3052 H   0  0  0  0  0  0  0  0  0  0  0  0
  151.2188  142.9091  160.0336 H   0  0  0  0  0  0  0  0  0  0  0  0
  154.0015  142.2918  159.1644 H   0  0  0  0  0  0  0  0  0  0  0  0
  152.9744  141.4117  160.3104 H   0  0  0  0  0  0  0  0  0  0  0  0
  1  2  1  0  0  0  0
  1 21  1  0  0  0  0
  1 22  1  0  0  0  0
  1 23  1  0  0  0  0
  2  3  1  0  0  0  0
  2  4  1  0  0  0  0
  2  5  1  0  0  0  0
  3 24  1  0  0  0  0
  3 25  1  0  0  0  0
  3 26  1  0  0  0  0
  4 27  1  0  0  0  0
  4 28  1  0  0  0  0
  4 29  1  0  0  0  0
  5  6  1  0  0  0  0
  5 30  1  0  0  0  0
  5 31  1  0  0  0  0
  6  7  1  0  0  0  0
  6 32  1  0  0  0  0
  7  8  2  0  0  0  0
  7  9  1  0  0  0  0
  9 10  1  0  0  0  0
  9 33  1  0  0  0  0
  9 34  1  0  0  0  0
 10 20  1  0  0  0  0
 10 11  2  0  0  0  0
 11 12  1  0  0  0  0
 11 35  1  0  0  0  0
 12 13  1  0  0  0  0
 13 14  1  0  0  0  0
 13 20  2  0  0  0  0
 14 18  1  0  0  0  0
 14 15  1  0  0  0  0
 15 16  1  0  0  0  0
 15 36  1  0  0  0  0
 15 37  1  0  0  0  0
 16 17  1  0  0  0  0
 16 38  1  0  0  0  0
 16 39  1  0  0  0  0
 17 18  1  0  0  0  0
 17 40  1  0  0  0  0
 17 41  1  0  0  0  0
 18 19  2  0  0  0  0
M  END
> <s_m_source_file>
AV-unprocessed.smi

> <i_m_source_file_index>
2522

> <i_lp_mmshare_version>
43012

> <i_f3d_flags>
0

> <s_epik_input>
W0NIM11DKFtDSDNdKShbQ0gzXSlbQ0gyXVtOSF1DKD1PKVtDSDJdYzFbY0hdc2MobjEpTjJbQ0gyXVtDSDJdW0NIMl1DMj1P

> <s_epik_cmdline>
J2VwaWtfcHl0aG9uJywgJy1waCcsICc3LjAnLCAnLXRuJywgJzgnLCAnLW1hJywgJzIwMCcsICctbWV0YWxfYmluZGluZycsICctaW1hZScsICc8aW5maWxlLm1hZT4nLCAnLW9tYWUnLCAnPG91dGZpbGUubWFlPic=

> <r_lp_tautomer_probability>
1

> <r_epik_Ionization_Penalty>
2.986e-05

> <r_epik_Ionization_Penalty_Charging>
0

> <r_epik_Ionization_Penalty_Neutral>
2.986e-05

> <r_epik_State_Penalty>
-0

> <r_epik_Charging_Adjusted_Penalty>
0

> <i_epik_Tot_Q>
0

> <i_epik_Tot_abs_Q>
0

> <r_epik_Metal_State_Penalty>
-0

> <b_epik_Metal_Only>
0

> <s_lp_Force_Field>
OPLS_2005

> <r_lp_Energy>
19.1404

> <b_lp_Chiralities_Consistent>
1

> <s_lp_Variant>
AV-unprocessed.smi:2522-1

> <Gold.Version>
5.8.1

> <Gold.Id.Protein>
6NUR|6NUR_protein|mol2

> <Gold.PLP.Fitness>
48.0258

> <Gold.PLP.PLP>
-37.0976

> <Gold.PLP.part.hbond>
-3.5546

> <Gold.PLP.part.metal>
0.0000

> <Gold.PLP.part.buried>
-0.4520

> <Gold.PLP.part.nonpolar>
-31.8521

> <Gold.PLP.part.repulsive>
0.0988

> <Gold.PLP.ligand.clash>
0.0000

> <Gold.PLP.ligand.torsion>
0.2488

> <Gold.PLP.Chemscore.Hbond>
2.9760

> <Gold.PLP.Chemscore.CHOScore>
0.8303

> <Gold.PLP.Chemscore.Metal>
0.0000

> <Gold.Chemscore.Hbonds>
donor molecule, donor type, donor heavy atom, donor atom, acceptor molecule, acceptor atom, score
      L1  H     6    32       P1  7948  0.95
      P1  H  7997  8008       L1    19  1.00
      P1  H 10752 10763       L1     8  0.88
      L1  C    11    35       P1  7957  0.68

> <Gold.PLP.Chemscore.Internal.Correction>
0.0070

> <Gold.Rescore>
     Score         DG    S(hbond)    S(metal)    S(lipo)     H(rot)  DE(clash)    DE(int)     intcor
     16.00     -18.74       2.37        0.00      80.48       1.59       0.20       2.54       ----

> <Gold.Chemscore.Fitness>
15.9959

> <Gold.Chemscore.DG>
-18.7421

> <Gold.Chemscore.ZeroCoef>
-5.4800

> <Gold.Chemscore.Hbond>
2.3697

> <Gold.Chemscore.Metal>
0.0000

> <Gold.Chemscore.Lipo>
80.4754

> <Gold.Chemscore.Internal_Hbond>
0.0000

> <Gold.Chemscore.DEClash>
0.2039

> <Gold.Chemscore.DEInternal>
2.5423

> <Gold.Chemscore.Rot>
1.5892

> <Gold.Chemscore.Internal.Correction>
   9.000000E+99

> <Gold.Chemscore.Hbonds>
donor molecule, donor type, donor heavy atom, donor atom, acceptor molecule, acceptor atom, score
      L1  H     6    32       P1  7948  0.21
      P1  H  7997  8008       L1    19  0.65
      P1  H 10752 10763       L1     8  0.22

> <Gold.Chemscore.Hbond.Weighted>
-7.9149

> <Gold.Chemscore.Metal.Weighted>
-0.0000

> <Gold.Chemscore.Lipo.Weighted>
-9.4156

> <Gold.Chemscore.Internal_Hbond.Weighted>
0.0000

> <Gold.Chemscore.DEClash.Weighted>
0.2039

> <Gold.Chemscore.DEInternal.Weighted>
2.5423

> <Gold.Chemscore.Rot.Weighted>
4.0684

> <Gold.Chemscore.Internal.Correction.Weighted>
   9.000000E+99

> <Gold.Protein.RotatedTorsions>
[ 6907 6896 6895 6894 ] final  111.91 input  -60.11 | X-H torsion
[ 7974 7965 7964 7962 ] final  -91.74 input  175.53 | X-H torsion
[ 8008 7997 7996 7995 ] final  -85.45 input   59.86 | X-H torsion
[ 10167 10162 10161 10158 ] final   89.44 input  -65.29 | X-H torsion
[ 10718 10713 10712 10709 ] final -158.81 input   66.30 | X-H torsion
[ 10763 10752 10751 10750 ] final   95.24 input  -60.55 | X-H torsion
[ 11005 11000 10999 10996 ] final   91.54 input  -57.11 | X-H torsion

> <Gold.Protein.ActiveResidues>
 VAL166  LYS551  ARG553  GLY616  TRP617  ASP618  TYR619  PRO620  LYS621  CYS622 
 ASP623  PHE694  ASN695  SER759  ASP760  ASP761  ALA762  ILE779  LEU786  VAL792 
 PHE793  MET794  SER795  GLU796  ALA797  LYS798  CYS799  TRP800  GLU811  SER814 

> <Gold.Protein.RotatedAtoms>
  152.4944  133.8590  159.7240 H   0  0  0  0  0  0  0  0  0  0  0  0  # atno 6907 bound_to 6896
  150.9107  133.6992  159.2862 H   0  0  0  0  0  0  0  0  0  0  0  0  # atno 6908 bound_to 6896
  151.4403  135.1023  159.9720 H   0  0  0  0  0  0  0  0  0  0  0  0  # atno 6909 bound_to 6896
  145.4091  140.9543  143.2244 H   0  0  0  0  0  0  0  0  0  0  0  0  # atno 7974 bound_to 7965
  154.6408  140.0591  156.9844 H   0  0  0  0  0  0  0  0  0  0  0  0  # atno 8008 bound_to 7997
  155.1519  140.3275  155.4411 H   0  0  0  0  0  0  0  0  0  0  0  0  # atno 8009 bound_to 7997
  156.2530  140.1946  156.6631 H   0  0  0  0  0  0  0  0  0  0  0  0  # atno 8010 bound_to 7997
  139.8572  144.6563  150.9100 H   0  0  0  0  0  0  0  0  0  0  0  0  # atno 10167 bound_to 10162
  156.5593  130.8640  151.2804 H   0  0  0  0  0  0  0  0  0  0  0  0  # atno 10718 bound_to 10713
  153.2508  135.4261  155.0796 H   0  0  0  0  0  0  0  0  0  0  0  0  # atno 10763 bound_to 10752
  154.8381  135.3425  154.6515 H   0  0  0  0  0  0  0  0  0  0  0  0  # atno 10764 bound_to 10752
  153.6936  135.7032  153.5139 H   0  0  0  0  0  0  0  0  0  0  0  0  # atno 10765 bound_to 10752
  139.8837  134.8680  156.3442 H   0  0  0  0  0  0  0  0  0  0  0  0  # atno 11005 bound_to 11000
  144.8321  139.5610  143.6939 LP  0  0  0  0  0  0  0  0  0  0  0  0  # atno 17320 bound_to 7965
  146.2714  139.6644  142.9293 LP  0  0  0  0  0  0  0  0  0  0  0  0  # atno 17321 bound_to 7965
  140.7780  143.3775  151.1536 LP  0  0  0  0  0  0  0  0  0  0  0  0  # atno 17342 bound_to 10162
  139.7408  143.8928  152.3049 LP  0  0  0  0  0  0  0  0  0  0  0  0  # atno 17343 bound_to 10162
  157.7372  130.9791  150.2177 LP  0  0  0  0  0  0  0  0  0  0  0  0  # atno 17370 bound_to 10713
  156.2813  130.3734  149.7932 LP  0  0  0  0  0  0  0  0  0  0  0  0  # atno 17371 bound_to 10713
  140.9638  133.7371  156.0438 LP  0  0  0  0  0  0  0  0  0  0  0  0  # atno 17394 bound_to 11000
  140.7957  134.3567  157.5453 LP  0  0  0  0  0  0  0  0  0  0  0  0  # atno 17395 bound_to 11000

$$$$
