AV-unprocessed.smi:1844|AV-procd|sdf|7511|dock6
  -GOLD-   22720 9213D 1   1.00000     0.00000
 Structure written by MMmdl.
 45 46  0  0  0  0  0  0  0  0  1 V2000
  147.1946  141.5128  153.1797 C   0  0  0  0  0  0  0  0  0  0  0  0
  148.3421  140.7512  153.6494 N   0  0  0  0  0  0  0  0  0  0  0  0
  148.8227  140.7942  154.9030 C   0  0  0  0  0  0  0  0  0  0  0  0
  148.3085  141.5041  155.7689 O   0  0  0  0  0  0  0  0  0  0  0  0
  149.9879  139.9333  155.1201 C   0  0  0  0  0  0  0  0  0  0  0  0
  150.4858  138.9990  154.1213 C   0  0  0  0  0  0  0  0  0  0  0  0
  151.5797  138.2515  154.3669 C   0  0  0  0  0  0  0  0  0  0  0  0
  152.3088  138.3430  155.6351 C   0  0  0  0  0  0  0  0  0  0  0  0
  153.3235  137.6814  155.8540 O   0  0  0  0  0  0  0  0  0  0  0  0
  151.7948  139.2156  156.5538 N   0  0  0  0  0  0  0  0  0  0  0  0
  152.4446  139.4096  157.8629 C   0  0  0  0  0  0  0  0  0  0  0  0
  152.1367  140.7576  158.5379 C   0  0  0  0  0  0  0  0  0  0  0  0
  150.9834  141.0008  158.8906 O   0  0  0  0  0  0  0  0  0  0  0  0
  153.1492  141.6248  158.7082 N   0  0  0  0  0  0  0  0  0  0  0  0
  153.0465  142.9638  159.2794 C   0  0  1  0  0  0  0  0  0  0  0  0
  152.2406  143.8796  158.3344 C   0  0  0  0  0  0  0  0  0  0  0  0
  152.0565  145.2830  158.9296 C   0  0  0  0  0  0  0  0  0  0  0  0
  151.4008  145.2130  160.3157 C   0  0  0  0  0  0  0  0  0  0  0  0
  152.2061  144.3101  161.2624 C   0  0  0  0  0  0  0  0  0  0  0  0
  152.3932  142.8937  160.6822 C   0  0  2  0  0  0  0  0  0  0  0  0
  153.1835  142.0048  161.6602 C   0  0  0  0  0  0  0  0  0  0  0  0
  150.6550  139.9998  156.2887 C   0  0  0  0  0  0  0  0  0  0  0  0
  147.0004  141.2834  152.1319 H   0  0  0  0  0  0  0  0  0  0  0  0
  147.3783  142.5846  153.2662 H   0  0  0  0  0  0  0  0  0  0  0  0
  146.3011  141.2645  153.7541 H   0  0  0  0  0  0  0  0  0  0  0  0
  148.8022  140.1510  152.9803 H   0  0  0  0  0  0  0  0  0  0  0  0
  149.9946  138.8817  153.1667 H   0  0  0  0  0  0  0  0  0  0  0  0
  151.9302  137.5654  153.6100 H   0  0  0  0  0  0  0  0  0  0  0  0
  152.1399  138.6144  158.5448 H   0  0  0  0  0  0  0  0  0  0  0  0
  153.5276  139.3042  157.7790 H   0  0  0  0  0  0  0  0  0  0  0  0
  154.0649  141.3420  158.3909 H   0  0  0  0  0  0  0  0  0  0  0  0
  154.0514  143.3761  159.3928 H   0  0  0  0  0  0  0  0  0  0  0  0
  152.7406  143.9589  157.3684 H   0  0  0  0  0  0  0  0  0  0  0  0
  151.2621  143.4386  158.1388 H   0  0  0  0  0  0  0  0  0  0  0  0
  153.0257  145.7772  159.0068 H   0  0  0  0  0  0  0  0  0  0  0  0
  151.4501  145.8942  158.2608 H   0  0  0  0  0  0  0  0  0  0  0  0
  151.3180  146.2145  160.7389 H   0  0  0  0  0  0  0  0  0  0  0  0
  150.3834  144.8317  160.2212 H   0  0  0  0  0  0  0  0  0  0  0  0
  153.1809  144.7617  161.4517 H   0  0  0  0  0  0  0  0  0  0  0  0
  151.7010  144.2548  162.2274 H   0  0  0  0  0  0  0  0  0  0  0  0
  151.4019  142.4512  160.5709 H   0  0  0  0  0  0  0  0  0  0  0  0
  154.2018  142.3715  161.7919 H   0  0  0  0  0  0  0  0  0  0  0  0
  153.2432  140.9731  161.3125 H   0  0  0  0  0  0  0  0  0  0  0  0
  152.7087  141.9855  162.6415 H   0  0  0  0  0  0  0  0  0  0  0  0
  150.3778  140.6648  157.0952 H   0  0  0  0  0  0  0  0  0  0  0  0
  1  2  1  0  0  0  0
  1 23  1  0  0  0  0
  1 24  1  0  0  0  0
  1 25  1  0  0  0  0
  2  3  1  0  0  0  0
  2 26  1  0  0  0  0
  3  4  2  0  0  0  0
  3  5  1  0  0  0  0
  5 22  2  0  0  0  0
  5  6  1  0  0  0  0
  6  7  2  0  0  0  0
  6 27  1  0  0  0  0
  7  8  1  0  0  0  0
  7 28  1  0  0  0  0
  8  9  2  0  0  0  0
  8 10  1  0  0  0  0
 10 11  1  0  0  0  0
 10 22  1  0  0  0  0
 11 12  1  0  0  0  0
 11 29  1  0  0  0  0
 11 30  1  0  0  0  0
 12 13  2  0  0  0  0
 12 14  1  0  0  0  0
 14 15  1  0  0  0  0
 14 31  1  0  0  0  0
 15 20  1  0  0  0  0
 15 16  1  0  0  0  0
 15 32  1  0  0  0  0
 16 17  1  0  0  0  0
 16 33  1  0  0  0  0
 16 34  1  0  0  0  0
 17 18  1  0  0  0  0
 17 35  1  0  0  0  0
 17 36  1  0  0  0  0
 18 19  1  0  0  0  0
 18 37  1  0  0  0  0
 18 38  1  0  0  0  0
 19 20  1  0  0  0  0
 19 39  1  0  0  0  0
 19 40  1  0  0  0  0
 20 21  1  0  0  0  0
 20 41  1  0  0  0  0
 21 42  1  0  0  0  0
 21 43  1  0  0  0  0
 21 44  1  0  0  0  0
 22 45  1  0  0  0  0
M  END
> <s_m_source_file>
AV-unprocessed.smi

> <i_m_source_file_index>
1844

> <i_lp_mmshare_version>
43012

> <i_f3d_flags>
0

> <s_epik_input>
W0NIM11bTkhdQyg9TyljMVtjSF1bY0hdYyg9TyluKFtjSF0xKVtDSDJdQyg9TylbTkhdW0NAQEhdMltDSDJdW0NIMl1bQ0gyXVtDSDJdW0NASF0yW0NIM10=

> <s_epik_cmdline>
J2VwaWtfcHl0aG9uJywgJy1waCcsICc3LjAnLCAnLXRuJywgJzgnLCAnLW1hJywgJzIwMCcsICctbWV0YWxfYmluZGluZycsICctaW1hZScsICc8aW5maWxlLm1hZT4nLCAnLW9tYWUnLCAnPG91dGZpbGUubWFlPic=

> <r_lp_tautomer_probability>
1

> <r_epik_Ionization_Penalty>
3.66612e-07

> <r_epik_Ionization_Penalty_Charging>
5.18929e-08

> <r_epik_Ionization_Penalty_Neutral>
3.14719e-07

> <r_epik_State_Penalty>
-0

> <r_epik_Charging_Adjusted_Penalty>
5.18929e-08

> <i_epik_Tot_Q>
0

> <i_epik_Tot_abs_Q>
0

> <r_epik_Metal_State_Penalty>
-0

> <b_epik_Metal_Only>
0

> <s_lp_Force_Field>
OPLS_2005

> <r_lp_Energy>
22.567

> <b_lp_Chiralities_Consistent>
1

> <s_lp_Variant>
AV-unprocessed.smi:1844-4

> <Gold.Version>
5.8.1

> <Gold.Id.Protein>
6NUR|6NUR_protein|mol2

> <Gold.PLP.Fitness>
52.1541

> <Gold.PLP.PLP>
-49.7888

> <Gold.PLP.part.hbond>
-2.0000

> <Gold.PLP.part.metal>
0.0000

> <Gold.PLP.part.buried>
-5.2405

> <Gold.PLP.part.nonpolar>
-42.3299

> <Gold.PLP.part.repulsive>
0.3625

> <Gold.PLP.ligand.clash>
0.0000

> <Gold.PLP.ligand.torsion>
0.4109

> <Gold.PLP.Chemscore.Hbond>
1.0515

> <Gold.PLP.Chemscore.CHOScore>
0.0000

> <Gold.PLP.Chemscore.Metal>
0.0000

> <Gold.Chemscore.Hbonds>
donor molecule, donor type, donor heavy atom, donor atom, acceptor molecule, acceptor atom, score
      L1  H     2    26       P1  7957  0.90
      P1  H 10752 10763       L1     9  0.10

> <Gold.PLP.Chemscore.Internal.Correction>
0.0326

> <Gold.Rescore>
     Score         DG    S(hbond)    S(metal)    S(lipo)     H(rot)  DE(clash)    DE(int)     intcor
     16.40     -19.62       0.95        0.00     126.31       1.49       0.53       2.69       ----

> <Gold.Chemscore.Fitness>
16.3992

> <Gold.Chemscore.DG>
-19.6164

> <Gold.Chemscore.ZeroCoef>
-5.4800

> <Gold.Chemscore.Hbond>
0.9517

> <Gold.Chemscore.Metal>
0.0000

> <Gold.Chemscore.Lipo>
126.3076

> <Gold.Chemscore.Internal_Hbond>
0.0000

> <Gold.Chemscore.DEClash>
0.5319

> <Gold.Chemscore.DEInternal>
2.6854

> <Gold.Chemscore.Rot>
1.4923

> <Gold.Chemscore.Internal.Correction>
   9.000000E+99

> <Gold.Chemscore.Hbonds>
donor molecule, donor type, donor heavy atom, donor atom, acceptor molecule, acceptor atom, score
      L1  H     2    26       P1  7957  0.85
      P1  H 10752 10763       L1     9  0.10

> <Gold.Chemscore.Hbond.Weighted>
-3.1788

> <Gold.Chemscore.Metal.Weighted>
-0.0000

> <Gold.Chemscore.Lipo.Weighted>
-14.7780

> <Gold.Chemscore.Internal_Hbond.Weighted>
0.0000

> <Gold.Chemscore.DEClash.Weighted>
0.5319

> <Gold.Chemscore.DEInternal.Weighted>
2.6854

> <Gold.Chemscore.Rot.Weighted>
3.8204

> <Gold.Chemscore.Internal.Correction.Weighted>
   9.000000E+99

> <Gold.Protein.RotatedTorsions>
[ 6907 6896 6895 6894 ] final  151.58 input  -60.11 | X-H torsion
[ 7974 7965 7964 7962 ] final    5.20 input  175.53 | X-H torsion
[ 8008 7997 7996 7995 ] final -138.29 input   59.86 | X-H torsion
[ 10167 10162 10161 10158 ] final  -45.31 input  -65.29 | X-H torsion
[ 10718 10713 10712 10709 ] final   24.45 input   66.30 | X-H torsion
[ 10763 10752 10751 10750 ] final  105.72 input  -60.55 | X-H torsion
[ 11005 11000 10999 10996 ] final -109.83 input  -57.11 | X-H torsion

> <Gold.Protein.ActiveResidues>
 VAL166  LYS551  ARG553  GLY616  TRP617  ASP618  TYR619  PRO620  LYS621  CYS622 
 ASP623  PHE694  ASN695  SER759  ASP760  ASP761  ALA762  ILE779  LEU786  VAL792 
 PHE793  MET794  SER795  GLU796  ALA797  LYS798  CYS799  TRP800  GLU811  SER814 

> <Gold.Protein.RotatedAtoms>
  152.0987  133.4238  159.4576 H   0  0  0  0  0  0  0  0  0  0  0  0  # atno 6907 bound_to 6896
  150.6863  134.2786  159.4627 H   0  0  0  0  0  0  0  0  0  0  0  0  # atno 6908 bound_to 6896
  152.0645  134.9573  160.0625 H   0  0  0  0  0  0  0  0  0  0  0  0  # atno 6909 bound_to 6896
  146.2441  140.0419  142.8381 H   0  0  0  0  0  0  0  0  0  0  0  0  # atno 7974 bound_to 7965
  155.4259  140.0521  157.3022 H   0  0  0  0  0  0  0  0  0  0  0  0  # atno 8008 bound_to 7997
  154.4882  140.2109  155.9567 H   0  0  0  0  0  0  0  0  0  0  0  0  # atno 8009 bound_to 7997
  156.1304  140.3172  155.8346 H   0  0  0  0  0  0  0  0  0  0  0  0  # atno 8010 bound_to 7997
  140.6863  143.2886  151.3620 H   0  0  0  0  0  0  0  0  0  0  0  0  # atno 10167 bound_to 10162
  157.1800  130.6798  149.6109 H   0  0  0  0  0  0  0  0  0  0  0  0  # atno 10718 bound_to 10713
  153.3833  135.3900  155.1872 H   0  0  0  0  0  0  0  0  0  0  0  0  # atno 10763 bound_to 10752
  154.8710  135.3730  154.4830 H   0  0  0  0  0  0  0  0  0  0  0  0  # atno 10764 bound_to 10752
  153.5309  135.7086  153.5745 H   0  0  0  0  0  0  0  0  0  0  0  0  # atno 10765 bound_to 10752
  141.0826  133.9194  157.2256 H   0  0  0  0  0  0  0  0  0  0  0  0  # atno 11005 bound_to 11000
  145.1062  140.9376  143.4684 LP  0  0  0  0  0  0  0  0  0  0  0  0  # atno 17320 bound_to 7965
  145.0623  139.3096  143.5874 LP  0  0  0  0  0  0  0  0  0  0  0  0  # atno 17321 bound_to 7965
  139.6225  144.0880  152.2404 LP  0  0  0  0  0  0  0  0  0  0  0  0  # atno 17342 bound_to 10162
  140.0328  144.6067  150.7474 LP  0  0  0  0  0  0  0  0  0  0  0  0  # atno 17343 bound_to 10162
  155.9726  130.4650  150.6237 LP  0  0  0  0  0  0  0  0  0  0  0  0  # atno 17370 bound_to 10713
  157.3962  131.0803  151.1350 LP  0  0  0  0  0  0  0  0  0  0  0  0  # atno 17371 bound_to 10713
  139.9641  135.0146  156.9339 LP  0  0  0  0  0  0  0  0  0  0  0  0  # atno 17394 bound_to 11000
  140.5435  134.0697  155.7348 LP  0  0  0  0  0  0  0  0  0  0  0  0  # atno 17395 bound_to 11000

$$$$
