AV-unprocessed.smi:1997|AV-procd|sdf|8086|dock4
  -GOLD-   2272010303D 1   1.00000     0.00000
 Structure written by MMmdl.
 37 39  0  0  0  0  0  0  0  0  1 V2000
  145.7359  135.2834  154.5982 O   0  0  0  0  0  0  0  0  0  0  0  0
  146.6152  135.6014  153.7968 C   0  0  0  0  0  0  0  0  0  0  0  0
  147.5824  136.5078  154.0216 N   0  0  0  0  0  0  0  0  0  0  0  0
  147.8090  137.2818  155.1904 C   0  0  0  0  0  0  0  0  0  0  0  0
  147.0059  137.2649  156.2631 N   0  0  0  0  0  0  0  0  0  0  0  0
  147.4606  138.1126  157.2636 N   0  0  0  0  0  0  0  0  0  0  0  0
  148.5907  138.7426  156.9217 C   0  0  0  0  0  0  0  0  0  0  0  0
  149.2730  139.7065  157.8344 C   0  0  0  0  0  0  0  0  0  0  0  0
  150.4507  140.5372  157.3727 C   0  0  0  0  0  0  0  0  0  0  0  0
  150.6597  139.4212  158.3640 C   0  0  0  0  0  0  0  0  0  0  0  0
  149.2002  138.3443  155.3184 S   0  0  0  0  0  0  0  0  0  0  0  0
  146.7201  135.0755  152.5667 N   0  0  0  0  0  0  0  0  0  0  0  0
  145.8056  134.0902  151.9850 C   0  0  2  0  0  0  0  0  0  0  0  0
  146.5085  133.4660  150.7577 C   0  0  0  0  0  0  0  0  0  0  0  0
  145.9552  132.0857  150.3625 C   0  0  0  0  0  0  0  0  0  0  0  0
  144.4974  132.0843  149.8772 C   0  0  0  0  0  0  0  0  0  0  0  0
  143.4896  132.5491  150.9424 C   0  0  0  0  0  0  0  0  0  0  0  0
  143.4822  133.9980  151.0948 N   0  0  0  0  0  0  0  0  0  0  0  0
  144.4923  134.7674  151.5281 C   0  0  0  0  0  0  0  0  0  0  0  0
  144.3737  135.9925  151.5545 O   0  0  0  0  0  0  0  0  0  0  0  0
  148.2296  136.6688  153.2639 H   0  0  0  0  0  0  0  0  0  0  0  0
  148.5559  140.1713  158.5081 H   0  0  0  0  0  0  0  0  0  0  0  0
  150.8282  140.3819  156.3639 H   0  0  0  0  0  0  0  0  0  0  0  0
  150.5205  141.5579  157.7434 H   0  0  0  0  0  0  0  0  0  0  0  0
  150.8682  139.6964  159.3958 H   0  0  0  0  0  0  0  0  0  0  0  0
  151.1618  138.5231  158.0097 H   0  0  0  0  0  0  0  0  0  0  0  0
  147.4705  135.3987  151.9741 H   0  0  0  0  0  0  0  0  0  0  0  0
  145.5920  133.3198  152.7285 H   0  0  0  0  0  0  0  0  0  0  0  0
  146.4790  134.1436  149.9025 H   0  0  0  0  0  0  0  0  0  0  0  0
  147.5671  133.3313  150.9852 H   0  0  0  0  0  0  0  0  0  0  0  0
  146.5821  131.6747  149.5706 H   0  0  0  0  0  0  0  0  0  0  0  0
  146.0571  131.4010  151.2054 H   0  0  0  0  0  0  0  0  0  0  0  0
  144.3989  132.6906  148.9756 H   0  0  0  0  0  0  0  0  0  0  0  0
  144.2412  131.0665  149.5815 H   0  0  0  0  0  0  0  0  0  0  0  0
  142.4855  132.2535  150.6375 H   0  0  0  0  0  0  0  0  0  0  0  0
  143.6741  132.0635  151.9018 H   0  0  0  0  0  0  0  0  0  0  0  0
  142.6343  134.4706  150.8163 H   0  0  0  0  0  0  0  0  0  0  0  0
  1  2  2  0  0  0  0
  2  3  1  0  0  0  0
  2 12  1  0  0  0  0
  3  4  1  0  0  0  0
  3 21  1  0  0  0  0
  4 11  1  0  0  0  0
  4  5  2  0  0  0  0
  5  6  1  0  0  0  0
  6  7  2  0  0  0  0
  7  8  1  0  0  0  0
  7 11  1  0  0  0  0
  8 10  1  0  0  0  0
  8  9  1  0  0  0  0
  8 22  1  0  0  0  0
  9 10  1  0  0  0  0
  9 23  1  0  0  0  0
  9 24  1  0  0  0  0
 10 25  1  0  0  0  0
 10 26  1  0  0  0  0
 12 13  1  0  0  0  0
 12 27  1  0  0  0  0
 13 19  1  0  0  0  0
 13 14  1  0  0  0  0
 13 28  1  0  0  0  0
 14 15  1  0  0  0  0
 14 29  1  0  0  0  0
 14 30  1  0  0  0  0
 15 16  1  0  0  0  0
 15 31  1  0  0  0  0
 15 32  1  0  0  0  0
 16 17  1  0  0  0  0
 16 33  1  0  0  0  0
 16 34  1  0  0  0  0
 17 18  1  0  0  0  0
 17 35  1  0  0  0  0
 17 36  1  0  0  0  0
 18 19  1  0  0  0  0
 18 37  1  0  0  0  0
 19 20  2  0  0  0  0
M  END
> <s_m_source_file>
AV-unprocessed.smi

> <i_m_source_file_index>
1997

> <i_lp_mmshare_version>
43012

> <i_f3d_flags>
0

> <s_epik_input>
W0NIMl0xW0NIMl1bQ0hdMWMoczIpbm5jMltOSF1DKD1PKVtOSF1bQ0BASF0zW0NIMl1bQ0gyXVtDSDJdW0NIMl1bTkhdQzM9Tw==

> <s_epik_cmdline>
J2VwaWtfcHl0aG9uJywgJy1waCcsICc3LjAnLCAnLXRuJywgJzgnLCAnLW1hJywgJzIwMCcsICctbWV0YWxfYmluZGluZycsICctaW1hZScsICc8aW5maWxlLm1hZT4nLCAnLW9tYWUnLCAnPG91dGZpbGUubWFlPic=

> <r_lp_tautomer_probability>
1

> <r_epik_Ionization_Penalty>
0.000421558

> <r_epik_Ionization_Penalty_Charging>
0

> <r_epik_Ionization_Penalty_Neutral>
0.000421558

> <r_epik_State_Penalty>
-0

> <r_epik_Charging_Adjusted_Penalty>
0

> <i_epik_Tot_Q>
0

> <i_epik_Tot_abs_Q>
0

> <r_epik_Metal_State_Penalty>
0.200761

> <b_epik_Metal_Only>
0

> <s_lp_Force_Field>
OPLS_2005

> <r_lp_Energy>
8.57521

> <b_lp_Chiralities_Consistent>
1

> <s_lp_Variant>
AV-unprocessed.smi:1997-1

> <Gold.Version>
5.8.1

> <Gold.Id.Protein>
6NUR|6NUR_protein|mol2

> <Gold.PLP.Fitness>
33.2623

> <Gold.PLP.PLP>
-24.8614

> <Gold.PLP.part.hbond>
-3.0000

> <Gold.PLP.part.metal>
0.0000

> <Gold.PLP.part.buried>
-4.1253

> <Gold.PLP.part.nonpolar>
-18.0106

> <Gold.PLP.part.repulsive>
0.2972

> <Gold.PLP.ligand.clash>
0.0000

> <Gold.PLP.ligand.torsion>
0.2908

> <Gold.PLP.Chemscore.Hbond>
2.9520

> <Gold.PLP.Chemscore.CHOScore>
0.0000

> <Gold.PLP.Chemscore.Metal>
0.0000

> <Gold.Chemscore.Hbonds>
donor molecule, donor type, donor heavy atom, donor atom, acceptor molecule, acceptor atom, score
      L1  H     3    21       P1  7948  1.00
      L1  H    12    27       P1  7948  0.98
      L1  H    18    37       P1 10186  0.85

> <Gold.PLP.Chemscore.Internal.Correction>
0.1265

> <Gold.Rescore>
     Score         DG    S(hbond)    S(metal)    S(lipo)     H(rot)  DE(clash)    DE(int)     intcor
     15.37     -17.25       2.61        0.00      54.07       1.29       0.17       1.71       ----

> <Gold.Chemscore.Fitness>
15.3671

> <Gold.Chemscore.DG>
-17.2467

> <Gold.Chemscore.ZeroCoef>
-5.4800

> <Gold.Chemscore.Hbond>
2.6146

> <Gold.Chemscore.Metal>
0.0000

> <Gold.Chemscore.Lipo>
54.0687

> <Gold.Chemscore.Internal_Hbond>
0.0000

> <Gold.Chemscore.DEClash>
0.1697

> <Gold.Chemscore.DEInternal>
1.7099

> <Gold.Chemscore.Rot>
1.2860

> <Gold.Chemscore.Internal.Correction>
   9.000000E+99

> <Gold.Chemscore.Hbonds>
donor molecule, donor type, donor heavy atom, donor atom, acceptor molecule, acceptor atom, score
      L1  H     3    21       P1  7948  0.96
      L1  H    12    27       P1  7948  0.93
      L1  H    18    37       P1 10186  0.17

> <Gold.Chemscore.Hbond.Weighted>
-8.7329

> <Gold.Chemscore.Metal.Weighted>
-0.0000

> <Gold.Chemscore.Lipo.Weighted>
-6.3260

> <Gold.Chemscore.Internal_Hbond.Weighted>
0.0000

> <Gold.Chemscore.DEClash.Weighted>
0.1697

> <Gold.Chemscore.DEInternal.Weighted>
1.7099

> <Gold.Chemscore.Rot.Weighted>
3.2923

> <Gold.Chemscore.Internal.Correction.Weighted>
   9.000000E+99

> <Gold.Protein.RotatedTorsions>
[ 6907 6896 6895 6894 ] final   43.06 input  -60.11 | X-H torsion
[ 7974 7965 7964 7962 ] final   75.79 input  175.53 | X-H torsion
[ 8008 7997 7996 7995 ] final  132.06 input   59.86 | X-H torsion
[ 10167 10162 10161 10158 ] final  -93.98 input  -65.29 | X-H torsion
[ 10718 10713 10712 10709 ] final  159.32 input   66.30 | X-H torsion
[ 10763 10752 10751 10750 ] final -126.26 input  -60.55 | X-H torsion
[ 11005 11000 10999 10996 ] final  -49.38 input  -57.11 | X-H torsion

> <Gold.Protein.ActiveResidues>
 VAL166  LYS551  ARG553  GLY616  TRP617  ASP618  TYR619  PRO620  LYS621  CYS622 
 ASP623  PHE694  ASN695  SER759  ASP760  ASP761  ALA762  ILE779  LEU786  VAL792 
 PHE793  MET794  SER795  GLU796  ALA797  LYS798  CYS799  TRP800  GLU811  SER814 

> <Gold.Protein.RotatedAtoms>
  152.2156  134.8461  160.0491 H   0  0  0  0  0  0  0  0  0  0  0  0  # atno 6907 bound_to 6896
  151.9263  133.3594  159.3923 H   0  0  0  0  0  0  0  0  0  0  0  0  # atno 6908 bound_to 6896
  150.6987  134.4508  159.5379 H   0  0  0  0  0  0  0  0  0  0  0  0  # atno 6909 bound_to 6896
  145.7111  139.2615  143.1650 H   0  0  0  0  0  0  0  0  0  0  0  0  # atno 7974 bound_to 7965
  156.2978  140.2556  156.3028 H   0  0  0  0  0  0  0  0  0  0  0  0  # atno 8008 bound_to 7997
  154.9401  140.0396  157.2111 H   0  0  0  0  0  0  0  0  0  0  0  0  # atno 8009 bound_to 7997
  154.8134  140.2848  155.5841 H   0  0  0  0  0  0  0  0  0  0  0  0  # atno 8010 bound_to 7997
  140.3191  143.3060  152.0066 H   0  0  0  0  0  0  0  0  0  0  0  0  # atno 10167 bound_to 10162
  157.1658  131.0598  151.2208 H   0  0  0  0  0  0  0  0  0  0  0  0  # atno 10718 bound_to 10713
  154.8744  135.4001  154.3402 H   0  0  0  0  0  0  0  0  0  0  0  0  # atno 10763 bound_to 10752
  153.4202  135.7023  153.6304 H   0  0  0  0  0  0  0  0  0  0  0  0  # atno 10764 bound_to 10752
  153.4970  135.3736  155.2491 H   0  0  0  0  0  0  0  0  0  0  0  0  # atno 10765 bound_to 10752
  141.0756  133.6667  156.3577 H   0  0  0  0  0  0  0  0  0  0  0  0  # atno 11005 bound_to 11000
  146.0711  140.7868  142.9687 LP  0  0  0  0  0  0  0  0  0  0  0  0  # atno 17320 bound_to 7965
  144.6941  140.3344  143.7210 LP  0  0  0  0  0  0  0  0  0  0  0  0  # atno 17321 bound_to 7965
  139.4878  144.6325  151.7041 LP  0  0  0  0  0  0  0  0  0  0  0  0  # atno 17342 bound_to 10162
  140.5500  144.0441  150.6123 LP  0  0  0  0  0  0  0  0  0  0  0  0  # atno 17343 bound_to 10162
  157.4089  130.7374  149.6824 LP  0  0  0  0  0  0  0  0  0  0  0  0  # atno 17370 bound_to 10713
  155.9746  130.4100  150.3910 LP  0  0  0  0  0  0  0  0  0  0  0  0  # atno 17371 bound_to 10713
  140.5581  134.5961  157.5426 LP  0  0  0  0  0  0  0  0  0  0  0  0  # atno 17394 bound_to 11000
  139.9568  134.7521  156.0324 LP  0  0  0  0  0  0  0  0  0  0  0  0  # atno 17395 bound_to 11000

$$$$
