AV-unprocessed.smi:3293|AV-procd|sdf|12630|dock10
  -GOLD-   2272018563D 1   1.00000     0.00000
 Structure written by MMmdl.
 44 45  0  0  0  0  0  0  0  0  2 V2000
  142.9169  134.9549  152.3662 C   0  0  0  0  0  0  0  0  0  0  0  0
  143.9993  133.9990  151.8922 C   0  0  0  0  0  0  0  0  0  0  0  0
  143.6808  132.9902  151.0585 C   0  0  0  0  0  0  0  0  0  0  0  0
  144.6550  131.9376  150.5825 C   0  0  0  0  0  0  0  0  0  0  0  0
  145.8643  131.8464  151.5158 C   0  0  0  0  0  0  0  0  0  0  0  0
  146.4681  133.2336  151.7894 C   0  0  2  0  0  0  0  0  0  0  0  0
  147.7346  133.0780  152.6536 C   0  0  0  0  0  0  0  0  0  0  0  0
  145.4334  134.2185  152.4171 C   0  0  1  0  0  0  0  0  0  0  0  0
  145.9195  135.6822  152.2447 C   0  0  0  0  0  0  0  0  0  0  0  0
  146.9570  136.0645  153.2248 N   0  3  0  0  0  0  0  0  0  0  0  0
  146.7074  137.3556  153.8936 C   0  0  0  0  0  0  0  0  0  0  0  0
  147.7260  137.6021  155.0140 C   0  0  0  0  0  0  0  0  0  0  0  0
  148.5222  138.8525  154.7671 C   0  0  0  0  0  0  0  0  0  0  0  0
  149.2924  139.1854  153.6163 C   0  0  0  0  0  0  0  0  0  0  0  0
  149.8806  140.3661  153.7149 N   0  0  0  0  0  0  0  0  0  0  0  0
  149.5061  140.8287  154.9252 N   0  0  0  0  0  0  0  0  0  0  0  0
  149.9750  142.1235  155.3702 C   0  0  0  0  0  0  0  0  0  0  0  0
  148.6861  139.9371  155.5828 C   0  0  0  0  0  0  0  0  0  0  0  0
  142.9320  135.0416  153.4530 H   0  0  0  0  0  0  0  0  0  0  0  0
  141.9252  134.6042  152.0782 H   0  0  0  0  0  0  0  0  0  0  0  0
  143.0504  135.9436  151.9275 H   0  0  0  0  0  0  0  0  0  0  0  0
  142.6674  132.8880  150.6981 H   0  0  0  0  0  0  0  0  0  0  0  0
  144.1480  130.9731  150.5413 H   0  0  0  0  0  0  0  0  0  0  0  0
  144.9652  132.1813  149.5659 H   0  0  0  0  0  0  0  0  0  0  0  0
  145.5628  131.3873  152.4585 H   0  0  0  0  0  0  0  0  0  0  0  0
  146.6106  131.1840  151.0754 H   0  0  0  0  0  0  0  0  0  0  0  0
  146.7755  133.6378  150.8235 H   0  0  0  0  0  0  0  0  0  0  0  0
  147.4927  132.6868  153.6423 H   0  0  0  0  0  0  0  0  0  0  0  0
  148.2650  134.0188  152.7913 H   0  0  0  0  0  0  0  0  0  0  0  0
  148.4382  132.3851  152.1911 H   0  0  0  0  0  0  0  0  0  0  0  0
  145.3870  133.9978  153.4848 H   0  0  0  0  0  0  0  0  0  0  0  0
  146.3467  135.8387  151.2555 H   0  0  0  0  0  0  0  0  0  0  0  0
  145.0716  136.3646  152.3222 H   0  0  0  0  0  0  0  0  0  0  0  0
  147.0093  135.3430  153.9300 H   0  0  0  0  0  0  0  0  0  0  0  0
  146.7616  138.1578  153.1564 H   0  0  0  0  0  0  0  0  0  0  0  0
  145.6954  137.3579  154.3013 H   0  0  0  0  0  0  0  0  0  0  0  0
  147.2034  137.6669  155.9691 H   0  0  0  0  0  0  0  0  0  0  0  0
  148.3883  136.7395  155.0961 H   0  0  0  0  0  0  0  0  0  0  0  0
  149.4425  138.6056  152.7173 H   0  0  0  0  0  0  0  0  0  0  0  0
  149.6092  142.3289  156.3766 H   0  0  0  0  0  0  0  0  0  0  0  0
  149.6112  142.8993  154.6957 H   0  0  0  0  0  0  0  0  0  0  0  0
  151.0651  142.1392  155.3798 H   0  0  0  0  0  0  0  0  0  0  0  0
  148.2915  140.1454  156.5666 H   0  0  0  0  0  0  0  0  0  0  0  0
  147.8461  136.1151  152.7481 H   0  0  0  0  0  0  0  0  0  0  0  0
  1  2  1  0  0  0  0
  1 19  1  0  0  0  0
  1 20  1  0  0  0  0
  1 21  1  0  0  0  0
  2  8  1  0  0  0  0
  2  3  2  0  0  0  0
  3  4  1  0  0  0  0
  3 22  1  0  0  0  0
  4  5  1  0  0  0  0
  4 23  1  0  0  0  0
  4 24  1  0  0  0  0
  5  6  1  0  0  0  0
  5 25  1  0  0  0  0
  5 26  1  0  0  0  0
  6  7  1  0  0  0  0
  6  8  1  0  0  0  0
  6 27  1  0  0  0  0
  7 28  1  0  0  0  0
  7 29  1  0  0  0  0
  7 30  1  0  0  0  0
  8  9  1  0  0  0  0
  8 31  1  0  0  0  0
  9 10  1  0  0  0  0
  9 32  1  0  0  0  0
  9 33  1  0  0  0  0
 10 11  1  0  0  0  0
 10 34  1  0  0  0  0
 10 44  1  0  0  0  0
 11 12  1  0  0  0  0
 11 35  1  0  0  0  0
 11 36  1  0  0  0  0
 12 13  1  0  0  0  0
 12 37  1  0  0  0  0
 12 38  1  0  0  0  0
 13 18  2  0  0  0  0
 13 14  1  0  0  0  0
 14 15  2  0  0  0  0
 14 39  1  0  0  0  0
 15 16  1  0  0  0  0
 16 17  1  0  0  0  0
 16 18  1  0  0  0  0
 17 40  1  0  0  0  0
 17 41  1  0  0  0  0
 17 42  1  0  0  0  0
 18 43  1  0  0  0  0
M  CHG  1  10   1
M  END
> <s_m_source_file>
AV-unprocessed.smi

> <i_m_source_file_index>
3293

> <i_lp_mmshare_version>
43012

> <i_f3d_flags>
0

> <s_epik_input>
W0NIM11DMT1bQ0hdW0NIMl1bQ0gyXVtDQEBIXShbQ0gzXSlbQ0BIXTFbQ0gyXVtOSF1bQ0gyXVtDSDJdYzJbY0hdbm4oW0NIM10pW2NIXTI=

> <s_epik_cmdline>
J2VwaWtfcHl0aG9uJywgJy1waCcsICc3LjAnLCAnLXRuJywgJzgnLCAnLW1hJywgJzIwMCcsICctbWV0YWxfYmluZGluZycsICctaW1hZScsICc8aW5maWxlLm1hZT4nLCAnLW9tYWUnLCAnPG91dGZpbGUubWFlPic=

> <r_lp_tautomer_probability>
1

> <r_epik_Ionization_Penalty>
0.000598621

> <r_epik_Ionization_Penalty_Charging>
0.000582095

> <r_epik_Ionization_Penalty_Neutral>
1.65262e-05

> <r_epik_State_Penalty>
-0

> <r_epik_Charging_Adjusted_Penalty>
0.000582095

> <i_epik_Tot_Q>
1

> <i_epik_Tot_abs_Q>
1

> <r_epik_Metal_State_Penalty>
-0

> <b_epik_Metal_Only>
0

> <s_lp_Force_Field>
OPLS_2005

> <r_lp_Energy>
11.6167

> <b_lp_Chiralities_Consistent>
1

> <s_lp_Variant>
AV-unprocessed.smi:3293-2

> <Gold.Version>
5.8.1

> <Gold.Id.Protein>
6NUR|6NUR_protein|mol2

> <Gold.PLP.Fitness>
41.7346

> <Gold.PLP.PLP>
-29.4486

> <Gold.PLP.part.hbond>
-2.0000

> <Gold.PLP.part.metal>
0.0000

> <Gold.PLP.part.buried>
-3.8335

> <Gold.PLP.part.nonpolar>
-24.4321

> <Gold.PLP.part.repulsive>
0.1243

> <Gold.PLP.ligand.clash>
0.0000

> <Gold.PLP.ligand.torsion>
0.9772

> <Gold.PLP.Chemscore.Hbond>
3.0000

> <Gold.PLP.Chemscore.CHOScore>
1.7272

> <Gold.PLP.Chemscore.Metal>
0.0000

> <Gold.Chemscore.Hbonds>
donor molecule, donor type, donor heavy atom, donor atom, acceptor molecule, acceptor atom, score
      L1  H    10    44       P1  7948  1.43
      P1  H  7989  7998       L1    15  0.64
      L1  C    14    39       P1  7948  1.00
      L1  C    14    39       P1  7957  0.52

> <Gold.PLP.Chemscore.Internal.Correction>
0.0588

> <Gold.Rescore>
     Score         DG    S(hbond)    S(metal)    S(lipo)     H(rot)  DE(clash)    DE(int)     intcor
     15.26     -16.35       1.92        0.00      70.71       1.48       0.07       1.03       ----

> <Gold.Chemscore.Fitness>
15.2595

> <Gold.Chemscore.DG>
-16.3518

> <Gold.Chemscore.ZeroCoef>
-5.4800

> <Gold.Chemscore.Hbond>
1.9162

> <Gold.Chemscore.Metal>
0.0000

> <Gold.Chemscore.Lipo>
70.7056

> <Gold.Chemscore.Internal_Hbond>
0.0000

> <Gold.Chemscore.DEClash>
0.0650

> <Gold.Chemscore.DEInternal>
1.0272

> <Gold.Chemscore.Rot>
1.4847

> <Gold.Chemscore.Internal.Correction>
   9.000000E+99

> <Gold.Chemscore.Hbonds>
donor molecule, donor type, donor heavy atom, donor atom, acceptor molecule, acceptor atom, score
      L1  H    10    44       P1  7948  0.71
      P1  H  7989  7998       L1    15  0.39
      P1  H  8011  8017       L1    15  0.01

> <Gold.Chemscore.Hbond.Weighted>
-6.4000

> <Gold.Chemscore.Metal.Weighted>
-0.0000

> <Gold.Chemscore.Lipo.Weighted>
-8.2726

> <Gold.Chemscore.Internal_Hbond.Weighted>
0.0000

> <Gold.Chemscore.DEClash.Weighted>
0.0650

> <Gold.Chemscore.DEInternal.Weighted>
1.0272

> <Gold.Chemscore.Rot.Weighted>
3.8008

> <Gold.Chemscore.Internal.Correction.Weighted>
   9.000000E+99

> <Gold.Protein.RotatedTorsions>
[ 6907 6896 6895 6894 ] final  -80.18 input  -60.11 | X-H torsion
[ 7974 7965 7964 7962 ] final -177.16 input  175.53 | X-H torsion
[ 8008 7997 7996 7995 ] final -160.80 input   59.86 | X-H torsion
[ 10167 10162 10161 10158 ] final  101.40 input  -65.29 | X-H torsion
[ 10718 10713 10712 10709 ] final  126.86 input   66.30 | X-H torsion
[ 10763 10752 10751 10750 ] final  147.90 input  -60.55 | X-H torsion
[ 11005 11000 10999 10996 ] final  -73.24 input  -57.11 | X-H torsion

> <Gold.Protein.ActiveResidues>
 VAL166  LYS551  ARG553  GLY616  TRP617  ASP618  TYR619  PRO620  LYS621  CYS622 
 ASP623  PHE694  ASN695  SER759  ASP760  ASP761  ALA762  ILE779  LEU786  VAL792 
 PHE793  MET794  SER795  GLU796  ALA797  LYS798  CYS799  TRP800  GLU811  SER814 

> <Gold.Protein.RotatedAtoms>
  150.6934  134.4009  159.5118 H   0  0  0  0  0  0  0  0  0  0  0  0  # atno 6907 bound_to 6896
  152.1783  134.8773  160.0538 H   0  0  0  0  0  0  0  0  0  0  0  0  # atno 6908 bound_to 6896
  151.9773  133.3711  159.4131 H   0  0  0  0  0  0  0  0  0  0  0  0  # atno 6909 bound_to 6896
  144.7127  140.1061  143.6414 H   0  0  0  0  0  0  0  0  0  0  0  0  # atno 7974 bound_to 7965
  155.7828  140.0867  157.2050 H   0  0  0  0  0  0  0  0  0  0  0  0  # atno 8008 bound_to 7997
  154.3989  140.1504  156.3129 H   0  0  0  0  0  0  0  0  0  0  0  0  # atno 8009 bound_to 7997
  155.8637  140.3429  155.5776 H   0  0  0  0  0  0  0  0  0  0  0  0  # atno 8010 bound_to 7997
  139.7441  144.7003  151.0530 H   0  0  0  0  0  0  0  0  0  0  0  0  # atno 10167 bound_to 10162
  157.5382  131.1097  150.8900 H   0  0  0  0  0  0  0  0  0  0  0  0  # atno 10718 bound_to 10713
  154.0459  135.2886  155.3348 H   0  0  0  0  0  0  0  0  0  0  0  0  # atno 10763 bound_to 10752
  154.6900  135.5230  153.8382 H   0  0  0  0  0  0  0  0  0  0  0  0  # atno 10764 bound_to 10752
  153.0581  135.6603  154.0659 H   0  0  0  0  0  0  0  0  0  0  0  0  # atno 10765 bound_to 10752
  141.1620  133.6872  156.7182 H   0  0  0  0  0  0  0  0  0  0  0  0  # atno 11005 bound_to 11000
  145.9496  139.2724  143.1220 LP  0  0  0  0  0  0  0  0  0  0  0  0  # atno 17320 bound_to 7965
  145.9337  140.9030  143.0343 LP  0  0  0  0  0  0  0  0  0  0  0  0  # atno 17321 bound_to 7965
  140.7790  143.4888  150.9921 LP  0  0  0  0  0  0  0  0  0  0  0  0  # atno 17342 bound_to 10162
  139.8576  143.7356  152.3175 LP  0  0  0  0  0  0  0  0  0  0  0  0  # atno 17343 bound_to 10162
  156.9461  130.5402  149.5281 LP  0  0  0  0  0  0  0  0  0  0  0  0  # atno 17370 bound_to 10713
  156.0476  130.5550  150.8916 LP  0  0  0  0  0  0  0  0  0  0  0  0  # atno 17371 bound_to 10713
  140.2836  134.8297  157.3955 LP  0  0  0  0  0  0  0  0  0  0  0  0  # atno 17394 bound_to 11000
  140.1410  134.4971  155.8031 LP  0  0  0  0  0  0  0  0  0  0  0  0  # atno 17395 bound_to 11000

$$$$
