AV-unprocessed.smi:528|AV-procd|sdf|2837|dock4
  -GOLD-   2262023323D 1   1.00000     0.00000
 Structure written by MMmdl.
 45 47  0  0  0  0  0  0  0  0  1 V2000
  153.7925  141.1763  160.4444 C   0  0  0  0  0  0  0  0  0  0  0  0
  152.3538  141.4669  159.9908 C   0  0  2  0  0  0  0  0  0  0  0  0
  151.7776  140.2364  159.4498 N   0  0  0  0  0  0  0  0  0  0  0  0
  152.2247  139.5533  158.3842 C   0  0  0  0  0  0  0  0  0  0  0  0
  153.1860  139.9131  157.7031 O   0  0  0  0  0  0  0  0  0  0  0  0
  151.4589  138.2650  158.0513 C   0  0  0  0  0  0  0  0  0  0  0  0
  150.8316  138.2922  156.7198 N   0  0  0  0  0  0  0  0  0  0  0  0
  149.8364  139.2665  156.5085 C   0  0  0  0  0  0  0  0  0  0  0  0
  149.1614  139.3863  155.3495 C   0  0  0  0  0  0  0  0  0  0  0  0
  148.1217  140.4761  155.1405 C   0  0  0  0  0  0  0  0  0  0  0  0
  147.6024  140.4172  153.9140 F   0  0  0  0  0  0  0  0  0  0  0  0
  147.1304  140.3304  156.0187 F   0  0  0  0  0  0  0  0  0  0  0  0
  148.6534  141.6870  155.3128 F   0  0  0  0  0  0  0  0  0  0  0  0
  149.5363  138.4731  154.2876 C   0  0  0  0  0  0  0  0  0  0  0  0
  150.4890  137.5381  154.4719 C   0  0  0  0  0  0  0  0  0  0  0  0
  151.1920  137.3998  155.7495 C   0  0  0  0  0  0  0  0  0  0  0  0
  152.0500  136.5365  155.9348 O   0  0  0  0  0  0  0  0  0  0  0  0
  152.2854  142.5886  158.9246 C   0  0  1  0  0  0  0  0  0  0  0  0
  150.9053  142.7747  158.2505 C   0  0  0  0  0  0  0  0  0  0  0  0
  150.6703  144.2929  158.3508 C   0  0  1  0  0  0  0  0  0  0  0  0
  150.3176  144.6498  159.8062 C   0  0  0  0  0  0  0  0  0  0  0  0
  151.6678  144.4912  160.5283 C   0  0  0  0  0  0  0  0  0  0  0  0
  152.6099  144.0277  159.3976 C   0  0  2  0  0  0  0  0  0  0  0  0
  152.0840  144.8480  158.2235 C   0  0  0  0  0  0  0  0  0  0  0  0
  154.2397  142.0453  160.9275 H   0  0  0  0  0  0  0  0  0  0  0  0
  154.4275  140.8989  159.6024 H   0  0  0  0  0  0  0  0  0  0  0  0
  153.8180  140.3579  161.1647 H   0  0  0  0  0  0  0  0  0  0  0  0
  151.7873  141.7715  160.8709 H   0  0  0  0  0  0  0  0  0  0  0  0
  150.9775  139.8637  159.9401 H   0  0  0  0  0  0  0  0  0  0  0  0
  152.1461  137.4193  158.1133 H   0  0  0  0  0  0  0  0  0  0  0  0
  150.7198  138.0864  158.8339 H   0  0  0  0  0  0  0  0  0  0  0  0
  149.6505  139.9080  157.3579 H   0  0  0  0  0  0  0  0  0  0  0  0
  149.0424  138.5361  153.3292 H   0  0  0  0  0  0  0  0  0  0  0  0
  150.7406  136.8725  153.6591 H   0  0  0  0  0  0  0  0  0  0  0  0
  153.0051  142.3382  158.1426 H   0  0  0  0  0  0  0  0  0  0  0  0
  150.9412  142.4491  157.2103 H   0  0  0  0  0  0  0  0  0  0  0  0
  150.1072  142.2179  158.7419 H   0  0  0  0  0  0  0  0  0  0  0  0
  149.9548  144.6739  157.6217 H   0  0  0  0  0  0  0  0  0  0  0  0
  149.9613  145.6779  159.8812 H   0  0  0  0  0  0  0  0  0  0  0  0
  149.5465  143.9973  160.2178 H   0  0  0  0  0  0  0  0  0  0  0  0
  151.9969  145.4531  160.9236 H   0  0  0  0  0  0  0  0  0  0  0  0
  151.6206  143.7993  161.3681 H   0  0  0  0  0  0  0  0  0  0  0  0
  153.6659  144.1873  159.6176 H   0  0  0  0  0  0  0  0  0  0  0  0
  152.5611  144.6043  157.2727 H   0  0  0  0  0  0  0  0  0  0  0  0
  152.1417  145.9258  158.3858 H   0  0  0  0  0  0  0  0  0  0  0  0
  1  2  1  0  0  0  0
  1 25  1  0  0  0  0
  1 26  1  0  0  0  0
  1 27  1  0  0  0  0
  2  3  1  0  0  0  0
  2 18  1  0  0  0  0
  2 28  1  0  0  0  0
  3  4  1  0  0  0  0
  3 29  1  0  0  0  0
  4  5  2  0  0  0  0
  4  6  1  0  0  0  0
  6  7  1  0  0  0  0
  6 30  1  0  0  0  0
  6 31  1  0  0  0  0
  7 16  1  0  0  0  0
  7  8  1  0  0  0  0
  8  9  2  0  0  0  0
  8 32  1  0  0  0  0
  9 10  1  0  0  0  0
  9 14  1  0  0  0  0
 10 11  1  0  0  0  0
 10 12  1  0  0  0  0
 10 13  1  0  0  0  0
 14 15  2  0  0  0  0
 14 33  1  0  0  0  0
 15 16  1  0  0  0  0
 15 34  1  0  0  0  0
 16 17  2  0  0  0  0
 18 23  1  0  0  0  0
 18 19  1  0  0  0  0
 18 35  1  0  0  0  0
 19 20  1  0  0  0  0
 19 36  1  0  0  0  0
 19 37  1  0  0  0  0
 20 24  1  0  0  0  0
 20 21  1  0  0  0  0
 20 38  1  0  0  0  0
 21 22  1  0  0  0  0
 21 39  1  0  0  0  0
 21 40  1  0  0  0  0
 22 23  1  0  0  0  0
 22 41  1  0  0  0  0
 22 42  1  0  0  0  0
 23 24  1  0  0  0  0
 23 43  1  0  0  0  0
 24 44  1  0  0  0  0
 24 45  1  0  0  0  0
M  END
> <s_m_source_file>
AV-unprocessed.smi

> <i_m_source_file_index>
528

> <i_lp_mmshare_version>
43012

> <i_f3d_flags>
0

> <s_epik_input>
W0NIMl0xW0NIMl1bQ0BASF0oW0NIMl0yKVtDQEBIXShbQ0gyXVtDQEhdMTIpW0NASF0oW0NIM10pW05IXUMoPU8pW0NIMl1uM1tjSF1jKEMoRikoRilGKVtjSF1bY0hdYzM9Tw==

> <s_epik_cmdline>
J2VwaWtfcHl0aG9uJywgJy1waCcsICc3LjAnLCAnLXRuJywgJzgnLCAnLW1hJywgJzIwMCcsICctbWV0YWxfYmluZGluZycsICctaW1hZScsICc8aW5maWxlLm1hZT4nLCAnLW9tYWUnLCAnPG91dGZpbGUubWFlPic=

> <r_lp_tautomer_probability>
1

> <r_epik_Ionization_Penalty>
4.09479e-08

> <r_epik_Ionization_Penalty_Charging>
1.9321e-08

> <r_epik_Ionization_Penalty_Neutral>
2.16269e-08

> <r_epik_State_Penalty>
-0

> <r_epik_Charging_Adjusted_Penalty>
1.9321e-08

> <i_epik_Tot_Q>
0

> <i_epik_Tot_abs_Q>
0

> <r_epik_Metal_State_Penalty>
-0

> <b_epik_Metal_Only>
0

> <s_lp_Force_Field>
OPLS_2005

> <r_lp_Energy>
63.2054

> <b_lp_Chiralities_Consistent>
1

> <s_lp_Variant>
AV-unprocessed.smi:528-7

> <Gold.Version>
5.8.1

> <Gold.Id.Protein>
6NUR|6NUR_protein|mol2

> <Gold.PLP.Fitness>
53.0407

> <Gold.PLP.PLP>
-47.2485

> <Gold.PLP.part.hbond>
-1.9646

> <Gold.PLP.part.metal>
0.0000

> <Gold.PLP.part.buried>
-0.7044

> <Gold.PLP.part.nonpolar>
-45.3070

> <Gold.PLP.part.repulsive>
0.1815

> <Gold.PLP.ligand.clash>
0.0000

> <Gold.PLP.ligand.torsion>
0.1315

> <Gold.PLP.Chemscore.Hbond>
2.0000

> <Gold.PLP.Chemscore.CHOScore>
0.0000

> <Gold.PLP.Chemscore.Metal>
0.0000

> <Gold.Chemscore.Hbonds>
donor molecule, donor type, donor heavy atom, donor atom, acceptor molecule, acceptor atom, score
      P1  H  7997  8009       L1     5  1.00
      P1  H 10752 10763       L1    17  0.80

> <Gold.PLP.Chemscore.Internal.Correction>
0.0551

> <Gold.Rescore>
     Score         DG    S(hbond)    S(metal)    S(lipo)     H(rot)  DE(clash)    DE(int)     intcor
     21.76     -22.82       1.97        0.00     129.35       1.71       0.00       1.06       ----

> <Gold.Chemscore.Fitness>
21.7580

> <Gold.Chemscore.DG>
-22.8174

> <Gold.Chemscore.ZeroCoef>
-5.4800

> <Gold.Chemscore.Hbond>
1.9723

> <Gold.Chemscore.Metal>
0.0000

> <Gold.Chemscore.Lipo>
129.3501

> <Gold.Chemscore.Internal_Hbond>
0.0000

> <Gold.Chemscore.DEClash>
0.0009

> <Gold.Chemscore.DEInternal>
1.0585

> <Gold.Chemscore.Rot>
1.7125

> <Gold.Chemscore.Internal.Correction>
   9.000000E+99

> <Gold.Chemscore.Hbonds>
donor molecule, donor type, donor heavy atom, donor atom, acceptor molecule, acceptor atom, score
      P1  H  7997  8009       L1     5  0.94
      P1  H 10752 10763       L1    17  0.80

> <Gold.Chemscore.Hbond.Weighted>
-6.5874

> <Gold.Chemscore.Metal.Weighted>
-0.0000

> <Gold.Chemscore.Lipo.Weighted>
-15.1340

> <Gold.Chemscore.Internal_Hbond.Weighted>
0.0000

> <Gold.Chemscore.DEClash.Weighted>
0.0009

> <Gold.Chemscore.DEInternal.Weighted>
1.0585

> <Gold.Chemscore.Rot.Weighted>
4.3840

> <Gold.Chemscore.Internal.Correction.Weighted>
   9.000000E+99

> <Gold.Protein.RotatedTorsions>
[ 6907 6896 6895 6894 ] final  155.34 input  -60.11 | X-H torsion
[ 7974 7965 7964 7962 ] final   81.13 input  175.53 | X-H torsion
[ 8008 7997 7996 7995 ] final  157.82 input   59.86 | X-H torsion
[ 10167 10162 10161 10158 ] final  -94.54 input  -65.29 | X-H torsion
[ 10718 10713 10712 10709 ] final  -57.06 input   66.30 | X-H torsion
[ 10763 10752 10751 10750 ] final  109.76 input  -60.55 | X-H torsion
[ 11005 11000 10999 10996 ] final   -2.56 input  -57.11 | X-H torsion

> <Gold.Protein.ActiveResidues>
 VAL166  LYS551  ARG553  GLY616  TRP617  ASP618  TYR619  PRO620  LYS621  CYS622 
 ASP623  PHE694  ASN695  SER759  ASP760  ASP761  ALA762  ILE779  LEU786  VAL792 
 PHE793  MET794  SER795  GLU796  ALA797  LYS798  CYS799  TRP800  GLU811  SER814 

> <Gold.Protein.RotatedAtoms>
  152.0456  133.3996  159.4354 H   0  0  0  0  0  0  0  0  0  0  0  0  # atno 6907 bound_to 6896
  150.6873  134.3366  159.4859 H   0  0  0  0  0  0  0  0  0  0  0  0  # atno 6908 bound_to 6896
  152.1170  134.9233  160.0615 H   0  0  0  0  0  0  0  0  0  0  0  0  # atno 6909 bound_to 6896
  145.6422  139.2428  143.2024 H   0  0  0  0  0  0  0  0  0  0  0  0  # atno 7974 bound_to 7965
  156.2340  140.1875  156.7167 H   0  0  0  0  0  0  0  0  0  0  0  0  # atno 8008 bound_to 7997
  154.6073  140.0627  156.9476 H   0  0  0  0  0  0  0  0  0  0  0  0  # atno 8009 bound_to 7997
  155.2074  140.3297  155.4336 H   0  0  0  0  0  0  0  0  0  0  0  0  # atno 8010 bound_to 7997
  140.3134  143.3091  152.0124 H   0  0  0  0  0  0  0  0  0  0  0  0  # atno 10167 bound_to 10162
  156.1240  130.4164  150.0389 H   0  0  0  0  0  0  0  0  0  0  0  0  # atno 10718 bound_to 10713
  153.4393  135.3770  155.2218 H   0  0  0  0  0  0  0  0  0  0  0  0  # atno 10763 bound_to 10752
  154.8753  135.3859  154.4172 H   0  0  0  0  0  0  0  0  0  0  0  0  # atno 10764 bound_to 10752
  153.4716  135.7087  153.6054 H   0  0  0  0  0  0  0  0  0  0  0  0  # atno 10765 bound_to 10752
  140.6597  133.9331  155.8429 H   0  0  0  0  0  0  0  0  0  0  0  0  # atno 11005 bound_to 11000
  146.1271  140.7233  142.9430 LP  0  0  0  0  0  0  0  0  0  0  0  0  # atno 17320 bound_to 7965
  144.7153  140.4187  143.7049 LP  0  0  0  0  0  0  0  0  0  0  0  0  # atno 17321 bound_to 7965
  139.4889  144.6367  151.6961 LP  0  0  0  0  0  0  0  0  0  0  0  0  # atno 17342 bound_to 10162
  140.5548  144.0366  150.6143 LP  0  0  0  0  0  0  0  0  0  0  0  0  # atno 17343 bound_to 10162
  156.8320  130.9395  151.3636 LP  0  0  0  0  0  0  0  0  0  0  0  0  # atno 17370 bound_to 10713
  157.6422  130.8815  149.9470 LP  0  0  0  0  0  0  0  0  0  0  0  0  # atno 17371 bound_to 10713
  141.0474  134.0534  157.3827 LP  0  0  0  0  0  0  0  0  0  0  0  0  # atno 17394 bound_to 11000
  139.9017  135.0167  156.7299 LP  0  0  0  0  0  0  0  0  0  0  0  0  # atno 17395 bound_to 11000

$$$$
