AV-unprocessed.smi:2373|AV-procd|sdf|9440|dock5
  -GOLD-   2272013 73D 1   1.00000     0.00000
 Structure written by MMmdl.
 46 47  0  0  0  0  0  0  0  0  1 V2000
  146.8938  132.9316  150.5822 C   0  0  0  0  0  0  0  0  0  0  0  0
  145.4790  132.8546  150.9328 N   0  0  0  0  0  0  0  0  0  0  0  0
  144.7723  131.5842  150.8266 C   0  0  0  0  0  0  0  0  0  0  0  0
  144.7899  134.0210  151.3369 C   0  0  0  0  0  0  0  0  0  0  0  0
  143.4884  133.9565  151.8934 C   0  0  0  0  0  0  0  0  0  0  0  0
  142.8445  135.1484  152.2762 C   0  0  0  0  0  0  0  0  0  0  0  0
  143.5019  136.3793  152.0903 C   0  0  0  0  0  0  0  0  0  0  0  0
  142.8346  137.5647  152.5016 N   0  0  0  0  0  0  0  0  0  0  0  0
  141.6011  137.6925  153.0197 C   0  0  0  0  0  0  0  0  0  0  0  0
  140.8369  136.7607  153.2665 O   0  0  0  0  0  0  0  0  0  0  0  0
  141.3126  138.9831  153.2590 N   0  0  0  0  0  0  0  0  0  0  0  0
  140.0781  139.5521  153.8211 C   0  0  0  0  0  0  0  0  0  0  0  0
  139.7551  138.9215  155.2100 C   0  0  0  0  0  0  0  0  0  0  0  0
  139.0240  137.5649  155.1806 C   0  0  0  0  0  0  0  0  0  0  0  0
  139.0854  136.9673  156.4576 O   0  0  0  0  0  0  0  0  0  0  0  0
  140.3103  141.0809  153.9196 C   0  0  0  0  0  0  0  0  0  0  0  0
  139.0159  141.8736  154.1718 C   0  0  0  0  0  0  0  0  0  0  0  0
  138.0677  141.5873  153.1532 O   0  0  0  0  0  0  0  0  0  0  0  0
  137.6864  140.2189  153.1328 C   0  0  0  0  0  0  0  0  0  0  0  0
  138.9064  139.3317  152.8271 C   0  0  0  0  0  0  0  0  0  0  0  0
  144.8052  136.3473  151.5415 C   0  0  0  0  0  0  0  0  0  0  0  0
  145.4263  135.2067  151.1750 N   0  0  0  0  0  0  0  0  0  0  0  0
  147.4749  133.3257  151.4166 H   0  0  0  0  0  0  0  0  0  0  0  0
  147.0397  133.5834  149.7201 H   0  0  0  0  0  0  0  0  0  0  0  0
  147.2966  131.9499  150.3323 H   0  0  0  0  0  0  0  0  0  0  0  0
  143.9341  131.6679  150.1340 H   0  0  0  0  0  0  0  0  0  0  0  0
  144.3927  131.2751  151.8008 H   0  0  0  0  0  0  0  0  0  0  0  0
  145.4275  130.7943  150.4588 H   0  0  0  0  0  0  0  0  0  0  0  0
  142.9726  133.0191  152.0361 H   0  0  0  0  0  0  0  0  0  0  0  0
  141.8530  135.1133  152.7042 H   0  0  0  0  0  0  0  0  0  0  0  0
  143.3793  138.4120  152.4362 H   0  0  0  0  0  0  0  0  0  0  0  0
  142.0264  139.6554  153.0195 H   0  0  0  0  0  0  0  0  0  0  0  0
  140.6724  138.8060  155.7863 H   0  0  0  0  0  0  0  0  0  0  0  0
  139.1495  139.6202  155.7879 H   0  0  0  0  0  0  0  0  0  0  0  0
  137.9760  137.6843  154.9068 H   0  0  0  0  0  0  0  0  0  0  0  0
  139.4766  136.8835  154.4613 H   0  0  0  0  0  0  0  0  0  0  0  0
  138.2259  137.0038  156.8488 H   0  0  0  0  0  0  0  0  0  0  0  0
  141.0490  141.3217  154.6834 H   0  0  0  0  0  0  0  0  0  0  0  0
  140.7353  141.4401  152.9808 H   0  0  0  0  0  0  0  0  0  0  0  0
  138.5963  141.6547  155.1541 H   0  0  0  0  0  0  0  0  0  0  0  0
  139.2287  142.9427  154.1557 H   0  0  0  0  0  0  0  0  0  0  0  0
  137.2220  139.9428  154.0801 H   0  0  0  0  0  0  0  0  0  0  0  0
  136.9272  140.0815  152.3629 H   0  0  0  0  0  0  0  0  0  0  0  0
  139.2416  139.5581  151.8137 H   0  0  0  0  0  0  0  0  0  0  0  0
  138.5953  138.2869  152.8148 H   0  0  0  0  0  0  0  0  0  0  0  0
  145.3914  137.2420  151.4031 H   0  0  0  0  0  0  0  0  0  0  0  0
  1  2  1  0  0  0  0
  1 23  1  0  0  0  0
  1 24  1  0  0  0  0
  1 25  1  0  0  0  0
  2  3  1  0  0  0  0
  2  4  1  0  0  0  0
  3 26  1  0  0  0  0
  3 27  1  0  0  0  0
  3 28  1  0  0  0  0
  4 22  1  0  0  0  0
  4  5  2  0  0  0  0
  5  6  1  0  0  0  0
  5 29  1  0  0  0  0
  6  7  2  0  0  0  0
  6 30  1  0  0  0  0
  7  8  1  0  0  0  0
  7 21  1  0  0  0  0
  8  9  1  0  0  0  0
  8 31  1  0  0  0  0
  9 10  2  0  0  0  0
  9 11  1  0  0  0  0
 11 12  1  0  0  0  0
 11 32  1  0  0  0  0
 12 20  1  0  0  0  0
 12 13  1  0  0  0  0
 12 16  1  0  0  0  0
 13 14  1  0  0  0  0
 13 33  1  0  0  0  0
 13 34  1  0  0  0  0
 14 15  1  0  0  0  0
 14 35  1  0  0  0  0
 14 36  1  0  0  0  0
 15 37  1  0  0  0  0
 16 17  1  0  0  0  0
 16 38  1  0  0  0  0
 16 39  1  0  0  0  0
 17 18  1  0  0  0  0
 17 40  1  0  0  0  0
 17 41  1  0  0  0  0
 18 19  1  0  0  0  0
 19 20  1  0  0  0  0
 19 42  1  0  0  0  0
 19 43  1  0  0  0  0
 20 44  1  0  0  0  0
 20 45  1  0  0  0  0
 21 22  2  0  0  0  0
 21 46  1  0  0  0  0
M  END
> <s_m_source_file>
AV-unprocessed.smi

> <i_m_source_file_index>
2373

> <i_lp_mmshare_version>
43012

> <i_f3d_flags>
0

> <s_epik_input>
W0NIM11OKFtDSDNdKWMxW2NIXVtjSF1jKFtjSF1uMSlbTkhdQyg9TylbTkhdQzIoW0NIMl1bQ0gyXVtPSF0pW0NIMl1bQ0gyXU9bQ0gyXVtDSDJdMg==

> <s_epik_cmdline>
J2VwaWtfcHl0aG9uJywgJy1waCcsICc3LjAnLCAnLXRuJywgJzgnLCAnLW1hJywgJzIwMCcsICctbWV0YWxfYmluZGluZycsICctaW1hZScsICc8aW5maWxlLm1hZT4nLCAnLW9tYWUnLCAnPG91dGZpbGUubWFlPic=

> <r_lp_tautomer_probability>
1

> <r_epik_Ionization_Penalty>
0.631973

> <r_epik_Ionization_Penalty_Charging>
0

> <r_epik_Ionization_Penalty_Neutral>
0.631973

> <r_epik_State_Penalty>
0.647706

> <r_epik_Charging_Adjusted_Penalty>
0.647706

> <i_epik_Tot_Q>
0

> <i_epik_Tot_abs_Q>
0

> <r_epik_Metal_State_Penalty>
0.309159

> <b_epik_Metal_Only>
0

> <s_lp_Force_Field>
OPLS_2005

> <r_lp_Energy>
18.939

> <b_lp_Chiralities_Consistent>
1

> <s_lp_Variant>
AV-unprocessed.smi:2373-2

> <Gold.Version>
5.8.1

> <Gold.Id.Protein>
6NUR|6NUR_protein|mol2

> <Gold.PLP.Fitness>
43.2154

> <Gold.PLP.PLP>
-33.6896

> <Gold.PLP.part.hbond>
-4.2471

> <Gold.PLP.part.metal>
0.0000

> <Gold.PLP.part.buried>
-1.2824

> <Gold.PLP.part.nonpolar>
-27.8922

> <Gold.PLP.part.repulsive>
0.4687

> <Gold.PLP.ligand.clash>
0.0000

> <Gold.PLP.ligand.torsion>
0.4635

> <Gold.PLP.Chemscore.Hbond>
2.9913

> <Gold.PLP.Chemscore.CHOScore>
0.4841

> <Gold.PLP.Chemscore.Metal>
0.0000

> <Gold.Chemscore.Hbonds>
donor molecule, donor type, donor heavy atom, donor atom, acceptor molecule, acceptor atom, score
      L1  H     8    31       P1 10175  0.99
      L1  H    11    32       P1 10175  1.00
      P1  H 11000 11005       L1    15  0.80
      L1  C    21    46       P1 10171  0.37

> <Gold.PLP.Chemscore.Internal.Correction>
0.0269

> <Gold.Rescore>
     Score         DG    S(hbond)    S(metal)    S(lipo)     H(rot)  DE(clash)    DE(int)     intcor
     13.76     -17.29       2.52        0.00      74.63       2.09       0.23       3.30       ----

> <Gold.Chemscore.Fitness>
13.7616

> <Gold.Chemscore.DG>
-17.2881

> <Gold.Chemscore.ZeroCoef>
-5.4800

> <Gold.Chemscore.Hbond>
2.5200

> <Gold.Chemscore.Metal>
0.0000

> <Gold.Chemscore.Lipo>
74.6256

> <Gold.Chemscore.Internal_Hbond>
0.0000

> <Gold.Chemscore.DEClash>
0.2252

> <Gold.Chemscore.DEInternal>
3.3013

> <Gold.Chemscore.Rot>
2.0859

> <Gold.Chemscore.Internal.Correction>
   9.000000E+99

> <Gold.Chemscore.Hbonds>
donor molecule, donor type, donor heavy atom, donor atom, acceptor molecule, acceptor atom, score
      L1  H     8    31       P1 10175  0.90
      L1  H    11    32       P1 10175  0.70
      P1  H 11000 11005       L1    15  0.55

> <Gold.Chemscore.Hbond.Weighted>
-8.4168

> <Gold.Chemscore.Metal.Weighted>
-0.0000

> <Gold.Chemscore.Lipo.Weighted>
-8.7312

> <Gold.Chemscore.Internal_Hbond.Weighted>
0.0000

> <Gold.Chemscore.DEClash.Weighted>
0.2252

> <Gold.Chemscore.DEInternal.Weighted>
3.3013

> <Gold.Chemscore.Rot.Weighted>
5.3399

> <Gold.Chemscore.Internal.Correction.Weighted>
   9.000000E+99

> <Gold.Protein.RotatedTorsions>
[ 6907 6896 6895 6894 ] final  -98.07 input  -60.11 | X-H torsion
[ 7974 7965 7964 7962 ] final  -82.63 input  175.53 | X-H torsion
[ 8008 7997 7996 7995 ] final  171.00 input   59.86 | X-H torsion
[ 10167 10162 10161 10158 ] final -102.83 input  -65.29 | X-H torsion
[ 10718 10713 10712 10709 ] final  -92.31 input   66.30 | X-H torsion
[ 10763 10752 10751 10750 ] final -107.94 input  -60.55 | X-H torsion
[ 11005 11000 10999 10996 ] final  106.58 input  -57.11 | X-H torsion

> <Gold.Protein.ActiveResidues>
 VAL166  LYS551  ARG553  GLY616  TRP617  ASP618  TYR619  PRO620  LYS621  CYS622 
 ASP623  PHE694  ASN695  SER759  ASP760  ASP761  ALA762  ILE779  LEU786  VAL792 
 PHE793  MET794  SER795  GLU796  ALA797  LYS798  CYS799  TRP800  GLU811  SER814 

> <Gold.Protein.RotatedAtoms>
  150.7035  134.1251  159.4048 H   0  0  0  0  0  0  0  0  0  0  0  0  # atno 6907 bound_to 6896
  151.9237  135.0285  160.0533 H   0  0  0  0  0  0  0  0  0  0  0  0  # atno 6908 bound_to 6896
  152.2235  133.4966  159.5212 H   0  0  0  0  0  0  0  0  0  0  0  0  # atno 6909 bound_to 6896
  145.5308  140.9521  143.1604 H   0  0  0  0  0  0  0  0  0  0  0  0  # atno 7974 bound_to 7965
  156.1312  140.1523  156.9062 H   0  0  0  0  0  0  0  0  0  0  0  0  # atno 8008 bound_to 7997
  154.4911  140.0851  156.7636 H   0  0  0  0  0  0  0  0  0  0  0  0  # atno 8009 bound_to 7997
  155.4252  140.3425  155.4277 H   0  0  0  0  0  0  0  0  0  0  0  0  # atno 8010 bound_to 7997
  140.2264  143.3638  152.0925 H   0  0  0  0  0  0  0  0  0  0  0  0  # atno 10167 bound_to 10162
  156.0001  130.4982  150.5607 H   0  0  0  0  0  0  0  0  0  0  0  0  # atno 10718 bound_to 10713
  154.8106  135.4656  154.0506 H   0  0  0  0  0  0  0  0  0  0  0  0  # atno 10763 bound_to 10752
  153.1940  135.6859  153.8322 H   0  0  0  0  0  0  0  0  0  0  0  0  # atno 10764 bound_to 10752
  153.7830  135.3254  155.3345 H   0  0  0  0  0  0  0  0  0  0  0  0  # atno 10765 bound_to 10752
  139.8816  134.9373  156.5688 H   0  0  0  0  0  0  0  0  0  0  0  0  # atno 11005 bound_to 11000
  144.7627  139.6919  143.7228 LP  0  0  0  0  0  0  0  0  0  0  0  0  # atno 17320 bound_to 7965
  146.2045  139.5361  142.9721 LP  0  0  0  0  0  0  0  0  0  0  0  0  # atno 17321 bound_to 7965
  139.5125  144.6918  151.5738 LP  0  0  0  0  0  0  0  0  0  0  0  0  # atno 17342 bound_to 10162
  140.6217  143.9246  150.6531 LP  0  0  0  0  0  0  0  0  0  0  0  0  # atno 17343 bound_to 10162
  157.3516  131.0734  151.1708 LP  0  0  0  0  0  0  0  0  0  0  0  0  # atno 17370 bound_to 10713
  157.2523  130.6619  149.5937 LP  0  0  0  0  0  0  0  0  0  0  0  0  # atno 17371 bound_to 10713
  140.8114  133.8426  155.8813 LP  0  0  0  0  0  0  0  0  0  0  0  0  # atno 17394 bound_to 11000
  140.9503  134.1788  157.4733 LP  0  0  0  0  0  0  0  0  0  0  0  0  # atno 17395 bound_to 11000

$$$$
