AV-unprocessed.smi:2812|AV-procd|sdf|10836|dock7
  -GOLD-   2272015273D 1   1.00000     0.00000
 Structure written by MMmdl.
 55 56  0  0  0  0  0  0  0  0  2 V2000
  151.8802  144.6596  159.4426 C   0  0  0  0  0  0  0  0  0  0  0  0
  152.2559  143.1985  159.6320 C   0  0  0  0  0  0  0  0  0  0  0  0
  153.2466  142.8491  160.6289 C   0  0  0  0  0  0  0  0  0  0  0  0
  153.5915  141.5651  160.7942 C   0  0  0  0  0  0  0  0  0  0  0  0
  153.0054  140.5417  160.0358 N   0  0  0  0  0  0  0  0  0  0  0  0
  153.4380  139.1672  160.3019 C   0  0  0  0  0  0  0  0  0  0  0  0
  152.0426  140.7867  159.1012 C   0  0  0  0  0  0  0  0  0  0  0  0
  151.4914  139.8586  158.5044 O   0  0  0  0  0  0  0  0  0  0  0  0
  151.7022  142.2133  158.8772 C   0  0  0  0  0  0  0  0  0  0  0  0
  150.7302  142.5516  157.9221 N   0  0  0  0  0  0  0  0  0  0  0  0
  149.5693  141.9060  157.7121 C   0  0  0  0  0  0  0  0  0  0  0  0
  149.1982  140.9058  158.3279 O   0  0  0  0  0  0  0  0  0  0  0  0
  148.8541  142.4803  156.7350 N   0  0  0  0  0  0  0  0  0  0  0  0
  147.5378  142.0265  156.2984 C   0  0  0  0  0  0  0  0  0  0  0  0
  147.3639  142.1106  154.7560 C   0  0  1  0  0  0  0  0  0  0  0  0
  148.5311  141.4723  153.9674 C   0  0  0  0  0  0  0  0  0  0  0  0
  148.5173  139.9392  154.0608 C   0  0  0  0  0  0  0  0  0  0  0  0
  147.1530  139.3972  153.6155 C   0  0  0  0  0  0  0  0  0  0  0  0
  146.0058  140.0579  154.3975 C   0  0  0  0  0  0  0  0  0  0  0  0
  146.0687  141.5402  154.2822 N   0  3  1  0  0  0  0  0  0  0  0  0
  144.8707  142.2355  154.8214 C   0  0  0  0  0  0  0  0  0  0  0  0
  144.9551  143.7682  154.6639 C   0  0  0  0  0  0  0  0  0  0  0  0
  143.6012  144.4452  154.9375 C   0  0  0  0  0  0  0  0  0  0  0  0
  145.4681  144.1405  153.2650 C   0  0  0  0  0  0  0  0  0  0  0  0
  152.4787  145.3071  160.0836 H   0  0  0  0  0  0  0  0  0  0  0  0
  150.8303  144.8182  159.6901 H   0  0  0  0  0  0  0  0  0  0  0  0
  152.0441  144.9686  158.4098 H   0  0  0  0  0  0  0  0  0  0  0  0
  153.7130  143.6138  161.2327 H   0  0  0  0  0  0  0  0  0  0  0  0
  154.3256  141.2447  161.5191 H   0  0  0  0  0  0  0  0  0  0  0  0
  153.7624  138.6787  159.3817 H   0  0  0  0  0  0  0  0  0  0  0  0
  152.6184  138.5854  160.7256 H   0  0  0  0  0  0  0  0  0  0  0  0
  154.2722  139.1172  161.0024 H   0  0  0  0  0  0  0  0  0  0  0  0
  150.9847  143.2823  157.2741 H   0  0  0  0  0  0  0  0  0  0  0  0
  149.2371  143.2930  156.2740 H   0  0  0  0  0  0  0  0  0  0  0  0
  147.4126  141.0038  156.6517 H   0  0  0  0  0  0  0  0  0  0  0  0
  146.7786  142.6170  156.8130 H   0  0  0  0  0  0  0  0  0  0  0  0
  147.3490  143.1666  154.4821 H   0  0  0  0  0  0  0  0  0  0  0  0
  148.4492  141.7613  152.9187 H   0  0  0  0  0  0  0  0  0  0  0  0
  149.4919  141.8609  154.3056 H   0  0  0  0  0  0  0  0  0  0  0  0
  149.3073  139.5188  153.4378 H   0  0  0  0  0  0  0  0  0  0  0  0
  148.7293  139.6220  155.0822 H   0  0  0  0  0  0  0  0  0  0  0  0
  147.0189  139.5827  152.5489 H   0  0  0  0  0  0  0  0  0  0  0  0
  147.1205  138.3153  153.7467 H   0  0  0  0  0  0  0  0  0  0  0  0
  145.0586  139.6917  154.0031 H   0  0  0  0  0  0  0  0  0  0  0  0
  146.0361  139.7587  155.4455 H   0  0  0  0  0  0  0  0  0  0  0  0
  143.9773  141.8460  154.3306 H   0  0  0  0  0  0  0  0  0  0  0  0
  144.7570  142.0089  155.8828 H   0  0  0  0  0  0  0  0  0  0  0  0
  145.6761  144.1618  155.3801 H   0  0  0  0  0  0  0  0  0  0  0  0
  142.8353  144.0963  154.2440 H   0  0  0  0  0  0  0  0  0  0  0  0
  143.6760  145.5277  154.8304 H   0  0  0  0  0  0  0  0  0  0  0  0
  143.2499  144.2444  155.9498 H   0  0  0  0  0  0  0  0  0  0  0  0
  144.7967  143.7775  152.4860 H   0  0  0  0  0  0  0  0  0  0  0  0
  146.4539  143.7129  153.0801 H   0  0  0  0  0  0  0  0  0  0  0  0
  145.5541  145.2217  153.1522 H   0  0  0  0  0  0  0  0  0  0  0  0
  146.0558  141.7357  153.2913 H   0  0  0  0  0  0  0  0  0  0  0  0
  1  2  1  0  0  0  0
  1 25  1  0  0  0  0
  1 26  1  0  0  0  0
  1 27  1  0  0  0  0
  2  9  2  0  0  0  0
  2  3  1  0  0  0  0
  3  4  2  0  0  0  0
  3 28  1  0  0  0  0
  4  5  1  0  0  0  0
  4 29  1  0  0  0  0
  5  6  1  0  0  0  0
  5  7  1  0  0  0  0
  6 30  1  0  0  0  0
  6 31  1  0  0  0  0
  6 32  1  0  0  0  0
  7  8  2  0  0  0  0
  7  9  1  0  0  0  0
  9 10  1  0  0  0  0
 10 11  1  0  0  0  0
 10 33  1  0  0  0  0
 11 12  2  0  0  0  0
 11 13  1  0  0  0  0
 13 14  1  0  0  0  0
 13 34  1  0  0  0  0
 14 15  1  0  0  0  0
 14 35  1  0  0  0  0
 14 36  1  0  0  0  0
 15 20  1  0  0  0  0
 15 16  1  0  0  0  0
 15 37  1  0  0  0  0
 16 17  1  0  0  0  0
 16 38  1  0  0  0  0
 16 39  1  0  0  0  0
 17 18  1  0  0  0  0
 17 40  1  0  0  0  0
 17 41  1  0  0  0  0
 18 19  1  0  0  0  0
 18 42  1  0  0  0  0
 18 43  1  0  0  0  0
 19 20  1  0  0  0  0
 19 44  1  0  0  0  0
 19 45  1  0  0  0  0
 20 21  1  0  0  0  0
 20 55  1  0  0  0  0
 21 22  1  0  0  0  0
 21 46  1  0  0  0  0
 21 47  1  0  0  0  0
 22 23  1  0  0  0  0
 22 24  1  0  0  0  0
 22 48  1  0  0  0  0
 23 49  1  0  0  0  0
 23 50  1  0  0  0  0
 23 51  1  0  0  0  0
 24 52  1  0  0  0  0
 24 53  1  0  0  0  0
 24 54  1  0  0  0  0
M  CHG  1  20   1
M  END
> <s_m_source_file>
AV-unprocessed.smi

> <i_m_source_file_index>
2812

> <i_lp_mmshare_version>
43012

> <i_f3d_flags>
0

> <s_epik_input>
W0NIM11jMVtjSF1bY0hdbihbQ0gzXSljKD1PKWMxW05IXUMoPU8pW05IXVtDSDJdW0NAQEhdMltDSDJdW0NIMl1bQ0gyXVtDSDJdTjJbQ0gyXVtDSF0oW0NIM10pW0NIM10=

> <s_epik_cmdline>
J2VwaWtfcHl0aG9uJywgJy1waCcsICc3LjAnLCAnLXRuJywgJzgnLCAnLW1hJywgJzIwMCcsICctbWV0YWxfYmluZGluZycsICctaW1hZScsICc8aW5maWxlLm1hZT4nLCAnLW9tYWUnLCAnPG91dGZpbGUubWFlPic=

> <r_lp_tautomer_probability>
1

> <r_epik_Ionization_Penalty>
0.0010902

> <r_epik_Ionization_Penalty_Charging>
0.00107091

> <r_epik_Ionization_Penalty_Neutral>
1.92854e-05

> <r_epik_State_Penalty>
0.000697184

> <r_epik_Charging_Adjusted_Penalty>
0.0017681

> <i_epik_Tot_Q>
1

> <i_epik_Tot_abs_Q>
1

> <r_epik_Metal_State_Penalty>
-0

> <b_epik_Metal_Only>
0

> <s_lp_Force_Field>
OPLS_2005

> <r_lp_Energy>
38.3811

> <b_lp_Chiralities_Consistent>
1

> <s_lp_Variant>
AV-unprocessed.smi:2812-4

> <Gold.Version>
5.8.1

> <Gold.Id.Protein>
6NUR|6NUR_protein|mol2

> <Gold.PLP.Fitness>
45.9157

> <Gold.PLP.PLP>
-43.7757

> <Gold.PLP.part.hbond>
-1.9946

> <Gold.PLP.part.metal>
0.0000

> <Gold.PLP.part.buried>
-2.8803

> <Gold.PLP.part.nonpolar>
-39.3097

> <Gold.PLP.part.repulsive>
0.0456

> <Gold.PLP.ligand.clash>
0.0000

> <Gold.PLP.ligand.torsion>
0.6613

> <Gold.PLP.Chemscore.Hbond>
0.9280

> <Gold.PLP.Chemscore.CHOScore>
0.0000

> <Gold.PLP.Chemscore.Metal>
0.0000

> <Gold.Chemscore.Hbonds>
donor molecule, donor type, donor heavy atom, donor atom, acceptor molecule, acceptor atom, score
      L1  H    13    34       P1  8028  0.88

> <Gold.PLP.Chemscore.Internal.Correction>
0.6786

> <Gold.Rescore>
     Score         DG    S(hbond)    S(metal)    S(lipo)     H(rot)  DE(clash)    DE(int)     intcor
     15.96     -17.08       0.94        0.00     105.63       1.52       0.12       1.01       ----

> <Gold.Chemscore.Fitness>
15.9564

> <Gold.Chemscore.DG>
-17.0843

> <Gold.Chemscore.ZeroCoef>
-5.4800

> <Gold.Chemscore.Hbond>
0.9358

> <Gold.Chemscore.Metal>
0.0000

> <Gold.Chemscore.Lipo>
105.6310

> <Gold.Chemscore.Internal_Hbond>
0.0000

> <Gold.Chemscore.DEClash>
0.1222

> <Gold.Chemscore.DEInternal>
1.0056

> <Gold.Chemscore.Rot>
1.5157

> <Gold.Chemscore.Internal.Correction>
   9.000000E+99

> <Gold.Chemscore.Hbonds>
donor molecule, donor type, donor heavy atom, donor atom, acceptor molecule, acceptor atom, score
      L1  H    13    34       P1  8028  0.85

> <Gold.Chemscore.Hbond.Weighted>
-3.1257

> <Gold.Chemscore.Metal.Weighted>
-0.0000

> <Gold.Chemscore.Lipo.Weighted>
-12.3588

> <Gold.Chemscore.Internal_Hbond.Weighted>
0.0000

> <Gold.Chemscore.DEClash.Weighted>
0.1222

> <Gold.Chemscore.DEInternal.Weighted>
1.0056

> <Gold.Chemscore.Rot.Weighted>
3.8803

> <Gold.Chemscore.Internal.Correction.Weighted>
   9.000000E+99

> <Gold.Protein.RotatedTorsions>
[ 6907 6896 6895 6894 ] final   29.98 input  -60.11 | X-H torsion
[ 7974 7965 7964 7962 ] final  -44.84 input  175.53 | X-H torsion
[ 8008 7997 7996 7995 ] final  143.32 input   59.86 | X-H torsion
[ 10167 10162 10161 10158 ] final    5.04 input  -65.29 | X-H torsion
[ 10718 10713 10712 10709 ] final -129.45 input   66.30 | X-H torsion
[ 10763 10752 10751 10750 ] final -156.55 input  -60.55 | X-H torsion
[ 11005 11000 10999 10996 ] final   -8.61 input  -57.11 | X-H torsion

> <Gold.Protein.ActiveResidues>
 VAL166  LYS551  ARG553  GLY616  TRP617  ASP618  TYR619  PRO620  LYS621  CYS622 
 ASP623  PHE694  ASN695  SER759  ASP760  ASP761  ALA762  ILE779  LEU786  VAL792 
 PHE793  MET794  SER795  GLU796  ALA797  LYS798  CYS799  TRP800  GLU811  SER814 

> <Gold.Protein.RotatedAtoms>
  152.0393  134.9721  160.0573 H   0  0  0  0  0  0  0  0  0  0  0  0  # atno 6907 bound_to 6896
  152.1166  133.4325  159.4664 H   0  0  0  0  0  0  0  0  0  0  0  0  # atno 6908 bound_to 6896
  150.6846  134.2504  159.4551 H   0  0  0  0  0  0  0  0  0  0  0  0  # atno 6909 bound_to 6896
  145.9880  140.7212  142.9331 H   0  0  0  0  0  0  0  0  0  0  0  0  # atno 7974 bound_to 7965
  156.2932  140.2265  156.4871 H   0  0  0  0  0  0  0  0  0  0  0  0  # atno 8008 bound_to 7997
  154.7803  140.0461  157.1143 H   0  0  0  0  0  0  0  0  0  0  0  0  # atno 8009 bound_to 7997
  154.9767  140.3073  155.4967 H   0  0  0  0  0  0  0  0  0  0  0  0  # atno 8010 bound_to 7997
  140.6503  143.7561  150.7565 H   0  0  0  0  0  0  0  0  0  0  0  0  # atno 10167 bound_to 10162
  156.2047  130.6880  151.0581 H   0  0  0  0  0  0  0  0  0  0  0  0  # atno 10718 bound_to 10713
  154.7704  135.3143  154.8201 H   0  0  0  0  0  0  0  0  0  0  0  0  # atno 10763 bound_to 10752
  153.8938  135.6822  153.4763 H   0  0  0  0  0  0  0  0  0  0  0  0  # atno 10764 bound_to 10752
  153.1316  135.4777  154.9293 H   0  0  0  0  0  0  0  0  0  0  0  0  # atno 10765 bound_to 10752
  140.7253  133.8794  155.8851 H   0  0  0  0  0  0  0  0  0  0  0  0  # atno 11005 bound_to 11000
  144.6880  140.3021  143.7261 LP  0  0  0  0  0  0  0  0  0  0  0  0  # atno 17320 bound_to 7965
  145.7672  139.1845  143.2233 LP  0  0  0  0  0  0  0  0  0  0  0  0  # atno 17321 bound_to 7965
  140.1210  143.4612  152.2313 LP  0  0  0  0  0  0  0  0  0  0  0  0  # atno 17342 bound_to 10162
  139.5718  144.7466  151.3871 LP  0  0  0  0  0  0  0  0  0  0  0  0  # atno 17343 bound_to 10162
  157.7006  131.0777  150.6833 LP  0  0  0  0  0  0  0  0  0  0  0  0  # atno 17370 bound_to 10713
  156.6891  130.4590  149.5605 LP  0  0  0  0  0  0  0  0  0  0  0  0  # atno 17371 bound_to 10713
  140.9968  134.1204  157.4355 LP  0  0  0  0  0  0  0  0  0  0  0  0  # atno 17394 bound_to 11000
  139.8838  135.0057  156.6329 LP  0  0  0  0  0  0  0  0  0  0  0  0  # atno 17395 bound_to 11000

$$$$
