AV-unprocessed.smi:3310|AV-procd|sdf|12718|dock8
  -GOLD-   2272019 53D 1   1.00000     0.00000
 Structure written by MMmdl.
 45 46  0  0  0  0  0  0  0  0  2 V2000
  146.9630  138.7750  151.6467 C   0  0  0  0  0  0  0  0  0  0  0  0
  147.6377  139.0977  152.9844 C   0  0  0  0  0  0  0  0  0  0  0  0
  146.6670  139.5845  154.0151 C   0  0  0  0  0  0  0  0  0  0  0  0
  145.6185  138.8661  154.4341 N   0  0  0  0  0  0  0  0  0  0  0  0
  144.9665  139.6603  155.3557 N   0  0  0  0  0  0  0  0  0  0  0  0
  145.6810  140.7835  155.3951 C   0  0  0  0  0  0  0  0  0  0  0  0
  146.7506  140.8055  154.5850 N   0  0  0  0  0  0  0  0  0  0  0  0
  147.7152  141.8744  154.4005 C   0  0  0  0  0  0  0  0  0  0  0  0
  149.1439  141.4006  154.7005 C   0  0  0  0  0  0  0  0  0  0  0  0
  149.8464  142.3547  155.5798 N   0  3  0  0  0  0  0  0  0  0  0  0
  150.0645  141.8560  156.9525 C   0  0  0  0  0  0  0  0  0  0  0  0
  151.3313  142.4616  157.5851 C   0  0  2  0  0  0  0  0  0  0  0  0
  151.6870  141.7365  158.8984 C   0  0  0  0  0  0  0  0  0  0  0  0
  152.9409  142.3317  159.5629 C   0  0  0  0  0  0  0  0  0  0  0  0
  152.8146  143.8480  159.8093 C   0  0  2  0  0  0  0  0  0  0  0  0
  151.8623  144.1818  160.9711 C   0  0  0  0  0  0  0  0  0  0  0  0
  152.4336  144.5739  158.5042 C   0  0  0  0  0  0  0  0  0  0  0  0
  151.1795  143.9764  157.8424 C   0  0  0  0  0  0  0  0  0  0  0  0
  147.6919  138.4154  150.9203 H   0  0  0  0  0  0  0  0  0  0  0  0
  146.4796  139.6568  151.2260 H   0  0  0  0  0  0  0  0  0  0  0  0
  146.2034  138.0018  151.7663 H   0  0  0  0  0  0  0  0  0  0  0  0
  148.1304  138.2037  153.3681 H   0  0  0  0  0  0  0  0  0  0  0  0
  148.4246  139.8376  152.8400 H   0  0  0  0  0  0  0  0  0  0  0  0
  145.4157  141.6140  156.0331 H   0  0  0  0  0  0  0  0  0  0  0  0
  147.6370  142.2527  153.3809 H   0  0  0  0  0  0  0  0  0  0  0  0
  147.4430  142.6980  155.0619 H   0  0  0  0  0  0  0  0  0  0  0  0
  149.1176  140.4232  155.1849 H   0  0  0  0  0  0  0  0  0  0  0  0
  149.7061  141.2853  153.7727 H   0  0  0  0  0  0  0  0  0  0  0  0
  150.7434  142.5749  155.1708 H   0  0  0  0  0  0  0  0  0  0  0  0
  149.1926  142.0813  157.5684 H   0  0  0  0  0  0  0  0  0  0  0  0
  150.1524  140.7695  156.9112 H   0  0  0  0  0  0  0  0  0  0  0  0
  152.1614  142.3129  156.8925 H   0  0  0  0  0  0  0  0  0  0  0  0
  150.8448  141.7859  159.5898 H   0  0  0  0  0  0  0  0  0  0  0  0
  151.8552  140.6768  158.7027 H   0  0  0  0  0  0  0  0  0  0  0  0
  153.1482  141.8138  160.4999 H   0  0  0  0  0  0  0  0  0  0  0  0
  153.8025  142.1463  158.9199 H   0  0  0  0  0  0  0  0  0  0  0  0
  153.7990  144.2112  160.1078 H   0  0  0  0  0  0  0  0  0  0  0  0
  150.8413  143.8564  160.7733 H   0  0  0  0  0  0  0  0  0  0  0  0
  151.8350  145.2557  161.1565 H   0  0  0  0  0  0  0  0  0  0  0  0
  152.1876  143.7000  161.8934 H   0  0  0  0  0  0  0  0  0  0  0  0
  152.2849  145.6374  158.6944 H   0  0  0  0  0  0  0  0  0  0  0  0
  153.2674  144.5074  157.8039 H   0  0  0  0  0  0  0  0  0  0  0  0
  150.9916  144.5008  156.9053 H   0  0  0  0  0  0  0  0  0  0  0  0
  150.3081  144.1607  158.4713 H   0  0  0  0  0  0  0  0  0  0  0  0
  149.2988  143.2016  155.6328 H   0  0  0  0  0  0  0  0  0  0  0  0
  1  2  1  0  0  0  0
  1 19  1  0  0  0  0
  1 20  1  0  0  0  0
  1 21  1  0  0  0  0
  2  3  1  0  0  0  0
  2 22  1  0  0  0  0
  2 23  1  0  0  0  0
  3  7  1  0  0  0  0
  3  4  2  0  0  0  0
  4  5  1  0  0  0  0
  5  6  2  0  0  0  0
  6  7  1  0  0  0  0
  6 24  1  0  0  0  0
  7  8  1  0  0  0  0
  8  9  1  0  0  0  0
  8 25  1  0  0  0  0
  8 26  1  0  0  0  0
  9 10  1  0  0  0  0
  9 27  1  0  0  0  0
  9 28  1  0  0  0  0
 10 11  1  0  0  0  0
 10 29  1  0  0  0  0
 10 45  1  0  0  0  0
 11 12  1  0  0  0  0
 11 30  1  0  0  0  0
 11 31  1  0  0  0  0
 12 18  1  0  0  0  0
 12 13  1  0  0  0  0
 12 32  1  0  0  0  0
 13 14  1  0  0  0  0
 13 33  1  0  0  0  0
 13 34  1  0  0  0  0
 14 15  1  0  0  0  0
 14 35  1  0  0  0  0
 14 36  1  0  0  0  0
 15 16  1  0  0  0  0
 15 17  1  0  0  0  0
 15 37  1  0  0  0  0
 16 38  1  0  0  0  0
 16 39  1  0  0  0  0
 16 40  1  0  0  0  0
 17 18  1  0  0  0  0
 17 41  1  0  0  0  0
 17 42  1  0  0  0  0
 18 43  1  0  0  0  0
 18 44  1  0  0  0  0
M  CHG  1  10   1
M  END
> <s_m_source_file>
AV-unprocessed.smi

> <i_m_source_file_index>
3310

> <i_lp_mmshare_version>
43012

> <i_f3d_flags>
0

> <s_epik_input>
W0NIM11bQ0gyXWMxbm5bY0hdbjFbQ0gyXVtDSDJdW05IXVtDSDJdW0NAQEhdMltDSDJdW0NIMl1bQ0BASF0oW0NIM10pW0NIMl1bQ0gyXTI=

> <s_epik_cmdline>
J2VwaWtfcHl0aG9uJywgJy1waCcsICc3LjAnLCAnLXRuJywgJzgnLCAnLW1hJywgJzIwMCcsICctbWV0YWxfYmluZGluZycsICctaW1hZScsICc8aW5maWxlLm1hZT4nLCAnLW9tYWUnLCAnPG91dGZpbGUubWFlPic=

> <r_lp_tautomer_probability>
1

> <r_epik_Ionization_Penalty>
0.00127868

> <r_epik_Ionization_Penalty_Charging>
0.00126792

> <r_epik_Ionization_Penalty_Neutral>
1.07546e-05

> <r_epik_State_Penalty>
-0

> <r_epik_Charging_Adjusted_Penalty>
0.00126792

> <i_epik_Tot_Q>
1

> <i_epik_Tot_abs_Q>
1

> <r_epik_Metal_State_Penalty>
-0

> <b_epik_Metal_Only>
0

> <s_lp_Force_Field>
OPLS_2005

> <r_lp_Energy>
17.5761

> <b_lp_Chiralities_Consistent>
1

> <s_lp_Variant>
AV-unprocessed.smi:3310-2

> <Gold.Version>
5.8.1

> <Gold.Id.Protein>
6NUR|6NUR_protein|mol2

> <Gold.PLP.Fitness>
45.3221

> <Gold.PLP.PLP>
-41.0797

> <Gold.PLP.part.hbond>
-1.0000

> <Gold.PLP.part.metal>
0.0000

> <Gold.PLP.part.buried>
-3.3508

> <Gold.PLP.part.nonpolar>
-38.3338

> <Gold.PLP.part.repulsive>
0.3735

> <Gold.PLP.ligand.clash>
0.0000

> <Gold.PLP.ligand.torsion>
0.9127

> <Gold.PLP.Chemscore.Hbond>
2.0000

> <Gold.PLP.Chemscore.CHOScore>
0.0000

> <Gold.PLP.Chemscore.Metal>
0.0000

> <Gold.Chemscore.Hbonds>
donor molecule, donor type, donor heavy atom, donor atom, acceptor molecule, acceptor atom, score
      L1  H    10    45       P1  8028  2.00

> <Gold.PLP.Chemscore.Internal.Correction>
0.0679

> <Gold.Rescore>
     Score         DG    S(hbond)    S(metal)    S(lipo)     H(rot)  DE(clash)    DE(int)     intcor
     16.67     -17.61       1.00        0.00     119.71       2.03       0.06       0.88       ----

> <Gold.Chemscore.Fitness>
16.6712

> <Gold.Chemscore.DG>
-17.6148

> <Gold.Chemscore.ZeroCoef>
-5.4800

> <Gold.Chemscore.Hbond>
0.9953

> <Gold.Chemscore.Metal>
0.0000

> <Gold.Chemscore.Lipo>
119.7108

> <Gold.Chemscore.Internal_Hbond>
0.0000

> <Gold.Chemscore.DEClash>
0.0615

> <Gold.Chemscore.DEInternal>
0.8821

> <Gold.Chemscore.Rot>
2.0295

> <Gold.Chemscore.Internal.Correction>
   9.000000E+99

> <Gold.Chemscore.Hbonds>
donor molecule, donor type, donor heavy atom, donor atom, acceptor molecule, acceptor atom, score
      L1  H    10    45       P1  8028  0.97

> <Gold.Chemscore.Hbond.Weighted>
-3.3242

> <Gold.Chemscore.Metal.Weighted>
-0.0000

> <Gold.Chemscore.Lipo.Weighted>
-14.0062

> <Gold.Chemscore.Internal_Hbond.Weighted>
0.0000

> <Gold.Chemscore.DEClash.Weighted>
0.0615

> <Gold.Chemscore.DEInternal.Weighted>
0.8821

> <Gold.Chemscore.Rot.Weighted>
5.1956

> <Gold.Chemscore.Internal.Correction.Weighted>
   9.000000E+99

> <Gold.Protein.RotatedTorsions>
[ 6907 6896 6895 6894 ] final  -93.98 input  -60.11 | X-H torsion
[ 7974 7965 7964 7962 ] final  158.32 input  175.53 | X-H torsion
[ 8008 7997 7996 7995 ] final  -89.48 input   59.86 | X-H torsion
[ 10167 10162 10161 10158 ] final  -11.40 input  -65.29 | X-H torsion
[ 10718 10713 10712 10709 ] final  -89.28 input   66.30 | X-H torsion
[ 10763 10752 10751 10750 ] final  124.00 input  -60.55 | X-H torsion
[ 11005 11000 10999 10996 ] final -171.43 input  -57.11 | X-H torsion

> <Gold.Protein.ActiveResidues>
 VAL166  LYS551  ARG553  GLY616  TRP617  ASP618  TYR619  PRO620  LYS621  CYS622 
 ASP623  PHE694  ASN695  SER759  ASP760  ASP761  ALA762  ILE779  LEU786  VAL792 
 PHE793  MET794  SER795  GLU796  ALA797  LYS798  CYS799  TRP800  GLU811  SER814 

> <Gold.Protein.RotatedAtoms>
  150.6933  134.1884  159.4275 H   0  0  0  0  0  0  0  0  0  0  0  0  # atno 6907 bound_to 6896
  151.9855  135.0004  160.0568 H   0  0  0  0  0  0  0  0  0  0  0  0  # atno 6908 bound_to 6896
  152.1715  133.4612  159.4948 H   0  0  0  0  0  0  0  0  0  0  0  0  # atno 6909 bound_to 6896
  144.7852  139.7462  143.6243 H   0  0  0  0  0  0  0  0  0  0  0  0  # atno 7974 bound_to 7965
  154.6871  140.0541  157.0326 H   0  0  0  0  0  0  0  0  0  0  0  0  # atno 8008 bound_to 7997
  155.0869  140.3215  155.4566 H   0  0  0  0  0  0  0  0  0  0  0  0  # atno 8009 bound_to 7997
  156.2715  140.2055  156.5996 H   0  0  0  0  0  0  0  0  0  0  0  0  # atno 8010 bound_to 7997
  140.7137  143.5643  150.9161 H   0  0  0  0  0  0  0  0  0  0  0  0  # atno 10167 bound_to 10162
  155.9984  130.4866  150.5147 H   0  0  0  0  0  0  0  0  0  0  0  0  # atno 10718 bound_to 10713
  153.6544  135.3357  155.3109 H   0  0  0  0  0  0  0  0  0  0  0  0  # atno 10763 bound_to 10752
  154.8530  135.4348  154.1871 H   0  0  0  0  0  0  0  0  0  0  0  0  # atno 10764 bound_to 10752
  153.2821  135.7010  153.7450 H   0  0  0  0  0  0  0  0  0  0  0  0  # atno 10765 bound_to 10752
  140.5083  134.5827  157.5010 H   0  0  0  0  0  0  0  0  0  0  0  0  # atno 11005 bound_to 11000
  146.2081  139.5418  142.9699 LP  0  0  0  0  0  0  0  0  0  0  0  0  # atno 17320 bound_to 7965
  145.5940  141.0365  143.2054 LP  0  0  0  0  0  0  0  0  0  0  0  0  # atno 17321 bound_to 7965
  139.9369  143.6427  152.3063 LP  0  0  0  0  0  0  0  0  0  0  0  0  # atno 17342 bound_to 10162
  139.6898  144.7648  151.1459 LP  0  0  0  0  0  0  0  0  0  0  0  0  # atno 17343 bound_to 10162
  157.3116  131.0665  151.1997 LP  0  0  0  0  0  0  0  0  0  0  0  0  # atno 17370 bound_to 10713
  157.2941  130.6811  149.6129 LP  0  0  0  0  0  0  0  0  0  0  0  0  # atno 17371 bound_to 10713
  139.9674  134.7351  156.0111 LP  0  0  0  0  0  0  0  0  0  0  0  0  # atno 17394 bound_to 11000
  141.1399  133.6567  156.3700 LP  0  0  0  0  0  0  0  0  0  0  0  0  # atno 17395 bound_to 11000

$$$$
