AV-unprocessed.smi:3298|AV-procd|sdf|12643|dock5
  -GOLD-   2272018573D 1   1.00000     0.00000
 Structure written by MMmdl.
 35 36  0  0  0  0  0  0  0  0  1 V2000
  153.5580  141.4324  160.9866 C   0  0  0  0  0  0  0  0  0  0  0  0
  152.6900  142.5141  160.3779 C   0  0  0  0  0  0  0  0  0  0  0  0
  151.9914  142.2890  159.1732 C   0  0  0  0  0  0  0  0  0  0  0  0
  151.2046  143.3300  158.6384 C   0  0  0  0  0  0  0  0  0  0  0  0
  150.4963  143.0709  157.4339 N   0  0  0  0  0  0  0  0  0  0  0  0
  150.4780  141.9486  156.6941 C   0  0  0  0  0  0  0  0  0  0  0  0
  151.0552  140.8979  156.9747 O   0  0  0  0  0  0  0  0  0  0  0  0
  149.7252  142.1052  155.5961 N   0  0  0  0  0  0  0  0  0  0  0  0
  149.5088  141.0825  154.5793 C   0  0  1  0  0  0  0  0  0  0  0  0
  149.2710  139.7445  155.2267 C   0  0  0  0  0  0  0  0  0  0  0  0
  148.0913  139.2183  154.9048 C   0  0  0  0  0  0  0  0  0  0  0  0
  147.2932  140.1041  153.9835 C   0  0  1  0  0  0  0  0  0  0  0  0
  145.9020  140.4598  154.5426 C   0  0  0  0  0  0  0  0  0  0  0  0
  144.9938  139.3831  154.4134 O   0  0  0  0  0  0  0  0  0  0  0  0
  148.2185  141.3264  153.7514 C   0  0  0  0  0  0  0  0  0  0  0  0
  151.1361  144.5494  159.3543 C   0  0  0  0  0  0  0  0  0  0  0  0
  151.8727  144.6712  160.5491 C   0  0  0  0  0  0  0  0  0  0  0  0
  152.6380  143.6812  161.0554 N   0  0  0  0  0  0  0  0  0  0  0  0
  150.3816  141.0062  153.9287 H   0  0  0  0  0  0  0  0  0  0  0  0
  147.1660  139.5672  153.0427 H   0  0  0  0  0  0  0  0  0  0  0  0
  153.4123  140.4775  160.4808 H   0  0  0  0  0  0  0  0  0  0  0  0
  153.3171  141.2967  162.0414 H   0  0  0  0  0  0  0  0  0  0  0  0
  154.6109  141.7044  160.9063 H   0  0  0  0  0  0  0  0  0  0  0  0
  152.0628  141.3373  158.6665 H   0  0  0  0  0  0  0  0  0  0  0  0
  149.9003  143.8203  157.1149 H   0  0  0  0  0  0  0  0  0  0  0  0
  149.2842  143.0000  155.4415 H   0  0  0  0  0  0  0  0  0  0  0  0
  150.0022  139.2798  155.8716 H   0  0  0  0  0  0  0  0  0  0  0  0
  147.7205  138.2649  155.2506 H   0  0  0  0  0  0  0  0  0  0  0  0
  145.9775  140.7320  155.5957 H   0  0  0  0  0  0  0  0  0  0  0  0
  145.4944  141.3249  154.0182 H   0  0  0  0  0  0  0  0  0  0  0  0
  144.4248  139.5567  153.6790 H   0  0  0  0  0  0  0  0  0  0  0  0
  147.7260  142.2591  154.0318 H   0  0  0  0  0  0  0  0  0  0  0  0
  148.4647  141.4167  152.6926 H   0  0  0  0  0  0  0  0  0  0  0  0
  150.5315  145.3793  159.0233 H   0  0  0  0  0  0  0  0  0  0  0  0
  151.8407  145.5887  161.1178 H   0  0  0  0  0  0  0  0  0  0  0  0
  1  2  1  0  0  0  0
  1 21  1  0  0  0  0
  1 22  1  0  0  0  0
  1 23  1  0  0  0  0
  2 18  1  0  0  0  0
  2  3  2  0  0  0  0
  3  4  1  0  0  0  0
  3 24  1  0  0  0  0
  4  5  1  0  0  0  0
  4 16  2  0  0  0  0
  5  6  1  0  0  0  0
  5 25  1  0  0  0  0
  6  7  2  0  0  0  0
  6  8  1  0  0  0  0
  8  9  1  0  0  0  0
  8 26  1  0  0  0  0
  9 19  1  0  0  0  0
  9 15  1  0  0  0  0
  9 10  1  0  0  0  0
 10 11  2  0  0  0  0
 10 27  1  0  0  0  0
 11 12  1  0  0  0  0
 11 28  1  0  0  0  0
 12 20  1  0  0  0  0
 12 13  1  0  0  0  0
 12 15  1  0  0  0  0
 13 14  1  0  0  0  0
 13 29  1  0  0  0  0
 13 30  1  0  0  0  0
 14 31  1  0  0  0  0
 15 32  1  0  0  0  0
 15 33  1  0  0  0  0
 16 17  1  0  0  0  0
 16 34  1  0  0  0  0
 17 18  2  0  0  0  0
 17 35  1  0  0  0  0
M  END
> <s_m_source_file>
AV-unprocessed.smi

> <i_m_source_file_index>
3298

> <i_lp_mmshare_version>
43012

> <i_f3d_flags>
0

> <s_epik_input>
W0NIM11jMVtjSF1jKFtjSF1bY0hdbjEpW05IXUMoPU8pW05IXVtDQEBIXTJbQ0hdPVtDSF1bQ0BASF0oW0NIMl0yKVtDSDJdW09IXQ==

> <s_epik_cmdline>
J2VwaWtfcHl0aG9uJywgJy1waCcsICc3LjAnLCAnLXRuJywgJzgnLCAnLW1hJywgJzIwMCcsICctbWV0YWxfYmluZGluZycsICctaW1hZScsICc8aW5maWxlLm1hZT4nLCAnLW9tYWUnLCAnPG91dGZpbGUubWFlPic=

> <r_epik_Ionization_Penalty>
0.379275

> <r_epik_Ionization_Penalty_Charging>
0

> <r_epik_Ionization_Penalty_Neutral>
0.379275

> <r_epik_State_Penalty>
0.377195

> <r_epik_Charging_Adjusted_Penalty>
0.377195

> <i_epik_Tot_Q>
0

> <i_epik_Tot_abs_Q>
0

> <r_epik_Metal_State_Penalty>
0.22815

> <b_epik_Metal_Only>
0

> <s_lp_Force_Field>
OPLS_2005

> <r_lp_Energy>
21.2721

> <b_lp_Chiralities_Consistent>
1

> <s_lp_Variant>
AV-unprocessed.smi:3298-4

> <Gold.Version>
5.8.1

> <Gold.Id.Protein>
6NUR|6NUR_protein|mol2

> <Gold.PLP.Fitness>
43.0529

> <Gold.PLP.PLP>
-35.0044

> <Gold.PLP.part.hbond>
-3.0000

> <Gold.PLP.part.metal>
0.0000

> <Gold.PLP.part.buried>
-1.8584

> <Gold.PLP.part.nonpolar>
-30.3157

> <Gold.PLP.part.repulsive>
0.2677

> <Gold.PLP.ligand.clash>
0.0000

> <Gold.PLP.ligand.torsion>
0.3982

> <Gold.PLP.Chemscore.Hbond>
2.9440

> <Gold.PLP.Chemscore.CHOScore>
0.0000

> <Gold.PLP.Chemscore.Metal>
0.0000

> <Gold.Chemscore.Hbonds>
donor molecule, donor type, donor heavy atom, donor atom, acceptor molecule, acceptor atom, score
      L1  H     5    25       P1  8028  1.00
      L1  H     8    26       P1  8028  1.00
      L1  H    14    31       P1 10175  1.00

> <Gold.PLP.Chemscore.Internal.Correction>
0.0130

> <Gold.Rescore>
     Score         DG    S(hbond)    S(metal)    S(lipo)     H(rot)  DE(clash)    DE(int)     intcor
     18.19     -21.83       2.88        0.00      96.33       1.78       0.53       3.11       ----

> <Gold.Chemscore.Fitness>
18.1892

> <Gold.Chemscore.DG>
-21.8299

> <Gold.Chemscore.ZeroCoef>
-5.4800

> <Gold.Chemscore.Hbond>
2.8848

> <Gold.Chemscore.Metal>
0.0000

> <Gold.Chemscore.Lipo>
96.3278

> <Gold.Chemscore.Internal_Hbond>
0.0000

> <Gold.Chemscore.DEClash>
0.5316

> <Gold.Chemscore.DEInternal>
3.1091

> <Gold.Chemscore.Rot>
1.7796

> <Gold.Chemscore.Internal.Correction>
   9.000000E+99

> <Gold.Chemscore.Hbonds>
donor molecule, donor type, donor heavy atom, donor atom, acceptor molecule, acceptor atom, score
      L1  H     5    25       P1  8028  0.86
      L1  H     8    26       P1  8028  1.00
      L1  H    14    31       P1 10175  0.99

> <Gold.Chemscore.Hbond.Weighted>
-9.6354

> <Gold.Chemscore.Metal.Weighted>
-0.0000

> <Gold.Chemscore.Lipo.Weighted>
-11.2704

> <Gold.Chemscore.Internal_Hbond.Weighted>
0.0000

> <Gold.Chemscore.DEClash.Weighted>
0.5316

> <Gold.Chemscore.DEInternal.Weighted>
3.1091

> <Gold.Chemscore.Rot.Weighted>
4.5558

> <Gold.Chemscore.Internal.Correction.Weighted>
   9.000000E+99

> <Gold.Protein.RotatedTorsions>
[ 6907 6896 6895 6894 ] final -120.06 input  -60.11 | X-H torsion
[ 7974 7965 7964 7962 ] final  -32.45 input  175.53 | X-H torsion
[ 8008 7997 7996 7995 ] final  -49.63 input   59.86 | X-H torsion
[ 10167 10162 10161 10158 ] final   36.21 input  -65.29 | X-H torsion
[ 10718 10713 10712 10709 ] final   39.45 input   66.30 | X-H torsion
[ 10763 10752 10751 10750 ] final -131.52 input  -60.55 | X-H torsion
[ 11005 11000 10999 10996 ] final  -21.63 input  -57.11 | X-H torsion

> <Gold.Protein.ActiveResidues>
 VAL166  LYS551  ARG553  GLY616  TRP617  ASP618  TYR619  PRO620  LYS621  CYS622 
 ASP623  PHE694  ASN695  SER759  ASP760  ASP761  ALA762  ILE779  LEU786  VAL792 
 PHE793  MET794  SER795  GLU796  ALA797  LYS798  CYS799  TRP800  GLU811  SER814 

> <Gold.Protein.RotatedAtoms>
  150.8360  133.8013  159.3079 H   0  0  0  0  0  0  0  0  0  0  0  0  # atno 6907 bound_to 6896
  151.5729  135.1060  160.0009 H   0  0  0  0  0  0  0  0  0  0  0  0  # atno 6908 bound_to 6896
  152.4432  133.7445  159.6716 H   0  0  0  0  0  0  0  0  0  0  0  0  # atno 6909 bound_to 6896
  146.0989  140.5793  142.8830 H   0  0  0  0  0  0  0  0  0  0  0  0  # atno 7974 bound_to 7965
  154.4047  140.1292  156.4533 H   0  0  0  0  0  0  0  0  0  0  0  0  # atno 8008 bound_to 7997
  155.7344  140.3491  155.5055 H   0  0  0  0  0  0  0  0  0  0  0  0  # atno 8009 bound_to 7997
  155.9097  140.1033  157.1279 H   0  0  0  0  0  0  0  0  0  0  0  0  # atno 8010 bound_to 7997
  140.4149  144.1541  150.6142 H   0  0  0  0  0  0  0  0  0  0  0  0  # atno 10167 bound_to 10162
  157.3707  130.7699  149.7116 H   0  0  0  0  0  0  0  0  0  0  0  0  # atno 10718 bound_to 10713
  154.8750  135.3827  154.4259 H   0  0  0  0  0  0  0  0  0  0  0  0  # atno 10763 bound_to 10752
  153.4958  135.7030  153.5864 H   0  0  0  0  0  0  0  0  0  0  0  0  # atno 10764 bound_to 10752
  153.4217  135.3900  155.2082 H   0  0  0  0  0  0  0  0  0  0  0  0  # atno 10765 bound_to 10752
  140.8579  133.7809  156.0041 H   0  0  0  0  0  0  0  0  0  0  0  0  # atno 11005 bound_to 11000
  144.7417  140.4960  143.6864 LP  0  0  0  0  0  0  0  0  0  0  0  0  # atno 17320 bound_to 7965
  145.5893  139.1494  143.3191 LP  0  0  0  0  0  0  0  0  0  0  0  0  # atno 17321 bound_to 7965
  140.4598  143.2453  151.9236 LP  0  0  0  0  0  0  0  0  0  0  0  0  # atno 17342 bound_to 10162
  139.4782  144.5479  151.8430 LP  0  0  0  0  0  0  0  0  0  0  0  0  # atno 17343 bound_to 10162
  155.9755  130.4088  150.3846 LP  0  0  0  0  0  0  0  0  0  0  0  0  # atno 17370 bound_to 10713
  157.1936  131.0421  151.2687 LP  0  0  0  0  0  0  0  0  0  0  0  0  # atno 17371 bound_to 10713
  140.8716  134.2720  157.5188 LP  0  0  0  0  0  0  0  0  0  0  0  0  # atno 17394 bound_to 11000
  139.8706  134.9570  156.4254 LP  0  0  0  0  0  0  0  0  0  0  0  0  # atno 17395 bound_to 11000

$$$$
