AV-unprocessed.smi:1817|AV-procd|sdf|7371|dock5
  -GOLD-   22720 9 33D 1   1.00000     0.00000
 Structure written by MMmdl.
 43 44  0  0  0  0  0  0  0  0  2 V2000
  145.0201  130.9048  151.2225 C   0  0  0  0  0  0  0  0  0  0  0  0
  145.3396  132.0401  152.2056 C   0  0  0  0  0  0  0  0  0  0  0  0
  146.5825  132.7330  151.8577 N   0  0  0  0  0  0  0  0  0  0  0  0
  146.5229  133.5496  150.6442 C   0  0  0  0  0  0  0  0  0  0  0  0
  145.6322  134.7982  150.8148 C   0  0  0  0  0  0  0  0  0  0  0  0
  146.0910  135.6502  151.9489 N   0  3  0  0  0  0  0  0  0  0  0  0
  145.2962  136.9073  152.1608 C   0  0  1  0  0  0  0  0  0  0  0  0
  143.8732  136.5741  152.6698 C   0  0  0  0  0  0  0  0  0  0  0  0
  145.9954  137.9163  153.1160 C   0  0  0  0  0  0  0  0  0  0  0  0
  147.4489  137.7661  153.1527 N   0  0  0  0  0  0  0  0  0  0  0  0
  148.2653  138.2934  154.0772 C   0  0  0  0  0  0  0  0  0  0  0  0
  147.8734  139.0067  155.0001 O   0  0  0  0  0  0  0  0  0  0  0  0
  149.5420  137.9434  153.8524 N   0  0  0  0  0  0  0  0  0  0  0  0
  150.6914  138.3104  154.5962 C   0  0  0  0  0  0  0  0  0  0  0  0
  151.7696  137.5225  154.5138 N   0  0  0  0  0  0  0  0  0  0  0  0
  152.8216  137.9971  155.2877 N   0  0  0  0  0  0  0  0  0  0  0  0
  152.4952  139.1267  155.9229 C   0  0  0  0  0  0  0  0  0  0  0  0
  150.8697  139.7241  155.6394 S   0  0  0  0  0  0  0  0  0  0  0  0
  146.1931  134.8125  153.1773 C   0  0  0  0  0  0  0  0  0  0  0  0
  147.0809  133.5723  152.9460 C   0  0  0  0  0  0  0  0  0  0  0  0
  144.1706  130.3215  151.5787 H   0  0  0  0  0  0  0  0  0  0  0  0
  145.8645  130.2234  151.1153 H   0  0  0  0  0  0  0  0  0  0  0  0
  144.7587  131.2806  150.2338 H   0  0  0  0  0  0  0  0  0  0  0  0
  144.4975  132.7281  152.2706 H   0  0  0  0  0  0  0  0  0  0  0  0
  145.4576  131.6020  153.1975 H   0  0  0  0  0  0  0  0  0  0  0  0
  147.5370  133.8630  150.3917 H   0  0  0  0  0  0  0  0  0  0  0  0
  146.1797  132.9527  149.7999 H   0  0  0  0  0  0  0  0  0  0  0  0
  145.6984  135.3477  149.8770 H   0  0  0  0  0  0  0  0  0  0  0  0
  144.5857  134.5223  150.9494 H   0  0  0  0  0  0  0  0  0  0  0  0
  145.2013  137.3996  151.1914 H   0  0  0  0  0  0  0  0  0  0  0  0
  143.2698  137.4708  152.8054 H   0  0  0  0  0  0  0  0  0  0  0  0
  143.9098  136.0554  153.6283 H   0  0  0  0  0  0  0  0  0  0  0  0
  143.3063  135.9560  151.9768 H   0  0  0  0  0  0  0  0  0  0  0  0
  145.7133  138.9393  152.8607 H   0  0  0  0  0  0  0  0  0  0  0  0
  145.6788  137.7557  154.1458 H   0  0  0  0  0  0  0  0  0  0  0  0
  147.8629  137.1948  152.4303 H   0  0  0  0  0  0  0  0  0  0  0  0
  149.7150  137.3454  153.0578 H   0  0  0  0  0  0  0  0  0  0  0  0
  153.2175  139.6114  156.5630 H   0  0  0  0  0  0  0  0  0  0  0  0
  146.6420  135.3740  153.9932 H   0  0  0  0  0  0  0  0  0  0  0  0
  145.1977  134.5227  153.5162 H   0  0  0  0  0  0  0  0  0  0  0  0
  147.1507  132.9817  153.8602 H   0  0  0  0  0  0  0  0  0  0  0  0
  148.0976  133.8886  152.7088 H   0  0  0  0  0  0  0  0  0  0  0  0
  147.0296  135.9403  151.7143 H   0  0  0  0  0  0  0  0  0  0  0  0
  1  2  1  0  0  0  0
  1 21  1  0  0  0  0
  1 22  1  0  0  0  0
  1 23  1  0  0  0  0
  2  3  1  0  0  0  0
  2 24  1  0  0  0  0
  2 25  1  0  0  0  0
  3 20  1  0  0  0  0
  3  4  1  0  0  0  0
  4  5  1  0  0  0  0
  4 26  1  0  0  0  0
  4 27  1  0  0  0  0
  5  6  1  0  0  0  0
  5 28  1  0  0  0  0
  5 29  1  0  0  0  0
  6  7  1  0  0  0  0
  6 19  1  0  0  0  0
  6 43  1  0  0  0  0
  7  8  1  0  0  0  0
  7  9  1  0  0  0  0
  7 30  1  0  0  0  0
  8 31  1  0  0  0  0
  8 32  1  0  0  0  0
  8 33  1  0  0  0  0
  9 10  1  0  0  0  0
  9 34  1  0  0  0  0
  9 35  1  0  0  0  0
 10 11  1  0  0  0  0
 10 36  1  0  0  0  0
 11 12  2  0  0  0  0
 11 13  1  0  0  0  0
 13 14  1  0  0  0  0
 13 37  1  0  0  0  0
 14 18  1  0  0  0  0
 14 15  2  0  0  0  0
 15 16  1  0  0  0  0
 16 17  2  0  0  0  0
 17 18  1  0  0  0  0
 17 38  1  0  0  0  0
 19 20  1  0  0  0  0
 19 39  1  0  0  0  0
 19 40  1  0  0  0  0
 20 41  1  0  0  0  0
 20 42  1  0  0  0  0
M  CHG  1   6   1
M  END
> <s_m_source_file>
AV-unprocessed.smi

> <i_m_source_file_index>
1817

> <i_lp_mmshare_version>
43012

> <i_f3d_flags>
0

> <s_epik_input>
W0NIM11bQ0gyXU4xW0NIMl1bQ0gyXU4oW0NIMl1bQ0gyXTEpW0NASF0oW0NIM10pW0NIMl1bTkhdQyg9TylbTkhdYzJubltjSF1zMg==

> <s_epik_cmdline>
J2VwaWtfcHl0aG9uJywgJy1waCcsICc3LjAnLCAnLXRuJywgJzgnLCAnLW1hJywgJzIwMCcsICctbWV0YWxfYmluZGluZycsICctaW1hZScsICc8aW5maWxlLm1hZT4nLCAnLW9tYWUnLCAnPG91dGZpbGUubWFlPic=

> <r_epik_Ionization_Penalty>
0.153808

> <r_epik_Ionization_Penalty_Charging>
0.148467

> <r_epik_Ionization_Penalty_Neutral>
0.00534086

> <r_epik_State_Penalty>
0.974087

> <r_epik_Charging_Adjusted_Penalty>
1.12255

> <i_epik_Tot_Q>
1

> <i_epik_Tot_abs_Q>
1

> <r_epik_Metal_State_Penalty>
1.30894

> <b_epik_Metal_Only>
0

> <s_lp_Force_Field>
OPLS_2005

> <r_lp_Energy>
21.4774

> <b_lp_Chiralities_Consistent>
1

> <s_lp_Variant>
AV-unprocessed.smi:1817-4

> <Gold.Version>
5.8.1

> <Gold.Id.Protein>
6NUR|6NUR_protein|mol2

> <Gold.PLP.Fitness>
41.5837

> <Gold.PLP.PLP>
-30.9739

> <Gold.PLP.part.hbond>
-4.4657

> <Gold.PLP.part.metal>
0.0000

> <Gold.PLP.part.buried>
-1.7412

> <Gold.PLP.part.nonpolar>
-24.7974

> <Gold.PLP.part.repulsive>
0.5447

> <Gold.PLP.ligand.clash>
0.0000

> <Gold.PLP.ligand.torsion>
0.7887

> <Gold.PLP.Chemscore.Hbond>
4.0417

> <Gold.PLP.Chemscore.CHOScore>
0.0000

> <Gold.PLP.Chemscore.Metal>
0.0000

> <Gold.Chemscore.Hbonds>
donor molecule, donor type, donor heavy atom, donor atom, acceptor molecule, acceptor atom, score
      L1  H     6    43       P1  7948  2.00
      L1  H    10    36       P1  7948  1.00
      L1  H    13    37       P1  7948  0.93
      P1  H 10752 10764       L1    15  0.17

> <Gold.PLP.Chemscore.Internal.Correction>
0.0622

> <Gold.Rescore>
     Score         DG    S(hbond)    S(metal)    S(lipo)     H(rot)  DE(clash)    DE(int)     intcor
     16.59     -17.45       2.83        0.00      63.39       1.92       0.05       0.81       ----

> <Gold.Chemscore.Fitness>
16.5888

> <Gold.Chemscore.DG>
-17.4463

> <Gold.Chemscore.ZeroCoef>
-5.4800

> <Gold.Chemscore.Hbond>
2.8335

> <Gold.Chemscore.Metal>
0.0000

> <Gold.Chemscore.Lipo>
63.3893

> <Gold.Chemscore.Internal_Hbond>
0.0000

> <Gold.Chemscore.DEClash>
0.0465

> <Gold.Chemscore.DEInternal>
0.8110

> <Gold.Chemscore.Rot>
1.9196

> <Gold.Chemscore.Internal.Correction>
   9.000000E+99

> <Gold.Chemscore.Hbonds>
donor molecule, donor type, donor heavy atom, donor atom, acceptor molecule, acceptor atom, score
      L1  H     6    43       P1  7948  0.99
      L1  H    10    36       P1  7948  0.93
      L1  H    13    37       P1  7948  0.50

> <Gold.Chemscore.Hbond.Weighted>
-9.4638

> <Gold.Chemscore.Metal.Weighted>
-0.0000

> <Gold.Chemscore.Lipo.Weighted>
-7.4166

> <Gold.Chemscore.Internal_Hbond.Weighted>
0.0000

> <Gold.Chemscore.DEClash.Weighted>
0.0465

> <Gold.Chemscore.DEInternal.Weighted>
0.8110

> <Gold.Chemscore.Rot.Weighted>
4.9141

> <Gold.Chemscore.Internal.Correction.Weighted>
   9.000000E+99

> <Gold.Protein.RotatedTorsions>
[ 6907 6896 6895 6894 ] final   65.12 input  -60.11 | X-H torsion
[ 7974 7965 7964 7962 ] final -119.92 input  175.53 | X-H torsion
[ 8008 7997 7996 7995 ] final -179.53 input   59.86 | X-H torsion
[ 10167 10162 10161 10158 ] final  138.75 input  -65.29 | X-H torsion
[ 10718 10713 10712 10709 ] final   -0.03 input   66.30 | X-H torsion
[ 10763 10752 10751 10750 ] final  -90.20 input  -60.55 | X-H torsion
[ 11005 11000 10999 10996 ] final   42.98 input  -57.11 | X-H torsion

> <Gold.Protein.ActiveResidues>
 VAL166  LYS551  ARG553  GLY616  TRP617  ASP618  TYR619  PRO620  LYS621  CYS622 
 ASP623  PHE694  ASN695  SER759  ASP760  ASP761  ALA762  ILE779  LEU786  VAL792 
 PHE793  MET794  SER795  GLU796  ALA797  LYS798  CYS799  TRP800  GLU811  SER814 

> <Gold.Protein.RotatedAtoms>
  152.4383  134.5642  159.9902 H   0  0  0  0  0  0  0  0  0  0  0  0  # atno 6907 bound_to 6896
  151.5746  133.3380  159.3004 H   0  0  0  0  0  0  0  0  0  0  0  0  # atno 6908 bound_to 6896
  150.8285  134.7561  159.6897 H   0  0  0  0  0  0  0  0  0  0  0  0  # atno 6909 bound_to 6896
  145.0571  140.8262  143.4174 H   0  0  0  0  0  0  0  0  0  0  0  0  # atno 7974 bound_to 7965
  156.0316  140.1283  157.0252 H   0  0  0  0  0  0  0  0  0  0  0  0  # atno 8008 bound_to 7997
  154.4352  140.1048  156.6177 H   0  0  0  0  0  0  0  0  0  0  0  0  # atno 8009 bound_to 7997
  155.5799  140.3468  155.4539 H   0  0  0  0  0  0  0  0  0  0  0  0  # atno 8010 bound_to 7997
  139.5100  144.6335  151.5757 H   0  0  0  0  0  0  0  0  0  0  0  0  # atno 10167 bound_to 10162
  156.8265  130.5474  149.5691 H   0  0  0  0  0  0  0  0  0  0  0  0  # atno 10718 bound_to 10713
  154.6633  135.5313  153.8045 H   0  0  0  0  0  0  0  0  0  0  0  0  # atno 10763 bound_to 10752
  153.0455  135.6511  154.0838 H   0  0  0  0  0  0  0  0  0  0  0  0  # atno 10764 bound_to 10752
  154.0745  135.2951  155.3282 H   0  0  0  0  0  0  0  0  0  0  0  0  # atno 10765 bound_to 10752
  140.1688  134.4248  155.8270 H   0  0  0  0  0  0  0  0  0  0  0  0  # atno 11005 bound_to 11000
  145.1454  139.2546  143.5468 LP  0  0  0  0  0  0  0  0  0  0  0  0  # atno 17320 bound_to 7965
  146.3522  140.1143  142.8602 LP  0  0  0  0  0  0  0  0  0  0  0  0  # atno 17321 bound_to 7965
  140.6076  143.9496  150.6429 LP  0  0  0  0  0  0  0  0  0  0  0  0  # atno 17342 bound_to 10162
  140.2728  143.3444  152.1222 LP  0  0  0  0  0  0  0  0  0  0  0  0  # atno 17343 bound_to 10162
  156.0959  130.5931  150.9812 LP  0  0  0  0  0  0  0  0  0  0  0  0  # atno 17370 bound_to 10713
  157.6429  131.0908  150.8213 LP  0  0  0  0  0  0  0  0  0  0  0  0  # atno 17371 bound_to 10713
  141.2216  133.6946  156.7726 LP  0  0  0  0  0  0  0  0  0  0  0  0  # atno 17394 bound_to 11000
  140.2402  134.8619  157.3565 LP  0  0  0  0  0  0  0  0  0  0  0  0  # atno 17395 bound_to 11000

$$$$
