AV-unprocessed.smi:2810|AV-procd|sdf|10827|dock8
  -GOLD-   2272015263D 1   1.00000     0.00000
 Structure written by MMmdl.
 39 40  0  0  0  0  0  0  0  0  1 V2000
  146.5633  142.8979  154.2612 C   0  0  0  0  0  0  0  0  0  0  0  0
  147.2280  141.5449  154.4001 C   0  0  0  0  0  0  0  0  0  0  0  0
  148.4278  141.3846  155.1232 C   0  0  0  0  0  0  0  0  0  0  0  0
  148.9661  140.0756  155.1767 C   0  0  0  0  0  0  0  0  0  0  0  0
  150.1570  139.7613  155.8624 N   0  0  0  0  0  0  0  0  0  0  0  0
  150.5469  140.8283  156.7816 C   0  0  0  0  0  0  0  0  0  0  0  0
  151.7053  140.3742  157.6813 C   0  0  0  0  0  0  0  0  0  0  0  0
  152.7843  139.9343  156.8677 O   0  0  0  0  0  0  0  0  0  0  0  0
  152.4176  138.8079  156.0802 C   0  0  0  0  0  0  0  0  0  0  0  0
  151.2736  139.1753  155.1061 C   0  0  1  0  0  0  0  0  0  0  0  0
  150.9162  137.9182  154.2915 C   0  0  0  0  0  0  0  0  0  0  0  0
  150.1884  138.0990  153.1868 N   0  0  0  0  0  0  0  0  0  0  0  0
  151.2997  136.8048  154.6459 O   0  0  0  0  0  0  0  0  0  0  0  0
  148.3328  139.0444  154.5725 N   0  0  0  0  0  0  0  0  0  0  0  0
  147.1998  139.3089  153.9133 C   0  0  0  0  0  0  0  0  0  0  0  0
  146.5087  138.1356  153.2313 C   0  0  0  0  0  0  0  0  0  0  0  0
  146.5053  138.2809  151.7016 C   0  0  0  0  0  0  0  0  0  0  0  0
  145.1108  137.8750  153.8134 C   0  0  0  0  0  0  0  0  0  0  0  0
  146.6158  140.5050  153.7950 N   0  0  0  0  0  0  0  0  0  0  0  0
  147.0339  143.6361  154.9110 H   0  0  0  0  0  0  0  0  0  0  0  0
  145.5078  142.8348  154.5271 H   0  0  0  0  0  0  0  0  0  0  0  0
  146.6394  143.2503  153.2322 H   0  0  0  0  0  0  0  0  0  0  0  0
  148.9007  142.2262  155.6059 H   0  0  0  0  0  0  0  0  0  0  0  0
  150.8458  141.7057  156.2056 H   0  0  0  0  0  0  0  0  0  0  0  0
  149.7068  141.1310  157.4086 H   0  0  0  0  0  0  0  0  0  0  0  0
  152.0446  141.2020  158.3043 H   0  0  0  0  0  0  0  0  0  0  0  0
  151.3883  139.5766  158.3554 H   0  0  0  0  0  0  0  0  0  0  0  0
  153.2983  138.4793  155.5266 H   0  0  0  0  0  0  0  0  0  0  0  0
  152.1322  137.9816  156.7348 H   0  0  0  0  0  0  0  0  0  0  0  0
  151.6526  139.9391  154.4249 H   0  0  0  0  0  0  0  0  0  0  0  0
  149.9299  137.3068  152.6169 H   0  0  0  0  0  0  0  0  0  0  0  0
  149.9010  139.0306  152.9244 H   0  0  0  0  0  0  0  0  0  0  0  0
  147.0990  137.2440  153.4499 H   0  0  0  0  0  0  0  0  0  0  0  0
  147.5198  138.3899  151.3174 H   0  0  0  0  0  0  0  0  0  0  0  0
  145.9332  139.1535  151.3849 H   0  0  0  0  0  0  0  0  0  0  0  0
  146.0638  137.4051  151.2260 H   0  0  0  0  0  0  0  0  0  0  0  0
  145.1610  137.7023  154.8890 H   0  0  0  0  0  0  0  0  0  0  0  0
  144.6540  136.9959  153.3585 H   0  0  0  0  0  0  0  0  0  0  0  0
  144.4438  138.7205  153.6423 H   0  0  0  0  0  0  0  0  0  0  0  0
  1  2  1  0  0  0  0
  1 20  1  0  0  0  0
  1 21  1  0  0  0  0
  1 22  1  0  0  0  0
  2 19  1  0  0  0  0
  2  3  2  0  0  0  0
  3  4  1  0  0  0  0
  3 23  1  0  0  0  0
  4  5  1  0  0  0  0
  4 14  2  0  0  0  0
  5 10  1  0  0  0  0
  5  6  1  0  0  0  0
  6  7  1  0  0  0  0
  6 24  1  0  0  0  0
  6 25  1  0  0  0  0
  7  8  1  0  0  0  0
  7 26  1  0  0  0  0
  7 27  1  0  0  0  0
  8  9  1  0  0  0  0
  9 10  1  0  0  0  0
  9 28  1  0  0  0  0
  9 29  1  0  0  0  0
 10 11  1  0  0  0  0
 10 30  1  0  0  0  0
 11 12  1  0  0  0  0
 11 13  2  0  0  0  0
 12 31  1  0  0  0  0
 12 32  1  0  0  0  0
 14 15  1  0  0  0  0
 15 16  1  0  0  0  0
 15 19  2  0  0  0  0
 16 17  1  0  0  0  0
 16 18  1  0  0  0  0
 16 33  1  0  0  0  0
 17 34  1  0  0  0  0
 17 35  1  0  0  0  0
 17 36  1  0  0  0  0
 18 37  1  0  0  0  0
 18 38  1  0  0  0  0
 18 39  1  0  0  0  0
M  END
> <s_m_source_file>
AV-unprocessed.smi

> <i_m_source_file_index>
2810

> <i_lp_mmshare_version>
43012

> <i_f3d_flags>
0

> <s_epik_input>
W0NIM11bQ0hdKFtDSDNdKWMobjEpbmMoW2NIXWMxW0NIM10pTjJbQ0gyXVtDSDJdT1tDSDJdW0NASF0yQyg9TylbTkgyXQ==

> <s_epik_cmdline>
J2VwaWtfcHl0aG9uJywgJy1waCcsICc3LjAnLCAnLXRuJywgJzgnLCAnLW1hJywgJzIwMCcsICctbWV0YWxfYmluZGluZycsICctaW1hZScsICc8aW5maWxlLm1hZT4nLCAnLW9tYWUnLCAnPG91dGZpbGUubWFlPic=

> <r_lp_tautomer_probability>
1

> <r_epik_Ionization_Penalty>
0.00607782

> <r_epik_Ionization_Penalty_Charging>
0

> <r_epik_Ionization_Penalty_Neutral>
0.00607782

> <r_epik_State_Penalty>
0.00441345

> <r_epik_Charging_Adjusted_Penalty>
0.00441345

> <i_epik_Tot_Q>
0

> <i_epik_Tot_abs_Q>
0

> <r_epik_Metal_State_Penalty>
-0

> <b_epik_Metal_Only>
0

> <s_lp_Force_Field>
OPLS_2005

> <r_lp_Energy>
6.57668

> <b_lp_Chiralities_Consistent>
1

> <s_lp_Variant>
AV-unprocessed.smi:2810-1

> <Gold.Version>
5.8.1

> <Gold.Id.Protein>
6NUR|6NUR_protein|mol2

> <Gold.PLP.Fitness>
38.3583

> <Gold.PLP.PLP>
-29.5300

> <Gold.PLP.part.hbond>
-5.0000

> <Gold.PLP.part.metal>
0.0000

> <Gold.PLP.part.buried>
0.7016

> <Gold.PLP.part.nonpolar>
-26.6430

> <Gold.PLP.part.repulsive>
0.5528

> <Gold.PLP.ligand.clash>
0.0818

> <Gold.PLP.ligand.torsion>
0.5828

> <Gold.PLP.Chemscore.Hbond>
3.2483

> <Gold.PLP.Chemscore.CHOScore>
0.0000

> <Gold.PLP.Chemscore.Metal>
0.0000

> <Gold.Chemscore.Hbonds>
donor molecule, donor type, donor heavy atom, donor atom, acceptor molecule, acceptor atom, score
      L1  H    12    31       P1  7948  0.65
      L1  H    12    32       P1  7957  0.69
      P1  H  7997  8009       L1     8  1.00
      P1  H 10752 10763       L1    13  0.89

> <Gold.PLP.Chemscore.Internal.Correction>
0.3308

> <Gold.Rescore>
     Score         DG    S(hbond)    S(metal)    S(lipo)     H(rot)  DE(clash)    DE(int)     intcor
     11.42     -15.78       2.32        0.00      59.36       1.71       0.57       3.78       ----

> <Gold.Chemscore.Fitness>
11.4249

> <Gold.Chemscore.DG>
-15.7782

> <Gold.Chemscore.ZeroCoef>
-5.4800

> <Gold.Chemscore.Hbond>
2.3158

> <Gold.Chemscore.Metal>
0.0000

> <Gold.Chemscore.Lipo>
59.3623

> <Gold.Chemscore.Internal_Hbond>
0.0000

> <Gold.Chemscore.DEClash>
0.5743

> <Gold.Chemscore.DEInternal>
3.7790

> <Gold.Chemscore.Rot>
1.7117

> <Gold.Chemscore.Internal.Correction>
   9.000000E+99

> <Gold.Chemscore.Hbonds>
donor molecule, donor type, donor heavy atom, donor atom, acceptor molecule, acceptor atom, score
      L1  H    12    31       P1  7948  0.05
      L1  H    12    32       P1  7957  0.58
      P1  H  7997  8009       L1     8  0.39
      P1  H 10752 10763       L1    13  0.83

> <Gold.Chemscore.Hbond.Weighted>
-7.7348

> <Gold.Chemscore.Metal.Weighted>
-0.0000

> <Gold.Chemscore.Lipo.Weighted>
-6.9454

> <Gold.Chemscore.Internal_Hbond.Weighted>
0.0000

> <Gold.Chemscore.DEClash.Weighted>
0.5743

> <Gold.Chemscore.DEInternal.Weighted>
3.7790

> <Gold.Chemscore.Rot.Weighted>
4.3820

> <Gold.Chemscore.Internal.Correction.Weighted>
   9.000000E+99

> <Gold.Protein.RotatedTorsions>
[ 6907 6896 6895 6894 ] final -148.69 input  -60.11 | X-H torsion
[ 7974 7965 7964 7962 ] final  -92.94 input  175.53 | X-H torsion
[ 8008 7997 7996 7995 ] final -174.18 input   59.86 | X-H torsion
[ 10167 10162 10161 10158 ] final -166.61 input  -65.29 | X-H torsion
[ 10718 10713 10712 10709 ] final -106.92 input   66.30 | X-H torsion
[ 10763 10752 10751 10750 ] final   32.25 input  -60.55 | X-H torsion
[ 11005 11000 10999 10996 ] final  -93.21 input  -57.11 | X-H torsion

> <Gold.Protein.ActiveResidues>
 VAL166  LYS551  ARG553  GLY616  TRP617  ASP618  TYR619  PRO620  LYS621  CYS622 
 ASP623  PHE694  ASN695  SER759  ASP760  ASP761  ALA762  ILE779  LEU786  VAL792 
 PHE793  MET794  SER795  GLU796  ALA797  LYS798  CYS799  TRP800  GLU811  SER814 

> <Gold.Protein.RotatedAtoms>
  151.1735  133.4769  159.2593 H   0  0  0  0  0  0  0  0  0  0  0  0  # atno 6907 bound_to 6896
  151.1332  135.0141  159.8602 H   0  0  0  0  0  0  0  0  0  0  0  0  # atno 6908 bound_to 6896
  152.5460  134.1636  159.8621 H   0  0  0  0  0  0  0  0  0  0  0  0  # atno 6909 bound_to 6896
  145.3931  140.9530  143.2329 H   0  0  0  0  0  0  0  0  0  0  0  0  # atno 7974 bound_to 7965
  155.9668  140.1155  157.0847 H   0  0  0  0  0  0  0  0  0  0  0  0  # atno 8008 bound_to 7997
  154.4146  140.1171  156.5320 H   0  0  0  0  0  0  0  0  0  0  0  0  # atno 8009 bound_to 7997
  155.6648  140.3473  155.4798 H   0  0  0  0  0  0  0  0  0  0  0  0  # atno 8010 bound_to 7997
  139.6103  144.0828  152.1835 H   0  0  0  0  0  0  0  0  0  0  0  0  # atno 10167 bound_to 10162
  156.0412  130.5637  150.7749 H   0  0  0  0  0  0  0  0  0  0  0  0  # atno 10718 bound_to 10713
  153.0272  135.6418  154.1325 H   0  0  0  0  0  0  0  0  0  0  0  0  # atno 10763 bound_to 10752
  154.1053  135.2856  155.3244 H   0  0  0  0  0  0  0  0  0  0  0  0  # atno 10764 bound_to 10752
  154.6370  135.5473  153.7808 H   0  0  0  0  0  0  0  0  0  0  0  0  # atno 10765 bound_to 10752
  141.1503  133.7872  157.0127 H   0  0  0  0  0  0  0  0  0  0  0  0  # atno 11005 bound_to 11000
  144.8426  139.5448  143.6893 LP  0  0  0  0  0  0  0  0  0  0  0  0  # atno 17320 bound_to 7965
  146.2788  139.6822  142.9244 LP  0  0  0  0  0  0  0  0  0  0  0  0  # atno 17321 bound_to 7965
  140.0445  144.5981  150.7385 LP  0  0  0  0  0  0  0  0  0  0  0  0  # atno 17342 bound_to 10162
  140.7314  143.2694  151.3937 LP  0  0  0  0  0  0  0  0  0  0  0  0  # atno 17343 bound_to 10162
  157.5232  131.0932  151.0051 LP  0  0  0  0  0  0  0  0  0  0  0  0  # atno 17370 bound_to 10713
  157.0376  130.5736  149.5351 LP  0  0  0  0  0  0  0  0  0  0  0  0  # atno 17371 bound_to 10713
  140.0867  134.9617  157.1711 LP  0  0  0  0  0  0  0  0  0  0  0  0  # atno 17394 bound_to 11000
  140.3502  134.2607  155.7199 LP  0  0  0  0  0  0  0  0  0  0  0  0  # atno 17395 bound_to 11000

$$$$
