AV-unprocessed.smi:658|AV-procd|sdf|3232|dock4
  -GOLD-   22720 0173D 1   1.00000     0.00000
 Structure written by MMmdl.
 38 38  0  0  0  0  0  0  0  0  2 V2000
  150.6102  143.9965  158.7228 C   0  0  0  0  0  0  0  0  0  0  0  0
  151.2282  142.8424  157.9054 C   0  0  2  0  0  0  0  0  0  0  0  0
  150.3500  142.4970  156.7633 N   0  3  0  0  0  0  0  0  0  0  0  0
  149.1381  141.7229  157.1052 C   0  0  0  0  0  0  0  0  0  0  0  0
  148.2914  141.4545  155.8552 C   0  0  0  0  0  0  0  0  0  0  0  0
  149.1472  141.1082  154.6290 C   0  0  0  0  0  0  0  0  0  0  0  0
  150.1144  139.5596  154.8918 S   0  0  0  0  0  0  0  0  0  0  0  0
  149.7535  138.6626  153.4700 N   0  0  0  0  0  0  0  0  0  0  0  0
  151.5508  139.8743  154.8601 O   0  0  0  0  0  0  0  0  0  0  0  0
  149.5269  138.8296  156.0247 O   0  0  0  0  0  0  0  0  0  0  0  0
  151.4970  141.5751  158.7613 C   0  0  1  0  0  0  0  0  0  0  0  0
  152.2410  140.4776  157.9755 C   0  0  0  0  0  0  0  0  0  0  0  0
  152.2181  141.8799  159.9912 N   0  0  0  0  0  0  0  0  0  0  0  0
  153.4642  141.4355  160.3838 C   0  0  0  0  0  0  0  0  0  0  0  0
  153.7274  141.9840  161.6061 C   0  0  0  0  0  0  0  0  0  0  0  0
  152.5706  142.7644  161.8833 C   0  0  0  0  0  0  0  0  0  0  0  0
  151.6704  142.7017  160.9155 N   0  0  0  0  0  0  0  0  0  0  0  0
  151.2638  144.3141  159.5351 H   0  0  0  0  0  0  0  0  0  0  0  0
  149.6566  143.7023  159.1620 H   0  0  0  0  0  0  0  0  0  0  0  0
  150.4333  144.8791  158.1093 H   0  0  0  0  0  0  0  0  0  0  0  0
  152.1845  143.1833  157.5051 H   0  0  0  0  0  0  0  0  0  0  0  0
  150.0392  143.3641  156.3487 H   0  0  0  0  0  0  0  0  0  0  0  0
  149.4178  140.7763  157.5675 H   0  0  0  0  0  0  0  0  0  0  0  0
  148.5508  142.2794  157.8368 H   0  0  0  0  0  0  0  0  0  0  0  0
  147.5983  140.6357  156.0537 H   0  0  0  0  0  0  0  0  0  0  0  0
  147.6813  142.3318  155.6366 H   0  0  0  0  0  0  0  0  0  0  0  0
  148.5047  140.9505  153.7621 H   0  0  0  0  0  0  0  0  0  0  0  0
  149.8428  141.9096  154.3784 H   0  0  0  0  0  0  0  0  0  0  0  0
  149.9231  139.1865  152.6115 H   0  0  0  0  0  0  0  0  0  0  0  0
  148.8535  138.1848  153.5137 H   0  0  0  0  0  0  0  0  0  0  0  0
  150.5315  141.1654  159.0627 H   0  0  0  0  0  0  0  0  0  0  0  0
  151.6623  140.1326  157.1185 H   0  0  0  0  0  0  0  0  0  0  0  0
  152.4320  139.6081  158.6054 H   0  0  0  0  0  0  0  0  0  0  0  0
  153.2026  140.8332  157.6035 H   0  0  0  0  0  0  0  0  0  0  0  0
  154.0542  140.7716  159.7691 H   0  0  0  0  0  0  0  0  0  0  0  0
  154.6125  141.8501  162.2103 H   0  0  0  0  0  0  0  0  0  0  0  0
  152.3601  143.3705  162.7522 H   0  0  0  0  0  0  0  0  0  0  0  0
  150.8897  141.9902  156.0763 H   0  0  0  0  0  0  0  0  0  0  0  0
  1  2  1  0  0  0  0
  1 18  1  0  0  0  0
  1 19  1  0  0  0  0
  1 20  1  0  0  0  0
  2  3  1  0  0  0  0
  2 11  1  0  0  0  0
  2 21  1  0  0  0  0
  3  4  1  0  0  0  0
  3 22  1  0  0  0  0
  3 38  1  0  0  0  0
  4  5  1  0  0  0  0
  4 23  1  0  0  0  0
  4 24  1  0  0  0  0
  5  6  1  0  0  0  0
  5 25  1  0  0  0  0
  5 26  1  0  0  0  0
  6  7  1  0  0  0  0
  6 27  1  0  0  0  0
  6 28  1  0  0  0  0
  7  8  1  0  0  0  0
  7  9  2  0  0  0  0
  7 10  2  0  0  0  0
  8 29  1  0  0  0  0
  8 30  1  0  0  0  0
 11 12  1  0  0  0  0
 11 13  1  0  0  0  0
 11 31  1  0  0  0  0
 12 32  1  0  0  0  0
 12 33  1  0  0  0  0
 12 34  1  0  0  0  0
 13 17  1  0  0  0  0
 13 14  1  0  0  0  0
 14 15  2  0  0  0  0
 14 35  1  0  0  0  0
 15 16  1  0  0  0  0
 15 36  1  0  0  0  0
 16 17  2  0  0  0  0
 16 37  1  0  0  0  0
M  CHG  1   3   1
M  END
> <s_m_source_file>
AV-unprocessed.smi

> <i_m_source_file_index>
658

> <i_lp_mmshare_version>
43012

> <i_f3d_flags>
0

> <s_epik_input>
bjFbY0hdW2NIXVtjSF1uMVtDQEBIXShbQ0gzXSlbQ0BIXShbQ0gzXSlbTkhdW0NIMl1bQ0gyXVtDSDJdUyg9TykoPU8pW05IMl0=

> <s_epik_cmdline>
J2VwaWtfcHl0aG9uJywgJy1waCcsICc3LjAnLCAnLXRuJywgJzgnLCAnLW1hJywgJzIwMCcsICctbWV0YWxfYmluZGluZycsICctaW1hZScsICc8aW5maWxlLm1hZT4nLCAnLW9tYWUnLCAnPG91dGZpbGUubWFlPic=

> <r_lp_tautomer_probability>
1

> <r_epik_Ionization_Penalty>
0.00535781

> <r_epik_Ionization_Penalty_Charging>
0.00511015

> <r_epik_Ionization_Penalty_Neutral>
0.000247661

> <r_epik_State_Penalty>
-0

> <r_epik_Charging_Adjusted_Penalty>
0.00511015

> <i_epik_Tot_Q>
1

> <i_epik_Tot_abs_Q>
1

> <r_epik_Metal_State_Penalty>
0.149106

> <b_epik_Metal_Only>
0

> <s_lp_Force_Field>
OPLS_2005

> <r_lp_Energy>
7.04511

> <b_lp_Chiralities_Consistent>
1

> <s_lp_Variant>
AV-unprocessed.smi:658-3

> <Gold.Version>
5.8.1

> <Gold.Id.Protein>
6NUR|6NUR_protein|mol2

> <Gold.PLP.Fitness>
49.9172

> <Gold.PLP.PLP>
-38.1853

> <Gold.PLP.part.hbond>
-5.0000

> <Gold.PLP.part.metal>
0.0000

> <Gold.PLP.part.buried>
-6.8789

> <Gold.PLP.part.nonpolar>
-27.9340

> <Gold.PLP.part.repulsive>
0.1785

> <Gold.PLP.ligand.clash>
0.0000

> <Gold.PLP.ligand.torsion>
0.4640

> <Gold.PLP.Chemscore.Hbond>
4.1053

> <Gold.PLP.Chemscore.CHOScore>
0.0000

> <Gold.PLP.Chemscore.Metal>
0.0000

> <Gold.Chemscore.Hbonds>
donor molecule, donor type, donor heavy atom, donor atom, acceptor molecule, acceptor atom, score
      L1  H     3    22       P1  8028  2.00
      L1  H     8    29       P1  7957  1.00
      P1  H  6933  6945       L1    17  0.09
      P1  H  7989  7998       L1     9  1.00

> <Gold.PLP.Chemscore.Internal.Correction>
0.3441

> <Gold.Rescore>
     Score         DG    S(hbond)    S(metal)    S(lipo)     H(rot)  DE(clash)    DE(int)     intcor
     15.23     -17.29       3.34        0.00      74.12       3.13       0.01       2.04       ----

> <Gold.Chemscore.Fitness>
15.2343

> <Gold.Chemscore.DG>
-17.2856

> <Gold.Chemscore.ZeroCoef>
-5.4800

> <Gold.Chemscore.Hbond>
3.3383

> <Gold.Chemscore.Metal>
0.0000

> <Gold.Chemscore.Lipo>
74.1155

> <Gold.Chemscore.Internal_Hbond>
0.0000

> <Gold.Chemscore.DEClash>
0.0073

> <Gold.Chemscore.DEInternal>
2.0440

> <Gold.Chemscore.Rot>
3.1312

> <Gold.Chemscore.Internal.Correction>
   9.000000E+99

> <Gold.Chemscore.Hbonds>
donor molecule, donor type, donor heavy atom, donor atom, acceptor molecule, acceptor atom, score
      L1  H     3    22       P1  8028  0.99
      L1  H     8    29       P1  7957  0.85
      P1  H  6933  6945       L1    17  0.01
      P1  H  7989  7998       L1     9  0.34

> <Gold.Chemscore.Hbond.Weighted>
-11.1501

> <Gold.Chemscore.Metal.Weighted>
-0.0000

> <Gold.Chemscore.Lipo.Weighted>
-8.6715

> <Gold.Chemscore.Internal_Hbond.Weighted>
0.0000

> <Gold.Chemscore.DEClash.Weighted>
0.0073

> <Gold.Chemscore.DEInternal.Weighted>
2.0440

> <Gold.Chemscore.Rot.Weighted>
8.0160

> <Gold.Chemscore.Internal.Correction.Weighted>
   9.000000E+99

> <Gold.Protein.RotatedTorsions>
[ 6907 6896 6895 6894 ] final -148.13 input  -60.11 | X-H torsion
[ 7974 7965 7964 7962 ] final   47.15 input  175.53 | X-H torsion
[ 8008 7997 7996 7995 ] final   30.79 input   59.86 | X-H torsion
[ 10167 10162 10161 10158 ] final  148.12 input  -65.29 | X-H torsion
[ 10718 10713 10712 10709 ] final   12.53 input   66.30 | X-H torsion
[ 10763 10752 10751 10750 ] final  105.62 input  -60.55 | X-H torsion
[ 11005 11000 10999 10996 ] final   41.28 input  -57.11 | X-H torsion

> <Gold.Protein.ActiveResidues>
 VAL166  LYS551  ARG553  GLY616  TRP617  ASP618  TYR619  PRO620  LYS621  CYS622 
 ASP623  PHE694  ASN695  SER759  ASP760  ASP761  ALA762  ILE779  LEU786  VAL792 
 PHE793  MET794  SER795  GLU796  ALA797  LYS798  CYS799  TRP800  GLU811  SER814 

> <Gold.Protein.RotatedAtoms>
  151.1655  133.4817  159.2593 H   0  0  0  0  0  0  0  0  0  0  0  0  # atno 6907 bound_to 6896
  151.1410  135.0179  159.8635 H   0  0  0  0  0  0  0  0  0  0  0  0  # atno 6908 bound_to 6896
  152.5462  134.1549  159.8587 H   0  0  0  0  0  0  0  0  0  0  0  0  # atno 6909 bound_to 6896
  146.0325  139.4780  142.9829 H   0  0  0  0  0  0  0  0  0  0  0  0  # atno 7974 bound_to 7965
  155.0961  140.3225  155.4560 H   0  0  0  0  0  0  0  0  0  0  0  0  # atno 8008 bound_to 7997
  156.2730  140.2069  156.6034 H   0  0  0  0  0  0  0  0  0  0  0  0  # atno 8009 bound_to 7997
  154.6866  140.0521  157.0307 H   0  0  0  0  0  0  0  0  0  0  0  0  # atno 8010 bound_to 7997
  139.4879  144.5703  151.7067 H   0  0  0  0  0  0  0  0  0  0  0  0  # atno 10167 bound_to 10162
  157.0115  130.6119  149.5709 H   0  0  0  0  0  0  0  0  0  0  0  0  # atno 10718 bound_to 10713
  153.3818  135.3904  155.1862 H   0  0  0  0  0  0  0  0  0  0  0  0  # atno 10763 bound_to 10752
  154.8708  135.3727  154.4847 H   0  0  0  0  0  0  0  0  0  0  0  0  # atno 10764 bound_to 10752
  153.5325  135.7085  153.5737 H   0  0  0  0  0  0  0  0  0  0  0  0  # atno 10765 bound_to 10752
  140.1850  134.4057  155.8178 H   0  0  0  0  0  0  0  0  0  0  0  0  # atno 11005 bound_to 11000
  145.7018  141.0133  143.1500 LP  0  0  0  0  0  0  0  0  0  0  0  0  # atno 17320 bound_to 7965
  144.7036  139.8653  143.7436 LP  0  0  0  0  0  0  0  0  0  0  0  0  # atno 17321 bound_to 7965
  140.5289  144.0761  150.6047 LP  0  0  0  0  0  0  0  0  0  0  0  0  # atno 17342 bound_to 10162
  140.3745  143.2836  152.0241 LP  0  0  0  0  0  0  0  0  0  0  0  0  # atno 17343 bound_to 10162
  156.0134  130.5227  150.8060 LP  0  0  0  0  0  0  0  0  0  0  0  0  # atno 17370 bound_to 10713
  157.5317  131.0937  150.9947 LP  0  0  0  0  0  0  0  0  0  0  0  0  # atno 17371 bound_to 10713
  141.2224  133.7018  156.7996 LP  0  0  0  0  0  0  0  0  0  0  0  0  # atno 17394 bound_to 11000
  140.2224  134.8747  157.3391 LP  0  0  0  0  0  0  0  0  0  0  0  0  # atno 17395 bound_to 11000

$$$$
