AV-unprocessed.smi:2774|AV-procd|sdf|10681|dock4
  -GOLD-   2272015123D 1   1.00000     0.00000
 Structure written by MMmdl.
 35 36  0  0  0  0  0  0  0  0  2 V2000
  148.8079  141.2046  154.8609 O   0  0  0  0  0  0  0  0  0  0  0  0
  150.1491  141.1698  155.3084 C   0  0  1  0  0  0  0  0  0  0  0  0
  150.1831  141.5486  156.7992 C   0  0  0  0  0  0  0  0  0  0  0  0
  150.7080  142.9176  156.9959 N   0  3  0  0  0  0  0  0  0  0  0  0
  150.8706  143.3409  158.4046 C   0  0  2  0  0  0  0  0  0  0  0  0
  151.0186  144.8751  158.5127 C   0  0  0  0  0  0  0  0  0  0  0  0
  151.1388  145.3622  159.9665 C   0  0  0  0  0  0  0  0  0  0  0  0
  152.3634  144.7796  160.6848 C   0  0  0  0  0  0  0  0  0  0  0  0
  152.2629  142.9728  160.7812 S   0  0  0  0  0  0  0  0  0  0  0  0
  152.0884  142.6205  159.0109 C   0  0  0  0  0  0  0  0  0  0  0  0
  150.7858  139.8091  155.0721 C   0  0  0  0  0  0  0  0  0  0  0  0
  152.1347  139.5810  155.4166 C   0  0  0  0  0  0  0  0  0  0  0  0
  152.6825  138.3031  155.1854 C   0  0  0  0  0  0  0  0  0  0  0  0
  151.9805  137.2811  154.6511 N   0  0  0  0  0  0  0  0  0  0  0  0
  150.6896  137.5036  154.3247 C   0  0  0  0  0  0  0  0  0  0  0  0
  150.0463  138.7430  154.5153 C   0  0  0  0  0  0  0  0  0  0  0  0
  148.2454  140.9608  155.5810 H   0  0  0  0  0  0  0  0  0  0  0  0
  150.7032  141.9142  154.7344 H   0  0  0  0  0  0  0  0  0  0  0  0
  149.1855  141.4596  157.2294 H   0  0  0  0  0  0  0  0  0  0  0  0
  150.8261  140.8505  157.3371 H   0  0  0  0  0  0  0  0  0  0  0  0
  151.6177  142.9529  156.5588 H   0  0  0  0  0  0  0  0  0  0  0  0
  149.9836  143.0241  158.9559 H   0  0  0  0  0  0  0  0  0  0  0  0
  151.8907  145.2035  157.9456 H   0  0  0  0  0  0  0  0  0  0  0  0
  150.1595  145.3705  158.0610 H   0  0  0  0  0  0  0  0  0  0  0  0
  151.2032  146.4507  159.9757 H   0  0  0  0  0  0  0  0  0  0  0  0
  150.2327  145.1069  160.5176 H   0  0  0  0  0  0  0  0  0  0  0  0
  153.2802  145.0592  160.1646 H   0  0  0  0  0  0  0  0  0  0  0  0
  152.4344  145.1801  161.6964 H   0  0  0  0  0  0  0  0  0  0  0  0
  151.9912  141.5411  158.8898 H   0  0  0  0  0  0  0  0  0  0  0  0
  153.0053  142.9173  158.4999 H   0  0  0  0  0  0  0  0  0  0  0  0
  152.7416  140.3633  155.8484 H   0  0  0  0  0  0  0  0  0  0  0  0
  153.7120  138.0966  155.4379 H   0  0  0  0  0  0  0  0  0  0  0  0
  150.1522  136.6685  153.9002 H   0  0  0  0  0  0  0  0  0  0  0  0
  149.0091  138.8662  154.2391 H   0  0  0  0  0  0  0  0  0  0  0  0
  150.1023  143.5734  156.5230 H   0  0  0  0  0  0  0  0  0  0  0  0
  1  2  1  0  0  0  0
  1 17  1  0  0  0  0
  2  3  1  0  0  0  0
  2 11  1  0  0  0  0
  2 18  1  0  0  0  0
  3  4  1  0  0  0  0
  3 19  1  0  0  0  0
  3 20  1  0  0  0  0
  4  5  1  0  0  0  0
  4 21  1  0  0  0  0
  4 35  1  0  0  0  0
  5 10  1  0  0  0  0
  5  6  1  0  0  0  0
  5 22  1  0  0  0  0
  6  7  1  0  0  0  0
  6 23  1  0  0  0  0
  6 24  1  0  0  0  0
  7  8  1  0  0  0  0
  7 25  1  0  0  0  0
  7 26  1  0  0  0  0
  8  9  1  0  0  0  0
  8 27  1  0  0  0  0
  8 28  1  0  0  0  0
  9 10  1  0  0  0  0
 10 29  1  0  0  0  0
 10 30  1  0  0  0  0
 11 16  1  0  0  0  0
 11 12  2  0  0  0  0
 12 13  1  0  0  0  0
 12 31  1  0  0  0  0
 13 14  2  0  0  0  0
 13 32  1  0  0  0  0
 14 15  1  0  0  0  0
 15 16  2  0  0  0  0
 15 33  1  0  0  0  0
 16 34  1  0  0  0  0
M  CHG  1   4   1
M  END
> <s_m_source_file>
AV-unprocessed.smi

> <i_m_source_file_index>
2774

> <i_lp_mmshare_version>
43012

> <i_f3d_flags>
0

> <s_epik_input>
W2NIXTFbY0hdbltjSF1bY0hdYzFbQ0BIXShbT0hdKVtDSDJdW05IXVtDQEBIXTJbQ0gyXVtDSDJdW0NIMl1TW0NIMl0y

> <s_epik_cmdline>
J2VwaWtfcHl0aG9uJywgJy1waCcsICc3LjAnLCAnLXRuJywgJzgnLCAnLW1hJywgJzIwMCcsICctbWV0YWxfYmluZGluZycsICctaW1hZScsICc8aW5maWxlLm1hZT4nLCAnLW9tYWUnLCAnPG91dGZpbGUubWFlPic=

> <r_epik_Ionization_Penalty>
0.0205977

> <r_epik_Ionization_Penalty_Charging>
0.0185619

> <r_epik_Ionization_Penalty_Neutral>
0.00203589

> <r_epik_State_Penalty>
0.0147768

> <r_epik_Charging_Adjusted_Penalty>
0.0333386

> <i_epik_Tot_Q>
1

> <i_epik_Tot_abs_Q>
1

> <r_epik_Metal_State_Penalty>
0.0152254

> <b_epik_Metal_Only>
0

> <s_lp_Force_Field>
OPLS_2005

> <r_lp_Energy>
10.436

> <b_lp_Chiralities_Consistent>
1

> <s_lp_Variant>
AV-unprocessed.smi:2774-2

> <Gold.Version>
5.8.1

> <Gold.Id.Protein>
6NUR|6NUR_protein|mol2

> <Gold.PLP.Fitness>
48.6967

> <Gold.PLP.PLP>
-38.4434

> <Gold.PLP.part.hbond>
-2.0000

> <Gold.PLP.part.metal>
0.0000

> <Gold.PLP.part.buried>
-3.7717

> <Gold.PLP.part.nonpolar>
-33.3607

> <Gold.PLP.part.repulsive>
0.1352

> <Gold.PLP.ligand.clash>
0.0000

> <Gold.PLP.ligand.torsion>
0.7894

> <Gold.PLP.Chemscore.Hbond>
2.9280

> <Gold.PLP.Chemscore.CHOScore>
1.0053

> <Gold.PLP.Chemscore.Metal>
0.0000

> <Gold.Chemscore.Hbonds>
donor molecule, donor type, donor heavy atom, donor atom, acceptor molecule, acceptor atom, score
      L1  H     4    35       P1  8028  2.00
      P1  H 10752 10764       L1    14  0.91
      L1  C    15    33       P1  7948  0.92
      L1  C    15    33       P1  7949  0.06

> <Gold.PLP.Chemscore.Internal.Correction>
0.0323

> <Gold.Rescore>
     Score         DG    S(hbond)    S(metal)    S(lipo)     H(rot)  DE(clash)    DE(int)     intcor
     19.12     -19.95       1.86        0.00     113.68       1.97       0.10       0.73       ----

> <Gold.Chemscore.Fitness>
19.1195

> <Gold.Chemscore.DG>
-19.9546

> <Gold.Chemscore.ZeroCoef>
-5.4800

> <Gold.Chemscore.Hbond>
1.8605

> <Gold.Chemscore.Metal>
0.0000

> <Gold.Chemscore.Lipo>
113.6753

> <Gold.Chemscore.Internal_Hbond>
0.0000

> <Gold.Chemscore.DEClash>
0.1019

> <Gold.Chemscore.DEInternal>
0.7332

> <Gold.Chemscore.Rot>
1.9686

> <Gold.Chemscore.Internal.Correction>
   9.000000E+99

> <Gold.Chemscore.Hbonds>
donor molecule, donor type, donor heavy atom, donor atom, acceptor molecule, acceptor atom, score
      L1  H     4    35       P1  8028  1.00
      P1  H 10752 10764       L1    14  0.80

> <Gold.Chemscore.Hbond.Weighted>
-6.2142

> <Gold.Chemscore.Metal.Weighted>
-0.0000

> <Gold.Chemscore.Lipo.Weighted>
-13.3000

> <Gold.Chemscore.Internal_Hbond.Weighted>
0.0000

> <Gold.Chemscore.DEClash.Weighted>
0.1019

> <Gold.Chemscore.DEInternal.Weighted>
0.7332

> <Gold.Chemscore.Rot.Weighted>
5.0396

> <Gold.Chemscore.Internal.Correction.Weighted>
   9.000000E+99

> <Gold.Protein.RotatedTorsions>
[ 6907 6896 6895 6894 ] final  169.05 input  -60.11 | X-H torsion
[ 7974 7965 7964 7962 ] final  -19.61 input  175.53 | X-H torsion
[ 8008 7997 7996 7995 ] final -137.61 input   59.86 | X-H torsion
[ 10167 10162 10161 10158 ] final -142.20 input  -65.29 | X-H torsion
[ 10718 10713 10712 10709 ] final  112.43 input   66.30 | X-H torsion
[ 10763 10752 10751 10750 ] final  -67.33 input  -60.55 | X-H torsion
[ 11005 11000 10999 10996 ] final -179.55 input  -57.11 | X-H torsion

> <Gold.Protein.ActiveResidues>
 VAL166  LYS551  ARG553  GLY616  TRP617  ASP618  TYR619  PRO620  LYS621  CYS622 
 ASP623  PHE694  ASN695  SER759  ASP760  ASP761  ALA762  ILE779  LEU786  VAL792 
 PHE793  MET794  SER795  GLU796  ALA797  LYS798  CYS799  TRP800  GLU811  SER814 

> <Gold.Protein.RotatedAtoms>
  151.8380  133.3419  159.3633 H   0  0  0  0  0  0  0  0  0  0  0  0  # atno 6907 bound_to 6896
  150.7243  134.5419  159.5761 H   0  0  0  0  0  0  0  0  0  0  0  0  # atno 6908 bound_to 6896
  152.2886  134.7748  160.0433 H   0  0  0  0  0  0  0  0  0  0  0  0  # atno 6909 bound_to 6896
  146.1832  140.4087  142.8486 H   0  0  0  0  0  0  0  0  0  0  0  0  # atno 7974 bound_to 7965
  155.4147  140.0514  157.3029 H   0  0  0  0  0  0  0  0  0  0  0  0  # atno 8008 bound_to 7997
  154.4930  140.2127  155.9467 H   0  0  0  0  0  0  0  0  0  0  0  0  # atno 8009 bound_to 7997
  156.1368  140.3162  155.8438 H   0  0  0  0  0  0  0  0  0  0  0  0  # atno 8010 bound_to 7997
  139.8111  143.7701  152.2663 H   0  0  0  0  0  0  0  0  0  0  0  0  # atno 10167 bound_to 10162
  157.6393  131.0967  150.6894 H   0  0  0  0  0  0  0  0  0  0  0  0  # atno 10718 bound_to 10713
  154.3729  135.6091  153.5750 H   0  0  0  0  0  0  0  0  0  0  0  0  # atno 10763 bound_to 10752
  152.9790  135.5842  154.4500 H   0  0  0  0  0  0  0  0  0  0  0  0  # atno 10764 bound_to 10752
  154.4257  135.2847  155.1924 H   0  0  0  0  0  0  0  0  0  0  0  0  # atno 10765 bound_to 10752
  140.4174  134.6636  157.4646 H   0  0  0  0  0  0  0  0  0  0  0  0  # atno 11005 bound_to 11000
  144.8351  140.6769  143.6266 LP  0  0  0  0  0  0  0  0  0  0  0  0  # atno 17320 bound_to 7965
  145.4016  139.1596  143.4174 LP  0  0  0  0  0  0  0  0  0  0  0  0  # atno 17321 bound_to 7965
  139.7850  144.7431  151.0034 LP  0  0  0  0  0  0  0  0  0  0  0  0  # atno 17342 bound_to 10162
  140.7817  143.4501  151.0425 LP  0  0  0  0  0  0  0  0  0  0  0  0  # atno 17343 bound_to 10162
  156.7220  130.4683  149.5520 LP  0  0  0  0  0  0  0  0  0  0  0  0  # atno 17370 bound_to 10713
  156.1659  130.6405  151.0777 LP  0  0  0  0  0  0  0  0  0  0  0  0  # atno 17371 bound_to 10713
  140.0224  134.6527  155.9221 LP  0  0  0  0  0  0  0  0  0  0  0  0  # atno 17394 bound_to 11000
  141.1797  133.6545  156.4971 LP  0  0  0  0  0  0  0  0  0  0  0  0  # atno 17395 bound_to 11000

$$$$
