AV-unprocessed.smi:2784|AV-procd|sdf|10728|dock5
  -GOLD-   2272015163D 1   1.00000     0.00000
 Structure written by MMmdl.
 31 32  0  0  0  0  0  0  0  0  1 V2000
  146.5086  142.0159  153.7821 C   0  0  0  0  0  0  0  0  0  0  0  0
  147.5911  141.8432  154.6823 O   0  0  0  0  0  0  0  0  0  0  0  0
  148.6768  141.0973  154.1381 C   0  0  2  0  0  0  0  0  0  0  0  0
  148.2799  139.6187  154.0687 C   0  0  0  0  0  0  0  0  0  0  0  0
  148.5142  139.1035  155.4861 C   0  0  0  0  0  0  0  0  0  0  0  0
  149.7638  139.8446  155.9703 C   0  0  0  0  0  0  0  0  0  0  0  0
  149.8771  141.1202  155.1121 C   0  0  2  0  0  0  0  0  0  0  0  0
  149.9181  142.3203  155.9453 N   0  0  0  0  0  0  0  0  0  0  0  0
  150.6790  142.4652  157.0397 C   0  0  0  0  0  0  0  0  0  0  0  0
  151.4258  141.5850  157.4690 O   0  0  0  0  0  0  0  0  0  0  0  0
  150.5182  143.6806  157.5886 N   0  0  0  0  0  0  0  0  0  0  0  0
  151.1641  144.2009  158.7382 C   0  0  0  0  0  0  0  0  0  0  0  0
  151.7218  143.4964  159.7243 N   0  0  0  0  0  0  0  0  0  0  0  0
  152.2140  144.4520  160.6017 C   0  0  0  0  0  0  0  0  0  0  0  0
  151.9231  145.6911  160.0914 C   0  0  0  0  0  0  0  0  0  0  0  0
  151.2555  145.5469  158.9048 O   0  0  0  0  0  0  0  0  0  0  0  0
  145.7121  142.5740  154.2737 H   0  0  0  0  0  0  0  0  0  0  0  0
  146.0966  141.0612  153.4549 H   0  0  0  0  0  0  0  0  0  0  0  0
  146.8189  142.5822  152.9030 H   0  0  0  0  0  0  0  0  0  0  0  0
  148.9686  141.4939  153.1637 H   0  0  0  0  0  0  0  0  0  0  0  0
  147.2580  139.4545  153.7271 H   0  0  0  0  0  0  0  0  0  0  0  0
  148.9441  139.0965  153.3787 H   0  0  0  0  0  0  0  0  0  0  0  0
  147.6636  139.3700  156.1149 H   0  0  0  0  0  0  0  0  0  0  0  0
  148.6283  138.0200  155.5248 H   0  0  0  0  0  0  0  0  0  0  0  0
  149.7025  140.0540  157.0392 H   0  0  0  0  0  0  0  0  0  0  0  0
  150.6470  139.2230  155.8175 H   0  0  0  0  0  0  0  0  0  0  0  0
  150.8024  141.0544  154.5362 H   0  0  0  0  0  0  0  0  0  0  0  0
  149.3397  143.0955  155.6569 H   0  0  0  0  0  0  0  0  0  0  0  0
  149.8672  144.3029  157.1335 H   0  0  0  0  0  0  0  0  0  0  0  0
  152.7273  144.1786  161.5117 H   0  0  0  0  0  0  0  0  0  0  0  0
  152.1080  146.7016  160.4249 H   0  0  0  0  0  0  0  0  0  0  0  0
  1  2  1  0  0  0  0
  1 17  1  0  0  0  0
  1 18  1  0  0  0  0
  1 19  1  0  0  0  0
  2  3  1  0  0  0  0
  3  7  1  0  0  0  0
  3  4  1  0  0  0  0
  3 20  1  0  0  0  0
  4  5  1  0  0  0  0
  4 21  1  0  0  0  0
  4 22  1  0  0  0  0
  5  6  1  0  0  0  0
  5 23  1  0  0  0  0
  5 24  1  0  0  0  0
  6  7  1  0  0  0  0
  6 25  1  0  0  0  0
  6 26  1  0  0  0  0
  7  8  1  0  0  0  0
  7 27  1  0  0  0  0
  8  9  1  0  0  0  0
  8 28  1  0  0  0  0
  9 10  2  0  0  0  0
  9 11  1  0  0  0  0
 11 12  1  0  0  0  0
 11 29  1  0  0  0  0
 12 16  1  0  0  0  0
 12 13  2  0  0  0  0
 13 14  1  0  0  0  0
 14 15  2  0  0  0  0
 14 30  1  0  0  0  0
 15 16  1  0  0  0  0
 15 31  1  0  0  0  0
M  END
> <s_m_source_file>
AV-unprocessed.smi

> <i_m_source_file_index>
2784

> <i_lp_mmshare_version>
43012

> <i_f3d_flags>
0

> <s_epik_input>
W0NIM11PW0NAQEhdMVtDSDJdW0NIMl1bQ0gyXVtDQEhdMVtOSF1DKD1PKVtOSF1jMm5bY0hdW2NIXW8y

> <s_epik_cmdline>
J2VwaWtfcHl0aG9uJywgJy1waCcsICc3LjAnLCAnLXRuJywgJzgnLCAnLW1hJywgJzIwMCcsICctbWV0YWxfYmluZGluZycsICctaW1hZScsICc8aW5maWxlLm1hZT4nLCAnLW9tYWUnLCAnPG91dGZpbGUubWFlPic=

> <r_lp_tautomer_probability>
0.785861

> <r_epik_Ionization_Penalty>
4.58897e-05

> <r_epik_Ionization_Penalty_Charging>
0

> <r_epik_Ionization_Penalty_Neutral>
4.58897e-05

> <r_epik_State_Penalty>
0.0380021

> <r_epik_Charging_Adjusted_Penalty>
0.0380021

> <i_epik_Tot_Q>
0

> <i_epik_Tot_abs_Q>
0

> <r_epik_Metal_State_Penalty>
0.0585611

> <b_epik_Metal_Only>
0

> <s_lp_Force_Field>
OPLS_2005

> <r_lp_Energy>
20.0171

> <b_lp_Chiralities_Consistent>
1

> <s_lp_Variant>
AV-unprocessed.smi:2784-3

> <Gold.Version>
5.8.1

> <Gold.Id.Protein>
6NUR|6NUR_protein|mol2

> <Gold.PLP.Fitness>
35.8064

> <Gold.PLP.PLP>
-30.4780

> <Gold.PLP.part.hbond>
-3.0000

> <Gold.PLP.part.metal>
0.0000

> <Gold.PLP.part.buried>
-4.3488

> <Gold.PLP.part.nonpolar>
-22.7658

> <Gold.PLP.part.repulsive>
0.4668

> <Gold.PLP.ligand.clash>
0.0000

> <Gold.PLP.ligand.torsion>
0.3413

> <Gold.PLP.Chemscore.Hbond>
2.0000

> <Gold.PLP.Chemscore.CHOScore>
0.0000

> <Gold.PLP.Chemscore.Metal>
0.0000

> <Gold.Chemscore.Hbonds>
donor molecule, donor type, donor heavy atom, donor atom, acceptor molecule, acceptor atom, score
      L1  H     8    28       P1  8028  1.00
      L1  H    11    29       P1  8028  1.00

> <Gold.PLP.Chemscore.Internal.Correction>
0.0111

> <Gold.Rescore>
     Score         DG    S(hbond)    S(metal)    S(lipo)     H(rot)  DE(clash)    DE(int)     intcor
     11.81     -14.77       1.71        0.00      59.66       1.32       0.18       2.79       ----

> <Gold.Chemscore.Fitness>
11.8068

> <Gold.Chemscore.DG>
-14.7734

> <Gold.Chemscore.ZeroCoef>
-5.4800

> <Gold.Chemscore.Hbond>
1.7070

> <Gold.Chemscore.Metal>
0.0000

> <Gold.Chemscore.Lipo>
59.6602

> <Gold.Chemscore.Internal_Hbond>
0.0000

> <Gold.Chemscore.DEClash>
0.1807

> <Gold.Chemscore.DEInternal>
2.7859

> <Gold.Chemscore.Rot>
1.3235

> <Gold.Chemscore.Internal.Correction>
   9.000000E+99

> <Gold.Chemscore.Hbonds>
donor molecule, donor type, donor heavy atom, donor atom, acceptor molecule, acceptor atom, score
      L1  H     8    28       P1  8028  0.98
      L1  H    11    29       P1  8028  0.52

> <Gold.Chemscore.Hbond.Weighted>
-5.7014

> <Gold.Chemscore.Metal.Weighted>
-0.0000

> <Gold.Chemscore.Lipo.Weighted>
-6.9802

> <Gold.Chemscore.Internal_Hbond.Weighted>
0.0000

> <Gold.Chemscore.DEClash.Weighted>
0.1807

> <Gold.Chemscore.DEInternal.Weighted>
2.7859

> <Gold.Chemscore.Rot.Weighted>
3.3882

> <Gold.Chemscore.Internal.Correction.Weighted>
   9.000000E+99

> <Gold.Protein.RotatedTorsions>
[ 6907 6896 6895 6894 ] final   -1.54 input  -60.11 | X-H torsion
[ 7974 7965 7964 7962 ] final -129.97 input  175.53 | X-H torsion
[ 8008 7997 7996 7995 ] final -104.60 input   59.86 | X-H torsion
[ 10167 10162 10161 10158 ] final  -74.54 input  -65.29 | X-H torsion
[ 10718 10713 10712 10709 ] final  160.15 input   66.30 | X-H torsion
[ 10763 10752 10751 10750 ] final    5.27 input  -60.55 | X-H torsion
[ 11005 11000 10999 10996 ] final  172.97 input  -57.11 | X-H torsion

> <Gold.Protein.ActiveResidues>
 VAL166  LYS551  ARG553  GLY616  TRP617  ASP618  TYR619  PRO620  LYS621  CYS622 
 ASP623  PHE694  ASN695  SER759  ASP760  ASP761  ALA762  ILE779  LEU786  VAL792 
 PHE793  MET794  SER795  GLU796  ALA797  LYS798  CYS799  TRP800  GLU811  SER814 

> <Gold.Protein.RotatedAtoms>
  151.5443  135.1068  159.9933 H   0  0  0  0  0  0  0  0  0  0  0  0  # atno 6907 bound_to 6896
  152.4521  133.7645  159.6775 H   0  0  0  0  0  0  0  0  0  0  0  0  # atno 6908 bound_to 6896
  150.8452  133.7806  159.3070 H   0  0  0  0  0  0  0  0  0  0  0  0  # atno 6909 bound_to 6896
  144.9520  140.7354  143.4782 H   0  0  0  0  0  0  0  0  0  0  0  0  # atno 7974 bound_to 7965
  154.8876  140.0417  157.1819 H   0  0  0  0  0  0  0  0  0  0  0  0  # atno 8008 bound_to 7997
  154.8574  140.2938  155.5539 H   0  0  0  0  0  0  0  0  0  0  0  0  # atno 8009 bound_to 7997
  156.2997  140.2453  156.3542 H   0  0  0  0  0  0  0  0  0  0  0  0  # atno 8010 bound_to 7997
  140.5018  143.2360  151.7740 H   0  0  0  0  0  0  0  0  0  0  0  0  # atno 10167 bound_to 10162
  157.1544  131.0572  151.2264 H   0  0  0  0  0  0  0  0  0  0  0  0  # atno 10718 bound_to 10713
  153.2614  135.6923  153.7575 H   0  0  0  0  0  0  0  0  0  0  0  0  # atno 10763 bound_to 10752
  153.6633  135.3357  155.3134 H   0  0  0  0  0  0  0  0  0  0  0  0  # atno 10764 bound_to 10752
  154.8431  135.4482  154.1605 H   0  0  0  0  0  0  0  0  0  0  0  0  # atno 10765 bound_to 10752
  140.3354  134.7322  157.4164 H   0  0  0  0  0  0  0  0  0  0  0  0  # atno 11005 bound_to 11000
  145.2830  139.1911  143.4781 LP  0  0  0  0  0  0  0  0  0  0  0  0  # atno 17320 bound_to 7965
  146.3324  140.2795  142.8609 LP  0  0  0  0  0  0  0  0  0  0  0  0  # atno 17321 bound_to 7965
  139.4874  144.4512  151.9652 LP  0  0  0  0  0  0  0  0  0  0  0  0  # atno 17342 bound_to 10162
  140.3601  144.2984  150.5935 LP  0  0  0  0  0  0  0  0  0  0  0  0  # atno 17343 bound_to 10162
  157.4190  130.7427  149.6898 LP  0  0  0  0  0  0  0  0  0  0  0  0  # atno 17370 bound_to 10713
  155.9764  130.4075  150.3778 LP  0  0  0  0  0  0  0  0  0  0  0  0  # atno 17371 bound_to 10713
  140.0825  134.5711  155.8526 LP  0  0  0  0  0  0  0  0  0  0  0  0  # atno 17394 bound_to 11000
  141.2052  133.6645  156.6169 LP  0  0  0  0  0  0  0  0  0  0  0  0  # atno 17395 bound_to 11000

$$$$
