AV-unprocessed.smi:3338|AV-procd|sdf|12874|dock4
  -GOLD-   2272019273D 1   1.00000     0.00000
 Structure written by MMmdl.
 44 45  0  0  0  0  0  0  0  0  2 V2000
  150.2439  145.0640  159.9101 C   0  0  0  0  0  0  0  0  0  0  0  0
  151.6779  144.6206  159.5716 C   0  0  1  0  0  0  0  0  0  0  0  0
  152.3793  143.9150  160.7471 C   0  0  0  0  0  0  0  0  0  0  0  0
  151.8392  142.4917  160.9462 C   0  0  0  0  0  0  0  0  0  0  0  0
  151.9061  141.6875  159.6385 C   0  0  0  0  0  0  0  0  0  0  0  0
  151.1798  142.3836  158.5455 N   0  3  2  0  0  0  0  0  0  0  0  0
  151.0963  141.5617  157.3128 C   0  0  0  0  0  0  0  0  0  0  0  0
  150.5625  142.3653  156.1113 C   0  0  0  0  0  0  0  0  0  0  0  0
  149.1770  142.0226  155.8148 N   0  0  0  0  0  0  0  0  0  0  0  0
  148.7702  141.3484  154.7270 C   0  0  0  0  0  0  0  0  0  0  0  0
  149.5473  140.9606  153.8534 O   0  0  0  0  0  0  0  0  0  0  0  0
  147.2605  141.0744  154.6184 C   0  0  1  0  0  0  0  0  0  0  0  0
  146.7042  140.2900  155.8238 C   0  0  0  0  0  0  0  0  0  0  0  0
  146.5270  142.3154  154.3954 N   0  0  0  0  0  0  0  0  0  0  0  0
  146.6329  143.1844  153.3280 C   0  0  0  0  0  0  0  0  0  0  0  0
  145.7699  144.2184  153.5527 C   0  0  0  0  0  0  0  0  0  0  0  0
  145.1740  143.8956  154.8034 C   0  0  0  0  0  0  0  0  0  0  0  0
  145.6331  142.7624  155.3086 N   0  0  0  0  0  0  0  0  0  0  0  0
  151.7326  143.7444  158.3029 C   0  0  0  0  0  0  0  0  0  0  0  0
  149.5905  144.2150  160.1111 H   0  0  0  0  0  0  0  0  0  0  0  0
  149.8057  145.6284  159.0864 H   0  0  0  0  0  0  0  0  0  0  0  0
  150.2307  145.7084  160.7897 H   0  0  0  0  0  0  0  0  0  0  0  0
  152.2377  145.5329  159.3616 H   0  0  0  0  0  0  0  0  0  0  0  0
  153.4502  143.8629  160.5462 H   0  0  0  0  0  0  0  0  0  0  0  0
  152.2693  144.4944  161.6645 H   0  0  0  0  0  0  0  0  0  0  0  0
  152.4121  141.9840  161.7229 H   0  0  0  0  0  0  0  0  0  0  0  0
  150.8094  142.5299  161.3029 H   0  0  0  0  0  0  0  0  0  0  0  0
  152.9447  141.5280  159.3439 H   0  0  0  0  0  0  0  0  0  0  0  0
  151.4685  140.7024  159.8056 H   0  0  0  0  0  0  0  0  0  0  0  0
  152.0739  141.1269  157.0976 H   0  0  0  0  0  0  0  0  0  0  0  0
  150.4194  140.7228  157.4806 H   0  0  0  0  0  0  0  0  0  0  0  0
  150.6081  143.4325  156.3297 H   0  0  0  0  0  0  0  0  0  0  0  0
  151.1689  142.2065  155.2192 H   0  0  0  0  0  0  0  0  0  0  0  0
  148.4784  142.3106  156.4848 H   0  0  0  0  0  0  0  0  0  0  0  0
  147.1137  140.4512  153.7348 H   0  0  0  0  0  0  0  0  0  0  0  0
  147.2124  139.3320  155.9382 H   0  0  0  0  0  0  0  0  0  0  0  0
  145.6420  140.0816  155.6941 H   0  0  0  0  0  0  0  0  0  0  0  0
  146.8189  140.8398  156.7589 H   0  0  0  0  0  0  0  0  0  0  0  0
  147.3053  142.9961  152.5040 H   0  0  0  0  0  0  0  0  0  0  0  0
  145.5913  145.0750  152.9198 H   0  0  0  0  0  0  0  0  0  0  0  0
  144.4290  144.4483  155.3567 H   0  0  0  0  0  0  0  0  0  0  0  0
  151.1918  144.2423  157.4987 H   0  0  0  0  0  0  0  0  0  0  0  0
  152.7663  143.6519  157.9653 H   0  0  0  0  0  0  0  0  0  0  0  0
  150.2318  142.5039  158.8726 H   0  0  0  0  0  0  0  0  0  0  0  0
  1  2  1  0  0  0  0
  1 20  1  0  0  0  0
  1 21  1  0  0  0  0
  1 22  1  0  0  0  0
  2 19  1  0  0  0  0
  2  3  1  0  0  0  0
  2 23  1  0  0  0  0
  3  4  1  0  0  0  0
  3 24  1  0  0  0  0
  3 25  1  0  0  0  0
  4  5  1  0  0  0  0
  4 26  1  0  0  0  0
  4 27  1  0  0  0  0
  5  6  1  0  0  0  0
  5 28  1  0  0  0  0
  5 29  1  0  0  0  0
  6  7  1  0  0  0  0
  6 19  1  0  0  0  0
  6 44  1  0  0  0  0
  7  8  1  0  0  0  0
  7 30  1  0  0  0  0
  7 31  1  0  0  0  0
  8  9  1  0  0  0  0
  8 32  1  0  0  0  0
  8 33  1  0  0  0  0
  9 10  1  0  0  0  0
  9 34  1  0  0  0  0
 10 11  2  0  0  0  0
 10 12  1  0  0  0  0
 12 13  1  0  0  0  0
 12 14  1  0  0  0  0
 12 35  1  0  0  0  0
 13 36  1  0  0  0  0
 13 37  1  0  0  0  0
 13 38  1  0  0  0  0
 14 18  1  0  0  0  0
 14 15  1  0  0  0  0
 15 16  2  0  0  0  0
 15 39  1  0  0  0  0
 16 17  1  0  0  0  0
 16 40  1  0  0  0  0
 17 18  2  0  0  0  0
 17 41  1  0  0  0  0
 19 42  1  0  0  0  0
 19 43  1  0  0  0  0
M  CHG  1   6   1
M  END
> <s_m_source_file>
AV-unprocessed.smi

> <i_m_source_file_index>
3338

> <i_lp_mmshare_version>
43012

> <i_f3d_flags>
0

> <s_epik_input>
W0NIM11bQ0BASF0xW0NIMl1bQ0gyXVtDSDJdTihbQ0gyXTEpW0NIMl1bQ0gyXVtOSF1DKD1PKVtDQEhdKFtDSDNdKW4yW2NIXVtjSF1bY0hdbjI=

> <s_epik_cmdline>
J2VwaWtfcHl0aG9uJywgJy1waCcsICc3LjAnLCAnLXRuJywgJzgnLCAnLW1hJywgJzIwMCcsICctbWV0YWxfYmluZGluZycsICctaW1hZScsICc8aW5maWxlLm1hZT4nLCAnLW9tYWUnLCAnPG91dGZpbGUubWFlPic=

> <r_lp_tautomer_probability>
1

> <r_epik_Ionization_Penalty>
0.00225707

> <r_epik_Ionization_Penalty_Charging>
0.00223709

> <r_epik_Ionization_Penalty_Neutral>
1.99775e-05

> <r_epik_State_Penalty>
0.00153978

> <r_epik_Charging_Adjusted_Penalty>
0.00377687

> <i_epik_Tot_Q>
1

> <i_epik_Tot_abs_Q>
1

> <r_epik_Metal_State_Penalty>
-0

> <b_epik_Metal_Only>
0

> <s_lp_Force_Field>
OPLS_2005

> <r_lp_Energy>
22.3922

> <b_lp_Chiralities_Consistent>
1

> <s_lp_Variant>
AV-unprocessed.smi:3338-6

> <Gold.Version>
5.8.1

> <Gold.Id.Protein>
6NUR|6NUR_protein|mol2

> <Gold.PLP.Fitness>
41.3705

> <Gold.PLP.PLP>
-38.9423

> <Gold.PLP.part.hbond>
-3.0000

> <Gold.PLP.part.metal>
0.0000

> <Gold.PLP.part.buried>
-5.2169

> <Gold.PLP.part.nonpolar>
-31.8118

> <Gold.PLP.part.repulsive>
2.2753

> <Gold.PLP.ligand.clash>
0.0000

> <Gold.PLP.ligand.torsion>
0.6160

> <Gold.PLP.Chemscore.Hbond>
1.1792

> <Gold.PLP.Chemscore.CHOScore>
0.0000

> <Gold.PLP.Chemscore.Metal>
0.0000

> <Gold.Chemscore.Hbonds>
donor molecule, donor type, donor heavy atom, donor atom, acceptor molecule, acceptor atom, score
      P1  H  7989  7998       L1    11  0.34
      P1  H  8011  8017       L1    11  0.74

> <Gold.PLP.Chemscore.Internal.Correction>
0.1228

> <Gold.Rescore>
     Score         DG    S(hbond)    S(metal)    S(lipo)     H(rot)  DE(clash)    DE(int)     intcor
     14.87     -16.75       1.11        0.00     103.06       1.76       1.38       0.50       ----

> <Gold.Chemscore.Fitness>
14.8736

> <Gold.Chemscore.DG>
-16.7544

> <Gold.Chemscore.ZeroCoef>
-5.4800

> <Gold.Chemscore.Hbond>
1.1121

> <Gold.Chemscore.Metal>
0.0000

> <Gold.Chemscore.Lipo>
103.0572

> <Gold.Chemscore.Internal_Hbond>
0.0000

> <Gold.Chemscore.DEClash>
1.3759

> <Gold.Chemscore.DEInternal>
0.5049

> <Gold.Chemscore.Rot>
1.7570

> <Gold.Chemscore.Internal.Correction>
   9.000000E+99

> <Gold.Chemscore.Hbonds>
donor molecule, donor type, donor heavy atom, donor atom, acceptor molecule, acceptor atom, score
      P1  H  7989  7998       L1    11  0.34
      P1  H  8011  8017       L1    11  0.57

> <Gold.Chemscore.Hbond.Weighted>
-3.7146

> <Gold.Chemscore.Metal.Weighted>
-0.0000

> <Gold.Chemscore.Lipo.Weighted>
-12.0577

> <Gold.Chemscore.Internal_Hbond.Weighted>
0.0000

> <Gold.Chemscore.DEClash.Weighted>
1.3759

> <Gold.Chemscore.DEInternal.Weighted>
0.5049

> <Gold.Chemscore.Rot.Weighted>
4.4979

> <Gold.Chemscore.Internal.Correction.Weighted>
   9.000000E+99

> <Gold.Protein.RotatedTorsions>
[ 6907 6896 6895 6894 ] final -110.80 input  -60.11 | X-H torsion
[ 7974 7965 7964 7962 ] final   87.42 input  175.53 | X-H torsion
[ 8008 7997 7996 7995 ] final -176.98 input   59.86 | X-H torsion
[ 10167 10162 10161 10158 ] final  -83.88 input  -65.29 | X-H torsion
[ 10718 10713 10712 10709 ] final   68.73 input   66.30 | X-H torsion
[ 10763 10752 10751 10750 ] final -140.90 input  -60.55 | X-H torsion
[ 11005 11000 10999 10996 ] final -105.87 input  -57.11 | X-H torsion

> <Gold.Protein.ActiveResidues>
 VAL166  LYS551  ARG553  GLY616  TRP617  ASP618  TYR619  PRO620  LYS621  CYS622 
 ASP623  PHE694  ASN695  SER759  ASP760  ASP761  ALA762  ILE779  LEU786  VAL792 
 PHE793  MET794  SER795  GLU796  ALA797  LYS798  CYS799  TRP800  GLU811  SER814 

> <Gold.Protein.RotatedAtoms>
  150.7648  133.9328  159.3432 H   0  0  0  0  0  0  0  0  0  0  0  0  # atno 6907 bound_to 6896
  151.7229  135.0889  160.0296 H   0  0  0  0  0  0  0  0  0  0  0  0  # atno 6908 bound_to 6896
  152.3639  133.6293  159.6071 H   0  0  0  0  0  0  0  0  0  0  0  0  # atno 6909 bound_to 6896
  145.5592  139.2302  143.2469 H   0  0  0  0  0  0  0  0  0  0  0  0  # atno 7974 bound_to 7965
  156.0015  140.1221  157.0543 H   0  0  0  0  0  0  0  0  0  0  0  0  # atno 8008 bound_to 7997
  154.4244  140.1106  156.5772 H   0  0  0  0  0  0  0  0  0  0  0  0  # atno 8009 bound_to 7997
  155.6206  140.3472  155.4653 H   0  0  0  0  0  0  0  0  0  0  0  0  # atno 8010 bound_to 7997
  140.4185  143.2594  151.8922 H   0  0  0  0  0  0  0  0  0  0  0  0  # atno 10167 bound_to 10162
  157.6306  130.9389  150.0417 H   0  0  0  0  0  0  0  0  0  0  0  0  # atno 10718 bound_to 10713
  154.8563  135.3540  154.5782 H   0  0  0  0  0  0  0  0  0  0  0  0  # atno 10763 bound_to 10752
  153.6393  135.6999  153.5252 H   0  0  0  0  0  0  0  0  0  0  0  0  # atno 10764 bound_to 10752
  153.2984  135.4213  155.1189 H   0  0  0  0  0  0  0  0  0  0  0  0  # atno 10765 bound_to 10752
  141.1033  133.8844  157.1786 H   0  0  0  0  0  0  0  0  0  0  0  0  # atno 11005 bound_to 11000
  146.1863  140.6417  142.9166 LP  0  0  0  0  0  0  0  0  0  0  0  0  # atno 17320 bound_to 7965
  144.7491  140.5145  143.6814 LP  0  0  0  0  0  0  0  0  0  0  0  0  # atno 17321 bound_to 7965
  139.4782  144.5462  151.8454 LP  0  0  0  0  0  0  0  0  0  0  0  0  # atno 17342 bound_to 10162
  140.4560  144.1789  150.5901 LP  0  0  0  0  0  0  0  0  0  0  0  0  # atno 17343 bound_to 10162
  156.1506  130.3642  149.9443 LP  0  0  0  0  0  0  0  0  0  0  0  0  # atno 17370 bound_to 10713
  156.7464  130.9099  151.3635 LP  0  0  0  0  0  0  0  0  0  0  0  0  # atno 17371 bound_to 10713
  139.9892  135.0071  156.9935 LP  0  0  0  0  0  0  0  0  0  0  0  0  # atno 17394 bound_to 11000
  140.4968  134.1138  155.7243 LP  0  0  0  0  0  0  0  0  0  0  0  0  # atno 17395 bound_to 11000

$$$$
