AV-unprocessed.smi:492|AV-procd|sdf|2709|dock10
  -GOLD-   2262023153D 1   1.00000     0.00000
 Structure written by MMmdl.
 46 48  0  0  0  0  0  0  0  0  1 V2000
  142.8223  146.6595  153.2967 C   0  0  0  0  0  0  0  0  0  0  0  0
  143.9294  146.0226  152.6755 O   0  0  0  0  0  0  0  0  0  0  0  0
  144.3926  144.8460  153.2245 C   0  0  0  0  0  0  0  0  0  0  0  0
  143.8570  144.2467  154.3921 C   0  0  0  0  0  0  0  0  0  0  0  0
  144.3917  143.0404  154.8850 C   0  0  0  0  0  0  0  0  0  0  0  0
  145.4628  142.4104  154.2201 C   0  0  0  0  0  0  0  0  0  0  0  0
  146.0419  141.1198  154.7696 C   0  0  0  0  0  0  0  0  0  0  0  0
  147.4588  141.1488  154.8170 O   0  0  0  0  0  0  0  0  0  0  0  0
  148.0148  140.0706  155.5524 C   0  0  0  0  0  0  0  0  0  0  0  0
  149.4263  139.7593  155.0305 C   0  0  1  0  0  0  0  0  0  0  0  0
  149.3345  139.3496  153.6806 O   0  0  0  0  0  0  0  0  0  0  0  0
  150.4215  140.9249  155.2132 C   0  0  0  0  0  0  0  0  0  0  0  0
  151.2069  140.8111  156.4342 N   0  0  0  0  0  0  0  0  0  0  0  0
  151.9864  139.7768  156.8356 C   0  0  0  0  0  0  0  0  0  0  0  0
  152.1400  138.5365  156.0138 C   0  0  0  0  0  0  0  0  0  0  0  0
  152.6030  139.9340  158.0073 N   0  0  0  0  0  0  0  0  0  0  0  0
  152.1816  141.1881  158.4055 C   0  0  0  0  0  0  0  0  0  0  0  0
  152.4839  141.9324  159.5683 C   0  0  0  0  0  0  0  0  0  0  0  0
  151.9248  143.2129  159.7616 C   0  0  0  0  0  0  0  0  0  0  0  0
  151.0579  143.7668  158.7972 C   0  0  0  0  0  0  0  0  0  0  0  0
  150.7441  143.0423  157.6314 C   0  0  0  0  0  0  0  0  0  0  0  0
  151.3044  141.7644  157.4433 C   0  0  0  0  0  0  0  0  0  0  0  0
  146.0056  143.0077  153.0636 C   0  0  0  0  0  0  0  0  0  0  0  0
  145.4697  144.2129  152.5709 C   0  0  0  0  0  0  0  0  0  0  0  0
  142.5756  147.5682  152.7480 H   0  0  0  0  0  0  0  0  0  0  0  0
  143.0527  146.9465  154.3235 H   0  0  0  0  0  0  0  0  0  0  0  0
  141.9382  146.0205  153.2896 H   0  0  0  0  0  0  0  0  0  0  0  0
  143.0346  144.6933  154.9300 H   0  0  0  0  0  0  0  0  0  0  0  0
  143.9733  142.5989  155.7776 H   0  0  0  0  0  0  0  0  0  0  0  0
  145.6390  140.9596  155.7706 H   0  0  0  0  0  0  0  0  0  0  0  0
  145.7146  140.2853  154.1474 H   0  0  0  0  0  0  0  0  0  0  0  0
  148.0751  140.3515  156.6052 H   0  0  0  0  0  0  0  0  0  0  0  0
  147.3760  139.1880  155.4899 H   0  0  0  0  0  0  0  0  0  0  0  0
  149.7982  138.8944  155.5796 H   0  0  0  0  0  0  0  0  0  0  0  0
  149.6806  140.0402  153.1360 H   0  0  0  0  0  0  0  0  0  0  0  0
  151.1121  140.9723  154.3708 H   0  0  0  0  0  0  0  0  0  0  0  0
  149.8923  141.8778  155.2193 H   0  0  0  0  0  0  0  0  0  0  0  0
  152.7826  137.8179  156.5236 H   0  0  0  0  0  0  0  0  0  0  0  0
  152.5901  138.7723  155.0500 H   0  0  0  0  0  0  0  0  0  0  0  0
  151.1698  138.0681  155.8482 H   0  0  0  0  0  0  0  0  0  0  0  0
  153.1475  141.5167  160.3119 H   0  0  0  0  0  0  0  0  0  0  0  0
  152.1630  143.7728  160.6540 H   0  0  0  0  0  0  0  0  0  0  0  0
  150.6345  144.7485  158.9520 H   0  0  0  0  0  0  0  0  0  0  0  0
  150.0825  143.4647  156.8900 H   0  0  0  0  0  0  0  0  0  0  0  0
  146.8345  142.5454  152.5478 H   0  0  0  0  0  0  0  0  0  0  0  0
  145.8916  144.6577  151.6816 H   0  0  0  0  0  0  0  0  0  0  0  0
  1  2  1  0  0  0  0
  1 25  1  0  0  0  0
  1 26  1  0  0  0  0
  1 27  1  0  0  0  0
  2  3  1  0  0  0  0
  3 24  1  0  0  0  0
  3  4  2  0  0  0  0
  4  5  1  0  0  0  0
  4 28  1  0  0  0  0
  5  6  2  0  0  0  0
  5 29  1  0  0  0  0
  6  7  1  0  0  0  0
  6 23  1  0  0  0  0
  7  8  1  0  0  0  0
  7 30  1  0  0  0  0
  7 31  1  0  0  0  0
  8  9  1  0  0  0  0
  9 10  1  0  0  0  0
  9 32  1  0  0  0  0
  9 33  1  0  0  0  0
 10 11  1  0  0  0  0
 10 12  1  0  0  0  0
 10 34  1  0  0  0  0
 11 35  1  0  0  0  0
 12 13  1  0  0  0  0
 12 36  1  0  0  0  0
 12 37  1  0  0  0  0
 13 22  1  0  0  0  0
 13 14  1  0  0  0  0
 14 15  1  0  0  0  0
 14 16  2  0  0  0  0
 15 38  1  0  0  0  0
 15 39  1  0  0  0  0
 15 40  1  0  0  0  0
 16 17  1  0  0  0  0
 17 22  2  0  0  0  0
 17 18  1  0  0  0  0
 18 19  2  0  0  0  0
 18 41  1  0  0  0  0
 19 20  1  0  0  0  0
 19 42  1  0  0  0  0
 20 21  2  0  0  0  0
 20 43  1  0  0  0  0
 21 22  1  0  0  0  0
 21 44  1  0  0  0  0
 23 24  2  0  0  0  0
 23 45  1  0  0  0  0
 24 46  1  0  0  0  0
M  END
> <s_m_source_file>
AV-unprocessed.smi

> <i_m_source_file_index>
492

> <i_lp_mmshare_version>
43012

> <i_f3d_flags>
0

> <s_epik_input>
W0NIM11PYzFbY0hdW2NIXWMoW2NIXVtjSF0xKVtDSDJdT1tDSDJdW0NASF0oW09IXSlbQ0gyXW4oYyhuMilbQ0gzXSljKGMyMylbY0hdW2NIXVtjSF1bY0hdMw==

> <s_epik_cmdline>
J2VwaWtfcHl0aG9uJywgJy1waCcsICc3LjAnLCAnLXRuJywgJzgnLCAnLW1hJywgJzIwMCcsICctbWV0YWxfYmluZGluZycsICctaW1hZScsICc8aW5maWxlLm1hZT4nLCAnLW9tYWUnLCAnPG91dGZpbGUubWFlPic=

> <r_lp_tautomer_probability>
1

> <r_epik_Ionization_Penalty>
0.132603

> <r_epik_Ionization_Penalty_Charging>
0

> <r_epik_Ionization_Penalty_Neutral>
0.132603

> <r_epik_State_Penalty>
0.121982

> <r_epik_Charging_Adjusted_Penalty>
0.121982

> <i_epik_Tot_Q>
0

> <i_epik_Tot_abs_Q>
0

> <r_epik_Metal_State_Penalty>
0.000135431

> <b_epik_Metal_Only>
0

> <s_lp_Force_Field>
OPLS_2005

> <r_lp_Energy>
18.9568

> <b_lp_Chiralities_Consistent>
1

> <s_lp_Variant>
AV-unprocessed.smi:492-2

> <Gold.Version>
5.8.1

> <Gold.Id.Protein>
6NUR|6NUR_protein|mol2

> <Gold.PLP.Fitness>
50.4240

> <Gold.PLP.PLP>
-47.7057

> <Gold.PLP.part.hbond>
-4.0000

> <Gold.PLP.part.metal>
0.0000

> <Gold.PLP.part.buried>
-4.7134

> <Gold.PLP.part.nonpolar>
-38.3835

> <Gold.PLP.part.repulsive>
0.1666

> <Gold.PLP.ligand.clash>
0.0000

> <Gold.PLP.ligand.torsion>
0.8810

> <Gold.PLP.Chemscore.Hbond>
1.4480

> <Gold.PLP.Chemscore.CHOScore>
0.0000

> <Gold.PLP.Chemscore.Metal>
0.0000

> <Gold.Chemscore.Hbonds>
donor molecule, donor type, donor heavy atom, donor atom, acceptor molecule, acceptor atom, score
      L1  H    11    35       P1  7957  0.50
      P1  H  7997  8009       L1    16  0.30

> <Gold.PLP.Chemscore.Internal.Correction>
0.1363

> <Gold.Rescore>
     Score         DG    S(hbond)    S(metal)    S(lipo)     H(rot)  DE(clash)    DE(int)     intcor
     14.68     -16.99       0.93        0.00     124.35       2.40       1.60       0.71       ----

> <Gold.Chemscore.Fitness>
14.6754

> <Gold.Chemscore.DG>
-16.9859

> <Gold.Chemscore.ZeroCoef>
-5.4800

> <Gold.Chemscore.Hbond>
0.9278

> <Gold.Chemscore.Metal>
0.0000

> <Gold.Chemscore.Lipo>
124.3494

> <Gold.Chemscore.Internal_Hbond>
0.0000

> <Gold.Chemscore.DEClash>
1.5956

> <Gold.Chemscore.DEInternal>
0.7149

> <Gold.Chemscore.Rot>
2.3991

> <Gold.Chemscore.Internal.Correction>
   9.000000E+99

> <Gold.Chemscore.Hbonds>
donor molecule, donor type, donor heavy atom, donor atom, acceptor molecule, acceptor atom, score
      L1  H    11    35       P1  7957  0.47
      P1  H  7997  8009       L1    16  0.01

> <Gold.Chemscore.Hbond.Weighted>
-3.0987

> <Gold.Chemscore.Metal.Weighted>
-0.0000

> <Gold.Chemscore.Lipo.Weighted>
-14.5489

> <Gold.Chemscore.Internal_Hbond.Weighted>
0.0000

> <Gold.Chemscore.DEClash.Weighted>
1.5956

> <Gold.Chemscore.DEInternal.Weighted>
0.7149

> <Gold.Chemscore.Rot.Weighted>
6.1417

> <Gold.Chemscore.Internal.Correction.Weighted>
   9.000000E+99

> <Gold.Protein.RotatedTorsions>
[ 6907 6896 6895 6894 ] final   19.93 input  -60.11 | X-H torsion
[ 7974 7965 7964 7962 ] final -162.41 input  175.53 | X-H torsion
[ 8008 7997 7996 7995 ] final  155.55 input   59.86 | X-H torsion
[ 10167 10162 10161 10158 ] final  148.32 input  -65.29 | X-H torsion
[ 10718 10713 10712 10709 ] final -121.64 input   66.30 | X-H torsion
[ 10763 10752 10751 10750 ] final  -10.36 input  -60.55 | X-H torsion
[ 11005 11000 10999 10996 ] final  -14.23 input  -57.11 | X-H torsion

> <Gold.Protein.ActiveResidues>
 VAL166  LYS551  ARG553  GLY616  TRP617  ASP618  TYR619  PRO620  LYS621  CYS622 
 ASP623  PHE694  ASN695  SER759  ASP760  ASP761  ALA762  ILE779  LEU786  VAL792 
 PHE793  MET794  SER795  GLU796  ALA797  LYS798  CYS799  TRP800  GLU811  SER814 

> <Gold.Protein.RotatedAtoms>
  151.8885  135.0425  160.0495 H   0  0  0  0  0  0  0  0  0  0  0  0  # atno 6907 bound_to 6896
  152.2455  133.5166  159.5303 H   0  0  0  0  0  0  0  0  0  0  0  0  # atno 6908 bound_to 6896
  150.7067  134.0948  159.3987 H   0  0  0  0  0  0  0  0  0  0  0  0  # atno 6909 bound_to 6896
  144.7358  140.3257  143.6162 H   0  0  0  0  0  0  0  0  0  0  0  0  # atno 7974 bound_to 7965
  156.2472  140.1936  156.6819 H   0  0  0  0  0  0  0  0  0  0  0  0  # atno 8008 bound_to 7997
  154.6315  140.0595  156.9764 H   0  0  0  0  0  0  0  0  0  0  0  0  # atno 8009 bound_to 7997
  155.1703  140.3267  155.4397 H   0  0  0  0  0  0  0  0  0  0  0  0  # atno 8010 bound_to 7997
  139.4876  144.5688  151.7093 H   0  0  0  0  0  0  0  0  0  0  0  0  # atno 10167 bound_to 10162
  156.1353  130.6426  150.9687 H   0  0  0  0  0  0  0  0  0  0  0  0  # atno 10718 bound_to 10713
  153.4681  135.7016  153.6010 H   0  0  0  0  0  0  0  0  0  0  0  0  # atno 10763 bound_to 10752
  153.4275  135.3810  155.2150 H   0  0  0  0  0  0  0  0  0  0  0  0  # atno 10764 bound_to 10752
  154.8726  135.3943  154.4116 H   0  0  0  0  0  0  0  0  0  0  0  0  # atno 10765 bound_to 10752
  140.7842  133.8338  155.9320 H   0  0  0  0  0  0  0  0  0  0  0  0  # atno 11005 bound_to 11000
  145.7523  139.1797  143.2314 LP  0  0  0  0  0  0  0  0  0  0  0  0  # atno 17320 bound_to 7965
  146.1051  140.7497  142.9530 LP  0  0  0  0  0  0  0  0  0  0  0  0  # atno 17321 bound_to 7965
  140.5272  144.0787  150.6041 LP  0  0  0  0  0  0  0  0  0  0  0  0  # atno 17342 bound_to 10162
  140.3765  143.2826  152.0219 LP  0  0  0  0  0  0  0  0  0  0  0  0  # atno 17343 bound_to 10162
  157.6527  131.0894  150.8016 LP  0  0  0  0  0  0  0  0  0  0  0  0  # atno 17370 bound_to 10713
  156.8097  130.4948  149.5358 LP  0  0  0  0  0  0  0  0  0  0  0  0  # atno 17371 bound_to 10713
  140.9452  134.1849  157.4768 LP  0  0  0  0  0  0  0  0  0  0  0  0  # atno 17394 bound_to 11000
  139.8739  134.9888  156.5427 LP  0  0  0  0  0  0  0  0  0  0  0  0  # atno 17395 bound_to 11000

$$$$
