AV-unprocessed.smi:1141|AV-procd|sdf|4872|dock2
  -GOLD-   22720 3443D 1   1.00000     0.00000
 Structure written by MMmdl.
 45 46  0  0  0  0  0  0  0  0  1 V2000
  151.8695  136.8105  156.7618 C   0  0  0  0  0  0  0  0  0  0  0  0
  153.2798  136.8909  156.6576 O   0  0  0  0  0  0  0  0  0  0  0  0
  153.9201  136.8455  157.9238 C   0  0  0  0  0  0  0  0  0  0  0  0
  154.0994  138.2682  158.4535 C   0  0  0  0  0  0  0  0  0  0  0  0
  155.2342  138.7005  158.6516 O   0  0  0  0  0  0  0  0  0  0  0  0
  152.9673  138.9491  158.7084 N   0  0  0  0  0  0  0  0  0  0  0  0
  152.8233  140.2643  159.2348 C   0  0  0  0  0  0  0  0  0  0  0  0
  153.6660  140.7703  160.2532 C   0  0  0  0  0  0  0  0  0  0  0  0
  153.4960  142.0958  160.6913 C   0  0  0  0  0  0  0  0  0  0  0  0
  152.4960  142.8831  160.0925 C   0  0  0  0  0  0  0  0  0  0  0  0
  152.3297  144.1837  160.5225 O   0  0  0  0  0  0  0  0  0  0  0  0
  151.4085  145.0127  159.8219 C   0  0  0  0  0  0  0  0  0  0  0  0
  151.6950  142.4121  159.1072 N   0  0  0  0  0  0  0  0  0  0  0  0
  151.8493  141.1362  158.6794 C   0  0  0  0  0  0  0  0  0  0  0  0
  150.9821  140.6890  157.6627 N   0  0  0  0  0  0  0  0  0  0  0  0
  149.6395  141.2664  157.7370 C   0  0  0  0  0  0  0  0  0  0  0  0
  148.6849  140.5521  156.7614 C   0  0  0  0  0  0  0  0  0  0  0  0
  149.2659  140.5870  155.4128 N   0  0  0  0  0  0  0  0  0  0  0  0
  148.7229  141.2978  154.3959 C   0  0  0  0  0  0  0  0  0  0  0  0
  147.4024  142.0376  154.6213 C   0  0  0  0  0  0  0  0  0  0  0  0
  149.2469  141.3752  153.2846 O   0  0  0  0  0  0  0  0  0  0  0  0
  150.5523  139.8779  155.3692 C   0  0  0  0  0  0  0  0  0  0  0  0
  151.5422  140.5853  156.3133 C   0  0  0  0  0  0  0  0  0  0  0  0
  151.4262  136.8466  155.7667 H   0  0  0  0  0  0  0  0  0  0  0  0
  151.4690  137.6446  157.3397 H   0  0  0  0  0  0  0  0  0  0  0  0
  151.5617  135.8768  157.2346 H   0  0  0  0  0  0  0  0  0  0  0  0
  153.3203  136.2755  158.6353 H   0  0  0  0  0  0  0  0  0  0  0  0
  154.8935  136.3587  157.8392 H   0  0  0  0  0  0  0  0  0  0  0  0
  152.1070  138.4334  158.5894 H   0  0  0  0  0  0  0  0  0  0  0  0
  154.4507  140.1732  160.6913 H   0  0  0  0  0  0  0  0  0  0  0  0
  154.1273  142.5029  161.4672 H   0  0  0  0  0  0  0  0  0  0  0  0
  151.3914  146.0013  160.2807 H   0  0  0  0  0  0  0  0  0  0  0  0
  150.3958  144.6093  159.8675 H   0  0  0  0  0  0  0  0  0  0  0  0
  151.6975  145.1376  158.7773 H   0  0  0  0  0  0  0  0  0  0  0  0
  149.2440  141.2003  158.7505 H   0  0  0  0  0  0  0  0  0  0  0  0
  149.6976  142.3277  157.4909 H   0  0  0  0  0  0  0  0  0  0  0  0
  148.5466  139.5135  157.0660 H   0  0  0  0  0  0  0  0  0  0  0  0
  147.6971  141.0119  156.8111 H   0  0  0  0  0  0  0  0  0  0  0  0
  146.6120  141.3409  154.9021 H   0  0  0  0  0  0  0  0  0  0  0  0
  147.0872  142.5474  153.7101 H   0  0  0  0  0  0  0  0  0  0  0  0
  147.5087  142.7898  155.4034 H   0  0  0  0  0  0  0  0  0  0  0  0
  150.4002  138.8477  155.6950 H   0  0  0  0  0  0  0  0  0  0  0  0
  150.9830  139.8079  154.3716 H   0  0  0  0  0  0  0  0  0  0  0  0
  151.7663  141.5820  155.9301 H   0  0  0  0  0  0  0  0  0  0  0  0
  152.4819  140.0328  156.3484 H   0  0  0  0  0  0  0  0  0  0  0  0
  1  2  1  0  0  0  0
  1 24  1  0  0  0  0
  1 25  1  0  0  0  0
  1 26  1  0  0  0  0
  2  3  1  0  0  0  0
  3  4  1  0  0  0  0
  3 27  1  0  0  0  0
  3 28  1  0  0  0  0
  4  5  2  0  0  0  0
  4  6  1  0  0  0  0
  6  7  1  0  0  0  0
  6 29  1  0  0  0  0
  7 14  1  0  0  0  0
  7  8  2  0  0  0  0
  8  9  1  0  0  0  0
  8 30  1  0  0  0  0
  9 10  2  0  0  0  0
  9 31  1  0  0  0  0
 10 11  1  0  0  0  0
 10 13  1  0  0  0  0
 11 12  1  0  0  0  0
 12 32  1  0  0  0  0
 12 33  1  0  0  0  0
 12 34  1  0  0  0  0
 13 14  2  0  0  0  0
 14 15  1  0  0  0  0
 15 23  1  0  0  0  0
 15 16  1  0  0  0  0
 16 17  1  0  0  0  0
 16 35  1  0  0  0  0
 16 36  1  0  0  0  0
 17 18  1  0  0  0  0
 17 37  1  0  0  0  0
 17 38  1  0  0  0  0
 18 19  1  0  0  0  0
 18 22  1  0  0  0  0
 19 20  1  0  0  0  0
 19 21  2  0  0  0  0
 20 39  1  0  0  0  0
 20 40  1  0  0  0  0
 20 41  1  0  0  0  0
 22 23  1  0  0  0  0
 22 42  1  0  0  0  0
 22 43  1  0  0  0  0
 23 44  1  0  0  0  0
 23 45  1  0  0  0  0
M  END
> <s_m_source_file>
AV-unprocessed.smi

> <i_m_source_file_index>
1141

> <i_lp_mmshare_version>
43012

> <i_f3d_flags>
0

> <s_epik_input>
W0NIM11PW0NIMl1DKD1PKVtOSF1jMVtjSF1bY0hdYyhPW0NIM10pbmMxTjJbQ0gyXVtDSDJdTihDKD1PKVtDSDNdKVtDSDJdW0NIMl0y

> <s_epik_cmdline>
J2VwaWtfcHl0aG9uJywgJy1waCcsICc3LjAnLCAnLXRuJywgJzgnLCAnLW1hJywgJzIwMCcsICctbWV0YWxfYmluZGluZycsICctaW1hZScsICc8aW5maWxlLm1hZT4nLCAnLW9tYWUnLCAnPG91dGZpbGUubWFlPic=

> <r_lp_tautomer_probability>
1

> <r_epik_Ionization_Penalty>
0.000141552

> <r_epik_Ionization_Penalty_Charging>
0

> <r_epik_Ionization_Penalty_Neutral>
0.000141552

> <r_epik_State_Penalty>
-0

> <r_epik_Charging_Adjusted_Penalty>
0

> <i_epik_Tot_Q>
0

> <i_epik_Tot_abs_Q>
0

> <r_epik_Metal_State_Penalty>
-0

> <b_epik_Metal_Only>
0

> <s_lp_Force_Field>
OPLS_2005

> <r_lp_Energy>
39.8062

> <b_lp_Chiralities_Consistent>
1

> <s_lp_Variant>
AV-unprocessed.smi:1141-1

> <Gold.Version>
5.8.1

> <Gold.Id.Protein>
6NUR|6NUR_protein|mol2

> <Gold.PLP.Fitness>
43.9885

> <Gold.PLP.PLP>
-37.1154

> <Gold.PLP.part.hbond>
-3.7753

> <Gold.PLP.part.metal>
0.0000

> <Gold.PLP.part.buried>
-5.2820

> <Gold.PLP.part.nonpolar>
-31.4171

> <Gold.PLP.part.repulsive>
4.0599

> <Gold.PLP.ligand.clash>
0.0000

> <Gold.PLP.ligand.torsion>
1.1296

> <Gold.PLP.Chemscore.Hbond>
2.9120

> <Gold.PLP.Chemscore.CHOScore>
0.0000

> <Gold.PLP.Chemscore.Metal>
0.0000

> <Gold.Chemscore.Hbonds>
donor molecule, donor type, donor heavy atom, donor atom, acceptor molecule, acceptor atom, score
      P1  H  7989  7998       L1    21  0.01
      P1  H  7997  8009       L1     5  1.00
      P1  H  8011  8017       L1    21  0.96
      P1  H 10752 10764       L1     2  0.72

> <Gold.PLP.Chemscore.Internal.Correction>
0.3964

> <Gold.Rescore>
     Score         DG    S(hbond)    S(metal)    S(lipo)     H(rot)  DE(clash)    DE(int)     intcor
     13.29     -17.00       2.47        0.00      66.40       1.75       1.83       1.88       ----

> <Gold.Chemscore.Fitness>
13.2939

> <Gold.Chemscore.DG>
-17.0040

> <Gold.Chemscore.ZeroCoef>
-5.4800

> <Gold.Chemscore.Hbond>
2.4682

> <Gold.Chemscore.Metal>
0.0000

> <Gold.Chemscore.Lipo>
66.4038

> <Gold.Chemscore.Internal_Hbond>
0.0000

> <Gold.Chemscore.DEClash>
1.8308

> <Gold.Chemscore.DEInternal>
1.8793

> <Gold.Chemscore.Rot>
1.7535

> <Gold.Chemscore.Internal.Correction>
   9.000000E+99

> <Gold.Chemscore.Hbonds>
donor molecule, donor type, donor heavy atom, donor atom, acceptor molecule, acceptor atom, score
      P1  H  7989  7998       L1    21  0.01
      P1  H  7997  8009       L1     5  0.26
      P1  H  8011  8017       L1    21  0.86
      P1  H 10752 10764       L1     2  0.12

> <Gold.Chemscore.Hbond.Weighted>
-8.2437

> <Gold.Chemscore.Metal.Weighted>
-0.0000

> <Gold.Chemscore.Lipo.Weighted>
-7.7692

> <Gold.Chemscore.Internal_Hbond.Weighted>
0.0000

> <Gold.Chemscore.DEClash.Weighted>
1.8308

> <Gold.Chemscore.DEInternal.Weighted>
1.8793

> <Gold.Chemscore.Rot.Weighted>
4.4890

> <Gold.Chemscore.Internal.Correction.Weighted>
   9.000000E+99

> <Gold.Protein.RotatedTorsions>
[ 6907 6896 6895 6894 ] final -145.62 input  -60.11 | X-H torsion
[ 7974 7965 7964 7962 ] final  -58.92 input  175.53 | X-H torsion
[ 8008 7997 7996 7995 ] final  107.91 input   59.86 | X-H torsion
[ 10167 10162 10161 10158 ] final   42.23 input  -65.29 | X-H torsion
[ 10718 10713 10712 10709 ] final  158.28 input   66.30 | X-H torsion
[ 10763 10752 10751 10750 ] final   -3.23 input  -60.55 | X-H torsion
[ 11005 11000 10999 10996 ] final  -83.25 input  -57.11 | X-H torsion

> <Gold.Protein.ActiveResidues>
 VAL166  LYS551  ARG553  GLY616  TRP617  ASP618  TYR619  PRO620  LYS621  CYS622 
 ASP623  PHE694  ASN695  SER759  ASP760  ASP761  ALA762  ILE779  LEU786  VAL792 
 PHE793  MET794  SER795  GLU796  ALA797  LYS798  CYS799  TRP800  GLU811  SER814 

> <Gold.Protein.RotatedAtoms>
  151.1303  133.5042  159.2599 H   0  0  0  0  0  0  0  0  0  0  0  0  # atno 6907 bound_to 6896
  151.1765  135.0341  159.8784 H   0  0  0  0  0  0  0  0  0  0  0  0  # atno 6908 bound_to 6896
  152.5459  134.1160  159.8432 H   0  0  0  0  0  0  0  0  0  0  0  0  # atno 6909 bound_to 6896
  145.8337  140.8463  143.0070 H   0  0  0  0  0  0  0  0  0  0  0  0  # atno 7974 bound_to 7965
  156.1862  140.3086  155.9242 H   0  0  0  0  0  0  0  0  0  0  0  0  # atno 8008 bound_to 7997
  155.3276  140.0459  157.3058 H   0  0  0  0  0  0  0  0  0  0  0  0  # atno 8009 bound_to 7997
  154.5398  140.2258  155.8670 H   0  0  0  0  0  0  0  0  0  0  0  0  # atno 8010 bound_to 7997
  140.3565  144.2284  150.6141 H   0  0  0  0  0  0  0  0  0  0  0  0  # atno 10167 bound_to 10162
  157.1801  131.0630  151.2136 H   0  0  0  0  0  0  0  0  0  0  0  0  # atno 10718 bound_to 10713
  153.3686  135.6993  153.6655 H   0  0  0  0  0  0  0  0  0  0  0  0  # atno 10763 bound_to 10752
  153.5314  135.3591  155.2678 H   0  0  0  0  0  0  0  0  0  0  0  0  # atno 10764 bound_to 10752
  154.8678  135.4181  154.2959 H   0  0  0  0  0  0  0  0  0  0  0  0  # atno 10765 bound_to 10752
  141.1659  133.7285  156.8693 H   0  0  0  0  0  0  0  0  0  0  0  0  # atno 11005 bound_to 11000
  144.6738  140.0709  143.7473 LP  0  0  0  0  0  0  0  0  0  0  0  0  # atno 17320 bound_to 7965
  145.9543  139.2755  143.1193 LP  0  0  0  0  0  0  0  0  0  0  0  0  # atno 17321 bound_to 7965
  140.5169  143.2276  151.8449 LP  0  0  0  0  0  0  0  0  0  0  0  0  # atno 17342 bound_to 10162
  139.4819  144.4884  151.9217 LP  0  0  0  0  0  0  0  0  0  0  0  0  # atno 17343 bound_to 10162
  157.3961  130.7308  149.6733 LP  0  0  0  0  0  0  0  0  0  0  0  0  # atno 17370 bound_to 10713
  155.9725  130.4133  150.4076 LP  0  0  0  0  0  0  0  0  0  0  0  0  # atno 17371 bound_to 10713
  140.1793  134.9045  157.2929 LP  0  0  0  0  0  0  0  0  0  0  0  0  # atno 17394 bound_to 11000
  140.2413  134.3792  155.7479 LP  0  0  0  0  0  0  0  0  0  0  0  0  # atno 17395 bound_to 11000

$$$$
