AV-unprocessed.smi:2217|AV-procd|sdf|8974|dock9
  -GOLD-   2272012193D 1   1.00000     0.00000
 Structure written by MMmdl.
 45 48  0  0  0  0  0  0  0  0  1 V2000
  145.4045  134.2923  162.6684 C   0  0  0  0  0  0  0  0  0  0  0  0
  146.3482  135.0062  161.7234 C   0  0  0  0  0  0  0  0  0  0  0  0
  147.1999  134.2891  160.8622 C   0  0  0  0  0  0  0  0  0  0  0  0
  148.0588  135.0051  160.0062 C   0  0  0  0  0  0  0  0  0  0  0  0
  148.0480  136.4182  160.0265 C   0  0  0  0  0  0  0  0  0  0  0  0
  148.9678  137.0298  159.1235 N   0  0  0  0  0  0  0  0  0  0  0  0
  148.8513  138.1196  158.3346 C   0  0  0  0  0  0  0  0  0  0  0  0
  147.8152  138.7818  158.3098 O   0  0  0  0  0  0  0  0  0  0  0  0
  149.9253  138.4288  157.5935 N   0  0  0  0  0  0  0  0  0  0  0  0
  150.0097  139.5459  156.6487 C   0  0  2  0  0  0  0  0  0  0  0  0
  150.7902  139.2192  155.3719 C   0  0  2  0  0  0  0  0  0  0  0  0
  151.1734  137.9770  154.6512 C   0  0  0  0  0  0  0  0  0  0  0  0
  152.6306  138.3877  154.3116 C   0  0  0  0  0  0  0  0  0  0  0  0
  152.8865  139.6039  155.0590 O   0  0  0  0  0  0  0  0  0  0  0  0
  152.0363  139.5029  156.1851 C   0  0  1  0  0  0  0  0  0  0  0  0
  151.1881  140.5529  156.9421 C   0  0  0  0  0  0  0  0  0  0  0  0
  151.1066  141.9628  156.3223 C   0  0  0  0  0  0  0  0  0  0  0  0
  151.2881  142.9900  157.4403 C   0  0  0  0  0  0  0  0  0  0  0  0
  152.0728  142.2462  158.5106 C   0  0  0  0  0  0  0  0  0  0  0  0
  151.5526  140.8151  158.4097 C   0  0  0  0  0  0  0  0  0  0  0  0
  147.2245  137.0980  160.8653 N   0  0  0  0  0  0  0  0  0  0  0  0
  146.4012  136.4124  161.6856 C   0  0  0  0  0  0  0  0  0  0  0  0
  145.3439  133.2283  162.4376 H   0  0  0  0  0  0  0  0  0  0  0  0
  144.4014  134.7135  162.5941 H   0  0  0  0  0  0  0  0  0  0  0  0
  145.7478  134.4009  163.6974 H   0  0  0  0  0  0  0  0  0  0  0  0
  147.1994  133.2089  160.8546 H   0  0  0  0  0  0  0  0  0  0  0  0
  148.7190  134.4686  159.3399 H   0  0  0  0  0  0  0  0  0  0  0  0
  149.8776  136.5931  159.0984 H   0  0  0  0  0  0  0  0  0  0  0  0
  150.7385  137.8343  157.6731 H   0  0  0  0  0  0  0  0  0  0  0  0
  149.0548  140.0410  156.4647 H   0  0  0  0  0  0  0  0  0  0  0  0
  150.5866  140.0067  154.6392 H   0  0  0  0  0  0  0  0  0  0  0  0
  151.1374  137.0974  155.2952 H   0  0  0  0  0  0  0  0  0  0  0  0
  150.5682  137.7975  153.7625 H   0  0  0  0  0  0  0  0  0  0  0  0
  153.3316  137.6057  154.6064 H   0  0  0  0  0  0  0  0  0  0  0  0
  152.7636  138.5778  153.2462 H   0  0  0  0  0  0  0  0  0  0  0  0
  152.3544  138.6757  156.8285 H   0  0  0  0  0  0  0  0  0  0  0  0
  151.9010  142.0953  155.5866 H   0  0  0  0  0  0  0  0  0  0  0  0
  150.1657  142.1315  155.7975 H   0  0  0  0  0  0  0  0  0  0  0  0
  151.7890  143.8980  157.1031 H   0  0  0  0  0  0  0  0  0  0  0  0
  150.3122  143.2745  157.8362 H   0  0  0  0  0  0  0  0  0  0  0  0
  153.1364  142.2691  158.2696 H   0  0  0  0  0  0  0  0  0  0  0  0
  151.9441  142.6744  159.5050 H   0  0  0  0  0  0  0  0  0  0  0  0
  150.6655  140.7172  159.0369 H   0  0  0  0  0  0  0  0  0  0  0  0
  152.2857  140.1035  158.7913 H   0  0  0  0  0  0  0  0  0  0  0  0
  145.7686  137.0053  162.3297 H   0  0  0  0  0  0  0  0  0  0  0  0
  1  2  1  0  0  0  0
  1 23  1  0  0  0  0
  1 24  1  0  0  0  0
  1 25  1  0  0  0  0
  2 22  1  0  0  0  0
  2  3  2  0  0  0  0
  3  4  1  0  0  0  0
  3 26  1  0  0  0  0
  4  5  2  0  0  0  0
  4 27  1  0  0  0  0
  5  6  1  0  0  0  0
  5 21  1  0  0  0  0
  6  7  1  0  0  0  0
  6 28  1  0  0  0  0
  7  8  2  0  0  0  0
  7  9  1  0  0  0  0
  9 10  1  0  0  0  0
  9 29  1  0  0  0  0
 10 16  1  0  0  0  0
 10 11  1  0  0  0  0
 10 30  1  0  0  0  0
 11 15  1  0  0  0  0
 11 12  1  0  0  0  0
 11 31  1  0  0  0  0
 12 13  1  0  0  0  0
 12 32  1  0  0  0  0
 12 33  1  0  0  0  0
 13 14  1  0  0  0  0
 13 34  1  0  0  0  0
 13 35  1  0  0  0  0
 14 15  1  0  0  0  0
 15 16  1  0  0  0  0
 15 36  1  0  0  0  0
 16 20  1  0  0  0  0
 16 17  1  0  0  0  0
 17 18  1  0  0  0  0
 17 37  1  0  0  0  0
 17 38  1  0  0  0  0
 18 19  1  0  0  0  0
 18 39  1  0  0  0  0
 18 40  1  0  0  0  0
 19 20  1  0  0  0  0
 19 41  1  0  0  0  0
 19 42  1  0  0  0  0
 20 43  1  0  0  0  0
 20 44  1  0  0  0  0
 21 22  2  0  0  0  0
 22 45  1  0  0  0  0
M  END
> <s_m_source_file>
AV-unprocessed.smi

> <i_m_source_file_index>
2217

> <i_lp_mmshare_version>
43012

> <i_f3d_flags>
0

> <s_epik_input>
W0NIM11jMVtjSF1bY0hdYyhuW2NIXTEpW05IXUMoPU8pW05IXVtDQEBIXTJbQ0BASF0oW0NIMl1bQ0gyXU8zKVtDQEhdM0MyNFtDSDJdW0NIMl1bQ0gyXVtDSDJdNA==

> <s_epik_cmdline>
J2VwaWtfcHl0aG9uJywgJy1waCcsICc3LjAnLCAnLXRuJywgJzgnLCAnLW1hJywgJzIwMCcsICctbWV0YWxfYmluZGluZycsICctaW1hZScsICc8aW5maWxlLm1hZT4nLCAnLW9tYWUnLCAnPG91dGZpbGUubWFlPic=

> <r_lp_tautomer_probability>
1

> <r_epik_Ionization_Penalty>
6.14796e-05

> <r_epik_Ionization_Penalty_Charging>
0

> <r_epik_Ionization_Penalty_Neutral>
6.14796e-05

> <r_epik_State_Penalty>
-0

> <r_epik_Charging_Adjusted_Penalty>
0

> <i_epik_Tot_Q>
0

> <i_epik_Tot_abs_Q>
0

> <r_epik_Metal_State_Penalty>
-0

> <b_epik_Metal_Only>
0

> <s_lp_Force_Field>
OPLS_2005

> <r_lp_Energy>
82.2768

> <b_lp_Chiralities_Consistent>
1

> <s_lp_Variant>
AV-unprocessed.smi:2217-7

> <Gold.Version>
5.8.1

> <Gold.Id.Protein>
6NUR|6NUR_protein|mol2

> <Gold.PLP.Fitness>
46.3399

> <Gold.PLP.PLP>
-39.5891

> <Gold.PLP.part.hbond>
-5.0000

> <Gold.PLP.part.metal>
0.0000

> <Gold.PLP.part.buried>
-4.8488

> <Gold.PLP.part.nonpolar>
-31.0551

> <Gold.PLP.part.repulsive>
0.2896

> <Gold.PLP.ligand.clash>
0.0000

> <Gold.PLP.ligand.torsion>
0.4699

> <Gold.PLP.Chemscore.Hbond>
2.4723

> <Gold.PLP.Chemscore.CHOScore>
0.0000

> <Gold.PLP.Chemscore.Metal>
0.0000

> <Gold.Chemscore.Hbonds>
donor molecule, donor type, donor heavy atom, donor atom, acceptor molecule, acceptor atom, score
      P1  H  6931  6943       L1    21  0.07
      P1  H  6934  6947       L1    21  1.00
      P1  H  7989  7998       L1    14  0.07
      P1  H  7997  8010       L1    14  0.80

> <Gold.PLP.Chemscore.Internal.Correction>
0.2736

> <Gold.Rescore>
     Score         DG    S(hbond)    S(metal)    S(lipo)     H(rot)  DE(clash)    DE(int)     intcor
     20.27     -21.47       1.85        0.00     105.58       1.00       0.12       1.08       ----

> <Gold.Chemscore.Fitness>
20.2708

> <Gold.Chemscore.DG>
-21.4679

> <Gold.Chemscore.ZeroCoef>
-5.4800

> <Gold.Chemscore.Hbond>
1.8549

> <Gold.Chemscore.Metal>
0.0000

> <Gold.Chemscore.Lipo>
105.5762

> <Gold.Chemscore.Internal_Hbond>
0.0000

> <Gold.Chemscore.DEClash>
0.1156

> <Gold.Chemscore.DEInternal>
1.0815

> <Gold.Chemscore.Rot>
1.0000

> <Gold.Chemscore.Internal.Correction>
   9.000000E+99

> <Gold.Chemscore.Hbonds>
donor molecule, donor type, donor heavy atom, donor atom, acceptor molecule, acceptor atom, score
      P1  H  6931  6943       L1    21  0.01
      P1  H  6934  6947       L1    21  0.94
      P1  H  7997  8010       L1    14  0.12

> <Gold.Chemscore.Hbond.Weighted>
-6.1955

> <Gold.Chemscore.Metal.Weighted>
-0.0000

> <Gold.Chemscore.Lipo.Weighted>
-12.3524

> <Gold.Chemscore.Internal_Hbond.Weighted>
0.0000

> <Gold.Chemscore.DEClash.Weighted>
0.1156

> <Gold.Chemscore.DEInternal.Weighted>
1.0815

> <Gold.Chemscore.Rot.Weighted>
2.5600

> <Gold.Chemscore.Internal.Correction.Weighted>
   9.000000E+99

> <Gold.Protein.RotatedTorsions>
[ 6907 6896 6895 6894 ] final  125.23 input  -60.11 | X-H torsion
[ 7974 7965 7964 7962 ] final   27.30 input  175.53 | X-H torsion
[ 8008 7997 7996 7995 ] final   97.06 input   59.86 | X-H torsion
[ 10167 10162 10161 10158 ] final  -30.05 input  -65.29 | X-H torsion
[ 10718 10713 10712 10709 ] final -111.81 input   66.30 | X-H torsion
[ 10763 10752 10751 10750 ] final   30.53 input  -60.55 | X-H torsion
[ 11005 11000 10999 10996 ] final  -88.25 input  -57.11 | X-H torsion

> <Gold.Protein.ActiveResidues>
 VAL166  LYS551  ARG553  GLY616  TRP617  ASP618  TYR619  PRO620  LYS621  CYS622 
 ASP623  PHE694  ASN695  SER759  ASP760  ASP761  ALA762  ILE779  LEU786  VAL792 
 PHE793  MET794  SER795  GLU796  ALA797  LYS798  CYS799  TRP800  GLU811  SER814 

> <Gold.Protein.RotatedAtoms>
  152.4009  133.6817  159.6315 H   0  0  0  0  0  0  0  0  0  0  0  0  # atno 6907 bound_to 6896
  150.7901  133.8792  159.3289 H   0  0  0  0  0  0  0  0  0  0  0  0  # atno 6908 bound_to 6896
  151.6558  135.0997  160.0221 H   0  0  0  0  0  0  0  0  0  0  0  0  # atno 6909 bound_to 6896
  146.1791  139.7210  142.8913 H   0  0  0  0  0  0  0  0  0  0  0  0  # atno 7974 bound_to 7965
  156.0862  140.3264  155.7756 H   0  0  0  0  0  0  0  0  0  0  0  0  # atno 8008 bound_to 7997
  155.5072  140.0574  157.2947 H   0  0  0  0  0  0  0  0  0  0  0  0  # atno 8009 bound_to 7997
  154.4610  140.1967  156.0261 H   0  0  0  0  0  0  0  0  0  0  0  0  # atno 8010 bound_to 7997
  140.7254  143.3879  151.1482 H   0  0  0  0  0  0  0  0  0  0  0  0  # atno 10167 bound_to 10162
  156.0668  130.5887  150.8424 H   0  0  0  0  0  0  0  0  0  0  0  0  # atno 10718 bound_to 10713
  153.0367  135.6462  154.1058 H   0  0  0  0  0  0  0  0  0  0  0  0  # atno 10763 bound_to 10752
  154.0772  135.2876  155.3299 H   0  0  0  0  0  0  0  0  0  0  0  0  # atno 10764 bound_to 10752
  154.6554  135.5410  153.8017 H   0  0  0  0  0  0  0  0  0  0  0  0  # atno 10765 bound_to 10752
  141.1604  133.7559  156.9424 H   0  0  0  0  0  0  0  0  0  0  0  0  # atno 11005 bound_to 11000
  145.4126  141.0398  143.3008 LP  0  0  0  0  0  0  0  0  0  0  0  0  # atno 17320 bound_to 7965
  144.8285  139.5668  143.6954 LP  0  0  0  0  0  0  0  0  0  0  0  0  # atno 17321 bound_to 7965
  139.7479  143.8823  152.3069 LP  0  0  0  0  0  0  0  0  0  0  0  0  # atno 17342 bound_to 10162
  139.8667  144.7089  150.9036 LP  0  0  0  0  0  0  0  0  0  0  0  0  # atno 17343 bound_to 10162
  157.5715  131.0946  150.9410 LP  0  0  0  0  0  0  0  0  0  0  0  0  # atno 17370 bound_to 10713
  156.9625  130.5460  149.5286 LP  0  0  0  0  0  0  0  0  0  0  0  0  # atno 17371 bound_to 10713
  140.1312  134.9354  157.2340 LP  0  0  0  0  0  0  0  0  0  0  0  0  # atno 17394 bound_to 11000
  140.2950  134.3196  155.7305 LP  0  0  0  0  0  0  0  0  0  0  0  0  # atno 17395 bound_to 11000

$$$$
