AV-unprocessed.smi:1591|AV-procd|sdf|6397|dock1
  -GOLD-   22720 7 33D 1   1.00000     0.00000
 Structure written by MMmdl.
 52 55  0  0  0  0  0  0  0  0  1 V2000
  147.1231  142.1707  154.1186 C   0  0  0  0  0  0  0  0  0  0  0  0
  146.7660  140.7073  153.8168 C   0  0  0  0  0  0  0  0  0  0  0  0
  147.9693  139.8533  153.3456 C   0  0  2  0  0  0  0  0  0  0  0  0
  147.4635  138.6186  152.7407 N   0  0  0  0  0  0  0  0  0  0  0  0
  146.3997  137.9093  153.1489 C   0  0  0  0  0  0  0  0  0  0  0  0
  145.7486  138.1733  154.1593 O   0  0  0  0  0  0  0  0  0  0  0  0
  145.9963  136.7316  152.2578 C   0  0  0  0  0  0  0  0  0  0  0  0
  144.7193  136.1652  152.7108 N   0  0  0  0  0  0  0  0  0  0  0  0
  143.5644  136.9321  152.6434 C   0  0  0  0  0  0  0  0  0  0  0  0
  142.3574  136.5053  153.0837 C   0  0  0  0  0  0  0  0  0  0  0  0
  142.2132  135.1769  153.6689 C   0  0  0  0  0  0  0  0  0  0  0  0
  141.1647  134.7015  154.0987 O   0  0  0  0  0  0  0  0  0  0  0  0
  143.3965  134.4354  153.7190 N   0  0  0  0  0  0  0  0  0  0  0  0
  144.6439  134.8697  153.2676 C   0  0  0  0  0  0  0  0  0  0  0  0
  145.6258  134.1355  153.3682 O   0  0  0  0  0  0  0  0  0  0  0  0
  149.0367  139.5275  154.4467 C   0  0  0  0  0  0  0  0  0  0  0  0
  150.1772  138.6149  153.9079 C   0  0  0  0  0  0  0  0  0  0  0  0
  151.2198  138.3336  155.0124 C   0  0  1  0  0  0  0  0  0  0  0  0
  151.8432  139.6611  155.4898 C   0  0  0  0  0  0  0  0  0  0  0  0
  150.7317  140.5634  156.0632 C   0  0  2  0  0  0  0  0  0  0  0  0
  150.0499  139.8635  157.2542 C   0  0  0  0  0  0  0  0  0  0  0  0
  149.4322  138.5377  156.7695 C   0  0  2  0  0  0  0  0  0  0  0  0
  150.5389  137.6252  156.2017 C   0  0  0  0  0  0  0  0  0  0  0  0
  148.3851  138.8205  155.6711 C   0  0  0  0  0  0  0  0  0  0  0  0
  149.6877  140.8472  154.9647 C   0  0  0  0  0  0  0  0  0  0  0  0
  143.3467  133.5099  154.1196 H   0  0  0  0  0  0  0  0  0  0  0  0
  146.2593  142.7031  154.5167 H   0  0  0  0  0  0  0  0  0  0  0  0
  147.4490  142.7015  153.2239 H   0  0  0  0  0  0  0  0  0  0  0  0
  147.9217  142.2356  154.8580 H   0  0  0  0  0  0  0  0  0  0  0  0
  146.3428  140.2889  154.7284 H   0  0  0  0  0  0  0  0  0  0  0  0
  145.9704  140.6885  153.0722 H   0  0  0  0  0  0  0  0  0  0  0  0
  148.4745  140.4435  152.5789 H   0  0  0  0  0  0  0  0  0  0  0  0
  147.9319  138.3103  151.9014 H   0  0  0  0  0  0  0  0  0  0  0  0
  145.9165  137.0532  151.2176 H   0  0  0  0  0  0  0  0  0  0  0  0
  146.7931  135.9859  152.2652 H   0  0  0  0  0  0  0  0  0  0  0  0
  143.6269  137.9269  152.2250 H   0  0  0  0  0  0  0  0  0  0  0  0
  141.4952  137.1516  153.0057 H   0  0  0  0  0  0  0  0  0  0  0  0
  149.7745  137.6683  153.5480 H   0  0  0  0  0  0  0  0  0  0  0  0
  150.6745  139.0790  153.0554 H   0  0  0  0  0  0  0  0  0  0  0  0
  152.0046  137.6912  154.6114 H   0  0  0  0  0  0  0  0  0  0  0  0
  152.6049  139.4716  156.2472 H   0  0  0  0  0  0  0  0  0  0  0  0
  152.3479  140.1618  154.6624 H   0  0  0  0  0  0  0  0  0  0  0  0
  151.1681  141.5046  156.3989 H   0  0  0  0  0  0  0  0  0  0  0  0
  150.7730  139.6770  158.0492 H   0  0  0  0  0  0  0  0  0  0  0  0
  149.2791  140.5066  157.6811 H   0  0  0  0  0  0  0  0  0  0  0  0
  148.9482  138.0379  157.6093 H   0  0  0  0  0  0  0  0  0  0  0  0
  150.1171  136.6709  155.8832 H   0  0  0  0  0  0  0  0  0  0  0  0
  151.2727  137.3954  156.9753 H   0  0  0  0  0  0  0  0  0  0  0  0
  147.5768  139.4316  156.0750 H   0  0  0  0  0  0  0  0  0  0  0  0
  147.9373  137.8707  155.3819 H   0  0  0  0  0  0  0  0  0  0  0  0
  150.1836  141.3843  154.1562 H   0  0  0  0  0  0  0  0  0  0  0  0
  148.9204  141.5209  155.3485 H   0  0  0  0  0  0  0  0  0  0  0  0
  1  2  1  0  0  0  0
  1 27  1  0  0  0  0
  1 28  1  0  0  0  0
  1 29  1  0  0  0  0
  2  3  1  0  0  0  0
  2 30  1  0  0  0  0
  2 31  1  0  0  0  0
  3  4  1  0  0  0  0
  3 16  1  0  0  0  0
  3 32  1  0  0  0  0
  4  5  1  0  0  0  0
  4 33  1  0  0  0  0
  5  6  2  0  0  0  0
  5  7  1  0  0  0  0
  7  8  1  0  0  0  0
  7 34  1  0  0  0  0
  7 35  1  0  0  0  0
  8 14  1  0  0  0  0
  8  9  1  0  0  0  0
  9 10  2  0  0  0  0
  9 36  1  0  0  0  0
 10 11  1  0  0  0  0
 10 37  1  0  0  0  0
 11 12  2  0  0  0  0
 11 13  1  0  0  0  0
 13 26  1  0  0  0  0
 13 14  1  0  0  0  0
 14 15  2  0  0  0  0
 16 24  1  0  0  0  0
 16 25  1  0  0  0  0
 16 17  1  0  0  0  0
 17 18  1  0  0  0  0
 17 38  1  0  0  0  0
 17 39  1  0  0  0  0
 18 23  1  0  0  0  0
 18 19  1  0  0  0  0
 18 40  1  0  0  0  0
 19 20  1  0  0  0  0
 19 41  1  0  0  0  0
 19 42  1  0  0  0  0
 20 21  1  0  0  0  0
 20 25  1  0  0  0  0
 20 43  1  0  0  0  0
 21 22  1  0  0  0  0
 21 44  1  0  0  0  0
 21 45  1  0  0  0  0
 22 23  1  0  0  0  0
 22 24  1  0  0  0  0
 22 46  1  0  0  0  0
 23 47  1  0  0  0  0
 23 48  1  0  0  0  0
 24 49  1  0  0  0  0
 24 50  1  0  0  0  0
 25 51  1  0  0  0  0
 25 52  1  0  0  0  0
M  END
> <s_m_source_file>
AV-unprocessed.smi

> <i_m_source_file_index>
1591

> <i_lp_mmshare_version>
43012

> <i_f3d_flags>
0

> <s_epik_input>
W0NIMl0xW0NASF0oW0NIMl0yKVtDSDJdW0NASF0oW0NIMl0zKVtDSDJdW0NAQEhdMVtDSDJdQzIzW0NASF0oW0NIMl1bQ0gzXSlbTkhdQyg9TylbQ0gyXW40W2NIXVtjSF1jKD1PKVtuSF1jND1P

> <s_epik_cmdline>
J2VwaWtfcHl0aG9uJywgJy1waCcsICc3LjAnLCAnLXRuJywgJzgnLCAnLW1hJywgJzIwMCcsICctbWV0YWxfYmluZGluZycsICctaW1hZScsICc8aW5maWxlLm1hZT4nLCAnLW9tYWUnLCAnPG91dGZpbGUubWFlPic=

> <r_lp_tautomer_probability>
0.999537

> <r_epik_Ionization_Penalty>
0.00297067

> <r_epik_Ionization_Penalty_Charging>
0.00297065

> <r_epik_Ionization_Penalty_Neutral>
1.95363e-08

> <r_epik_State_Penalty>
0.00208437

> <r_epik_Charging_Adjusted_Penalty>
0.00505502

> <i_epik_Tot_Q>
0

> <i_epik_Tot_abs_Q>
0

> <r_epik_Metal_State_Penalty>
0.36072

> <b_epik_Metal_Only>
0

> <s_lp_Force_Field>
OPLS_2005

> <r_lp_Energy>
39.079

> <b_lp_Chiralities_Consistent>
1

> <s_lp_Variant>
AV-unprocessed.smi:1591-1

> <Gold.Version>
5.8.1

> <Gold.Id.Protein>
6NUR|6NUR_protein|mol2

> <Gold.PLP.Fitness>
48.9364

> <Gold.PLP.PLP>
-37.4858

> <Gold.PLP.part.hbond>
-4.3982

> <Gold.PLP.part.metal>
0.0000

> <Gold.PLP.part.buried>
-1.1936

> <Gold.PLP.part.nonpolar>
-32.8526

> <Gold.PLP.part.repulsive>
0.4352

> <Gold.PLP.ligand.clash>
0.0000

> <Gold.PLP.ligand.torsion>
0.5729

> <Gold.PLP.Chemscore.Hbond>
2.1474

> <Gold.PLP.Chemscore.CHOScore>
1.9557

> <Gold.PLP.Chemscore.Metal>
0.0000

> <Gold.Chemscore.Hbonds>
donor molecule, donor type, donor heavy atom, donor atom, acceptor molecule, acceptor atom, score
      L1  H     4    33       P1  7948  0.16
      L1  H    13    26       P1 10957  1.00
      P1  H 11000 11005       L1    12  1.00
      L1  C     9    36       P1 10171  0.97
      L1  C     9    36       P1 10175  1.00

> <Gold.PLP.Chemscore.Internal.Correction>
0.2873

> <Gold.Rescore>
     Score         DG    S(hbond)    S(metal)    S(lipo)     H(rot)  DE(clash)    DE(int)     intcor
     13.26     -16.80       2.13        0.00      80.55       2.04       0.46       3.09       ----

> <Gold.Chemscore.Fitness>
13.2561

> <Gold.Chemscore.DG>
-16.8033

> <Gold.Chemscore.ZeroCoef>
-5.4800

> <Gold.Chemscore.Hbond>
2.1328

> <Gold.Chemscore.Metal>
0.0000

> <Gold.Chemscore.Lipo>
80.5513

> <Gold.Chemscore.Internal_Hbond>
0.0000

> <Gold.Chemscore.DEClash>
0.4552

> <Gold.Chemscore.DEInternal>
3.0920

> <Gold.Chemscore.Rot>
2.0409

> <Gold.Chemscore.Internal.Correction>
   9.000000E+99

> <Gold.Chemscore.Hbonds>
donor molecule, donor type, donor heavy atom, donor atom, acceptor molecule, acceptor atom, score
      L1  H     4    33       P1  7948  0.16
      L1  H    13    26       P1 10957  0.97
      P1  H 11000 11005       L1    12  0.99

> <Gold.Chemscore.Hbond.Weighted>
-7.1234

> <Gold.Chemscore.Metal.Weighted>
-0.0000

> <Gold.Chemscore.Lipo.Weighted>
-9.4245

> <Gold.Chemscore.Internal_Hbond.Weighted>
0.0000

> <Gold.Chemscore.DEClash.Weighted>
0.4552

> <Gold.Chemscore.DEInternal.Weighted>
3.0920

> <Gold.Chemscore.Rot.Weighted>
5.2246

> <Gold.Chemscore.Internal.Correction.Weighted>
   9.000000E+99

> <Gold.Protein.RotatedTorsions>
[ 6907 6896 6895 6894 ] final  100.92 input  -60.11 | X-H torsion
[ 7974 7965 7964 7962 ] final  172.16 input  175.53 | X-H torsion
[ 8008 7997 7996 7995 ] final  -50.25 input   59.86 | X-H torsion
[ 10167 10162 10161 10158 ] final  105.14 input  -65.29 | X-H torsion
[ 10718 10713 10712 10709 ] final  147.23 input   66.30 | X-H torsion
[ 10763 10752 10751 10750 ] final  -53.91 input  -60.55 | X-H torsion
[ 11005 11000 10999 10996 ] final   21.68 input  -57.11 | X-H torsion

> <Gold.Protein.ActiveResidues>
 VAL166  LYS551  ARG553  GLY616  TRP617  ASP618  TYR619  PRO620  LYS621  CYS622 
 ASP623  PHE694  ASN695  SER759  ASP760  ASP761  ALA762  ILE779  LEU786  VAL792 
 PHE793  MET794  SER795  GLU796  ALA797  LYS798  CYS799  TRP800  GLU811  SER814 

> <Gold.Protein.RotatedAtoms>
  152.5361  134.0204  159.7978 H   0  0  0  0  0  0  0  0  0  0  0  0  # atno 6907 bound_to 6896
  151.0391  133.5714  159.2660 H   0  0  0  0  0  0  0  0  0  0  0  0  # atno 6908 bound_to 6896
  151.2690  135.0686  159.9180 H   0  0  0  0  0  0  0  0  0  0  0  0  # atno 6909 bound_to 6896
  144.7275  139.9458  143.6430 H   0  0  0  0  0  0  0  0  0  0  0  0  # atno 7974 bound_to 7965
  154.4058  140.1277  156.4635 H   0  0  0  0  0  0  0  0  0  0  0  0  # atno 8008 bound_to 7997
  155.7250  140.3492  155.5013 H   0  0  0  0  0  0  0  0  0  0  0  0  # atno 8009 bound_to 7997
  155.9180  140.1047  157.1219 H   0  0  0  0  0  0  0  0  0  0  0  0  # atno 8010 bound_to 7997
  139.7118  144.7076  151.1015 H   0  0  0  0  0  0  0  0  0  0  0  0  # atno 10167 bound_to 10162
  157.3235  131.0908  151.1221 H   0  0  0  0  0  0  0  0  0  0  0  0  # atno 10718 bound_to 10713
  154.1664  135.6466  153.4998 H   0  0  0  0  0  0  0  0  0  0  0  0  # atno 10763 bound_to 10752
  153.0096  135.5373  154.6658 H   0  0  0  0  0  0  0  0  0  0  0  0  # atno 10764 bound_to 10752
  154.5986  135.2941  155.0532 H   0  0  0  0  0  0  0  0  0  0  0  0  # atno 10765 bound_to 10752
  140.3889  134.1840  155.7662 H   0  0  0  0  0  0  0  0  0  0  0  0  # atno 11005 bound_to 11000
  146.0750  139.3738  143.0500 LP  0  0  0  0  0  0  0  0  0  0  0  0  # atno 17320 bound_to 7965
  145.7918  140.9811  143.1045 LP  0  0  0  0  0  0  0  0  0  0  0  0  # atno 17321 bound_to 7965
  140.7735  143.5283  150.9453 LP  0  0  0  0  0  0  0  0  0  0  0  0  # atno 17342 bound_to 10162
  139.8968  143.6885  152.3137 LP  0  0  0  0  0  0  0  0  0  0  0  0  # atno 17343 bound_to 10162
  157.2497  130.6608  149.5926 LP  0  0  0  0  0  0  0  0  0  0  0  0  # atno 17370 bound_to 10713
  155.9688  130.4542  150.5841 LP  0  0  0  0  0  0  0  0  0  0  0  0  # atno 17371 bound_to 10713
  141.1898  133.8232  157.0944 LP  0  0  0  0  0  0  0  0  0  0  0  0  # atno 17394 bound_to 11000
  140.0421  134.9849  157.0982 LP  0  0  0  0  0  0  0  0  0  0  0  0  # atno 17395 bound_to 11000

$$$$
