AV-unprocessed.smi:102|AV-procd|sdf|946|dock10
  -GOLD-   2262017473D 1   1.00000     0.00000
 Structure written by MMmdl.
 44 45  0  0  0  0  0  0  0  0  1 V2000
  147.2277  135.1117  159.9647 C   0  0  0  0  0  0  0  0  0  0  0  0
  148.0138  136.3940  160.2041 C   0  0  0  0  0  0  0  0  0  0  0  0
  147.6719  137.2064  161.0635 O   0  0  0  0  0  0  0  0  0  0  0  0
  149.0718  136.5074  159.3861 O   0  0  0  0  0  0  0  0  0  0  0  0
  149.5835  137.7924  159.0719 C   0  0  0  0  0  0  0  0  0  0  0  0
  151.1204  137.7221  158.9979 C   0  0  1  0  0  0  0  0  0  0  0  0
  151.5077  136.4725  158.4253 O   0  0  0  0  0  0  0  0  0  0  0  0
  151.8176  136.6024  157.0648 C   0  0  1  0  0  0  0  0  0  0  0  0
  150.9301  135.6872  156.2439 N   0  0  0  0  0  0  0  0  0  0  0  0
  150.0937  134.7392  156.8211 C   0  0  0  0  0  0  0  0  0  0  0  0
  149.2805  133.9358  156.0956 C   0  0  0  0  0  0  0  0  0  0  0  0
  148.4975  133.0434  156.7251 F   0  0  0  0  0  0  0  0  0  0  0  0
  149.2481  134.0278  154.6389 C   0  0  0  0  0  0  0  0  0  0  0  0
  148.5422  133.3472  153.8973 O   0  0  0  0  0  0  0  0  0  0  0  0
  150.1130  134.9854  154.1017 N   0  0  0  0  0  0  0  0  0  0  0  0
  150.9558  135.8192  154.8380 C   0  0  0  0  0  0  0  0  0  0  0  0
  151.6749  136.6350  154.2629 O   0  0  0  0  0  0  0  0  0  0  0  0
  151.6567  138.0910  156.6916 C   0  0  1  0  0  0  0  0  0  0  0  0
  150.3861  138.3329  156.0848 O   0  0  0  0  0  0  0  0  0  0  0  0
  150.2332  139.2949  155.1595 C   0  0  0  0  0  0  0  0  0  0  0  0
  148.8124  139.3512  154.6154 C   0  0  0  0  0  0  0  0  0  0  0  0
  151.1050  140.0664  154.7605 O   0  0  0  0  0  0  0  0  0  0  0  0
  151.7628  138.7481  158.0610 C   0  0  1  0  0  0  0  0  0  0  0  0
  151.1688  140.0400  158.1331 O   0  0  0  0  0  0  0  0  0  0  0  0
  151.7957  141.0385  158.7796 C   0  0  0  0  0  0  0  0  0  0  0  0
  151.0241  142.3493  158.7103 C   0  0  0  0  0  0  0  0  0  0  0  0
  152.8763  140.9574  159.3634 O   0  0  0  0  0  0  0  0  0  0  0  0
  150.1264  135.0833  153.0969 H   0  0  0  0  0  0  0  0  0  0  0  0
  147.1207  134.9236  158.8962 H   0  0  0  0  0  0  0  0  0  0  0  0
  146.2317  135.1872  160.4015 H   0  0  0  0  0  0  0  0  0  0  0  0
  147.7411  134.2635  160.4173 H   0  0  0  0  0  0  0  0  0  0  0  0
  149.1672  138.1545  158.1319 H   0  0  0  0  0  0  0  0  0  0  0  0
  149.2707  138.4855  159.8534 H   0  0  0  0  0  0  0  0  0  0  0  0
  151.5355  137.8203  160.0015 H   0  0  0  0  0  0  0  0  0  0  0  0
  152.8350  136.2343  156.9197 H   0  0  0  0  0  0  0  0  0  0  0  0
  150.0718  134.6140  157.8919 H   0  0  0  0  0  0  0  0  0  0  0  0
  152.4798  138.3842  156.0384 H   0  0  0  0  0  0  0  0  0  0  0  0
  148.0946  139.0709  155.3867 H   0  0  0  0  0  0  0  0  0  0  0  0
  148.7041  138.6648  153.7754 H   0  0  0  0  0  0  0  0  0  0  0  0
  148.5751  140.3586  154.2736 H   0  0  0  0  0  0  0  0  0  0  0  0
  152.8185  138.8129  158.3304 H   0  0  0  0  0  0  0  0  0  0  0  0
  149.9723  142.1858  158.9452 H   0  0  0  0  0  0  0  0  0  0  0  0
  151.0950  142.7747  157.7091 H   0  0  0  0  0  0  0  0  0  0  0  0
  151.4290  143.0697  159.4215 H   0  0  0  0  0  0  0  0  0  0  0  0
  1  2  1  0  0  0  0
  1 29  1  0  0  0  0
  1 30  1  0  0  0  0
  1 31  1  0  0  0  0
  2  3  2  0  0  0  0
  2  4  1  0  0  0  0
  4  5  1  0  0  0  0
  5  6  1  0  0  0  0
  5 32  1  0  0  0  0
  5 33  1  0  0  0  0
  6 23  1  0  0  0  0
  6  7  1  0  0  0  0
  6 34  1  0  0  0  0
  7  8  1  0  0  0  0
  8  9  1  0  0  0  0
  8 18  1  0  0  0  0
  8 35  1  0  0  0  0
  9 16  1  0  0  0  0
  9 10  1  0  0  0  0
 10 11  2  0  0  0  0
 10 36  1  0  0  0  0
 11 12  1  0  0  0  0
 11 13  1  0  0  0  0
 13 14  2  0  0  0  0
 13 15  1  0  0  0  0
 15 28  1  0  0  0  0
 15 16  1  0  0  0  0
 16 17  2  0  0  0  0
 18 19  1  0  0  0  0
 18 23  1  0  0  0  0
 18 37  1  0  0  0  0
 19 20  1  0  0  0  0
 20 21  1  0  0  0  0
 20 22  2  0  0  0  0
 21 38  1  0  0  0  0
 21 39  1  0  0  0  0
 21 40  1  0  0  0  0
 23 24  1  0  0  0  0
 23 41  1  0  0  0  0
 24 25  1  0  0  0  0
 25 26  1  0  0  0  0
 25 27  2  0  0  0  0
 26 42  1  0  0  0  0
 26 43  1  0  0  0  0
 26 44  1  0  0  0  0
M  END
> <s_m_source_file>
AV-unprocessed.smi

> <i_m_source_file_index>
102

> <i_lp_mmshare_version>
43012

> <i_f3d_flags>
0

> <s_epik_input>
W0NIM11DKD1PKU9bQ0gyXVtDQEBIXTFPW0NASF0oW0NAQEhdKE9DKD1PKVtDSDNdKVtDQEhdMU9DKD1PKVtDSDNdKW4yW2NIXWMoRiljKD1PKVtuSF1jMj1P

> <s_epik_cmdline>
J2VwaWtfcHl0aG9uJywgJy1waCcsICc3LjAnLCAnLXRuJywgJzgnLCAnLW1hJywgJzIwMCcsICctbWV0YWxfYmluZGluZycsICctaW1hZScsICc8aW5maWxlLm1hZT4nLCAnLW9tYWUnLCAnPG91dGZpbGUubWFlPic=

> <r_lp_tautomer_probability>
0.999537

> <r_epik_Ionization_Penalty>
0.058267

> <r_epik_Ionization_Penalty_Charging>
0.058267

> <r_epik_Ionization_Penalty_Neutral>
6.57791e-16

> <r_epik_State_Penalty>
0.0503774

> <r_epik_Charging_Adjusted_Penalty>
0.108644

> <i_epik_Tot_Q>
0

> <i_epik_Tot_abs_Q>
0

> <r_epik_Metal_State_Penalty>
2.6644

> <b_epik_Metal_Only>
0

> <s_epik_Chemistry_Notes>
This compound has an ester and may undergo hydrolysis at high or low pH. This compound contains an acetal/aminal-like group ( X-CH(R)-Y where X, Y are N, S, or O) that may be acid/base labile, releasing an aldehyde.

> <s_lp_Force_Field>
OPLS_2005

> <r_lp_Energy>
16.4745

> <b_lp_Chiralities_Consistent>
1

> <s_lp_Variant>
AV-unprocessed.smi:102-2

> <Gold.Version>
5.8.1

> <Gold.Id.Protein>
6NUR|6NUR_protein|mol2

> <Gold.PLP.Fitness>
36.9648

> <Gold.PLP.PLP>
-27.9551

> <Gold.PLP.part.hbond>
-7.0000

> <Gold.PLP.part.metal>
0.0000

> <Gold.PLP.part.buried>
-2.9930

> <Gold.PLP.part.nonpolar>
-19.7465

> <Gold.PLP.part.repulsive>
1.9856

> <Gold.PLP.ligand.clash>
0.0000

> <Gold.PLP.ligand.torsion>
2.1539

> <Gold.PLP.Chemscore.Hbond>
4.3840

> <Gold.PLP.Chemscore.CHOScore>
0.0000

> <Gold.PLP.Chemscore.Metal>
0.0000

> <Gold.Chemscore.Hbonds>
donor molecule, donor type, donor heavy atom, donor atom, acceptor molecule, acceptor atom, score
      P1  H  6896  6908       L1     7  0.58
      P1  H  6931  6943       L1     3  0.90
      P1  H  6934  6947       L1     3  0.90
      P1  H  7989  7998       L1    22  1.00
      P1  H 10752 10765       L1    17  1.00

> <Gold.PLP.Chemscore.Internal.Correction>
0.1654

> <Gold.Rescore>
     Score         DG    S(hbond)    S(metal)    S(lipo)     H(rot)  DE(clash)    DE(int)     intcor
      7.19     -13.18       4.02        0.00      39.62       4.05       0.10       5.90       ----

> <Gold.Chemscore.Fitness>
7.1937

> <Gold.Chemscore.DG>
-13.1844

> <Gold.Chemscore.ZeroCoef>
-5.4800

> <Gold.Chemscore.Hbond>
4.0244

> <Gold.Chemscore.Metal>
0.0000

> <Gold.Chemscore.Lipo>
39.6240

> <Gold.Chemscore.Internal_Hbond>
0.0000

> <Gold.Chemscore.DEClash>
0.0951

> <Gold.Chemscore.DEInternal>
5.8956

> <Gold.Chemscore.Rot>
4.0520

> <Gold.Chemscore.Internal.Correction>
   9.000000E+99

> <Gold.Chemscore.Hbonds>
donor molecule, donor type, donor heavy atom, donor atom, acceptor molecule, acceptor atom, score
      P1  H  6896  6908       L1     7  0.32
      P1  H  6931  6943       L1     3  0.84
      P1  H  6934  6947       L1     3  0.88
      P1  H  7989  7998       L1    22  0.98
      P1  H 10752 10765       L1    17  0.25

> <Gold.Chemscore.Hbond.Weighted>
-13.4416

> <Gold.Chemscore.Metal.Weighted>
-0.0000

> <Gold.Chemscore.Lipo.Weighted>
-4.6360

> <Gold.Chemscore.Internal_Hbond.Weighted>
0.0000

> <Gold.Chemscore.DEClash.Weighted>
0.0951

> <Gold.Chemscore.DEInternal.Weighted>
5.8956

> <Gold.Chemscore.Rot.Weighted>
10.3732

> <Gold.Chemscore.Internal.Correction.Weighted>
   9.000000E+99

> <Gold.Protein.RotatedTorsions>
[ 6907 6896 6895 6894 ] final -151.85 input  -60.11 | X-H torsion
[ 7974 7965 7964 7962 ] final -131.83 input  175.53 | X-H torsion
[ 8008 7997 7996 7995 ] final  -41.03 input   59.86 | X-H torsion
[ 10167 10162 10161 10158 ] final -160.95 input  -65.29 | X-H torsion
[ 10718 10713 10712 10709 ] final   28.08 input   66.30 | X-H torsion
[ 10763 10752 10751 10750 ] final  143.79 input  -60.55 | X-H torsion
[ 11005 11000 10999 10996 ] final   61.40 input  -57.11 | X-H torsion

> <Gold.Protein.ActiveResidues>
 VAL166  LYS551  ARG553  GLY616  TRP617  ASP618  TYR619  PRO620  LYS621  CYS622 
 ASP623  PHE694  ASN695  SER759  ASP760  ASP761  ALA762  ILE779  LEU786  VAL792 
 PHE793  MET794  SER795  GLU796  ALA797  LYS798  CYS799  TRP800  GLU811  SER814 

> <Gold.Protein.RotatedAtoms>
  151.2192  133.4512  159.2600 H   0  0  0  0  0  0  0  0  0  0  0  0  # atno 6907 bound_to 6896
  151.0901  134.9911  159.8409 H   0  0  0  0  0  0  0  0  0  0  0  0  # atno 6908 bound_to 6896
  152.5433  134.2126  159.8809 H   0  0  0  0  0  0  0  0  0  0  0  0  # atno 6909 bound_to 6896
  144.9343  140.7164  143.4886 H   0  0  0  0  0  0  0  0  0  0  0  0  # atno 7974 bound_to 7965
  154.4007  140.1510  156.3124 H   0  0  0  0  0  0  0  0  0  0  0  0  # atno 8008 bound_to 7997
  155.8603  140.3453  155.5731 H   0  0  0  0  0  0  0  0  0  0  0  0  # atno 8009 bound_to 7997
  155.7887  140.0853  157.2011 H   0  0  0  0  0  0  0  0  0  0  0  0  # atno 8010 bound_to 7997
  139.6501  144.0099  152.2156 H   0  0  0  0  0  0  0  0  0  0  0  0  # atno 10167 bound_to 10162
  157.2286  130.7013  149.6303 H   0  0  0  0  0  0  0  0  0  0  0  0  # atno 10718 bound_to 10713
  153.9782  135.2944  155.3422 H   0  0  0  0  0  0  0  0  0  0  0  0  # atno 10763 bound_to 10752
  154.7284  135.5078  153.8926 H   0  0  0  0  0  0  0  0  0  0  0  0  # atno 10764 bound_to 10752
  153.0867  135.6695  154.0049 H   0  0  0  0  0  0  0  0  0  0  0  0  # atno 10765 bound_to 10752
  140.0164  134.6219  155.9704 H   0  0  0  0  0  0  0  0  0  0  0  0  # atno 11005 bound_to 11000
  145.3092  139.1824  143.4647 LP  0  0  0  0  0  0  0  0  0  0  0  0  # atno 17320 bound_to 7965
  146.3260  140.3095  142.8626 LP  0  0  0  0  0  0  0  0  0  0  0  0  # atno 17321 bound_to 7965
  139.9811  144.6428  150.7900 LP  0  0  0  0  0  0  0  0  0  0  0  0  # atno 17342 bound_to 10162
  140.7534  143.3007  151.3088 LP  0  0  0  0  0  0  0  0  0  0  0  0  # atno 17343 bound_to 10162
  155.9677  130.4496  150.5665 LP  0  0  0  0  0  0  0  0  0  0  0  0  # atno 17370 bound_to 10713
  157.3501  131.0732  151.1720 LP  0  0  0  0  0  0  0  0  0  0  0  0  # atno 17371 bound_to 10713
  141.1745  133.6539  156.4777 LP  0  0  0  0  0  0  0  0  0  0  0  0  # atno 17394 bound_to 11000
  140.4464  134.6969  157.5017 LP  0  0  0  0  0  0  0  0  0  0  0  0  # atno 17395 bound_to 11000

$$$$
