AV-unprocessed.smi:2931|AV-procd|sdf|11242|dock3
  -GOLD-   2272016133D 1   1.00000     0.00000
 Structure written by MMmdl.
 42 43  0  0  0  0  0  0  0  0  2 V2000
  142.4525  134.5292  152.6193 C   0  0  0  0  0  0  0  0  0  0  0  0
  143.6341  133.6423  152.5615 N   0  3  1  0  0  0  0  0  0  0  0  0
  143.7092  132.8801  151.2901 C   0  0  0  0  0  0  0  0  0  0  0  0
  144.8691  131.8713  151.3216 C   0  0  0  0  0  0  0  0  0  0  0  0
  146.2013  132.5699  151.6272 C   0  0  0  0  0  0  0  0  0  0  0  0
  146.0878  133.3893  152.9259 C   0  0  1  0  0  0  0  0  0  0  0  0
  147.3206  134.1311  153.1709 N   0  0  0  0  0  0  0  0  0  0  0  0
  148.1220  133.9651  154.2319 C   0  0  0  0  0  0  0  0  0  0  0  0
  147.8929  133.1834  155.1545 O   0  0  0  0  0  0  0  0  0  0  0  0
  149.2131  134.7387  154.1550 N   0  0  0  0  0  0  0  0  0  0  0  0
  150.3043  134.7497  155.1251 C   0  0  0  0  0  0  0  0  0  0  0  0
  150.1877  135.8936  156.1535 C   0  0  0  0  0  0  0  0  0  0  0  0
  150.5931  137.2510  155.6038 C   0  0  0  0  0  0  0  0  0  0  0  0
  149.7812  137.9220  154.6654 C   0  0  0  0  0  0  0  0  0  0  0  0
  150.1989  139.1831  154.1957 C   0  0  0  0  0  0  0  0  0  0  0  0
  151.3384  139.7848  154.5996 N   0  0  0  0  0  0  0  0  0  0  0  0
  152.1113  139.1359  155.4967 C   0  0  0  0  0  0  0  0  0  0  0  0
  151.7856  137.8719  156.0285 C   0  0  0  0  0  0  0  0  0  0  0  0
  144.8981  134.3649  152.8497 C   0  0  0  0  0  0  0  0  0  0  0  0
  142.5064  135.3037  151.8532 H   0  0  0  0  0  0  0  0  0  0  0  0
  142.3833  135.0146  153.5934 H   0  0  0  0  0  0  0  0  0  0  0  0
  141.5353  133.9594  152.4669 H   0  0  0  0  0  0  0  0  0  0  0  0
  142.7704  132.3498  151.1253 H   0  0  0  0  0  0  0  0  0  0  0  0
  143.8344  133.5718  150.4553 H   0  0  0  0  0  0  0  0  0  0  0  0
  144.6726  131.1113  152.0790 H   0  0  0  0  0  0  0  0  0  0  0  0
  144.9340  131.3471  150.3674 H   0  0  0  0  0  0  0  0  0  0  0  0
  146.9984  131.8300  151.7114 H   0  0  0  0  0  0  0  0  0  0  0  0
  146.4692  133.2234  150.7955 H   0  0  0  0  0  0  0  0  0  0  0  0
  145.9076  132.7061  153.7586 H   0  0  0  0  0  0  0  0  0  0  0  0
  147.6022  134.7962  152.4656 H   0  0  0  0  0  0  0  0  0  0  0  0
  149.3125  135.3459  153.3544 H   0  0  0  0  0  0  0  0  0  0  0  0
  150.2800  133.7928  155.6468 H   0  0  0  0  0  0  0  0  0  0  0  0
  151.2653  134.7952  154.6110 H   0  0  0  0  0  0  0  0  0  0  0  0
  149.1623  135.9549  156.5190 H   0  0  0  0  0  0  0  0  0  0  0  0
  150.8019  135.6672  157.0258 H   0  0  0  0  0  0  0  0  0  0  0  0
  148.8575  137.4853  154.3148 H   0  0  0  0  0  0  0  0  0  0  0  0
  149.6000  139.7237  153.4778 H   0  0  0  0  0  0  0  0  0  0  0  0
  153.0161  139.6398  155.8021 H   0  0  0  0  0  0  0  0  0  0  0  0
  152.4354  137.3942  156.7470 H   0  0  0  0  0  0  0  0  0  0  0  0
  145.0700  135.1182  152.0788 H   0  0  0  0  0  0  0  0  0  0  0  0
  144.8007  134.8967  153.7974 H   0  0  0  0  0  0  0  0  0  0  0  0
  143.5167  132.9617  153.2987 H   0  0  0  0  0  0  0  0  0  0  0  0
  1  2  1  0  0  0  0
  1 20  1  0  0  0  0
  1 21  1  0  0  0  0
  1 22  1  0  0  0  0
  2 19  1  0  0  0  0
  2  3  1  0  0  0  0
  2 42  1  0  0  0  0
  3  4  1  0  0  0  0
  3 23  1  0  0  0  0
  3 24  1  0  0  0  0
  4  5  1  0  0  0  0
  4 25  1  0  0  0  0
  4 26  1  0  0  0  0
  5  6  1  0  0  0  0
  5 27  1  0  0  0  0
  5 28  1  0  0  0  0
  6  7  1  0  0  0  0
  6 19  1  0  0  0  0
  6 29  1  0  0  0  0
  7  8  1  0  0  0  0
  7 30  1  0  0  0  0
  8  9  2  0  0  0  0
  8 10  1  0  0  0  0
 10 11  1  0  0  0  0
 10 31  1  0  0  0  0
 11 12  1  0  0  0  0
 11 32  1  0  0  0  0
 11 33  1  0  0  0  0
 12 13  1  0  0  0  0
 12 34  1  0  0  0  0
 12 35  1  0  0  0  0
 13 18  1  0  0  0  0
 13 14  2  0  0  0  0
 14 15  1  0  0  0  0
 14 36  1  0  0  0  0
 15 16  2  0  0  0  0
 15 37  1  0  0  0  0
 16 17  1  0  0  0  0
 17 18  2  0  0  0  0
 17 38  1  0  0  0  0
 18 39  1  0  0  0  0
 19 40  1  0  0  0  0
 19 41  1  0  0  0  0
M  CHG  1   2   1
M  END
> <s_m_source_file>
AV-unprocessed.smi

> <i_m_source_file_index>
2931

> <i_lp_mmshare_version>
43012

> <i_f3d_flags>
0

> <s_epik_input>
W0NIM11OMVtDSDJdW0NIMl1bQ0gyXVtDQEhdKFtDSDJdMSlbTkhdQyg9TylbTkhdW0NIMl1bQ0gyXWMyW2NIXVtjSF1uW2NIXVtjSF0y

> <s_epik_cmdline>
J2VwaWtfcHl0aG9uJywgJy1waCcsICc3LjAnLCAnLXRuJywgJzgnLCAnLW1hJywgJzIwMCcsICctbWV0YWxfYmluZGluZycsICctaW1hZScsICc8aW5maWxlLm1hZT4nLCAnLW9tYWUnLCAnPG91dGZpbGUubWFlPic=

> <r_epik_Ionization_Penalty>
0.0573876

> <r_epik_Ionization_Penalty_Charging>
0.00229982

> <r_epik_Ionization_Penalty_Neutral>
0.0550878

> <r_epik_State_Penalty>
0.0473925

> <r_epik_Charging_Adjusted_Penalty>
0.0496923

> <i_epik_Tot_Q>
1

> <i_epik_Tot_abs_Q>
1

> <r_epik_Metal_State_Penalty>
0.0433388

> <b_epik_Metal_Only>
0

> <s_lp_Force_Field>
OPLS_2005

> <r_lp_Energy>
13.6108

> <b_lp_Chiralities_Consistent>
1

> <s_lp_Variant>
AV-unprocessed.smi:2931-1

> <Gold.Version>
5.8.1

> <Gold.Id.Protein>
6NUR|6NUR_protein|mol2

> <Gold.PLP.Fitness>
48.0663

> <Gold.PLP.PLP>
-31.4214

> <Gold.PLP.part.hbond>
-4.0000

> <Gold.PLP.part.metal>
0.0000

> <Gold.PLP.part.buried>
-6.3170

> <Gold.PLP.part.nonpolar>
-22.3428

> <Gold.PLP.part.repulsive>
0.1070

> <Gold.PLP.ligand.clash>
0.0000

> <Gold.PLP.ligand.torsion>
0.3393

> <Gold.PLP.Chemscore.Hbond>
4.7675

> <Gold.PLP.Chemscore.CHOScore>
1.0000

> <Gold.PLP.Chemscore.Metal>
0.0000

> <Gold.Chemscore.Hbonds>
donor molecule, donor type, donor heavy atom, donor atom, acceptor molecule, acceptor atom, score
      L1  H     2    42       P1 10957  1.76
      L1  H     7    30       P1  7948  0.96
      L1  H    10    31       P1  7948  0.90
      P1  H  7989  7998       L1    16  1.00
      L1  C    15    37       P1  7957  1.00

> <Gold.PLP.Chemscore.Internal.Correction>
0.0211

> <Gold.Rescore>
     Score         DG    S(hbond)    S(metal)    S(lipo)     H(rot)  DE(clash)    DE(int)     intcor
     18.87     -19.40       2.78        0.00      73.63       1.56       0.21       0.32       ----

> <Gold.Chemscore.Fitness>
18.8729

> <Gold.Chemscore.DG>
-19.4035

> <Gold.Chemscore.ZeroCoef>
-5.4800

> <Gold.Chemscore.Hbond>
2.7846

> <Gold.Chemscore.Metal>
0.0000

> <Gold.Chemscore.Lipo>
73.6264

> <Gold.Chemscore.Internal_Hbond>
0.0000

> <Gold.Chemscore.DEClash>
0.2092

> <Gold.Chemscore.DEInternal>
0.3214

> <Gold.Chemscore.Rot>
1.5592

> <Gold.Chemscore.Internal.Correction>
   9.000000E+99

> <Gold.Chemscore.Hbonds>
donor molecule, donor type, donor heavy atom, donor atom, acceptor molecule, acceptor atom, score
      L1  H     2    42       P1 10957  0.60
      L1  H     7    30       P1  7948  0.78
      L1  H    10    31       P1  7948  0.18
      P1  H  7989  7998       L1    16  0.48

> <Gold.Chemscore.Hbond.Weighted>
-9.3007

> <Gold.Chemscore.Metal.Weighted>
-0.0000

> <Gold.Chemscore.Lipo.Weighted>
-8.6143

> <Gold.Chemscore.Internal_Hbond.Weighted>
0.0000

> <Gold.Chemscore.DEClash.Weighted>
0.2092

> <Gold.Chemscore.DEInternal.Weighted>
0.3214

> <Gold.Chemscore.Rot.Weighted>
3.9915

> <Gold.Chemscore.Internal.Correction.Weighted>
   9.000000E+99

> <Gold.Protein.RotatedTorsions>
[ 6907 6896 6895 6894 ] final  -95.53 input  -60.11 | X-H torsion
[ 7974 7965 7964 7962 ] final -103.54 input  175.53 | X-H torsion
[ 8008 7997 7996 7995 ] final  -46.94 input   59.86 | X-H torsion
[ 10167 10162 10161 10158 ] final  -10.19 input  -65.29 | X-H torsion
[ 10718 10713 10712 10709 ] final  174.71 input   66.30 | X-H torsion
[ 10763 10752 10751 10750 ] final  142.44 input  -60.55 | X-H torsion
[ 11005 11000 10999 10996 ] final -157.87 input  -57.11 | X-H torsion

> <Gold.Protein.ActiveResidues>
 VAL166  LYS551  ARG553  GLY616  TRP617  ASP618  TYR619  PRO620  LYS621  CYS622 
 ASP623  PHE694  ASN695  SER759  ASP760  ASP761  ALA762  ILE779  LEU786  VAL792 
 PHE793  MET794  SER795  GLU796  ALA797  LYS798  CYS799  TRP800  GLU811  SER814 

> <Gold.Protein.RotatedAtoms>
  150.6966  134.1644  159.4188 H   0  0  0  0  0  0  0  0  0  0  0  0  # atno 6907 bound_to 6896
  151.9624  135.0115  160.0557 H   0  0  0  0  0  0  0  0  0  0  0  0  # atno 6908 bound_to 6896
  152.1915  133.4741  159.5047 H   0  0  0  0  0  0  0  0  0  0  0  0  # atno 6909 bound_to 6896
  145.2546  140.9249  143.3075 H   0  0  0  0  0  0  0  0  0  0  0  0  # atno 7974 bound_to 7965
  154.4012  140.1359  156.4094 H   0  0  0  0  0  0  0  0  0  0  0  0  # atno 8008 bound_to 7997
  155.7748  140.3483  155.5246 H   0  0  0  0  0  0  0  0  0  0  0  0  # atno 8009 bound_to 7997
  155.8731  140.0975  157.1527 H   0  0  0  0  0  0  0  0  0  0  0  0  # atno 8010 bound_to 7997
  140.7107  143.5775  150.9027 H   0  0  0  0  0  0  0  0  0  0  0  0  # atno 10167 bound_to 10162
  156.9456  131.0015  151.2959 H   0  0  0  0  0  0  0  0  0  0  0  0  # atno 10718 bound_to 10713
  153.9558  135.2965  155.3436 H   0  0  0  0  0  0  0  0  0  0  0  0  # atno 10763 bound_to 10752
  154.7402  135.5028  153.9112 H   0  0  0  0  0  0  0  0  0  0  0  0  # atno 10764 bound_to 10752
  153.0971  135.6724  153.9852 H   0  0  0  0  0  0  0  0  0  0  0  0  # atno 10765 bound_to 10752
  140.6599  134.4361  157.5234 H   0  0  0  0  0  0  0  0  0  0  0  0  # atno 11005 bound_to 11000
  144.9472  139.4123  143.6420 LP  0  0  0  0  0  0  0  0  0  0  0  0  # atno 17320 bound_to 7965
  146.3293  139.8461  142.8881 LP  0  0  0  0  0  0  0  0  0  0  0  0  # atno 17321 bound_to 7965
  139.9501  143.6282  152.3031 LP  0  0  0  0  0  0  0  0  0  0  0  0  # atno 17342 bound_to 10162
  139.6798  144.7656  151.1630 LP  0  0  0  0  0  0  0  0  0  0  0  0  # atno 17343 bound_to 10162
  157.5756  130.8340  149.8451 LP  0  0  0  0  0  0  0  0  0  0  0  0  # atno 17370 bound_to 10713
  156.0385  130.3745  150.1497 LP  0  0  0  0  0  0  0  0  0  0  0  0  # atno 17371 bound_to 10713
  139.9016  134.8542  156.1870 LP  0  0  0  0  0  0  0  0  0  0  0  0  # atno 17394 bound_to 11000
  141.0473  133.6906  156.1707 LP  0  0  0  0  0  0  0  0  0  0  0  0  # atno 17395 bound_to 11000

$$$$
