AV-unprocessed.smi:1556|AV-procd|sdf|6269|dock5
  -GOLD-   22720 6463D 1   1.00000     0.00000
 Structure written by MMmdl.
 37 38  0  0  0  0  0  0  0  0  1 V2000
  144.4476  132.4703  149.4096 C   0  0  0  0  0  0  0  0  0  0  0  0
  145.2265  132.8531  150.5677 N   0  0  0  0  0  0  0  0  0  0  0  0
  145.6594  132.0647  151.6117 C   0  0  0  0  0  0  0  0  0  0  0  0
  146.3927  132.8585  152.4481 C   0  0  0  0  0  0  0  0  0  0  0  0
  147.1246  132.4717  153.7073 C   0  0  0  0  0  0  0  0  0  0  0  0
  148.6225  132.8340  153.6564 C   0  0  0  0  0  0  0  0  0  0  0  0
  148.8459  134.2758  153.6922 N   0  0  0  0  0  0  0  0  0  0  0  0
  149.4555  134.9409  154.6867 C   0  0  0  0  0  0  0  0  0  0  0  0
  149.7958  134.4152  155.7446 O   0  0  0  0  0  0  0  0  0  0  0  0
  149.6831  136.2424  154.4339 N   0  0  0  0  0  0  0  0  0  0  0  0
  150.3219  137.2349  155.3011 C   0  0  1  0  0  0  0  0  0  0  0  0
  151.6129  136.6679  155.9211 C   0  0  0  0  0  0  0  0  0  0  0  0
  152.4290  137.8252  156.5085 C   0  0  0  0  0  0  0  0  0  0  0  0
  152.0897  139.2754  155.4416 S   0  0  0  0  0  0  0  0  0  0  0  0
  151.5948  140.3797  156.2772 O   0  0  0  0  0  0  0  0  0  0  0  0
  153.2087  139.4740  154.5081 O   0  0  0  0  0  0  0  0  0  0  0  0
  150.6903  138.5193  154.5360 C   0  0  0  0  0  0  0  0  0  0  0  0
  146.3281  134.1393  151.8290 C   0  0  0  0  0  0  0  0  0  0  0  0
  145.6345  134.1315  150.7024 N   0  0  0  0  0  0  0  0  0  0  0  0
  144.0611  131.4588  149.5371 H   0  0  0  0  0  0  0  0  0  0  0  0
  145.0772  132.4991  148.5197 H   0  0  0  0  0  0  0  0  0  0  0  0
  143.6099  133.1562  149.2803 H   0  0  0  0  0  0  0  0  0  0  0  0
  145.4325  131.0101  151.6624 H   0  0  0  0  0  0  0  0  0  0  0  0
  146.6726  132.9486  154.5771 H   0  0  0  0  0  0  0  0  0  0  0  0
  147.0293  131.3995  153.8836 H   0  0  0  0  0  0  0  0  0  0  0  0
  149.1258  132.4097  154.5255 H   0  0  0  0  0  0  0  0  0  0  0  0
  149.0971  132.3920  152.7789 H   0  0  0  0  0  0  0  0  0  0  0  0
  148.5883  134.7943  152.8650 H   0  0  0  0  0  0  0  0  0  0  0  0
  149.3350  136.5925  153.5527 H   0  0  0  0  0  0  0  0  0  0  0  0
  149.6483  137.4931  156.1202 H   0  0  0  0  0  0  0  0  0  0  0  0
  151.4016  135.9062  156.6725 H   0  0  0  0  0  0  0  0  0  0  0  0
  152.2055  136.1885  155.1403 H   0  0  0  0  0  0  0  0  0  0  0  0
  152.0894  138.0632  157.5167 H   0  0  0  0  0  0  0  0  0  0  0  0
  153.4993  137.6209  156.5401 H   0  0  0  0  0  0  0  0  0  0  0  0
  151.0321  138.2962  153.5249 H   0  0  0  0  0  0  0  0  0  0  0  0
  149.8665  139.2303  154.4760 H   0  0  0  0  0  0  0  0  0  0  0  0
  146.7768  135.0658  152.1559 H   0  0  0  0  0  0  0  0  0  0  0  0
  1  2  1  0  0  0  0
  1 20  1  0  0  0  0
  1 21  1  0  0  0  0
  1 22  1  0  0  0  0
  2 19  1  0  0  0  0
  2  3  1  0  0  0  0
  3  4  2  0  0  0  0
  3 23  1  0  0  0  0
  4  5  1  0  0  0  0
  4 18  1  0  0  0  0
  5  6  1  0  0  0  0
  5 24  1  0  0  0  0
  5 25  1  0  0  0  0
  6  7  1  0  0  0  0
  6 26  1  0  0  0  0
  6 27  1  0  0  0  0
  7  8  1  0  0  0  0
  7 28  1  0  0  0  0
  8  9  2  0  0  0  0
  8 10  1  0  0  0  0
 10 11  1  0  0  0  0
 10 29  1  0  0  0  0
 11 17  1  0  0  0  0
 11 12  1  0  0  0  0
 11 30  1  0  0  0  0
 12 13  1  0  0  0  0
 12 31  1  0  0  0  0
 12 32  1  0  0  0  0
 13 14  1  0  0  0  0
 13 33  1  0  0  0  0
 13 34  1  0  0  0  0
 14 15  2  0  0  0  0
 14 16  2  0  0  0  0
 14 17  1  0  0  0  0
 17 35  1  0  0  0  0
 17 36  1  0  0  0  0
 18 19  2  0  0  0  0
 18 37  1  0  0  0  0
M  END
> <s_m_source_file>
AV-unprocessed.smi

> <i_m_source_file_index>
1556

> <i_lp_mmshare_version>
43012

> <i_f3d_flags>
0

> <s_epik_input>
W0NIM11uMVtjSF1jKFtjSF1uMSlbQ0gyXVtDSDJdW05IXUMoPU8pW05IXVtDQEBIXShbQ0gyXTIpW0NIMl1bQ0gyXVMyKD1PKT1P

> <s_epik_cmdline>
J2VwaWtfcHl0aG9uJywgJy1waCcsICc3LjAnLCAnLXRuJywgJzgnLCAnLW1hJywgJzIwMCcsICctbWV0YWxfYmluZGluZycsICctaW1hZScsICc8aW5maWxlLm1hZT4nLCAnLW9tYWUnLCAnPG91dGZpbGUubWFlPic=

> <r_lp_tautomer_probability>
1

> <r_epik_Ionization_Penalty>
0.000530192

> <r_epik_Ionization_Penalty_Charging>
0

> <r_epik_Ionization_Penalty_Neutral>
0.000530192

> <r_epik_State_Penalty>
-0

> <r_epik_Charging_Adjusted_Penalty>
0

> <i_epik_Tot_Q>
0

> <i_epik_Tot_abs_Q>
0

> <r_epik_Metal_State_Penalty>
-0

> <b_epik_Metal_Only>
0

> <s_lp_Force_Field>
OPLS_2005

> <r_lp_Energy>
7.70197

> <b_lp_Chiralities_Consistent>
1

> <s_lp_Variant>
AV-unprocessed.smi:1556-2

> <Gold.Version>
5.8.1

> <Gold.Id.Protein>
6NUR|6NUR_protein|mol2

> <Gold.PLP.Fitness>
42.4227

> <Gold.PLP.PLP>
-31.1428

> <Gold.PLP.part.hbond>
-4.0000

> <Gold.PLP.part.metal>
0.0000

> <Gold.PLP.part.buried>
-4.3928

> <Gold.PLP.part.nonpolar>
-22.9683

> <Gold.PLP.part.repulsive>
0.6163

> <Gold.PLP.ligand.clash>
0.0000

> <Gold.PLP.ligand.torsion>
0.2170

> <Gold.PLP.Chemscore.Hbond>
2.9026

> <Gold.PLP.Chemscore.CHOScore>
1.0000

> <Gold.PLP.Chemscore.Metal>
0.0000

> <Gold.Chemscore.Hbonds>
donor molecule, donor type, donor heavy atom, donor atom, acceptor molecule, acceptor atom, score
      L1  H     7    28       P1  7948  0.90
      L1  H    10    29       P1  7948  0.93
      P1  H  7989  7998       L1    16  0.01
      P1  H  7997  8010       L1    16  1.00
      L1  C    18    37       P1  7948  1.00

> <Gold.PLP.Chemscore.Internal.Correction>
0.0060

> <Gold.Rescore>
     Score         DG    S(hbond)    S(metal)    S(lipo)     H(rot)  DE(clash)    DE(int)     intcor
     14.17     -15.46       2.46        0.00      54.91       1.82       0.01       1.28       ----

> <Gold.Chemscore.Fitness>
14.1729

> <Gold.Chemscore.DG>
-15.4638

> <Gold.Chemscore.ZeroCoef>
-5.4800

> <Gold.Chemscore.Hbond>
2.4620

> <Gold.Chemscore.Metal>
0.0000

> <Gold.Chemscore.Lipo>
54.9149

> <Gold.Chemscore.Internal_Hbond>
0.0000

> <Gold.Chemscore.DEClash>
0.0108

> <Gold.Chemscore.DEInternal>
1.2802

> <Gold.Chemscore.Rot>
1.8220

> <Gold.Chemscore.Internal.Correction>
   9.000000E+99

> <Gold.Chemscore.Hbonds>
donor molecule, donor type, donor heavy atom, donor atom, acceptor molecule, acceptor atom, score
      L1  H     7    28       P1  7948  0.26
      L1  H    10    29       P1  7948  0.81
      P1  H  7997  8010       L1    16  0.25

> <Gold.Chemscore.Hbond.Weighted>
-8.2230

> <Gold.Chemscore.Metal.Weighted>
-0.0000

> <Gold.Chemscore.Lipo.Weighted>
-6.4250

> <Gold.Chemscore.Internal_Hbond.Weighted>
0.0000

> <Gold.Chemscore.DEClash.Weighted>
0.0108

> <Gold.Chemscore.DEInternal.Weighted>
1.2802

> <Gold.Chemscore.Rot.Weighted>
4.6642

> <Gold.Chemscore.Internal.Correction.Weighted>
   9.000000E+99

> <Gold.Protein.RotatedTorsions>
[ 6907 6896 6895 6894 ] final -100.73 input  -60.11 | X-H torsion
[ 7974 7965 7964 7962 ] final  124.23 input  175.53 | X-H torsion
[ 8008 7997 7996 7995 ] final  114.97 input   59.86 | X-H torsion
[ 10167 10162 10161 10158 ] final  -11.78 input  -65.29 | X-H torsion
[ 10718 10713 10712 10709 ] final  139.74 input   66.30 | X-H torsion
[ 10763 10752 10751 10750 ] final   77.13 input  -60.55 | X-H torsion
[ 11005 11000 10999 10996 ] final -142.89 input  -57.11 | X-H torsion

> <Gold.Protein.ActiveResidues>
 VAL166  LYS551  ARG553  GLY616  TRP617  ASP618  TYR619  PRO620  LYS621  CYS622 
 ASP623  PHE694  ASN695  SER759  ASP760  ASP761  ALA762  ILE779  LEU786  VAL792 
 PHE793  MET794  SER795  GLU796  ALA797  LYS798  CYS799  TRP800  GLU811  SER814 

> <Gold.Protein.RotatedAtoms>
  150.7127  134.0843  159.3908 H   0  0  0  0  0  0  0  0  0  0  0  0  # atno 6907 bound_to 6896
  151.8827  135.0445  160.0499 H   0  0  0  0  0  0  0  0  0  0  0  0  # atno 6908 bound_to 6896
  152.2555  133.5216  159.5387 H   0  0  0  0  0  0  0  0  0  0  0  0  # atno 6909 bound_to 6896
  145.0868  139.3616  143.4881 H   0  0  0  0  0  0  0  0  0  0  0  0  # atno 7974 bound_to 7965
  156.2353  140.2948  156.0297 H   0  0  0  0  0  0  0  0  0  0  0  0  # atno 8008 bound_to 7997
  155.2108  140.0412  157.2950 H   0  0  0  0  0  0  0  0  0  0  0  0  # atno 8009 bound_to 7997
  154.6068  140.2441  155.7727 H   0  0  0  0  0  0  0  0  0  0  0  0  # atno 8010 bound_to 7997
  140.7146  143.5603  150.9203 H   0  0  0  0  0  0  0  0  0  0  0  0  # atno 10167 bound_to 10162
  157.4110  131.1028  151.0454 H   0  0  0  0  0  0  0  0  0  0  0  0  # atno 10718 bound_to 10713
  153.0776  135.4925  154.8436 H   0  0  0  0  0  0  0  0  0  0  0  0  # atno 10763 bound_to 10752
  154.7108  135.3019  154.9202 H   0  0  0  0  0  0  0  0  0  0  0  0  # atno 10764 bound_to 10752
  153.9896  135.6779  153.4806 H   0  0  0  0  0  0  0  0  0  0  0  0  # atno 10765 bound_to 10752
  140.8179  134.2666  157.4913 H   0  0  0  0  0  0  0  0  0  0  0  0  # atno 11005 bound_to 11000
  146.3531  140.0684  142.8625 LP  0  0  0  0  0  0  0  0  0  0  0  0  # atno 17320 bound_to 7965
  145.1113  140.9406  143.4655 LP  0  0  0  0  0  0  0  0  0  0  0  0  # atno 17321 bound_to 7965
  139.9328  143.6473  152.3072 LP  0  0  0  0  0  0  0  0  0  0  0  0  # atno 17342 bound_to 10162
  139.6930  144.7644  151.1406 LP  0  0  0  0  0  0  0  0  0  0  0  0  # atno 17343 bound_to 10162
  157.1418  130.6146  149.5557 LP  0  0  0  0  0  0  0  0  0  0  0  0  # atno 17370 bound_to 10713
  155.9851  130.4879  150.7013 LP  0  0  0  0  0  0  0  0  0  0  0  0  # atno 17371 bound_to 10713
  139.8710  134.9519  156.4100 LP  0  0  0  0  0  0  0  0  0  0  0  0  # atno 17394 bound_to 11000
  140.9129  133.7699  155.9813 LP  0  0  0  0  0  0  0  0  0  0  0  0  # atno 17395 bound_to 11000

$$$$
