AV-unprocessed.smi:3115|AV-procd|sdf|11860|dock4
  -GOLD-   2272017243D 1   1.00000     0.00000
 Structure written by MMmdl.
 32 33  0  0  0  0  0  0  0  0  1 V2000
  152.0113  144.2240  161.0406 C   0  0  0  0  0  0  0  0  0  0  0  0
  152.6126  143.1256  160.1575 C   0  0  2  0  0  0  0  0  0  0  0  0
  151.6508  142.6955  159.0323 C   0  0  0  0  0  0  0  0  0  0  0  0
  152.2235  141.5860  158.2798 N   0  0  0  0  0  0  0  0  0  0  0  0
  151.4614  141.2134  157.1634 C   0  0  0  0  0  0  0  0  0  0  0  0
  151.8504  140.0808  156.4170 C   0  0  0  0  0  0  0  0  0  0  0  0
  151.0792  139.7086  155.2972 C   0  0  0  0  0  0  0  0  0  0  0  0
  151.4616  138.5057  154.4606 C   0  0  0  0  0  0  0  0  0  0  0  0
  150.5117  138.2537  153.3964 N   0  0  0  0  0  0  0  0  0  0  0  0
  149.9527  140.4864  154.9631 C   0  0  0  0  0  0  0  0  0  0  0  0
  149.6449  141.5994  155.7693 C   0  0  0  0  0  0  0  0  0  0  0  0
  150.3763  141.9600  156.8453 N   0  0  0  0  0  0  0  0  0  0  0  0
  152.5860  140.4636  159.1357 C   0  0  0  0  0  0  0  0  0  0  0  0
  153.5250  140.9413  160.2560 C   0  0  0  0  0  0  0  0  0  0  0  0
  152.9027  141.9981  160.9814 O   0  0  0  0  0  0  0  0  0  0  0  0
  151.7814  145.1155  160.4565 H   0  0  0  0  0  0  0  0  0  0  0  0
  152.7057  144.5135  161.8296 H   0  0  0  0  0  0  0  0  0  0  0  0
  151.0891  143.8875  161.5153 H   0  0  0  0  0  0  0  0  0  0  0  0
  153.5422  143.4981  159.7230 H   0  0  0  0  0  0  0  0  0  0  0  0
  150.6911  142.3963  159.4564 H   0  0  0  0  0  0  0  0  0  0  0  0
  151.4596  143.5332  158.3602 H   0  0  0  0  0  0  0  0  0  0  0  0
  152.7235  139.5094  156.6973 H   0  0  0  0  0  0  0  0  0  0  0  0
  152.4537  138.6472  154.0311 H   0  0  0  0  0  0  0  0  0  0  0  0
  151.5151  137.6255  155.1019 H   0  0  0  0  0  0  0  0  0  0  0  0
  150.4695  139.0532  152.7809 H   0  0  0  0  0  0  0  0  0  0  0  0
  150.8299  137.4737  152.8389 H   0  0  0  0  0  0  0  0  0  0  0  0
  149.3380  140.2379  154.1104 H   0  0  0  0  0  0  0  0  0  0  0  0
  148.7886  142.2174  155.5437 H   0  0  0  0  0  0  0  0  0  0  0  0
  151.6868  140.0241  159.5701 H   0  0  0  0  0  0  0  0  0  0  0  0
  153.0720  139.6875  158.5433 H   0  0  0  0  0  0  0  0  0  0  0  0
  153.7424  140.1206  160.9397 H   0  0  0  0  0  0  0  0  0  0  0  0
  154.4791  141.2784  159.8476 H   0  0  0  0  0  0  0  0  0  0  0  0
  1  2  1  0  0  0  0
  1 16  1  0  0  0  0
  1 17  1  0  0  0  0
  1 18  1  0  0  0  0
  2 15  1  0  0  0  0
  2  3  1  0  0  0  0
  2 19  1  0  0  0  0
  3  4  1  0  0  0  0
  3 20  1  0  0  0  0
  3 21  1  0  0  0  0
  4  5  1  0  0  0  0
  4 13  1  0  0  0  0
  5 12  1  0  0  0  0
  5  6  2  0  0  0  0
  6  7  1  0  0  0  0
  6 22  1  0  0  0  0
  7  8  1  0  0  0  0
  7 10  2  0  0  0  0
  8  9  1  0  0  0  0
  8 23  1  0  0  0  0
  8 24  1  0  0  0  0
  9 25  1  0  0  0  0
  9 26  1  0  0  0  0
 10 11  1  0  0  0  0
 10 27  1  0  0  0  0
 11 12  2  0  0  0  0
 11 28  1  0  0  0  0
 13 14  1  0  0  0  0
 13 29  1  0  0  0  0
 13 30  1  0  0  0  0
 14 15  1  0  0  0  0
 14 31  1  0  0  0  0
 14 32  1  0  0  0  0
M  END
> <s_m_source_file>
AV-unprocessed.smi

> <i_m_source_file_index>
3115

> <i_lp_mmshare_version>
43012

> <i_f3d_flags>
0

> <s_epik_input>
W0NIM11bQ0BASF0xW0NIMl1OKFtDSDJdW0NIMl1PMSljMltjSF1jKFtDSDJdW05IMl0pW2NIXVtjSF1uMg==

> <s_epik_cmdline>
J2VwaWtfcHl0aG9uJywgJy1waCcsICc3LjAnLCAnLXRuJywgJzgnLCAnLW1hJywgJzIwMCcsICctbWV0YWxfYmluZGluZycsICctaW1hZScsICc8aW5maWxlLm1hZT4nLCAnLW9tYWUnLCAnPG91dGZpbGUubWFlPic=

> <r_lp_tautomer_probability>
1

> <r_epik_Ionization_Penalty>
1.27341

> <r_epik_Ionization_Penalty_Charging>
0

> <r_epik_Ionization_Penalty_Neutral>
1.27341

> <r_epik_State_Penalty>
2.46834

> <r_epik_Charging_Adjusted_Penalty>
2.46834

> <i_epik_Tot_Q>
0

> <i_epik_Tot_abs_Q>
0

> <r_epik_Metal_State_Penalty>
2.44319

> <b_epik_Metal_Only>
0

> <s_lp_Force_Field>
OPLS_2005

> <r_lp_Energy>
17.2418

> <b_lp_Chiralities_Consistent>
1

> <s_lp_Variant>
AV-unprocessed.smi:3115-3

> <Gold.Version>
5.8.1

> <Gold.Id.Protein>
6NUR|6NUR_protein|mol2

> <Gold.PLP.Fitness>
39.6406

> <Gold.PLP.PLP>
-32.3091

> <Gold.PLP.part.hbond>
-3.0000

> <Gold.PLP.part.metal>
0.0000

> <Gold.PLP.part.buried>
-1.4311

> <Gold.PLP.part.nonpolar>
-27.5948

> <Gold.PLP.part.repulsive>
0.1181

> <Gold.PLP.ligand.clash>
0.0000

> <Gold.PLP.ligand.torsion>
0.2266

> <Gold.PLP.Chemscore.Hbond>
1.7100

> <Gold.PLP.Chemscore.CHOScore>
0.8516

> <Gold.PLP.Chemscore.Metal>
0.0000

> <Gold.Chemscore.Hbonds>
donor molecule, donor type, donor heavy atom, donor atom, acceptor molecule, acceptor atom, score
      L1  H     9    25       P1  7957  0.93
      L1  H     9    26       P1  7949  0.80
      L1  C    11    28       P1  8028  0.85

> <Gold.PLP.Chemscore.Internal.Correction>
0.1000

> <Gold.Rescore>
     Score         DG    S(hbond)    S(metal)    S(lipo)     H(rot)  DE(clash)    DE(int)     intcor
     17.80     -18.15       1.96        0.00      80.38       1.28       0.05       0.30       ----

> <Gold.Chemscore.Fitness>
17.7977

> <Gold.Chemscore.DG>
-18.1488

> <Gold.Chemscore.ZeroCoef>
-5.4800

> <Gold.Chemscore.Hbond>
1.9556

> <Gold.Chemscore.Metal>
0.0000

> <Gold.Chemscore.Lipo>
80.3790

> <Gold.Chemscore.Internal_Hbond>
0.0000

> <Gold.Chemscore.DEClash>
0.0529

> <Gold.Chemscore.DEInternal>
0.2983

> <Gold.Chemscore.Rot>
1.2762

> <Gold.Chemscore.Internal.Correction>
   9.000000E+99

> <Gold.Chemscore.Hbonds>
donor molecule, donor type, donor heavy atom, donor atom, acceptor molecule, acceptor atom, score
      L1  H     9    25       P1  7957  0.37
      L1  H     9    26       P1  7949  0.11

> <Gold.Chemscore.Hbond.Weighted>
-6.5315

> <Gold.Chemscore.Metal.Weighted>
-0.0000

> <Gold.Chemscore.Lipo.Weighted>
-9.4043

> <Gold.Chemscore.Internal_Hbond.Weighted>
0.0000

> <Gold.Chemscore.DEClash.Weighted>
0.0529

> <Gold.Chemscore.DEInternal.Weighted>
0.2983

> <Gold.Chemscore.Rot.Weighted>
3.2671

> <Gold.Chemscore.Internal.Correction.Weighted>
   9.000000E+99

> <Gold.Protein.RotatedTorsions>
[ 6907 6896 6895 6894 ] final -147.31 input  -60.11 | X-H torsion
[ 7974 7965 7964 7962 ] final   37.72 input  175.53 | X-H torsion
[ 8008 7997 7996 7995 ] final   73.01 input   59.86 | X-H torsion
[ 10167 10162 10161 10158 ] final   16.49 input  -65.29 | X-H torsion
[ 10718 10713 10712 10709 ] final -114.72 input   66.30 | X-H torsion
[ 10763 10752 10751 10750 ] final  113.95 input  -60.55 | X-H torsion
[ 11005 11000 10999 10996 ] final  168.11 input  -57.11 | X-H torsion

> <Gold.Protein.ActiveResidues>
 VAL166  LYS551  ARG553  GLY616  TRP617  ASP618  TYR619  PRO620  LYS621  CYS622 
 ASP623  PHE694  ASN695  SER759  ASP760  ASP761  ALA762  ILE779  LEU786  VAL792 
 PHE793  MET794  SER795  GLU796  ALA797  LYS798  CYS799  TRP800  GLU811  SER814 

> <Gold.Protein.RotatedAtoms>
  151.1539  133.4889  159.2594 H   0  0  0  0  0  0  0  0  0  0  0  0  # atno 6907 bound_to 6896
  151.1525  135.0234  159.8684 H   0  0  0  0  0  0  0  0  0  0  0  0  # atno 6908 bound_to 6896
  152.5463  134.1422  159.8536 H   0  0  0  0  0  0  0  0  0  0  0  0  # atno 6909 bound_to 6896
  146.1116  139.5859  142.9348 H   0  0  0  0  0  0  0  0  0  0  0  0  # atno 7974 bound_to 7965
  155.7773  140.3483  155.5278 H   0  0  0  0  0  0  0  0  0  0  0  0  # atno 8008 bound_to 7997
  155.8763  140.0995  157.1536 H   0  0  0  0  0  0  0  0  0  0  0  0  # atno 8009 bound_to 7997
  154.4021  140.1331  156.4128 H   0  0  0  0  0  0  0  0  0  0  0  0  # atno 8010 bound_to 7997
  140.5793  143.9011  150.6776 H   0  0  0  0  0  0  0  0  0  0  0  0  # atno 10167 bound_to 10162
  156.0848  130.6042  150.8812 H   0  0  0  0  0  0  0  0  0  0  0  0  # atno 10718 bound_to 10713
  153.5001  135.3640  155.2535 H   0  0  0  0  0  0  0  0  0  0  0  0  # atno 10763 bound_to 10752
  154.8748  135.3998  154.3489 H   0  0  0  0  0  0  0  0  0  0  0  0  # atno 10764 bound_to 10752
  153.4123  135.7078  153.6417 H   0  0  0  0  0  0  0  0  0  0  0  0  # atno 10765 bound_to 10752
  140.2838  134.7728  157.3781 H   0  0  0  0  0  0  0  0  0  0  0  0  # atno 11005 bound_to 11000
  145.5651  141.0400  143.2204 LP  0  0  0  0  0  0  0  0  0  0  0  0  # atno 17320 bound_to 7965
  144.7517  139.7178  143.7270 LP  0  0  0  0  0  0  0  0  0  0  0  0  # atno 17321 bound_to 7965
  140.2506  143.3596  152.1409 LP  0  0  0  0  0  0  0  0  0  0  0  0  # atno 17342 bound_to 10162
  139.5161  144.6972  151.5596 LP  0  0  0  0  0  0  0  0  0  0  0  0  # atno 17343 bound_to 10162
  157.5979  131.0942  150.9010 LP  0  0  0  0  0  0  0  0  0  0  0  0  # atno 17370 bound_to 10713
  156.9173  130.5302  149.5279 LP  0  0  0  0  0  0  0  0  0  0  0  0  # atno 17371 bound_to 10713
  140.1258  134.5160  155.8146 LP  0  0  0  0  0  0  0  0  0  0  0  0  # atno 17394 bound_to 11000
  141.2158  133.6772  156.6949 LP  0  0  0  0  0  0  0  0  0  0  0  0  # atno 17395 bound_to 11000

$$$$
