AV-unprocessed.smi:800|AV-procd|sdf|3787|dock2
  -GOLD-   22720 1223D 1   1.00000     0.00000
 Structure written by MMmdl.
 36 37  0  0  0  0  0  0  0  0  1 V2000
  146.2944  143.1826  154.7726 C   0  0  0  0  0  0  0  0  0  0  0  0
  147.4504  142.5099  154.0210 C   0  0  0  0  0  0  0  0  0  0  0  0
  146.9631  141.3222  153.1766 C   0  0  0  0  0  0  0  0  0  0  0  0
  148.4609  142.0726  154.9786 N   0  0  0  0  0  0  0  0  0  0  0  0
  149.5154  141.2898  154.6982 C   0  0  0  0  0  0  0  0  0  0  0  0
  149.7764  140.8742  153.5687 O   0  0  0  0  0  0  0  0  0  0  0  0
  150.4322  141.0007  155.8519 C   0  0  0  0  0  0  0  0  0  0  0  0
  150.6678  142.0262  156.7022 N   0  0  0  0  0  0  0  0  0  0  0  0
  151.4828  141.8225  157.7446 C   0  0  0  0  0  0  0  0  0  0  0  0
  151.7073  142.8996  158.6119 N   0  0  0  0  0  0  0  0  0  0  0  0
  152.4216  142.7400  159.8813 C   0  0  0  0  0  0  0  0  0  0  0  0
  151.8908  143.7259  160.9357 C   0  0  0  0  0  0  0  0  0  0  0  0
  151.9640  145.0546  160.4340 O   0  0  0  0  0  0  0  0  0  0  0  0
  151.1603  145.2187  159.2724 C   0  0  0  0  0  0  0  0  0  0  0  0
  151.6645  144.2907  158.1544 C   0  0  0  0  0  0  0  0  0  0  0  0
  152.0996  140.6659  158.0158 N   0  0  0  0  0  0  0  0  0  0  0  0
  151.8922  139.6310  157.1756 C   0  0  0  0  0  0  0  0  0  0  0  0
  151.0541  139.7402  156.0492 C   0  0  0  0  0  0  0  0  0  0  0  0
  150.8642  138.3884  154.9845 Cl  0  0  0  0  0  0  0  0  0  0  0  0
  145.5327  143.5416  154.0799 H   0  0  0  0  0  0  0  0  0  0  0  0
  146.6459  144.0404  155.3471 H   0  0  0  0  0  0  0  0  0  0  0  0
  145.8138  142.4909  155.4656 H   0  0  0  0  0  0  0  0  0  0  0  0
  147.8906  143.2536  153.3544 H   0  0  0  0  0  0  0  0  0  0  0  0
  146.2135  141.6398  152.4516 H   0  0  0  0  0  0  0  0  0  0  0  0
  146.5157  140.5480  153.8008 H   0  0  0  0  0  0  0  0  0  0  0  0
  147.7836  140.8676  152.6204 H   0  0  0  0  0  0  0  0  0  0  0  0
  148.3462  142.3795  155.9339 H   0  0  0  0  0  0  0  0  0  0  0  0
  152.3292  141.7312  160.2824 H   0  0  0  0  0  0  0  0  0  0  0  0
  153.4837  142.9142  159.7073 H   0  0  0  0  0  0  0  0  0  0  0  0
  150.8628  143.4841  161.2111 H   0  0  0  0  0  0  0  0  0  0  0  0
  152.4874  143.6580  161.8454 H   0  0  0  0  0  0  0  0  0  0  0  0
  150.1145  145.0130  159.5066 H   0  0  0  0  0  0  0  0  0  0  0  0
  151.2140  146.2581  158.9490 H   0  0  0  0  0  0  0  0  0  0  0  0
  152.6678  144.5870  157.8467 H   0  0  0  0  0  0  0  0  0  0  0  0
  151.0174  144.4193  157.2874 H   0  0  0  0  0  0  0  0  0  0  0  0
  152.4079  138.7093  157.4007 H   0  0  0  0  0  0  0  0  0  0  0  0
  1  2  1  0  0  0  0
  1 20  1  0  0  0  0
  1 21  1  0  0  0  0
  1 22  1  0  0  0  0
  2  3  1  0  0  0  0
  2  4  1  0  0  0  0
  2 23  1  0  0  0  0
  3 24  1  0  0  0  0
  3 25  1  0  0  0  0
  3 26  1  0  0  0  0
  4  5  1  0  0  0  0
  4 27  1  0  0  0  0
  5  6  2  0  0  0  0
  5  7  1  0  0  0  0
  7 18  1  0  0  0  0
  7  8  2  0  0  0  0
  8  9  1  0  0  0  0
  9 10  1  0  0  0  0
  9 16  2  0  0  0  0
 10 15  1  0  0  0  0
 10 11  1  0  0  0  0
 11 12  1  0  0  0  0
 11 28  1  0  0  0  0
 11 29  1  0  0  0  0
 12 13  1  0  0  0  0
 12 30  1  0  0  0  0
 12 31  1  0  0  0  0
 13 14  1  0  0  0  0
 14 15  1  0  0  0  0
 14 32  1  0  0  0  0
 14 33  1  0  0  0  0
 15 34  1  0  0  0  0
 15 35  1  0  0  0  0
 16 17  1  0  0  0  0
 17 18  2  0  0  0  0
 17 36  1  0  0  0  0
 18 19  1  0  0  0  0
M  END
> <s_m_source_file>
AV-unprocessed.smi

> <i_m_source_file_index>
800

> <i_lp_mmshare_version>
43012

> <i_f3d_flags>
0

> <s_epik_input>
W0NIM11bQ0hdKFtDSDNdKVtOSF1DKD1PKWMxbmMobltjSF1jMUNsKU4yW0NIMl1bQ0gyXU9bQ0gyXVtDSDJdMg==

> <s_epik_cmdline>
J2VwaWtfcHl0aG9uJywgJy1waCcsICc3LjAnLCAnLXRuJywgJzgnLCAnLW1hJywgJzIwMCcsICctbWV0YWxfYmluZGluZycsICctaW1hZScsICc8aW5maWxlLm1hZT4nLCAnLW9tYWUnLCAnPG91dGZpbGUubWFlPic=

> <r_lp_tautomer_probability>
1

> <r_epik_Ionization_Penalty>
1.24434e-05

> <r_epik_Ionization_Penalty_Charging>
0

> <r_epik_Ionization_Penalty_Neutral>
1.24434e-05

> <r_epik_State_Penalty>
-0

> <r_epik_Charging_Adjusted_Penalty>
0

> <i_epik_Tot_Q>
0

> <i_epik_Tot_abs_Q>
0

> <r_epik_Metal_State_Penalty>
0.0120585

> <b_epik_Metal_Only>
0

> <s_lp_Force_Field>
OPLS_2005

> <r_lp_Energy>
14.0321

> <b_lp_Chiralities_Consistent>
1

> <s_lp_Variant>
AV-unprocessed.smi:800-1

> <Gold.Version>
5.8.1

> <Gold.Id.Protein>
6NUR|6NUR_protein|mol2

> <Gold.PLP.Fitness>
43.6053

> <Gold.PLP.PLP>
-41.2244

> <Gold.PLP.part.hbond>
-2.8683

> <Gold.PLP.part.metal>
0.0000

> <Gold.PLP.part.buried>
-5.4274

> <Gold.PLP.part.nonpolar>
-36.9316

> <Gold.PLP.part.repulsive>
4.0900

> <Gold.PLP.ligand.clash>
0.0000

> <Gold.PLP.ligand.torsion>
0.9432

> <Gold.PLP.Chemscore.Hbond>
1.3840

> <Gold.PLP.Chemscore.CHOScore>
0.0000

> <Gold.PLP.Chemscore.Metal>
0.0000

> <Gold.Chemscore.Hbonds>
donor molecule, donor type, donor heavy atom, donor atom, acceptor molecule, acceptor atom, score
      P1  H  7989  7998       L1     6  0.35
      P1  H  8011  8017       L1     6  1.00

> <Gold.PLP.Chemscore.Internal.Correction>
0.1154

> <Gold.Rescore>
     Score         DG    S(hbond)    S(metal)    S(lipo)     H(rot)  DE(clash)    DE(int)     intcor
     13.61     -17.30       1.12        0.00      91.03       1.00       1.52       2.18       ----

> <Gold.Chemscore.Fitness>
13.6074

> <Gold.Chemscore.DG>
-17.3034

> <Gold.Chemscore.ZeroCoef>
-5.4800

> <Gold.Chemscore.Hbond>
1.1178

> <Gold.Chemscore.Metal>
0.0000

> <Gold.Chemscore.Lipo>
91.0257

> <Gold.Chemscore.Internal_Hbond>
0.0000

> <Gold.Chemscore.DEClash>
1.5188

> <Gold.Chemscore.DEInternal>
2.1772

> <Gold.Chemscore.Rot>
1.0000

> <Gold.Chemscore.Internal.Correction>
   9.000000E+99

> <Gold.Chemscore.Hbonds>
donor molecule, donor type, donor heavy atom, donor atom, acceptor molecule, acceptor atom, score
      P1  H  7989  7998       L1     6  0.17
      P1  H  8011  8017       L1     6  0.66

> <Gold.Chemscore.Hbond.Weighted>
-3.7334

> <Gold.Chemscore.Metal.Weighted>
-0.0000

> <Gold.Chemscore.Lipo.Weighted>
-10.6500

> <Gold.Chemscore.Internal_Hbond.Weighted>
0.0000

> <Gold.Chemscore.DEClash.Weighted>
1.5188

> <Gold.Chemscore.DEInternal.Weighted>
2.1772

> <Gold.Chemscore.Rot.Weighted>
2.5600

> <Gold.Chemscore.Internal.Correction.Weighted>
   9.000000E+99

> <Gold.Protein.RotatedTorsions>
[ 6907 6896 6895 6894 ] final   22.82 input  -60.11 | X-H torsion
[ 7974 7965 7964 7962 ] final  171.22 input  175.53 | X-H torsion
[ 8008 7997 7996 7995 ] final  149.25 input   59.86 | X-H torsion
[ 10167 10162 10161 10158 ] final  -79.01 input  -65.29 | X-H torsion
[ 10718 10713 10712 10709 ] final  164.40 input   66.30 | X-H torsion
[ 10763 10752 10751 10750 ] final -140.59 input  -60.55 | X-H torsion
[ 11005 11000 10999 10996 ] final -114.52 input  -57.11 | X-H torsion

> <Gold.Protein.ActiveResidues>
 VAL166  LYS551  ARG553  GLY616  TRP617  ASP618  TYR619  PRO620  LYS621  CYS622 
 ASP623  PHE694  ASN695  SER759  ASP760  ASP761  ALA762  ILE779  LEU786  VAL792 
 PHE793  MET794  SER795  GLU796  ALA797  LYS798  CYS799  TRP800  GLU811  SER814 

> <Gold.Protein.RotatedAtoms>
  151.9329  135.0248  160.0530 H   0  0  0  0  0  0  0  0  0  0  0  0  # atno 6907 bound_to 6896
  152.2103  133.4901  159.5115 H   0  0  0  0  0  0  0  0  0  0  0  0  # atno 6908 bound_to 6896
  150.6974  134.1393  159.4141 H   0  0  0  0  0  0  0  0  0  0  0  0  # atno 6909 bound_to 6896
  144.7301  139.9318  143.6425 H   0  0  0  0  0  0  0  0  0  0  0  0  # atno 7974 bound_to 7965
  156.2762  140.2107  156.5827 H   0  0  0  0  0  0  0  0  0  0  0  0  # atno 8008 bound_to 7997
  154.7045  140.0518  157.0514 H   0  0  0  0  0  0  0  0  0  0  0  0  # atno 8009 bound_to 7997
  155.0689  140.3174  155.4640 H   0  0  0  0  0  0  0  0  0  0  0  0  # atno 8010 bound_to 7997
  140.4631  143.2448  151.8318 H   0  0  0  0  0  0  0  0  0  0  0  0  # atno 10167 bound_to 10162
  157.0948  131.0427  151.2522 H   0  0  0  0  0  0  0  0  0  0  0  0  # atno 10718 bound_to 10713
  154.8573  135.3549  154.5732 H   0  0  0  0  0  0  0  0  0  0  0  0  # atno 10763 bound_to 10752
  153.6344  135.7001  153.5268 H   0  0  0  0  0  0  0  0  0  0  0  0  # atno 10764 bound_to 10752
  153.3023  135.4203  155.1222 H   0  0  0  0  0  0  0  0  0  0  0  0  # atno 10765 bound_to 10752
  141.0547  133.9632  157.2775 H   0  0  0  0  0  0  0  0  0  0  0  0  # atno 11005 bound_to 11000
  146.0851  139.3840  143.0440 LP  0  0  0  0  0  0  0  0  0  0  0  0  # atno 17320 bound_to 7965
  145.7787  140.9865  143.1110 LP  0  0  0  0  0  0  0  0  0  0  0  0  # atno 17321 bound_to 7965
  139.4809  144.4983  151.9094 LP  0  0  0  0  0  0  0  0  0  0  0  0  # atno 17342 bound_to 10162
  140.4069  144.2421  150.5890 LP  0  0  0  0  0  0  0  0  0  0  0  0  # atno 17343 bound_to 10162
  157.4690  130.7698  149.7306 LP  0  0  0  0  0  0  0  0  0  0  0  0  # atno 17370 bound_to 10713
  155.9888  130.3956  150.3100 LP  0  0  0  0  0  0  0  0  0  0  0  0  # atno 17371 bound_to 10713
  139.9380  135.0194  156.8617 LP  0  0  0  0  0  0  0  0  0  0  0  0  # atno 17394 bound_to 11000
  140.5988  134.0192  155.7528 LP  0  0  0  0  0  0  0  0  0  0  0  0  # atno 17395 bound_to 11000

$$$$
