AV-unprocessed.smi:1916|AV-procd|sdf|7765|dock6
  -GOLD-   22720 9513D 1   1.00000     0.00000
 Structure written by MMmdl.
 45 47  0  0  0  0  0  0  0  0  1 V2000
  151.1318  137.0951  159.7212 O   0  0  0  0  0  0  0  0  0  0  0  0
  150.8636  137.8563  158.7910 C   0  0  0  0  0  0  0  0  0  0  0  0
  149.6278  137.9968  158.2856 N   0  0  0  0  0  0  0  0  0  0  0  0
  148.4301  137.3142  158.7698 C   0  0  0  0  0  0  0  0  0  0  0  0
  148.7174  135.8696  159.2273 C   0  0  0  0  0  0  0  0  0  0  0  0
  147.8951  135.4324  160.4280 C   0  0  0  0  0  0  0  0  0  0  0  0
  147.8265  136.2345  161.5876 C   0  0  0  0  0  0  0  0  0  0  0  0
  147.0827  135.7626  162.6863 C   0  0  0  0  0  0  0  0  0  0  0  0
  146.4353  134.5167  162.5820 C   0  0  0  0  0  0  0  0  0  0  0  0
  146.5591  133.7958  161.3775 C   0  0  0  0  0  0  0  0  0  0  0  0
  147.2695  134.2388  160.3181 N   0  0  0  0  0  0  0  0  0  0  0  0
  151.9650  138.7217  158.1585 C   0  0  1  0  0  0  0  0  0  0  0  0
  151.5906  139.1352  156.7245 C   0  0  0  0  0  0  0  0  0  0  0  0
  151.2512  140.6108  156.8503 C   0  0  0  0  0  0  0  0  0  0  0  0
  150.7351  141.2502  155.9347 O   0  0  0  0  0  0  0  0  0  0  0  0
  151.5499  141.0765  158.0708 N   0  0  0  0  0  0  0  0  0  0  0  0
  151.2078  142.4202  158.5626 C   0  0  0  0  0  0  0  0  0  0  0  0
  151.6132  143.5898  157.6335 C   0  0  0  0  0  0  0  0  0  0  0  0
  152.3085  144.6148  158.5327 C   0  0  0  0  0  0  0  0  0  0  0  0
  152.9156  143.7868  159.6610 C   0  0  0  0  0  0  0  0  0  0  0  0
  151.8794  142.6945  159.9227 C   0  0  0  0  0  0  0  0  0  0  0  0
  152.1762  140.0556  158.9031 C   0  0  0  0  0  0  0  0  0  0  0  0
  149.5027  138.6439  157.5206 H   0  0  0  0  0  0  0  0  0  0  0  0
  148.0374  137.8867  159.6101 H   0  0  0  0  0  0  0  0  0  0  0  0
  147.6483  137.3211  158.0084 H   0  0  0  0  0  0  0  0  0  0  0  0
  148.5377  135.1809  158.4007 H   0  0  0  0  0  0  0  0  0  0  0  0
  149.7748  135.7704  159.4754 H   0  0  0  0  0  0  0  0  0  0  0  0
  148.3444  137.1807  161.6420 H   0  0  0  0  0  0  0  0  0  0  0  0
  147.0146  136.3435  163.5942 H   0  0  0  0  0  0  0  0  0  0  0  0
  145.8587  134.1221  163.4055 H   0  0  0  0  0  0  0  0  0  0  0  0
  146.0754  132.8371  161.2621 H   0  0  0  0  0  0  0  0  0  0  0  0
  152.8986  138.1561  158.1535 H   0  0  0  0  0  0  0  0  0  0  0  0
  152.4361  139.0142  156.0465 H   0  0  0  0  0  0  0  0  0  0  0  0
  150.7460  138.5799  156.3138 H   0  0  0  0  0  0  0  0  0  0  0  0
  150.1263  142.4703  158.7030 H   0  0  0  0  0  0  0  0  0  0  0  0
  152.3073  143.2899  156.8510 H   0  0  0  0  0  0  0  0  0  0  0  0
  150.7480  144.0235  157.1308 H   0  0  0  0  0  0  0  0  0  0  0  0
  153.0530  145.2054  157.9980 H   0  0  0  0  0  0  0  0  0  0  0  0
  151.5695  145.3044  158.9430 H   0  0  0  0  0  0  0  0  0  0  0  0
  153.8492  143.3343  159.3242 H   0  0  0  0  0  0  0  0  0  0  0  0
  153.1329  144.3807  160.5491 H   0  0  0  0  0  0  0  0  0  0  0  0
  151.1322  143.0647  160.6259 H   0  0  0  0  0  0  0  0  0  0  0  0
  152.3302  141.8082  160.3722 H   0  0  0  0  0  0  0  0  0  0  0  0
  151.7522  140.0531  159.9088 H   0  0  0  0  0  0  0  0  0  0  0  0
  153.2426  140.2658  158.9930 H   0  0  0  0  0  0  0  0  0  0  0  0
  1  2  2  0  0  0  0
  2  3  1  0  0  0  0
  2 12  1  0  0  0  0
  3  4  1  0  0  0  0
  3 23  1  0  0  0  0
  4  5  1  0  0  0  0
  4 24  1  0  0  0  0
  4 25  1  0  0  0  0
  5  6  1  0  0  0  0
  5 26  1  0  0  0  0
  5 27  1  0  0  0  0
  6 11  1  0  0  0  0
  6  7  2  0  0  0  0
  7  8  1  0  0  0  0
  7 28  1  0  0  0  0
  8  9  2  0  0  0  0
  8 29  1  0  0  0  0
  9 10  1  0  0  0  0
  9 30  1  0  0  0  0
 10 11  2  0  0  0  0
 10 31  1  0  0  0  0
 12 22  1  0  0  0  0
 12 13  1  0  0  0  0
 12 32  1  0  0  0  0
 13 14  1  0  0  0  0
 13 33  1  0  0  0  0
 13 34  1  0  0  0  0
 14 15  2  0  0  0  0
 14 16  1  0  0  0  0
 16 17  1  0  0  0  0
 16 22  1  0  0  0  0
 17 21  1  0  0  0  0
 17 18  1  0  0  0  0
 17 35  1  0  0  0  0
 18 19  1  0  0  0  0
 18 36  1  0  0  0  0
 18 37  1  0  0  0  0
 19 20  1  0  0  0  0
 19 38  1  0  0  0  0
 19 39  1  0  0  0  0
 20 21  1  0  0  0  0
 20 40  1  0  0  0  0
 20 41  1  0  0  0  0
 21 42  1  0  0  0  0
 21 43  1  0  0  0  0
 22 44  1  0  0  0  0
 22 45  1  0  0  0  0
M  END
> <s_m_source_file>
AV-unprocessed.smi

> <i_m_source_file_index>
1916

> <i_lp_mmshare_version>
43012

> <i_f3d_flags>
0

> <s_epik_input>
W0NIMl0xW0NIMl1bQ0gyXVtDSDJdW0NIXTFOKFtDSDJdMilDKD1PKVtDSDJdW0NASF0yQyg9TylbTkhdW0NIMl1bQ0gyXWMzW2NIXVtjSF1bY0hdW2NIXW4z

> <s_epik_cmdline>
J2VwaWtfcHl0aG9uJywgJy1waCcsICc3LjAnLCAnLXRuJywgJzgnLCAnLW1hJywgJzIwMCcsICctbWV0YWxfYmluZGluZycsICctaW1hZScsICc8aW5maWxlLm1hZT4nLCAnLW9tYWUnLCAnPG91dGZpbGUubWFlPic=

> <r_epik_Ionization_Penalty>
0.0252359

> <r_epik_Ionization_Penalty_Charging>
0

> <r_epik_Ionization_Penalty_Neutral>
0.0252359

> <r_epik_State_Penalty>
0.020532

> <r_epik_Charging_Adjusted_Penalty>
0.020532

> <i_epik_Tot_Q>
0

> <i_epik_Tot_abs_Q>
0

> <r_epik_Metal_State_Penalty>
0.0196901

> <b_epik_Metal_Only>
0

> <s_lp_Force_Field>
OPLS_2005

> <r_lp_Energy>
33.9945

> <b_lp_Chiralities_Consistent>
1

> <s_lp_Variant>
AV-unprocessed.smi:1916-2

> <Gold.Version>
5.8.1

> <Gold.Id.Protein>
6NUR|6NUR_protein|mol2

> <Gold.PLP.Fitness>
47.6102

> <Gold.PLP.PLP>
-47.4157

> <Gold.PLP.part.hbond>
-1.1127

> <Gold.PLP.part.metal>
0.0000

> <Gold.PLP.part.buried>
-5.8811

> <Gold.PLP.part.nonpolar>
-40.8635

> <Gold.PLP.part.repulsive>
0.1884

> <Gold.PLP.ligand.clash>
0.0000

> <Gold.PLP.ligand.torsion>
1.4341

> <Gold.PLP.Chemscore.Hbond>
0.9913

> <Gold.PLP.Chemscore.CHOScore>
0.0000

> <Gold.PLP.Chemscore.Metal>
0.0000

> <Gold.Chemscore.Hbonds>
donor molecule, donor type, donor heavy atom, donor atom, acceptor molecule, acceptor atom, score
      P1  H  6896  6909       L1     1  1.00

> <Gold.PLP.Chemscore.Internal.Correction>
0.0890

> <Gold.Rescore>
     Score         DG    S(hbond)    S(metal)    S(lipo)     H(rot)  DE(clash)    DE(int)     intcor
     16.57     -19.38       0.99        0.00     125.71       1.61       0.24       2.57       ----

> <Gold.Chemscore.Fitness>
16.5709

> <Gold.Chemscore.DG>
-19.3784

> <Gold.Chemscore.ZeroCoef>
-5.4800

> <Gold.Chemscore.Hbond>
0.9924

> <Gold.Chemscore.Metal>
0.0000

> <Gold.Chemscore.Lipo>
125.7107

> <Gold.Chemscore.Internal_Hbond>
0.0000

> <Gold.Chemscore.DEClash>
0.2424

> <Gold.Chemscore.DEInternal>
2.5651

> <Gold.Chemscore.Rot>
1.6110

> <Gold.Chemscore.Internal.Correction>
   9.000000E+99

> <Gold.Chemscore.Hbonds>
donor molecule, donor type, donor heavy atom, donor atom, acceptor molecule, acceptor atom, score
      P1  H  6896  6909       L1     1  0.99

> <Gold.Chemscore.Hbond.Weighted>
-3.3145

> <Gold.Chemscore.Metal.Weighted>
-0.0000

> <Gold.Chemscore.Lipo.Weighted>
-14.7081

> <Gold.Chemscore.Internal_Hbond.Weighted>
0.0000

> <Gold.Chemscore.DEClash.Weighted>
0.2424

> <Gold.Chemscore.DEInternal.Weighted>
2.5651

> <Gold.Chemscore.Rot.Weighted>
4.1243

> <Gold.Chemscore.Internal.Correction.Weighted>
   9.000000E+99

> <Gold.Protein.RotatedTorsions>
[ 6907 6896 6895 6894 ] final  110.09 input  -60.11 | X-H torsion
[ 7974 7965 7964 7962 ] final   -6.68 input  175.53 | X-H torsion
[ 8008 7997 7996 7995 ] final -156.69 input   59.86 | X-H torsion
[ 10167 10162 10161 10158 ] final   -8.75 input  -65.29 | X-H torsion
[ 10718 10713 10712 10709 ] final -143.69 input   66.30 | X-H torsion
[ 10763 10752 10751 10750 ] final -101.48 input  -60.55 | X-H torsion
[ 11005 11000 10999 10996 ] final    7.55 input  -57.11 | X-H torsion

> <Gold.Protein.ActiveResidues>
 VAL166  LYS551  ARG553  GLY616  TRP617  ASP618  TYR619  PRO620  LYS621  CYS622 
 ASP623  PHE694  ASN695  SER759  ASP760  ASP761  ALA762  ILE779  LEU786  VAL792 
 PHE793  MET794  SER795  GLU796  ALA797  LYS798  CYS799  TRP800  GLU811  SER814 

> <Gold.Protein.RotatedAtoms>
  152.5036  133.8850  159.7365 H   0  0  0  0  0  0  0  0  0  0  0  0  # atno 6907 bound_to 6896
  150.9303  133.6766  159.2819 H   0  0  0  0  0  0  0  0  0  0  0  0  # atno 6908 bound_to 6896
  151.4113  135.0990  159.9638 H   0  0  0  0  0  0  0  0  0  0  0  0  # atno 6909 bound_to 6896
  146.2325  140.2206  142.8337 H   0  0  0  0  0  0  0  0  0  0  0  0  # atno 7974 bound_to 7965
  155.7211  140.0790  157.2330 H   0  0  0  0  0  0  0  0  0  0  0  0  # atno 8008 bound_to 7997
  154.4045  140.1612  156.2457 H   0  0  0  0  0  0  0  0  0  0  0  0  # atno 8009 bound_to 7997
  155.9196  140.3398  155.6165 H   0  0  0  0  0  0  0  0  0  0  0  0  # atno 8010 bound_to 7997
  140.7068  143.5934  150.8870 H   0  0  0  0  0  0  0  0  0  0  0  0  # atno 10167 bound_to 10162
  156.3610  130.7738  151.1905 H   0  0  0  0  0  0  0  0  0  0  0  0  # atno 10718 bound_to 10713
  154.7661  135.4896  153.9557 H   0  0  0  0  0  0  0  0  0  0  0  0  # atno 10763 bound_to 10752
  153.1309  135.6752  153.9187 H   0  0  0  0  0  0  0  0  0  0  0  0  # atno 10764 bound_to 10752
  153.8891  135.3123  155.3425 H   0  0  0  0  0  0  0  0  0  0  0  0  # atno 10765 bound_to 10752
  140.5470  134.0319  155.7923 H   0  0  0  0  0  0  0  0  0  0  0  0  # atno 11005 bound_to 11000
  144.9635  140.8298  143.5499 LP  0  0  0  0  0  0  0  0  0  0  0  0  # atno 17320 bound_to 7965
  145.2180  139.2173  143.5108 LP  0  0  0  0  0  0  0  0  0  0  0  0  # atno 17321 bound_to 7965
  139.9660  143.6110  152.2988 LP  0  0  0  0  0  0  0  0  0  0  0  0  # atno 17342 bound_to 10162
  139.6680  144.7662  151.1837 LP  0  0  0  0  0  0  0  0  0  0  0  0  # atno 17343 bound_to 10162
  157.7473  131.0400  150.4577 LP  0  0  0  0  0  0  0  0  0  0  0  0  # atno 17370 bound_to 10713
  156.4788  130.4069  149.6474 LP  0  0  0  0  0  0  0  0  0  0  0  0  # atno 17371 bound_to 10713
  141.1194  133.9487  157.2759 LP  0  0  0  0  0  0  0  0  0  0  0  0  # atno 17394 bound_to 11000
  139.9474  135.0181  156.8894 LP  0  0  0  0  0  0  0  0  0  0  0  0  # atno 17395 bound_to 11000

$$$$
