AV-unprocessed.smi:1406|AV-procd|sdf|5710|dock6
  -GOLD-   22720 5343D 1   1.00000     0.00000
 Structure written by MMmdl.
 41 43  0  0  0  0  0  0  0  0  2 V2000
  149.9272  139.7049  154.8395 C   0  0  0  0  0  0  0  0  0  0  0  0
  151.1364  140.0831  155.7189 C   0  0  1  0  0  0  0  0  0  0  0  0
  150.7692  141.0302  156.8749 C   0  0  0  0  0  0  0  0  0  0  0  0
  149.5929  141.2800  157.1408 O   0  0  0  0  0  0  0  0  0  0  0  0
  151.7960  141.5548  157.5619 N   0  0  0  0  0  0  0  0  0  0  0  0
  151.6618  142.4149  158.7315 C   0  0  2  0  0  0  0  0  0  0  0  0
  151.0235  143.7806  158.4371 C   0  0  0  0  0  0  0  0  0  0  0  0
  151.7802  144.7838  159.3310 C   0  0  0  0  0  0  0  0  0  0  0  0
  152.7469  143.9981  160.1333 N   0  3  1  0  0  0  0  0  0  0  0  0
  152.2372  143.7137  161.5032 C   0  0  0  0  0  0  0  0  0  0  0  0
  153.1201  142.7062  162.2509 C   0  0  0  0  0  0  0  0  0  0  0  0
  153.2156  141.3987  161.4606 C   0  0  0  0  0  0  0  0  0  0  0  0
  153.7894  141.6841  160.0687 C   0  0  0  0  0  0  0  0  0  0  0  0
  153.0258  142.7946  159.3129 C   0  0  1  0  0  0  0  0  0  0  0  0
  151.8252  138.9016  156.2260 N   0  0  0  0  0  0  0  0  0  0  0  0
  151.5609  137.6066  156.0389 C   0  0  0  0  0  0  0  0  0  0  0  0
  152.4332  136.7905  156.6131 N   0  0  0  0  0  0  0  0  0  0  0  0
  153.2702  137.7111  157.1771 C   0  0  0  0  0  0  0  0  0  0  0  0
  152.9581  138.9897  156.9670 N   0  0  0  0  0  0  0  0  0  0  0  0
  149.4653  140.5904  154.4013 H   0  0  0  0  0  0  0  0  0  0  0  0
  149.1596  139.1767  155.4068 H   0  0  0  0  0  0  0  0  0  0  0  0
  150.2327  139.0575  154.0169 H   0  0  0  0  0  0  0  0  0  0  0  0
  151.8441  140.6200  155.0853 H   0  0  0  0  0  0  0  0  0  0  0  0
  152.7327  141.3056  157.2790 H   0  0  0  0  0  0  0  0  0  0  0  0
  151.0749  141.9020  159.4958 H   0  0  0  0  0  0  0  0  0  0  0  0
  151.1401  144.0582  157.3884 H   0  0  0  0  0  0  0  0  0  0  0  0
  149.9552  143.7674  158.6556 H   0  0  0  0  0  0  0  0  0  0  0  0
  152.3397  145.4805  158.7057 H   0  0  0  0  0  0  0  0  0  0  0  0
  151.1073  145.3777  159.9514 H   0  0  0  0  0  0  0  0  0  0  0  0
  152.1865  144.6482  162.0634 H   0  0  0  0  0  0  0  0  0  0  0  0
  151.2175  143.3288  161.4490 H   0  0  0  0  0  0  0  0  0  0  0  0
  154.1157  143.1240  162.4059 H   0  0  0  0  0  0  0  0  0  0  0  0
  152.7063  142.5123  163.2410 H   0  0  0  0  0  0  0  0  0  0  0  0
  153.8495  140.6852  161.9878 H   0  0  0  0  0  0  0  0  0  0  0  0
  152.2309  140.9375  161.3768 H   0  0  0  0  0  0  0  0  0  0  0  0
  154.8298  141.9925  160.1809 H   0  0  0  0  0  0  0  0  0  0  0  0
  153.8117  140.7688  159.4758 H   0  0  0  0  0  0  0  0  0  0  0  0
  153.6599  143.1228  158.4865 H   0  0  0  0  0  0  0  0  0  0  0  0
  150.7176  137.2529  155.4641 H   0  0  0  0  0  0  0  0  0  0  0  0
  154.1399  137.4307  157.7533 H   0  0  0  0  0  0  0  0  0  0  0  0
  153.6028  144.5245  160.2369 H   0  0  0  0  0  0  0  0  0  0  0  0
  1  2  1  0  0  0  0
  1 20  1  0  0  0  0
  1 21  1  0  0  0  0
  1 22  1  0  0  0  0
  2  3  1  0  0  0  0
  2 15  1  0  0  0  0
  2 23  1  0  0  0  0
  3  4  2  0  0  0  0
  3  5  1  0  0  0  0
  5  6  1  0  0  0  0
  5 24  1  0  0  0  0
  6 14  1  0  0  0  0
  6  7  1  0  0  0  0
  6 25  1  0  0  0  0
  7  8  1  0  0  0  0
  7 26  1  0  0  0  0
  7 27  1  0  0  0  0
  8  9  1  0  0  0  0
  8 28  1  0  0  0  0
  8 29  1  0  0  0  0
  9 14  1  0  0  0  0
  9 10  1  0  0  0  0
  9 41  1  0  0  0  0
 10 11  1  0  0  0  0
 10 30  1  0  0  0  0
 10 31  1  0  0  0  0
 11 12  1  0  0  0  0
 11 32  1  0  0  0  0
 11 33  1  0  0  0  0
 12 13  1  0  0  0  0
 12 34  1  0  0  0  0
 12 35  1  0  0  0  0
 13 14  1  0  0  0  0
 13 36  1  0  0  0  0
 13 37  1  0  0  0  0
 14 38  1  0  0  0  0
 15 19  1  0  0  0  0
 15 16  1  0  0  0  0
 16 17  2  0  0  0  0
 16 39  1  0  0  0  0
 17 18  1  0  0  0  0
 18 19  2  0  0  0  0
 18 40  1  0  0  0  0
M  CHG  1   9   1
M  END
> <s_m_source_file>
AV-unprocessed.smi

> <i_m_source_file_index>
1406

> <i_lp_mmshare_version>
43012

> <i_f3d_flags>
0

> <s_epik_input>
bjFbY0hdbltjSF1uMVtDQEhdKFtDSDNdKUMoPU8pW05IXVtDQEhdKFtDSDJdW0NIMl0yKVtDQEBIXShOMjMpW0NIMl1bQ0gyXVtDSDJdW0NIMl0z

> <s_epik_cmdline>
J2VwaWtfcHl0aG9uJywgJy1waCcsICc3LjAnLCAnLXRuJywgJzgnLCAnLW1hJywgJzIwMCcsICctbWV0YWxfYmluZGluZycsICctaW1hZScsICc8aW5maWxlLm1hZT4nLCAnLW9tYWUnLCAnPG91dGZpbGUubWFlPic=

> <r_lp_tautomer_probability>
1

> <r_epik_Ionization_Penalty>
0.00197066

> <r_epik_Ionization_Penalty_Charging>
0.00196223

> <r_epik_Ionization_Penalty_Neutral>
8.43107e-06

> <r_epik_State_Penalty>
0.00133866

> <r_epik_Charging_Adjusted_Penalty>
0.00330089

> <i_epik_Tot_Q>
1

> <i_epik_Tot_abs_Q>
1

> <r_epik_Metal_State_Penalty>
-0

> <b_epik_Metal_Only>
0

> <s_lp_Force_Field>
OPLS_2005

> <r_lp_Energy>
42.7017

> <b_lp_Chiralities_Consistent>
1

> <s_lp_Variant>
AV-unprocessed.smi:1406-2

> <Gold.Version>
5.8.1

> <Gold.Id.Protein>
6NUR|6NUR_protein|mol2

> <Gold.PLP.Fitness>
46.5599

> <Gold.PLP.PLP>
-40.7815

> <Gold.PLP.part.hbond>
-2.0000

> <Gold.PLP.part.metal>
0.0000

> <Gold.PLP.part.buried>
-2.3378

> <Gold.PLP.part.nonpolar>
-36.5041

> <Gold.PLP.part.repulsive>
0.1680

> <Gold.PLP.ligand.clash>
0.0000

> <Gold.PLP.ligand.torsion>
0.1512

> <Gold.PLP.Chemscore.Hbond>
1.9920

> <Gold.PLP.Chemscore.CHOScore>
0.0000

> <Gold.PLP.Chemscore.Metal>
0.0000

> <Gold.Chemscore.Hbonds>
donor molecule, donor type, donor heavy atom, donor atom, acceptor molecule, acceptor atom, score
      P1  H  7997  8008       L1    19  1.00
      P1  H 10752 10765       L1    17  0.73

> <Gold.PLP.Chemscore.Internal.Correction>
0.1048

> <Gold.Rescore>
     Score         DG    S(hbond)    S(metal)    S(lipo)     H(rot)  DE(clash)    DE(int)     intcor
     16.08     -18.33       1.61        0.00     105.24       1.89       0.63       1.62       ----

> <Gold.Chemscore.Fitness>
16.0758

> <Gold.Chemscore.DG>
-18.3329

> <Gold.Chemscore.ZeroCoef>
-5.4800

> <Gold.Chemscore.Hbond>
1.6075

> <Gold.Chemscore.Metal>
0.0000

> <Gold.Chemscore.Lipo>
105.2432

> <Gold.Chemscore.Internal_Hbond>
0.0000

> <Gold.Chemscore.DEClash>
0.6343

> <Gold.Chemscore.DEInternal>
1.6228

> <Gold.Chemscore.Rot>
1.8865

> <Gold.Chemscore.Internal.Correction>
   9.000000E+99

> <Gold.Chemscore.Hbonds>
donor molecule, donor type, donor heavy atom, donor atom, acceptor molecule, acceptor atom, score
      P1  H  7997  8008       L1    19  0.88
      P1  H 10752 10765       L1    17  0.48

> <Gold.Chemscore.Hbond.Weighted>
-5.3690

> <Gold.Chemscore.Metal.Weighted>
-0.0000

> <Gold.Chemscore.Lipo.Weighted>
-12.3135

> <Gold.Chemscore.Internal_Hbond.Weighted>
0.0000

> <Gold.Chemscore.DEClash.Weighted>
0.6343

> <Gold.Chemscore.DEInternal.Weighted>
1.6228

> <Gold.Chemscore.Rot.Weighted>
4.8295

> <Gold.Chemscore.Internal.Correction.Weighted>
   9.000000E+99

> <Gold.Protein.RotatedTorsions>
[ 6907 6896 6895 6894 ] final -138.80 input  -60.11 | X-H torsion
[ 7974 7965 7964 7962 ] final -148.03 input  175.53 | X-H torsion
[ 8008 7997 7996 7995 ] final  -61.13 input   59.86 | X-H torsion
[ 10167 10162 10161 10158 ] final -163.58 input  -65.29 | X-H torsion
[ 10718 10713 10712 10709 ] final   31.91 input   66.30 | X-H torsion
[ 10763 10752 10751 10750 ] final -144.69 input  -60.55 | X-H torsion
[ 11005 11000 10999 10996 ] final   72.62 input  -57.11 | X-H torsion

> <Gold.Protein.ActiveResidues>
 VAL166  LYS551  ARG553  GLY616  TRP617  ASP618  TYR619  PRO620  LYS621  CYS622 
 ASP623  PHE694  ASN695  SER759  ASP760  ASP761  ALA762  ILE779  LEU786  VAL792 
 PHE793  MET794  SER795  GLU796  ALA797  LYS798  CYS799  TRP800  GLU811  SER814 

> <Gold.Protein.RotatedAtoms>
  151.0396  133.5718  159.2652 H   0  0  0  0  0  0  0  0  0  0  0  0  # atno 6907 bound_to 6896
  151.2769  135.0701  159.9164 H   0  0  0  0  0  0  0  0  0  0  0  0  # atno 6908 bound_to 6896
  152.5361  134.0117  159.7995 H   0  0  0  0  0  0  0  0  0  0  0  0  # atno 6909 bound_to 6896
  144.8055  140.5250  143.5678 H   0  0  0  0  0  0  0  0  0  0  0  0  # atno 7974 bound_to 7965
  154.4432  140.1024  156.6382 H   0  0  0  0  0  0  0  0  0  0  0  0  # atno 8008 bound_to 7997
  155.5531  140.3486  155.4454 H   0  0  0  0  0  0  0  0  0  0  0  0  # atno 8009 bound_to 7997
  156.0515  140.1305  157.0034 H   0  0  0  0  0  0  0  0  0  0  0  0  # atno 8010 bound_to 7997
  139.6311  144.0438  152.2016 H   0  0  0  0  0  0  0  0  0  0  0  0  # atno 10167 bound_to 10162
  157.2785  130.7243  149.6543 H   0  0  0  0  0  0  0  0  0  0  0  0  # atno 10718 bound_to 10713
  154.8417  135.3433  154.6387 H   0  0  0  0  0  0  0  0  0  0  0  0  # atno 10763 bound_to 10752
  153.6997  135.6970  153.5071 H   0  0  0  0  0  0  0  0  0  0  0  0  # atno 10764 bound_to 10752
  153.2532  135.4347  155.0773 H   0  0  0  0  0  0  0  0  0  0  0  0  # atno 10765 bound_to 10752
  139.9482  134.7275  156.0928 H   0  0  0  0  0  0  0  0  0  0  0  0  # atno 11005 bound_to 11000
  145.5448  139.1476  143.3427 LP  0  0  0  0  0  0  0  0  0  0  0  0  # atno 17320 bound_to 7965
  146.2346  140.5587  142.8960 LP  0  0  0  0  0  0  0  0  0  0  0  0  # atno 17321 bound_to 7965
  140.0104  144.6228  150.7652 LP  0  0  0  0  0  0  0  0  0  0  0  0  # atno 17342 bound_to 10162
  140.7439  143.2853  151.3480 LP  0  0  0  0  0  0  0  0  0  0  0  0  # atno 17343 bound_to 10162
  155.9664  130.4345  150.5053 LP  0  0  0  0  0  0  0  0  0  0  0  0  # atno 17370 bound_to 10713
  157.2992  131.0642  151.2080 LP  0  0  0  0  0  0  0  0  0  0  0  0  # atno 17371 bound_to 10713
  141.1138  133.6634  156.3043 LP  0  0  0  0  0  0  0  0  0  0  0  0  # atno 17394 bound_to 11000
  140.5784  134.5770  157.5474 LP  0  0  0  0  0  0  0  0  0  0  0  0  # atno 17395 bound_to 11000

$$$$
