AV-unprocessed.smi:2872|AV-procd|sdf|11034|dock3
  -GOLD-   2272015493D 1   1.00000     0.00000
 Structure written by MMmdl.
 39 41  0  0  0  0  0  0  0  0  1 V2000
  153.2033  136.3509  156.9826 O   0  0  0  0  0  0  0  0  0  0  0  0
  152.3977  136.9847  157.6622 C   0  0  0  0  0  0  0  0  0  0  0  0
  151.9081  138.1889  157.3340 N   0  0  0  0  0  0  0  0  0  0  0  0
  152.2566  138.9368  156.1303 C   0  0  0  0  0  0  0  0  0  0  0  0
  150.9976  139.3743  155.4395 C   0  0  0  0  0  0  0  0  0  0  0  0
  150.2388  138.5229  154.7483 N   0  0  0  0  0  0  0  0  0  0  0  0
  149.2084  139.3265  154.3011 C   0  0  0  0  0  0  0  0  0  0  0  0
  148.0769  139.0167  153.5132 C   0  0  0  0  0  0  0  0  0  0  0  0
  147.1408  140.0189  153.1834 C   0  0  0  0  0  0  0  0  0  0  0  0
  147.3220  141.3420  153.6355 C   0  0  0  0  0  0  0  0  0  0  0  0
  148.4435  141.6723  154.4203 C   0  0  0  0  0  0  0  0  0  0  0  0
  149.3754  140.6686  154.7457 C   0  0  0  0  0  0  0  0  0  0  0  0
  150.5556  140.6566  155.4815 N   0  0  0  0  0  0  0  0  0  0  0  0
  151.1573  141.7964  156.1550 C   0  0  0  0  0  0  0  0  0  0  0  0
  151.4059  141.5036  157.6390 C   0  0  0  0  0  0  0  0  0  0  0  0
  151.0855  142.6653  158.3910 O   0  0  0  0  0  0  0  0  0  0  0  0
  151.6563  142.8120  159.6371 C   0  0  0  0  0  0  0  0  0  0  0  0
  151.3212  143.9745  160.3622 C   0  0  0  0  0  0  0  0  0  0  0  0
  151.8599  144.2068  161.6424 C   0  0  0  0  0  0  0  0  0  0  0  0
  152.7439  143.2729  162.2135 C   0  0  0  0  0  0  0  0  0  0  0  0
  153.0855  142.1076  161.5028 C   0  0  0  0  0  0  0  0  0  0  0  0
  152.5467  141.8755  160.2221 C   0  0  0  0  0  0  0  0  0  0  0  0
  151.9807  136.6400  158.6211 H   0  0  0  0  0  0  0  0  0  0  0  0
  151.2515  138.6224  157.9666 H   0  0  0  0  0  0  0  0  0  0  0  0
  152.8701  139.8069  156.3713 H   0  0  0  0  0  0  0  0  0  0  0  0
  152.8509  138.3085  155.4671 H   0  0  0  0  0  0  0  0  0  0  0  0
  147.9286  138.0059  153.1630 H   0  0  0  0  0  0  0  0  0  0  0  0
  146.2789  139.7710  152.5813 H   0  0  0  0  0  0  0  0  0  0  0  0
  146.5997  142.1033  153.3795 H   0  0  0  0  0  0  0  0  0  0  0  0
  148.5849  142.6843  154.7692 H   0  0  0  0  0  0  0  0  0  0  0  0
  152.0875  142.0662  155.6553 H   0  0  0  0  0  0  0  0  0  0  0  0
  150.4929  142.6545  156.0481 H   0  0  0  0  0  0  0  0  0  0  0  0
  150.7849  140.6646  157.9572 H   0  0  0  0  0  0  0  0  0  0  0  0
  152.4514  141.2319  157.7926 H   0  0  0  0  0  0  0  0  0  0  0  0
  150.6437  144.6971  159.9313 H   0  0  0  0  0  0  0  0  0  0  0  0
  151.5948  145.1015  162.1859 H   0  0  0  0  0  0  0  0  0  0  0  0
  153.1585  143.4497  163.1951 H   0  0  0  0  0  0  0  0  0  0  0  0
  153.7627  141.3890  161.9405 H   0  0  0  0  0  0  0  0  0  0  0  0
  152.8325  140.9700  159.7091 H   0  0  0  0  0  0  0  0  0  0  0  0
  1  2  2  0  0  0  0
  2  3  1  0  0  0  0
  2 23  1  0  0  0  0
  3  4  1  0  0  0  0
  3 24  1  0  0  0  0
  4  5  1  0  0  0  0
  4 25  1  0  0  0  0
  4 26  1  0  0  0  0
  5 13  1  0  0  0  0
  5  6  2  0  0  0  0
  6  7  1  0  0  0  0
  7 12  2  0  0  0  0
  7  8  1  0  0  0  0
  8  9  2  0  0  0  0
  8 27  1  0  0  0  0
  9 10  1  0  0  0  0
  9 28  1  0  0  0  0
 10 11  2  0  0  0  0
 10 29  1  0  0  0  0
 11 12  1  0  0  0  0
 11 30  1  0  0  0  0
 12 13  1  0  0  0  0
 13 14  1  0  0  0  0
 14 15  1  0  0  0  0
 14 31  1  0  0  0  0
 14 32  1  0  0  0  0
 15 16  1  0  0  0  0
 15 33  1  0  0  0  0
 15 34  1  0  0  0  0
 16 17  1  0  0  0  0
 17 22  1  0  0  0  0
 17 18  2  0  0  0  0
 18 19  1  0  0  0  0
 18 35  1  0  0  0  0
 19 20  2  0  0  0  0
 19 36  1  0  0  0  0
 20 21  1  0  0  0  0
 20 37  1  0  0  0  0
 21 22  2  0  0  0  0
 21 38  1  0  0  0  0
 22 39  1  0  0  0  0
M  END
> <s_m_source_file>
AV-unprocessed.smi

> <i_m_source_file_index>
2872

> <i_lp_mmshare_version>
43012

> <i_f3d_flags>
0

> <s_epik_input>
Tz1bQ0hdW05IXVtDSDJdYyhuMSluKGMoYzEyKVtjSF1bY0hdW2NIXVtjSF0yKVtDSDJdW0NIMl1PYzNbY0hdW2NIXVtjSF1bY0hdW2NIXTM=

> <s_epik_cmdline>
J2VwaWtfcHl0aG9uJywgJy1waCcsICc3LjAnLCAnLXRuJywgJzgnLCAnLW1hJywgJzIwMCcsICctbWV0YWxfYmluZGluZycsICctaW1hZScsICc8aW5maWxlLm1hZT4nLCAnLW9tYWUnLCAnPG91dGZpbGUubWFlPic=

> <r_lp_tautomer_probability>
1

> <r_epik_Ionization_Penalty>
0.0659793

> <r_epik_Ionization_Penalty_Charging>
0

> <r_epik_Ionization_Penalty_Neutral>
0.0659793

> <r_epik_State_Penalty>
0.0575748

> <r_epik_Charging_Adjusted_Penalty>
0.0575748

> <i_epik_Tot_Q>
0

> <i_epik_Tot_abs_Q>
0

> <r_epik_Metal_State_Penalty>
0.0517641

> <b_epik_Metal_Only>
0

> <s_lp_Force_Field>
OPLS_2005

> <r_lp_Energy>
12.8976

> <b_lp_Chiralities_Consistent>
1

> <s_lp_Variant>
AV-unprocessed.smi:2872-1

> <Gold.Version>
5.8.1

> <Gold.Id.Protein>
6NUR|6NUR_protein|mol2

> <Gold.PLP.Fitness>
49.7338

> <Gold.PLP.PLP>
-47.9757

> <Gold.PLP.part.hbond>
-1.0000

> <Gold.PLP.part.metal>
0.0000

> <Gold.PLP.part.buried>
-2.9976

> <Gold.PLP.part.nonpolar>
-42.6619

> <Gold.PLP.part.repulsive>
0.2832

> <Gold.PLP.ligand.clash>
0.0000

> <Gold.PLP.ligand.torsion>
0.6585

> <Gold.PLP.Chemscore.Hbond>
1.0000

> <Gold.PLP.Chemscore.CHOScore>
0.0000

> <Gold.PLP.Chemscore.Metal>
0.0000

> <Gold.Chemscore.Hbonds>
donor molecule, donor type, donor heavy atom, donor atom, acceptor molecule, acceptor atom, score
      P1  H 10752 10765       L1     1  1.00

> <Gold.PLP.Chemscore.Internal.Correction>
0.0751

> <Gold.Rescore>
     Score         DG    S(hbond)    S(metal)    S(lipo)     H(rot)  DE(clash)    DE(int)     intcor
     16.74     -17.66       1.00        0.00     128.62       2.42       0.24       0.68       ----

> <Gold.Chemscore.Fitness>
16.7412

> <Gold.Chemscore.DG>
-17.6610

> <Gold.Chemscore.ZeroCoef>
-5.4800

> <Gold.Chemscore.Hbond>
0.9966

> <Gold.Chemscore.Metal>
0.0000

> <Gold.Chemscore.Lipo>
128.6240

> <Gold.Chemscore.Internal_Hbond>
0.0000

> <Gold.Chemscore.DEClash>
0.2444

> <Gold.Chemscore.DEInternal>
0.6754

> <Gold.Chemscore.Rot>
2.4205

> <Gold.Chemscore.Internal.Correction>
   9.000000E+99

> <Gold.Chemscore.Hbonds>
donor molecule, donor type, donor heavy atom, donor atom, acceptor molecule, acceptor atom, score
      P1  H 10752 10765       L1     1  0.93

> <Gold.Chemscore.Hbond.Weighted>
-3.3286

> <Gold.Chemscore.Metal.Weighted>
-0.0000

> <Gold.Chemscore.Lipo.Weighted>
-15.0490

> <Gold.Chemscore.Internal_Hbond.Weighted>
0.0000

> <Gold.Chemscore.DEClash.Weighted>
0.2444

> <Gold.Chemscore.DEInternal.Weighted>
0.6754

> <Gold.Chemscore.Rot.Weighted>
6.1965

> <Gold.Chemscore.Internal.Correction.Weighted>
   9.000000E+99

> <Gold.Protein.RotatedTorsions>
[ 6907 6896 6895 6894 ] final  -37.03 input  -60.11 | X-H torsion
[ 7974 7965 7964 7962 ] final  175.61 input  175.53 | X-H torsion
[ 8008 7997 7996 7995 ] final   74.61 input   59.86 | X-H torsion
[ 10167 10162 10161 10158 ] final   -1.60 input  -65.29 | X-H torsion
[ 10718 10713 10712 10709 ] final  147.46 input   66.30 | X-H torsion
[ 10763 10752 10751 10750 ] final -135.84 input  -60.55 | X-H torsion
[ 11005 11000 10999 10996 ] final -172.28 input  -57.11 | X-H torsion

> <Gold.Protein.ActiveResidues>
 VAL166  LYS551  ARG553  GLY616  TRP617  ASP618  TYR619  PRO620  LYS621  CYS622 
 ASP623  PHE694  ASN695  SER759  ASP760  ASP761  ALA762  ILE779  LEU786  VAL792 
 PHE793  MET794  SER795  GLU796  ALA797  LYS798  CYS799  TRP800  GLU811  SER814 

> <Gold.Protein.RotatedAtoms>
  151.0198  134.9460  159.8052 H   0  0  0  0  0  0  0  0  0  0  0  0  # atno 6907 bound_to 6896
  152.5322  134.2918  159.9056 H   0  0  0  0  0  0  0  0  0  0  0  0  # atno 6908 bound_to 6896
  151.2926  133.4116  159.2668 H   0  0  0  0  0  0  0  0  0  0  0  0  # atno 6909 bound_to 6896
  144.7198  139.9973  143.6440 H   0  0  0  0  0  0  0  0  0  0  0  0  # atno 7974 bound_to 7965
  155.8009  140.3476  155.5402 H   0  0  0  0  0  0  0  0  0  0  0  0  # atno 8008 bound_to 7997
  155.8539  140.0960  157.1678 H   0  0  0  0  0  0  0  0  0  0  0  0  # atno 8009 bound_to 7997
  154.4009  140.1371  156.3865 H   0  0  0  0  0  0  0  0  0  0  0  0  # atno 8010 bound_to 7997
  140.6817  143.6756  150.8148 H   0  0  0  0  0  0  0  0  0  0  0  0  # atno 10167 bound_to 10162
  157.3207  131.0904  151.1243 H   0  0  0  0  0  0  0  0  0  0  0  0  # atno 10718 bound_to 10713
  154.8695  135.3691  154.4963 H   0  0  0  0  0  0  0  0  0  0  0  0  # atno 10763 bound_to 10752
  153.5607  135.7023  153.5554 H   0  0  0  0  0  0  0  0  0  0  0  0  # atno 10764 bound_to 10752
  153.3631  135.4041  155.1696 H   0  0  0  0  0  0  0  0  0  0  0  0  # atno 10765 bound_to 10752
  140.4988  134.5913  157.4980 H   0  0  0  0  0  0  0  0  0  0  0  0  # atno 11005 bound_to 11000
  146.0364  139.3381  143.0724 LP  0  0  0  0  0  0  0  0  0  0  0  0  # atno 17320 bound_to 7965
  145.8390  140.9591  143.0809 LP  0  0  0  0  0  0  0  0  0  0  0  0  # atno 17321 bound_to 7965
  140.0457  143.5301  152.2697 LP  0  0  0  0  0  0  0  0  0  0  0  0  # atno 17342 bound_to 10162
  139.6144  144.7616  151.2879 LP  0  0  0  0  0  0  0  0  0  0  0  0  # atno 17343 bound_to 10162
  157.2529  130.6622  149.5939 LP  0  0  0  0  0  0  0  0  0  0  0  0  # atno 17370 bound_to 10713
  155.9685  130.4533  150.5805 LP  0  0  0  0  0  0  0  0  0  0  0  0  # atno 17371 bound_to 10713
  139.9725  134.7269  156.0013 LP  0  0  0  0  0  0  0  0  0  0  0  0  # atno 17394 bound_to 11000
  141.1446  133.6558  156.3830 LP  0  0  0  0  0  0  0  0  0  0  0  0  # atno 17395 bound_to 11000

$$$$
