AV-unprocessed.smi:2871|AV-procd|sdf|11030|dock10
  -GOLD-   2272015493D 1   1.00000     0.00000
 Structure written by MMmdl.
 38 40  0  0  0  0  0  0  0  0  1 V2000
  151.7016  144.5867  160.4045 C   0  0  0  0  0  0  0  0  0  0  0  0
  152.5005  143.5027  160.9663 N   0  0  0  0  0  0  0  0  0  0  0  0
  152.8764  143.5241  162.3743 C   0  0  0  0  0  0  0  0  0  0  0  0
  152.8215  142.3843  160.1657 C   0  0  0  0  0  0  0  0  0  0  0  0
  153.9275  141.5471  160.4519 C   0  0  0  0  0  0  0  0  0  0  0  0
  154.1480  140.4553  159.5821 C   0  0  0  0  0  0  0  0  0  0  0  0
  155.2994  139.4815  159.7830 C   0  0  0  0  0  0  0  0  0  0  0  0
  155.2699  138.5473  158.8322 F   0  0  0  0  0  0  0  0  0  0  0  0
  156.4804  140.0987  159.7315 F   0  0  0  0  0  0  0  0  0  0  0  0
  155.1841  138.8894  160.9719 F   0  0  0  0  0  0  0  0  0  0  0  0
  153.3393  140.2196  158.5248 N   0  0  0  0  0  0  0  0  0  0  0  0
  152.3255  141.0635  158.3373 C   0  0  0  0  0  0  0  0  0  0  0  0
  151.5164  140.7911  157.2496 N   0  0  0  0  0  0  0  0  0  0  0  0
  151.3400  139.4691  156.6616 C   0  0  2  0  0  0  0  0  0  0  0  0
  152.5033  139.0541  155.7520 C   0  0  0  0  0  0  0  0  0  0  0  0
  151.7797  138.7413  154.4366 C   0  0  1  0  0  0  0  0  0  0  0  0
  150.9082  137.4817  154.5360 C   0  0  0  0  0  0  0  0  0  0  0  0
  149.7401  137.9763  155.3889 C   0  0  0  0  0  0  0  0  0  0  0  0
  150.1544  139.4244  155.6831 C   0  0  2  0  0  0  0  0  0  0  0  0
  150.7860  139.7507  154.4553 O   0  0  0  0  0  0  0  0  0  0  0  0
  152.0316  142.1238  159.0962 N   0  0  0  0  0  0  0  0  0  0  0  0
  152.2144  145.0385  159.5545 H   0  0  0  0  0  0  0  0  0  0  0  0
  151.5206  145.3706  161.1398 H   0  0  0  0  0  0  0  0  0  0  0  0
  150.7338  144.2143  160.0670 H   0  0  0  0  0  0  0  0  0  0  0  0
  153.9602  143.4719  162.4824 H   0  0  0  0  0  0  0  0  0  0  0  0
  152.4304  142.6813  162.9031 H   0  0  0  0  0  0  0  0  0  0  0  0
  152.5383  144.4390  162.8612 H   0  0  0  0  0  0  0  0  0  0  0  0
  154.5809  141.7217  161.2930 H   0  0  0  0  0  0  0  0  0  0  0  0
  151.0750  141.5767  156.7942 H   0  0  0  0  0  0  0  0  0  0  0  0
  151.1869  138.7465  157.4646 H   0  0  0  0  0  0  0  0  0  0  0  0
  153.2112  139.8714  155.6051 H   0  0  0  0  0  0  0  0  0  0  0  0
  153.0543  138.1971  156.1405 H   0  0  0  0  0  0  0  0  0  0  0  0
  152.4272  138.7648  153.5599 H   0  0  0  0  0  0  0  0  0  0  0  0
  150.5577  137.1710  153.5511 H   0  0  0  0  0  0  0  0  0  0  0  0
  151.4412  136.6455  154.9899 H   0  0  0  0  0  0  0  0  0  0  0  0
  148.8120  137.9497  154.8169 H   0  0  0  0  0  0  0  0  0  0  0  0
  149.5983  137.3888  156.2967 H   0  0  0  0  0  0  0  0  0  0  0  0
  149.3182  140.0710  155.9522 H   0  0  0  0  0  0  0  0  0  0  0  0
  1  2  1  0  0  0  0
  1 22  1  0  0  0  0
  1 23  1  0  0  0  0
  1 24  1  0  0  0  0
  2  3  1  0  0  0  0
  2  4  1  0  0  0  0
  3 25  1  0  0  0  0
  3 26  1  0  0  0  0
  3 27  1  0  0  0  0
  4 21  1  0  0  0  0
  4  5  2  0  0  0  0
  5  6  1  0  0  0  0
  5 28  1  0  0  0  0
  6  7  1  0  0  0  0
  6 11  2  0  0  0  0
  7  8  1  0  0  0  0
  7  9  1  0  0  0  0
  7 10  1  0  0  0  0
 11 12  1  0  0  0  0
 12 13  1  0  0  0  0
 12 21  2  0  0  0  0
 13 14  1  0  0  0  0
 13 29  1  0  0  0  0
 14 19  1  0  0  0  0
 14 15  1  0  0  0  0
 14 30  1  0  0  0  0
 15 16  1  0  0  0  0
 15 31  1  0  0  0  0
 15 32  1  0  0  0  0
 16 20  1  0  0  0  0
 16 17  1  0  0  0  0
 16 33  1  0  0  0  0
 17 18  1  0  0  0  0
 17 34  1  0  0  0  0
 17 35  1  0  0  0  0
 18 19  1  0  0  0  0
 18 36  1  0  0  0  0
 18 37  1  0  0  0  0
 19 20  1  0  0  0  0
 19 38  1  0  0  0  0
M  END
> <s_m_source_file>
AV-unprocessed.smi

> <i_m_source_file_index>
2871

> <i_lp_mmshare_version>
43012

> <i_f3d_flags>
0

> <s_epik_input>
W0NIM11OKFtDSDNdKWMxW2NIXWMoQyhGKShGKUYpbmMobjEpW05IXVtDQEhdKFtDSDJdW0NAQEhdMjMpW0NAQEhdKE8zKVtDSDJdW0NIMl0y

> <s_epik_cmdline>
J2VwaWtfcHl0aG9uJywgJy1waCcsICc3LjAnLCAnLXRuJywgJzgnLCAnLW1hJywgJzIwMCcsICctbWV0YWxfYmluZGluZycsICctaW1hZScsICc8aW5maWxlLm1hZT4nLCAnLW9tYWUnLCAnPG91dGZpbGUubWFlPic=

> <r_lp_tautomer_probability>
1

> <r_epik_Ionization_Penalty>
0.00695968

> <r_epik_Ionization_Penalty_Charging>
0

> <r_epik_Ionization_Penalty_Neutral>
0.00695968

> <r_epik_State_Penalty>
0.0050343

> <r_epik_Charging_Adjusted_Penalty>
0.0050343

> <i_epik_Tot_Q>
0

> <i_epik_Tot_abs_Q>
0

> <r_epik_Metal_State_Penalty>
-0

> <b_epik_Metal_Only>
0

> <s_lp_Force_Field>
OPLS_2005

> <r_lp_Energy>
32.5714

> <b_lp_Chiralities_Consistent>
1

> <s_lp_Variant>
AV-unprocessed.smi:2871-1

> <Gold.Version>
5.8.1

> <Gold.Id.Protein>
6NUR|6NUR_protein|mol2

> <Gold.PLP.Fitness>
47.0785

> <Gold.PLP.PLP>
-42.2815

> <Gold.PLP.part.hbond>
-2.0000

> <Gold.PLP.part.metal>
0.0000

> <Gold.PLP.part.buried>
-4.0789

> <Gold.PLP.part.nonpolar>
-34.7643

> <Gold.PLP.part.repulsive>
0.2099

> <Gold.PLP.ligand.clash>
0.0000

> <Gold.PLP.ligand.torsion>
0.6065

> <Gold.PLP.Chemscore.Hbond>
1.9920

> <Gold.PLP.Chemscore.CHOScore>
0.0000

> <Gold.PLP.Chemscore.Metal>
0.0000

> <Gold.Chemscore.Hbonds>
donor molecule, donor type, donor heavy atom, donor atom, acceptor molecule, acceptor atom, score
      P1  H  7989  7998       L1    20  0.80
      P1  H  7997  8008       L1    11  0.94

> <Gold.PLP.Chemscore.Internal.Correction>
0.0340

> <Gold.Rescore>
     Score         DG    S(hbond)    S(metal)    S(lipo)     H(rot)  DE(clash)    DE(int)     intcor
     16.90     -17.58       1.37        0.00      86.16       1.00       0.08       0.60       ----

> <Gold.Chemscore.Fitness>
16.8985

> <Gold.Chemscore.DG>
-17.5786

> <Gold.Chemscore.ZeroCoef>
-5.4800

> <Gold.Chemscore.Hbond>
1.3705

> <Gold.Chemscore.Metal>
0.0000

> <Gold.Chemscore.Lipo>
86.1622

> <Gold.Chemscore.Internal_Hbond>
0.0000

> <Gold.Chemscore.DEClash>
0.0768

> <Gold.Chemscore.DEInternal>
0.6032

> <Gold.Chemscore.Rot>
1.0000

> <Gold.Chemscore.Internal.Correction>
   9.000000E+99

> <Gold.Chemscore.Hbonds>
donor molecule, donor type, donor heavy atom, donor atom, acceptor molecule, acceptor atom, score
      P1  H  7989  7998       L1    20  0.12
      P1  H  7997  8008       L1    11  0.22

> <Gold.Chemscore.Hbond.Weighted>
-4.5776

> <Gold.Chemscore.Metal.Weighted>
-0.0000

> <Gold.Chemscore.Lipo.Weighted>
-10.0810

> <Gold.Chemscore.Internal_Hbond.Weighted>
0.0000

> <Gold.Chemscore.DEClash.Weighted>
0.0768

> <Gold.Chemscore.DEInternal.Weighted>
0.6032

> <Gold.Chemscore.Rot.Weighted>
2.5600

> <Gold.Chemscore.Internal.Correction.Weighted>
   9.000000E+99

> <Gold.Protein.RotatedTorsions>
[ 6907 6896 6895 6894 ] final  -88.00 input  -60.11 | X-H torsion
[ 7974 7965 7964 7962 ] final  128.72 input  175.53 | X-H torsion
[ 8008 7997 7996 7995 ] final  -91.03 input   59.86 | X-H torsion
[ 10167 10162 10161 10158 ] final -103.05 input  -65.29 | X-H torsion
[ 10718 10713 10712 10709 ] final -179.62 input   66.30 | X-H torsion
[ 10763 10752 10751 10750 ] final -107.21 input  -60.55 | X-H torsion
[ 11005 11000 10999 10996 ] final  -67.63 input  -57.11 | X-H torsion

> <Gold.Protein.ActiveResidues>
 VAL166  LYS551  ARG553  GLY616  TRP617  ASP618  TYR619  PRO620  LYS621  CYS622 
 ASP623  PHE694  ASN695  SER759  ASP760  ASP761  ALA762  ILE779  LEU786  VAL792 
 PHE793  MET794  SER795  GLU796  ALA797  LYS798  CYS799  TRP800  GLU811  SER814 

> <Gold.Protein.RotatedAtoms>
  150.6867  134.2809  159.4626 H   0  0  0  0  0  0  0  0  0  0  0  0  # atno 6907 bound_to 6896
  152.0723  134.9523  160.0583 H   0  0  0  0  0  0  0  0  0  0  0  0  # atno 6908 bound_to 6896
  152.0908  133.4164  159.4580 H   0  0  0  0  0  0  0  0  0  0  0  0  # atno 6909 bound_to 6896
  145.0364  139.4001  143.5124 H   0  0  0  0  0  0  0  0  0  0  0  0  # atno 7974 bound_to 7965
  154.7057  140.0524  157.0502 H   0  0  0  0  0  0  0  0  0  0  0  0  # atno 8008 bound_to 7997
  155.0623  140.3191  155.4638 H   0  0  0  0  0  0  0  0  0  0  0  0  # atno 8009 bound_to 7997
  156.2774  140.2096  156.5750 H   0  0  0  0  0  0  0  0  0  0  0  0  # atno 8010 bound_to 7997
  140.2242  143.3654  152.0943 H   0  0  0  0  0  0  0  0  0  0  0  0  # atno 10167 bound_to 10162
  156.8618  130.9754  151.3082 H   0  0  0  0  0  0  0  0  0  0  0  0  # atno 10718 bound_to 10713
  154.8061  135.4683  154.0396 H   0  0  0  0  0  0  0  0  0  0  0  0  # atno 10763 bound_to 10752
  153.1864  135.6848  153.8417 H   0  0  0  0  0  0  0  0  0  0  0  0  # atno 10764 bound_to 10752
  153.7949  135.3238  155.3360 H   0  0  0  0  0  0  0  0  0  0  0  0  # atno 10765 bound_to 10752
  141.1513  133.6723  156.6323 H   0  0  0  0  0  0  0  0  0  0  0  0  # atno 11005 bound_to 11000
  146.3504  139.9942  142.8682 LP  0  0  0  0  0  0  0  0  0  0  0  0  # atno 17320 bound_to 7965
  145.1704  140.9718  143.4325 LP  0  0  0  0  0  0  0  0  0  0  0  0  # atno 17321 bound_to 7965
  139.5133  144.6931  151.5706 LP  0  0  0  0  0  0  0  0  0  0  0  0  # atno 17342 bound_to 10162
  140.6233  143.9217  150.6544 LP  0  0  0  0  0  0  0  0  0  0  0  0  # atno 17343 bound_to 10162
  157.6246  130.8681  149.9167 LP  0  0  0  0  0  0  0  0  0  0  0  0  # atno 17370 bound_to 10713
  156.0773  130.3677  150.0652 LP  0  0  0  0  0  0  0  0  0  0  0  0  # atno 17371 bound_to 10713
  140.3457  134.7811  157.4431 LP  0  0  0  0  0  0  0  0  0  0  0  0  # atno 17394 bound_to 11000
  140.0901  134.5613  155.8453 LP  0  0  0  0  0  0  0  0  0  0  0  0  # atno 17395 bound_to 11000

$$$$
