AV-unprocessed.smi:1235|AV-procd|sdf|5175|dock10
  -GOLD-   22720 4253D 1   1.00000     0.00000
 Structure written by MMmdl.
 50 51  0  0  0  0  0  0  0  0  2 V2000
  152.7450  142.5563  159.6816 C   0  0  0  0  0  0  0  0  0  0  0  0
  152.5216  141.2183  159.2722 O   0  0  0  0  0  0  0  0  0  0  0  0
  151.2552  141.0423  158.6603 C   0  0  0  0  0  0  0  0  0  0  0  0
  151.3029  141.6281  157.2411 C   0  0  0  0  0  0  0  0  0  0  0  0
  151.0513  140.6008  156.2254 N   0  0  0  0  0  0  0  0  0  0  0  0
  149.9420  140.8492  155.4345 N   0  0  0  0  0  0  0  0  0  0  0  0
  149.6099  140.0174  154.5006 C   0  0  0  0  0  0  0  0  0  0  0  0
  148.4264  140.2508  153.6267 C   0  0  0  0  0  0  0  0  0  0  0  0
  147.8388  141.3336  153.6000 O   0  0  0  0  0  0  0  0  0  0  0  0
  148.0470  139.2007  152.8759 N   0  0  0  0  0  0  0  0  0  0  0  0
  146.9242  139.1980  151.9457 C   0  0  0  0  0  0  0  0  0  0  0  0
  145.8151  138.2289  152.4050 C   0  0  0  0  0  0  0  0  0  0  0  0
  146.1766  136.7967  152.2008 N   0  3  2  0  0  0  0  0  0  0  0  0
  145.5244  136.2450  150.9770 C   0  0  0  0  0  0  0  0  0  0  0  0
  145.9850  134.8138  150.6706 C   0  0  0  0  0  0  0  0  0  0  0  0
  145.6982  133.8967  151.8585 C   0  0  0  0  0  0  0  0  0  0  0  0
  146.3709  134.4668  153.1091 C   0  0  0  0  0  0  0  0  0  0  0  0
  145.9364  135.9220  153.3967 C   0  0  1  0  0  0  0  0  0  0  0  0
  146.6725  136.4048  154.6648 C   0  0  0  0  0  0  0  0  0  0  0  0
  150.3876  138.8126  154.2657 C   0  0  0  0  0  0  0  0  0  0  0  0
  151.4635  138.5808  155.0495 C   0  0  0  0  0  0  0  0  0  0  0  0
  151.8598  139.5038  156.1144 C   0  0  0  0  0  0  0  0  0  0  0  0
  152.8300  139.3105  156.8463 O   0  0  0  0  0  0  0  0  0  0  0  0
  153.7330  142.6405  160.1346 H   0  0  0  0  0  0  0  0  0  0  0  0
  152.0076  142.8707  160.4216 H   0  0  0  0  0  0  0  0  0  0  0  0
  152.7044  143.2412  158.8334 H   0  0  0  0  0  0  0  0  0  0  0  0
  151.0032  139.9811  158.6254 H   0  0  0  0  0  0  0  0  0  0  0  0
  150.4857  141.5452  159.2485 H   0  0  0  0  0  0  0  0  0  0  0  0
  150.5619  142.4248  157.1536 H   0  0  0  0  0  0  0  0  0  0  0  0
  152.2670  142.1095  157.0671 H   0  0  0  0  0  0  0  0  0  0  0  0
  148.5832  138.3478  152.9520 H   0  0  0  0  0  0  0  0  0  0  0  0
  146.5607  140.2194  151.8373 H   0  0  0  0  0  0  0  0  0  0  0  0
  147.2975  138.8961  150.9668 H   0  0  0  0  0  0  0  0  0  0  0  0
  145.6433  138.4458  153.4559 H   0  0  0  0  0  0  0  0  0  0  0  0
  144.8731  138.4399  151.8969 H   0  0  0  0  0  0  0  0  0  0  0  0
  144.4405  136.2659  151.1027 H   0  0  0  0  0  0  0  0  0  0  0  0
  145.7466  136.8605  150.1076 H   0  0  0  0  0  0  0  0  0  0  0  0
  145.4760  134.4402  149.7815 H   0  0  0  0  0  0  0  0  0  0  0  0
  147.0521  134.8080  150.4439 H   0  0  0  0  0  0  0  0  0  0  0  0
  144.6220  133.8146  152.0170 H   0  0  0  0  0  0  0  0  0  0  0  0
  146.0649  132.8897  151.6566 H   0  0  0  0  0  0  0  0  0  0  0  0
  146.1339  133.8298  153.9622 H   0  0  0  0  0  0  0  0  0  0  0  0
  147.4545  134.4231  152.9869 H   0  0  0  0  0  0  0  0  0  0  0  0
  144.8650  135.9240  153.6041 H   0  0  0  0  0  0  0  0  0  0  0  0
  146.6277  135.6503  155.4511 H   0  0  0  0  0  0  0  0  0  0  0  0
  146.2289  137.3031  155.0923 H   0  0  0  0  0  0  0  0  0  0  0  0
  147.7257  136.6035  154.4635 H   0  0  0  0  0  0  0  0  0  0  0  0
  150.1182  138.1135  153.4872 H   0  0  0  0  0  0  0  0  0  0  0  0
  152.0500  137.6885  154.8872 H   0  0  0  0  0  0  0  0  0  0  0  0
  147.1729  136.7739  152.0371 H   0  0  0  0  0  0  0  0  0  0  0  0
  1  2  1  0  0  0  0
  1 24  1  0  0  0  0
  1 25  1  0  0  0  0
  1 26  1  0  0  0  0
  2  3  1  0  0  0  0
  3  4  1  0  0  0  0
  3 27  1  0  0  0  0
  3 28  1  0  0  0  0
  4  5  1  0  0  0  0
  4 29  1  0  0  0  0
  4 30  1  0  0  0  0
  5 22  1  0  0  0  0
  5  6  1  0  0  0  0
  6  7  2  0  0  0  0
  7  8  1  0  0  0  0
  7 20  1  0  0  0  0
  8  9  2  0  0  0  0
  8 10  1  0  0  0  0
 10 11  1  0  0  0  0
 10 31  1  0  0  0  0
 11 12  1  0  0  0  0
 11 32  1  0  0  0  0
 11 33  1  0  0  0  0
 12 13  1  0  0  0  0
 12 34  1  0  0  0  0
 12 35  1  0  0  0  0
 13 18  1  0  0  0  0
 13 14  1  0  0  0  0
 13 50  1  0  0  0  0
 14 15  1  0  0  0  0
 14 36  1  0  0  0  0
 14 37  1  0  0  0  0
 15 16  1  0  0  0  0
 15 38  1  0  0  0  0
 15 39  1  0  0  0  0
 16 17  1  0  0  0  0
 16 40  1  0  0  0  0
 16 41  1  0  0  0  0
 17 18  1  0  0  0  0
 17 42  1  0  0  0  0
 17 43  1  0  0  0  0
 18 19  1  0  0  0  0
 18 44  1  0  0  0  0
 19 45  1  0  0  0  0
 19 46  1  0  0  0  0
 19 47  1  0  0  0  0
 20 21  2  0  0  0  0
 20 48  1  0  0  0  0
 21 22  1  0  0  0  0
 21 49  1  0  0  0  0
 22 23  2  0  0  0  0
M  CHG  1  13   1
M  END
> <s_m_source_file>
AV-unprocessed.smi

> <i_m_source_file_index>
1235

> <i_lp_mmshare_version>
43012

> <i_f3d_flags>
0

> <s_epik_input>
W0NIM11PW0NIMl1bQ0gyXW4xbmMoW2NIXVtjSF1jMT1PKUMoPU8pW05IXVtDSDJdW0NIMl1OMltDSDJdW0NIMl1bQ0gyXVtDSDJdW0NASF0yW0NIM10=

> <s_epik_cmdline>
J2VwaWtfcHl0aG9uJywgJy1waCcsICc3LjAnLCAnLXRuJywgJzgnLCAnLW1hJywgJzIwMCcsICctbWV0YWxfYmluZGluZycsICctaW1hZScsICc8aW5maWxlLm1hZT4nLCAnLW9tYWUnLCAnPG91dGZpbGUubWFlPic=

> <r_lp_tautomer_probability>
1

> <r_epik_Ionization_Penalty>
0.00271975

> <r_epik_Ionization_Penalty_Charging>
0.00271407

> <r_epik_Ionization_Penalty_Neutral>
5.6803e-06

> <r_epik_State_Penalty>
0.00189271

> <r_epik_Charging_Adjusted_Penalty>
0.00460678

> <i_epik_Tot_Q>
1

> <i_epik_Tot_abs_Q>
1

> <r_epik_Metal_State_Penalty>
-0

> <b_epik_Metal_Only>
0

> <s_lp_Force_Field>
OPLS_2005

> <r_lp_Energy>
40.0899

> <b_lp_Chiralities_Consistent>
1

> <s_lp_Variant>
AV-unprocessed.smi:1235-1

> <Gold.Version>
5.8.1

> <Gold.Id.Protein>
6NUR|6NUR_protein|mol2

> <Gold.PLP.Fitness>
53.0121

> <Gold.PLP.PLP>
-44.1555

> <Gold.PLP.part.hbond>
-4.0000

> <Gold.PLP.part.metal>
0.0000

> <Gold.PLP.part.buried>
-3.3882

> <Gold.PLP.part.nonpolar>
-36.5349

> <Gold.PLP.part.repulsive>
0.3289

> <Gold.PLP.ligand.clash>
0.0139

> <Gold.PLP.ligand.torsion>
1.1892

> <Gold.PLP.Chemscore.Hbond>
3.7160

> <Gold.PLP.Chemscore.CHOScore>
0.0000

> <Gold.PLP.Chemscore.Metal>
0.0000

> <Gold.Chemscore.Hbonds>
donor molecule, donor type, donor heavy atom, donor atom, acceptor molecule, acceptor atom, score
      L1  H    10    31       P1  7948  0.09
      L1  H    13    50       P1  7948  2.00
      P1  H  7997  8009       L1    23  0.98

> <Gold.PLP.Chemscore.Internal.Correction>
0.1009

> <Gold.Rescore>
     Score         DG    S(hbond)    S(metal)    S(lipo)     H(rot)  DE(clash)    DE(int)     intcor
     16.59     -19.36       2.75        0.00      84.03       2.00       1.29       1.48       ----

> <Gold.Chemscore.Fitness>
16.5868

> <Gold.Chemscore.DG>
-19.3553

> <Gold.Chemscore.ZeroCoef>
-5.4800

> <Gold.Chemscore.Hbond>
2.7451

> <Gold.Chemscore.Metal>
0.0000

> <Gold.Chemscore.Lipo>
84.0318

> <Gold.Chemscore.Internal_Hbond>
0.0000

> <Gold.Chemscore.DEClash>
1.2933

> <Gold.Chemscore.DEInternal>
1.4752

> <Gold.Chemscore.Rot>
2.0020

> <Gold.Chemscore.Internal.Correction>
   9.000000E+99

> <Gold.Chemscore.Hbonds>
donor molecule, donor type, donor heavy atom, donor atom, acceptor molecule, acceptor atom, score
      L1  H    10    31       P1  7948  0.12
      L1  H    13    50       P1  7948  1.00
      P1  H  7997  8009       L1    23  0.80

> <Gold.Chemscore.Hbond.Weighted>
-9.1687

> <Gold.Chemscore.Metal.Weighted>
-0.0000

> <Gold.Chemscore.Lipo.Weighted>
-9.8317

> <Gold.Chemscore.Internal_Hbond.Weighted>
0.0000

> <Gold.Chemscore.DEClash.Weighted>
1.2933

> <Gold.Chemscore.DEInternal.Weighted>
1.4752

> <Gold.Chemscore.Rot.Weighted>
5.1252

> <Gold.Chemscore.Internal.Correction.Weighted>
   9.000000E+99

> <Gold.Protein.RotatedTorsions>
[ 6907 6896 6895 6894 ] final  172.39 input  -60.11 | X-H torsion
[ 7974 7965 7964 7962 ] final  -72.02 input  175.53 | X-H torsion
[ 8008 7997 7996 7995 ] final -155.36 input   59.86 | X-H torsion
[ 10167 10162 10161 10158 ] final  -96.34 input  -65.29 | X-H torsion
[ 10718 10713 10712 10709 ] final  144.99 input   66.30 | X-H torsion
[ 10763 10752 10751 10750 ] final   50.00 input  -60.55 | X-H torsion
[ 11005 11000 10999 10996 ] final  -97.34 input  -57.11 | X-H torsion

> <Gold.Protein.ActiveResidues>
 VAL166  LYS551  ARG553  GLY616  TRP617  ASP618  TYR619  PRO620  LYS621  CYS622 
 ASP623  PHE694  ASN695  SER759  ASP760  ASP761  ALA762  ILE779  LEU786  VAL792 
 PHE793  MET794  SER795  GLU796  ALA797  LYS798  CYS799  TRP800  GLU811  SER814 

> <Gold.Protein.RotatedAtoms>
  151.7851  133.3353  159.3482 H   0  0  0  0  0  0  0  0  0  0  0  0  # atno 6907 bound_to 6896
  150.7412  134.5895  159.5989 H   0  0  0  0  0  0  0  0  0  0  0  0  # atno 6908 bound_to 6896
  152.3249  134.7335  160.0356 H   0  0  0  0  0  0  0  0  0  0  0  0  # atno 6909 bound_to 6896
  145.6706  140.9222  143.0885 H   0  0  0  0  0  0  0  0  0  0  0  0  # atno 7974 bound_to 7965
  155.7006  140.0766  157.2411 H   0  0  0  0  0  0  0  0  0  0  0  0  # atno 8008 bound_to 7997
  154.4073  140.1648  156.2240 H   0  0  0  0  0  0  0  0  0  0  0  0  # atno 8009 bound_to 7997
  155.9371  140.3387  155.6299 H   0  0  0  0  0  0  0  0  0  0  0  0  # atno 8010 bound_to 7997
  140.2948  143.3199  152.0309 H   0  0  0  0  0  0  0  0  0  0  0  0  # atno 10167 bound_to 10162
  157.3507  131.0950  151.1003 H   0  0  0  0  0  0  0  0  0  0  0  0  # atno 10718 bound_to 10713
  152.9785  135.5893  154.4181 H   0  0  0  0  0  0  0  0  0  0  0  0  # atno 10763 bound_to 10752
  154.3808  135.2767  155.2214 H   0  0  0  0  0  0  0  0  0  0  0  0  # atno 10764 bound_to 10752
  154.4128  135.6077  153.6017 H   0  0  0  0  0  0  0  0  0  0  0  0  # atno 10765 bound_to 10752
  141.1382  133.8164  157.0693 H   0  0  0  0  0  0  0  0  0  0  0  0  # atno 11005 bound_to 11000
  144.7058  139.8567  143.7430 LP  0  0  0  0  0  0  0  0  0  0  0  0  # atno 17320 bound_to 7965
  146.1048  139.4047  143.0324 LP  0  0  0  0  0  0  0  0  0  0  0  0  # atno 17321 bound_to 7965
  139.4929  144.6499  151.6698 LP  0  0  0  0  0  0  0  0  0  0  0  0  # atno 17342 bound_to 10162
  140.5702  144.0122  150.6213 LP  0  0  0  0  0  0  0  0  0  0  0  0  # atno 17343 bound_to 10162
  157.2180  130.6468  149.5800 LP  0  0  0  0  0  0  0  0  0  0  0  0  # atno 17370 bound_to 10713
  155.9721  130.4638  150.6196 LP  0  0  0  0  0  0  0  0  0  0  0  0  # atno 17371 bound_to 10713
  140.0521  134.9800  157.1156 LP  0  0  0  0  0  0  0  0  0  0  0  0  # atno 17394 bound_to 11000
  140.3974  134.2120  155.7164 LP  0  0  0  0  0  0  0  0  0  0  0  0  # atno 17395 bound_to 11000

$$$$
