AV-unprocessed.smi:2623|AV-procd|sdf|10229|dock7
  -GOLD-   2272014233D 1   1.00000     0.00000
 Structure written by MMmdl.
 40 42  0  0  0  0  0  0  0  0  1 V2000
  150.8085  140.0440  154.4427 O   0  0  0  0  0  0  0  0  0  0  0  0
  150.9673  139.5216  155.7434 C   0  0  0  0  0  0  0  0  0  0  0  0
  151.2990  140.5733  156.7585 C   0  0  0  0  0  0  0  0  0  0  0  0
  151.1655  141.8721  156.4862 N   0  0  0  0  0  0  0  0  0  0  0  0
  151.5467  142.4731  157.6692 C   0  0  0  0  0  0  0  0  0  0  0  0
  151.6175  143.8392  158.0238 C   0  0  0  0  0  0  0  0  0  0  0  0
  152.0359  144.2208  159.3153 C   0  0  0  0  0  0  0  0  0  0  0  0
  152.3869  143.2440  160.2694 C   0  0  0  0  0  0  0  0  0  0  0  0
  152.3238  141.8772  159.9363 C   0  0  0  0  0  0  0  0  0  0  0  0
  151.9095  141.5015  158.6442 C   0  0  0  0  0  0  0  0  0  0  0  0
  151.7468  140.2752  158.0060 N   0  0  0  0  0  0  0  0  0  0  0  0
  151.9970  138.9673  158.6003 C   0  0  0  0  0  0  0  0  0  0  0  0
  153.4699  138.7724  159.0155 C   0  0  2  0  0  0  0  0  0  0  0  0
  154.2851  138.6599  157.8668 O   0  0  0  0  0  0  0  0  0  0  0  0
  153.6729  137.5199  159.8796 C   0  0  0  0  0  0  0  0  0  0  0  0
  153.2018  137.7880  161.1940 O   0  0  0  0  0  0  0  0  0  0  0  0
  153.4577  136.8614  162.1818 C   0  0  0  0  0  0  0  0  0  0  0  0
  153.0244  137.1810  163.4854 C   0  0  0  0  0  0  0  0  0  0  0  0
  153.2452  136.2936  164.5563 C   0  0  0  0  0  0  0  0  0  0  0  0
  153.9036  135.0707  164.3321 C   0  0  0  0  0  0  0  0  0  0  0  0
  154.3409  134.7385  163.0364 C   0  0  0  0  0  0  0  0  0  0  0  0
  154.1213  135.6269  161.9654 C   0  0  0  0  0  0  0  0  0  0  0  0
  150.5103  139.3501  153.8748 H   0  0  0  0  0  0  0  0  0  0  0  0
  150.0390  139.0258  156.0299 H   0  0  0  0  0  0  0  0  0  0  0  0
  151.7387  138.7516  155.7410 H   0  0  0  0  0  0  0  0  0  0  0  0
  151.3477  144.5949  157.3009 H   0  0  0  0  0  0  0  0  0  0  0  0
  152.0861  145.2680  159.5756 H   0  0  0  0  0  0  0  0  0  0  0  0
  152.7045  143.5444  161.2572 H   0  0  0  0  0  0  0  0  0  0  0  0
  152.5909  141.1273  160.6660 H   0  0  0  0  0  0  0  0  0  0  0  0
  151.3494  138.8719  159.4726 H   0  0  0  0  0  0  0  0  0  0  0  0
  151.6933  138.1787  157.9132 H   0  0  0  0  0  0  0  0  0  0  0  0
  153.8158  139.6429  159.5735 H   0  0  0  0  0  0  0  0  0  0  0  0
  154.2091  137.7800  157.5297 H   0  0  0  0  0  0  0  0  0  0  0  0
  153.1422  136.6727  159.4415 H   0  0  0  0  0  0  0  0  0  0  0  0
  154.7347  137.2703  159.9208 H   0  0  0  0  0  0  0  0  0  0  0  0
  152.5177  138.1175  163.6664 H   0  0  0  0  0  0  0  0  0  0  0  0
  152.9091  136.5518  165.5498 H   0  0  0  0  0  0  0  0  0  0  0  0
  154.0738  134.3892  165.1525 H   0  0  0  0  0  0  0  0  0  0  0  0
  154.8468  133.8003  162.8624 H   0  0  0  0  0  0  0  0  0  0  0  0
  154.4730  135.3377  160.9869 H   0  0  0  0  0  0  0  0  0  0  0  0
  1  2  1  0  0  0  0
  1 23  1  0  0  0  0
  2  3  1  0  0  0  0
  2 24  1  0  0  0  0
  2 25  1  0  0  0  0
  3 11  1  0  0  0  0
  3  4  2  0  0  0  0
  4  5  1  0  0  0  0
  5 10  2  0  0  0  0
  5  6  1  0  0  0  0
  6  7  2  0  0  0  0
  6 26  1  0  0  0  0
  7  8  1  0  0  0  0
  7 27  1  0  0  0  0
  8  9  2  0  0  0  0
  8 28  1  0  0  0  0
  9 10  1  0  0  0  0
  9 29  1  0  0  0  0
 10 11  1  0  0  0  0
 11 12  1  0  0  0  0
 12 13  1  0  0  0  0
 12 30  1  0  0  0  0
 12 31  1  0  0  0  0
 13 14  1  0  0  0  0
 13 15  1  0  0  0  0
 13 32  1  0  0  0  0
 14 33  1  0  0  0  0
 15 16  1  0  0  0  0
 15 34  1  0  0  0  0
 15 35  1  0  0  0  0
 16 17  1  0  0  0  0
 17 22  1  0  0  0  0
 17 18  2  0  0  0  0
 18 19  1  0  0  0  0
 18 36  1  0  0  0  0
 19 20  2  0  0  0  0
 19 37  1  0  0  0  0
 20 21  1  0  0  0  0
 20 38  1  0  0  0  0
 21 22  2  0  0  0  0
 21 39  1  0  0  0  0
 22 40  1  0  0  0  0
M  END
> <s_m_source_file>
AV-unprocessed.smi

> <i_m_source_file_index>
2623

> <i_lp_mmshare_version>
43012

> <i_f3d_flags>
0

> <s_epik_input>
W2NIXTFbY0hdW2NIXVtjSF1jKGMxMiluKGMobjIpW0NIMl1bT0hdKVtDSDJdW0NASF0oW09IXSlbQ0gyXU9jM1tjSF1bY0hdW2NIXVtjSF1bY0hdMw==

> <s_epik_cmdline>
J2VwaWtfcHl0aG9uJywgJy1waCcsICc3LjAnLCAnLXRuJywgJzgnLCAnLW1hJywgJzIwMCcsICctbWV0YWxfYmluZGluZycsICctaW1hZScsICc8aW5maWxlLm1hZT4nLCAnLW9tYWUnLCAnPG91dGZpbGUubWFlPic=

> <r_lp_tautomer_probability>
1

> <r_epik_Ionization_Penalty>
0.0583159

> <r_epik_Ionization_Penalty_Charging>
0

> <r_epik_Ionization_Penalty_Neutral>
0.0583159

> <r_epik_State_Penalty>
0.0503525

> <r_epik_Charging_Adjusted_Penalty>
0.0503525

> <i_epik_Tot_Q>
0

> <i_epik_Tot_abs_Q>
0

> <r_epik_Metal_State_Penalty>
5.25517e-05

> <b_epik_Metal_Only>
0

> <s_lp_Force_Field>
OPLS_2005

> <r_lp_Energy>
14.6276

> <b_lp_Chiralities_Consistent>
1

> <s_lp_Variant>
AV-unprocessed.smi:2623-1

> <Gold.Version>
5.8.1

> <Gold.Id.Protein>
6NUR|6NUR_protein|mol2

> <Gold.PLP.Fitness>
51.8904

> <Gold.PLP.PLP>
-47.5308

> <Gold.PLP.part.hbond>
-1.3114

> <Gold.PLP.part.metal>
0.0000

> <Gold.PLP.part.buried>
-6.4138

> <Gold.PLP.part.nonpolar>
-39.6208

> <Gold.PLP.part.repulsive>
0.0713

> <Gold.PLP.ligand.clash>
0.0000

> <Gold.PLP.ligand.torsion>
0.3770

> <Gold.PLP.Chemscore.Hbond>
1.6721

> <Gold.PLP.Chemscore.CHOScore>
0.0000

> <Gold.PLP.Chemscore.Metal>
0.0000

> <Gold.Chemscore.Hbonds>
donor molecule, donor type, donor heavy atom, donor atom, acceptor molecule, acceptor atom, score
      P1  H  7989  7998       L1     1  0.93
      P1  H  7997  8010       L1    14  1.00

> <Gold.PLP.Chemscore.Internal.Correction>
0.0972

> <Gold.Rescore>
     Score         DG    S(hbond)    S(metal)    S(lipo)     H(rot)  DE(clash)    DE(int)     intcor
     17.64     -18.22       1.76        0.00     124.98       3.04       0.02       0.56       ----

> <Gold.Chemscore.Fitness>
17.6379

> <Gold.Chemscore.DG>
-18.2167

> <Gold.Chemscore.ZeroCoef>
-5.4800

> <Gold.Chemscore.Hbond>
1.7623

> <Gold.Chemscore.Metal>
0.0000

> <Gold.Chemscore.Lipo>
124.9765

> <Gold.Chemscore.Internal_Hbond>
0.0000

> <Gold.Chemscore.DEClash>
0.0222

> <Gold.Chemscore.DEInternal>
0.5566

> <Gold.Chemscore.Rot>
3.0358

> <Gold.Chemscore.Internal.Correction>
   9.000000E+99

> <Gold.Chemscore.Hbonds>
donor molecule, donor type, donor heavy atom, donor atom, acceptor molecule, acceptor atom, score
      P1  H  7989  7998       L1     1  0.27
      P1  H  7997  8010       L1    14  0.90

> <Gold.Chemscore.Hbond.Weighted>
-5.8861

> <Gold.Chemscore.Metal.Weighted>
-0.0000

> <Gold.Chemscore.Lipo.Weighted>
-14.6223

> <Gold.Chemscore.Internal_Hbond.Weighted>
0.0000

> <Gold.Chemscore.DEClash.Weighted>
0.0222

> <Gold.Chemscore.DEInternal.Weighted>
0.5566

> <Gold.Chemscore.Rot.Weighted>
7.7716

> <Gold.Chemscore.Internal.Correction.Weighted>
   9.000000E+99

> <Gold.Protein.RotatedTorsions>
[ 6907 6896 6895 6894 ] final  -84.19 input  -60.11 | X-H torsion
[ 7974 7965 7964 7962 ] final -127.71 input  175.53 | X-H torsion
[ 8008 7997 7996 7995 ] final   24.64 input   59.86 | X-H torsion
[ 10167 10162 10161 10158 ] final -144.93 input  -65.29 | X-H torsion
[ 10718 10713 10712 10709 ] final   29.35 input   66.30 | X-H torsion
[ 10763 10752 10751 10750 ] final   82.57 input  -60.55 | X-H torsion
[ 11005 11000 10999 10996 ] final  -65.53 input  -57.11 | X-H torsion

> <Gold.Protein.ActiveResidues>
 VAL166  LYS551  ARG553  GLY616  TRP617  ASP618  TYR619  PRO620  LYS621  CYS622 
 ASP623  PHE694  ASN695  SER759  ASP760  ASP761  ALA762  ILE779  LEU786  VAL792 
 PHE793  MET794  SER795  GLU796  ALA797  LYS798  CYS799  TRP800  GLU811  SER814 

> <Gold.Protein.RotatedAtoms>
  150.6878  134.3397  159.4862 H   0  0  0  0  0  0  0  0  0  0  0  0  # atno 6907 bound_to 6896
  152.1251  134.9174  160.0570 H   0  0  0  0  0  0  0  0  0  0  0  0  # atno 6908 bound_to 6896
  152.0365  133.3924  159.4356 H   0  0  0  0  0  0  0  0  0  0  0  0  # atno 6909 bound_to 6896
  144.9744  140.7577  143.4651 H   0  0  0  0  0  0  0  0  0  0  0  0  # atno 7974 bound_to 7965
  154.9994  140.3123  155.4873 H   0  0  0  0  0  0  0  0  0  0  0  0  # atno 8008 bound_to 7997
  156.2927  140.2234  156.5044 H   0  0  0  0  0  0  0  0  0  0  0  0  # atno 8009 bound_to 7997
  154.7632  140.0457  157.0978 H   0  0  0  0  0  0  0  0  0  0  0  0  # atno 8010 bound_to 7997
  139.7853  143.8043  152.2644 H   0  0  0  0  0  0  0  0  0  0  0  0  # atno 10167 bound_to 10162
  157.2455  130.7089  149.6379 H   0  0  0  0  0  0  0  0  0  0  0  0  # atno 10718 bound_to 10713
  153.1214  135.4723  154.9202 H   0  0  0  0  0  0  0  0  0  0  0  0  # atno 10763 bound_to 10752
  154.7579  135.3123  154.8437 H   0  0  0  0  0  0  0  0  0  0  0  0  # atno 10764 bound_to 10752
  153.9000  135.6876  153.4809 H   0  0  0  0  0  0  0  0  0  0  0  0  # atno 10765 bound_to 10752
  141.1457  133.6683  156.6001 H   0  0  0  0  0  0  0  0  0  0  0  0  # atno 11005 bound_to 11000
  145.2512  139.2031  143.4941 LP  0  0  0  0  0  0  0  0  0  0  0  0  # atno 17320 bound_to 7965
  146.3391  140.2425  142.8596 LP  0  0  0  0  0  0  0  0  0  0  0  0  # atno 17321 bound_to 7965
  139.8118  144.7333  150.9688 LP  0  0  0  0  0  0  0  0  0  0  0  0  # atno 17342 bound_to 10162
  140.7819  143.4244  151.0792 LP  0  0  0  0  0  0  0  0  0  0  0  0  # atno 17343 bound_to 10162
  155.9668  130.4444  150.5461 LP  0  0  0  0  0  0  0  0  0  0  0  0  # atno 17370 bound_to 10713
  157.3334  131.0703  151.1843 LP  0  0  0  0  0  0  0  0  0  0  0  0  # atno 17371 bound_to 10713
  140.3695  134.7618  157.4589 LP  0  0  0  0  0  0  0  0  0  0  0  0  # atno 17394 bound_to 11000
  140.0721  134.5847  155.8630 LP  0  0  0  0  0  0  0  0  0  0  0  0  # atno 17395 bound_to 11000

$$$$
