AV-unprocessed.smi:1527|AV-procd|sdf|6149|dock7
  -GOLD-   22720 6293D 1   1.00000     0.00000
 Structure written by MMmdl.
 31 31  0  0  0  0  0  0  0  0  1 V2000
  151.3281  145.1177  159.3761 C   0  0  0  0  0  0  0  0  0  0  0  0
  152.2843  144.2322  160.1890 C   0  0  0  0  0  0  0  0  0  0  0  0
  152.1271  142.7280  159.8986 C   0  0  2  0  0  0  0  0  0  0  0  0
  153.3087  141.9134  160.4459 C   0  0  0  0  0  0  0  0  0  0  0  0
  151.9958  142.5047  158.4607 N   0  0  0  0  0  0  0  0  0  0  0  0
  151.5422  141.3824  157.8817 C   0  0  0  0  0  0  0  0  0  0  0  0
  151.2132  140.3779  158.5141 O   0  0  0  0  0  0  0  0  0  0  0  0
  151.4702  141.3963  156.3484 C   0  0  0  0  0  0  0  0  0  0  0  0
  151.3593  140.0498  155.7702 N   0  0  0  0  0  0  0  0  0  0  0  0
  150.2663  139.8782  154.9343 N   0  0  0  0  0  0  0  0  0  0  0  0
  150.0687  138.7413  154.3574 C   0  0  0  0  0  0  0  0  0  0  0  0
  148.9766  138.6167  153.5344 O   0  0  0  0  0  0  0  0  0  0  0  0
  150.9675  137.6279  154.5684 C   0  0  0  0  0  0  0  0  0  0  0  0
  152.0275  137.8036  155.3874 C   0  0  0  0  0  0  0  0  0  0  0  0
  152.2828  139.0806  156.0562 C   0  0  0  0  0  0  0  0  0  0  0  0
  153.2399  139.2690  156.8072 O   0  0  0  0  0  0  0  0  0  0  0  0
  149.2567  138.9482  152.6951 H   0  0  0  0  0  0  0  0  0  0  0  0
  151.4474  146.1667  159.6477 H   0  0  0  0  0  0  0  0  0  0  0  0
  150.2885  144.8437  159.5582 H   0  0  0  0  0  0  0  0  0  0  0  0
  151.5132  145.0328  158.3050 H   0  0  0  0  0  0  0  0  0  0  0  0
  153.3127  144.5414  159.9976 H   0  0  0  0  0  0  0  0  0  0  0  0
  152.1068  144.4121  161.2499 H   0  0  0  0  0  0  0  0  0  0  0  0
  151.2218  142.3891  160.4058 H   0  0  0  0  0  0  0  0  0  0  0  0
  153.4139  142.0506  161.5225 H   0  0  0  0  0  0  0  0  0  0  0  0
  154.2482  142.2116  159.9791 H   0  0  0  0  0  0  0  0  0  0  0  0
  153.1693  140.8472  160.2640 H   0  0  0  0  0  0  0  0  0  0  0  0
  152.2489  143.2749  157.8587 H   0  0  0  0  0  0  0  0  0  0  0  0
  150.6301  142.0111  156.0189 H   0  0  0  0  0  0  0  0  0  0  0  0
  152.3644  141.8978  155.9744 H   0  0  0  0  0  0  0  0  0  0  0  0
  150.7869  136.6824  154.0785 H   0  0  0  0  0  0  0  0  0  0  0  0
  152.7068  136.9807  155.5542 H   0  0  0  0  0  0  0  0  0  0  0  0
  1  2  1  0  0  0  0
  1 18  1  0  0  0  0
  1 19  1  0  0  0  0
  1 20  1  0  0  0  0
  2  3  1  0  0  0  0
  2 21  1  0  0  0  0
  2 22  1  0  0  0  0
  3  4  1  0  0  0  0
  3  5  1  0  0  0  0
  3 23  1  0  0  0  0
  4 24  1  0  0  0  0
  4 25  1  0  0  0  0
  4 26  1  0  0  0  0
  5  6  1  0  0  0  0
  5 27  1  0  0  0  0
  6  7  2  0  0  0  0
  6  8  1  0  0  0  0
  8 28  1  0  0  0  0
  8 29  1  0  0  0  0
  8  9  1  0  0  0  0
  9 10  1  0  0  0  0
  9 15  1  0  0  0  0
 10 11  2  0  0  0  0
 11 12  1  0  0  0  0
 11 13  1  0  0  0  0
 12 17  1  0  0  0  0
 13 30  1  0  0  0  0
 13 14  2  0  0  0  0
 14 31  1  0  0  0  0
 14 15  1  0  0  0  0
 15 16  2  0  0  0  0
M  END
> <s_m_source_file>
AV-unprocessed.smi

> <i_m_source_file_index>
1527

> <i_lp_mmshare_version>
43012

> <i_f3d_flags>
0

> <s_epik_input>
W0NIM11bQ0gyXVtDQEhdKFtDSDNdKVtOSF1DKD1PKVtDSDJdbjFbbkhdYyg9TylbY0hdW2NIXWMxPU8=

> <s_epik_cmdline>
J2VwaWtfcHl0aG9uJywgJy1waCcsICc3LjAnLCAnLXRuJywgJzgnLCAnLW1hJywgJzIwMCcsICctbWV0YWxfYmluZGluZycsICctaW1hZScsICc8aW5maWxlLm1hZT4nLCAnLW9tYWUnLCAnPG91dGZpbGUubWFlPic=

> <r_lp_tautomer_probability>
0.9996

> <r_epik_Ionization_Penalty>
2.12171

> <r_epik_Ionization_Penalty_Charging>
3.79077e-08

> <r_epik_Ionization_Penalty_Neutral>
2.12171

> <r_epik_State_Penalty>
1.69857

> <r_epik_Charging_Adjusted_Penalty>
1.69857

> <i_epik_Tot_Q>
0

> <i_epik_Tot_abs_Q>
0

> <r_epik_Metal_State_Penalty>
1.69857

> <b_epik_Metal_Only>
0

> <s_lp_Force_Field>
OPLS_2005

> <r_lp_Energy>
14.661

> <b_lp_Chiralities_Consistent>
1

> <s_lp_Variant>
AV-unprocessed.smi:1527-3

> <Gold.Version>
5.8.1

> <Gold.Id.Protein>
6NUR|6NUR_protein|mol2

> <Gold.PLP.Fitness>
41.9757

> <Gold.PLP.PLP>
-35.2321

> <Gold.PLP.part.hbond>
-3.5657

> <Gold.PLP.part.metal>
0.0000

> <Gold.PLP.part.buried>
-5.6768

> <Gold.PLP.part.nonpolar>
-26.0912

> <Gold.PLP.part.repulsive>
0.1300

> <Gold.PLP.ligand.clash>
0.0000

> <Gold.PLP.ligand.torsion>
0.5351

> <Gold.PLP.Chemscore.Hbond>
2.6000

> <Gold.PLP.Chemscore.CHOScore>
0.0000

> <Gold.PLP.Chemscore.Metal>
0.0000

> <Gold.Chemscore.Hbonds>
donor molecule, donor type, donor heavy atom, donor atom, acceptor molecule, acceptor atom, score
      L1  H    12    17       P1  7957  1.00
      P1  H  7989  7998       L1    10  0.05
      P1  H  7997  8010       L1    16  0.76

> <Gold.PLP.Chemscore.Internal.Correction>
0.0138

> <Gold.Rescore>
     Score         DG    S(hbond)    S(metal)    S(lipo)     H(rot)  DE(clash)    DE(int)     intcor
     12.64     -13.08       1.99        0.00      64.51       2.58       0.01       0.44       ----

> <Gold.Chemscore.Fitness>
12.6356

> <Gold.Chemscore.DG>
-13.0837

> <Gold.Chemscore.ZeroCoef>
-5.4800

> <Gold.Chemscore.Hbond>
1.9947

> <Gold.Chemscore.Metal>
0.0000

> <Gold.Chemscore.Lipo>
64.5106

> <Gold.Chemscore.Internal_Hbond>
0.0000

> <Gold.Chemscore.DEClash>
0.0063

> <Gold.Chemscore.DEInternal>
0.4418

> <Gold.Chemscore.Rot>
2.5806

> <Gold.Chemscore.Internal.Correction>
   9.000000E+99

> <Gold.Chemscore.Hbonds>
donor molecule, donor type, donor heavy atom, donor atom, acceptor molecule, acceptor atom, score
      L1  H    12    17       P1  7957  0.97
      P1  H  7997  8010       L1    16  0.73

> <Gold.Chemscore.Hbond.Weighted>
-6.6622

> <Gold.Chemscore.Metal.Weighted>
-0.0000

> <Gold.Chemscore.Lipo.Weighted>
-7.5477

> <Gold.Chemscore.Internal_Hbond.Weighted>
0.0000

> <Gold.Chemscore.DEClash.Weighted>
0.0063

> <Gold.Chemscore.DEInternal.Weighted>
0.4418

> <Gold.Chemscore.Rot.Weighted>
6.6063

> <Gold.Chemscore.Internal.Correction.Weighted>
   9.000000E+99

> <Gold.Protein.RotatedTorsions>
[ 6907 6896 6895 6894 ] final  162.18 input  -60.11 | X-H torsion
[ 7974 7965 7964 7962 ] final   41.17 input  175.53 | X-H torsion
[ 8008 7997 7996 7995 ] final   73.87 input   59.86 | X-H torsion
[ 10167 10162 10161 10158 ] final   25.40 input  -65.29 | X-H torsion
[ 10718 10713 10712 10709 ] final  176.84 input   66.30 | X-H torsion
[ 10763 10752 10751 10750 ] final  -96.67 input  -60.55 | X-H torsion
[ 11005 11000 10999 10996 ] final  -98.73 input  -57.11 | X-H torsion

> <Gold.Protein.ActiveResidues>
 VAL166  LYS551  ARG553  GLY616  TRP617  ASP618  TYR619  PRO620  LYS621  CYS622 
 ASP623  PHE694  ASN695  SER759  ASP760  ASP761  ALA762  ILE779  LEU786  VAL792 
 PHE793  MET794  SER795  GLU796  ALA797  LYS798  CYS799  TRP800  GLU811  SER814 

> <Gold.Protein.RotatedAtoms>
  151.9444  133.3647  159.3976 H   0  0  0  0  0  0  0  0  0  0  0  0  # atno 6907 bound_to 6896
  150.6992  134.4406  159.5299 H   0  0  0  0  0  0  0  0  0  0  0  0  # atno 6908 bound_to 6896
  152.2068  134.8538  160.0552 H   0  0  0  0  0  0  0  0  0  0  0  0  # atno 6909 bound_to 6896
  146.0845  139.5447  142.9515 H   0  0  0  0  0  0  0  0  0  0  0  0  # atno 7974 bound_to 7965
  155.7901  140.3479  155.5344 H   0  0  0  0  0  0  0  0  0  0  0  0  # atno 8008 bound_to 7997
  155.8643  140.0976  157.1613 H   0  0  0  0  0  0  0  0  0  0  0  0  # atno 8009 bound_to 7997
  154.4013  140.1352  156.3986 H   0  0  0  0  0  0  0  0  0  0  0  0  # atno 8010 bound_to 7997
  140.5109  144.0162  150.6372 H   0  0  0  0  0  0  0  0  0  0  0  0  # atno 10167 bound_to 10162
  156.9141  130.9919  151.3016 H   0  0  0  0  0  0  0  0  0  0  0  0  # atno 10718 bound_to 10713
  154.7260  135.5075  153.8887 H   0  0  0  0  0  0  0  0  0  0  0  0  # atno 10763 bound_to 10752
  153.0905  135.6658  153.9872 H   0  0  0  0  0  0  0  0  0  0  0  0  # atno 10764 bound_to 10752
  153.9684  135.3041  155.3408 H   0  0  0  0  0  0  0  0  0  0  0  0  # atno 10765 bound_to 10752
  141.1334  133.8267  157.0878 H   0  0  0  0  0  0  0  0  0  0  0  0  # atno 11005 bound_to 11000
  145.6156  141.0332  143.1943 LP  0  0  0  0  0  0  0  0  0  0  0  0  # atno 17320 bound_to 7965
  144.7316  139.7709  143.7345 LP  0  0  0  0  0  0  0  0  0  0  0  0  # atno 17321 bound_to 7965
  140.3484  143.2977  152.0513 LP  0  0  0  0  0  0  0  0  0  0  0  0  # atno 17342 bound_to 10162
  139.4896  144.6391  151.6913 LP  0  0  0  0  0  0  0  0  0  0  0  0  # atno 17343 bound_to 10162
  157.5949  130.8470  149.8714 LP  0  0  0  0  0  0  0  0  0  0  0  0  # atno 17370 bound_to 10713
  156.0522  130.3715  150.1175 LP  0  0  0  0  0  0  0  0  0  0  0  0  # atno 17371 bound_to 10713
  140.0411  134.9854  157.0963 LP  0  0  0  0  0  0  0  0  0  0  0  0  # atno 17394 bound_to 11000
  140.4134  134.1957  155.7163 LP  0  0  0  0  0  0  0  0  0  0  0  0  # atno 17395 bound_to 11000

$$$$
