AV-unprocessed.smi:1209|AV-procd|sdf|5073|dock5
  -GOLD-   22720 4123D 1   1.00000     0.00000
 Structure written by MMmdl.
 49 51  0  0  0  0  0  0  0  0  2 V2000
  144.4838  136.5191  156.5541 C   0  0  0  0  0  0  0  0  0  0  0  0
  145.7375  137.1740  156.0843 C   0  0  0  0  0  0  0  0  0  0  0  0
  146.1905  137.5406  154.8490 C   0  0  0  0  0  0  0  0  0  0  0  0
  147.4643  138.1138  155.1149 C   0  0  0  0  0  0  0  0  0  0  0  0
  148.4462  138.6945  154.1337 C   0  0  0  0  0  0  0  0  0  0  0  0
  147.8509  139.8015  153.3409 N   0  3  1  0  0  0  0  0  0  0  0  0
  146.7220  139.3508  152.4883 C   0  0  0  0  0  0  0  0  0  0  0  0
  147.5003  140.9753  154.1842 C   0  0  0  0  0  0  0  0  0  0  0  0
  148.4508  141.1446  155.3865 C   0  0  2  0  0  0  0  0  0  0  0  0
  147.9938  142.2260  156.1772 O   0  0  0  0  0  0  0  0  0  0  0  0
  149.9011  141.4122  154.9378 C   0  0  0  0  0  0  0  0  0  0  0  0
  150.8725  141.0566  155.9571 N   0  0  0  0  0  0  0  0  0  0  0  0
  151.6411  139.9510  155.9910 C   0  0  0  0  0  0  0  0  0  0  0  0
  152.4654  139.8136  157.0252 N   0  0  0  0  0  0  0  0  0  0  0  0
  152.2025  140.9655  157.7466 C   0  0  0  0  0  0  0  0  0  0  0  0
  152.7474  141.4286  158.9641 C   0  0  0  0  0  0  0  0  0  0  0  0
  152.3234  142.6524  159.5290 C   0  0  0  0  0  0  0  0  0  0  0  0
  152.9333  143.1095  160.8424 C   0  0  0  0  0  0  0  0  0  0  0  0
  151.3407  143.4356  158.8717 C   0  0  0  0  0  0  0  0  0  0  0  0
  150.8712  144.7545  159.4596 C   0  0  0  0  0  0  0  0  0  0  0  0
  150.7855  142.9876  157.6547 C   0  0  0  0  0  0  0  0  0  0  0  0
  151.2135  141.7664  157.1040 C   0  0  0  0  0  0  0  0  0  0  0  0
  147.7540  138.0888  156.4057 N   0  0  0  0  0  0  0  0  0  0  0  0
  146.6541  137.4943  157.0336 O   0  0  0  0  0  0  0  0  0  0  0  0
  143.9098  136.1284  155.7136 H   0  0  0  0  0  0  0  0  0  0  0  0
  143.8554  137.2289  157.0923 H   0  0  0  0  0  0  0  0  0  0  0  0
  144.7078  135.6887  157.2239 H   0  0  0  0  0  0  0  0  0  0  0  0
  145.6877  137.4149  153.9013 H   0  0  0  0  0  0  0  0  0  0  0  0
  149.3472  139.0480  154.6385 H   0  0  0  0  0  0  0  0  0  0  0  0
  148.7669  137.8958  153.4638 H   0  0  0  0  0  0  0  0  0  0  0  0
  145.9141  138.9414  153.0961 H   0  0  0  0  0  0  0  0  0  0  0  0
  147.0401  138.5810  151.7855 H   0  0  0  0  0  0  0  0  0  0  0  0
  146.3144  140.1672  151.8938 H   0  0  0  0  0  0  0  0  0  0  0  0
  147.4999  141.8737  153.5650 H   0  0  0  0  0  0  0  0  0  0  0  0
  146.4843  140.8751  154.5690 H   0  0  0  0  0  0  0  0  0  0  0  0
  148.4427  140.2481  156.0056 H   0  0  0  0  0  0  0  0  0  0  0  0
  148.4277  143.0161  155.8927 H   0  0  0  0  0  0  0  0  0  0  0  0
  150.1278  140.8378  154.0386 H   0  0  0  0  0  0  0  0  0  0  0  0
  150.0368  142.4624  154.6766 H   0  0  0  0  0  0  0  0  0  0  0  0
  151.5907  139.2029  155.2133 H   0  0  0  0  0  0  0  0  0  0  0  0
  153.4965  140.8322  159.4638 H   0  0  0  0  0  0  0  0  0  0  0  0
  153.4674  144.0503  160.7086 H   0  0  0  0  0  0  0  0  0  0  0  0
  153.6400  142.3754  161.2299 H   0  0  0  0  0  0  0  0  0  0  0  0
  152.1579  143.2549  161.5946 H   0  0  0  0  0  0  0  0  0  0  0  0
  150.1485  145.2462  158.8079 H   0  0  0  0  0  0  0  0  0  0  0  0
  151.7130  145.4338  159.5963 H   0  0  0  0  0  0  0  0  0  0  0  0
  150.3951  144.5928  160.4268 H   0  0  0  0  0  0  0  0  0  0  0  0
  150.0348  143.5741  157.1466 H   0  0  0  0  0  0  0  0  0  0  0  0
  148.5819  140.1188  152.7195 H   0  0  0  0  0  0  0  0  0  0  0  0
  1  2  1  0  0  0  0
  1 25  1  0  0  0  0
  1 26  1  0  0  0  0
  1 27  1  0  0  0  0
  2 24  1  0  0  0  0
  2  3  2  0  0  0  0
  3  4  1  0  0  0  0
  3 28  1  0  0  0  0
  4  5  1  0  0  0  0
  4 23  2  0  0  0  0
  5  6  1  0  0  0  0
  5 29  1  0  0  0  0
  5 30  1  0  0  0  0
  6  7  1  0  0  0  0
  6  8  1  0  0  0  0
  6 49  1  0  0  0  0
  7 31  1  0  0  0  0
  7 32  1  0  0  0  0
  7 33  1  0  0  0  0
  8  9  1  0  0  0  0
  8 34  1  0  0  0  0
  8 35  1  0  0  0  0
  9 10  1  0  0  0  0
  9 11  1  0  0  0  0
  9 36  1  0  0  0  0
 10 37  1  0  0  0  0
 11 12  1  0  0  0  0
 11 38  1  0  0  0  0
 11 39  1  0  0  0  0
 12 22  1  0  0  0  0
 12 13  1  0  0  0  0
 13 14  2  0  0  0  0
 13 40  1  0  0  0  0
 14 15  1  0  0  0  0
 15 22  2  0  0  0  0
 15 16  1  0  0  0  0
 16 17  2  0  0  0  0
 16 41  1  0  0  0  0
 17 18  1  0  0  0  0
 17 19  1  0  0  0  0
 18 42  1  0  0  0  0
 18 43  1  0  0  0  0
 18 44  1  0  0  0  0
 19 20  1  0  0  0  0
 19 21  2  0  0  0  0
 20 45  1  0  0  0  0
 20 46  1  0  0  0  0
 20 47  1  0  0  0  0
 21 22  1  0  0  0  0
 21 48  1  0  0  0  0
 23 24  1  0  0  0  0
M  CHG  1   6   1
M  END
> <s_m_source_file>
AV-unprocessed.smi

> <i_m_source_file_index>
1209

> <i_lp_mmshare_version>
43012

> <i_f3d_flags>
0

> <s_epik_input>
W0NIM11jMVtjSF1jKG5vMSlbQ0gyXU4oW0NIM10pW0NIMl1bQ0BIXShbT0hdKVtDSDJdbihbY0hdbjIpYyhjMjMpW2NIXWMoW0NIM10pYyhbY0hdMylbQ0gzXQ==

> <s_epik_cmdline>
J2VwaWtfcHl0aG9uJywgJy1waCcsICc3LjAnLCAnLXRuJywgJzgnLCAnLW1hJywgJzIwMCcsICctbWV0YWxfYmluZGluZycsICctaW1hZScsICc8aW5maWxlLm1hZT4nLCAnLW9tYWUnLCAnPG91dGZpbGUubWFlPic=

> <r_epik_Ionization_Penalty>
2.05249

> <r_epik_Ionization_Penalty_Charging>
1.96618

> <r_epik_Ionization_Penalty_Neutral>
0.0863156

> <r_epik_State_Penalty>
2.19215

> <r_epik_Charging_Adjusted_Penalty>
4.15833

> <i_epik_Tot_Q>
1

> <i_epik_Tot_abs_Q>
1

> <r_epik_Metal_State_Penalty>
2.17654

> <b_epik_Metal_Only>
0

> <s_lp_Force_Field>
OPLS_2005

> <r_lp_Energy>
10.2768

> <b_lp_Chiralities_Consistent>
1

> <s_lp_Variant>
AV-unprocessed.smi:1209-5

> <Gold.Version>
5.8.1

> <Gold.Id.Protein>
6NUR|6NUR_protein|mol2

> <Gold.PLP.Fitness>
47.3799

> <Gold.PLP.PLP>
-39.6261

> <Gold.PLP.part.hbond>
-3.0000

> <Gold.PLP.part.metal>
0.0000

> <Gold.PLP.part.buried>
-3.3032

> <Gold.PLP.part.nonpolar>
-33.4378

> <Gold.PLP.part.repulsive>
0.0743

> <Gold.PLP.ligand.clash>
0.0000

> <Gold.PLP.ligand.torsion>
0.7529

> <Gold.PLP.Chemscore.Hbond>
3.0000

> <Gold.PLP.Chemscore.CHOScore>
0.0000

> <Gold.PLP.Chemscore.Metal>
0.0000

> <Gold.Chemscore.Hbonds>
donor molecule, donor type, donor heavy atom, donor atom, acceptor molecule, acceptor atom, score
      L1  H     6    49       P1  7957  1.00
      L1  H    10    37       P1  8028  1.00
      P1  H  7997  8010       L1    14  1.00

> <Gold.PLP.Chemscore.Internal.Correction>
0.2597

> <Gold.Rescore>
     Score         DG    S(hbond)    S(metal)    S(lipo)     H(rot)  DE(clash)    DE(int)     intcor
     19.20     -20.21       2.63        0.00     106.34       2.53       0.43       0.58       ----

> <Gold.Chemscore.Fitness>
19.2030

> <Gold.Chemscore.DG>
-20.2131

> <Gold.Chemscore.ZeroCoef>
-5.4800

> <Gold.Chemscore.Hbond>
2.6276

> <Gold.Chemscore.Metal>
0.0000

> <Gold.Chemscore.Lipo>
106.3429

> <Gold.Chemscore.Internal_Hbond>
0.0000

> <Gold.Chemscore.DEClash>
0.4348

> <Gold.Chemscore.DEInternal>
0.5752

> <Gold.Chemscore.Rot>
2.5332

> <Gold.Chemscore.Internal.Correction>
   9.000000E+99

> <Gold.Chemscore.Hbonds>
donor molecule, donor type, donor heavy atom, donor atom, acceptor molecule, acceptor atom, score
      L1  H     6    49       P1  7957  0.97
      L1  H    10    37       P1  8028  0.97
      P1  H  7997  8010       L1    14  0.24

> <Gold.Chemscore.Hbond.Weighted>
-8.7760

> <Gold.Chemscore.Metal.Weighted>
-0.0000

> <Gold.Chemscore.Lipo.Weighted>
-12.4421

> <Gold.Chemscore.Internal_Hbond.Weighted>
0.0000

> <Gold.Chemscore.DEClash.Weighted>
0.4348

> <Gold.Chemscore.DEInternal.Weighted>
0.5752

> <Gold.Chemscore.Rot.Weighted>
6.4851

> <Gold.Chemscore.Internal.Correction.Weighted>
   9.000000E+99

> <Gold.Protein.RotatedTorsions>
[ 6907 6896 6895 6894 ] final  -57.06 input  -60.11 | X-H torsion
[ 7974 7965 7964 7962 ] final   75.90 input  175.53 | X-H torsion
[ 8008 7997 7996 7995 ] final   68.25 input   59.86 | X-H torsion
[ 10167 10162 10161 10158 ] final -159.09 input  -65.29 | X-H torsion
[ 10718 10713 10712 10709 ] final    1.73 input   66.30 | X-H torsion
[ 10763 10752 10751 10750 ] final  170.42 input  -60.55 | X-H torsion
[ 11005 11000 10999 10996 ] final   17.02 input  -57.11 | X-H torsion

> <Gold.Protein.ActiveResidues>
 VAL166  LYS551  ARG553  GLY616  TRP617  ASP618  TYR619  PRO620  LYS621  CYS622 
 ASP623  PHE694  ASN695  SER759  ASP760  ASP761  ALA762  ILE779  LEU786  VAL792 
 PHE793  MET794  SER795  GLU796  ALA797  LYS798  CYS799  TRP800  GLU811  SER814 

> <Gold.Protein.RotatedAtoms>
  150.8117  134.7275  159.6693 H   0  0  0  0  0  0  0  0  0  0  0  0  # atno 6907 bound_to 6896
  152.4236  134.5906  159.9983 H   0  0  0  0  0  0  0  0  0  0  0  0  # atno 6908 bound_to 6896
  151.6114  133.3310  159.3104 H   0  0  0  0  0  0  0  0  0  0  0  0  # atno 6909 bound_to 6896
  145.7097  139.2610  143.1658 H   0  0  0  0  0  0  0  0  0  0  0  0  # atno 7974 bound_to 7965
  155.7055  140.3495  155.4951 H   0  0  0  0  0  0  0  0  0  0  0  0  # atno 8008 bound_to 7997
  155.9402  140.1100  157.1083 H   0  0  0  0  0  0  0  0  0  0  0  0  # atno 8009 bound_to 7997
  154.4101  140.1214  156.4904 H   0  0  0  0  0  0  0  0  0  0  0  0  # atno 8010 bound_to 7997
  139.6642  143.9859  152.2244 H   0  0  0  0  0  0  0  0  0  0  0  0  # atno 10167 bound_to 10162
  156.8525  130.5559  149.5668 H   0  0  0  0  0  0  0  0  0  0  0  0  # atno 10718 bound_to 10713
  154.3973  135.2754  155.2118 H   0  0  0  0  0  0  0  0  0  0  0  0  # atno 10763 bound_to 10752
  154.4159  135.6011  153.5984 H   0  0  0  0  0  0  0  0  0  0  0  0  # atno 10764 bound_to 10752
  152.9831  135.5960  154.4236 H   0  0  0  0  0  0  0  0  0  0  0  0  # atno 10765 bound_to 10752
  140.4406  134.1325  155.7690 H   0  0  0  0  0  0  0  0  0  0  0  0  # atno 11005 bound_to 11000
  146.0724  140.7854  142.9681 LP  0  0  0  0  0  0  0  0  0  0  0  0  # atno 17320 bound_to 7965
  144.6945  140.3362  143.7207 LP  0  0  0  0  0  0  0  0  0  0  0  0  # atno 17321 bound_to 7965
  139.9606  144.6560  150.8083 LP  0  0  0  0  0  0  0  0  0  0  0  0  # atno 17342 bound_to 10162
  140.7592  143.3124  151.2812 LP  0  0  0  0  0  0  0  0  0  0  0  0  # atno 17343 bound_to 10162
  156.0820  130.5828  150.9580 LP  0  0  0  0  0  0  0  0  0  0  0  0  # atno 17370 bound_to 10713
  157.6295  131.0922  150.8469 LP  0  0  0  0  0  0  0  0  0  0  0  0  # atno 17371 bound_to 10713
  141.1707  133.8614  157.1579 LP  0  0  0  0  0  0  0  0  0  0  0  0  # atno 17394 bound_to 11000
  140.0072  135.0003  157.0318 LP  0  0  0  0  0  0  0  0  0  0  0  0  # atno 17395 bound_to 11000

$$$$
