AV-unprocessed.smi:1240|AV-procd|sdf|5207|dock2
  -GOLD-   22720 4293D 1   1.00000     0.00000
 Structure written by MMmdl.
 49 51  0  0  0  0  0  0  0  0  3 V2000
  145.7991  137.3798  154.6650 O   0  0  0  0  0  0  0  0  0  0  0  0
  146.7293  137.1006  153.9097 C   0  0  0  0  0  0  0  0  0  0  0  0
  146.8253  135.9349  153.2567 N   0  0  0  0  0  0  0  0  0  0  0  0
  145.8393  134.8615  153.3086 C   0  0  0  0  0  0  0  0  0  0  0  0
  144.7302  135.0229  152.2340 C   0  0  2  0  0  0  0  0  0  0  0  0
  143.3152  135.2765  152.8289 C   0  0  2  0  0  0  0  0  0  0  0  0
  143.2829  136.3165  153.9377 C   0  0  0  0  0  0  0  0  0  0  0  0
  141.9419  136.0355  154.6024 C   0  0  0  0  0  0  0  0  0  0  0  0
  141.7907  134.6245  154.5379 O   0  0  0  0  0  0  0  0  0  0  0  0
  142.6649  134.0867  153.5502 C   0  0  0  0  0  0  0  0  0  0  0  0
  144.6854  133.8564  151.3008 N   0  3  0  0  0  0  0  0  0  0  0  0
  143.7402  134.0202  150.1692 C   0  0  0  0  0  0  0  0  0  0  0  0
  143.6206  132.7017  149.3855 C   0  0  0  0  0  0  0  0  0  0  0  0
  144.9074  132.2857  148.9432 O   0  0  0  0  0  0  0  0  0  0  0  0
  145.7967  132.0489  150.0281 C   0  0  0  0  0  0  0  0  0  0  0  0
  145.9970  133.3516  150.8200 C   0  0  0  0  0  0  0  0  0  0  0  0
  147.7781  137.8963  153.6372 N   0  0  0  0  0  0  0  0  0  0  0  0
  148.0282  139.2239  154.0806 C   0  0  0  0  0  0  0  0  0  0  0  0
  146.9193  140.0918  154.1939 C   0  0  0  0  0  0  0  0  0  0  0  0
  147.1121  141.4122  154.6485 C   0  0  0  0  0  0  0  0  0  0  0  0
  148.3505  141.8350  154.9803 N   0  3  0  0  0  0  0  0  0  0  0  0
  149.4388  141.0396  154.9011 C   0  0  0  0  0  0  0  0  0  0  0  0
  149.3082  139.7093  154.4530 C   0  0  0  0  0  0  0  0  0  0  0  0
  147.6311  135.7845  152.6672 H   0  0  0  0  0  0  0  0  0  0  0  0
  146.3761  133.9223  153.1752 H   0  0  0  0  0  0  0  0  0  0  0  0
  145.3886  134.8289  154.3018 H   0  0  0  0  0  0  0  0  0  0  0  0
  144.9775  135.8967  151.6286 H   0  0  0  0  0  0  0  0  0  0  0  0
  142.6359  135.6001  152.0391 H   0  0  0  0  0  0  0  0  0  0  0  0
  144.0946  136.1467  154.6469 H   0  0  0  0  0  0  0  0  0  0  0  0
  143.3571  137.3407  153.5711 H   0  0  0  0  0  0  0  0  0  0  0  0
  141.8960  136.3977  155.6295 H   0  0  0  0  0  0  0  0  0  0  0  0
  141.1319  136.5012  154.0395 H   0  0  0  0  0  0  0  0  0  0  0  0
  142.1132  133.4412  152.8666 H   0  0  0  0  0  0  0  0  0  0  0  0
  143.4139  133.4793  154.0595 H   0  0  0  0  0  0  0  0  0  0  0  0
  142.7573  134.3122  150.5405 H   0  0  0  0  0  0  0  0  0  0  0  0
  144.0819  134.8135  149.5039 H   0  0  0  0  0  0  0  0  0  0  0  0
  143.1659  131.9231  150.0003 H   0  0  0  0  0  0  0  0  0  0  0  0
  142.9758  132.8384  148.5171 H   0  0  0  0  0  0  0  0  0  0  0  0
  145.4060  131.2579  150.6703 H   0  0  0  0  0  0  0  0  0  0  0  0
  146.7503  131.6977  149.6336 H   0  0  0  0  0  0  0  0  0  0  0  0
  146.4762  134.0911  150.1775 H   0  0  0  0  0  0  0  0  0  0  0  0
  146.6683  133.1670  151.6581 H   0  0  0  0  0  0  0  0  0  0  0  0
  148.5042  137.4896  153.0656 H   0  0  0  0  0  0  0  0  0  0  0  0
  145.9270  139.7536  153.9322 H   0  0  0  0  0  0  0  0  0  0  0  0
  146.3177  142.1360  154.7585 H   0  0  0  0  0  0  0  0  0  0  0  0
  150.3750  141.4860  155.2031 H   0  0  0  0  0  0  0  0  0  0  0  0
  150.1896  139.0878  154.4180 H   0  0  0  0  0  0  0  0  0  0  0  0
  144.2951  133.1058  151.8528 H   0  0  0  0  0  0  0  0  0  0  0  0
  148.4684  142.7938  155.3090 H   0  0  0  0  0  0  0  0  0  0  0  0
  1  2  2  0  0  0  0
  2  3  1  0  0  0  0
  2 17  1  0  0  0  0
  3  4  1  0  0  0  0
  3 24  1  0  0  0  0
  4  5  1  0  0  0  0
  4 25  1  0  0  0  0
  4 26  1  0  0  0  0
  5  6  1  0  0  0  0
  5 11  1  0  0  0  0
  5 27  1  0  0  0  0
  6 10  1  0  0  0  0
  6  7  1  0  0  0  0
  6 28  1  0  0  0  0
  7  8  1  0  0  0  0
  7 29  1  0  0  0  0
  7 30  1  0  0  0  0
  8  9  1  0  0  0  0
  8 31  1  0  0  0  0
  8 32  1  0  0  0  0
  9 10  1  0  0  0  0
 10 33  1  0  0  0  0
 10 34  1  0  0  0  0
 11 16  1  0  0  0  0
 11 12  1  0  0  0  0
 11 48  1  0  0  0  0
 12 13  1  0  0  0  0
 12 35  1  0  0  0  0
 12 36  1  0  0  0  0
 13 14  1  0  0  0  0
 13 37  1  0  0  0  0
 13 38  1  0  0  0  0
 14 15  1  0  0  0  0
 15 16  1  0  0  0  0
 15 39  1  0  0  0  0
 15 40  1  0  0  0  0
 16 41  1  0  0  0  0
 16 42  1  0  0  0  0
 17 18  1  0  0  0  0
 17 43  1  0  0  0  0
 18 23  1  0  0  0  0
 18 19  2  0  0  0  0
 19 20  1  0  0  0  0
 19 44  1  0  0  0  0
 20 21  2  0  0  0  0
 20 45  1  0  0  0  0
 21 22  1  0  0  0  0
 21 49  1  0  0  0  0
 22 23  2  0  0  0  0
 22 46  1  0  0  0  0
 23 47  1  0  0  0  0
M  CHG  1  11   1
M  CHG  1  21   1
M  END
> <s_m_source_file>
AV-unprocessed.smi

> <i_m_source_file_index>
1240

> <i_lp_mmshare_version>
43012

> <i_f3d_flags>
0

> <s_epik_input>
W2NIXTFbY0hdbltjSF1bY0hdYzFbTkhdQyg9TylbTkhdW0NIMl1bQ0BIXShbQ0BASF0yW0NIMl1bQ0gyXU9bQ0gyXTIpTjNbQ0gyXVtDSDJdT1tDSDJdW0NIMl0z

> <s_epik_cmdline>
J2VwaWtfcHl0aG9uJywgJy1waCcsICc3LjAnLCAnLXRuJywgJzgnLCAnLW1hJywgJzIwMCcsICctbWV0YWxfYmluZGluZycsICctaW1hZScsICc8aW5maWxlLm1hZT4nLCAnLW9tYWUnLCAnPG91dGZpbGUubWFlPic=

> <r_epik_Ionization_Penalty>
2.08105

> <r_epik_Ionization_Penalty_Charging>
2.08103

> <r_epik_Ionization_Penalty_Neutral>
2.04144e-05

> <r_epik_State_Penalty>
2.15598

> <r_epik_Charging_Adjusted_Penalty>
4.23701

> <i_epik_Tot_Q>
2

> <i_epik_Tot_abs_Q>
2

> <r_epik_Metal_State_Penalty>
2.25158

> <b_epik_Metal_Only>
0

> <s_lp_Force_Field>
OPLS_2005

> <r_lp_Energy>
50.7828

> <b_lp_Chiralities_Consistent>
1

> <s_lp_Variant>
AV-unprocessed.smi:1240-13

> <Gold.Version>
5.8.1

> <Gold.Id.Protein>
6NUR|6NUR_protein|mol2

> <Gold.PLP.Fitness>
47.7766

> <Gold.PLP.PLP>
-37.3674

> <Gold.PLP.part.hbond>
-4.1597

> <Gold.PLP.part.metal>
0.0000

> <Gold.PLP.part.buried>
-4.4843

> <Gold.PLP.part.nonpolar>
-31.1812

> <Gold.PLP.part.repulsive>
0.8267

> <Gold.PLP.ligand.clash>
0.0000

> <Gold.PLP.ligand.torsion>
1.4074

> <Gold.PLP.Chemscore.Hbond>
4.3173

> <Gold.PLP.Chemscore.CHOScore>
0.0000

> <Gold.PLP.Chemscore.Metal>
0.0000

> <Gold.Chemscore.Hbonds>
donor molecule, donor type, donor heavy atom, donor atom, acceptor molecule, acceptor atom, score
      L1  H     3    24       P1  7948  1.00
      L1  H    17    43       P1  7948  0.96
      L1  H    21    49       P1  8028  2.00
      P1  H 11000 11005       L1     9  0.74

> <Gold.PLP.Chemscore.Internal.Correction>
0.2723

> <Gold.Rescore>
     Score         DG    S(hbond)    S(metal)    S(lipo)     H(rot)  DE(clash)    DE(int)     intcor
     19.49     -23.40       3.42        0.00      93.81       1.74       0.33       3.57       ----

> <Gold.Chemscore.Fitness>
19.4942

> <Gold.Chemscore.DG>
-23.4020

> <Gold.Chemscore.ZeroCoef>
-5.4800

> <Gold.Chemscore.Hbond>
3.4150

> <Gold.Chemscore.Metal>
0.0000

> <Gold.Chemscore.Lipo>
93.8079

> <Gold.Chemscore.Internal_Hbond>
0.0000

> <Gold.Chemscore.DEClash>
0.3336

> <Gold.Chemscore.DEInternal>
3.5742

> <Gold.Chemscore.Rot>
1.7421

> <Gold.Chemscore.Internal.Correction>
   9.000000E+99

> <Gold.Chemscore.Hbonds>
donor molecule, donor type, donor heavy atom, donor atom, acceptor molecule, acceptor atom, score
      L1  H     3    24       P1  7948  0.97
      L1  H    17    43       P1  7948  0.92
      L1  H    21    49       P1  8028  0.97
      P1  H 11000 11005       L1     9  0.43

> <Gold.Chemscore.Hbond.Weighted>
-11.4062

> <Gold.Chemscore.Metal.Weighted>
-0.0000

> <Gold.Chemscore.Lipo.Weighted>
-10.9755

> <Gold.Chemscore.Internal_Hbond.Weighted>
0.0000

> <Gold.Chemscore.DEClash.Weighted>
0.3336

> <Gold.Chemscore.DEInternal.Weighted>
3.5742

> <Gold.Chemscore.Rot.Weighted>
4.4597

> <Gold.Chemscore.Internal.Correction.Weighted>
   9.000000E+99

> <Gold.Protein.RotatedTorsions>
[ 6907 6896 6895 6894 ] final  -28.81 input  -60.11 | X-H torsion
[ 7974 7965 7964 7962 ] final  128.00 input  175.53 | X-H torsion
[ 8008 7997 7996 7995 ] final   78.65 input   59.86 | X-H torsion
[ 10167 10162 10161 10158 ] final  161.07 input  -65.29 | X-H torsion
[ 10718 10713 10712 10709 ] final  -13.42 input   66.30 | X-H torsion
[ 10763 10752 10751 10750 ] final  -28.18 input  -60.55 | X-H torsion
[ 11005 11000 10999 10996 ] final   20.51 input  -57.11 | X-H torsion

> <Gold.Protein.ActiveResidues>
 VAL166  LYS551  ARG553  GLY616  TRP617  ASP618  TYR619  PRO620  LYS621  CYS622 
 ASP623  PHE694  ASN695  SER759  ASP760  ASP761  ALA762  ILE779  LEU786  VAL792 
 PHE793  MET794  SER795  GLU796  ALA797  LYS798  CYS799  TRP800  GLU811  SER814 

> <Gold.Protein.RotatedAtoms>
  151.1278  135.0114  159.8567 H   0  0  0  0  0  0  0  0  0  0  0  0  # atno 6907 bound_to 6896
  152.5450  134.1646  159.8582 H   0  0  0  0  0  0  0  0  0  0  0  0  # atno 6908 bound_to 6896
  151.1710  133.4739  159.2627 H   0  0  0  0  0  0  0  0  0  0  0  0  # atno 6909 bound_to 6896
  145.0443  139.3936  143.5086 H   0  0  0  0  0  0  0  0  0  0  0  0  # atno 7974 bound_to 7965
  155.8587  140.3455  155.5742 H   0  0  0  0  0  0  0  0  0  0  0  0  # atno 8008 bound_to 7997
  155.7957  140.0878  157.2004 H   0  0  0  0  0  0  0  0  0  0  0  0  # atno 8009 bound_to 7997
  154.4011  140.1475  156.3203 H   0  0  0  0  0  0  0  0  0  0  0  0  # atno 8010 bound_to 7997
  139.4846  144.4572  151.8752 H   0  0  0  0  0  0  0  0  0  0  0  0  # atno 10167 bound_to 10162
  156.6305  130.4900  149.6131 H   0  0  0  0  0  0  0  0  0  0  0  0  # atno 10718 bound_to 10713
  153.7441  135.6930  153.4960 H   0  0  0  0  0  0  0  0  0  0  0  0  # atno 10763 bound_to 10752
  153.2048  135.4423  155.0309 H   0  0  0  0  0  0  0  0  0  0  0  0  # atno 10764 bound_to 10752
  154.8210  135.3422  154.6965 H   0  0  0  0  0  0  0  0  0  0  0  0  # atno 10765 bound_to 10752
  140.4018  134.1710  155.7664 H   0  0  0  0  0  0  0  0  0  0  0  0  # atno 11005 bound_to 11000
  146.3512  140.0061  142.8671 LP  0  0  0  0  0  0  0  0  0  0  0  0  # atno 17320 bound_to 7965
  145.1607  140.9671  143.4379 LP  0  0  0  0  0  0  0  0  0  0  0  0  # atno 17321 bound_to 7965
  140.4032  144.2466  150.5892 LP  0  0  0  0  0  0  0  0  0  0  0  0  # atno 17342 bound_to 10162
  140.5037  143.2310  151.8640 LP  0  0  0  0  0  0  0  0  0  0  0  0  # atno 17343 bound_to 10162
  156.2238  130.6753  151.1395 LP  0  0  0  0  0  0  0  0  0  0  0  0  # atno 17370 bound_to 10713
  157.7201  131.0686  150.6170 LP  0  0  0  0  0  0  0  0  0  0  0  0  # atno 17371 bound_to 10713
  141.1854  133.8325  157.1107 LP  0  0  0  0  0  0  0  0  0  0  0  0  # atno 17394 bound_to 11000
  140.0330  134.9892  157.0818 LP  0  0  0  0  0  0  0  0  0  0  0  0  # atno 17395 bound_to 11000

$$$$
