AV-unprocessed.smi:592|AV-procd|sdf|3011|dock9
  -GOLD-   2262023523D 1   1.00000     0.00000
 Structure written by MMmdl.
 28 29  0  0  0  0  0  0  0  0  2 V2000
  152.2115  141.2564  157.7593 O   0  0  0  0  0  0  0  0  0  0  0  0
  151.9175  142.4124  157.4579 C   0  0  0  0  0  0  0  0  0  0  0  0
  152.4843  143.6171  158.2276 C   0  0  0  0  0  0  0  0  0  0  0  0
  152.6117  143.3748  159.6756 N   0  0  0  0  0  0  0  0  0  0  0  0
  153.3522  142.2434  160.0729 C   0  0  0  0  0  0  0  0  0  0  0  0
  153.5328  141.9304  161.3657 C   0  0  0  0  0  0  0  0  0  0  0  0
  152.9438  142.7901  162.3649 C   0  0  0  0  0  0  0  0  0  0  0  0
  152.2291  143.8717  161.9964 C   0  0  0  0  0  0  0  0  0  0  0  0
  152.0258  144.2153  160.5842 C   0  0  0  0  0  0  0  0  0  0  0  0
  151.3679  145.1968  160.2376 O   0  0  0  0  0  0  0  0  0  0  0  0
  151.0057  142.6089  156.3568 N   0  0  0  0  0  0  0  0  0  0  0  0
  150.3802  141.7277  155.5363 C   0  0  0  0  0  0  0  0  0  0  0  0
  149.4010  142.0672  154.6856 N   0  3  0  0  0  0  0  0  0  0  0  0
  148.7858  141.0220  153.8531 C   0  0  0  0  0  0  0  0  0  0  0  0
  149.4607  139.6741  154.1543 C   0  0  0  0  0  0  0  0  0  0  0  0
  150.7041  139.9684  155.4273 S   0  0  0  0  0  0  0  0  0  0  0  0
  153.4632  143.8663  157.8185 H   0  0  0  0  0  0  0  0  0  0  0  0
  151.8436  144.4843  158.0648 H   0  0  0  0  0  0  0  0  0  0  0  0
  153.7551  141.6484  159.2661 H   0  0  0  0  0  0  0  0  0  0  0  0
  154.1005  141.0570  161.6508 H   0  0  0  0  0  0  0  0  0  0  0  0
  153.0762  142.5644  163.4128 H   0  0  0  0  0  0  0  0  0  0  0  0
  151.7950  144.5025  162.7582 H   0  0  0  0  0  0  0  0  0  0  0  0
  150.7385  143.5540  156.1223 H   0  0  0  0  0  0  0  0  0  0  0  0
  147.7179  140.9743  154.0680 H   0  0  0  0  0  0  0  0  0  0  0  0
  148.8969  141.2843  152.8008 H   0  0  0  0  0  0  0  0  0  0  0  0
  148.7360  138.9420  154.5114 H   0  0  0  0  0  0  0  0  0  0  0  0
  149.9388  139.2658  153.2634 H   0  0  0  0  0  0  0  0  0  0  0  0
  149.0736  143.0199  154.6087 H   0  0  0  0  0  0  0  0  0  0  0  0
  1  2  2  0  0  0  0
  2  3  1  0  0  0  0
  2 11  1  0  0  0  0
  3  4  1  0  0  0  0
  3 17  1  0  0  0  0
  3 18  1  0  0  0  0
  4  9  1  0  0  0  0
  4  5  1  0  0  0  0
  5  6  2  0  0  0  0
  5 19  1  0  0  0  0
  6  7  1  0  0  0  0
  6 20  1  0  0  0  0
  7  8  2  0  0  0  0
  7 21  1  0  0  0  0
  8  9  1  0  0  0  0
  8 22  1  0  0  0  0
  9 10  2  0  0  0  0
 11 12  1  0  0  0  0
 11 23  1  0  0  0  0
 12 16  1  0  0  0  0
 12 13  2  0  0  0  0
 13 14  1  0  0  0  0
 13 28  1  0  0  0  0
 14 15  1  0  0  0  0
 14 24  1  0  0  0  0
 14 25  1  0  0  0  0
 15 16  1  0  0  0  0
 15 26  1  0  0  0  0
 15 27  1  0  0  0  0
M  CHG  1  13   1
M  END
> <s_m_source_file>
AV-unprocessed.smi

> <i_m_source_file_index>
592

> <i_lp_mmshare_version>
43012

> <i_f3d_flags>
0

> <s_epik_input>
UzFbQ0gyXVtDSDJdTj1DMVtOSF1DKD1PKVtDSDJdbjJbY0hdW2NIXVtjSF1bY0hdYzI9Tw==

> <s_epik_cmdline>
J2VwaWtfcHl0aG9uJywgJy1waCcsICc3LjAnLCAnLXRuJywgJzgnLCAnLW1hJywgJzIwMCcsICctbWV0YWxfYmluZGluZycsICctaW1hZScsICc8aW5maWxlLm1hZT4nLCAnLW9tYWUnLCAnPG91dGZpbGUubWFlPic=

> <r_lp_tautomer_probability>
1

> <r_epik_Ionization_Penalty>
1.98499

> <r_epik_Ionization_Penalty_Charging>
1.98499

> <r_epik_Ionization_Penalty_Neutral>
2.63117e-16

> <r_epik_State_Penalty>
1.64719

> <r_epik_Charging_Adjusted_Penalty>
3.63218

> <i_epik_Tot_Q>
1

> <i_epik_Tot_abs_Q>
1

> <r_epik_Metal_State_Penalty>
5.35038

> <b_epik_Metal_Only>
0

> <s_epik_Chemistry_Notes>
This compound has an imine and may undergo hydrolysis.

> <s_lp_Force_Field>
OPLS_2005

> <r_lp_Energy>
33.1972

> <b_lp_Chiralities_Consistent>
1

> <s_lp_Variant>
AV-unprocessed.smi:592-2

> <Gold.Version>
5.8.1

> <Gold.Id.Protein>
6NUR|6NUR_protein|mol2

> <Gold.PLP.Fitness>
49.4061

> <Gold.PLP.PLP>
-41.9389

> <Gold.PLP.part.hbond>
-2.0000

> <Gold.PLP.part.metal>
0.0000

> <Gold.PLP.part.buried>
-4.1064

> <Gold.PLP.part.nonpolar>
-35.4677

> <Gold.PLP.part.repulsive>
0.4768

> <Gold.PLP.ligand.clash>
0.0000

> <Gold.PLP.ligand.torsion>
0.3717

> <Gold.PLP.Chemscore.Hbond>
2.7360

> <Gold.PLP.Chemscore.CHOScore>
0.0000

> <Gold.PLP.Chemscore.Metal>
0.0000

> <Gold.Chemscore.Hbonds>
donor molecule, donor type, donor heavy atom, donor atom, acceptor molecule, acceptor atom, score
      L1  H    11    23       P1  8028  0.42
      L1  H    13    28       P1  8028  1.73

> <Gold.PLP.Chemscore.Internal.Correction>
0.0026

> <Gold.Rescore>
     Score         DG    S(hbond)    S(metal)    S(lipo)     H(rot)  DE(clash)    DE(int)     intcor
     14.75     -17.33       1.75        0.00      80.82       1.35       0.11       2.48       ----

> <Gold.Chemscore.Fitness>
14.7450

> <Gold.Chemscore.DG>
-17.3311

> <Gold.Chemscore.ZeroCoef>
-5.4800

> <Gold.Chemscore.Hbond>
1.7515

> <Gold.Chemscore.Metal>
0.0000

> <Gold.Chemscore.Lipo>
80.8242

> <Gold.Chemscore.Internal_Hbond>
0.0000

> <Gold.Chemscore.DEClash>
0.1090

> <Gold.Chemscore.DEInternal>
2.4770

> <Gold.Chemscore.Rot>
1.3497

> <Gold.Chemscore.Internal.Correction>
   9.000000E+99

> <Gold.Chemscore.Hbonds>
donor molecule, donor type, donor heavy atom, donor atom, acceptor molecule, acceptor atom, score
      L1  H    11    23       P1  8028  0.41
      L1  H    13    28       P1  8028  0.84

> <Gold.Chemscore.Hbond.Weighted>
-5.8499

> <Gold.Chemscore.Metal.Weighted>
-0.0000

> <Gold.Chemscore.Lipo.Weighted>
-9.4564

> <Gold.Chemscore.Internal_Hbond.Weighted>
0.0000

> <Gold.Chemscore.DEClash.Weighted>
0.1090

> <Gold.Chemscore.DEInternal.Weighted>
2.4770

> <Gold.Chemscore.Rot.Weighted>
3.4552

> <Gold.Chemscore.Internal.Correction.Weighted>
   9.000000E+99

> <Gold.Protein.RotatedTorsions>
[ 6907 6896 6895 6894 ] final   48.03 input  -60.11 | X-H torsion
[ 7974 7965 7964 7962 ] final -165.72 input  175.53 | X-H torsion
[ 8008 7997 7996 7995 ] final  155.33 input   59.86 | X-H torsion
[ 10167 10162 10161 10158 ] final -107.86 input  -65.29 | X-H torsion
[ 10718 10713 10712 10709 ] final  117.72 input   66.30 | X-H torsion
[ 10763 10752 10751 10750 ] final  137.67 input  -60.55 | X-H torsion
[ 11005 11000 10999 10996 ] final  -96.31 input  -57.11 | X-H torsion

> <Gold.Protein.ActiveResidues>
 VAL166  LYS551  ARG553  GLY616  TRP617  ASP618  TYR619  PRO620  LYS621  CYS622 
 ASP623  PHE694  ASN695  SER759  ASP760  ASP761  ALA762  ILE779  LEU786  VAL792 
 PHE793  MET794  SER795  GLU796  ALA797  LYS798  CYS799  TRP800  GLU811  SER814 

> <Gold.Protein.RotatedAtoms>
  152.2748  134.7893  160.0407 H   0  0  0  0  0  0  0  0  0  0  0  0  # atno 6907 bound_to 6896
  151.8493  133.3432  159.3676 H   0  0  0  0  0  0  0  0  0  0  0  0  # atno 6908 bound_to 6896
  150.7166  134.5243  159.5713 H   0  0  0  0  0  0  0  0  0  0  0  0  # atno 6909 bound_to 6896
  144.7263  140.2772  143.6241 H   0  0  0  0  0  0  0  0  0  0  0  0  # atno 7974 bound_to 7965
  156.2484  140.1942  156.6784 H   0  0  0  0  0  0  0  0  0  0  0  0  # atno 8008 bound_to 7997
  154.6340  140.0592  156.9792 H   0  0  0  0  0  0  0  0  0  0  0  0  # atno 8009 bound_to 7997
  155.1666  140.3264  155.4403 H   0  0  0  0  0  0  0  0  0  0  0  0  # atno 8010 bound_to 7997
  140.1724  143.4032  152.1344 H   0  0  0  0  0  0  0  0  0  0  0  0  # atno 10167 bound_to 10162
  157.6078  131.1040  150.7654 H   0  0  0  0  0  0  0  0  0  0  0  0  # atno 10718 bound_to 10713
  153.8769  135.3049  155.3444 H   0  0  0  0  0  0  0  0  0  0  0  0  # atno 10763 bound_to 10752
  154.7780  135.4851  153.9787 H   0  0  0  0  0  0  0  0  0  0  0  0  # atno 10764 bound_to 10752
  153.1374  135.6817  153.9178 H   0  0  0  0  0  0  0  0  0  0  0  0  # atno 10765 bound_to 10752
  141.1415  133.8088  157.0554 H   0  0  0  0  0  0  0  0  0  0  0  0  # atno 11005 bound_to 11000
  145.7985  139.1955  143.2062 LP  0  0  0  0  0  0  0  0  0  0  0  0  # atno 17320 bound_to 7965
  146.0697  140.7883  142.9694 LP  0  0  0  0  0  0  0  0  0  0  0  0  # atno 17321 bound_to 7965
  139.5332  144.7182  151.4983 LP  0  0  0  0  0  0  0  0  0  0  0  0  # atno 17342 bound_to 10162
  140.6573  143.8571  150.6849 LP  0  0  0  0  0  0  0  0  0  0  0  0  # atno 17343 bound_to 10162
  156.8039  130.4930  149.5366 LP  0  0  0  0  0  0  0  0  0  0  0  0  # atno 17370 bound_to 10713
  156.1170  130.6082  151.0136 LP  0  0  0  0  0  0  0  0  0  0  0  0  # atno 17371 bound_to 10713
  140.0605  134.9757  157.1296 LP  0  0  0  0  0  0  0  0  0  0  0  0  # atno 17394 bound_to 11000
  140.3855  134.2241  155.7168 LP  0  0  0  0  0  0  0  0  0  0  0  0  # atno 17395 bound_to 11000

$$$$
