AV-unprocessed.smi:1599|AV-procd|sdf|6425|dock10
  -GOLD-   22720 7 63D 1   1.00000     0.00000
 Structure written by MMmdl.
 39 40  0  0  0  0  0  0  0  0  1 V2000
  146.6502  133.3474  154.1148 C   0  0  0  0  0  0  0  0  0  0  0  0
  148.0266  133.4888  154.7809 C   0  0  2  0  0  0  0  0  0  0  0  0
  148.6284  134.7497  154.3495 N   0  0  0  0  0  0  0  0  0  0  0  0
  149.0981  135.7129  155.1557 C   0  0  0  0  0  0  0  0  0  0  0  0
  149.0792  135.6461  156.3848 O   0  0  0  0  0  0  0  0  0  0  0  0
  149.5914  136.7420  154.4475 N   0  0  0  0  0  0  0  0  0  0  0  0
  150.1906  137.9238  154.9517 C   0  0  0  0  0  0  0  0  0  0  0  0
  150.7556  138.9513  154.1526 C   0  0  0  0  0  0  0  0  0  0  0  0
  151.2434  139.9279  154.9025 N   0  0  0  0  0  0  0  0  0  0  0  0
  151.0008  139.5456  156.1817 N   0  0  0  0  0  0  0  0  0  0  0  0
  151.4185  140.3986  157.2807 C   0  0  0  0  0  0  0  0  0  0  0  0
  150.7111  141.7552  157.2390 C   0  0  0  0  0  0  0  0  0  0  0  0
  150.7511  142.4326  156.0879 N   0  0  0  0  0  0  0  0  0  0  0  0
  150.1422  142.1917  158.2372 O   0  0  0  0  0  0  0  0  0  0  0  0
  150.3562  138.3256  156.2468 C   0  0  0  0  0  0  0  0  0  0  0  0
  148.9519  132.3016  154.4405 C   0  0  1  0  0  0  0  0  0  0  0  0
  150.0034  131.9697  155.5016 C   0  0  0  0  0  0  0  0  0  0  0  0
  150.3099  130.5247  155.1831 C   0  0  0  0  0  0  0  0  0  0  0  0
  148.9295  129.9883  154.8174 C   0  0  0  0  0  0  0  0  0  0  0  0
  148.1970  131.0994  154.3057 O   0  0  0  0  0  0  0  0  0  0  0  0
  146.1486  132.4339  154.4351 H   0  0  0  0  0  0  0  0  0  0  0  0
  146.7353  133.3155  153.0280 H   0  0  0  0  0  0  0  0  0  0  0  0
  146.0006  134.1841  154.3740 H   0  0  0  0  0  0  0  0  0  0  0  0
  147.8678  133.5051  155.8607 H   0  0  0  0  0  0  0  0  0  0  0  0
  148.6923  134.8977  153.3529 H   0  0  0  0  0  0  0  0  0  0  0  0
  149.5444  136.6669  153.4421 H   0  0  0  0  0  0  0  0  0  0  0  0
  150.8286  139.0200  153.0772 H   0  0  0  0  0  0  0  0  0  0  0  0
  151.2104  139.8964  158.2268 H   0  0  0  0  0  0  0  0  0  0  0  0
  152.4985  140.5413  157.2265 H   0  0  0  0  0  0  0  0  0  0  0  0
  150.3026  143.3342  156.0152 H   0  0  0  0  0  0  0  0  0  0  0  0
  151.2361  142.0401  155.2940 H   0  0  0  0  0  0  0  0  0  0  0  0
  150.0865  137.8708  157.1884 H   0  0  0  0  0  0  0  0  0  0  0  0
  149.4565  132.4819  153.4896 H   0  0  0  0  0  0  0  0  0  0  0  0
  150.8815  132.6140  155.4509 H   0  0  0  0  0  0  0  0  0  0  0  0
  149.5783  132.0472  156.5034 H   0  0  0  0  0  0  0  0  0  0  0  0
  150.9771  130.4653  154.3223 H   0  0  0  0  0  0  0  0  0  0  0  0
  150.7710  129.9883  156.0128 H   0  0  0  0  0  0  0  0  0  0  0  0
  148.9804  129.1763  154.0918 H   0  0  0  0  0  0  0  0  0  0  0  0
  148.4161  129.6175  155.7053 H   0  0  0  0  0  0  0  0  0  0  0  0
  1  2  1  0  0  0  0
  1 21  1  0  0  0  0
  1 22  1  0  0  0  0
  1 23  1  0  0  0  0
  2  3  1  0  0  0  0
  2 16  1  0  0  0  0
  2 24  1  0  0  0  0
  3  4  1  0  0  0  0
  3 25  1  0  0  0  0
  4  5  2  0  0  0  0
  4  6  1  0  0  0  0
  6  7  1  0  0  0  0
  6 26  1  0  0  0  0
  7 15  2  0  0  0  0
  7  8  1  0  0  0  0
  8  9  2  0  0  0  0
  8 27  1  0  0  0  0
  9 10  1  0  0  0  0
 10 11  1  0  0  0  0
 10 15  1  0  0  0  0
 11 12  1  0  0  0  0
 11 28  1  0  0  0  0
 11 29  1  0  0  0  0
 12 13  1  0  0  0  0
 12 14  2  0  0  0  0
 13 30  1  0  0  0  0
 13 31  1  0  0  0  0
 15 32  1  0  0  0  0
 16 20  1  0  0  0  0
 16 17  1  0  0  0  0
 16 33  1  0  0  0  0
 17 18  1  0  0  0  0
 17 34  1  0  0  0  0
 17 35  1  0  0  0  0
 18 19  1  0  0  0  0
 18 36  1  0  0  0  0
 18 37  1  0  0  0  0
 19 20  1  0  0  0  0
 19 38  1  0  0  0  0
 19 39  1  0  0  0  0
M  END
> <s_m_source_file>
AV-unprocessed.smi

> <i_m_source_file_index>
1599

> <i_lp_mmshare_version>
43012

> <i_f3d_flags>
0

> <s_epik_input>
TzFbQ0gyXVtDSDJdW0NIMl1bQ0BIXTFbQ0BIXShbQ0gzXSlbTkhdQyg9TylbTkhdYzJbY0hdbm4oW2NIXTIpW0NIMl1DKD1PKVtOSDJd

> <s_epik_cmdline>
J2VwaWtfcHl0aG9uJywgJy1waCcsICc3LjAnLCAnLXRuJywgJzgnLCAnLW1hJywgJzIwMCcsICctbWV0YWxfYmluZGluZycsICctaW1hZScsICc8aW5maWxlLm1hZT4nLCAnLW9tYWUnLCAnPG91dGZpbGUubWFlPic=

> <r_lp_tautomer_probability>
1

> <r_epik_Ionization_Penalty>
4.15391e-05

> <r_epik_Ionization_Penalty_Charging>
0

> <r_epik_Ionization_Penalty_Neutral>
4.15391e-05

> <r_epik_State_Penalty>
-0

> <r_epik_Charging_Adjusted_Penalty>
0

> <i_epik_Tot_Q>
0

> <i_epik_Tot_abs_Q>
0

> <r_epik_Metal_State_Penalty>
-0

> <b_epik_Metal_Only>
0

> <s_lp_Force_Field>
OPLS_2005

> <r_lp_Energy>
20.4971

> <b_lp_Chiralities_Consistent>
1

> <s_lp_Variant>
AV-unprocessed.smi:1599-3

> <Gold.Version>
5.8.1

> <Gold.Id.Protein>
6NUR|6NUR_protein|mol2

> <Gold.PLP.Fitness>
39.8584

> <Gold.PLP.PLP>
-27.6744

> <Gold.PLP.part.hbond>
-4.0000

> <Gold.PLP.part.metal>
0.0000

> <Gold.PLP.part.buried>
-5.0795

> <Gold.PLP.part.nonpolar>
-18.6034

> <Gold.PLP.part.repulsive>
0.3438

> <Gold.PLP.ligand.clash>
0.0000

> <Gold.PLP.ligand.torsion>
0.7601

> <Gold.PLP.Chemscore.Hbond>
3.5600

> <Gold.PLP.Chemscore.CHOScore>
1.0000

> <Gold.PLP.Chemscore.Metal>
0.0000

> <Gold.Chemscore.Hbonds>
donor molecule, donor type, donor heavy atom, donor atom, acceptor molecule, acceptor atom, score
      L1  H     3    25       P1  7948  0.96
      L1  H     6    26       P1  7948  1.00
      L1  H    13    30       P1  8028  1.00
      P1  H  7989  7998       L1     9  0.60
      L1  C     8    27       P1  7957  1.00

> <Gold.PLP.Chemscore.Internal.Correction>
0.0243

> <Gold.Rescore>
     Score         DG    S(hbond)    S(metal)    S(lipo)     H(rot)  DE(clash)    DE(int)     intcor
     13.63     -15.73       3.03        0.00      50.89       2.28       0.21       1.89       ----

> <Gold.Chemscore.Fitness>
13.6278

> <Gold.Chemscore.DG>
-15.7270

> <Gold.Chemscore.ZeroCoef>
-5.4800

> <Gold.Chemscore.Hbond>
3.0345

> <Gold.Chemscore.Metal>
0.0000

> <Gold.Chemscore.Lipo>
50.8912

> <Gold.Chemscore.Internal_Hbond>
0.0000

> <Gold.Chemscore.DEClash>
0.2091

> <Gold.Chemscore.DEInternal>
1.8902

> <Gold.Chemscore.Rot>
2.2823

> <Gold.Chemscore.Internal.Correction>
   9.000000E+99

> <Gold.Chemscore.Hbonds>
donor molecule, donor type, donor heavy atom, donor atom, acceptor molecule, acceptor atom, score
      L1  H     3    25       P1  7948  0.50
      L1  H     6    26       P1  7948  0.70
      L1  H    13    30       P1  8028  0.95
      P1  H  7989  7998       L1     9  0.04

> <Gold.Chemscore.Hbond.Weighted>
-10.1354

> <Gold.Chemscore.Metal.Weighted>
-0.0000

> <Gold.Chemscore.Lipo.Weighted>
-5.9543

> <Gold.Chemscore.Internal_Hbond.Weighted>
0.0000

> <Gold.Chemscore.DEClash.Weighted>
0.2091

> <Gold.Chemscore.DEInternal.Weighted>
1.8902

> <Gold.Chemscore.Rot.Weighted>
5.8427

> <Gold.Chemscore.Internal.Correction.Weighted>
   9.000000E+99

> <Gold.Protein.RotatedTorsions>
[ 6907 6896 6895 6894 ] final  113.67 input  -60.11 | X-H torsion
[ 7974 7965 7964 7962 ] final -164.09 input  175.53 | X-H torsion
[ 8008 7997 7996 7995 ] final   61.01 input   59.86 | X-H torsion
[ 10167 10162 10161 10158 ] final -128.19 input  -65.29 | X-H torsion
[ 10718 10713 10712 10709 ] final  178.86 input   66.30 | X-H torsion
[ 10763 10752 10751 10750 ] final  112.00 input  -60.55 | X-H torsion
[ 11005 11000 10999 10996 ] final  118.63 input  -57.11 | X-H torsion

> <Gold.Protein.ActiveResidues>
 VAL166  LYS551  ARG553  GLY616  TRP617  ASP618  TYR619  PRO620  LYS621  CYS622 
 ASP623  PHE694  ASN695  SER759  ASP760  ASP761  ALA762  ILE779  LEU786  VAL792 
 PHE793  MET794  SER795  GLU796  ALA797  LYS798  CYS799  TRP800  GLU811  SER814 

> <Gold.Protein.RotatedAtoms>
  152.4847  133.8343  159.7119 H   0  0  0  0  0  0  0  0  0  0  0  0  # atno 6907 bound_to 6896
  150.8924  133.7216  159.2907 H   0  0  0  0  0  0  0  0  0  0  0  0  # atno 6908 bound_to 6896
  151.4684  135.1047  159.9797 H   0  0  0  0  0  0  0  0  0  0  0  0  # atno 6909 bound_to 6896
  144.7307  140.3011  143.6204 H   0  0  0  0  0  0  0  0  0  0  0  0  # atno 7974 bound_to 7965
  155.5915  140.3493  155.4568 H   0  0  0  0  0  0  0  0  0  0  0  0  # atno 8008 bound_to 7997
  156.0297  140.1272  157.0296 H   0  0  0  0  0  0  0  0  0  0  0  0  # atno 8009 bound_to 7997
  154.4347  140.1046  156.6068 H   0  0  0  0  0  0  0  0  0  0  0  0  # atno 8010 bound_to 7997
  139.9529  143.6035  152.2469 H   0  0  0  0  0  0  0  0  0  0  0  0  # atno 10167 bound_to 10162
  156.8844  130.9826  151.3058 H   0  0  0  0  0  0  0  0  0  0  0  0  # atno 10718 bound_to 10713
  153.4715  135.3699  155.2393 H   0  0  0  0  0  0  0  0  0  0  0  0  # atno 10763 bound_to 10752
  154.8757  135.3932  154.3806 H   0  0  0  0  0  0  0  0  0  0  0  0  # atno 10764 bound_to 10752
  153.4395  135.7084  153.6243 H   0  0  0  0  0  0  0  0  0  0  0  0  # atno 10765 bound_to 10752
  139.9116  134.9622  156.7532 H   0  0  0  0  0  0  0  0  0  0  0  0  # atno 11005 bound_to 11000
  145.7759  139.1874  143.2186 LP  0  0  0  0  0  0  0  0  0  0  0  0  # atno 17320 bound_to 7965
  146.0873  140.7696  142.9612 LP  0  0  0  0  0  0  0  0  0  0  0  0  # atno 17321 bound_to 7965
  139.6614  144.7662  151.1956 LP  0  0  0  0  0  0  0  0  0  0  0  0  # atno 17342 bound_to 10162
  140.7577  143.6005  150.8705 LP  0  0  0  0  0  0  0  0  0  0  0  0  # atno 17343 bound_to 10162
  157.6121  130.8591  149.8969 LP  0  0  0  0  0  0  0  0  0  0  0  0  # atno 17370 bound_to 10713
  156.0661  130.3692  150.0876 LP  0  0  0  0  0  0  0  0  0  0  0  0  # atno 17371 bound_to 10713
  140.6756  133.9520  155.7881 LP  0  0  0  0  0  0  0  0  0  0  0  0  # atno 17394 bound_to 11000
  141.0546  134.0435  157.3739 LP  0  0  0  0  0  0  0  0  0  0  0  0  # atno 17395 bound_to 11000

$$$$
