AV-unprocessed.smi:157|AV-procd|sdf|1302|dock5
  -GOLD-   2262018593D 1   1.00000     0.00000
 Structure written by MMmdl.
 35 37  0  0  0  0  0  0  0  0  1 V2000
  151.0447  136.8681  154.2306 O   0  0  0  0  0  0  0  0  0  0  0  0
  152.0010  137.5400  155.0231 C   0  0  0  0  0  0  0  0  0  0  0  0
  151.7701  139.0576  154.9671 C   0  0  2  0  0  0  0  0  0  0  0  0
  152.4683  139.6633  156.0520 O   0  0  0  0  0  0  0  0  0  0  0  0
  151.7424  140.7755  156.4530 C   0  0  2  0  0  0  0  0  0  0  0  0
  152.1277  141.1333  157.8535 N   0  0  0  0  0  0  0  0  0  0  0  0
  152.7000  140.3222  158.7530 C   0  0  0  0  0  0  0  0  0  0  0  0
  152.9393  140.8846  159.9257 N   0  0  0  0  0  0  0  0  0  0  0  0
  152.4653  142.1869  159.7766 C   0  0  0  0  0  0  0  0  0  0  0  0
  151.9472  142.3586  158.5008 C   0  0  0  0  0  0  0  0  0  0  0  0
  151.3551  143.3892  157.7962 N   0  0  0  0  0  0  0  0  0  0  0  0
  150.8764  144.3892  158.4667 C   0  0  0  0  0  0  0  0  0  0  0  0
  150.9343  144.6676  159.8248 N   0  0  0  0  0  0  0  0  0  0  0  0
  152.1578  144.5924  160.6047 C   0  0  0  0  0  0  0  0  0  0  0  0
  152.5998  143.1569  160.9148 C   0  0  1  0  0  0  0  0  0  0  0  0
  151.8268  142.6506  161.9840 O   0  0  0  0  0  0  0  0  0  0  0  0
  150.2868  140.3415  156.3848 C   0  0  0  0  0  0  0  0  0  0  0  0
  150.2916  139.4777  155.1335 C   0  0  1  0  0  0  0  0  0  0  0  0
  149.8683  140.2372  154.0184 O   0  0  0  0  0  0  0  0  0  0  0  0
  152.1889  139.4634  154.0440 H   0  0  0  0  0  0  0  0  0  0  0  0
  151.9811  141.6390  155.8303 H   0  0  0  0  0  0  0  0  0  0  0  0
  153.6343  143.1817  161.2584 H   0  0  0  0  0  0  0  0  0  0  0  0
  149.6235  138.6235  155.2494 H   0  0  0  0  0  0  0  0  0  0  0  0
  151.3905  136.7774  153.3557 H   0  0  0  0  0  0  0  0  0  0  0  0
  151.9521  137.1749  156.0495 H   0  0  0  0  0  0  0  0  0  0  0  0
  152.9927  137.2974  154.6404 H   0  0  0  0  0  0  0  0  0  0  0  0
  152.9511  139.2930  158.5427 H   0  0  0  0  0  0  0  0  0  0  0  0
  150.3392  145.1672  157.9223 H   0  0  0  0  0  0  0  0  0  0  0  0
  150.3048  145.3629  160.1991 H   0  0  0  0  0  0  0  0  0  0  0  0
  152.9411  145.0834  160.0252 H   0  0  0  0  0  0  0  0  0  0  0  0
  152.0495  145.1716  161.5222 H   0  0  0  0  0  0  0  0  0  0  0  0
  152.2795  142.8428  162.7912 H   0  0  0  0  0  0  0  0  0  0  0  0
  150.0516  139.7343  157.2604 H   0  0  0  0  0  0  0  0  0  0  0  0
  149.6128  141.1986  156.3510 H   0  0  0  0  0  0  0  0  0  0  0  0
  149.6656  139.6427  153.3121 H   0  0  0  0  0  0  0  0  0  0  0  0
  1  2  1  0  0  0  0
  1 24  1  0  0  0  0
  2  3  1  0  0  0  0
  2 25  1  0  0  0  0
  2 26  1  0  0  0  0
  3 20  1  0  0  0  0
  3 18  1  0  0  0  0
  3  4  1  0  0  0  0
  4  5  1  0  0  0  0
  5 21  1  0  0  0  0
  5  6  1  0  0  0  0
  5 17  1  0  0  0  0
  6 10  1  0  0  0  0
  6  7  1  0  0  0  0
  7  8  2  0  0  0  0
  7 27  1  0  0  0  0
  8  9  1  0  0  0  0
  9 15  1  0  0  0  0
  9 10  2  0  0  0  0
 10 11  1  0  0  0  0
 11 12  2  0  0  0  0
 12 13  1  0  0  0  0
 12 28  1  0  0  0  0
 13 14  1  0  0  0  0
 13 29  1  0  0  0  0
 14 15  1  0  0  0  0
 14 30  1  0  0  0  0
 14 31  1  0  0  0  0
 15 22  1  0  0  0  0
 15 16  1  0  0  0  0
 16 32  1  0  0  0  0
 17 18  1  0  0  0  0
 17 33  1  0  0  0  0
 17 34  1  0  0  0  0
 18 23  1  0  0  0  0
 18 19  1  0  0  0  0
 19 35  1  0  0  0  0
M  END
> <s_m_source_file>
AV-unprocessed.smi

> <i_m_source_file_index>
157

> <i_lp_mmshare_version>
43012

> <i_f3d_flags>
0

> <s_epik_input>
W09IXVtDSDJdW0NASF0xT1tDQEhdKFtDSDJdW0NAQEhdMVtPSF0pbihbY0hdbjIpYyhjMjMpTj1bQ0hdW05IXVtDSDJdW0NASF0zW09IXQ==

> <s_epik_cmdline>
J2VwaWtfcHl0aG9uJywgJy1waCcsICc3LjAnLCAnLXRuJywgJzgnLCAnLW1hJywgJzIwMCcsICctbWV0YWxfYmluZGluZycsICctaW1hZScsICc8aW5maWxlLm1hZT4nLCAnLW9tYWUnLCAnPG91dGZpbGUubWFlPic=

> <r_lp_tautomer_probability>
1

> <r_epik_Ionization_Penalty>
0.0357149

> <r_epik_Ionization_Penalty_Charging>
0.0355056

> <r_epik_Ionization_Penalty_Neutral>
0.000209255

> <r_epik_State_Penalty>
0.0296046

> <r_epik_Charging_Adjusted_Penalty>
0.0651102

> <i_epik_Tot_Q>
0

> <i_epik_Tot_abs_Q>
0

> <r_epik_Metal_State_Penalty>
3.03559e-05

> <b_epik_Metal_Only>
0

> <s_epik_Chemistry_Notes>
This compound has an imine and may undergo hydrolysis. This compound contains an acetal/aminal-like group ( X-CH(R)-Y where X, Y are N, S, or O) that may be acid/base labile, releasing an aldehyde.

> <s_lp_Force_Field>
OPLS_2005

> <r_lp_Energy>
43.7304

> <b_lp_Chiralities_Consistent>
1

> <s_lp_Variant>
AV-unprocessed.smi:157-12

> <Gold.Version>
5.8.1

> <Gold.Id.Protein>
6NUR|6NUR_protein|mol2

> <Gold.PLP.Fitness>
50.7276

> <Gold.PLP.PLP>
-37.9726

> <Gold.PLP.part.hbond>
-6.8812

> <Gold.PLP.part.metal>
0.0000

> <Gold.PLP.part.buried>
-6.8286

> <Gold.PLP.part.nonpolar>
-25.6011

> <Gold.PLP.part.repulsive>
0.2693

> <Gold.PLP.ligand.clash>
0.0000

> <Gold.PLP.ligand.torsion>
0.7591

> <Gold.PLP.Chemscore.Hbond>
3.8312

> <Gold.PLP.Chemscore.CHOScore>
0.9176

> <Gold.PLP.Chemscore.Metal>
0.0000

> <Gold.Chemscore.Hbonds>
donor molecule, donor type, donor heavy atom, donor atom, acceptor molecule, acceptor atom, score
      L1  H     1    24       P1  7949  0.95
      L1  H    19    35       P1  7957  0.36
      P1  H  6933  6945       L1    16  0.86
      P1  H  7989  7998       L1    19  0.72
      P1  H  7997  8010       L1     4  1.00
      L1  C    12    28       P1  8028  0.28
      L1  C    12    28       P1  8029  0.46

> <Gold.PLP.Chemscore.Internal.Correction>
0.0267

> <Gold.Rescore>
     Score         DG    S(hbond)    S(metal)    S(lipo)     H(rot)  DE(clash)    DE(int)     intcor
     10.34     -11.91       2.57        0.00      61.19       3.64       0.74       0.82       ----

> <Gold.Chemscore.Fitness>
10.3443

> <Gold.Chemscore.DG>
-11.9053

> <Gold.Chemscore.ZeroCoef>
-5.4800

> <Gold.Chemscore.Hbond>
2.5671

> <Gold.Chemscore.Metal>
0.0000

> <Gold.Chemscore.Lipo>
61.1948

> <Gold.Chemscore.Internal_Hbond>
0.0000

> <Gold.Chemscore.DEClash>
0.7409

> <Gold.Chemscore.DEInternal>
0.8201

> <Gold.Chemscore.Rot>
3.6362

> <Gold.Chemscore.Internal.Correction>
   9.000000E+99

> <Gold.Chemscore.Hbonds>
donor molecule, donor type, donor heavy atom, donor atom, acceptor molecule, acceptor atom, score
      L1  H     1    24       P1  7949  0.67
      L1  H    19    35       P1  7957  0.35
      P1  H  6933  6945       L1    16  0.72
      P1  H  7989  7998       L1    19  0.04
      P1  H  7997  8010       L1     4  0.49

> <Gold.Chemscore.Hbond.Weighted>
-8.5742

> <Gold.Chemscore.Metal.Weighted>
-0.0000

> <Gold.Chemscore.Lipo.Weighted>
-7.1598

> <Gold.Chemscore.Internal_Hbond.Weighted>
0.0000

> <Gold.Chemscore.DEClash.Weighted>
0.7409

> <Gold.Chemscore.DEInternal.Weighted>
0.8201

> <Gold.Chemscore.Rot.Weighted>
9.3087

> <Gold.Chemscore.Internal.Correction.Weighted>
   9.000000E+99

> <Gold.Protein.RotatedTorsions>
[ 6907 6896 6895 6894 ] final  -42.80 input  -60.11 | X-H torsion
[ 7974 7965 7964 7962 ] final -104.16 input  175.53 | X-H torsion
[ 8008 7997 7996 7995 ] final   73.46 input   59.86 | X-H torsion
[ 10167 10162 10161 10158 ] final    6.04 input  -65.29 | X-H torsion
[ 10718 10713 10712 10709 ] final  -19.90 input   66.30 | X-H torsion
[ 10763 10752 10751 10750 ] final  162.12 input  -60.55 | X-H torsion
[ 11005 11000 10999 10996 ] final  157.87 input  -57.11 | X-H torsion

> <Gold.Protein.ActiveResidues>
 VAL166  LYS551  ARG553  GLY616  TRP617  ASP618  TYR619  PRO620  LYS621  CYS622 
 ASP623  PHE694  ASN695  SER759  ASP760  ASP761  ALA762  ILE779  LEU786  VAL792 
 PHE793  MET794  SER795  GLU796  ALA797  LYS798  CYS799  TRP800  GLU811  SER814 

> <Gold.Protein.RotatedAtoms>
  150.9511  134.8911  159.7672 H   0  0  0  0  0  0  0  0  0  0  0  0  # atno 6907 bound_to 6896
  152.5120  134.3804  159.9359 H   0  0  0  0  0  0  0  0  0  0  0  0  # atno 6908 bound_to 6896
  151.3820  133.3777  159.2746 H   0  0  0  0  0  0  0  0  0  0  0  0  # atno 6909 bound_to 6896
  145.2467  140.9224  143.3119 H   0  0  0  0  0  0  0  0  0  0  0  0  # atno 7974 bound_to 7965
  155.7840  140.3481  155.5313 H   0  0  0  0  0  0  0  0  0  0  0  0  # atno 8008 bound_to 7997
  155.8700  140.0985  157.1577 H   0  0  0  0  0  0  0  0  0  0  0  0  # atno 8009 bound_to 7997
  154.4017  140.1342  156.4054 H   0  0  0  0  0  0  0  0  0  0  0  0  # atno 8010 bound_to 7997
  140.6449  143.7685  150.7484 H   0  0  0  0  0  0  0  0  0  0  0  0  # atno 10167 bound_to 10162
  156.5393  130.4674  149.6507 H   0  0  0  0  0  0  0  0  0  0  0  0  # atno 10718 bound_to 10713
  154.2736  135.2765  155.2728 H   0  0  0  0  0  0  0  0  0  0  0  0  # atno 10763 bound_to 10752
  154.5280  135.5737  153.6739 H   0  0  0  0  0  0  0  0  0  0  0  0  # atno 10764 bound_to 10752
  152.9941  135.6221  154.2891 H   0  0  0  0  0  0  0  0  0  0  0  0  # atno 10765 bound_to 10752
  140.1811  134.8475  157.2804 H   0  0  0  0  0  0  0  0  0  0  0  0  # atno 11005 bound_to 11000
  144.9540  139.4052  143.6388 LP  0  0  0  0  0  0  0  0  0  0  0  0  # atno 17320 bound_to 7965
  146.3314  139.8560  142.8864 LP  0  0  0  0  0  0  0  0  0  0  0  0  # atno 17321 bound_to 7965
  140.1324  143.4514  152.2246 LP  0  0  0  0  0  0  0  0  0  0  0  0  # atno 17342 bound_to 10162
  139.5659  144.7435  151.4023 LP  0  0  0  0  0  0  0  0  0  0  0  0  # atno 17343 bound_to 10162
  156.2987  130.7164  151.2031 LP  0  0  0  0  0  0  0  0  0  0  0  0  # atno 17370 bound_to 10713
  157.7408  131.0512  150.5140 LP  0  0  0  0  0  0  0  0  0  0  0  0  # atno 17371 bound_to 10713
  140.2266  134.3959  155.7541 LP  0  0  0  0  0  0  0  0  0  0  0  0  # atno 17394 bound_to 11000
  141.2223  133.7193  156.8575 LP  0  0  0  0  0  0  0  0  0  0  0  0  # atno 17395 bound_to 11000

$$$$
