AV-unprocessed.smi:2339|AV-procd|sdf|9338|dock8
  -GOLD-   2272012563D 1   1.00000     0.00000
 Structure written by MMmdl.
 49 52  0  0  0  0  0  0  0  0  1 V2000
  151.7335  139.2462  156.0783 C   0  0  0  0  0  0  0  0  0  0  0  0
  150.8781  140.5152  156.1634 C   0  0  0  0  0  0  0  0  0  0  0  0
  149.7060  140.4352  155.3039 N   0  0  0  0  0  0  0  0  0  0  0  0
  148.9468  141.5619  155.0052 C   0  0  0  0  0  0  0  0  0  0  0  0
  147.8151  141.5376  154.2747 C   0  0  0  0  0  0  0  0  0  0  0  0
  147.3225  140.2496  153.7461 C   0  0  0  0  0  0  0  0  0  0  0  0
  146.2908  140.1893  153.0766 O   0  0  0  0  0  0  0  0  0  0  0  0
  148.1337  139.0459  154.0660 C   0  0  0  0  0  0  0  0  0  0  0  0
  147.6664  137.8295  153.5453 N   0  0  0  0  0  0  0  0  0  0  0  0
  146.4786  137.2165  153.7248 C   0  0  0  0  0  0  0  0  0  0  0  0
  145.5433  137.6540  154.3909 O   0  0  0  0  0  0  0  0  0  0  0  0
  146.3743  136.0467  153.0714 N   0  0  0  0  0  0  0  0  0  0  0  0
  145.2195  135.1340  153.0560 C   0  0  2  0  0  0  0  0  0  0  0  0
  145.1112  134.2333  154.2919 C   0  0  2  0  0  0  0  0  0  0  0  0
  145.6359  134.2674  155.6825 C   0  0  0  0  0  0  0  0  0  0  0  0
  146.0228  132.7682  155.7845 C   0  0  0  0  0  0  0  0  0  0  0  0
  145.8921  132.2307  154.4440 O   0  0  0  0  0  0  0  0  0  0  0  0
  146.1221  133.3429  153.6005 C   0  0  1  0  0  0  0  0  0  0  0  0
  145.4651  133.7874  152.2722 C   0  0  0  0  0  0  0  0  0  0  0  0
  144.2315  132.9897  151.8027 C   0  0  0  0  0  0  0  0  0  0  0  0
  144.3710  132.7279  150.3029 C   0  0  0  0  0  0  0  0  0  0  0  0
  145.8704  132.7796  150.0506 C   0  0  0  0  0  0  0  0  0  0  0  0
  146.3663  133.8386  151.0310 C   0  0  0  0  0  0  0  0  0  0  0  0
  149.2557  139.2121  154.8116 C   0  0  0  0  0  0  0  0  0  0  0  0
  152.5986  139.3179  156.7375 H   0  0  0  0  0  0  0  0  0  0  0  0
  152.0987  139.0832  155.0640 H   0  0  0  0  0  0  0  0  0  0  0  0
  151.1624  138.3660  156.3753 H   0  0  0  0  0  0  0  0  0  0  0  0
  150.5603  140.6796  157.1937 H   0  0  0  0  0  0  0  0  0  0  0  0
  151.4761  141.3840  155.8863 H   0  0  0  0  0  0  0  0  0  0  0  0
  149.3416  142.4842  155.4063 H   0  0  0  0  0  0  0  0  0  0  0  0
  147.2589  142.4397  154.0660 H   0  0  0  0  0  0  0  0  0  0  0  0
  148.3175  137.3611  152.9316 H   0  0  0  0  0  0  0  0  0  0  0  0
  147.1581  135.7776  152.4943 H   0  0  0  0  0  0  0  0  0  0  0  0
  144.2805  135.6181  152.7824 H   0  0  0  0  0  0  0  0  0  0  0  0
  144.1095  133.7915  154.3026 H   0  0  0  0  0  0  0  0  0  0  0  0
  146.5043  134.9196  155.7821 H   0  0  0  0  0  0  0  0  0  0  0  0
  144.8815  134.5599  156.4132 H   0  0  0  0  0  0  0  0  0  0  0  0
  147.0478  132.6555  156.1399 H   0  0  0  0  0  0  0  0  0  0  0  0
  145.3669  132.2224  156.4632 H   0  0  0  0  0  0  0  0  0  0  0  0
  147.1589  133.6824  153.6922 H   0  0  0  0  0  0  0  0  0  0  0  0
  144.1819  132.0342  152.3263 H   0  0  0  0  0  0  0  0  0  0  0  0
  143.2959  133.5086  152.0142 H   0  0  0  0  0  0  0  0  0  0  0  0
  143.9234  131.7824  149.9956 H   0  0  0  0  0  0  0  0  0  0  0  0
  143.8802  133.5266  149.7450 H   0  0  0  0  0  0  0  0  0  0  0  0
  146.3172  131.8146  150.2938 H   0  0  0  0  0  0  0  0  0  0  0  0
  146.1181  133.0131  149.0147 H   0  0  0  0  0  0  0  0  0  0  0  0
  146.2926  134.8185  150.5577 H   0  0  0  0  0  0  0  0  0  0  0  0
  147.4184  133.6852  151.2731 H   0  0  0  0  0  0  0  0  0  0  0  0
  149.9133  138.3991  155.0740 H   0  0  0  0  0  0  0  0  0  0  0  0
  1  2  1  0  0  0  0
  1 25  1  0  0  0  0
  1 26  1  0  0  0  0
  1 27  1  0  0  0  0
  2  3  1  0  0  0  0
  2 28  1  0  0  0  0
  2 29  1  0  0  0  0
  3 24  1  0  0  0  0
  3  4  1  0  0  0  0
  4  5  2  0  0  0  0
  4 30  1  0  0  0  0
  5  6  1  0  0  0  0
  5 31  1  0  0  0  0
  6  7  2  0  0  0  0
  6  8  1  0  0  0  0
  8  9  1  0  0  0  0
  8 24  2  0  0  0  0
  9 10  1  0  0  0  0
  9 32  1  0  0  0  0
 10 11  2  0  0  0  0
 10 12  1  0  0  0  0
 12 13  1  0  0  0  0
 12 33  1  0  0  0  0
 13 19  1  0  0  0  0
 13 14  1  0  0  0  0
 13 34  1  0  0  0  0
 14 18  1  0  0  0  0
 14 15  1  0  0  0  0
 14 35  1  0  0  0  0
 15 16  1  0  0  0  0
 15 36  1  0  0  0  0
 15 37  1  0  0  0  0
 16 17  1  0  0  0  0
 16 38  1  0  0  0  0
 16 39  1  0  0  0  0
 17 18  1  0  0  0  0
 18 19  1  0  0  0  0
 18 40  1  0  0  0  0
 19 23  1  0  0  0  0
 19 20  1  0  0  0  0
 20 21  1  0  0  0  0
 20 41  1  0  0  0  0
 20 42  1  0  0  0  0
 21 22  1  0  0  0  0
 21 43  1  0  0  0  0
 21 44  1  0  0  0  0
 22 23  1  0  0  0  0
 22 45  1  0  0  0  0
 22 46  1  0  0  0  0
 23 47  1  0  0  0  0
 23 48  1  0  0  0  0
 24 49  1  0  0  0  0
M  END
> <s_m_source_file>
AV-unprocessed.smi

> <i_m_source_file_index>
2339

> <i_lp_mmshare_version>
43012

> <i_f3d_flags>
0

> <s_epik_input>
W0NIM11bQ0gyXW4xW2NIXVtjSF1jKD1PKWMoW2NIXTEpW05IXUMoPU8pW05IXVtDQEBIXTJbQ0BASF0oW0NIMl1bQ0gyXU8zKVtDQEBIXTNDMjRbQ0gyXVtDSDJdW0NIMl1bQ0gyXTQ=

> <s_epik_cmdline>
J2VwaWtfcHl0aG9uJywgJy1waCcsICc3LjAnLCAnLXRuJywgJzgnLCAnLW1hJywgJzIwMCcsICctbWV0YWxfYmluZGluZycsICctaW1hZScsICc8aW5maWxlLm1hZT4nLCAnLW9tYWUnLCAnPG91dGZpbGUubWFlPic=

> <r_lp_tautomer_probability>
1

> <r_epik_Ionization_Penalty>
0.00145966

> <r_epik_Ionization_Penalty_Charging>
0.00143969

> <r_epik_Ionization_Penalty_Neutral>
1.99697e-05

> <r_epik_State_Penalty>
0.000961843

> <r_epik_Charging_Adjusted_Penalty>
0.00240153

> <i_epik_Tot_Q>
0

> <i_epik_Tot_abs_Q>
0

> <r_epik_Metal_State_Penalty>
-0

> <b_epik_Metal_Only>
0

> <s_lp_Force_Field>
OPLS_2005

> <r_lp_Energy>
81.9731

> <b_lp_Chiralities_Consistent>
1

> <s_lp_Variant>
AV-unprocessed.smi:2339-3

> <Gold.Version>
5.8.1

> <Gold.Id.Protein>
6NUR|6NUR_protein|mol2

> <Gold.PLP.Fitness>
40.7845

> <Gold.PLP.PLP>
-33.5951

> <Gold.PLP.part.hbond>
-1.8943

> <Gold.PLP.part.metal>
0.0000

> <Gold.PLP.part.buried>
-1.5336

> <Gold.PLP.part.nonpolar>
-32.3479

> <Gold.PLP.part.repulsive>
2.5083

> <Gold.PLP.ligand.clash>
0.0000

> <Gold.PLP.ligand.torsion>
0.8873

> <Gold.PLP.Chemscore.Hbond>
1.8960

> <Gold.PLP.Chemscore.CHOScore>
1.0000

> <Gold.PLP.Chemscore.Metal>
0.0000

> <Gold.Chemscore.Hbonds>
donor molecule, donor type, donor heavy atom, donor atom, acceptor molecule, acceptor atom, score
      L1  H     9    32       P1  7948  1.00
      L1  H    12    33       P1  7948  0.96
      L1  C     4    30       P1  8028  1.00

> <Gold.PLP.Chemscore.Internal.Correction>
0.2759

> <Gold.Rescore>
     Score         DG    S(hbond)    S(metal)    S(lipo)     H(rot)  DE(clash)    DE(int)     intcor
     17.20     -18.10       1.92        0.00      78.75       1.17       0.08       0.82       ----

> <Gold.Chemscore.Fitness>
17.2050

> <Gold.Chemscore.DG>
-18.1037

> <Gold.Chemscore.ZeroCoef>
-5.4800

> <Gold.Chemscore.Hbond>
1.9154

> <Gold.Chemscore.Metal>
0.0000

> <Gold.Chemscore.Lipo>
78.7481

> <Gold.Chemscore.Internal_Hbond>
0.0000

> <Gold.Chemscore.DEClash>
0.0777

> <Gold.Chemscore.DEInternal>
0.8210

> <Gold.Chemscore.Rot>
1.1670

> <Gold.Chemscore.Internal.Correction>
   9.000000E+99

> <Gold.Chemscore.Hbonds>
donor molecule, donor type, donor heavy atom, donor atom, acceptor molecule, acceptor atom, score
      L1  H     9    32       P1  7948  1.00
      L1  H    12    33       P1  7948  0.91

> <Gold.Chemscore.Hbond.Weighted>
-6.3976

> <Gold.Chemscore.Metal.Weighted>
-0.0000

> <Gold.Chemscore.Lipo.Weighted>
-9.2135

> <Gold.Chemscore.Internal_Hbond.Weighted>
0.0000

> <Gold.Chemscore.DEClash.Weighted>
0.0777

> <Gold.Chemscore.DEInternal.Weighted>
0.8210

> <Gold.Chemscore.Rot.Weighted>
2.9874

> <Gold.Chemscore.Internal.Correction.Weighted>
   9.000000E+99

> <Gold.Protein.RotatedTorsions>
[ 6907 6896 6895 6894 ] final  -52.36 input  -60.11 | X-H torsion
[ 7974 7965 7964 7962 ] final  -58.00 input  175.53 | X-H torsion
[ 8008 7997 7996 7995 ] final  174.75 input   59.86 | X-H torsion
[ 10167 10162 10161 10158 ] final   49.01 input  -65.29 | X-H torsion
[ 10718 10713 10712 10709 ] final  -10.83 input   66.30 | X-H torsion
[ 10763 10752 10751 10750 ] final  -34.34 input  -60.55 | X-H torsion
[ 11005 11000 10999 10996 ] final -154.66 input  -57.11 | X-H torsion

> <Gold.Protein.ActiveResidues>
 VAL166  LYS551  ARG553  GLY616  TRP617  ASP618  TYR619  PRO620  LYS621  CYS622 
 ASP623  PHE694  ASN695  SER759  ASP760  ASP761  ALA762  ILE779  LEU786  VAL792 
 PHE793  MET794  SER795  GLU796  ALA797  LYS798  CYS799  TRP800  GLU811  SER814 

> <Gold.Protein.RotatedAtoms>
  150.8526  134.7855  159.7019 H   0  0  0  0  0  0  0  0  0  0  0  0  # atno 6907 bound_to 6896
  152.4586  134.5232  159.9798 H   0  0  0  0  0  0  0  0  0  0  0  0  # atno 6908 bound_to 6896
  151.5350  133.3404  159.2961 H   0  0  0  0  0  0  0  0  0  0  0  0  # atno 6909 bound_to 6896
  145.8445  140.8395  143.0017 H   0  0  0  0  0  0  0  0  0  0  0  0  # atno 7974 bound_to 7965
  156.0942  140.1426  156.9553 H   0  0  0  0  0  0  0  0  0  0  0  0  # atno 8008 bound_to 7997
  154.4661  140.0926  156.7069 H   0  0  0  0  0  0  0  0  0  0  0  0  # atno 8009 bound_to 7997
  155.4869  140.3447  155.4351 H   0  0  0  0  0  0  0  0  0  0  0  0  # atno 8010 bound_to 7997
  140.2873  144.3087  150.6249 H   0  0  0  0  0  0  0  0  0  0  0  0  # atno 10167 bound_to 10162
  156.6678  130.5000  149.6010 H   0  0  0  0  0  0  0  0  0  0  0  0  # atno 10718 bound_to 10713
  153.8451  135.6854  153.4798 H   0  0  0  0  0  0  0  0  0  0  0  0  # atno 10763 bound_to 10752
  153.1430  135.4649  154.9522 H   0  0  0  0  0  0  0  0  0  0  0  0  # atno 10764 bound_to 10752
  154.7827  135.3274  154.7901 H   0  0  0  0  0  0  0  0  0  0  0  0  # atno 10765 bound_to 10752
  140.6949  134.4000  157.5215 H   0  0  0  0  0  0  0  0  0  0  0  0  # atno 11005 bound_to 11000
  144.6732  140.0861  143.7467 LP  0  0  0  0  0  0  0  0  0  0  0  0  # atno 17320 bound_to 7965
  145.9428  139.2680  143.1259 LP  0  0  0  0  0  0  0  0  0  0  0  0  # atno 17321 bound_to 7965
  140.5762  143.2176  151.7511 LP  0  0  0  0  0  0  0  0  0  0  0  0  # atno 17342 bound_to 10162
  139.4947  144.4146  152.0043 LP  0  0  0  0  0  0  0  0  0  0  0  0  # atno 17343 bound_to 10162
  156.1961  130.6591  151.1116 LP  0  0  0  0  0  0  0  0  0  0  0  0  # atno 17370 bound_to 10713
  157.7087  131.0744  150.6576 LP  0  0  0  0  0  0  0  0  0  0  0  0  # atno 17371 bound_to 10713
  139.8913  134.8784  156.2328 LP  0  0  0  0  0  0  0  0  0  0  0  0  # atno 17394 bound_to 11000
  141.0211  133.7041  156.1270 LP  0  0  0  0  0  0  0  0  0  0  0  0  # atno 17395 bound_to 11000

$$$$
