AV-unprocessed.smi:229|AV-procd|sdf|1757|dock2
  -GOLD-   2262020283D 1   1.00000     0.00000
 Structure written by MMmdl.
 58 62  0  0  0  0  0  0  0  0  1 V2000
  152.2069  141.7110  158.9528 C   0  0  0  0  0  0  0  0  0  0  0  0
  151.9951  140.2637  159.4142 C   0  0  0  0  0  0  0  0  0  0  0  0
  150.9781  139.5033  158.5503 C   0  0  2  0  0  0  0  0  0  0  0  0
  150.6656  138.1108  159.1241 C   0  0  0  0  0  0  0  0  0  0  0  0
  149.7760  137.3921  158.2191 N   0  0  0  0  0  0  0  0  0  0  0  0
  149.1453  136.2828  158.6791 C   0  0  0  0  0  0  0  0  0  0  0  0
  149.1789  135.1311  157.9563 N   0  0  0  0  0  0  0  0  0  0  0  0
  148.5532  134.0369  158.4004 C   0  0  0  0  0  0  0  0  0  0  0  0
  147.8497  133.8746  159.5228 N   0  0  0  0  0  0  0  0  0  0  0  0
  147.8201  135.0237  160.2562 C   0  0  0  0  0  0  0  0  0  0  0  0
  148.4340  136.2611  159.9120 C   0  0  0  0  0  0  0  0  0  0  0  0
  148.1972  137.1995  160.9104 N   0  0  0  0  0  0  0  0  0  0  0  0
  147.4785  136.5560  161.7895 C   0  0  0  0  0  0  0  0  0  0  0  0
  147.2077  135.2433  161.4767 N   0  0  0  0  0  0  0  0  0  0  0  0
  146.4440  134.2968  162.2707 C   0  0  0  0  0  0  0  0  0  0  0  0
  145.3552  133.5825  161.4458 C   0  0  1  0  0  0  0  0  0  0  0  0
  145.1082  132.3062  162.0057 O   0  0  0  0  0  0  0  0  0  0  0  0
  144.0341  134.3730  161.4124 C   0  0  2  0  0  0  0  0  0  0  0  0
  143.3439  134.5138  162.7707 C   0  0  0  0  0  0  0  0  0  0  0  0
  141.8755  134.6913  162.4155 C   0  0  0  0  0  0  0  0  0  0  0  0
  141.7959  134.2816  160.9427 C   0  0  0  0  0  0  0  0  0  0  0  0
  143.0509  133.6803  160.6590 O   0  0  0  0  0  0  0  0  0  0  0  0
  150.3054  137.2863  156.8644 C   0  0  0  0  0  0  0  0  0  0  0  0
  150.6715  138.6796  156.3063 C   0  0  2  0  0  0  0  0  0  0  0  0
  149.4499  139.5295  155.9380 C   0  0  0  0  0  0  0  0  0  0  0  0
  149.3849  139.4333  154.4205 C   0  0  0  0  0  0  0  0  0  0  0  0
  150.7537  139.4314  154.0618 O   0  0  0  0  0  0  0  0  0  0  0  0
  151.4207  138.5612  154.9651 C   0  0  0  0  0  0  0  0  0  0  0  0
  151.5221  139.3556  157.2374 O   0  0  0  0  0  0  0  0  0  0  0  0
  152.9216  142.2231  159.5973 H   0  0  0  0  0  0  0  0  0  0  0  0
  151.2732  142.2733  158.9781 H   0  0  0  0  0  0  0  0  0  0  0  0
  152.5932  141.7488  157.9339 H   0  0  0  0  0  0  0  0  0  0  0  0
  152.9499  139.7365  159.4102 H   0  0  0  0  0  0  0  0  0  0  0  0
  151.6536  140.2726  160.4501 H   0  0  0  0  0  0  0  0  0  0  0  0
  150.0564  140.0852  158.5069 H   0  0  0  0  0  0  0  0  0  0  0  0
  151.5863  137.5403  159.2560 H   0  0  0  0  0  0  0  0  0  0  0  0
  150.2010  138.2141  160.1058 H   0  0  0  0  0  0  0  0  0  0  0  0
  148.6262  133.1665  157.7651 H   0  0  0  0  0  0  0  0  0  0  0  0
  147.1299  137.0226  162.6994 H   0  0  0  0  0  0  0  0  0  0  0  0
  147.1316  133.5709  162.7072 H   0  0  0  0  0  0  0  0  0  0  0  0
  145.9942  134.8392  163.1032 H   0  0  0  0  0  0  0  0  0  0  0  0
  145.7147  133.4374  160.4260 H   0  0  0  0  0  0  0  0  0  0  0  0
  145.9107  131.8077  161.9809 H   0  0  0  0  0  0  0  0  0  0  0  0
  144.1882  135.3584  160.9679 H   0  0  0  0  0  0  0  0  0  0  0  0
  143.4682  133.6004  163.3544 H   0  0  0  0  0  0  0  0  0  0  0  0
  143.7406  135.3424  163.3582 H   0  0  0  0  0  0  0  0  0  0  0  0
  141.2460  134.0598  163.0435 H   0  0  0  0  0  0  0  0  0  0  0  0
  141.5520  135.7244  162.5464 H   0  0  0  0  0  0  0  0  0  0  0  0
  140.9748  133.5932  160.7418 H   0  0  0  0  0  0  0  0  0  0  0  0
  141.6672  135.1594  160.3076 H   0  0  0  0  0  0  0  0  0  0  0  0
  151.1958  136.6569  156.8975 H   0  0  0  0  0  0  0  0  0  0  0  0
  149.6025  136.7939  156.1932 H   0  0  0  0  0  0  0  0  0  0  0  0
  148.5268  139.2042  156.4192 H   0  0  0  0  0  0  0  0  0  0  0  0
  149.6185  140.5713  156.2139 H   0  0  0  0  0  0  0  0  0  0  0  0
  148.9151  138.5007  154.1038 H   0  0  0  0  0  0  0  0  0  0  0  0
  148.8482  140.2663  153.9660 H   0  0  0  0  0  0  0  0  0  0  0  0
  152.4763  138.8227  155.0453 H   0  0  0  0  0  0  0  0  0  0  0  0
  151.3636  137.5463  154.5683 H   0  0  0  0  0  0  0  0  0  0  0  0
  1  2  1  0  0  0  0
  1 30  1  0  0  0  0
  1 31  1  0  0  0  0
  1 32  1  0  0  0  0
  2  3  1  0  0  0  0
  2 33  1  0  0  0  0
  2 34  1  0  0  0  0
  3 29  1  0  0  0  0
  3  4  1  0  0  0  0
  3 35  1  0  0  0  0
  4  5  1  0  0  0  0
  4 36  1  0  0  0  0
  4 37  1  0  0  0  0
  5  6  1  0  0  0  0
  5 23  1  0  0  0  0
  6 11  1  0  0  0  0
  6  7  2  0  0  0  0
  7  8  1  0  0  0  0
  8  9  2  0  0  0  0
  8 38  1  0  0  0  0
  9 10  1  0  0  0  0
 10 14  1  0  0  0  0
 10 11  2  0  0  0  0
 11 12  1  0  0  0  0
 12 13  2  0  0  0  0
 13 14  1  0  0  0  0
 13 39  1  0  0  0  0
 14 15  1  0  0  0  0
 15 16  1  0  0  0  0
 15 40  1  0  0  0  0
 15 41  1  0  0  0  0
 16 17  1  0  0  0  0
 16 18  1  0  0  0  0
 16 42  1  0  0  0  0
 17 43  1  0  0  0  0
 18 22  1  0  0  0  0
 18 19  1  0  0  0  0
 18 44  1  0  0  0  0
 19 20  1  0  0  0  0
 19 45  1  0  0  0  0
 19 46  1  0  0  0  0
 20 21  1  0  0  0  0
 20 47  1  0  0  0  0
 20 48  1  0  0  0  0
 21 22  1  0  0  0  0
 21 49  1  0  0  0  0
 21 50  1  0  0  0  0
 23 24  1  0  0  0  0
 23 51  1  0  0  0  0
 23 52  1  0  0  0  0
 24 28  1  0  0  0  0
 24 25  1  0  0  0  0
 24 29  1  0  0  0  0
 25 26  1  0  0  0  0
 25 53  1  0  0  0  0
 25 54  1  0  0  0  0
 26 27  1  0  0  0  0
 26 55  1  0  0  0  0
 26 56  1  0  0  0  0
 27 28  1  0  0  0  0
 28 57  1  0  0  0  0
 28 58  1  0  0  0  0
M  END
> <s_m_source_file>
AV-unprocessed.smi

> <i_m_source_file_index>
229

> <i_lp_mmshare_version>
43012

> <i_f3d_flags>
0

> <s_epik_input>
W0NIMl0xT1tDSDJdW0NIMl1bQ0BdMTJbQ0gyXU4oW0NIMl1bQ0BIXShPMilbQ0gyXVtDSDNdKWMobltjSF1uMyljKGMzNCluW2NIXW40W0NIMl1bQ0BIXShbT0hdKVtDQEBIXTVbQ0gyXVtDSDJdW0NIMl1PNQ==

> <s_epik_cmdline>
J2VwaWtfcHl0aG9uJywgJy1waCcsICc3LjAnLCAnLXRuJywgJzgnLCAnLW1hJywgJzIwMCcsICctbWV0YWxfYmluZGluZycsICctaW1hZScsICc8aW5maWxlLm1hZT4nLCAnLW9tYWUnLCAnPG91dGZpbGUubWFlPic=

> <r_lp_tautomer_probability>
1

> <r_epik_Ionization_Penalty>
0.00318402

> <r_epik_Ionization_Penalty_Charging>
0

> <r_epik_Ionization_Penalty_Neutral>
0.00318402

> <r_epik_State_Penalty>
0.00215642

> <r_epik_Charging_Adjusted_Penalty>
0.00215642

> <i_epik_Tot_Q>
0

> <i_epik_Tot_abs_Q>
0

> <r_epik_Metal_State_Penalty>
-0

> <b_epik_Metal_Only>
0

> <s_lp_Force_Field>
OPLS_2005

> <r_lp_Energy>
53.2063

> <b_lp_Chiralities_Consistent>
1

> <s_lp_Variant>
AV-unprocessed.smi:229-11

> <Gold.Version>
5.8.1

> <Gold.Id.Protein>
6NUR|6NUR_protein|mol2

> <Gold.PLP.Fitness>
48.3100

> <Gold.PLP.PLP>
-42.6911

> <Gold.PLP.part.hbond>
-3.1376

> <Gold.PLP.part.metal>
0.0000

> <Gold.PLP.part.buried>
-6.4437

> <Gold.PLP.part.nonpolar>
-33.2450

> <Gold.PLP.part.repulsive>
0.6084

> <Gold.PLP.ligand.clash>
0.0000

> <Gold.PLP.ligand.torsion>
0.6096

> <Gold.PLP.Chemscore.Hbond>
2.1459

> <Gold.PLP.Chemscore.CHOScore>
0.0000

> <Gold.PLP.Chemscore.Metal>
0.0000

> <Gold.Chemscore.Hbonds>
donor molecule, donor type, donor heavy atom, donor atom, acceptor molecule, acceptor atom, score
      P1  H  6896  6908       L1     7  0.01
      P1  H  6931  6943       L1    12  0.93
      P1  H  6934  6947       L1    12  0.56
      P1  H  7989  7998       L1    27  1.00

> <Gold.PLP.Chemscore.Internal.Correction>
0.4006

> <Gold.Rescore>
     Score         DG    S(hbond)    S(metal)    S(lipo)     H(rot)  DE(clash)    DE(int)     intcor
     14.04     -15.22       1.69        0.00      88.75       2.46       0.01       1.17       ----

> <Gold.Chemscore.Fitness>
14.0393

> <Gold.Chemscore.DG>
-15.2198

> <Gold.Chemscore.ZeroCoef>
-5.4800

> <Gold.Chemscore.Hbond>
1.6920

> <Gold.Chemscore.Metal>
0.0000

> <Gold.Chemscore.Lipo>
88.7508

> <Gold.Chemscore.Internal_Hbond>
0.0000

> <Gold.Chemscore.DEClash>
0.0104

> <Gold.Chemscore.DEInternal>
1.1702

> <Gold.Chemscore.Rot>
2.4591

> <Gold.Chemscore.Internal.Correction>
   9.000000E+99

> <Gold.Chemscore.Hbonds>
donor molecule, donor type, donor heavy atom, donor atom, acceptor molecule, acceptor atom, score
      P1  H  6931  6943       L1    12  0.27
      P1  H  6934  6947       L1    12  0.14
      P1  H  7989  7998       L1    27  0.95

> <Gold.Chemscore.Hbond.Weighted>
-5.6513

> <Gold.Chemscore.Metal.Weighted>
-0.0000

> <Gold.Chemscore.Lipo.Weighted>
-10.3838

> <Gold.Chemscore.Internal_Hbond.Weighted>
0.0000

> <Gold.Chemscore.DEClash.Weighted>
0.0104

> <Gold.Chemscore.DEInternal.Weighted>
1.1702

> <Gold.Chemscore.Rot.Weighted>
6.2953

> <Gold.Chemscore.Internal.Correction.Weighted>
   9.000000E+99

> <Gold.Protein.RotatedTorsions>
[ 6907 6896 6895 6894 ] final  167.43 input  -60.11 | X-H torsion
[ 7974 7965 7964 7962 ] final -155.88 input  175.53 | X-H torsion
[ 8008 7997 7996 7995 ] final   50.01 input   59.86 | X-H torsion
[ 10167 10162 10161 10158 ] final  133.98 input  -65.29 | X-H torsion
[ 10718 10713 10712 10709 ] final  -15.01 input   66.30 | X-H torsion
[ 10763 10752 10751 10750 ] final   80.06 input  -60.55 | X-H torsion
[ 11005 11000 10999 10996 ] final   95.10 input  -57.11 | X-H torsion

> <Gold.Protein.ActiveResidues>
 VAL166  LYS551  ARG553  GLY616  TRP617  ASP618  TYR619  PRO620  LYS621  CYS622 
 ASP623  PHE694  ASN695  SER759  ASP760  ASP761  ALA762  ILE779  LEU786  VAL792 
 PHE793  MET794  SER795  GLU796  ALA797  LYS798  CYS799  TRP800  GLU811  SER814 

> <Gold.Protein.RotatedAtoms>
  151.8635  133.3461  159.3711 H   0  0  0  0  0  0  0  0  0  0  0  0  # atno 6907 bound_to 6896
  150.7172  134.5183  159.5650 H   0  0  0  0  0  0  0  0  0  0  0  0  # atno 6908 bound_to 6896
  152.2701  134.7942  160.0466 H   0  0  0  0  0  0  0  0  0  0  0  0  # atno 6909 bound_to 6896
  144.7619  140.4188  143.5970 H   0  0  0  0  0  0  0  0  0  0  0  0  # atno 7974 bound_to 7965
  155.4117  140.3442  155.4264 H   0  0  0  0  0  0  0  0  0  0  0  0  # atno 8008 bound_to 7997
  156.1445  140.1552  156.8900 H   0  0  0  0  0  0  0  0  0  0  0  0  # atno 8009 bound_to 7997
  154.4999  140.0817  156.7756 H   0  0  0  0  0  0  0  0  0  0  0  0  # atno 8010 bound_to 7997
  139.5275  144.6590  151.5074 H   0  0  0  0  0  0  0  0  0  0  0  0  # atno 10167 bound_to 10162
  156.6078  130.4841  149.6214 H   0  0  0  0  0  0  0  0  0  0  0  0  # atno 10718 bound_to 10713
  153.1003  135.4816  154.8854 H   0  0  0  0  0  0  0  0  0  0  0  0  # atno 10763 bound_to 10752
  154.7371  135.3073  154.8795 H   0  0  0  0  0  0  0  0  0  0  0  0  # atno 10764 bound_to 10752
  153.9414  135.6833  153.4797 H   0  0  0  0  0  0  0  0  0  0  0  0  # atno 10765 bound_to 10752
  139.8792  134.8881  156.3961 H   0  0  0  0  0  0  0  0  0  0  0  0  # atno 11005 bound_to 11000
  145.6592  139.1578  143.2818 LP  0  0  0  0  0  0  0  0  0  0  0  0  # atno 17320 bound_to 7965
  146.1690  140.6674  142.9242 LP  0  0  0  0  0  0  0  0  0  0  0  0  # atno 17321 bound_to 7965
  140.6429  143.8854  150.6708 LP  0  0  0  0  0  0  0  0  0  0  0  0  # atno 17342 bound_to 10162
  140.2194  143.3821  152.1655 LP  0  0  0  0  0  0  0  0  0  0  0  0  # atno 17343 bound_to 10162
  156.2415  130.6854  151.1560 LP  0  0  0  0  0  0  0  0  0  0  0  0  # atno 17370 bound_to 10713
  157.7262  131.0647  150.5918 LP  0  0  0  0  0  0  0  0  0  0  0  0  # atno 17371 bound_to 10713
  140.9299  133.7586  156.0012 LP  0  0  0  0  0  0  0  0  0  0  0  0  # atno 17394 bound_to 11000
  140.8342  134.3142  157.5337 LP  0  0  0  0  0  0  0  0  0  0  0  0  # atno 17395 bound_to 11000

$$$$
