AV-unprocessed.smi:767|AV-procd|sdf|3665|dock4
  -GOLD-   22720 1 73D 1   1.00000     0.00000
 Structure written by MMmdl.
 48 50  0  0  0  0  0  0  0  0  2 V2000
  151.4344  143.2645  158.8379 C   0  0  0  0  0  0  0  0  0  0  0  0
  151.1238  142.1583  157.8516 C   0  0  0  0  0  0  0  0  0  0  0  0
  151.5914  140.8382  158.0273 C   0  0  0  0  0  0  0  0  0  0  0  0
  151.2570  139.8568  157.0714 C   0  0  0  0  0  0  0  0  0  0  0  0
  150.4594  140.2131  155.9614 C   0  0  0  0  0  0  0  0  0  0  0  0
  150.0645  139.1724  154.9274 C   0  0  0  0  0  0  0  0  0  0  0  0
  151.2062  138.2025  154.5576 C   0  0  0  0  0  0  0  0  0  0  0  0
  150.7344  136.8888  154.1272 N   0  0  0  0  0  0  0  0  0  0  0  0
  150.1186  135.9941  154.9121 C   0  0  0  0  0  0  0  0  0  0  0  0
  149.8717  136.1766  156.1040 O   0  0  0  0  0  0  0  0  0  0  0  0
  149.7879  134.8853  154.2379 N   0  0  0  0  0  0  0  0  0  0  0  0
  149.0722  133.7550  154.8173 C   0  0  2  0  0  0  0  0  0  0  0  0
  149.8581  132.4475  154.7131 C   0  0  1  0  0  0  0  0  0  0  0  0
  150.4907  131.5263  155.6942 C   0  0  0  0  0  0  0  0  0  0  0  0
  149.9497  130.1925  155.1125 C   0  0  0  0  0  0  0  0  0  0  0  0
  148.9422  130.5626  154.1392 O   0  0  0  0  0  0  0  0  0  0  0  0
  148.4831  131.8195  154.5923 C   0  0  2  0  0  0  0  0  0  0  0  0
  148.0446  133.0850  153.8288 C   0  0  0  0  0  0  0  0  0  0  0  0
  146.5844  133.4923  154.0278 C   0  0  0  0  0  0  0  0  0  0  0  0
  148.3028  133.1278  152.3089 C   0  0  0  0  0  0  0  0  0  0  0  0
  150.0256  141.5500  155.8350 C   0  0  0  0  0  0  0  0  0  0  0  0
  150.3681  142.4613  156.7721 N   0  3  0  0  0  0  0  0  0  0  0  0
  152.1140  142.9167  159.6168 H   0  0  0  0  0  0  0  0  0  0  0  0
  150.5189  143.6138  159.3161 H   0  0  0  0  0  0  0  0  0  0  0  0
  151.9027  144.1083  158.3305 H   0  0  0  0  0  0  0  0  0  0  0  0
  152.1954  140.5761  158.8839 H   0  0  0  0  0  0  0  0  0  0  0  0
  151.6020  138.8404  157.1966 H   0  0  0  0  0  0  0  0  0  0  0  0
  149.2117  138.6070  155.3044 H   0  0  0  0  0  0  0  0  0  0  0  0
  149.7099  139.6807  154.0299 H   0  0  0  0  0  0  0  0  0  0  0  0
  151.7807  138.6216  153.7313 H   0  0  0  0  0  0  0  0  0  0  0  0
  151.9016  138.0975  155.3919 H   0  0  0  0  0  0  0  0  0  0  0  0
  150.8931  136.6426  153.1610 H   0  0  0  0  0  0  0  0  0  0  0  0
  150.0345  134.8211  153.2611 H   0  0  0  0  0  0  0  0  0  0  0  0
  148.6776  133.9397  155.8211 H   0  0  0  0  0  0  0  0  0  0  0  0
  150.4257  132.4184  153.7798 H   0  0  0  0  0  0  0  0  0  0  0  0
  151.5798  131.5772  155.6840 H   0  0  0  0  0  0  0  0  0  0  0  0
  150.1342  131.7040  156.7099 H   0  0  0  0  0  0  0  0  0  0  0  0
  150.7333  129.6139  154.6225 H   0  0  0  0  0  0  0  0  0  0  0  0
  149.5130  129.5747  155.8981 H   0  0  0  0  0  0  0  0  0  0  0  0
  147.9574  131.7163  155.5487 H   0  0  0  0  0  0  0  0  0  0  0  0
  145.9045  132.7994  153.5313 H   0  0  0  0  0  0  0  0  0  0  0  0
  146.3881  134.4894  153.6326 H   0  0  0  0  0  0  0  0  0  0  0  0
  146.3136  133.5089  155.0839 H   0  0  0  0  0  0  0  0  0  0  0  0
  147.6951  132.3872  151.7881 H   0  0  0  0  0  0  0  0  0  0  0  0
  149.3374  132.9338  152.0321 H   0  0  0  0  0  0  0  0  0  0  0  0
  148.0490  134.1021  151.8929 H   0  0  0  0  0  0  0  0  0  0  0  0
  149.4138  141.9140  155.0224 H   0  0  0  0  0  0  0  0  0  0  0  0
  150.0395  143.4211  156.6614 H   0  0  0  0  0  0  0  0  0  0  0  0
  1  2  1  0  0  0  0
  1 23  1  0  0  0  0
  1 24  1  0  0  0  0
  1 25  1  0  0  0  0
  2 22  1  0  0  0  0
  2  3  2  0  0  0  0
  3  4  1  0  0  0  0
  3 26  1  0  0  0  0
  4  5  2  0  0  0  0
  4 27  1  0  0  0  0
  5  6  1  0  0  0  0
  5 21  1  0  0  0  0
  6  7  1  0  0  0  0
  6 28  1  0  0  0  0
  6 29  1  0  0  0  0
  7  8  1  0  0  0  0
  7 30  1  0  0  0  0
  7 31  1  0  0  0  0
  8  9  1  0  0  0  0
  8 32  1  0  0  0  0
  9 10  2  0  0  0  0
  9 11  1  0  0  0  0
 11 12  1  0  0  0  0
 11 33  1  0  0  0  0
 12 18  1  0  0  0  0
 12 13  1  0  0  0  0
 12 34  1  0  0  0  0
 13 17  1  0  0  0  0
 13 14  1  0  0  0  0
 13 35  1  0  0  0  0
 14 15  1  0  0  0  0
 14 36  1  0  0  0  0
 14 37  1  0  0  0  0
 15 16  1  0  0  0  0
 15 38  1  0  0  0  0
 15 39  1  0  0  0  0
 16 17  1  0  0  0  0
 17 18  1  0  0  0  0
 17 40  1  0  0  0  0
 18 19  1  0  0  0  0
 18 20  1  0  0  0  0
 19 41  1  0  0  0  0
 19 42  1  0  0  0  0
 19 43  1  0  0  0  0
 20 44  1  0  0  0  0
 20 45  1  0  0  0  0
 20 46  1  0  0  0  0
 21 22  2  0  0  0  0
 21 47  1  0  0  0  0
 22 48  1  0  0  0  0
M  CHG  1  22   1
M  END
> <s_m_source_file>
AV-unprocessed.smi

> <i_m_source_file_index>
767

> <i_lp_mmshare_version>
43012

> <i_f3d_flags>
0

> <s_epik_input>
W0NIM11jMVtjSF1bY0hdYyhbY0hdbjEpW0NIMl1bQ0gyXVtOSF1DKD1PKVtOSF1bQ0BIXTJDKFtDSDNdKShbQ0gzXSlbQ0BIXShbQ0BASF0yMylPW0NIMl1bQ0gyXTM=

> <s_epik_cmdline>
J2VwaWtfcHl0aG9uJywgJy1waCcsICc3LjAnLCAnLXRuJywgJzgnLCAnLW1hJywgJzIwMCcsICctbWV0YWxfYmluZGluZycsICctaW1hZScsICc8aW5maWxlLm1hZT4nLCAnLW9tYWUnLCAnPG91dGZpbGUubWFlPic=

> <r_epik_Ionization_Penalty>
1.41853

> <r_epik_Ionization_Penalty_Charging>
1.41848

> <r_epik_Ionization_Penalty_Neutral>
5.17407e-05

> <r_epik_State_Penalty>
1.50205

> <r_epik_Charging_Adjusted_Penalty>
2.92053

> <i_epik_Tot_Q>
1

> <i_epik_Tot_abs_Q>
1

> <r_epik_Metal_State_Penalty>
1.5544

> <b_epik_Metal_Only>
0

> <s_lp_Force_Field>
OPLS_2005

> <r_lp_Energy>
63.3353

> <b_lp_Chiralities_Consistent>
1

> <s_lp_Variant>
AV-unprocessed.smi:767-9

> <Gold.Version>
5.8.1

> <Gold.Id.Protein>
6NUR|6NUR_protein|mol2

> <Gold.PLP.Fitness>
48.7960

> <Gold.PLP.PLP>
-40.7594

> <Gold.PLP.part.hbond>
-4.3257

> <Gold.PLP.part.metal>
0.0000

> <Gold.PLP.part.buried>
-4.9907

> <Gold.PLP.part.nonpolar>
-31.5855

> <Gold.PLP.part.repulsive>
0.3105

> <Gold.PLP.ligand.clash>
0.0000

> <Gold.PLP.ligand.torsion>
0.6214

> <Gold.PLP.Chemscore.Hbond>
3.0000

> <Gold.PLP.Chemscore.CHOScore>
0.0000

> <Gold.PLP.Chemscore.Metal>
0.0000

> <Gold.Chemscore.Hbonds>
donor molecule, donor type, donor heavy atom, donor atom, acceptor molecule, acceptor atom, score
      L1  H     8    32       P1  7949  0.80
      L1  H    22    48       P1  8028  1.95

> <Gold.PLP.Chemscore.Internal.Correction>
0.2795

> <Gold.Rescore>
     Score         DG    S(hbond)    S(metal)    S(lipo)     H(rot)  DE(clash)    DE(int)     intcor
     18.95     -19.62       1.89        0.00     100.24       1.52       0.01       0.65       ----

> <Gold.Chemscore.Fitness>
18.9525

> <Gold.Chemscore.DG>
-19.6153

> <Gold.Chemscore.ZeroCoef>
-5.4800

> <Gold.Chemscore.Hbond>
1.8883

> <Gold.Chemscore.Metal>
0.0000

> <Gold.Chemscore.Lipo>
100.2376

> <Gold.Chemscore.Internal_Hbond>
0.0000

> <Gold.Chemscore.DEClash>
0.0103

> <Gold.Chemscore.DEInternal>
0.6525

> <Gold.Chemscore.Rot>
1.5233

> <Gold.Chemscore.Internal.Correction>
   9.000000E+99

> <Gold.Chemscore.Hbonds>
donor molecule, donor type, donor heavy atom, donor atom, acceptor molecule, acceptor atom, score
      L1  H     8    32       P1  7949  0.12
      L1  H    22    48       P1  8028  0.90

> <Gold.Chemscore.Hbond.Weighted>
-6.3071

> <Gold.Chemscore.Metal.Weighted>
-0.0000

> <Gold.Chemscore.Lipo.Weighted>
-11.7278

> <Gold.Chemscore.Internal_Hbond.Weighted>
0.0000

> <Gold.Chemscore.DEClash.Weighted>
0.0103

> <Gold.Chemscore.DEInternal.Weighted>
0.6525

> <Gold.Chemscore.Rot.Weighted>
3.8995

> <Gold.Chemscore.Internal.Correction.Weighted>
   9.000000E+99

> <Gold.Protein.RotatedTorsions>
[ 6907 6896 6895 6894 ] final -163.74 input  -60.11 | X-H torsion
[ 7974 7965 7964 7962 ] final   13.89 input  175.53 | X-H torsion
[ 8008 7997 7996 7995 ] final   -4.19 input   59.86 | X-H torsion
[ 10167 10162 10161 10158 ] final   99.72 input  -65.29 | X-H torsion
[ 10718 10713 10712 10709 ] final  -91.13 input   66.30 | X-H torsion
[ 10763 10752 10751 10750 ] final  -62.89 input  -60.55 | X-H torsion
[ 11005 11000 10999 10996 ] final  167.06 input  -57.11 | X-H torsion

> <Gold.Protein.ActiveResidues>
 VAL166  LYS551  ARG553  GLY616  TRP617  ASP618  TYR619  PRO620  LYS621  CYS622 
 ASP623  PHE694  ASN695  SER759  ASP760  ASP761  ALA762  ILE779  LEU786  VAL792 
 PHE793  MET794  SER795  GLU796  ALA797  LYS798  CYS799  TRP800  GLU811  SER814 

> <Gold.Protein.RotatedAtoms>
  151.4007  133.3758  159.2731 H   0  0  0  0  0  0  0  0  0  0  0  0  # atno 6907 bound_to 6896
  150.9435  134.8843  159.7638 H   0  0  0  0  0  0  0  0  0  0  0  0  # atno 6908 bound_to 6896
  152.5082  134.3959  159.9452 H   0  0  0  0  0  0  0  0  0  0  0  0  # atno 6909 bound_to 6896
  146.2318  139.9121  142.8523 H   0  0  0  0  0  0  0  0  0  0  0  0  # atno 7974 bound_to 7965
  154.6169  140.2490  155.7598 H   0  0  0  0  0  0  0  0  0  0  0  0  # atno 8008 bound_to 7997
  156.2404  140.2935  156.0377 H   0  0  0  0  0  0  0  0  0  0  0  0  # atno 8009 bound_to 7997
  155.1960  140.0393  157.2899 H   0  0  0  0  0  0  0  0  0  0  0  0  # atno 8010 bound_to 7997
  139.7592  144.6960  151.0317 H   0  0  0  0  0  0  0  0  0  0  0  0  # atno 10167 bound_to 10162
  155.9992  130.4936  150.5428 H   0  0  0  0  0  0  0  0  0  0  0  0  # atno 10718 bound_to 10713
  154.3067  135.6224  153.5448 H   0  0  0  0  0  0  0  0  0  0  0  0  # atno 10763 bound_to 10752
  152.9834  135.5691  154.5223 H   0  0  0  0  0  0  0  0  0  0  0  0  # atno 10764 bound_to 10752
  154.4865  135.2865  155.1507 H   0  0  0  0  0  0  0  0  0  0  0  0  # atno 10765 bound_to 10752
  140.2728  134.7812  157.3691 H   0  0  0  0  0  0  0  0  0  0  0  0  # atno 11005 bound_to 11000
  145.2219  140.9938  143.4041 LP  0  0  0  0  0  0  0  0  0  0  0  0  # atno 17320 bound_to 7965
  144.9603  139.3987  143.6359 LP  0  0  0  0  0  0  0  0  0  0  0  0  # atno 17321 bound_to 7965
  140.7805  143.4717  151.0137 LP  0  0  0  0  0  0  0  0  0  0  0  0  # atno 17342 bound_to 10162
  139.8403  143.7572  152.3180 LP  0  0  0  0  0  0  0  0  0  0  0  0  # atno 17343 bound_to 10162
  157.3362  131.0708  151.1823 LP  0  0  0  0  0  0  0  0  0  0  0  0  # atno 17370 bound_to 10713
  157.2687  130.6694  149.6009 LP  0  0  0  0  0  0  0  0  0  0  0  0  # atno 17371 bound_to 10713
  140.1356  134.5038  155.8071 LP  0  0  0  0  0  0  0  0  0  0  0  0  # atno 17394 bound_to 11000
  141.2175  133.6806  156.7119 LP  0  0  0  0  0  0  0  0  0  0  0  0  # atno 17395 bound_to 11000

$$$$
