AV-unprocessed.smi:281|AV-procd|sdf|2110|dock5
  -GOLD-   2262021403D 1   1.00000     0.00000
 Structure written by MMmdl.
 55 59  0  0  0  0  0  0  0  0  1 V2000
  153.0125  138.9529  154.8545 C   0  0  0  0  0  0  0  0  0  0  0  0
  152.0130  139.7324  155.7148 C   0  0  1  0  0  0  0  0  0  0  0  0
  150.6146  139.0994  155.6903 C   0  0  0  0  0  0  0  0  0  0  0  0
  149.7228  139.8250  156.5888 N   0  0  0  0  0  0  0  0  0  0  0  0
  148.3926  139.5596  156.5057 C   0  0  0  0  0  0  0  0  0  0  0  0
  147.5015  140.3409  157.1743 N   0  0  0  0  0  0  0  0  0  0  0  0
  146.1906  140.0967  157.0927 C   0  0  0  0  0  0  0  0  0  0  0  0
  145.5621  139.1364  156.4138 N   0  0  0  0  0  0  0  0  0  0  0  0
  146.4476  138.3409  155.7488 C   0  0  0  0  0  0  0  0  0  0  0  0
  147.8648  138.4823  155.7374 C   0  0  0  0  0  0  0  0  0  0  0  0
  148.4287  137.4843  154.9515 N   0  0  0  0  0  0  0  0  0  0  0  0
  147.4066  136.8005  154.5165 C   0  0  0  0  0  0  0  0  0  0  0  0
  146.1782  137.2388  154.9553 N   0  0  0  0  0  0  0  0  0  0  0  0
  144.8791  136.6663  154.6358 C   0  0  0  0  0  0  0  0  0  0  0  0
  144.5854  136.6003  153.1183 C   0  0  1  0  0  0  0  0  0  0  0  0
  144.6032  137.9125  152.5831 O   0  0  0  0  0  0  0  0  0  0  0  0
  145.6021  135.7585  152.3576 C   0  0  0  0  0  0  0  0  0  0  0  0
  144.7924  135.2386  151.1778 C   0  0  0  0  0  0  0  0  0  0  0  0
  143.5339  134.9493  151.7623 O   0  0  0  0  0  0  0  0  0  0  0  0
  143.2423  135.9384  152.7454 C   0  0  0  0  0  0  0  0  0  0  0  0
  150.2407  139.9183  157.9505 C   0  0  0  0  0  0  0  0  0  0  0  0
  151.6890  140.4738  157.9838 C   0  0  2  0  0  0  0  0  0  0  0  0
  152.3106  140.2504  159.3592 C   0  0  0  0  0  0  0  0  0  0  0  0
  153.2941  141.4000  159.4950 C   0  0  0  0  0  0  0  0  0  0  0  0
  152.5601  142.4758  158.9437 O   0  0  0  0  0  0  0  0  0  0  0  0
  151.8921  142.0063  157.7774 C   0  0  2  0  0  0  0  0  0  0  0  0
  150.6347  142.8613  157.5671 C   0  0  0  0  0  0  0  0  0  0  0  0
  152.4984  139.7417  157.0569 O   0  0  0  0  0  0  0  0  0  0  0  0
  152.6926  138.9203  153.8129 H   0  0  0  0  0  0  0  0  0  0  0  0
  153.1183  137.9259  155.2052 H   0  0  0  0  0  0  0  0  0  0  0  0
  153.9978  139.4187  154.8847 H   0  0  0  0  0  0  0  0  0  0  0  0
  151.9526  140.7507  155.3299 H   0  0  0  0  0  0  0  0  0  0  0  0
  150.2206  139.1225  154.6732 H   0  0  0  0  0  0  0  0  0  0  0  0
  150.6698  138.0536  155.9972 H   0  0  0  0  0  0  0  0  0  0  0  0
  145.5540  140.7661  157.6523 H   0  0  0  0  0  0  0  0  0  0  0  0
  147.5251  135.9496  153.8617 H   0  0  0  0  0  0  0  0  0  0  0  0
  144.8291  135.6672  155.0713 H   0  0  0  0  0  0  0  0  0  0  0  0
  144.1144  137.2572  155.1415 H   0  0  0  0  0  0  0  0  0  0  0  0
  144.1702  137.9005  151.7431 H   0  0  0  0  0  0  0  0  0  0  0  0
  146.4939  136.3105  152.0576 H   0  0  0  0  0  0  0  0  0  0  0  0
  145.9247  134.9128  152.9671 H   0  0  0  0  0  0  0  0  0  0  0  0
  144.6745  136.0080  150.4131 H   0  0  0  0  0  0  0  0  0  0  0  0
  145.2350  134.3561  150.7157 H   0  0  0  0  0  0  0  0  0  0  0  0
  142.7779  135.4381  153.5945 H   0  0  0  0  0  0  0  0  0  0  0  0
  142.5202  136.6571  152.3547 H   0  0  0  0  0  0  0  0  0  0  0  0
  149.5937  140.5143  158.5924 H   0  0  0  0  0  0  0  0  0  0  0  0
  150.2338  138.9115  158.3712 H   0  0  0  0  0  0  0  0  0  0  0  0
  151.5521  140.3426  160.1381 H   0  0  0  0  0  0  0  0  0  0  0  0
  152.7802  139.2722  159.4682 H   0  0  0  0  0  0  0  0  0  0  0  0
  153.5807  141.5934  160.5288 H   0  0  0  0  0  0  0  0  0  0  0  0
  154.1962  141.2217  158.9075 H   0  0  0  0  0  0  0  0  0  0  0  0
  152.5747  142.1809  156.9453 H   0  0  0  0  0  0  0  0  0  0  0  0
  150.0941  142.5628  156.6692 H   0  0  0  0  0  0  0  0  0  0  0  0
  150.9004  143.9120  157.4506 H   0  0  0  0  0  0  0  0  0  0  0  0
  149.9573  142.7902  158.4178 H   0  0  0  0  0  0  0  0  0  0  0  0
  1  2  1  0  0  0  0
  1 29  1  0  0  0  0
  1 30  1  0  0  0  0
  1 31  1  0  0  0  0
  2 28  1  0  0  0  0
  2  3  1  0  0  0  0
  2 32  1  0  0  0  0
  3  4  1  0  0  0  0
  3 33  1  0  0  0  0
  3 34  1  0  0  0  0
  4  5  1  0  0  0  0
  4 21  1  0  0  0  0
  5 10  1  0  0  0  0
  5  6  2  0  0  0  0
  6  7  1  0  0  0  0
  7  8  2  0  0  0  0
  7 35  1  0  0  0  0
  8  9  1  0  0  0  0
  9 13  1  0  0  0  0
  9 10  2  0  0  0  0
 10 11  1  0  0  0  0
 11 12  2  0  0  0  0
 12 13  1  0  0  0  0
 12 36  1  0  0  0  0
 13 14  1  0  0  0  0
 14 15  1  0  0  0  0
 14 37  1  0  0  0  0
 14 38  1  0  0  0  0
 15 20  1  0  0  0  0
 15 16  1  0  0  0  0
 15 17  1  0  0  0  0
 16 39  1  0  0  0  0
 17 18  1  0  0  0  0
 17 40  1  0  0  0  0
 17 41  1  0  0  0  0
 18 19  1  0  0  0  0
 18 42  1  0  0  0  0
 18 43  1  0  0  0  0
 19 20  1  0  0  0  0
 20 44  1  0  0  0  0
 20 45  1  0  0  0  0
 21 22  1  0  0  0  0
 21 46  1  0  0  0  0
 21 47  1  0  0  0  0
 22 26  1  0  0  0  0
 22 23  1  0  0  0  0
 22 28  1  0  0  0  0
 23 24  1  0  0  0  0
 23 48  1  0  0  0  0
 23 49  1  0  0  0  0
 24 25  1  0  0  0  0
 24 50  1  0  0  0  0
 24 51  1  0  0  0  0
 25 26  1  0  0  0  0
 26 27  1  0  0  0  0
 26 52  1  0  0  0  0
 27 53  1  0  0  0  0
 27 54  1  0  0  0  0
 27 55  1  0  0  0  0
M  END
> <s_m_source_file>
AV-unprocessed.smi

> <i_m_source_file_index>
281

> <i_lp_mmshare_version>
43012

> <i_f3d_flags>
0

> <s_epik_input>
W0NIM11bQ0BASF0xT1tDSDJdW0NIMl1bQ0BAXTEyW0NIMl1OKFtDSDJdW0NASF0oTzIpW0NIM10pYyhuW2NIXW4zKWMoYzM0KW5bY0hdbjRbQ0gyXVtDQEBdNShbT0hdKVtDSDJdW0NIMl1PW0NIMl01

> <s_epik_cmdline>
J2VwaWtfcHl0aG9uJywgJy1waCcsICc3LjAnLCAnLXRuJywgJzgnLCAnLW1hJywgJzIwMCcsICctbWV0YWxfYmluZGluZycsICctaW1hZScsICc8aW5maWxlLm1hZT4nLCAnLW9tYWUnLCAnPG91dGZpbGUubWFlPic=

> <r_lp_tautomer_probability>
1

> <r_epik_Ionization_Penalty>
0.00571331

> <r_epik_Ionization_Penalty_Charging>
0

> <r_epik_Ionization_Penalty_Neutral>
0.00571331

> <r_epik_State_Penalty>
0.00399586

> <r_epik_Charging_Adjusted_Penalty>
0.00399586

> <i_epik_Tot_Q>
0

> <i_epik_Tot_abs_Q>
0

> <r_epik_Metal_State_Penalty>
-0

> <b_epik_Metal_Only>
0

> <s_lp_Force_Field>
OPLS_2005

> <r_lp_Energy>
52.955

> <b_lp_Chiralities_Consistent>
1

> <s_lp_Variant>
AV-unprocessed.smi:281-10

> <Gold.Version>
5.8.1

> <Gold.Id.Protein>
6NUR|6NUR_protein|mol2

> <Gold.PLP.Fitness>
38.8803

> <Gold.PLP.PLP>
-30.3948

> <Gold.PLP.part.hbond>
-2.9782

> <Gold.PLP.part.metal>
0.0000

> <Gold.PLP.part.buried>
-3.7832

> <Gold.PLP.part.nonpolar>
-23.5915

> <Gold.PLP.part.repulsive>
0.3555

> <Gold.PLP.ligand.clash>
0.0000

> <Gold.PLP.ligand.torsion>
0.1409

> <Gold.PLP.Chemscore.Hbond>
2.0000

> <Gold.PLP.Chemscore.CHOScore>
0.8359

> <Gold.PLP.Chemscore.Metal>
0.0000

> <Gold.Chemscore.Hbonds>
donor molecule, donor type, donor heavy atom, donor atom, acceptor molecule, acceptor atom, score
      L1  H    16    39       P1 10171  0.91
      P1  H  7997  8008       L1    28  1.00
      L1  C    12    36       P1  7948  0.76

> <Gold.PLP.Chemscore.Internal.Correction>
0.2596

> <Gold.Rescore>
     Score         DG    S(hbond)    S(metal)    S(lipo)     H(rot)  DE(clash)    DE(int)     intcor
     13.15     -15.03       1.53        0.00      83.89       2.09       0.35       1.54       ----

> <Gold.Chemscore.Fitness>
13.1491

> <Gold.Chemscore.DG>
-15.0328

> <Gold.Chemscore.ZeroCoef>
-5.4800

> <Gold.Chemscore.Hbond>
1.5256

> <Gold.Chemscore.Metal>
0.0000

> <Gold.Chemscore.Lipo>
83.8859

> <Gold.Chemscore.Internal_Hbond>
0.0000

> <Gold.Chemscore.DEClash>
0.3461

> <Gold.Chemscore.DEInternal>
1.5376

> <Gold.Chemscore.Rot>
2.0927

> <Gold.Chemscore.Internal.Correction>
   9.000000E+99

> <Gold.Chemscore.Hbonds>
donor molecule, donor type, donor heavy atom, donor atom, acceptor molecule, acceptor atom, score
      L1  H    16    39       P1 10171  0.84
      P1  H  7997  8008       L1    28  0.37

> <Gold.Chemscore.Hbond.Weighted>
-5.0955

> <Gold.Chemscore.Metal.Weighted>
-0.0000

> <Gold.Chemscore.Lipo.Weighted>
-9.8146

> <Gold.Chemscore.Internal_Hbond.Weighted>
0.0000

> <Gold.Chemscore.DEClash.Weighted>
0.3461

> <Gold.Chemscore.DEInternal.Weighted>
1.5376

> <Gold.Chemscore.Rot.Weighted>
5.3573

> <Gold.Chemscore.Internal.Correction.Weighted>
   9.000000E+99

> <Gold.Protein.RotatedTorsions>
[ 6907 6896 6895 6894 ] final -148.90 input  -60.11 | X-H torsion
[ 7974 7965 7964 7962 ] final   34.11 input  175.53 | X-H torsion
[ 8008 7997 7996 7995 ] final  -72.74 input   59.86 | X-H torsion
[ 10167 10162 10161 10158 ] final -133.73 input  -65.29 | X-H torsion
[ 10718 10713 10712 10709 ] final    3.90 input   66.30 | X-H torsion
[ 10763 10752 10751 10750 ] final  109.59 input  -60.55 | X-H torsion
[ 11005 11000 10999 10996 ] final  105.66 input  -57.11 | X-H torsion

> <Gold.Protein.ActiveResidues>
 VAL166  LYS551  ARG553  GLY616  TRP617  ASP618  TYR619  PRO620  LYS621  CYS622 
 ASP623  PHE694  ASN695  SER759  ASP760  ASP761  ALA762  ILE779  LEU786  VAL792 
 PHE793  MET794  SER795  GLU796  ALA797  LYS798  CYS799  TRP800  GLU811  SER814 

> <Gold.Protein.RotatedAtoms>
  151.1765  133.4751  159.2593 H   0  0  0  0  0  0  0  0  0  0  0  0  # atno 6907 bound_to 6896
  151.1303  135.0126  159.8589 H   0  0  0  0  0  0  0  0  0  0  0  0  # atno 6908 bound_to 6896
  152.5459  134.1668  159.8633 H   0  0  0  0  0  0  0  0  0  0  0  0  # atno 6909 bound_to 6896
  146.1375  139.6311  142.9185 H   0  0  0  0  0  0  0  0  0  0  0  0  # atno 7974 bound_to 7965
  154.5191  140.0791  156.8137 H   0  0  0  0  0  0  0  0  0  0  0  0  # atno 8008 bound_to 7997
  155.3616  140.3418  155.4223 H   0  0  0  0  0  0  0  0  0  0  0  0  # atno 8009 bound_to 7997
  156.1661  140.1604  156.8516 H   0  0  0  0  0  0  0  0  0  0  0  0  # atno 8010 bound_to 7997
  139.8952  143.6674  152.2605 H   0  0  0  0  0  0  0  0  0  0  0  0  # atno 10167 bound_to 10162
  156.8847  130.5666  149.5652 H   0  0  0  0  0  0  0  0  0  0  0  0  # atno 10718 bound_to 10713
  153.4369  135.3775  155.2204 H   0  0  0  0  0  0  0  0  0  0  0  0  # atno 10763 bound_to 10752
  154.8752  135.3853  154.4200 H   0  0  0  0  0  0  0  0  0  0  0  0  # atno 10764 bound_to 10752
  153.4740  135.7087  153.6040 H   0  0  0  0  0  0  0  0  0  0  0  0  # atno 10765 bound_to 10752
  139.8804  134.9343  156.5548 H   0  0  0  0  0  0  0  0  0  0  0  0  # atno 11005 bound_to 11000
  145.5122  141.0435  143.2481 LP  0  0  0  0  0  0  0  0  0  0  0  0  # atno 17320 bound_to 7965
  144.7756  139.6638  143.7176 LP  0  0  0  0  0  0  0  0  0  0  0  0  # atno 17321 bound_to 7965
  139.7074  144.7626  151.1170 LP  0  0  0  0  0  0  0  0  0  0  0  0  # atno 17342 bound_to 10162
  140.7718  143.5376  150.9350 LP  0  0  0  0  0  0  0  0  0  0  0  0  # atno 17343 bound_to 10162
  156.0659  130.5702  150.9288 LP  0  0  0  0  0  0  0  0  0  0  0  0  # atno 17370 bound_to 10713
  157.6119  131.0936  150.8779 LP  0  0  0  0  0  0  0  0  0  0  0  0  # atno 17371 bound_to 10713
  140.8213  133.8351  155.8898 LP  0  0  0  0  0  0  0  0  0  0  0  0  # atno 17394 bound_to 11000
  140.9415  134.1894  157.4794 LP  0  0  0  0  0  0  0  0  0  0  0  0  # atno 17395 bound_to 11000

$$$$
