AV-unprocessed.smi:153|AV-procd|sdf|1258|dock8
  -GOLD-   2262018503D 1   1.00000     0.00000
 Structure written by MMmdl.
 59 62  0  0  0  0  0  0  0  0  1 V2000
  153.5618  142.9521  159.5443 C   0  0  0  0  0  0  0  0  0  0  0  0
  152.5880  143.9803  158.9489 C   0  0  2  0  0  0  0  0  0  0  0  0
  152.1046  144.8045  160.0051 O   0  0  0  0  0  0  0  0  0  0  0  0
  150.8371  145.3115  159.6287 C   0  0  0  0  0  0  0  0  0  0  0  0
  150.1771  144.0906  159.0070 C   0  0  0  0  0  0  0  0  0  0  0  0
  151.3196  143.4261  158.2392 C   0  0  1  0  0  0  0  0  0  0  0  0
  151.3103  143.9391  156.9178 O   0  0  0  0  0  0  0  0  0  0  0  0
  151.1909  141.8814  158.1588 C   0  0  0  0  0  0  0  0  0  0  0  0
  150.0657  141.4379  157.3489 N   0  0  0  0  0  0  0  0  0  0  0  0
  148.7453  141.7835  157.5167 C   0  0  0  0  0  0  0  0  0  0  0  0
  147.9219  141.2617  156.6507 N   0  0  0  0  0  0  0  0  0  0  0  0
  148.7280  140.4877  155.8208 C   0  0  0  0  0  0  0  0  0  0  0  0
  148.4940  139.6595  154.6787 C   0  0  0  0  0  0  0  0  0  0  0  0
  147.2739  139.4665  154.0940 N   0  0  0  0  0  0  0  0  0  0  0  0
  147.0375  140.0110  152.7620 C   0  0  0  0  0  0  0  0  0  0  0  0
  146.4172  138.3615  154.5320 C   0  0  0  0  0  0  0  0  0  0  0  0
  146.8177  137.0094  153.8999 C   0  0  2  0  0  0  0  0  0  0  0  0
  146.5203  137.0581  152.5186 O   0  0  0  0  0  0  0  0  0  0  0  0
  146.0168  135.8381  154.5082 C   0  0  0  0  0  0  0  0  0  0  0  0
  146.5761  134.5062  154.2731 N   0  0  0  0  0  0  0  0  0  0  0  0
  147.9939  134.4691  154.6160 C   0  0  0  0  0  0  0  0  0  0  0  0
  148.6098  133.0804  154.3732 C   0  0  0  0  0  0  0  0  0  0  0  0
  148.4167  132.7063  153.0132 O   0  0  0  0  0  0  0  0  0  0  0  0
  147.0427  132.6853  152.6412 C   0  0  0  0  0  0  0  0  0  0  0  0
  146.4185  134.0703  152.8846 C   0  0  0  0  0  0  0  0  0  0  0  0
  149.5800  139.0285  154.1526 N   0  0  0  0  0  0  0  0  0  0  0  0
  150.7969  139.1994  154.6740 C   0  0  0  0  0  0  0  0  0  0  0  0
  151.1573  139.9482  155.7151 N   0  0  0  0  0  0  0  0  0  0  0  0
  150.0809  140.5787  156.2637 C   0  0  0  0  0  0  0  0  0  0  0  0
  153.9677  142.2973  158.7734 H   0  0  0  0  0  0  0  0  0  0  0  0
  153.0811  142.3338  160.3021 H   0  0  0  0  0  0  0  0  0  0  0  0
  154.4037  143.4543  160.0214 H   0  0  0  0  0  0  0  0  0  0  0  0
  153.1480  144.6266  158.2700 H   0  0  0  0  0  0  0  0  0  0  0  0
  150.2868  145.7008  160.4853 H   0  0  0  0  0  0  0  0  0  0  0  0
  150.9576  146.1119  158.8968 H   0  0  0  0  0  0  0  0  0  0  0  0
  149.8350  143.4372  159.8103 H   0  0  0  0  0  0  0  0  0  0  0  0
  149.3121  144.3374  158.3895 H   0  0  0  0  0  0  0  0  0  0  0  0
  150.4468  144.2751  156.7319 H   0  0  0  0  0  0  0  0  0  0  0  0
  152.1019  141.4402  157.7520 H   0  0  0  0  0  0  0  0  0  0  0  0
  151.0612  141.4588  159.1554 H   0  0  0  0  0  0  0  0  0  0  0  0
  148.4094  142.4441  158.3030 H   0  0  0  0  0  0  0  0  0  0  0  0
  146.8579  141.0849  152.8141 H   0  0  0  0  0  0  0  0  0  0  0  0
  146.1613  139.5541  152.3011 H   0  0  0  0  0  0  0  0  0  0  0  0
  147.8888  139.8253  152.1061 H   0  0  0  0  0  0  0  0  0  0  0  0
  146.4577  138.3035  155.6203 H   0  0  0  0  0  0  0  0  0  0  0  0
  145.3751  138.5964  154.3098 H   0  0  0  0  0  0  0  0  0  0  0  0
  147.8884  136.8507  154.0188 H   0  0  0  0  0  0  0  0  0  0  0  0
  147.2300  136.6538  152.0437 H   0  0  0  0  0  0  0  0  0  0  0  0
  145.9271  135.9851  155.5858 H   0  0  0  0  0  0  0  0  0  0  0  0
  144.9960  135.8841  154.1249 H   0  0  0  0  0  0  0  0  0  0  0  0
  148.5370  135.2113  154.0288 H   0  0  0  0  0  0  0  0  0  0  0  0
  148.1279  134.7411  155.6637 H   0  0  0  0  0  0  0  0  0  0  0  0
  149.6778  133.0959  154.5907 H   0  0  0  0  0  0  0  0  0  0  0  0
  148.1583  132.3362  155.0313 H   0  0  0  0  0  0  0  0  0  0  0  0
  146.9628  132.4134  151.5887 H   0  0  0  0  0  0  0  0  0  0  0  0
  146.5158  131.9190  153.2119 H   0  0  0  0  0  0  0  0  0  0  0  0
  145.3658  134.0251  152.6106 H   0  0  0  0  0  0  0  0  0  0  0  0
  146.8827  134.7952  152.2139 H   0  0  0  0  0  0  0  0  0  0  0  0
  151.5957  138.6615  154.1846 H   0  0  0  0  0  0  0  0  0  0  0  0
  1  2  1  0  0  0  0
  1 30  1  0  0  0  0
  1 31  1  0  0  0  0
  1 32  1  0  0  0  0
  2  6  1  0  0  0  0
  2  3  1  0  0  0  0
  2 33  1  0  0  0  0
  3  4  1  0  0  0  0
  4  5  1  0  0  0  0
  4 34  1  0  0  0  0
  4 35  1  0  0  0  0
  5  6  1  0  0  0  0
  5 36  1  0  0  0  0
  5 37  1  0  0  0  0
  6  7  1  0  0  0  0
  6  8  1  0  0  0  0
  7 38  1  0  0  0  0
  8  9  1  0  0  0  0
  8 39  1  0  0  0  0
  8 40  1  0  0  0  0
  9 29  1  0  0  0  0
  9 10  1  0  0  0  0
 10 11  2  0  0  0  0
 10 41  1  0  0  0  0
 11 12  1  0  0  0  0
 12 29  2  0  0  0  0
 12 13  1  0  0  0  0
 13 14  1  0  0  0  0
 13 26  2  0  0  0  0
 14 15  1  0  0  0  0
 14 16  1  0  0  0  0
 15 42  1  0  0  0  0
 15 43  1  0  0  0  0
 15 44  1  0  0  0  0
 16 17  1  0  0  0  0
 16 45  1  0  0  0  0
 16 46  1  0  0  0  0
 17 18  1  0  0  0  0
 17 19  1  0  0  0  0
 17 47  1  0  0  0  0
 18 48  1  0  0  0  0
 19 20  1  0  0  0  0
 19 49  1  0  0  0  0
 19 50  1  0  0  0  0
 20 25  1  0  0  0  0
 20 21  1  0  0  0  0
 21 22  1  0  0  0  0
 21 51  1  0  0  0  0
 21 52  1  0  0  0  0
 22 23  1  0  0  0  0
 22 53  1  0  0  0  0
 22 54  1  0  0  0  0
 23 24  1  0  0  0  0
 24 25  1  0  0  0  0
 24 55  1  0  0  0  0
 24 56  1  0  0  0  0
 25 57  1  0  0  0  0
 25 58  1  0  0  0  0
 26 27  1  0  0  0  0
 27 28  2  0  0  0  0
 27 59  1  0  0  0  0
 28 29  1  0  0  0  0
M  END
> <s_m_source_file>
AV-unprocessed.smi

> <i_m_source_file_index>
153

> <i_lp_mmshare_version>
43012

> <i_f3d_flags>
0

> <s_epik_input>
W0NIMl0xW0NIMl1PW0NAQEhdKFtDSDNdKVtDQEBdMShbT0hdKVtDSDJdbihbY0hdbjIpYyhjMjMpbltjSF1uYzNOKFtDSDNdKVtDSDJdW0NASF0oW09IXSlbQ0gyXU40W0NIMl1bQ0gyXU9bQ0gyXVtDSDJdNA==

> <s_epik_cmdline>
J2VwaWtfcHl0aG9uJywgJy1waCcsICc3LjAnLCAnLXRuJywgJzgnLCAnLW1hJywgJzIwMCcsICctbWV0YWxfYmluZGluZycsICctaW1hZScsICc8aW5maWxlLm1hZT4nLCAnLW9tYWUnLCAnPG91dGZpbGUubWFlPic=

> <r_lp_tautomer_probability>
1

> <r_epik_Ionization_Penalty>
0.424123

> <r_epik_Ionization_Penalty_Charging>
0

> <r_epik_Ionization_Penalty_Neutral>
0.424123

> <r_epik_State_Penalty>
0.421495

> <r_epik_Charging_Adjusted_Penalty>
0.421495

> <i_epik_Tot_Q>
0

> <i_epik_Tot_abs_Q>
0

> <r_epik_Metal_State_Penalty>
0.421223

> <b_epik_Metal_Only>
0

> <s_lp_Force_Field>
OPLS_2005

> <r_lp_Energy>
56.4475

> <b_lp_Chiralities_Consistent>
1

> <s_lp_Variant>
AV-unprocessed.smi:153-9

> <Gold.Version>
5.8.1

> <Gold.Id.Protein>
6NUR|6NUR_protein|mol2

> <Gold.PLP.Fitness>
43.6607

> <Gold.PLP.PLP>
-41.1538

> <Gold.PLP.part.hbond>
-2.0050

> <Gold.PLP.part.metal>
0.0000

> <Gold.PLP.part.buried>
-6.1923

> <Gold.PLP.part.nonpolar>
-34.7889

> <Gold.PLP.part.repulsive>
0.9143

> <Gold.PLP.ligand.clash>
0.0000

> <Gold.PLP.ligand.torsion>
1.9705

> <Gold.PLP.Chemscore.Hbond>
2.0000

> <Gold.PLP.Chemscore.CHOScore>
0.0000

> <Gold.PLP.Chemscore.Metal>
0.0000

> <Gold.Chemscore.Hbonds>
donor molecule, donor type, donor heavy atom, donor atom, acceptor molecule, acceptor atom, score
      L1  H     7    38       P1  8028  1.00
      L1  H    18    48       P1  7948  1.00

> <Gold.PLP.Chemscore.Internal.Correction>
0.4478

> <Gold.Rescore>
     Score         DG    S(hbond)    S(metal)    S(lipo)     H(rot)  DE(clash)    DE(int)     intcor
     11.99     -14.19       1.96        0.00      95.33       3.52       0.04       2.16       ----

> <Gold.Chemscore.Fitness>
11.9923

> <Gold.Chemscore.DG>
-14.1915

> <Gold.Chemscore.ZeroCoef>
-5.4800

> <Gold.Chemscore.Hbond>
1.9646

> <Gold.Chemscore.Metal>
0.0000

> <Gold.Chemscore.Lipo>
95.3259

> <Gold.Chemscore.Internal_Hbond>
0.0000

> <Gold.Chemscore.DEClash>
0.0385

> <Gold.Chemscore.DEInternal>
2.1606

> <Gold.Chemscore.Rot>
3.5170

> <Gold.Chemscore.Internal.Correction>
   9.000000E+99

> <Gold.Chemscore.Hbonds>
donor molecule, donor type, donor heavy atom, donor atom, acceptor molecule, acceptor atom, score
      L1  H     7    38       P1  8028  0.97
      L1  H    18    48       P1  7948  0.97

> <Gold.Chemscore.Hbond.Weighted>
-6.5619

> <Gold.Chemscore.Metal.Weighted>
-0.0000

> <Gold.Chemscore.Lipo.Weighted>
-11.1531

> <Gold.Chemscore.Internal_Hbond.Weighted>
0.0000

> <Gold.Chemscore.DEClash.Weighted>
0.0385

> <Gold.Chemscore.DEInternal.Weighted>
2.1606

> <Gold.Chemscore.Rot.Weighted>
9.0036

> <Gold.Chemscore.Internal.Correction.Weighted>
   9.000000E+99

> <Gold.Protein.RotatedTorsions>
[ 6907 6896 6895 6894 ] final   42.33 input  -60.11 | X-H torsion
[ 7974 7965 7964 7962 ] final  -18.62 input  175.53 | X-H torsion
[ 8008 7997 7996 7995 ] final   60.88 input   59.86 | X-H torsion
[ 10167 10162 10161 10158 ] final  -32.44 input  -65.29 | X-H torsion
[ 10718 10713 10712 10709 ] final -120.01 input   66.30 | X-H torsion
[ 10763 10752 10751 10750 ] final  -22.43 input  -60.55 | X-H torsion
[ 11005 11000 10999 10996 ] final -159.19 input  -57.11 | X-H torsion

> <Gold.Protein.ActiveResidues>
 VAL166  LYS551  ARG553  GLY616  TRP617  ASP618  TYR619  PRO620  LYS621  CYS622 
 ASP623  PHE694  ASN695  SER759  ASP760  ASP761  ALA762  ILE779  LEU786  VAL792 
 PHE793  MET794  SER795  GLU796  ALA797  LYS798  CYS799  TRP800  GLU811  SER814 

> <Gold.Protein.RotatedAtoms>
  152.2066  134.8540  160.0501 H   0  0  0  0  0  0  0  0  0  0  0  0  # atno 6907 bound_to 6896
  151.9374  133.3623  159.3961 H   0  0  0  0  0  0  0  0  0  0  0  0  # atno 6908 bound_to 6896
  150.6966  134.4399  159.5331 H   0  0  0  0  0  0  0  0  0  0  0  0  # atno 6909 bound_to 6896
  146.1883  140.3946  142.8468 H   0  0  0  0  0  0  0  0  0  0  0  0  # atno 7974 bound_to 7965
  155.5894  140.3492  155.4562 H   0  0  0  0  0  0  0  0  0  0  0  0  # atno 8008 bound_to 7997
  156.0313  140.1275  157.0280 H   0  0  0  0  0  0  0  0  0  0  0  0  # atno 8009 bound_to 7997
  154.4353  140.1043  156.6089 H   0  0  0  0  0  0  0  0  0  0  0  0  # atno 8010 bound_to 7997
  140.7221  143.3695  151.1806 H   0  0  0  0  0  0  0  0  0  0  0  0  # atno 10167 bound_to 10162
  156.1225  130.6334  150.9487 H   0  0  0  0  0  0  0  0  0  0  0  0  # atno 10718 bound_to 10713
  153.6518  135.6980  153.5206 H   0  0  0  0  0  0  0  0  0  0  0  0  # atno 10763 bound_to 10752
  153.2700  135.4218  155.0978 H   0  0  0  0  0  0  0  0  0  0  0  0  # atno 10764 bound_to 10752
  154.8474  135.3576  154.6062 H   0  0  0  0  0  0  0  0  0  0  0  0  # atno 10765 bound_to 10752
  140.6453  134.4507  157.5234 H   0  0  0  0  0  0  0  0  0  0  0  0  # atno 11005 bound_to 11000
  144.8438  140.6898  143.6212 LP  0  0  0  0  0  0  0  0  0  0  0  0  # atno 17320 bound_to 7965
  145.3871  139.1624  143.4249 LP  0  0  0  0  0  0  0  0  0  0  0  0  # atno 17321 bound_to 7965
  139.7263  143.9143  152.3004 LP  0  0  0  0  0  0  0  0  0  0  0  0  # atno 17342 bound_to 10162
  139.8917  144.6962  150.8763 LP  0  0  0  0  0  0  0  0  0  0  0  0  # atno 17343 bound_to 10162
  157.6408  131.0910  150.8255 LP  0  0  0  0  0  0  0  0  0  0  0  0  # atno 17370 bound_to 10713
  156.8350  130.5028  149.5327 LP  0  0  0  0  0  0  0  0  0  0  0  0  # atno 17371 bound_to 10713
  139.9065  134.8438  156.1687 LP  0  0  0  0  0  0  0  0  0  0  0  0  # atno 17394 bound_to 11000
  141.0576  133.6857  156.1891 LP  0  0  0  0  0  0  0  0  0  0  0  0  # atno 17395 bound_to 11000

$$$$
