AV-unprocessed.smi:1795|AV-procd|sdf|7243|dock2
  -GOLD-   22720 8493D 1   1.00000     0.00000
 Structure written by MMmdl.
 48 49  0  0  0  0  0  0  0  0  2 V2000
  145.9387  132.1086  150.1673 C   0  0  0  0  0  0  0  0  0  0  0  0
  146.2806  133.3033  151.0650 C   0  0  2  0  0  0  0  0  0  0  0  0
  147.4359  132.9836  152.0320 C   0  0  0  0  0  0  0  0  0  0  0  0
  147.6871  134.1168  152.9628 N   0  3  2  0  0  0  0  0  0  0  0  0
  148.8453  133.9510  153.9020 C   0  0  2  0  0  0  0  0  0  0  0  0
  148.7904  132.5556  154.5641 C   0  0  0  0  0  0  0  0  0  0  0  0
  148.9418  135.0587  154.9895 C   0  0  0  0  0  0  0  0  0  0  0  0
  149.6959  136.2305  154.5523 N   0  0  0  0  0  0  0  0  0  0  0  0
  150.9454  136.5287  154.9399 C   0  0  0  0  0  0  0  0  0  0  0  0
  151.5817  135.8427  155.7409 O   0  0  0  0  0  0  0  0  0  0  0  0
  151.5511  137.8067  154.3420 C   0  0  0  0  0  0  0  0  0  0  0  0
  150.8451  139.0319  154.7535 N   0  0  0  0  0  0  0  0  0  0  0  0
  149.6015  139.2929  154.1439 C   0  0  0  0  0  0  0  0  0  0  0  0
  148.8761  140.3806  154.4485 C   0  0  0  0  0  0  0  0  0  0  0  0
  149.4014  141.2984  155.4316 C   0  0  0  0  0  0  0  0  0  0  0  0
  150.5882  141.0565  156.0232 C   0  0  0  0  0  0  0  0  0  0  0  0
  151.3837  139.8679  155.6946 C   0  0  0  0  0  0  0  0  0  0  0  0
  152.4671  139.6367  156.2324 O   0  0  0  0  0  0  0  0  0  0  0  0
  146.4257  134.4580  153.6750 C   0  0  0  0  0  0  0  0  0  0  0  0
  145.2730  134.7424  152.6941 C   0  0  1  0  0  0  0  0  0  0  0  0
  145.4064  136.0880  151.9583 C   0  0  0  0  0  0  0  0  0  0  0  0
  145.1112  133.6433  151.8011 O   0  0  0  0  0  0  0  0  0  0  0  0
  146.7983  131.8084  149.5676 H   0  0  0  0  0  0  0  0  0  0  0  0
  145.1268  132.3548  149.4824 H   0  0  0  0  0  0  0  0  0  0  0  0
  145.6257  131.2472  150.7581 H   0  0  0  0  0  0  0  0  0  0  0  0
  146.5637  134.1358  150.4205 H   0  0  0  0  0  0  0  0  0  0  0  0
  147.2173  132.0815  152.6060 H   0  0  0  0  0  0  0  0  0  0  0  0
  148.3159  132.7818  151.4223 H   0  0  0  0  0  0  0  0  0  0  0  0
  149.7563  134.0098  153.3042 H   0  0  0  0  0  0  0  0  0  0  0  0
  149.6476  132.3821  155.2144 H   0  0  0  0  0  0  0  0  0  0  0  0
  148.7978  131.7452  153.8374 H   0  0  0  0  0  0  0  0  0  0  0  0
  147.8907  132.4454  155.1705 H   0  0  0  0  0  0  0  0  0  0  0  0
  147.9536  135.4081  155.2921 H   0  0  0  0  0  0  0  0  0  0  0  0
  149.4245  134.6654  155.8848 H   0  0  0  0  0  0  0  0  0  0  0  0
  149.2419  136.8489  153.8953 H   0  0  0  0  0  0  0  0  0  0  0  0
  152.6050  137.8744  154.6190 H   0  0  0  0  0  0  0  0  0  0  0  0
  151.5477  137.7078  153.2557 H   0  0  0  0  0  0  0  0  0  0  0  0
  149.2760  138.5552  153.4248 H   0  0  0  0  0  0  0  0  0  0  0  0
  147.9232  140.5627  153.9734 H   0  0  0  0  0  0  0  0  0  0  0  0
  148.8395  142.1824  155.6952 H   0  0  0  0  0  0  0  0  0  0  0  0
  150.9645  141.7537  156.7575 H   0  0  0  0  0  0  0  0  0  0  0  0
  146.1491  133.6232  154.3212 H   0  0  0  0  0  0  0  0  0  0  0  0
  146.5552  135.3206  154.3262 H   0  0  0  0  0  0  0  0  0  0  0  0
  144.3510  134.7933  153.2740 H   0  0  0  0  0  0  0  0  0  0  0  0
  145.3964  136.9169  152.6663 H   0  0  0  0  0  0  0  0  0  0  0  0
  144.5764  136.2366  151.2672 H   0  0  0  0  0  0  0  0  0  0  0  0
  146.3330  136.1610  151.3899 H   0  0  0  0  0  0  0  0  0  0  0  0
  147.9154  134.9058  152.3749 H   0  0  0  0  0  0  0  0  0  0  0  0
  1  2  1  0  0  0  0
  1 23  1  0  0  0  0
  1 24  1  0  0  0  0
  1 25  1  0  0  0  0
  2 22  1  0  0  0  0
  2  3  1  0  0  0  0
  2 26  1  0  0  0  0
  3  4  1  0  0  0  0
  3 27  1  0  0  0  0
  3 28  1  0  0  0  0
  4  5  1  0  0  0  0
  4 19  1  0  0  0  0
  4 48  1  0  0  0  0
  5  6  1  0  0  0  0
  5  7  1  0  0  0  0
  5 29  1  0  0  0  0
  6 30  1  0  0  0  0
  6 31  1  0  0  0  0
  6 32  1  0  0  0  0
  7  8  1  0  0  0  0
  7 33  1  0  0  0  0
  7 34  1  0  0  0  0
  8  9  1  0  0  0  0
  8 35  1  0  0  0  0
  9 10  2  0  0  0  0
  9 11  1  0  0  0  0
 11 12  1  0  0  0  0
 11 36  1  0  0  0  0
 11 37  1  0  0  0  0
 12 17  1  0  0  0  0
 12 13  1  0  0  0  0
 13 14  2  0  0  0  0
 13 38  1  0  0  0  0
 14 15  1  0  0  0  0
 14 39  1  0  0  0  0
 15 16  2  0  0  0  0
 15 40  1  0  0  0  0
 16 17  1  0  0  0  0
 16 41  1  0  0  0  0
 17 18  2  0  0  0  0
 19 20  1  0  0  0  0
 19 42  1  0  0  0  0
 19 43  1  0  0  0  0
 20 21  1  0  0  0  0
 20 22  1  0  0  0  0
 20 44  1  0  0  0  0
 21 45  1  0  0  0  0
 21 46  1  0  0  0  0
 21 47  1  0  0  0  0
M  CHG  1   4   1
M  END
> <s_m_source_file>
AV-unprocessed.smi

> <i_m_source_file_index>
1795

> <i_lp_mmshare_version>
43012

> <i_f3d_flags>
0

> <s_epik_input>
W0NIM11bQ0BASF0xW0NIMl1OKFtDSDJdW0NASF0oTzEpW0NIM10pW0NASF0oW0NIM10pW0NIMl1bTkhdQyg9TylbQ0gyXW4yW2NIXVtjSF1bY0hdW2NIXWMyPU8=

> <s_epik_cmdline>
J2VwaWtfcHl0aG9uJywgJy1waCcsICc3LjAnLCAnLXRuJywgJzgnLCAnLW1hJywgJzIwMCcsICctbWV0YWxfYmluZGluZycsICctaW1hZScsICc8aW5maWxlLm1hZT4nLCAnLW9tYWUnLCAnPG91dGZpbGUubWFlPic=

> <r_lp_tautomer_probability>
1

> <r_epik_Ionization_Penalty>
0.656654

> <r_epik_Ionization_Penalty_Charging>
0.656654

> <r_epik_Ionization_Penalty_Neutral>
8.90321e-08

> <r_epik_State_Penalty>
0.675641

> <r_epik_Charging_Adjusted_Penalty>
1.33229

> <i_epik_Tot_Q>
1

> <i_epik_Tot_abs_Q>
1

> <r_epik_Metal_State_Penalty>
0.675691

> <b_epik_Metal_Only>
0

> <s_lp_Force_Field>
OPLS_2005

> <r_lp_Energy>
31.532

> <b_lp_Chiralities_Consistent>
1

> <s_lp_Variant>
AV-unprocessed.smi:1795-7

> <Gold.Version>
5.8.1

> <Gold.Id.Protein>
6NUR|6NUR_protein|mol2

> <Gold.PLP.Fitness>
54.7392

> <Gold.PLP.PLP>
-41.4185

> <Gold.PLP.part.hbond>
-4.0000

> <Gold.PLP.part.metal>
0.0000

> <Gold.PLP.part.buried>
-0.6823

> <Gold.PLP.part.nonpolar>
-37.5152

> <Gold.PLP.part.repulsive>
0.1803

> <Gold.PLP.ligand.clash>
0.0000

> <Gold.PLP.ligand.torsion>
0.8938

> <Gold.PLP.Chemscore.Hbond>
4.3312

> <Gold.PLP.Chemscore.CHOScore>
0.6710

> <Gold.PLP.Chemscore.Metal>
0.0000

> <Gold.Chemscore.Hbonds>
donor molecule, donor type, donor heavy atom, donor atom, acceptor molecule, acceptor atom, score
      L1  H     4    48       P1  7948  2.00
      L1  H     8    35       P1  7948  0.29
      P1  H  7997  8008       L1    18  1.00
      P1  H 10752 10764       L1    10  1.00
      L1  C    13    38       P1  7948  0.36
      L1  C    13    38       P1  7957  0.20

> <Gold.PLP.Chemscore.Internal.Correction>
0.1015

> <Gold.Rescore>
     Score         DG    S(hbond)    S(metal)    S(lipo)     H(rot)  DE(clash)    DE(int)     intcor
     19.74     -20.95       3.15        0.00      83.54       1.89       0.51       0.69       ----

> <Gold.Chemscore.Fitness>
19.7438

> <Gold.Chemscore.DG>
-20.9475

> <Gold.Chemscore.ZeroCoef>
-5.4800

> <Gold.Chemscore.Hbond>
3.1508

> <Gold.Chemscore.Metal>
0.0000

> <Gold.Chemscore.Lipo>
83.5424

> <Gold.Chemscore.Internal_Hbond>
0.0000

> <Gold.Chemscore.DEClash>
0.5092

> <Gold.Chemscore.DEInternal>
0.6945

> <Gold.Chemscore.Rot>
1.8870

> <Gold.Chemscore.Internal.Correction>
   9.000000E+99

> <Gold.Chemscore.Hbonds>
donor molecule, donor type, donor heavy atom, donor atom, acceptor molecule, acceptor atom, score
      L1  H     4    48       P1  7948  0.76
      L1  H     8    35       P1  7948  0.29
      P1  H  7997  8008       L1    18  0.99
      P1  H 10752 10764       L1    10  0.30

> <Gold.Chemscore.Hbond.Weighted>
-10.5238

> <Gold.Chemscore.Metal.Weighted>
-0.0000

> <Gold.Chemscore.Lipo.Weighted>
-9.7745

> <Gold.Chemscore.Internal_Hbond.Weighted>
0.0000

> <Gold.Chemscore.DEClash.Weighted>
0.5092

> <Gold.Chemscore.DEInternal.Weighted>
0.6945

> <Gold.Chemscore.Rot.Weighted>
4.8308

> <Gold.Chemscore.Internal.Correction.Weighted>
   9.000000E+99

> <Gold.Protein.RotatedTorsions>
[ 6907 6896 6895 6894 ] final -161.44 input  -60.11 | X-H torsion
[ 7974 7965 7964 7962 ] final  125.07 input  175.53 | X-H torsion
[ 8008 7997 7996 7995 ] final  -38.56 input   59.86 | X-H torsion
[ 10167 10162 10161 10158 ] final  165.11 input  -65.29 | X-H torsion
[ 10718 10713 10712 10709 ] final   71.37 input   66.30 | X-H torsion
[ 10763 10752 10751 10750 ] final  -44.51 input  -60.55 | X-H torsion
[ 11005 11000 10999 10996 ] final -122.51 input  -57.11 | X-H torsion

> <Gold.Protein.ActiveResidues>
 VAL166  LYS551  ARG553  GLY616  TRP617  ASP618  TYR619  PRO620  LYS621  CYS622 
 ASP623  PHE694  ASN695  SER759  ASP760  ASP761  ALA762  ILE779  LEU786  VAL792 
 PHE793  MET794  SER795  GLU796  ALA797  LYS798  CYS799  TRP800  GLU811  SER814 

> <Gold.Protein.RotatedAtoms>
  151.3646  133.3877  159.2693 H   0  0  0  0  0  0  0  0  0  0  0  0  # atno 6907 bound_to 6896
  150.9698  134.9074  159.7792 H   0  0  0  0  0  0  0  0  0  0  0  0  # atno 6908 bound_to 6896
  152.5180  134.3608  159.9336 H   0  0  0  0  0  0  0  0  0  0  0  0  # atno 6909 bound_to 6896
  145.0771  139.3685  143.4928 H   0  0  0  0  0  0  0  0  0  0  0  0  # atno 7974 bound_to 7965
  154.4035  140.1574  156.2719 H   0  0  0  0  0  0  0  0  0  0  0  0  # atno 8008 bound_to 7997
  155.8945  140.3436  155.5959 H   0  0  0  0  0  0  0  0  0  0  0  0  # atno 8009 bound_to 7997
  155.7519  140.0806  157.2187 H   0  0  0  0  0  0  0  0  0  0  0  0  # atno 8010 bound_to 7997
  139.4900  144.4165  151.9237 H   0  0  0  0  0  0  0  0  0  0  0  0  # atno 10167 bound_to 10162
  157.6448  130.9525  150.0780 H   0  0  0  0  0  0  0  0  0  0  0  0  # atno 10718 bound_to 10713
  154.0133  135.6678  153.4767 H   0  0  0  0  0  0  0  0  0  0  0  0  # atno 10763 bound_to 10752
  153.0611  135.5027  154.8092 H   0  0  0  0  0  0  0  0  0  0  0  0  # atno 10764 bound_to 10752
  154.6982  135.3074  154.9344 H   0  0  0  0  0  0  0  0  0  0  0  0  # atno 10765 bound_to 10752
  140.9990  134.0430  157.3561 H   0  0  0  0  0  0  0  0  0  0  0  0  # atno 11005 bound_to 11000
  146.3530  140.0544  142.8633 LP  0  0  0  0  0  0  0  0  0  0  0  0  # atno 17320 bound_to 7965
  145.1222  140.9469  143.4594 LP  0  0  0  0  0  0  0  0  0  0  0  0  # atno 17321 bound_to 7965
  140.3608  144.2975  150.5934 LP  0  0  0  0  0  0  0  0  0  0  0  0  # atno 17342 bound_to 10162
  140.5404  143.2224  151.8094 LP  0  0  0  0  0  0  0  0  0  0  0  0  # atno 17343 bound_to 10162
  156.1765  130.3648  149.9094 LP  0  0  0  0  0  0  0  0  0  0  0  0  # atno 17370 bound_to 10713
  156.7057  130.8950  151.3604 LP  0  0  0  0  0  0  0  0  0  0  0  0  # atno 17371 bound_to 10713
  139.9029  135.0170  156.7353 LP  0  0  0  0  0  0  0  0  0  0  0  0  # atno 17394 bound_to 11000
  140.6920  133.9382  155.7972 LP  0  0  0  0  0  0  0  0  0  0  0  0  # atno 17395 bound_to 11000

$$$$
