AV-unprocessed.smi:470|AV-procd|sdf|2656|dock4
  -GOLD-   2262023 63D 1   1.00000     0.00000
 Structure written by MMmdl.
 32 33  0  0  0  0  0  0  0  0  2 V2000
  150.1453  136.5485  154.4967 N   0  0  0  0  0  0  0  0  0  0  0  0
  151.2548  136.8978  155.1548 C   0  0  0  0  0  0  0  0  0  0  0  0
  151.6801  136.2541  156.1122 O   0  0  0  0  0  0  0  0  0  0  0  0
  151.9866  138.1559  154.6793 C   0  0  0  0  0  0  0  0  0  0  0  0
  151.1903  139.3846  155.0101 C   0  0  0  0  0  0  0  0  0  0  0  0
  150.0244  139.7975  154.4189 C   0  0  0  0  0  0  0  0  0  0  0  0
  149.4333  141.2742  155.1248 S   0  0  0  0  0  0  0  0  0  0  0  0
  150.8031  141.2796  156.2370 C   0  0  0  0  0  0  0  0  0  0  0  0
  151.0359  142.2172  157.1716 N   0  5  0  0  0  0  0  0  0  0  0  0
  151.5277  141.9639  158.4180 C   0  0  0  0  0  0  0  0  0  0  0  0
  151.0358  141.1584  159.2058 O   0  0  0  0  0  0  0  0  0  0  0  0
  152.7998  142.7527  158.8533 C   0  0  2  0  0  0  0  0  0  0  0  0
  153.1790  142.4741  160.3295 C   0  0  0  0  0  0  0  0  0  0  0  0
  152.4229  143.3398  161.3214 C   0  0  0  0  0  0  0  0  0  0  0  0
  151.7880  144.4746  160.9857 C   0  0  0  0  0  0  0  0  0  0  0  0
  151.7408  145.0256  159.5730 C   0  0  0  0  0  0  0  0  0  0  0  0
  152.6884  144.2792  158.6073 C   0  0  0  0  0  0  0  0  0  0  0  0
  151.6273  140.2488  156.0179 N   0  0  0  0  0  0  0  0  0  0  0  0
  149.6436  135.7140  154.7628 H   0  0  0  0  0  0  0  0  0  0  0  0
  149.8252  137.1105  153.7203 H   0  0  0  0  0  0  0  0  0  0  0  0
  152.9724  138.1923  155.1448 H   0  0  0  0  0  0  0  0  0  0  0  0
  152.1566  138.0900  153.6039 H   0  0  0  0  0  0  0  0  0  0  0  0
  149.4779  139.3234  153.6177 H   0  0  0  0  0  0  0  0  0  0  0  0
  153.6419  142.4439  158.2357 H   0  0  0  0  0  0  0  0  0  0  0  0
  152.9944  141.4310  160.5848 H   0  0  0  0  0  0  0  0  0  0  0  0
  154.2460  142.6404  160.4791 H   0  0  0  0  0  0  0  0  0  0  0  0
  152.4292  143.0152  162.3515 H   0  0  0  0  0  0  0  0  0  0  0  0
  151.2661  145.0397  161.7438 H   0  0  0  0  0  0  0  0  0  0  0  0
  150.7103  144.9705  159.2228 H   0  0  0  0  0  0  0  0  0  0  0  0
  151.9990  146.0844  159.5952 H   0  0  0  0  0  0  0  0  0  0  0  0
  153.6864  144.7066  158.7125 H   0  0  0  0  0  0  0  0  0  0  0  0
  152.3942  144.4783  157.5760 H   0  0  0  0  0  0  0  0  0  0  0  0
  1  2  1  0  0  0  0
  1 19  1  0  0  0  0
  1 20  1  0  0  0  0
  2  3  2  0  0  0  0
  2  4  1  0  0  0  0
  4  5  1  0  0  0  0
  4 21  1  0  0  0  0
  4 22  1  0  0  0  0
  5 18  1  0  0  0  0
  5  6  2  0  0  0  0
  6  7  1  0  0  0  0
  6 23  1  0  0  0  0
  7  8  1  0  0  0  0
  8  9  1  0  0  0  0
  8 18  2  0  0  0  0
  9 10  1  0  0  0  0
 10 11  2  0  0  0  0
 10 12  1  0  0  0  0
 12 17  1  0  0  0  0
 12 13  1  0  0  0  0
 12 24  1  0  0  0  0
 13 14  1  0  0  0  0
 13 25  1  0  0  0  0
 13 26  1  0  0  0  0
 14 15  2  0  0  0  0
 14 27  1  0  0  0  0
 15 16  1  0  0  0  0
 15 28  1  0  0  0  0
 16 17  1  0  0  0  0
 16 29  1  0  0  0  0
 16 30  1  0  0  0  0
 17 31  1  0  0  0  0
 17 32  1  0  0  0  0
M  CHG  1   9  -1
M  END
> <s_m_source_file>
AV-unprocessed.smi

> <i_m_source_file_index>
470

> <i_lp_mmshare_version>
43012

> <i_f3d_flags>
0

> <s_epik_input>
W05IMl1DKD1PKVtDSDJdYzFbY0hdc2MobjEpW05IXUMoPU8pW0NAQEhdMltDSDJdW0NIXT1bQ0hdW0NIMl1bQ0gyXTI=

> <s_epik_cmdline>
J2VwaWtfcHl0aG9uJywgJy1waCcsICc3LjAnLCAnLXRuJywgJzgnLCAnLW1hJywgJzIwMCcsICctbWV0YWxfYmluZGluZycsICctaW1hZScsICc8aW5maWxlLm1hZT4nLCAnLW9tYWUnLCAnPG91dGZpbGUubWFlPic=

> <r_lp_tautomer_probability>
1

> <r_epik_Ionization_Penalty>
4.98985

> <r_epik_Ionization_Penalty_Charging>
4.63309

> <r_epik_Ionization_Penalty_Neutral>
0.356756

> <r_epik_State_Penalty>
4.63286

> <r_epik_Charging_Adjusted_Penalty>
9.26595

> <i_epik_Tot_Q>
-1

> <i_epik_Tot_abs_Q>
1

> <r_epik_Metal_State_Penalty>
0.88943

> <b_epik_Metal_Only>
1

> <s_lp_Force_Field>
OPLS_2005

> <r_lp_Energy>
8.68427

> <b_lp_Chiralities_Consistent>
1

> <s_lp_Variant>
AV-unprocessed.smi:470-3

> <Gold.Version>
5.8.1

> <Gold.Id.Protein>
6NUR|6NUR_protein|mol2

> <Gold.PLP.Fitness>
50.2804

> <Gold.PLP.PLP>
-46.1178

> <Gold.PLP.part.hbond>
-2.9552

> <Gold.PLP.part.metal>
0.0000

> <Gold.PLP.part.buried>
-3.3157

> <Gold.PLP.part.nonpolar>
-40.1982

> <Gold.PLP.part.repulsive>
0.1600

> <Gold.PLP.ligand.clash>
0.0000

> <Gold.PLP.ligand.torsion>
1.1596

> <Gold.PLP.Chemscore.Hbond>
1.2457

> <Gold.PLP.Chemscore.CHOScore>
0.8960

> <Gold.PLP.Chemscore.Metal>
0.0000

> <Gold.Chemscore.Hbonds>
donor molecule, donor type, donor heavy atom, donor atom, acceptor molecule, acceptor atom, score
      L1  H     1    20       P1  7948  0.27
      P1  H 10752 10763       L1     3  0.70
      L1  C     6    23       P1  7957  0.82

> <Gold.PLP.Chemscore.Internal.Correction>
0.0567

> <Gold.Rescore>
     Score         DG    S(hbond)    S(metal)    S(lipo)     H(rot)  DE(clash)    DE(int)     intcor
     15.20     -16.49       1.09        0.00     103.84       1.87       0.30       1.00       ----

> <Gold.Chemscore.Fitness>
15.2014

> <Gold.Chemscore.DG>
-16.4929

> <Gold.Chemscore.ZeroCoef>
-5.4800

> <Gold.Chemscore.Hbond>
1.0924

> <Gold.Chemscore.Metal>
0.0000

> <Gold.Chemscore.Lipo>
103.8362

> <Gold.Chemscore.Internal_Hbond>
0.0000

> <Gold.Chemscore.DEClash>
0.2964

> <Gold.Chemscore.DEInternal>
0.9950

> <Gold.Chemscore.Rot>
1.8689

> <Gold.Chemscore.Internal.Correction>
   9.000000E+99

> <Gold.Chemscore.Hbonds>
donor molecule, donor type, donor heavy atom, donor atom, acceptor molecule, acceptor atom, score
      L1  H     1    20       P1  7948  0.16
      P1  H 10752 10763       L1     3  0.07

> <Gold.Chemscore.Hbond.Weighted>
-3.6485

> <Gold.Chemscore.Metal.Weighted>
-0.0000

> <Gold.Chemscore.Lipo.Weighted>
-12.1488

> <Gold.Chemscore.Internal_Hbond.Weighted>
0.0000

> <Gold.Chemscore.DEClash.Weighted>
0.2964

> <Gold.Chemscore.DEInternal.Weighted>
0.9950

> <Gold.Chemscore.Rot.Weighted>
4.7844

> <Gold.Chemscore.Internal.Correction.Weighted>
   9.000000E+99

> <Gold.Protein.RotatedTorsions>
[ 6907 6896 6895 6894 ] final -118.38 input  -60.11 | X-H torsion
[ 7974 7965 7964 7962 ] final   24.05 input  175.53 | X-H torsion
[ 8008 7997 7996 7995 ] final  120.35 input   59.86 | X-H torsion
[ 10167 10162 10161 10158 ] final   81.89 input  -65.29 | X-H torsion
[ 10718 10713 10712 10709 ] final  -53.46 input   66.30 | X-H torsion
[ 10763 10752 10751 10750 ] final   93.69 input  -60.55 | X-H torsion
[ 11005 11000 10999 10996 ] final   22.72 input  -57.11 | X-H torsion

> <Gold.Protein.ActiveResidues>
 VAL166  LYS551  ARG553  GLY616  TRP617  ASP618  TYR619  PRO620  LYS621  CYS622 
 ASP623  PHE694  ASN695  SER759  ASP760  ASP761  ALA762  ILE779  LEU786  VAL792 
 PHE793  MET794  SER795  GLU796  ALA797  LYS798  CYS799  TRP800  GLU811  SER814 

> <Gold.Protein.RotatedAtoms>
  150.8215  133.8245  159.3136 H   0  0  0  0  0  0  0  0  0  0  0  0  # atno 6907 bound_to 6896
  151.6001  135.1046  160.0068 H   0  0  0  0  0  0  0  0  0  0  0  0  # atno 6908 bound_to 6896
  152.4304  133.7226  159.6598 H   0  0  0  0  0  0  0  0  0  0  0  0  # atno 6909 bound_to 6896
  146.1955  139.7658  142.8800 H   0  0  0  0  0  0  0  0  0  0  0  0  # atno 7974 bound_to 7965
  156.2638  140.2832  156.1136 H   0  0  0  0  0  0  0  0  0  0  0  0  # atno 8008 bound_to 7997
  155.1231  140.0392  157.2772 H   0  0  0  0  0  0  0  0  0  0  0  0  # atno 8009 bound_to 7997
  154.6656  140.2576  155.7068 H   0  0  0  0  0  0  0  0  0  0  0  0  # atno 8010 bound_to 7997
  139.9345  144.6130  150.8312 H   0  0  0  0  0  0  0  0  0  0  0  0  # atno 10167 bound_to 10162
  156.1533  130.4151  149.9909 H   0  0  0  0  0  0  0  0  0  0  0  0  # atno 10718 bound_to 10713
  153.2332  135.4316  155.0618 H   0  0  0  0  0  0  0  0  0  0  0  0  # atno 10763 bound_to 10752
  154.8306  135.3384  154.6757 H   0  0  0  0  0  0  0  0  0  0  0  0  # atno 10764 bound_to 10752
  153.7183  135.7018  153.5075 H   0  0  0  0  0  0  0  0  0  0  0  0  # atno 10765 bound_to 10752
  140.3774  134.1957  155.7664 H   0  0  0  0  0  0  0  0  0  0  0  0  # atno 11005 bound_to 11000
  145.3655  141.0333  143.3260 LP  0  0  0  0  0  0  0  0  0  0  0  0  # atno 17320 bound_to 7965
  144.8573  139.5231  143.6829 LP  0  0  0  0  0  0  0  0  0  0  0  0  # atno 17321 bound_to 7965
  140.7628  143.3208  151.2627 LP  0  0  0  0  0  0  0  0  0  0  0  0  # atno 17342 bound_to 10162
  139.6755  143.9945  152.2778 LP  0  0  0  0  0  0  0  0  0  0  0  0  # atno 17343 bound_to 10162
  156.7760  130.9204  151.3645 LP  0  0  0  0  0  0  0  0  0  0  0  0  # atno 17370 bound_to 10713
  157.6675  130.9020  149.9964 LP  0  0  0  0  0  0  0  0  0  0  0  0  # atno 17371 bound_to 10713
  141.1935  133.8150  157.0798 LP  0  0  0  0  0  0  0  0  0  0  0  0  # atno 17394 bound_to 11000
  140.0504  134.9808  157.1126 LP  0  0  0  0  0  0  0  0  0  0  0  0  # atno 17395 bound_to 11000

$$$$
