AV-unprocessed.smi:3331|AV-procd|sdf|12826|dock2
  -GOLD-   2272019203D 1   1.00000     0.00000
 Structure written by MMmdl.
 46 47  0  0  0  0  0  0  0  0  1 V2000
  149.0754  141.0463  155.5234 C   0  0  0  0  0  0  0  0  0  0  0  0
  150.0287  139.8469  155.6140 C   0  0  2  0  0  0  0  0  0  0  0  0
  151.5053  140.2892  155.5009 C   0  0  0  0  0  0  0  0  0  0  0  0
  152.4881  139.0978  155.4504 C   0  0  1  0  0  0  0  0  0  0  0  0
  152.7110  138.4696  156.8375 C   0  0  0  0  0  0  0  0  0  0  0  0
  152.0180  138.0693  154.3980 C   0  0  0  0  0  0  0  0  0  0  0  0
  150.6360  137.6563  154.6876 N   0  0  0  0  0  0  0  0  0  0  0  0
  150.2359  136.4331  155.1221 C   0  0  0  0  0  0  0  0  0  0  0  0
  151.0375  135.5128  155.2945 O   0  0  0  0  0  0  0  0  0  0  0  0
  148.7431  136.1767  155.4212 C   0  0  1  0  0  0  0  0  0  0  0  0
  148.2280  137.0840  156.5610 C   0  0  0  0  0  0  0  0  0  0  0  0
  147.9525  136.3580  154.1926 N   0  0  0  0  0  0  0  0  0  0  0  0
  146.6863  135.6361  154.2205 C   0  0  0  0  0  0  0  0  0  0  0  0
  145.7348  136.1901  153.1468 C   0  0  0  0  0  0  0  0  0  0  0  0
  145.3120  135.1698  152.2033 N   0  0  0  0  0  0  0  0  0  0  0  0
  146.0972  134.3585  151.4113 C   0  0  0  0  0  0  0  0  0  0  0  0
  145.2576  133.5580  150.6909 C   0  0  0  0  0  0  0  0  0  0  0  0
  143.9605  133.9620  151.1138 C   0  0  0  0  0  0  0  0  0  0  0  0
  143.9961  134.9285  152.0169 N   0  0  0  0  0  0  0  0  0  0  0  0
  149.7061  138.7847  154.5426 C   0  0  0  0  0  0  0  0  0  0  0  0
  149.1640  141.5514  154.5612 H   0  0  0  0  0  0  0  0  0  0  0  0
  149.2884  141.7763  156.3047 H   0  0  0  0  0  0  0  0  0  0  0  0
  148.0378  140.7322  155.6402 H   0  0  0  0  0  0  0  0  0  0  0  0
  149.8828  139.3903  156.5941 H   0  0  0  0  0  0  0  0  0  0  0  0
  151.6263  140.8730  154.5873 H   0  0  0  0  0  0  0  0  0  0  0  0
  151.7651  140.9603  156.3206 H   0  0  0  0  0  0  0  0  0  0  0  0
  153.4551  139.4839  155.1252 H   0  0  0  0  0  0  0  0  0  0  0  0
  151.7919  138.0542  157.2510 H   0  0  0  0  0  0  0  0  0  0  0  0
  153.0852  139.2093  157.5456 H   0  0  0  0  0  0  0  0  0  0  0  0
  153.4445  137.6646  156.7874 H   0  0  0  0  0  0  0  0  0  0  0  0
  152.0407  138.5275  153.4081 H   0  0  0  0  0  0  0  0  0  0  0  0
  152.7259  137.2456  154.3358 H   0  0  0  0  0  0  0  0  0  0  0  0
  148.6479  135.1492  155.7716 H   0  0  0  0  0  0  0  0  0  0  0  0
  148.8883  137.0450  157.4284 H   0  0  0  0  0  0  0  0  0  0  0  0
  147.2431  136.7755  156.9098 H   0  0  0  0  0  0  0  0  0  0  0  0
  148.1560  138.1254  156.2443 H   0  0  0  0  0  0  0  0  0  0  0  0
  148.4709  136.0530  153.3810 H   0  0  0  0  0  0  0  0  0  0  0  0
  146.8709  134.5791  154.0239 H   0  0  0  0  0  0  0  0  0  0  0  0
  146.2152  135.7052  155.2005 H   0  0  0  0  0  0  0  0  0  0  0  0
  144.8578  136.6481  153.6077 H   0  0  0  0  0  0  0  0  0  0  0  0
  146.2354  136.9781  152.5833 H   0  0  0  0  0  0  0  0  0  0  0  0
  147.1756  134.4160  151.4289 H   0  0  0  0  0  0  0  0  0  0  0  0
  145.5286  132.7997  149.9717 H   0  0  0  0  0  0  0  0  0  0  0  0
  143.0006  133.5855  150.7924 H   0  0  0  0  0  0  0  0  0  0  0  0
  148.6608  138.4830  154.6225 H   0  0  0  0  0  0  0  0  0  0  0  0
  149.8103  139.2117  153.5438 H   0  0  0  0  0  0  0  0  0  0  0  0
  1  2  1  0  0  0  0
  1 21  1  0  0  0  0
  1 22  1  0  0  0  0
  1 23  1  0  0  0  0
  2 20  1  0  0  0  0
  2  3  1  0  0  0  0
  2 24  1  0  0  0  0
  3  4  1  0  0  0  0
  3 25  1  0  0  0  0
  3 26  1  0  0  0  0
  4  5  1  0  0  0  0
  4  6  1  0  0  0  0
  4 27  1  0  0  0  0
  5 28  1  0  0  0  0
  5 29  1  0  0  0  0
  5 30  1  0  0  0  0
  6  7  1  0  0  0  0
  6 31  1  0  0  0  0
  6 32  1  0  0  0  0
  7  8  1  0  0  0  0
  7 20  1  0  0  0  0
  8  9  2  0  0  0  0
  8 10  1  0  0  0  0
 10 11  1  0  0  0  0
 10 12  1  0  0  0  0
 10 33  1  0  0  0  0
 11 34  1  0  0  0  0
 11 35  1  0  0  0  0
 11 36  1  0  0  0  0
 12 13  1  0  0  0  0
 12 37  1  0  0  0  0
 13 14  1  0  0  0  0
 13 38  1  0  0  0  0
 13 39  1  0  0  0  0
 14 15  1  0  0  0  0
 14 40  1  0  0  0  0
 14 41  1  0  0  0  0
 15 19  1  0  0  0  0
 15 16  1  0  0  0  0
 16 17  2  0  0  0  0
 16 42  1  0  0  0  0
 17 18  1  0  0  0  0
 17 43  1  0  0  0  0
 18 19  2  0  0  0  0
 18 44  1  0  0  0  0
 20 45  1  0  0  0  0
 20 46  1  0  0  0  0
M  END
> <s_m_source_file>
AV-unprocessed.smi

> <i_m_source_file_index>
3331

> <i_lp_mmshare_version>
43012

> <i_f3d_flags>
0

> <s_epik_input>
W0NIM11bQ0BASF0xW0NIMl1bQ0BASF0oW0NIM10pW0NIMl1OKFtDSDJdMSlDKD1PKVtDQEhdKFtDSDNdKVtOSF1bQ0gyXVtDSDJdbjJbY0hdW2NIXVtjSF1uMg==

> <s_epik_cmdline>
J2VwaWtfcHl0aG9uJywgJy1waCcsICc3LjAnLCAnLXRuJywgJzgnLCAnLW1hJywgJzIwMCcsICctbWV0YWxfYmluZGluZycsICctaW1hZScsICc8aW5maWxlLm1hZT4nLCAnLW9tYWUnLCAnPG91dGZpbGUubWFlPic=

> <r_lp_tautomer_probability>
1

> <r_epik_Ionization_Penalty>
0.767994

> <r_epik_Ionization_Penalty_Charging>
0

> <r_epik_Ionization_Penalty_Neutral>
0.767994

> <r_epik_State_Penalty>
0.795453

> <r_epik_Charging_Adjusted_Penalty>
0.795453

> <i_epik_Tot_Q>
0

> <i_epik_Tot_abs_Q>
0

> <r_epik_Metal_State_Penalty>
0.794784

> <b_epik_Metal_Only>
0

> <s_lp_Force_Field>
OPLS_2005

> <r_lp_Energy>
31.6007

> <b_lp_Chiralities_Consistent>
1

> <s_lp_Variant>
AV-unprocessed.smi:3331-10

> <Gold.Version>
5.8.1

> <Gold.Id.Protein>
6NUR|6NUR_protein|mol2

> <Gold.PLP.Fitness>
41.1311

> <Gold.PLP.PLP>
-30.3852

> <Gold.PLP.part.hbond>
-1.7951

> <Gold.PLP.part.metal>
0.0000

> <Gold.PLP.part.buried>
-2.3507

> <Gold.PLP.part.nonpolar>
-26.5186

> <Gold.PLP.part.repulsive>
0.2461

> <Gold.PLP.ligand.clash>
0.0000

> <Gold.PLP.ligand.torsion>
0.6886

> <Gold.PLP.Chemscore.Hbond>
2.0000

> <Gold.PLP.Chemscore.CHOScore>
2.0000

> <Gold.PLP.Chemscore.Metal>
0.0000

> <Gold.Chemscore.Hbonds>
donor molecule, donor type, donor heavy atom, donor atom, acceptor molecule, acceptor atom, score
      L1  H    12    37       P1  7948  1.00
      P1  H 10752 10764       L1     9  1.00
      L1  C    16    42       P1  7948  1.00
      L1  C    18    44       P1 10186  1.00

> <Gold.PLP.Chemscore.Internal.Correction>
0.1231

> <Gold.Rescore>
     Score         DG    S(hbond)    S(metal)    S(lipo)     H(rot)  DE(clash)    DE(int)     intcor
     13.92     -15.88       1.92        0.00      70.66       1.66       0.03       1.94       ----

> <Gold.Chemscore.Fitness>
13.9180

> <Gold.Chemscore.DG>
-15.8832

> <Gold.Chemscore.ZeroCoef>
-5.4800

> <Gold.Chemscore.Hbond>
1.9156

> <Gold.Chemscore.Metal>
0.0000

> <Gold.Chemscore.Lipo>
70.6593

> <Gold.Chemscore.Internal_Hbond>
0.0000

> <Gold.Chemscore.DEClash>
0.0270

> <Gold.Chemscore.DEInternal>
1.9382

> <Gold.Chemscore.Rot>
1.6649

> <Gold.Chemscore.Internal.Correction>
   9.000000E+99

> <Gold.Chemscore.Hbonds>
donor molecule, donor type, donor heavy atom, donor atom, acceptor molecule, acceptor atom, score
      L1  H    12    37       P1  7948  0.95
      P1  H 10752 10764       L1     9  0.95

> <Gold.Chemscore.Hbond.Weighted>
-6.3981

> <Gold.Chemscore.Metal.Weighted>
-0.0000

> <Gold.Chemscore.Lipo.Weighted>
-8.2671

> <Gold.Chemscore.Internal_Hbond.Weighted>
0.0000

> <Gold.Chemscore.DEClash.Weighted>
0.0270

> <Gold.Chemscore.DEInternal.Weighted>
1.9382

> <Gold.Chemscore.Rot.Weighted>
4.2621

> <Gold.Chemscore.Internal.Correction.Weighted>
   9.000000E+99

> <Gold.Protein.RotatedTorsions>
[ 6907 6896 6895 6894 ] final -169.34 input  -60.11 | X-H torsion
[ 7974 7965 7964 7962 ] final  -35.43 input  175.53 | X-H torsion
[ 8008 7997 7996 7995 ] final  134.68 input   59.86 | X-H torsion
[ 10167 10162 10161 10158 ] final   58.49 input  -65.29 | X-H torsion
[ 10718 10713 10712 10709 ] final -126.08 input   66.30 | X-H torsion
[ 10763 10752 10751 10750 ] final  -54.67 input  -60.55 | X-H torsion
[ 11005 11000 10999 10996 ] final  -11.35 input  -57.11 | X-H torsion

> <Gold.Protein.ActiveResidues>
 VAL166  LYS551  ARG553  GLY616  TRP617  ASP618  TYR619  PRO620  LYS621  CYS622 
 ASP623  PHE694  ASN695  SER759  ASP760  ASP761  ALA762  ILE779  LEU786  VAL792 
 PHE793  MET794  SER795  GLU796  ALA797  LYS798  CYS799  TRP800  GLU811  SER814 

> <Gold.Protein.RotatedAtoms>
  151.4901  133.3527  159.2851 H   0  0  0  0  0  0  0  0  0  0  0  0  # atno 6907 bound_to 6896
  150.8840  134.8237  159.7256 H   0  0  0  0  0  0  0  0  0  0  0  0  # atno 6908 bound_to 6896
  152.4781  134.4802  159.9715 H   0  0  0  0  0  0  0  0  0  0  0  0  # atno 6909 bound_to 6896
  146.0747  140.6158  142.8936 H   0  0  0  0  0  0  0  0  0  0  0  0  # atno 7974 bound_to 7965
  156.3000  140.2490  156.3456 H   0  0  0  0  0  0  0  0  0  0  0  0  # atno 8008 bound_to 7997
  154.9014  140.0406  157.1914 H   0  0  0  0  0  0  0  0  0  0  0  0  # atno 8009 bound_to 7997
  154.8497  140.2904  155.5610 H   0  0  0  0  0  0  0  0  0  0  0  0  # atno 8010 bound_to 7997
  140.1866  144.4128  150.6590 H   0  0  0  0  0  0  0  0  0  0  0  0  # atno 10167 bound_to 10162
  156.1733  130.6682  151.0209 H   0  0  0  0  0  0  0  0  0  0  0  0  # atno 10718 bound_to 10713
  154.1785  135.6447  153.5028 H   0  0  0  0  0  0  0  0  0  0  0  0  # atno 10763 bound_to 10752
  153.0065  135.5400  154.6539 H   0  0  0  0  0  0  0  0  0  0  0  0  # atno 10764 bound_to 10752
  154.5897  135.2933  155.0621 H   0  0  0  0  0  0  0  0  0  0  0  0  # atno 10765 bound_to 10752
  140.7543  133.8566  155.9071 H   0  0  0  0  0  0  0  0  0  0  0  0  # atno 11005 bound_to 11000
  144.7254  140.4507  143.6977 LP  0  0  0  0  0  0  0  0  0  0  0  0  # atno 17320 bound_to 7965
  145.6328  139.1538  143.2960 LP  0  0  0  0  0  0  0  0  0  0  0  0  # atno 17321 bound_to 7965
  140.6484  143.2219  151.6134 LP  0  0  0  0  0  0  0  0  0  0  0  0  # atno 17342 bound_to 10162
  139.5273  144.3020  152.1065 LP  0  0  0  0  0  0  0  0  0  0  0  0  # atno 17343 bound_to 10162
  157.6818  131.0836  150.7349 LP  0  0  0  0  0  0  0  0  0  0  0  0  # atno 17370 bound_to 10713
  156.7408  130.4738  149.5478 LP  0  0  0  0  0  0  0  0  0  0  0  0  # atno 17371 bound_to 10713
  140.9722  134.1516  157.4567 LP  0  0  0  0  0  0  0  0  0  0  0  0  # atno 17394 bound_to 11000
  139.8782  134.9982  156.5889 LP  0  0  0  0  0  0  0  0  0  0  0  0  # atno 17395 bound_to 11000

$$$$
