AV-unprocessed.smi:2648|AV-procd|sdf|10286|dock6
  -GOLD-   2272014303D 1   1.00000     0.00000
 Structure written by MMmdl.
 33 34  0  0  0  0  0  0  0  0  2 V2000
  146.5717  131.8932  153.8873 O   0  0  0  0  0  0  0  0  0  0  0  0
  147.2348  131.5323  152.9152 C   0  0  0  0  0  0  0  0  0  0  0  0
  148.4349  130.9432  153.0176 N   0  0  0  0  0  0  0  0  0  0  0  0
  149.1117  130.6487  154.2752 C   0  0  0  0  0  0  0  0  0  0  0  0
  150.0177  131.8141  154.7127 C   0  0  0  0  0  0  0  0  0  0  0  0
  151.0030  131.3772  155.7045 N   0  0  0  0  0  0  0  0  0  0  0  0
  151.2580  132.0260  156.8483 C   0  0  0  0  0  0  0  0  0  0  0  0
  150.7409  133.0677  157.2504 O   0  0  0  0  0  0  0  0  0  0  0  0
  152.3134  131.2552  157.6109 C   0  0  0  0  0  0  0  0  0  0  0  0
  152.5154  130.1585  156.6885 N   0  0  0  0  0  0  0  0  0  0  0  0
  151.7411  130.2573  155.6001 C   0  0  0  0  0  0  0  0  0  0  0  0
  151.7156  129.4497  154.6724 O   0  0  0  0  0  0  0  0  0  0  0  0
  146.8749  131.6912  151.6295 N   0  0  0  0  0  0  0  0  0  0  0  0
  145.6720  132.2437  151.1107 C   0  0  0  0  0  0  0  0  0  0  0  0
  145.4739  132.1870  149.7131 C   0  0  0  0  0  0  0  0  0  0  0  0
  144.2869  132.7060  149.1567 C   0  0  0  0  0  0  0  0  0  0  0  0
  143.3456  133.2434  149.9618 N   0  3  0  0  0  0  0  0  0  0  0  0
  143.4833  133.3080  151.3034 C   0  0  0  0  0  0  0  0  0  0  0  0
  144.6488  132.8053  151.9169 C   0  0  0  0  0  0  0  0  0  0  0  0
  148.9170  130.6819  152.1698 H   0  0  0  0  0  0  0  0  0  0  0  0
  148.3759  130.4226  155.0491 H   0  0  0  0  0  0  0  0  0  0  0  0
  149.7052  129.7440  154.1405 H   0  0  0  0  0  0  0  0  0  0  0  0
  150.5246  132.2396  153.8448 H   0  0  0  0  0  0  0  0  0  0  0  0
  149.4160  132.6246  155.1280 H   0  0  0  0  0  0  0  0  0  0  0  0
  153.2229  131.8417  157.7450 H   0  0  0  0  0  0  0  0  0  0  0  0
  151.9409  130.9077  158.5750 H   0  0  0  0  0  0  0  0  0  0  0  0
  153.1654  129.4055  156.8621 H   0  0  0  0  0  0  0  0  0  0  0  0
  147.5659  131.4308  150.9410 H   0  0  0  0  0  0  0  0  0  0  0  0
  146.2257  131.7554  149.0681 H   0  0  0  0  0  0  0  0  0  0  0  0
  144.0631  132.7055  148.0999 H   0  0  0  0  0  0  0  0  0  0  0  0
  142.6597  133.7515  151.8440 H   0  0  0  0  0  0  0  0  0  0  0  0
  144.7283  132.8490  152.9923 H   0  0  0  0  0  0  0  0  0  0  0  0
  142.4926  133.6114  149.5398 H   0  0  0  0  0  0  0  0  0  0  0  0
  1  2  2  0  0  0  0
  2  3  1  0  0  0  0
  2 13  1  0  0  0  0
  3  4  1  0  0  0  0
  3 20  1  0  0  0  0
  4  5  1  0  0  0  0
  4 21  1  0  0  0  0
  4 22  1  0  0  0  0
  5  6  1  0  0  0  0
  5 23  1  0  0  0  0
  5 24  1  0  0  0  0
  6 11  1  0  0  0  0
  6  7  1  0  0  0  0
  7  8  2  0  0  0  0
  7  9  1  0  0  0  0
  9 10  1  0  0  0  0
  9 25  1  0  0  0  0
  9 26  1  0  0  0  0
 10 11  1  0  0  0  0
 10 27  1  0  0  0  0
 11 12  2  0  0  0  0
 13 14  1  0  0  0  0
 13 28  1  0  0  0  0
 14 19  1  0  0  0  0
 14 15  2  0  0  0  0
 15 16  1  0  0  0  0
 15 29  1  0  0  0  0
 16 17  2  0  0  0  0
 16 30  1  0  0  0  0
 17 18  1  0  0  0  0
 17 33  1  0  0  0  0
 18 19  2  0  0  0  0
 18 31  1  0  0  0  0
 19 32  1  0  0  0  0
M  CHG  1  17   1
M  END
> <s_m_source_file>
AV-unprocessed.smi

> <i_m_source_file_index>
2648

> <i_lp_mmshare_version>
43012

> <i_f3d_flags>
0

> <s_epik_input>
W2NIXTFbY0hdbltjSF1bY0hdYzFbTkhdQyg9TylbTkhdW0NIMl1bQ0gyXU4yQyg9TylbQ0gyXVtOSF1DMj1P

> <s_epik_cmdline>
J2VwaWtfcHl0aG9uJywgJy1waCcsICc3LjAnLCAnLXRuJywgJzgnLCAnLW1hJywgJzIwMCcsICctbWV0YWxfYmluZGluZycsICctaW1hZScsICc8aW5maWxlLm1hZT4nLCAnLW9tYWUnLCAnPG91dGZpbGUubWFlPic=

> <r_lp_tautomer_probability>
1

> <r_epik_Ionization_Penalty>
1.05701

> <r_epik_Ionization_Penalty_Charging>
1.05694

> <r_epik_Ionization_Penalty_Neutral>
7.31213e-05

> <r_epik_State_Penalty>
1.11031

> <r_epik_Charging_Adjusted_Penalty>
2.16725

> <i_epik_Tot_Q>
1

> <i_epik_Tot_abs_Q>
1

> <r_epik_Metal_State_Penalty>
1.22924

> <b_epik_Metal_Only>
0

> <s_lp_Force_Field>
OPLS_2005

> <r_lp_Energy>
27.1091

> <b_lp_Chiralities_Consistent>
1

> <s_lp_Variant>
AV-unprocessed.smi:2648-2

> <Gold.Version>
5.8.1

> <Gold.Id.Protein>
6NUR|6NUR_protein|mol2

> <Gold.PLP.Fitness>
46.6452

> <Gold.PLP.PLP>
-32.5750

> <Gold.PLP.part.hbond>
-4.0000

> <Gold.PLP.part.metal>
0.0000

> <Gold.PLP.part.buried>
-4.8157

> <Gold.PLP.part.nonpolar>
-24.3122

> <Gold.PLP.part.repulsive>
0.2949

> <Gold.PLP.ligand.clash>
0.0000

> <Gold.PLP.ligand.torsion>
0.4223

> <Gold.PLP.Chemscore.Hbond>
4.9680

> <Gold.PLP.Chemscore.CHOScore>
0.0000

> <Gold.PLP.Chemscore.Metal>
0.0000

> <Gold.Chemscore.Hbonds>
donor molecule, donor type, donor heavy atom, donor atom, acceptor molecule, acceptor atom, score
      L1  H     3    20       P1 10747  0.94
      L1  H    13    28       P1 10747  1.00
      L1  H    17    33       P1 10186  2.00
      P1  H  6896  6907       L1     8  0.99

> <Gold.PLP.Chemscore.Internal.Correction>
0.0109

> <Gold.Rescore>
     Score         DG    S(hbond)    S(metal)    S(lipo)     H(rot)  DE(clash)    DE(int)     intcor
     16.16     -18.84       3.51        0.00      57.10       1.96       0.00       2.68       ----

> <Gold.Chemscore.Fitness>
16.1590

> <Gold.Chemscore.DG>
-18.8427

> <Gold.Chemscore.ZeroCoef>
-5.4800

> <Gold.Chemscore.Hbond>
3.5065

> <Gold.Chemscore.Metal>
0.0000

> <Gold.Chemscore.Lipo>
57.1005

> <Gold.Chemscore.Internal_Hbond>
0.0000

> <Gold.Chemscore.DEClash>
0.0015

> <Gold.Chemscore.DEInternal>
2.6823

> <Gold.Chemscore.Rot>
1.9648

> <Gold.Chemscore.Internal.Correction>
   9.000000E+99

> <Gold.Chemscore.Hbonds>
donor molecule, donor type, donor heavy atom, donor atom, acceptor molecule, acceptor atom, score
      L1  H     3    20       P1 10747  0.37
      L1  H    13    28       P1 10747  1.00
      L1  H    17    33       P1 10186  0.98
      P1  H  6896  6907       L1     8  0.83

> <Gold.Chemscore.Hbond.Weighted>
-11.7118

> <Gold.Chemscore.Metal.Weighted>
-0.0000

> <Gold.Chemscore.Lipo.Weighted>
-6.6808

> <Gold.Chemscore.Internal_Hbond.Weighted>
0.0000

> <Gold.Chemscore.DEClash.Weighted>
0.0015

> <Gold.Chemscore.DEInternal.Weighted>
2.6823

> <Gold.Chemscore.Rot.Weighted>
5.0299

> <Gold.Chemscore.Internal.Correction.Weighted>
   9.000000E+99

> <Gold.Protein.RotatedTorsions>
[ 6907 6896 6895 6894 ] final -140.46 input  -60.11 | X-H torsion
[ 7974 7965 7964 7962 ] final   -6.06 input  175.53 | X-H torsion
[ 8008 7997 7996 7995 ] final    4.09 input   59.86 | X-H torsion
[ 10167 10162 10161 10158 ] final  -34.81 input  -65.29 | X-H torsion
[ 10718 10713 10712 10709 ] final  -60.80 input   66.30 | X-H torsion
[ 10763 10752 10751 10750 ] final  -20.07 input  -60.55 | X-H torsion
[ 11005 11000 10999 10996 ] final  -99.25 input  -57.11 | X-H torsion

> <Gold.Protein.ActiveResidues>
 VAL166  LYS551  ARG553  GLY616  TRP617  ASP618  TYR619  PRO620  LYS621  CYS622 
 ASP623  PHE694  ASN695  SER759  ASP760  ASP761  ALA762  ILE779  LEU786  VAL792 
 PHE793  MET794  SER795  GLU796  ALA797  LYS798  CYS799  TRP800  GLU811  SER814 

> <Gold.Protein.RotatedAtoms>
  151.0610  133.5544  159.2634 H   0  0  0  0  0  0  0  0  0  0  0  0  # atno 6907 bound_to 6896
  151.2520  135.0624  159.9075 H   0  0  0  0  0  0  0  0  0  0  0  0  # atno 6908 bound_to 6896
  152.5397  134.0368  159.8103 H   0  0  0  0  0  0  0  0  0  0  0  0  # atno 6909 bound_to 6896
  146.2339  140.2113  142.8335 H   0  0  0  0  0  0  0  0  0  0  0  0  # atno 7974 bound_to 7965
  154.7116  140.2694  155.6624 H   0  0  0  0  0  0  0  0  0  0  0  0  # atno 8008 bound_to 7997
  156.2797  140.2752  156.1684 H   0  0  0  0  0  0  0  0  0  0  0  0  # atno 8009 bound_to 7997
  155.0627  140.0371  157.2572 H   0  0  0  0  0  0  0  0  0  0  0  0  # atno 8010 bound_to 7997
  140.7178  143.3522  151.2133 H   0  0  0  0  0  0  0  0  0  0  0  0  # atno 10167 bound_to 10162
  156.0965  130.4192  150.0905 H   0  0  0  0  0  0  0  0  0  0  0  0  # atno 10718 bound_to 10713
  153.6146  135.6995  153.5333 H   0  0  0  0  0  0  0  0  0  0  0  0  # atno 10763 bound_to 10752
  153.2988  135.4135  155.1233 H   0  0  0  0  0  0  0  0  0  0  0  0  # atno 10764 bound_to 10752
  154.8556  135.3643  154.5686 H   0  0  0  0  0  0  0  0  0  0  0  0  # atno 10765 bound_to 10752
  141.1315  133.8307  157.0947 H   0  0  0  0  0  0  0  0  0  0  0  0  # atno 11005 bound_to 11000
  144.9704  140.8363  143.5459 LP  0  0  0  0  0  0  0  0  0  0  0  0  # atno 17320 bound_to 7965
  145.2094  139.2212  143.5151 LP  0  0  0  0  0  0  0  0  0  0  0  0  # atno 17321 bound_to 7965
  139.7055  143.9462  152.2925 LP  0  0  0  0  0  0  0  0  0  0  0  0  # atno 17342 bound_to 10162
  139.9170  144.6822  150.8502 LP  0  0  0  0  0  0  0  0  0  0  0  0  # atno 17343 bound_to 10162
  156.8903  130.9586  151.3589 LP  0  0  0  0  0  0  0  0  0  0  0  0  # atno 17370 bound_to 10713
  157.6127  130.8595  149.8978 LP  0  0  0  0  0  0  0  0  0  0  0  0  # atno 17371 bound_to 10713
  140.0370  134.9873  157.0891 LP  0  0  0  0  0  0  0  0  0  0  0  0  # atno 17394 bound_to 11000
  140.4194  134.1897  155.7164 LP  0  0  0  0  0  0  0  0  0  0  0  0  # atno 17395 bound_to 11000

$$$$
