AV-unprocessed.smi:1748|AV-procd|sdf|7043|dock5
  -GOLD-   22720 8263D 1   1.00000     0.00000
 Structure written by MMmdl.
 39 40  0  0  0  0  0  0  0  0  3 V2000
  145.7379  135.0623  152.2722 C   0  0  0  0  0  0  0  0  0  0  0  0
  146.9951  134.4976  152.8083 N   0  3  2  0  0  0  0  0  0  0  0  0
  147.0397  133.0178  152.7015 C   0  0  0  0  0  0  0  0  0  0  0  0
  148.4068  132.4737  153.1479 C   0  0  0  0  0  0  0  0  0  0  0  0
  148.7475  132.9368  154.5713 C   0  0  0  0  0  0  0  0  0  0  0  0
  148.6646  134.4692  154.6642 C   0  0  2  0  0  0  0  0  0  0  0  0
  148.9272  134.9006  156.0340 N   0  0  0  0  0  0  0  0  0  0  0  0
  148.0246  134.9120  157.0257 C   0  0  0  0  0  0  0  0  0  0  0  0
  146.8592  134.5448  156.8767 O   0  0  0  0  0  0  0  0  0  0  0  0
  148.5756  135.3475  158.1729 N   0  0  0  0  0  0  0  0  0  0  0  0
  147.9767  135.5385  159.4298 C   0  0  0  0  0  0  0  0  0  0  0  0
  146.7990  134.9771  159.8206 C   0  0  0  0  0  0  0  0  0  0  0  0
  146.2154  135.2272  161.1331 C   0  0  0  0  0  0  0  0  0  0  0  0
  144.9096  134.6251  161.6192 C   0  0  0  0  0  0  0  0  0  0  0  0
  144.0496  135.5905  161.9419 F   0  0  0  0  0  0  0  0  0  0  0  0
  144.3568  133.8858  160.6580 F   0  0  0  0  0  0  0  0  0  0  0  0
  145.0970  133.8528  162.6893 F   0  0  0  0  0  0  0  0  0  0  0  0
  146.9807  136.0885  161.8934 C   0  0  0  0  0  0  0  0  0  0  0  0
  148.1479  136.6924  161.5797 N   0  5  0  0  0  0  0  0  0  0  0  0
  148.6879  136.4483  160.3520 C   0  0  0  0  0  0  0  0  0  0  0  0
  149.7484  136.9663  159.9997 O   0  0  0  0  0  0  0  0  0  0  0  0
  147.2825  134.9647  154.1874 C   0  0  0  0  0  0  0  0  0  0  0  0
  144.8785  134.7250  152.8532 H   0  0  0  0  0  0  0  0  0  0  0  0
  145.5905  134.7587  151.2353 H   0  0  0  0  0  0  0  0  0  0  0  0
  145.7631  136.1521  152.2984 H   0  0  0  0  0  0  0  0  0  0  0  0
  146.2450  132.5833  153.3102 H   0  0  0  0  0  0  0  0  0  0  0  0
  146.8488  132.7190  151.6700 H   0  0  0  0  0  0  0  0  0  0  0  0
  148.4076  131.3842  153.1007 H   0  0  0  0  0  0  0  0  0  0  0  0
  149.1794  132.8137  152.4569 H   0  0  0  0  0  0  0  0  0  0  0  0
  148.0542  132.4804  155.2794 H   0  0  0  0  0  0  0  0  0  0  0  0
  149.7459  132.5930  154.8452 H   0  0  0  0  0  0  0  0  0  0  0  0
  149.4342  134.8888  154.0128 H   0  0  0  0  0  0  0  0  0  0  0  0
  149.8629  135.2174  156.2427 H   0  0  0  0  0  0  0  0  0  0  0  0
  149.5677  135.5340  158.1557 H   0  0  0  0  0  0  0  0  0  0  0  0
  146.2455  134.3390  159.1518 H   0  0  0  0  0  0  0  0  0  0  0  0
  146.5936  136.3280  162.9071 H   0  0  0  0  0  0  0  0  0  0  0  0
  147.2525  136.0551  154.2070 H   0  0  0  0  0  0  0  0  0  0  0  0
  146.4986  134.6146  154.8614 H   0  0  0  0  0  0  0  0  0  0  0  0
  147.7397  134.8527  152.2251 H   0  0  0  0  0  0  0  0  0  0  0  0
  1  2  1  0  0  0  0
  1 23  1  0  0  0  0
  1 24  1  0  0  0  0
  1 25  1  0  0  0  0
  2 22  1  0  0  0  0
  2  3  1  0  0  0  0
  2 39  1  0  0  0  0
  3  4  1  0  0  0  0
  3 26  1  0  0  0  0
  3 27  1  0  0  0  0
  4  5  1  0  0  0  0
  4 28  1  0  0  0  0
  4 29  1  0  0  0  0
  5  6  1  0  0  0  0
  5 30  1  0  0  0  0
  5 31  1  0  0  0  0
  6  7  1  0  0  0  0
  6 22  1  0  0  0  0
  6 32  1  0  0  0  0
  7  8  1  0  0  0  0
  7 33  1  0  0  0  0
  8  9  2  0  0  0  0
  8 10  1  0  0  0  0
 10 11  1  0  0  0  0
 10 34  1  0  0  0  0
 11 20  1  0  0  0  0
 11 12  2  0  0  0  0
 12 13  1  0  0  0  0
 12 35  1  0  0  0  0
 13 14  1  0  0  0  0
 13 18  2  0  0  0  0
 14 15  1  0  0  0  0
 14 16  1  0  0  0  0
 14 17  1  0  0  0  0
 18 19  1  0  0  0  0
 18 36  1  0  0  0  0
 19 20  1  0  0  0  0
 20 21  2  0  0  0  0
 22 37  1  0  0  0  0
 22 38  1  0  0  0  0
M  CHG  1   2   1
M  CHG  1  19  -1
M  END
> <s_m_source_file>
AV-unprocessed.smi

> <i_m_source_file_index>
1748

> <i_lp_mmshare_version>
43012

> <i_f3d_flags>
0

> <s_epik_input>
W0NIM11OMVtDSDJdW0NIMl1bQ0gyXVtDQEhdKFtDSDJdMSlbTkhdQyg9TylbTkhdYzJbY0hdYyhDKEYpKEYpRilbY0hdW25IXWMyPU8=

> <s_epik_cmdline>
J2VwaWtfcHl0aG9uJywgJy1waCcsICc3LjAnLCAnLXRuJywgJzgnLCAnLW1hJywgJzIwMCcsICctbWV0YWxfYmluZGluZycsICctaW1hZScsICc8aW5maWxlLm1hZT4nLCAnLW9tYWUnLCAnPG91dGZpbGUubWFlPic=

> <r_lp_tautomer_probability>
1

> <r_epik_Ionization_Penalty>
3.00907

> <r_epik_Ionization_Penalty_Charging>
0.148702

> <r_epik_Ionization_Penalty_Neutral>
2.86036

> <r_epik_State_Penalty>
2.85557

> <r_epik_Charging_Adjusted_Penalty>
3.00428

> <i_epik_Tot_Q>
0

> <i_epik_Tot_abs_Q>
2

> <r_epik_Metal_State_Penalty>
0.443779

> <b_epik_Metal_Only>
1

> <s_lp_Force_Field>
OPLS_2005

> <r_lp_Energy>
26.5131

> <b_lp_Chiralities_Consistent>
1

> <s_lp_Variant>
AV-unprocessed.smi:1748-8

> <Gold.Version>
5.8.1

> <Gold.Id.Protein>
6NUR|6NUR_protein|mol2

> <Gold.PLP.Fitness>
40.1235

> <Gold.PLP.PLP>
-26.7140

> <Gold.PLP.part.hbond>
-3.6698

> <Gold.PLP.part.metal>
0.0000

> <Gold.PLP.part.buried>
-1.6715

> <Gold.PLP.part.nonpolar>
-22.0611

> <Gold.PLP.part.repulsive>
0.1016

> <Gold.PLP.ligand.clash>
0.0000

> <Gold.PLP.ligand.torsion>
0.3949

> <Gold.PLP.Chemscore.Hbond>
4.7315

> <Gold.PLP.Chemscore.CHOScore>
0.0000

> <Gold.PLP.Chemscore.Metal>
0.0000

> <Gold.Chemscore.Hbonds>
donor molecule, donor type, donor heavy atom, donor atom, acceptor molecule, acceptor atom, score
      L1  H     2    39       P1  7948  1.98
      P1  H  6896  6907       L1    21  0.24
      P1  H  6931  6943       L1    19  1.70

> <Gold.PLP.Chemscore.Internal.Correction>
0.0048

> <Gold.Rescore>
     Score         DG    S(hbond)    S(metal)    S(lipo)     H(rot)  DE(clash)    DE(int)     intcor
     13.72     -16.75       2.36        0.00      50.76       1.00       0.04       2.98       ----

> <Gold.Chemscore.Fitness>
13.7178

> <Gold.Chemscore.DG>
-16.7463

> <Gold.Chemscore.ZeroCoef>
-5.4800

> <Gold.Chemscore.Hbond>
2.3616

> <Gold.Chemscore.Metal>
0.0000

> <Gold.Chemscore.Lipo>
50.7580

> <Gold.Chemscore.Internal_Hbond>
0.0000

> <Gold.Chemscore.DEClash>
0.0440

> <Gold.Chemscore.DEInternal>
2.9846

> <Gold.Chemscore.Rot>
1.0000

> <Gold.Chemscore.Internal.Correction>
   9.000000E+99

> <Gold.Chemscore.Hbonds>
donor molecule, donor type, donor heavy atom, donor atom, acceptor molecule, acceptor atom, score
      L1  H     2    39       P1  7948  0.74
      P1  H  6896  6907       L1    21  0.07
      P1  H  6931  6943       L1    19  0.15

> <Gold.Chemscore.Hbond.Weighted>
-7.8876

> <Gold.Chemscore.Metal.Weighted>
-0.0000

> <Gold.Chemscore.Lipo.Weighted>
-5.9387

> <Gold.Chemscore.Internal_Hbond.Weighted>
0.0000

> <Gold.Chemscore.DEClash.Weighted>
0.0440

> <Gold.Chemscore.DEInternal.Weighted>
2.9846

> <Gold.Chemscore.Rot.Weighted>
2.5600

> <Gold.Chemscore.Internal.Correction.Weighted>
   9.000000E+99

> <Gold.Protein.RotatedTorsions>
[ 6907 6896 6895 6894 ] final  -25.64 input  -60.11 | X-H torsion
[ 7974 7965 7964 7962 ] final   74.34 input  175.53 | X-H torsion
[ 8008 7997 7996 7995 ] final  108.85 input   59.86 | X-H torsion
[ 10167 10162 10161 10158 ] final  -49.82 input  -65.29 | X-H torsion
[ 10718 10713 10712 10709 ] final -162.79 input   66.30 | X-H torsion
[ 10763 10752 10751 10750 ] final  -57.07 input  -60.55 | X-H torsion
[ 11005 11000 10999 10996 ] final -129.79 input  -57.11 | X-H torsion

> <Gold.Protein.ActiveResidues>
 VAL166  LYS551  ARG553  GLY616  TRP617  ASP618  TYR619  PRO620  LYS621  CYS622 
 ASP623  PHE694  ASN695  SER759  ASP760  ASP761  ALA762  ILE779  LEU786  VAL792 
 PHE793  MET794  SER795  GLU796  ALA797  LYS798  CYS799  TRP800  GLU811  SER814 

> <Gold.Protein.RotatedAtoms>
  151.1724  135.0324  159.8756 H   0  0  0  0  0  0  0  0  0  0  0  0  # atno 6907 bound_to 6896
  152.5448  134.1156  159.8387 H   0  0  0  0  0  0  0  0  0  0  0  0  # atno 6908 bound_to 6896
  151.1263  133.5021  159.2633 H   0  0  0  0  0  0  0  0  0  0  0  0  # atno 6909 bound_to 6896
  145.7295  139.2678  143.1549 H   0  0  0  0  0  0  0  0  0  0  0  0  # atno 7974 bound_to 7965
  156.1934  140.3069  155.9379 H   0  0  0  0  0  0  0  0  0  0  0  0  # atno 8008 bound_to 7997
  155.3120  140.0451  157.3052 H   0  0  0  0  0  0  0  0  0  0  0  0  # atno 8009 bound_to 7997
  154.5480  140.2282  155.8540 H   0  0  0  0  0  0  0  0  0  0  0  0  # atno 8010 bound_to 7997
  140.6667  143.2682  151.4270 H   0  0  0  0  0  0  0  0  0  0  0  0  # atno 10167 bound_to 10162
  156.6154  130.8868  151.2946 H   0  0  0  0  0  0  0  0  0  0  0  0  # atno 10718 bound_to 10713
  154.2166  135.6385  153.5131 H   0  0  0  0  0  0  0  0  0  0  0  0  # atno 10763 bound_to 10752
  152.9978  135.5486  154.6159 H   0  0  0  0  0  0  0  0  0  0  0  0  # atno 10764 bound_to 10752
  154.5608  135.2909  155.0894 H   0  0  0  0  0  0  0  0  0  0  0  0  # atno 10765 bound_to 10752
  140.9401  134.1204  157.4158 H   0  0  0  0  0  0  0  0  0  0  0  0  # atno 11005 bound_to 11000
  146.0551  140.8029  142.9762 LP  0  0  0  0  0  0  0  0  0  0  0  0  # atno 17320 bound_to 7965
  144.6896  140.3111  143.7248 LP  0  0  0  0  0  0  0  0  0  0  0  0  # atno 17321 bound_to 7965
  139.5918  144.1482  152.2098 LP  0  0  0  0  0  0  0  0  0  0  0  0  # atno 17342 bound_to 10162
  140.0839  144.5678  150.7103 LP  0  0  0  0  0  0  0  0  0  0  0  0  # atno 17343 bound_to 10162
  157.7242  130.9600  150.1566 LP  0  0  0  0  0  0  0  0  0  0  0  0  # atno 17370 bound_to 10713
  156.2355  130.3686  149.8396 LP  0  0  0  0  0  0  0  0  0  0  0  0  # atno 17371 bound_to 10713
  139.8818  135.0034  156.6184 LP  0  0  0  0  0  0  0  0  0  0  0  0  # atno 17394 bound_to 11000
  140.7745  133.8711  155.8518 LP  0  0  0  0  0  0  0  0  0  0  0  0  # atno 17395 bound_to 11000

$$$$
