AV-unprocessed.smi:1776|AV-procd|sdf|7175|dock6
  -GOLD-   22720 8413D 1   1.00000     0.00000
 Structure written by MMmdl.
 30 31  0  0  0  0  0  0  0  0  2 V2000
  151.8882  140.2504  155.1911 O   0  0  0  0  0  0  0  0  0  0  0  0
  150.7324  140.4074  155.5845 C   0  0  0  0  0  0  0  0  0  0  0  0
  150.3803  140.9540  156.7657 N   0  0  0  0  0  0  0  0  0  0  0  0
  151.1752  141.4587  157.8106 C   0  0  0  0  0  0  0  0  0  0  0  0
  150.9359  142.6110  158.4972 C   0  0  0  0  0  0  0  0  0  0  0  0
  151.8084  143.0782  159.5673 C   0  0  0  0  0  0  0  0  0  0  0  0
  151.5208  144.3058  160.4137 C   0  0  0  0  0  0  0  0  0  0  0  0
  152.1920  144.2638  161.5650 F   0  0  0  0  0  0  0  0  0  0  0  0
  151.8893  145.4053  159.7579 F   0  0  0  0  0  0  0  0  0  0  0  0
  150.2199  144.4025  160.6887 F   0  0  0  0  0  0  0  0  0  0  0  0
  152.8652  142.2185  159.7953 C   0  0  0  0  0  0  0  0  0  0  0  0
  153.1863  141.0759  159.1506 N   0  5  0  0  0  0  0  0  0  0  0  0
  152.3654  140.6500  158.1496 C   0  0  0  0  0  0  0  0  0  0  0  0
  152.5964  139.6130  157.5263 O   0  0  0  0  0  0  0  0  0  0  0  0
  149.5574  139.9510  154.7064 C   0  0  2  0  0  0  0  0  0  0  0  0
  148.6531  141.1166  154.2409 C   0  0  0  0  0  0  0  0  0  0  0  0
  147.5751  140.5981  153.4719 O   0  0  0  0  0  0  0  0  0  0  0  0
  146.7920  139.6853  154.2282 C   0  0  0  0  0  0  0  0  0  0  0  0
  147.6845  138.5189  154.6813 C   0  0  0  0  0  0  0  0  0  0  0  0
  148.7610  139.0337  155.4527 O   0  0  0  0  0  0  0  0  0  0  0  0
  149.3872  141.0349  156.9315 H   0  0  0  0  0  0  0  0  0  0  0  0
  150.0890  143.2342  158.2666 H   0  0  0  0  0  0  0  0  0  0  0  0
  153.5545  142.4874  160.6238 H   0  0  0  0  0  0  0  0  0  0  0  0
  149.9752  139.4408  153.8366 H   0  0  0  0  0  0  0  0  0  0  0  0
  148.2657  141.6822  155.0903 H   0  0  0  0  0  0  0  0  0  0  0  0
  149.2135  141.8144  153.6178 H   0  0  0  0  0  0  0  0  0  0  0  0
  146.3453  140.1900  155.0863 H   0  0  0  0  0  0  0  0  0  0  0  0
  145.9737  139.3187  153.6085 H   0  0  0  0  0  0  0  0  0  0  0  0
  147.1134  137.8184  155.2907 H   0  0  0  0  0  0  0  0  0  0  0  0
  148.0664  137.9633  153.8234 H   0  0  0  0  0  0  0  0  0  0  0  0
  1  2  2  0  0  0  0
  2  3  1  0  0  0  0
  2 15  1  0  0  0  0
  3  4  1  0  0  0  0
  3 21  1  0  0  0  0
  4 13  1  0  0  0  0
  4  5  2  0  0  0  0
  5  6  1  0  0  0  0
  5 22  1  0  0  0  0
  6  7  1  0  0  0  0
  6 11  2  0  0  0  0
  7  8  1  0  0  0  0
  7  9  1  0  0  0  0
  7 10  1  0  0  0  0
 11 12  1  0  0  0  0
 11 23  1  0  0  0  0
 12 13  1  0  0  0  0
 13 14  2  0  0  0  0
 15 20  1  0  0  0  0
 15 16  1  0  0  0  0
 15 24  1  0  0  0  0
 16 17  1  0  0  0  0
 16 25  1  0  0  0  0
 16 26  1  0  0  0  0
 17 18  1  0  0  0  0
 18 19  1  0  0  0  0
 18 27  1  0  0  0  0
 18 28  1  0  0  0  0
 19 20  1  0  0  0  0
 19 29  1  0  0  0  0
 19 30  1  0  0  0  0
M  CHG  1  12  -1
M  END
> <s_m_source_file>
AV-unprocessed.smi

> <i_m_source_file_index>
1776

> <i_lp_mmshare_version>
43012

> <i_f3d_flags>
0

> <s_epik_input>
TzFbQ0gyXVtDSDJdT1tDSDJdW0NASF0xQyg9TylbTkhdYzJbY0hdYyhDKEYpKEYpRilbY0hdW25IXWMyPU8=

> <s_epik_cmdline>
J2VwaWtfcHl0aG9uJywgJy1waCcsICc3LjAnLCAnLXRuJywgJzgnLCAnLW1hJywgJzIwMCcsICctbWV0YWxfYmluZGluZycsICctaW1hZScsICc8aW5maWxlLm1hZT4nLCAnLW9tYWUnLCAnPG91dGZpbGUubWFlPic=

> <r_epik_Ionization_Penalty>
2.46925

> <r_epik_Ionization_Penalty_Charging>
0.0509887

> <r_epik_Ionization_Penalty_Neutral>
2.41826

> <r_epik_State_Penalty>
2.57741

> <r_epik_Charging_Adjusted_Penalty>
2.6284

> <i_epik_Tot_Q>
-1

> <i_epik_Tot_abs_Q>
1

> <r_epik_Metal_State_Penalty>
0.510263

> <b_epik_Metal_Only>
0

> <s_lp_Force_Field>
OPLS_2005

> <r_lp_Energy>
25.1464

> <b_lp_Chiralities_Consistent>
1

> <s_lp_Variant>
AV-unprocessed.smi:1776-3

> <Gold.Version>
5.8.1

> <Gold.Id.Protein>
6NUR|6NUR_protein|mol2

> <Gold.PLP.Fitness>
40.3657

> <Gold.PLP.PLP>
-37.4100

> <Gold.PLP.part.hbond>
-2.0000

> <Gold.PLP.part.metal>
0.0000

> <Gold.PLP.part.buried>
-5.3004

> <Gold.PLP.part.nonpolar>
-32.1362

> <Gold.PLP.part.repulsive>
0.4242

> <Gold.PLP.ligand.clash>
0.0000

> <Gold.PLP.ligand.torsion>
1.1272

> <Gold.PLP.Chemscore.Hbond>
1.7200

> <Gold.PLP.Chemscore.CHOScore>
0.0000

> <Gold.PLP.Chemscore.Metal>
0.0000

> <Gold.Chemscore.Hbonds>
donor molecule, donor type, donor heavy atom, donor atom, acceptor molecule, acceptor atom, score
      P1  H  7989  7998       L1     1  0.72
      P1  H  7997  8008       L1    14  1.00

> <Gold.PLP.Chemscore.Internal.Correction>
0.0501

> <Gold.Rescore>
     Score         DG    S(hbond)    S(metal)    S(lipo)     H(rot)  DE(clash)    DE(int)     intcor
      9.83     -15.23       1.55        0.00      61.12       1.00       0.64       4.76       ----

> <Gold.Chemscore.Fitness>
9.8336

> <Gold.Chemscore.DG>
-15.2337

> <Gold.Chemscore.ZeroCoef>
-5.4800

> <Gold.Chemscore.Hbond>
1.5459

> <Gold.Chemscore.Metal>
0.0000

> <Gold.Chemscore.Lipo>
61.1155

> <Gold.Chemscore.Internal_Hbond>
0.0000

> <Gold.Chemscore.DEClash>
0.6352

> <Gold.Chemscore.DEInternal>
4.7649

> <Gold.Chemscore.Rot>
1.0000

> <Gold.Chemscore.Internal.Correction>
   9.000000E+99

> <Gold.Chemscore.Hbonds>
donor molecule, donor type, donor heavy atom, donor atom, acceptor molecule, acceptor atom, score
      P1  H  7989  7998       L1     1  0.14
      P1  H  7997  8008       L1    14  0.24

> <Gold.Chemscore.Hbond.Weighted>
-5.1632

> <Gold.Chemscore.Metal.Weighted>
-0.0000

> <Gold.Chemscore.Lipo.Weighted>
-7.1505

> <Gold.Chemscore.Internal_Hbond.Weighted>
0.0000

> <Gold.Chemscore.DEClash.Weighted>
0.6352

> <Gold.Chemscore.DEInternal.Weighted>
4.7649

> <Gold.Chemscore.Rot.Weighted>
2.5600

> <Gold.Chemscore.Internal.Correction.Weighted>
   9.000000E+99

> <Gold.Protein.RotatedTorsions>
[ 6907 6896 6895 6894 ] final   54.63 input  -60.11 | X-H torsion
[ 7974 7965 7964 7962 ] final   87.65 input  175.53 | X-H torsion
[ 8008 7997 7996 7995 ] final  -66.85 input   59.86 | X-H torsion
[ 10167 10162 10161 10158 ] final   87.50 input  -65.29 | X-H torsion
[ 10718 10713 10712 10709 ] final    7.26 input   66.30 | X-H torsion
[ 10763 10752 10751 10750 ] final  158.08 input  -60.55 | X-H torsion
[ 11005 11000 10999 10996 ] final -113.42 input  -57.11 | X-H torsion

> <Gold.Protein.ActiveResidues>
 VAL166  LYS551  ARG553  GLY616  TRP617  ASP618  TYR619  PRO620  LYS621  CYS622 
 ASP623  PHE694  ASN695  SER759  ASP760  ASP761  ALA762  ILE779  LEU786  VAL792 
 PHE793  MET794  SER795  GLU796  ALA797  LYS798  CYS799  TRP800  GLU811  SER814 

> <Gold.Protein.RotatedAtoms>
  152.3458  134.7073  160.0250 H   0  0  0  0  0  0  0  0  0  0  0  0  # atno 6907 bound_to 6896
  151.7443  133.3318  159.3382 H   0  0  0  0  0  0  0  0  0  0  0  0  # atno 6908 bound_to 6896
  150.7508  134.6183  159.6167 H   0  0  0  0  0  0  0  0  0  0  0  0  # atno 6909 bound_to 6896
  145.5561  139.2299  143.2485 H   0  0  0  0  0  0  0  0  0  0  0  0  # atno 7974 bound_to 7965
  154.4761  140.0904  156.7266 H   0  0  0  0  0  0  0  0  0  0  0  0  # atno 8008 bound_to 7997
  155.4592  140.3460  155.4292 H   0  0  0  0  0  0  0  0  0  0  0  0  # atno 8009 bound_to 7997
  156.1119  140.1450  156.9315 H   0  0  0  0  0  0  0  0  0  0  0  0  # atno 8010 bound_to 7997
  139.8768  144.6462  150.8888 H   0  0  0  0  0  0  0  0  0  0  0  0  # atno 10167 bound_to 10162
  156.9343  130.5837  149.5650 H   0  0  0  0  0  0  0  0  0  0  0  0  # atno 10718 bound_to 10713
  154.2103  135.2786  155.2960 H   0  0  0  0  0  0  0  0  0  0  0  0  # atno 10763 bound_to 10752
  154.5783  135.5597  153.7164 H   0  0  0  0  0  0  0  0  0  0  0  0  # atno 10764 bound_to 10752
  153.0066  135.6338  154.2242 H   0  0  0  0  0  0  0  0  0  0  0  0  # atno 10765 bound_to 10752
  141.0615  133.9527  157.2657 H   0  0  0  0  0  0  0  0  0  0  0  0  # atno 11005 bound_to 11000
  146.1883  140.6385  142.9157 LP  0  0  0  0  0  0  0  0  0  0  0  0  # atno 17320 bound_to 7965
  144.7505  140.5180  143.6805 LP  0  0  0  0  0  0  0  0  0  0  0  0  # atno 17321 bound_to 7965
  140.7751  143.3618  151.1813 LP  0  0  0  0  0  0  0  0  0  0  0  0  # atno 17342 bound_to 10162
  139.7233  143.9189  152.2993 LP  0  0  0  0  0  0  0  0  0  0  0  0  # atno 17343 bound_to 10162
  156.0433  130.5512  150.8821 LP  0  0  0  0  0  0  0  0  0  0  0  0  # atno 17370 bound_to 10713
  157.5826  131.0946  150.9247 LP  0  0  0  0  0  0  0  0  0  0  0  0  # atno 17371 bound_to 10713
  139.9437  135.0187  156.8787 LP  0  0  0  0  0  0  0  0  0  0  0  0  # atno 17394 bound_to 11000
  140.5859  134.0308  155.7481 LP  0  0  0  0  0  0  0  0  0  0  0  0  # atno 17395 bound_to 11000

$$$$
