AV-unprocessed.smi:3314|AV-procd|sdf|12744|dock7
  -GOLD-   2272019 83D 1   1.00000     0.00000
 Structure written by MMmdl.
 37 38  0  0  0  0  0  0  0  0  3 V2000
  153.2015  141.9722  162.7047 C   0  0  0  0  0  0  0  0  0  0  0  0
  152.9049  142.1132  161.2268 C   0  0  0  0  0  0  0  0  0  0  0  0
  152.4294  143.3276  160.6969 C   0  0  0  0  0  0  0  0  0  0  0  0
  152.1777  143.3933  159.3127 C   0  0  0  0  0  0  0  0  0  0  0  0
  151.6634  144.6699  158.6817 C   0  0  0  0  0  0  0  0  0  0  0  0
  152.3657  142.3485  158.4775 N   0  0  0  0  0  0  0  0  0  0  0  0
  152.8160  141.1727  158.9763 C   0  0  0  0  0  0  0  0  0  0  0  0
  153.0067  140.1471  158.1342 N   0  5  0  0  0  0  0  0  0  0  0  0
  151.9803  139.6971  157.3723 C   0  0  0  0  0  0  0  0  0  0  0  0
  150.8399  139.3897  157.7258 O   0  0  0  0  0  0  0  0  0  0  0  0
  152.3825  139.5931  155.8836 C   0  0  1  0  0  0  0  0  0  0  0  0
  152.2089  138.1818  155.2734 C   0  0  0  0  0  0  0  0  0  0  0  0
  150.7743  137.8363  155.1314 N   0  3  2  0  0  0  0  0  0  0  0  0
  150.5637  136.4661  154.6196 C   0  0  0  0  0  0  0  0  0  0  0  0
  150.0616  138.8610  154.3357 C   0  0  0  0  0  0  0  0  0  0  0  0
  150.2594  140.2531  154.9570 C   0  0  0  0  0  0  0  0  0  0  0  0
  151.6542  140.5295  155.0790 O   0  0  0  0  0  0  0  0  0  0  0  0
  153.1028  141.0252  160.3533 C   0  0  0  0  0  0  0  0  0  0  0  0
  152.8652  142.8471  163.2617 H   0  0  0  0  0  0  0  0  0  0  0  0
  154.2736  141.8559  162.8636 H   0  0  0  0  0  0  0  0  0  0  0  0
  152.6959  141.0955  163.1101 H   0  0  0  0  0  0  0  0  0  0  0  0
  152.2632  144.1855  161.3318 H   0  0  0  0  0  0  0  0  0  0  0  0
  152.0349  145.5431  159.2188 H   0  0  0  0  0  0  0  0  0  0  0  0
  150.5739  144.6885  158.7074 H   0  0  0  0  0  0  0  0  0  0  0  0
  151.9843  144.7509  157.6423 H   0  0  0  0  0  0  0  0  0  0  0  0
  153.4379  139.8621  155.8201 H   0  0  0  0  0  0  0  0  0  0  0  0
  152.6874  138.1453  154.2934 H   0  0  0  0  0  0  0  0  0  0  0  0
  152.7115  137.4355  155.8907 H   0  0  0  0  0  0  0  0  0  0  0  0
  150.9737  136.3562  153.6147 H   0  0  0  0  0  0  0  0  0  0  0  0
  149.4999  136.2299  154.5837 H   0  0  0  0  0  0  0  0  0  0  0  0
  151.0454  135.7353  155.2700 H   0  0  0  0  0  0  0  0  0  0  0  0
  150.4342  138.8527  153.3102 H   0  0  0  0  0  0  0  0  0  0  0  0
  148.9981  138.6227  154.2931 H   0  0  0  0  0  0  0  0  0  0  0  0
  149.8089  141.0131  154.3185 H   0  0  0  0  0  0  0  0  0  0  0  0
  149.7558  140.3241  155.9220 H   0  0  0  0  0  0  0  0  0  0  0  0
  153.4687  140.0834  160.7366 H   0  0  0  0  0  0  0  0  0  0  0  0
  150.3815  137.8647  156.0623 H   0  0  0  0  0  0  0  0  0  0  0  0
  1  2  1  0  0  0  0
  1 19  1  0  0  0  0
  1 20  1  0  0  0  0
  1 21  1  0  0  0  0
  2 18  2  0  0  0  0
  2  3  1  0  0  0  0
  3  4  2  0  0  0  0
  3 22  1  0  0  0  0
  4  5  1  0  0  0  0
  4  6  1  0  0  0  0
  5 23  1  0  0  0  0
  5 24  1  0  0  0  0
  5 25  1  0  0  0  0
  6  7  2  0  0  0  0
  7  8  1  0  0  0  0
  7 18  1  0  0  0  0
  8  9  1  0  0  0  0
  9 10  2  0  0  0  0
  9 11  1  0  0  0  0
 11 17  1  0  0  0  0
 11 12  1  0  0  0  0
 11 26  1  0  0  0  0
 12 13  1  0  0  0  0
 12 27  1  0  0  0  0
 12 28  1  0  0  0  0
 13 14  1  0  0  0  0
 13 15  1  0  0  0  0
 13 37  1  0  0  0  0
 14 29  1  0  0  0  0
 14 30  1  0  0  0  0
 14 31  1  0  0  0  0
 15 16  1  0  0  0  0
 15 32  1  0  0  0  0
 15 33  1  0  0  0  0
 16 17  1  0  0  0  0
 16 34  1  0  0  0  0
 16 35  1  0  0  0  0
 18 36  1  0  0  0  0
M  CHG  1   8  -1
M  CHG  1  13   1
M  END
> <s_m_source_file>
AV-unprocessed.smi

> <i_m_source_file_index>
3314

> <i_lp_mmshare_version>
43012

> <i_f3d_flags>
0

> <s_epik_input>
W0NIM11jMVtjSF1jKFtDSDNdKW5jKFtjSF0xKVtOSF1DKD1PKVtDQEBIXTJbQ0gyXU4oW0NIM10pW0NIMl1bQ0gyXU8y

> <s_epik_cmdline>
J2VwaWtfcHl0aG9uJywgJy1waCcsICc3LjAnLCAnLXRuJywgJzgnLCAnLW1hJywgJzIwMCcsICctbWV0YWxfYmluZGluZycsICctaW1hZScsICc8aW5maWxlLm1hZT4nLCAnLW9tYWUnLCAnPG91dGZpbGUubWFlPic=

> <r_epik_Ionization_Penalty>
13.8964

> <r_epik_Ionization_Penalty_Charging>
7.88995

> <r_epik_Ionization_Penalty_Neutral>
6.00641

> <r_epik_State_Penalty>
8.39989

> <r_epik_Charging_Adjusted_Penalty>
16.2898

> <i_epik_Tot_Q>
0

> <i_epik_Tot_abs_Q>
2

> <r_epik_Metal_State_Penalty>
4.31145

> <b_epik_Metal_Only>
1

> <s_lp_Force_Field>
OPLS_2005

> <r_lp_Energy>
7.08315

> <b_lp_Chiralities_Consistent>
1

> <s_lp_Variant>
AV-unprocessed.smi:3314-14

> <Gold.Version>
5.8.1

> <Gold.Id.Protein>
6NUR|6NUR_protein|mol2

> <Gold.PLP.Fitness>
47.0142

> <Gold.PLP.PLP>
-39.9938

> <Gold.PLP.part.hbond>
-2.0000

> <Gold.PLP.part.metal>
0.0000

> <Gold.PLP.part.buried>
-3.1031

> <Gold.PLP.part.nonpolar>
-34.6538

> <Gold.PLP.part.repulsive>
0.0879

> <Gold.PLP.ligand.clash>
0.0000

> <Gold.PLP.ligand.torsion>
1.0152

> <Gold.PLP.Chemscore.Hbond>
3.0000

> <Gold.PLP.Chemscore.CHOScore>
0.0000

> <Gold.PLP.Chemscore.Metal>
0.0000

> <Gold.Chemscore.Hbonds>
donor molecule, donor type, donor heavy atom, donor atom, acceptor molecule, acceptor atom, score
      P1  H  7989  7998       L1    17  0.32
      P1  H  7997  8009       L1     8  2.00

> <Gold.PLP.Chemscore.Internal.Correction>
0.0508

> <Gold.Rescore>
     Score         DG    S(hbond)    S(metal)    S(lipo)     H(rot)  DE(clash)    DE(int)     intcor
     18.05     -20.31       1.79        0.00      97.60       1.00       0.03       2.22       ----

> <Gold.Chemscore.Fitness>
18.0547

> <Gold.Chemscore.DG>
-20.3089

> <Gold.Chemscore.ZeroCoef>
-5.4800

> <Gold.Chemscore.Hbond>
1.7871

> <Gold.Chemscore.Metal>
0.0000

> <Gold.Chemscore.Lipo>
97.6050

> <Gold.Chemscore.Internal_Hbond>
0.0000

> <Gold.Chemscore.DEClash>
0.0339

> <Gold.Chemscore.DEInternal>
2.2203

> <Gold.Chemscore.Rot>
1.0000

> <Gold.Chemscore.Internal.Correction>
   9.000000E+99

> <Gold.Chemscore.Hbonds>
donor molecule, donor type, donor heavy atom, donor atom, acceptor molecule, acceptor atom, score
      P1  H  7989  7998       L1    17  0.01
      P1  H  7997  8009       L1     8  0.37

> <Gold.Chemscore.Hbond.Weighted>
-5.9691

> <Gold.Chemscore.Metal.Weighted>
-0.0000

> <Gold.Chemscore.Lipo.Weighted>
-11.4198

> <Gold.Chemscore.Internal_Hbond.Weighted>
0.0000

> <Gold.Chemscore.DEClash.Weighted>
0.0339

> <Gold.Chemscore.DEInternal.Weighted>
2.2203

> <Gold.Chemscore.Rot.Weighted>
2.5600

> <Gold.Chemscore.Internal.Correction.Weighted>
   9.000000E+99

> <Gold.Protein.RotatedTorsions>
[ 6907 6896 6895 6894 ] final  132.50 input  -60.11 | X-H torsion
[ 7974 7965 7964 7962 ] final  -47.66 input  175.53 | X-H torsion
[ 8008 7997 7996 7995 ] final  162.05 input   59.86 | X-H torsion
[ 10167 10162 10161 10158 ] final  -69.22 input  -65.29 | X-H torsion
[ 10718 10713 10712 10709 ] final  165.36 input   66.30 | X-H torsion
[ 10763 10752 10751 10750 ] final -124.01 input  -60.55 | X-H torsion
[ 11005 11000 10999 10996 ] final   29.23 input  -57.11 | X-H torsion

> <Gold.Protein.ActiveResidues>
 VAL166  LYS551  ARG553  GLY616  TRP617  ASP618  TYR619  PRO620  LYS621  CYS622 
 ASP623  PHE694  ASN695  SER759  ASP760  ASP761  ALA762  ILE779  LEU786  VAL792 
 PHE793  MET794  SER795  GLU796  ALA797  LYS798  CYS799  TRP800  GLU811  SER814 

> <Gold.Protein.RotatedAtoms>
  152.3317  133.5966  159.5813 H   0  0  0  0  0  0  0  0  0  0  0  0  # atno 6907 bound_to 6896
  150.7427  133.9858  159.3600 H   0  0  0  0  0  0  0  0  0  0  0  0  # atno 6908 bound_to 6896
  151.7732  135.0781  160.0414 H   0  0  0  0  0  0  0  0  0  0  0  0  # atno 6909 bound_to 6896
  145.9593  140.7495  142.9465 H   0  0  0  0  0  0  0  0  0  0  0  0  # atno 7974 bound_to 7965
  156.2059  140.1761  156.7800 H   0  0  0  0  0  0  0  0  0  0  0  0  # atno 8008 bound_to 7997
  154.5655  140.0692  156.8915 H   0  0  0  0  0  0  0  0  0  0  0  0  # atno 8009 bound_to 7997
  155.2769  140.3346  155.4263 H   0  0  0  0  0  0  0  0  0  0  0  0  # atno 8010 bound_to 7997
  140.5448  143.2313  151.7023 H   0  0  0  0  0  0  0  0  0  0  0  0  # atno 10167 bound_to 10162
  157.0813  131.0393  151.2574 H   0  0  0  0  0  0  0  0  0  0  0  0  # atno 10718 bound_to 10713
  154.8717  135.4078  154.3037 H   0  0  0  0  0  0  0  0  0  0  0  0  # atno 10763 bound_to 10752
  153.3892  135.7014  153.6513 H   0  0  0  0  0  0  0  0  0  0  0  0  # atno 10764 bound_to 10752
  153.5302  135.3669  155.2644 H   0  0  0  0  0  0  0  0  0  0  0  0  # atno 10765 bound_to 10752
  140.3072  134.2690  155.7741 H   0  0  0  0  0  0  0  0  0  0  0  0  # atno 11005 bound_to 11000
  144.6811  140.2564  143.7325 LP  0  0  0  0  0  0  0  0  0  0  0  0  # atno 17320 bound_to 7965
  145.8062  139.1984  143.2019 LP  0  0  0  0  0  0  0  0  0  0  0  0  # atno 17321 bound_to 7965
  139.5003  144.3913  152.0277 LP  0  0  0  0  0  0  0  0  0  0  0  0  # atno 17342 bound_to 10162
  140.3024  144.3631  150.6056 LP  0  0  0  0  0  0  0  0  0  0  0  0  # atno 17343 bound_to 10162
  157.4798  130.7758  149.7403 LP  0  0  0  0  0  0  0  0  0  0  0  0  # atno 17370 bound_to 10713
  155.9923  130.3932  150.2948 LP  0  0  0  0  0  0  0  0  0  0  0  0  # atno 17371 bound_to 10713
  141.2116  133.7684  156.9854 LP  0  0  0  0  0  0  0  0  0  0  0  0  # atno 17394 bound_to 11000
  140.1057  134.9508  157.1990 LP  0  0  0  0  0  0  0  0  0  0  0  0  # atno 17395 bound_to 11000

$$$$
