AV-unprocessed.smi:177|AV-procd|sdf|1438|dock1
  -GOLD-   2262019223D 1   1.00000     0.00000
 Structure written by MMmdl.
 61 65  0  0  0  0  0  0  0  0  1 V2000
  156.3954  140.0937  160.3804 C   0  0  0  0  0  0  0  0  0  0  0  0
  155.2638  139.8914  159.5480 O   0  0  0  0  0  0  0  0  0  0  0  0
  154.0511  139.6224  160.2445 C   0  0  1  0  0  0  0  0  0  0  0  0
  153.7357  140.8464  161.1240 C   0  0  0  0  0  0  0  0  0  0  0  0
  153.3490  142.0749  160.2833 C   0  0  0  0  0  0  0  0  0  0  0  0
  152.1861  141.7467  159.3354 C   0  0  1  0  0  0  0  0  0  0  0  0
  151.8771  142.8970  158.5565 O   0  0  0  0  0  0  0  0  0  0  0  0
  150.7415  142.6787  157.7277 C   0  0  0  0  0  0  0  0  0  0  0  0
  151.0398  141.5356  156.7461 C   0  0  0  0  0  0  0  0  0  0  0  0
  151.4486  140.3304  157.4623 N   0  0  0  0  0  0  0  0  0  0  0  0
  151.5701  139.2961  156.5958 C   0  0  0  0  0  0  0  0  0  0  0  0
  152.5858  139.2677  155.6917 N   0  0  0  0  0  0  0  0  0  0  0  0
  152.6797  138.2569  154.8227 C   0  0  0  0  0  0  0  0  0  0  0  0
  151.8741  137.2025  154.6790 N   0  0  0  0  0  0  0  0  0  0  0  0
  150.8463  137.2357  155.5752 C   0  0  0  0  0  0  0  0  0  0  0  0
  150.6264  138.2355  156.5631 C   0  0  0  0  0  0  0  0  0  0  0  0
  149.4923  137.9337  157.3046 N   0  0  0  0  0  0  0  0  0  0  0  0
  149.0645  136.8163  156.7839 C   0  0  0  0  0  0  0  0  0  0  0  0
  149.8027  136.3376  155.7231 N   0  0  0  0  0  0  0  0  0  0  0  0
  149.5433  135.1266  154.9560 C   0  0  0  0  0  0  0  0  0  0  0  0
  149.4662  133.8152  155.8019 C   0  0  0  0  0  0  0  0  0  0  0  0
  150.6417  133.7330  156.8124 C   0  0  0  0  0  0  0  0  0  0  0  0
  150.4672  132.6922  157.7531 O   0  0  0  0  0  0  0  0  0  0  0  0
  148.1472  133.7294  156.6109 C   0  0  0  0  0  0  0  0  0  0  0  0
  146.9151  133.4880  155.7203 C   0  0  0  0  0  0  0  0  0  0  0  0
  147.0962  132.3013  154.9593 O   0  0  0  0  0  0  0  0  0  0  0  0
  148.2053  132.3819  154.0736 C   0  0  0  0  0  0  0  0  0  0  0  0
  149.5065  132.5748  154.8739 C   0  0  0  0  0  0  0  0  0  0  0  0
  152.5492  140.5664  158.4037 C   0  0  2  0  0  0  0  0  0  0  0  0
  152.8853  139.3308  159.2738 C   0  0  0  0  0  0  0  0  0  0  0  0
  157.2493  140.3738  159.7640 H   0  0  0  0  0  0  0  0  0  0  0  0
  156.6680  139.1900  160.9243 H   0  0  0  0  0  0  0  0  0  0  0  0
  156.2239  140.8983  161.0962 H   0  0  0  0  0  0  0  0  0  0  0  0
  154.2019  138.7642  160.9015 H   0  0  0  0  0  0  0  0  0  0  0  0
  152.9134  140.6020  161.7977 H   0  0  0  0  0  0  0  0  0  0  0  0
  154.5908  141.0817  161.7584 H   0  0  0  0  0  0  0  0  0  0  0  0
  153.0720  142.8995  160.9407 H   0  0  0  0  0  0  0  0  0  0  0  0
  154.2104  142.4145  159.7066 H   0  0  0  0  0  0  0  0  0  0  0  0
  151.3131  141.4874  159.9382 H   0  0  0  0  0  0  0  0  0  0  0  0
  149.8660  142.4510  158.3376 H   0  0  0  0  0  0  0  0  0  0  0  0
  150.5190  143.5949  157.1809 H   0  0  0  0  0  0  0  0  0  0  0  0
  150.1549  141.3362  156.1398 H   0  0  0  0  0  0  0  0  0  0  0  0
  151.8353  141.8352  156.0621 H   0  0  0  0  0  0  0  0  0  0  0  0
  153.5171  138.3018  154.1422 H   0  0  0  0  0  0  0  0  0  0  0  0
  148.1848  136.3120  157.1565 H   0  0  0  0  0  0  0  0  0  0  0  0
  148.6259  135.2849  154.3907 H   0  0  0  0  0  0  0  0  0  0  0  0
  150.3285  135.0395  154.2038 H   0  0  0  0  0  0  0  0  0  0  0  0
  151.5924  133.5878  156.2996 H   0  0  0  0  0  0  0  0  0  0  0  0
  150.7397  134.6683  157.3648 H   0  0  0  0  0  0  0  0  0  0  0  0
  149.8829  132.0485  157.3826 H   0  0  0  0  0  0  0  0  0  0  0  0
  148.2105  132.9013  157.3184 H   0  0  0  0  0  0  0  0  0  0  0  0
  148.0019  134.6211  157.2200 H   0  0  0  0  0  0  0  0  0  0  0  0
  146.0269  133.3707  156.3410 H   0  0  0  0  0  0  0  0  0  0  0  0
  146.7223  134.3315  155.0579 H   0  0  0  0  0  0  0  0  0  0  0  0
  148.2581  131.4561  153.5003 H   0  0  0  0  0  0  0  0  0  0  0  0
  148.0546  133.1851  153.3520 H   0  0  0  0  0  0  0  0  0  0  0  0
  150.3519  132.6366  154.1880 H   0  0  0  0  0  0  0  0  0  0  0  0
  149.6692  131.6774  155.4724 H   0  0  0  0  0  0  0  0  0  0  0  0
  153.4328  140.8438  157.8263 H   0  0  0  0  0  0  0  0  0  0  0  0
  153.1200  138.4607  158.6636 H   0  0  0  0  0  0  0  0  0  0  0  0
  152.0031  139.0488  159.8504 H   0  0  0  0  0  0  0  0  0  0  0  0
  1  2  1  0  0  0  0
  1 31  1  0  0  0  0
  1 32  1  0  0  0  0
  1 33  1  0  0  0  0
  2  3  1  0  0  0  0
  3 30  1  0  0  0  0
  3  4  1  0  0  0  0
  3 34  1  0  0  0  0
  4  5  1  0  0  0  0
  4 35  1  0  0  0  0
  4 36  1  0  0  0  0
  5  6  1  0  0  0  0
  5 37  1  0  0  0  0
  5 38  1  0  0  0  0
  6 29  1  0  0  0  0
  6  7  1  0  0  0  0
  6 39  1  0  0  0  0
  7  8  1  0  0  0  0
  8  9  1  0  0  0  0
  8 40  1  0  0  0  0
  8 41  1  0  0  0  0
  9 10  1  0  0  0  0
  9 42  1  0  0  0  0
  9 43  1  0  0  0  0
 10 11  1  0  0  0  0
 10 29  1  0  0  0  0
 11 16  1  0  0  0  0
 11 12  2  0  0  0  0
 12 13  1  0  0  0  0
 13 14  2  0  0  0  0
 13 44  1  0  0  0  0
 14 15  1  0  0  0  0
 15 19  1  0  0  0  0
 15 16  2  0  0  0  0
 16 17  1  0  0  0  0
 17 18  2  0  0  0  0
 18 19  1  0  0  0  0
 18 45  1  0  0  0  0
 19 20  1  0  0  0  0
 20 21  1  0  0  0  0
 20 46  1  0  0  0  0
 20 47  1  0  0  0  0
 21 28  1  0  0  0  0
 21 22  1  0  0  0  0
 21 24  1  0  0  0  0
 22 23  1  0  0  0  0
 22 48  1  0  0  0  0
 22 49  1  0  0  0  0
 23 50  1  0  0  0  0
 24 25  1  0  0  0  0
 24 51  1  0  0  0  0
 24 52  1  0  0  0  0
 25 26  1  0  0  0  0
 25 53  1  0  0  0  0
 25 54  1  0  0  0  0
 26 27  1  0  0  0  0
 27 28  1  0  0  0  0
 27 55  1  0  0  0  0
 27 56  1  0  0  0  0
 28 57  1  0  0  0  0
 28 58  1  0  0  0  0
 29 30  1  0  0  0  0
 29 59  1  0  0  0  0
 30 60  1  0  0  0  0
 30 61  1  0  0  0  0
M  END
> <s_m_source_file>
AV-unprocessed.smi

> <i_m_source_file_index>
177

> <i_lp_mmshare_version>
43012

> <i_f3d_flags>
0

> <s_epik_input>
W0NIM11PW0NASF0oW0NIMl1bQ0gyXTEpW0NIMl1bQ0BIXShbQ0BASF0xMilOKFtDSDJdW0NIMl1PMiljKG5bY0hdbjMpYyhjMzQpbltjSF1uNFtDSDJdQzUoW0NIMl1bT0hdKVtDSDJdW0NIMl1PW0NIMl1bQ0gyXTU=

> <s_epik_cmdline>
J2VwaWtfcHl0aG9uJywgJy1waCcsICc3LjAnLCAnLXRuJywgJzgnLCAnLW1hJywgJzIwMCcsICctbWV0YWxfYmluZGluZycsICctaW1hZScsICc8aW5maWxlLm1hZT4nLCAnLW9tYWUnLCAnPG91dGZpbGUubWFlPic=

> <r_lp_tautomer_probability>
1

> <r_epik_Ionization_Penalty>
0.0065899

> <r_epik_Ionization_Penalty_Charging>
0

> <r_epik_Ionization_Penalty_Neutral>
0.0065899

> <r_epik_State_Penalty>
0.00470042

> <r_epik_Charging_Adjusted_Penalty>
0.00470042

> <i_epik_Tot_Q>
0

> <i_epik_Tot_abs_Q>
0

> <r_epik_Metal_State_Penalty>
-0

> <b_epik_Metal_Only>
0

> <s_lp_Force_Field>
OPLS_2005

> <r_lp_Energy>
42.9311

> <b_lp_Chiralities_Consistent>
1

> <s_lp_Variant>
AV-unprocessed.smi:177-2

> <Gold.Version>
5.8.1

> <Gold.Id.Protein>
6NUR|6NUR_protein|mol2

> <Gold.PLP.Fitness>
55.5442

> <Gold.PLP.PLP>
-44.3192

> <Gold.PLP.part.hbond>
-4.0000

> <Gold.PLP.part.metal>
0.0000

> <Gold.PLP.part.buried>
-6.5187

> <Gold.PLP.part.nonpolar>
-35.6034

> <Gold.PLP.part.repulsive>
0.1826

> <Gold.PLP.ligand.clash>
0.0000

> <Gold.PLP.ligand.torsion>
0.3628

> <Gold.PLP.Chemscore.Hbond>
3.9120

> <Gold.PLP.Chemscore.CHOScore>
0.0000

> <Gold.PLP.Chemscore.Metal>
0.0000

> <Gold.Chemscore.Hbonds>
donor molecule, donor type, donor heavy atom, donor atom, acceptor molecule, acceptor atom, score
      P1  H  6896  6908       L1    23  0.98
      P1  H  7997  8008       L1    12  0.83
      P1  H  7997  8010       L1     2  0.62
      P1  H 10752 10763       L1    14  0.94

> <Gold.PLP.Chemscore.Internal.Correction>
0.2145

> <Gold.Rescore>
     Score         DG    S(hbond)    S(metal)    S(lipo)     H(rot)  DE(clash)    DE(int)     intcor
     20.90     -21.75       3.11        0.00     106.60       2.58       0.15       0.70       ----

> <Gold.Chemscore.Fitness>
20.9005

> <Gold.Chemscore.DG>
-21.7485

> <Gold.Chemscore.ZeroCoef>
-5.4800

> <Gold.Chemscore.Hbond>
3.1145

> <Gold.Chemscore.Metal>
0.0000

> <Gold.Chemscore.Lipo>
106.6016

> <Gold.Chemscore.Internal_Hbond>
0.0000

> <Gold.Chemscore.DEClash>
0.1463

> <Gold.Chemscore.DEInternal>
0.7017

> <Gold.Chemscore.Rot>
2.5806

> <Gold.Chemscore.Internal.Correction>
   9.000000E+99

> <Gold.Chemscore.Hbonds>
donor molecule, donor type, donor heavy atom, donor atom, acceptor molecule, acceptor atom, score
      P1  H  6896  6908       L1    23  0.32
      P1  H  7997  8008       L1    12  0.56
      P1  H  7997  8010       L1     2  0.60
      P1  H 10752 10763       L1    14  0.59

> <Gold.Chemscore.Hbond.Weighted>
-10.4023

> <Gold.Chemscore.Metal.Weighted>
-0.0000

> <Gold.Chemscore.Lipo.Weighted>
-12.4724

> <Gold.Chemscore.Internal_Hbond.Weighted>
0.0000

> <Gold.Chemscore.DEClash.Weighted>
0.1463

> <Gold.Chemscore.DEInternal.Weighted>
0.7017

> <Gold.Chemscore.Rot.Weighted>
6.6062

> <Gold.Chemscore.Internal.Correction.Weighted>
   9.000000E+99

> <Gold.Protein.RotatedTorsions>
[ 6907 6896 6895 6894 ] final   74.41 input  -60.11 | X-H torsion
[ 7974 7965 7964 7962 ] final -105.64 input  175.53 | X-H torsion
[ 8008 7997 7996 7995 ] final  -14.33 input   59.86 | X-H torsion
[ 10167 10162 10161 10158 ] final   85.73 input  -65.29 | X-H torsion
[ 10718 10713 10712 10709 ] final -101.40 input   66.30 | X-H torsion
[ 10763 10752 10751 10750 ] final   38.79 input  -60.55 | X-H torsion
[ 11005 11000 10999 10996 ] final -175.00 input  -57.11 | X-H torsion

> <Gold.Protein.ActiveResidues>
 VAL166  LYS551  ARG553  GLY616  TRP617  ASP618  TYR619  PRO620  LYS621  CYS622 
 ASP623  PHE694  ASN695  SER759  ASP760  ASP761  ALA762  ILE779  LEU786  VAL792 
 PHE793  MET794  SER795  GLU796  ALA797  LYS798  CYS799  TRP800  GLU811  SER814 

> <Gold.Protein.RotatedAtoms>
  152.4974  134.4275  159.9500 H   0  0  0  0  0  0  0  0  0  0  0  0  # atno 6907 bound_to 6896
  151.4251  133.3680  159.2769 H   0  0  0  0  0  0  0  0  0  0  0  0  # atno 6908 bound_to 6896
  150.9195  134.8635  159.7539 H   0  0  0  0  0  0  0  0  0  0  0  0  # atno 6909 bound_to 6896
  145.2279  140.9159  143.3221 H   0  0  0  0  0  0  0  0  0  0  0  0  # atno 7974 bound_to 7965
  154.5219  140.2226  155.8961 H   0  0  0  0  0  0  0  0  0  0  0  0  # atno 8008 bound_to 7997
  156.1671  140.3130  155.8872 H   0  0  0  0  0  0  0  0  0  0  0  0  # atno 8009 bound_to 7997
  155.3635  140.0462  157.3037 H   0  0  0  0  0  0  0  0  0  0  0  0  # atno 8010 bound_to 7997
  139.8947  144.6365  150.8701 H   0  0  0  0  0  0  0  0  0  0  0  0  # atno 10167 bound_to 10162
  156.0193  130.5372  150.6957 H   0  0  0  0  0  0  0  0  0  0  0  0  # atno 10718 bound_to 10713
  152.9989  135.6239  154.2362 H   0  0  0  0  0  0  0  0  0  0  0  0  # atno 10763 bound_to 10752
  154.2103  135.2800  155.2962 H   0  0  0  0  0  0  0  0  0  0  0  0  # atno 10764 bound_to 10752
  154.5612  135.5704  153.7068 H   0  0  0  0  0  0  0  0  0  0  0  0  # atno 10765 bound_to 10752
  140.4682  134.6190  157.4871 H   0  0  0  0  0  0  0  0  0  0  0  0  # atno 11005 bound_to 11000
  144.9704  139.3886  143.6312 LP  0  0  0  0  0  0  0  0  0  0  0  0  # atno 17320 bound_to 7965
  146.3360  139.8798  142.8826 LP  0  0  0  0  0  0  0  0  0  0  0  0  # atno 17321 bound_to 7965
  140.7719  143.3483  151.2067 LP  0  0  0  0  0  0  0  0  0  0  0  0  # atno 17342 bound_to 10162
  139.7078  143.9426  152.2934 LP  0  0  0  0  0  0  0  0  0  0  0  0  # atno 17343 bound_to 10162
  157.4629  131.0885  151.0726 LP  0  0  0  0  0  0  0  0  0  0  0  0  # atno 17370 bound_to 10713
  157.1209  130.6061  149.5505 LP  0  0  0  0  0  0  0  0  0  0  0  0  # atno 17371 bound_to 10713
  139.9902  134.6998  155.9704 LP  0  0  0  0  0  0  0  0  0  0  0  0  # atno 17394 bound_to 11000
  141.1589  133.6540  156.4253 LP  0  0  0  0  0  0  0  0  0  0  0  0  # atno 17395 bound_to 11000

$$$$
