AV-unprocessed.smi:229|AV-procd|sdf|1762|dock9
  -GOLD-   2262020293D 1   1.00000     0.00000
 Structure written by MMmdl.
 58 62  0  0  0  0  0  0  0  0  1 V2000
  155.2055  139.8487  160.7742 C   0  0  0  0  0  0  0  0  0  0  0  0
  153.9972  140.7317  161.1096 C   0  0  0  0  0  0  0  0  0  0  0  0
  153.4370  141.4666  159.8829 C   0  0  1  0  0  0  0  0  0  0  0  0
  152.8040  140.4967  158.8718 C   0  0  0  0  0  0  0  0  0  0  0  0
  152.2208  141.2535  157.7739 N   0  0  0  0  0  0  0  0  0  0  0  0
  151.8176  140.5241  156.7128 C   0  0  0  0  0  0  0  0  0  0  0  0
  152.6681  139.5664  156.2692 N   0  0  0  0  0  0  0  0  0  0  0  0
  152.3344  138.8105  155.2184 C   0  0  0  0  0  0  0  0  0  0  0  0
  151.2236  138.8515  154.4790 N   0  0  0  0  0  0  0  0  0  0  0  0
  150.3720  139.8221  154.9182 C   0  0  0  0  0  0  0  0  0  0  0  0
  150.5872  140.6996  156.0180 C   0  0  0  0  0  0  0  0  0  0  0  0
  149.5043  141.5607  156.1539 N   0  0  0  0  0  0  0  0  0  0  0  0
  148.6923  141.2071  155.1949 C   0  0  0  0  0  0  0  0  0  0  0  0
  149.1339  140.1675  154.4082 N   0  0  0  0  0  0  0  0  0  0  0  0
  148.4427  139.5718  153.2779 C   0  0  0  0  0  0  0  0  0  0  0  0
  147.2362  138.7099  153.7089 C   0  0  1  0  0  0  0  0  0  0  0  0
  146.7784  137.9979  152.5751 O   0  0  0  0  0  0  0  0  0  0  0  0
  147.5870  137.6811  154.8026 C   0  0  1  0  0  0  0  0  0  0  0  0
  147.9753  138.2866  156.1528 C   0  0  0  0  0  0  0  0  0  0  0  0
  147.6767  137.1719  157.1409 C   0  0  0  0  0  0  0  0  0  0  0  0
  146.6969  136.2693  156.3876 C   0  0  0  0  0  0  0  0  0  0  0  0
  146.4283  136.9446  155.1661 O   0  0  0  0  0  0  0  0  0  0  0  0
  151.2263  142.2161  158.2233 C   0  0  0  0  0  0  0  0  0  0  0  0
  151.8263  143.1634  159.2893 C   0  0  2  0  0  0  0  0  0  0  0  0
  150.7418  144.0237  159.9312 C   0  0  0  0  0  0  0  0  0  0  0  0
  150.8180  145.3270  159.1508 C   0  0  0  0  0  0  0  0  0  0  0  0
  152.2130  145.4968  158.9857 O   0  0  0  0  0  0  0  0  0  0  0  0
  152.7797  144.2253  158.6917 C   0  0  0  0  0  0  0  0  0  0  0  0
  152.4395  142.3902  160.3266 O   0  0  0  0  0  0  0  0  0  0  0  0
  155.5703  139.3357  161.6643 H   0  0  0  0  0  0  0  0  0  0  0  0
  156.0287  140.4393  160.3712 H   0  0  0  0  0  0  0  0  0  0  0  0
  154.9456  139.0893  160.0360 H   0  0  0  0  0  0  0  0  0  0  0  0
  153.2167  140.1058  161.5437 H   0  0  0  0  0  0  0  0  0  0  0  0
  154.2738  141.4543  161.8784 H   0  0  0  0  0  0  0  0  0  0  0  0
  154.2542  141.9997  159.3964 H   0  0  0  0  0  0  0  0  0  0  0  0
  153.5561  139.8061  158.4874 H   0  0  0  0  0  0  0  0  0  0  0  0
  152.0368  139.9013  159.3672 H   0  0  0  0  0  0  0  0  0  0  0  0
  153.0618  138.0669  154.9282 H   0  0  0  0  0  0  0  0  0  0  0  0
  147.7420  141.6961  155.0360 H   0  0  0  0  0  0  0  0  0  0  0  0
  148.1208  140.3681  152.6051 H   0  0  0  0  0  0  0  0  0  0  0  0
  149.1677  138.9723  152.7271 H   0  0  0  0  0  0  0  0  0  0  0  0
  146.4348  139.3600  154.0627 H   0  0  0  0  0  0  0  0  0  0  0  0
  147.4769  137.4382  152.2719 H   0  0  0  0  0  0  0  0  0  0  0  0
  148.3705  136.9990  154.4657 H   0  0  0  0  0  0  0  0  0  0  0  0
  149.0148  138.6139  156.1890 H   0  0  0  0  0  0  0  0  0  0  0  0
  147.3422  139.1472  156.3733 H   0  0  0  0  0  0  0  0  0  0  0  0
  148.5818  136.6196  157.3957 H   0  0  0  0  0  0  0  0  0  0  0  0
  147.2493  137.5634  158.0647 H   0  0  0  0  0  0  0  0  0  0  0  0
  147.1521  135.3011  156.1742 H   0  0  0  0  0  0  0  0  0  0  0  0
  145.7752  136.0974  156.9443 H   0  0  0  0  0  0  0  0  0  0  0  0
  150.8433  142.7877  157.3764 H   0  0  0  0  0  0  0  0  0  0  0  0
  150.3812  141.6697  158.6448 H   0  0  0  0  0  0  0  0  0  0  0  0
  149.7497  143.5717  159.9084 H   0  0  0  0  0  0  0  0  0  0  0  0
  150.9886  144.2224  160.9753 H   0  0  0  0  0  0  0  0  0  0  0  0
  150.3369  145.2333  158.1760 H   0  0  0  0  0  0  0  0  0  0  0  0
  150.3688  146.1663  159.6822 H   0  0  0  0  0  0  0  0  0  0  0  0
  153.7842  144.1834  159.1117 H   0  0  0  0  0  0  0  0  0  0  0  0
  152.8690  144.1160  157.6101 H   0  0  0  0  0  0  0  0  0  0  0  0
  1  2  1  0  0  0  0
  1 30  1  0  0  0  0
  1 31  1  0  0  0  0
  1 32  1  0  0  0  0
  2  3  1  0  0  0  0
  2 33  1  0  0  0  0
  2 34  1  0  0  0  0
  3 29  1  0  0  0  0
  3  4  1  0  0  0  0
  3 35  1  0  0  0  0
  4  5  1  0  0  0  0
  4 36  1  0  0  0  0
  4 37  1  0  0  0  0
  5  6  1  0  0  0  0
  5 23  1  0  0  0  0
  6 11  1  0  0  0  0
  6  7  2  0  0  0  0
  7  8  1  0  0  0  0
  8  9  2  0  0  0  0
  8 38  1  0  0  0  0
  9 10  1  0  0  0  0
 10 14  1  0  0  0  0
 10 11  2  0  0  0  0
 11 12  1  0  0  0  0
 12 13  2  0  0  0  0
 13 14  1  0  0  0  0
 13 39  1  0  0  0  0
 14 15  1  0  0  0  0
 15 16  1  0  0  0  0
 15 40  1  0  0  0  0
 15 41  1  0  0  0  0
 16 17  1  0  0  0  0
 16 18  1  0  0  0  0
 16 42  1  0  0  0  0
 17 43  1  0  0  0  0
 18 22  1  0  0  0  0
 18 19  1  0  0  0  0
 18 44  1  0  0  0  0
 19 20  1  0  0  0  0
 19 45  1  0  0  0  0
 19 46  1  0  0  0  0
 20 21  1  0  0  0  0
 20 47  1  0  0  0  0
 20 48  1  0  0  0  0
 21 22  1  0  0  0  0
 21 49  1  0  0  0  0
 21 50  1  0  0  0  0
 23 24  1  0  0  0  0
 23 51  1  0  0  0  0
 23 52  1  0  0  0  0
 24 28  1  0  0  0  0
 24 25  1  0  0  0  0
 24 29  1  0  0  0  0
 25 26  1  0  0  0  0
 25 53  1  0  0  0  0
 25 54  1  0  0  0  0
 26 27  1  0  0  0  0
 26 55  1  0  0  0  0
 26 56  1  0  0  0  0
 27 28  1  0  0  0  0
 28 57  1  0  0  0  0
 28 58  1  0  0  0  0
M  END
> <s_m_source_file>
AV-unprocessed.smi

> <i_m_source_file_index>
229

> <i_lp_mmshare_version>
43012

> <i_f3d_flags>
0

> <s_epik_input>
W0NIMl0xT1tDSDJdW0NIMl1bQ0BdMTJbQ0gyXU4oW0NIMl1bQ0BIXShPMilbQ0gyXVtDSDNdKWMobltjSF1uMyljKGMzNCluW2NIXW40W0NIMl1bQ0BIXShbT0hdKVtDQEBIXTVbQ0gyXVtDSDJdW0NIMl1PNQ==

> <s_epik_cmdline>
J2VwaWtfcHl0aG9uJywgJy1waCcsICc3LjAnLCAnLXRuJywgJzgnLCAnLW1hJywgJzIwMCcsICctbWV0YWxfYmluZGluZycsICctaW1hZScsICc8aW5maWxlLm1hZT4nLCAnLW9tYWUnLCAnPG91dGZpbGUubWFlPic=

> <r_lp_tautomer_probability>
1

> <r_epik_Ionization_Penalty>
0.00318402

> <r_epik_Ionization_Penalty_Charging>
0

> <r_epik_Ionization_Penalty_Neutral>
0.00318402

> <r_epik_State_Penalty>
0.00215642

> <r_epik_Charging_Adjusted_Penalty>
0.00215642

> <i_epik_Tot_Q>
0

> <i_epik_Tot_abs_Q>
0

> <r_epik_Metal_State_Penalty>
-0

> <b_epik_Metal_Only>
0

> <s_lp_Force_Field>
OPLS_2005

> <r_lp_Energy>
58.1289

> <b_lp_Chiralities_Consistent>
1

> <s_lp_Variant>
AV-unprocessed.smi:229-16

> <Gold.Version>
5.8.1

> <Gold.Id.Protein>
6NUR|6NUR_protein|mol2

> <Gold.PLP.Fitness>
50.0481

> <Gold.PLP.PLP>
-44.7324

> <Gold.PLP.part.hbond>
-2.6954

> <Gold.PLP.part.metal>
0.0000

> <Gold.PLP.part.buried>
-0.6492

> <Gold.PLP.part.nonpolar>
-40.7667

> <Gold.PLP.part.repulsive>
0.3633

> <Gold.PLP.ligand.clash>
0.0000

> <Gold.PLP.ligand.torsion>
0.4391

> <Gold.PLP.Chemscore.Hbond>
2.0000

> <Gold.PLP.Chemscore.CHOScore>
0.0000

> <Gold.PLP.Chemscore.Metal>
0.0000

> <Gold.Chemscore.Hbonds>
donor molecule, donor type, donor heavy atom, donor atom, acceptor molecule, acceptor atom, score
      L1  H    17    43       P1  7948  1.00
      P1  H  7997  8009       L1     7  1.00

> <Gold.PLP.Chemscore.Internal.Correction>
0.1939

> <Gold.Rescore>
     Score         DG    S(hbond)    S(metal)    S(lipo)     H(rot)  DE(clash)    DE(int)     intcor
     12.69     -17.52       1.78        0.00     105.90       2.46       1.73       3.09       ----

> <Gold.Chemscore.Fitness>
12.6913

> <Gold.Chemscore.DG>
-17.5189

> <Gold.Chemscore.ZeroCoef>
-5.4800

> <Gold.Chemscore.Hbond>
1.7798

> <Gold.Chemscore.Metal>
0.0000

> <Gold.Chemscore.Lipo>
105.8958

> <Gold.Chemscore.Internal_Hbond>
0.0000

> <Gold.Chemscore.DEClash>
1.7349

> <Gold.Chemscore.DEInternal>
3.0926

> <Gold.Chemscore.Rot>
2.4591

> <Gold.Chemscore.Internal.Correction>
   9.000000E+99

> <Gold.Chemscore.Hbonds>
donor molecule, donor type, donor heavy atom, donor atom, acceptor molecule, acceptor atom, score
      L1  H    17    43       P1  7948  0.99
      P1  H  7997  8009       L1     7  0.57

> <Gold.Chemscore.Hbond.Weighted>
-5.9444

> <Gold.Chemscore.Metal.Weighted>
-0.0000

> <Gold.Chemscore.Lipo.Weighted>
-12.3898

> <Gold.Chemscore.Internal_Hbond.Weighted>
0.0000

> <Gold.Chemscore.DEClash.Weighted>
1.7349

> <Gold.Chemscore.DEInternal.Weighted>
3.0926

> <Gold.Chemscore.Rot.Weighted>
6.2953

> <Gold.Chemscore.Internal.Correction.Weighted>
   9.000000E+99

> <Gold.Protein.RotatedTorsions>
[ 6907 6896 6895 6894 ] final   54.43 input  -60.11 | X-H torsion
[ 7974 7965 7964 7962 ] final  -97.20 input  175.53 | X-H torsion
[ 8008 7997 7996 7995 ] final -144.45 input   59.86 | X-H torsion
[ 10167 10162 10161 10158 ] final -163.48 input  -65.29 | X-H torsion
[ 10718 10713 10712 10709 ] final    0.51 input   66.30 | X-H torsion
[ 10763 10752 10751 10750 ] final  -91.76 input  -60.55 | X-H torsion
[ 11005 11000 10999 10996 ] final -138.26 input  -57.11 | X-H torsion

> <Gold.Protein.ActiveResidues>
 VAL166  LYS551  ARG553  GLY616  TRP617  ASP618  TYR619  PRO620  LYS621  CYS622 
 ASP623  PHE694  ASN695  SER759  ASP760  ASP761  ALA762  ILE779  LEU786  VAL792 
 PHE793  MET794  SER795  GLU796  ALA797  LYS798  CYS799  TRP800  GLU811  SER814 

> <Gold.Protein.RotatedAtoms>
  152.3438  134.7099  160.0255 H   0  0  0  0  0  0  0  0  0  0  0  0  # atno 6907 bound_to 6896
  151.7475  133.3320  159.3390 H   0  0  0  0  0  0  0  0  0  0  0  0  # atno 6908 bound_to 6896
  150.7496  134.6155  159.6153 H   0  0  0  0  0  0  0  0  0  0  0  0  # atno 6909 bound_to 6896
  145.3369  140.9452  143.2630 H   0  0  0  0  0  0  0  0  0  0  0  0  # atno 7974 bound_to 7965
  155.5271  140.0596  157.2896 H   0  0  0  0  0  0  0  0  0  0  0  0  # atno 8008 bound_to 7997
  154.4497  140.1942  156.0502 H   0  0  0  0  0  0  0  0  0  0  0  0  # atno 8009 bound_to 7997
  156.0678  140.3264  155.7543 H   0  0  0  0  0  0  0  0  0  0  0  0  # atno 8010 bound_to 7997
  139.6318  144.0426  152.2022 H   0  0  0  0  0  0  0  0  0  0  0  0  # atno 10167 bound_to 10162
  156.8344  130.5499  149.5683 H   0  0  0  0  0  0  0  0  0  0  0  0  # atno 10718 bound_to 10713
  154.6793  135.5256  153.8242 H   0  0  0  0  0  0  0  0  0  0  0  0  # atno 10763 bound_to 10752
  153.0554  135.6548  154.0600 H   0  0  0  0  0  0  0  0  0  0  0  0  # atno 10764 bound_to 10752
  154.0490  135.2971  155.3323 H   0  0  0  0  0  0  0  0  0  0  0  0  # atno 10765 bound_to 10752
  140.8633  134.2141  157.4694 H   0  0  0  0  0  0  0  0  0  0  0  0  # atno 11005 bound_to 11000
  144.8821  139.4890  143.6718 LP  0  0  0  0  0  0  0  0  0  0  0  0  # atno 17320 bound_to 7965
  146.3023  139.7467  142.9082 LP  0  0  0  0  0  0  0  0  0  0  0  0  # atno 17321 bound_to 7965
  140.0093  144.6236  150.7661 LP  0  0  0  0  0  0  0  0  0  0  0  0  # atno 17342 bound_to 10162
  140.7443  143.2859  151.3466 LP  0  0  0  0  0  0  0  0  0  0  0  0  # atno 17343 bound_to 10162
  156.0916  130.5900  150.9742 LP  0  0  0  0  0  0  0  0  0  0  0  0  # atno 17370 bound_to 10713
  157.6389  131.0912  150.8291 LP  0  0  0  0  0  0  0  0  0  0  0  0  # atno 17371 bound_to 10713
  139.8708  134.9740  156.4829 LP  0  0  0  0  0  0  0  0  0  0  0  0  # atno 17394 bound_to 11000
  140.8657  133.8026  155.9312 LP  0  0  0  0  0  0  0  0  0  0  0  0  # atno 17395 bound_to 11000

$$$$
