AV-unprocessed.smi:1045|AV-procd|sdf|4547|dock2
  -GOLD-   22720 2573D 1   1.00000     0.00000
 Structure written by MMmdl.
 43 44  0  0  0  0  0  0  0  0  2 V2000
  146.0549  133.8013  150.9597 C   0  0  0  0  0  0  0  0  0  0  0  0
  145.9723  135.0095  151.6951 O   0  0  0  0  0  0  0  0  0  0  0  0
  145.6573  136.1240  150.8745 C   0  0  0  0  0  0  0  0  0  0  0  0
  145.5557  137.3987  151.7277 C   0  0  1  0  0  0  0  0  0  0  0  0
  144.5155  137.2748  152.8507 C   0  0  0  0  0  0  0  0  0  0  0  0
  146.8636  137.7289  152.2905 N   0  0  0  0  0  0  0  0  0  0  0  0
  147.1166  138.6991  153.1804 C   0  0  0  0  0  0  0  0  0  0  0  0
  146.2547  139.4474  153.6405 O   0  0  0  0  0  0  0  0  0  0  0  0
  148.4198  138.7256  153.5088 N   0  0  0  0  0  0  0  0  0  0  0  0
  149.0868  139.6065  154.4023 C   0  0  0  0  0  0  0  0  0  0  0  0
  150.1718  139.0932  155.1451 C   0  0  0  0  0  0  0  0  0  0  0  0
  150.8734  139.9347  156.0324 C   0  0  0  0  0  0  0  0  0  0  0  0
  150.4849  141.2890  156.1567 C   0  0  0  0  0  0  0  0  0  0  0  0
  151.1184  142.2086  157.0041 N   0  0  0  0  0  0  0  0  0  0  0  0
  150.2299  142.9333  157.8973 C   0  0  0  0  0  0  0  0  0  0  0  0
  151.1341  143.5331  158.9773 C   0  0  0  0  0  0  0  0  0  0  0  0
  152.4071  142.6788  158.9449 C   0  0  0  0  0  0  0  0  0  0  0  0
  152.1575  141.6415  157.8470 C   0  0  0  0  0  0  0  0  0  0  0  0
  149.4508  141.7463  155.4180 N   0  3  0  0  0  0  0  0  0  0  0  0
  148.7502  140.9734  154.5599 C   0  0  0  0  0  0  0  0  0  0  0  0
  146.2983  132.9788  151.6322 H   0  0  0  0  0  0  0  0  0  0  0  0
  146.8340  133.8553  150.1981 H   0  0  0  0  0  0  0  0  0  0  0  0
  145.1059  133.5696  150.4742 H   0  0  0  0  0  0  0  0  0  0  0  0
  146.4251  136.2499  150.1091 H   0  0  0  0  0  0  0  0  0  0  0  0
  144.7127  135.9491  150.3567 H   0  0  0  0  0  0  0  0  0  0  0  0
  145.2229  138.2000  151.0660 H   0  0  0  0  0  0  0  0  0  0  0  0
  143.5290  137.0457  152.4468 H   0  0  0  0  0  0  0  0  0  0  0  0
  144.4329  138.2061  153.4123 H   0  0  0  0  0  0  0  0  0  0  0  0
  144.7783  136.4843  153.5545 H   0  0  0  0  0  0  0  0  0  0  0  0
  147.6392  137.1674  151.9704 H   0  0  0  0  0  0  0  0  0  0  0  0
  148.9920  137.9963  153.1089 H   0  0  0  0  0  0  0  0  0  0  0  0
  150.4658  138.0588  155.0415 H   0  0  0  0  0  0  0  0  0  0  0  0
  151.7004  139.5401  156.6042 H   0  0  0  0  0  0  0  0  0  0  0  0
  149.6806  143.7071  157.3601 H   0  0  0  0  0  0  0  0  0  0  0  0
  149.5035  142.2576  158.3505 H   0  0  0  0  0  0  0  0  0  0  0  0
  151.3761  144.5695  158.7379 H   0  0  0  0  0  0  0  0  0  0  0  0
  150.6515  143.5221  159.9549 H   0  0  0  0  0  0  0  0  0  0  0  0
  153.2655  143.3019  158.6907 H   0  0  0  0  0  0  0  0  0  0  0  0
  152.6143  142.2046  159.9047 H   0  0  0  0  0  0  0  0  0  0  0  0
  151.8234  140.7017  158.2887 H   0  0  0  0  0  0  0  0  0  0  0  0
  153.0625  141.4403  157.2728 H   0  0  0  0  0  0  0  0  0  0  0  0
  147.9622  141.4862  154.0293 H   0  0  0  0  0  0  0  0  0  0  0  0
  149.1858  142.7273  155.5103 H   0  0  0  0  0  0  0  0  0  0  0  0
  1  2  1  0  0  0  0
  1 21  1  0  0  0  0
  1 22  1  0  0  0  0
  1 23  1  0  0  0  0
  2  3  1  0  0  0  0
  3  4  1  0  0  0  0
  3 24  1  0  0  0  0
  3 25  1  0  0  0  0
  4  5  1  0  0  0  0
  4  6  1  0  0  0  0
  4 26  1  0  0  0  0
  5 27  1  0  0  0  0
  5 28  1  0  0  0  0
  5 29  1  0  0  0  0
  6  7  1  0  0  0  0
  6 30  1  0  0  0  0
  7  8  2  0  0  0  0
  7  9  1  0  0  0  0
  9 10  1  0  0  0  0
  9 31  1  0  0  0  0
 10 20  1  0  0  0  0
 10 11  2  0  0  0  0
 11 12  1  0  0  0  0
 11 32  1  0  0  0  0
 12 13  2  0  0  0  0
 12 33  1  0  0  0  0
 13 14  1  0  0  0  0
 13 19  1  0  0  0  0
 14 18  1  0  0  0  0
 14 15  1  0  0  0  0
 15 16  1  0  0  0  0
 15 34  1  0  0  0  0
 15 35  1  0  0  0  0
 16 17  1  0  0  0  0
 16 36  1  0  0  0  0
 16 37  1  0  0  0  0
 17 18  1  0  0  0  0
 17 38  1  0  0  0  0
 17 39  1  0  0  0  0
 18 40  1  0  0  0  0
 18 41  1  0  0  0  0
 19 20  2  0  0  0  0
 19 43  1  0  0  0  0
 20 42  1  0  0  0  0
M  CHG  1  19   1
M  END
> <s_m_source_file>
AV-unprocessed.smi

> <i_m_source_file_index>
1045

> <i_lp_mmshare_version>
43012

> <i_f3d_flags>
0

> <s_epik_input>
W0NIM11PW0NIMl1bQ0BIXShbQ0gzXSlbTkhdQyg9TylbTkhdYzFbY0hdW2NIXWMobltjSF0xKU4yW0NIMl1bQ0gyXVtDSDJdW0NIMl0y

> <s_epik_cmdline>
J2VwaWtfcHl0aG9uJywgJy1waCcsICc3LjAnLCAnLXRuJywgJzgnLCAnLW1hJywgJzIwMCcsICctbWV0YWxfYmluZGluZycsICctaW1hZScsICc8aW5maWxlLm1hZT4nLCAnLW9tYWUnLCAnPG91dGZpbGUubWFlPic=

> <r_lp_tautomer_probability>
0.999994

> <r_epik_Ionization_Penalty>
1.10308

> <r_epik_Ionization_Penalty_Charging>
1.10306

> <r_epik_Ionization_Penalty_Neutral>
1.99752e-05

> <r_epik_State_Penalty>
1.16038

> <r_epik_Charging_Adjusted_Penalty>
2.26344

> <i_epik_Tot_Q>
1

> <i_epik_Tot_abs_Q>
1

> <r_epik_Metal_State_Penalty>
1.24746

> <b_epik_Metal_Only>
0

> <s_lp_Force_Field>
OPLS_2005

> <r_lp_Energy>
39.8804

> <b_lp_Chiralities_Consistent>
1

> <s_lp_Variant>
AV-unprocessed.smi:1045-4

> <Gold.Version>
5.8.1

> <Gold.Id.Protein>
6NUR|6NUR_protein|mol2

> <Gold.PLP.Fitness>
41.7005

> <Gold.PLP.PLP>
-31.5941

> <Gold.PLP.part.hbond>
-3.9826

> <Gold.PLP.part.metal>
0.0000

> <Gold.PLP.part.buried>
-3.4914

> <Gold.PLP.part.nonpolar>
-27.2385

> <Gold.PLP.part.repulsive>
1.4545

> <Gold.PLP.ligand.clash>
0.0000

> <Gold.PLP.ligand.torsion>
0.4151

> <Gold.PLP.Chemscore.Hbond>
3.6318

> <Gold.PLP.Chemscore.CHOScore>
0.0000

> <Gold.PLP.Chemscore.Metal>
0.0000

> <Gold.Chemscore.Hbonds>
donor molecule, donor type, donor heavy atom, donor atom, acceptor molecule, acceptor atom, score
      L1  H     6    30       P1  7948  1.00
      L1  H     9    31       P1  7948  0.66
      L1  H    19    43       P1  8028  2.00

> <Gold.PLP.Chemscore.Internal.Correction>
0.0413

> <Gold.Rescore>
     Score         DG    S(hbond)    S(metal)    S(lipo)     H(rot)  DE(clash)    DE(int)     intcor
     15.91     -19.71       2.51        0.00      85.86       1.64       1.39       2.41       ----

> <Gold.Chemscore.Fitness>
15.9052

> <Gold.Chemscore.DG>
-19.7080

> <Gold.Chemscore.ZeroCoef>
-5.4800

> <Gold.Chemscore.Hbond>
2.5074

> <Gold.Chemscore.Metal>
0.0000

> <Gold.Chemscore.Lipo>
85.8600

> <Gold.Chemscore.Internal_Hbond>
0.0000

> <Gold.Chemscore.DEClash>
1.3884

> <Gold.Chemscore.DEInternal>
2.4143

> <Gold.Chemscore.Rot>
1.6376

> <Gold.Chemscore.Internal.Correction>
   9.000000E+99

> <Gold.Chemscore.Hbonds>
donor molecule, donor type, donor heavy atom, donor atom, acceptor molecule, acceptor atom, score
      L1  H     6    30       P1  7948  0.98
      L1  H     9    31       P1  7948  0.64
      L1  H    19    43       P1  8028  0.94

> <Gold.Chemscore.Hbond.Weighted>
-8.3747

> <Gold.Chemscore.Metal.Weighted>
-0.0000

> <Gold.Chemscore.Lipo.Weighted>
-10.0456

> <Gold.Chemscore.Internal_Hbond.Weighted>
0.0000

> <Gold.Chemscore.DEClash.Weighted>
1.3884

> <Gold.Chemscore.DEInternal.Weighted>
2.4143

> <Gold.Chemscore.Rot.Weighted>
4.1924

> <Gold.Chemscore.Internal.Correction.Weighted>
   9.000000E+99

> <Gold.Protein.RotatedTorsions>
[ 6907 6896 6895 6894 ] final  -98.72 input  -60.11 | X-H torsion
[ 7974 7965 7964 7962 ] final  108.89 input  175.53 | X-H torsion
[ 8008 7997 7996 7995 ] final   67.81 input   59.86 | X-H torsion
[ 10167 10162 10161 10158 ] final  -39.29 input  -65.29 | X-H torsion
[ 10718 10713 10712 10709 ] final  113.41 input   66.30 | X-H torsion
[ 10763 10752 10751 10750 ] final -113.64 input  -60.55 | X-H torsion
[ 11005 11000 10999 10996 ] final  145.32 input  -57.11 | X-H torsion

> <Gold.Protein.ActiveResidues>
 VAL166  LYS551  ARG553  GLY616  TRP617  ASP618  TYR619  PRO620  LYS621  CYS622 
 ASP623  PHE694  ASN695  SER759  ASP760  ASP761  ALA762  ILE779  LEU786  VAL792 
 PHE793  MET794  SER795  GLU796  ALA797  LYS798  CYS799  TRP800  GLU811  SER814 

> <Gold.Protein.RotatedAtoms>
  150.7056  134.1151  159.4013 H   0  0  0  0  0  0  0  0  0  0  0  0  # atno 6907 bound_to 6896
  151.9137  135.0325  160.0526 H   0  0  0  0  0  0  0  0  0  0  0  0  # atno 6908 bound_to 6896
  152.2314  133.5026  159.5254 H   0  0  0  0  0  0  0  0  0  0  0  0  # atno 6909 bound_to 6896
  145.2748  139.2654  143.3947 H   0  0  0  0  0  0  0  0  0  0  0  0  # atno 7974 bound_to 7965
  155.6987  140.3495  155.4924 H   0  0  0  0  0  0  0  0  0  0  0  0  # atno 8008 bound_to 7997
  155.9460  140.1110  157.1039 H   0  0  0  0  0  0  0  0  0  0  0  0  # atno 8009 bound_to 7997
  154.4112  140.1203  156.4976 H   0  0  0  0  0  0  0  0  0  0  0  0  # atno 8010 bound_to 7997
  140.7068  143.3223  151.2762 H   0  0  0  0  0  0  0  0  0  0  0  0  # atno 10167 bound_to 10162
  157.6340  131.0983  150.7036 H   0  0  0  0  0  0  0  0  0  0  0  0  # atno 10718 bound_to 10713
  154.8405  135.4447  154.1380 H   0  0  0  0  0  0  0  0  0  0  0  0  # atno 10763 bound_to 10752
  153.2573  135.6932  153.7622 H   0  0  0  0  0  0  0  0  0  0  0  0  # atno 10764 bound_to 10752
  153.6911  135.3387  155.3178 H   0  0  0  0  0  0  0  0  0  0  0  0  # atno 10765 bound_to 10752
  140.0703  134.9155  157.1333 H   0  0  0  0  0  0  0  0  0  0  0  0  # atno 11005 bound_to 11000
  146.3235  140.3200  142.8632 LP  0  0  0  0  0  0  0  0  0  0  0  0  # atno 17320 bound_to 7965
  144.9304  140.7968  143.5693 LP  0  0  0  0  0  0  0  0  0  0  0  0  # atno 17321 bound_to 7965
  139.6681  144.0069  152.2736 LP  0  0  0  0  0  0  0  0  0  0  0  0  # atno 17342 bound_to 10162
  139.9658  144.6527  150.8036 LP  0  0  0  0  0  0  0  0  0  0  0  0  # atno 17343 bound_to 10162
  156.7371  130.4727  149.5486 LP  0  0  0  0  0  0  0  0  0  0  0  0  # atno 17370 bound_to 10713
  156.1564  130.6344  151.0662 LP  0  0  0  0  0  0  0  0  0  0  0  0  # atno 17371 bound_to 10713
  140.3637  134.2466  155.7184 LP  0  0  0  0  0  0  0  0  0  0  0  0  # atno 17394 bound_to 11000
  141.2009  133.7976  157.0467 LP  0  0  0  0  0  0  0  0  0  0  0  0  # atno 17395 bound_to 11000

$$$$
