AV-unprocessed.smi:283|AV-procd|sdf|2147|dock9
  -GOLD-   2262021483D 1   1.00000     0.00000
 Structure written by MMmdl.
 48 51  0  0  0  0  0  0  0  0  1 V2000
  151.5477  140.8677  155.4728 C   0  0  0  0  0  0  0  0  0  0  0  0
  150.5877  141.3552  156.5660 C   0  0  2  0  0  0  0  0  0  0  0  0
  149.3665  141.8804  155.9559 N   0  0  0  0  0  0  0  0  0  0  0  0
  148.6279  141.1000  155.1365 C   0  0  0  0  0  0  0  0  0  0  0  0
  147.8016  141.7517  154.2841 N   0  0  0  0  0  0  0  0  0  0  0  0
  146.9985  141.0601  153.4709 C   0  0  0  0  0  0  0  0  0  0  0  0
  146.8624  139.7375  153.3604 N   0  0  0  0  0  0  0  0  0  0  0  0
  147.7009  139.0733  154.2076 C   0  0  0  0  0  0  0  0  0  0  0  0
  148.6277  139.6751  155.1049 C   0  0  0  0  0  0  0  0  0  0  0  0
  149.3447  138.6809  155.7584 N   0  0  0  0  0  0  0  0  0  0  0  0
  148.8529  137.5673  155.2911 C   0  0  0  0  0  0  0  0  0  0  0  0
  147.8158  137.7103  154.3944 N   0  0  0  0  0  0  0  0  0  0  0  0
  147.0338  136.6438  153.6855 C   0  0  1  0  0  0  0  0  0  0  0  0
  146.3432  135.8950  154.6452 O   0  0  0  0  0  0  0  0  0  0  0  0
  144.9779  136.2977  154.7137 C   0  0  1  0  0  0  0  0  0  0  0  0
  144.8072  137.4438  155.7381 C   0  0  0  0  0  0  0  0  0  0  0  0
  143.4871  137.9457  155.7167 O   0  0  0  0  0  0  0  0  0  0  0  0
  144.6711  136.6421  153.2501 C   0  0  1  0  0  0  0  0  0  0  0  0
  143.5852  137.5371  153.1074 O   0  0  0  0  0  0  0  0  0  0  0  0
  145.9727  137.2537  152.7432 C   0  0  2  0  0  0  0  0  0  0  0  0
  146.1887  136.8760  151.3979 O   0  0  0  0  0  0  0  0  0  0  0  0
  151.3038  142.3278  157.5097 C   0  0  0  0  0  0  0  0  0  0  0  0
  150.9239  143.6902  157.5367 C   0  0  0  0  0  0  0  0  0  0  0  0
  151.5527  144.5949  158.4121 C   0  0  0  0  0  0  0  0  0  0  0  0
  152.5791  144.1498  159.2640 C   0  0  0  0  0  0  0  0  0  0  0  0
  152.9799  142.8017  159.2320 C   0  0  0  0  0  0  0  0  0  0  0  0
  152.3532  141.8908  158.3578 C   0  0  0  0  0  0  0  0  0  0  0  0
  152.8993  140.2501  158.3536 Cl  0  0  0  0  0  0  0  0  0  0  0  0
  147.7942  136.0410  153.1873 H   0  0  0  0  0  0  0  0  0  0  0  0
  144.3876  135.4405  155.0406 H   0  0  0  0  0  0  0  0  0  0  0  0
  144.4491  135.7171  152.7148 H   0  0  0  0  0  0  0  0  0  0  0  0
  145.9547  138.3404  152.8399 H   0  0  0  0  0  0  0  0  0  0  0  0
  152.4273  140.3928  155.9086 H   0  0  0  0  0  0  0  0  0  0  0  0
  151.8906  141.6926  154.8473 H   0  0  0  0  0  0  0  0  0  0  0  0
  151.0667  140.1346  154.8245 H   0  0  0  0  0  0  0  0  0  0  0  0
  150.2826  140.4747  157.1281 H   0  0  0  0  0  0  0  0  0  0  0  0
  148.9586  142.6627  156.4464 H   0  0  0  0  0  0  0  0  0  0  0  0
  146.3658  141.6506  152.8248 H   0  0  0  0  0  0  0  0  0  0  0  0
  149.2316  136.6065  155.6067 H   0  0  0  0  0  0  0  0  0  0  0  0
  144.9858  137.0700  156.7460 H   0  0  0  0  0  0  0  0  0  0  0  0
  145.5153  138.2547  155.5642 H   0  0  0  0  0  0  0  0  0  0  0  0
  143.3427  138.3746  154.8870 H   0  0  0  0  0  0  0  0  0  0  0  0
  143.6620  137.9708  152.2711 H   0  0  0  0  0  0  0  0  0  0  0  0
  147.1191  136.8654  151.2336 H   0  0  0  0  0  0  0  0  0  0  0  0
  150.1372  144.0488  156.8890 H   0  0  0  0  0  0  0  0  0  0  0  0
  151.2464  145.6304  158.4299 H   0  0  0  0  0  0  0  0  0  0  0  0
  153.0624  144.8425  159.9371 H   0  0  0  0  0  0  0  0  0  0  0  0
  153.7745  142.4651  159.8816 H   0  0  0  0  0  0  0  0  0  0  0  0
  1  2  1  0  0  0  0
  1 33  1  0  0  0  0
  1 34  1  0  0  0  0
  1 35  1  0  0  0  0
  2  3  1  0  0  0  0
  2 22  1  0  0  0  0
  2 36  1  0  0  0  0
  3  4  1  0  0  0  0
  3 37  1  0  0  0  0
  4  9  1  0  0  0  0
  4  5  2  0  0  0  0
  5  6  1  0  0  0  0
  6  7  2  0  0  0  0
  6 38  1  0  0  0  0
  7  8  1  0  0  0  0
  8 12  1  0  0  0  0
  8  9  2  0  0  0  0
  9 10  1  0  0  0  0
 10 11  2  0  0  0  0
 11 12  1  0  0  0  0
 11 39  1  0  0  0  0
 12 13  1  0  0  0  0
 13 29  1  0  0  0  0
 13 20  1  0  0  0  0
 13 14  1  0  0  0  0
 14 15  1  0  0  0  0
 15 30  1  0  0  0  0
 15 16  1  0  0  0  0
 15 18  1  0  0  0  0
 16 17  1  0  0  0  0
 16 40  1  0  0  0  0
 16 41  1  0  0  0  0
 17 42  1  0  0  0  0
 18 31  1  0  0  0  0
 18 19  1  0  0  0  0
 18 20  1  0  0  0  0
 19 43  1  0  0  0  0
 20 32  1  0  0  0  0
 20 21  1  0  0  0  0
 21 44  1  0  0  0  0
 22 27  1  0  0  0  0
 22 23  2  0  0  0  0
 23 24  1  0  0  0  0
 23 45  1  0  0  0  0
 24 25  2  0  0  0  0
 24 46  1  0  0  0  0
 25 26  1  0  0  0  0
 25 47  1  0  0  0  0
 26 27  2  0  0  0  0
 26 48  1  0  0  0  0
 27 28  1  0  0  0  0
M  END
> <s_m_source_file>
AV-unprocessed.smi

> <i_m_source_file_index>
283

> <i_lp_mmshare_version>
43012

> <i_f3d_flags>
0

> <s_epik_input>
Q2xjMVtjSF1bY0hdW2NIXVtjSF1jMVtDQEhdKFtDSDNdKVtOSF1jKG5bY0hdbjIpYyhjMjMpbltjSF1uM1tDQEBIXTRPW0NASF0oW0NIMl1bT0hdKVtDQEBIXShbT0hdKVtDQEhdNFtPSF0=

> <s_epik_cmdline>
J2VwaWtfcHl0aG9uJywgJy1waCcsICc3LjAnLCAnLXRuJywgJzgnLCAnLW1hJywgJzIwMCcsICctbWV0YWxfYmluZGluZycsICctaW1hZScsICc8aW5maWxlLm1hZT4nLCAnLW9tYWUnLCAnPG91dGZpbGUubWFlPic=

> <r_lp_tautomer_probability>
1

> <r_epik_Ionization_Penalty>
0.000266407

> <r_epik_Ionization_Penalty_Charging>
0

> <r_epik_Ionization_Penalty_Neutral>
0.000266407

> <r_epik_State_Penalty>
-0

> <r_epik_Charging_Adjusted_Penalty>
0

> <i_epik_Tot_Q>
0

> <i_epik_Tot_abs_Q>
0

> <r_epik_Metal_State_Penalty>
-0

> <b_epik_Metal_Only>
0

> <s_epik_Chemistry_Notes>
This compound contains an acetal/aminal-like group ( X-CH(R)-Y where X, Y are N, S, or O) that may be acid/base labile, releasing an aldehyde.

> <s_lp_Force_Field>
OPLS_2005

> <r_lp_Energy>
42.7281

> <b_lp_Chiralities_Consistent>
1

> <s_lp_Variant>
AV-unprocessed.smi:283-23

> <Gold.Version>
5.8.1

> <Gold.Id.Protein>
6NUR|6NUR_protein|mol2

> <Gold.PLP.Fitness>
52.3571

> <Gold.PLP.PLP>
-41.0911

> <Gold.PLP.part.hbond>
-5.3059

> <Gold.PLP.part.metal>
0.0000

> <Gold.PLP.part.buried>
-2.8376

> <Gold.PLP.part.nonpolar>
-33.0868

> <Gold.PLP.part.repulsive>
0.8919

> <Gold.PLP.ligand.clash>
1.4605

> <Gold.PLP.ligand.torsion>
0.3117

> <Gold.PLP.Chemscore.Hbond>
4.4224

> <Gold.PLP.Chemscore.CHOScore>
0.0000

> <Gold.PLP.Chemscore.Metal>
0.0000

> <Gold.Chemscore.Hbonds>
donor molecule, donor type, donor heavy atom, donor atom, acceptor molecule, acceptor atom, score
      L1  H     3    37       P1  8028  0.28
      L1  H    21    44       P1  7948  0.96

> <Gold.PLP.Chemscore.Internal.Correction>
0.0828

> <Gold.Rescore>
     Score         DG    S(hbond)    S(metal)    S(lipo)     H(rot)  DE(clash)    DE(int)     intcor
     16.80     -20.04       3.96        0.00     101.03       4.10       0.93       2.30       ----

> <Gold.Chemscore.Fitness>
16.8050

> <Gold.Chemscore.DG>
-20.0404

> <Gold.Chemscore.ZeroCoef>
-5.4800

> <Gold.Chemscore.Hbond>
3.9603

> <Gold.Chemscore.Metal>
0.0000

> <Gold.Chemscore.Lipo>
101.0331

> <Gold.Chemscore.Internal_Hbond>
0.0000

> <Gold.Chemscore.DEClash>
0.9341

> <Gold.Chemscore.DEInternal>
2.3014

> <Gold.Chemscore.Rot>
4.0968

> <Gold.Chemscore.Internal.Correction>
   9.000000E+99

> <Gold.Chemscore.Hbonds>
donor molecule, donor type, donor heavy atom, donor atom, acceptor molecule, acceptor atom, score
      L1  H     3    37       P1  8028  0.29
      L1  H    19    43       P1 10175  0.01
      L1  H    21    44       P1  7948  0.89

> <Gold.Chemscore.Hbond.Weighted>
-13.2275

> <Gold.Chemscore.Metal.Weighted>
-0.0000

> <Gold.Chemscore.Lipo.Weighted>
-11.8209

> <Gold.Chemscore.Internal_Hbond.Weighted>
0.0000

> <Gold.Chemscore.DEClash.Weighted>
0.9341

> <Gold.Chemscore.DEInternal.Weighted>
2.3014

> <Gold.Chemscore.Rot.Weighted>
10.4879

> <Gold.Chemscore.Internal.Correction.Weighted>
   9.000000E+99

> <Gold.Protein.RotatedTorsions>
[ 6907 6896 6895 6894 ] final -151.34 input  -60.11 | X-H torsion
[ 7974 7965 7964 7962 ] final -100.96 input  175.53 | X-H torsion
[ 8008 7997 7996 7995 ] final  -33.63 input   59.86 | X-H torsion
[ 10167 10162 10161 10158 ] final   72.20 input  -65.29 | X-H torsion
[ 10718 10713 10712 10709 ] final  177.02 input   66.30 | X-H torsion
[ 10763 10752 10751 10750 ] final  -35.76 input  -60.55 | X-H torsion
[ 11005 11000 10999 10996 ] final   23.66 input  -57.11 | X-H torsion

> <Gold.Protein.ActiveResidues>
 VAL166  LYS551  ARG553  GLY616  TRP617  ASP618  TYR619  PRO620  LYS621  CYS622 
 ASP623  PHE694  ASN695  SER759  ASP760  ASP761  ALA762  ILE779  LEU786  VAL792 
 PHE793  MET794  SER795  GLU796  ALA797  LYS798  CYS799  TRP800  GLU811  SER814 

> <Gold.Protein.RotatedAtoms>
  151.2116  133.4552  159.2598 H   0  0  0  0  0  0  0  0  0  0  0  0  # atno 6907 bound_to 6896
  151.0971  134.9950  159.8441 H   0  0  0  0  0  0  0  0  0  0  0  0  # atno 6908 bound_to 6896
  152.5440  134.2046  159.8778 H   0  0  0  0  0  0  0  0  0  0  0  0  # atno 6909 bound_to 6896
  145.2878  140.9344  143.2895 H   0  0  0  0  0  0  0  0  0  0  0  0  # atno 7974 bound_to 7965
  154.4143  140.1705  156.1920 H   0  0  0  0  0  0  0  0  0  0  0  0  # atno 8008 bound_to 7997
  155.9596  140.3394  155.6455 H   0  0  0  0  0  0  0  0  0  0  0  0  # atno 8009 bound_to 7997
  155.6766  140.0718  157.2491 H   0  0  0  0  0  0  0  0  0  0  0  0  # atno 8010 bound_to 7997
  140.0379  144.5413  150.7457 H   0  0  0  0  0  0  0  0  0  0  0  0  # atno 10167 bound_to 10162
  156.9115  130.9911  151.3020 H   0  0  0  0  0  0  0  0  0  0  0  0  # atno 10718 bound_to 10713
  153.8685  135.6833  153.4776 H   0  0  0  0  0  0  0  0  0  0  0  0  # atno 10763 bound_to 10752
  153.1301  135.4702  154.9333 H   0  0  0  0  0  0  0  0  0  0  0  0  # atno 10764 bound_to 10752
  154.7725  135.3243  154.8110 H   0  0  0  0  0  0  0  0  0  0  0  0  # atno 10765 bound_to 10752
  140.3672  134.2061  155.7668 H   0  0  0  0  0  0  0  0  0  0  0  0  # atno 11005 bound_to 11000
  144.9199  139.4425  143.6546 LP  0  0  0  0  0  0  0  0  0  0  0  0  # atno 17320 bound_to 7965
  146.3195  139.8053  142.8957 LP  0  0  0  0  0  0  0  0  0  0  0  0  # atno 17321 bound_to 7965
  140.7273  143.2650  151.4075 LP  0  0  0  0  0  0  0  0  0  0  0  0  # atno 17342 bound_to 10162
  139.6033  144.1249  152.2222 LP  0  0  0  0  0  0  0  0  0  0  0  0  # atno 17343 bound_to 10162
  157.5964  130.8481  149.8736 LP  0  0  0  0  0  0  0  0  0  0  0  0  # atno 17370 bound_to 10713
  156.0533  130.3713  150.1149 LP  0  0  0  0  0  0  0  0  0  0  0  0  # atno 17371 bound_to 10713
  141.1966  133.8079  157.0666 LP  0  0  0  0  0  0  0  0  0  0  0  0  # atno 17394 bound_to 11000
  140.0580  134.9770  157.1254 LP  0  0  0  0  0  0  0  0  0  0  0  0  # atno 17395 bound_to 11000

$$$$
