AV-unprocessed.smi:1912|AV-procd|sdf|7749|dock3
  -GOLD-   22720 9483D 1   1.00000     0.00000
 Structure written by MMmdl.
 43 45  0  0  0  0  0  0  0  0  1 V2000
  155.3511  138.0829  164.5193 C   0  0  0  0  0  0  0  0  0  0  0  0
  156.5955  138.7652  164.4744 O   0  0  0  0  0  0  0  0  0  0  0  0
  157.0644  139.1798  163.2463 C   0  0  0  0  0  0  0  0  0  0  0  0
  158.4344  139.3014  162.9162 C   0  0  0  0  0  0  0  0  0  0  0  0
  158.8229  139.7434  161.6383 C   0  0  0  0  0  0  0  0  0  0  0  0
  157.8550  140.0736  160.6580 C   0  0  0  0  0  0  0  0  0  0  0  0
  158.1818  140.5357  159.3994 O   0  0  0  0  0  0  0  0  0  0  0  0
  159.3780  141.2844  159.2460 C   0  0  0  0  0  0  0  0  0  0  0  0
  156.4819  139.9436  160.9819 C   0  0  0  0  0  0  0  0  0  0  0  0
  155.4052  140.3280  159.9673 C   0  0  1  0  0  0  0  0  0  0  0  0
  155.3628  139.4497  158.8602 O   0  0  0  0  0  0  0  0  0  0  0  0
  153.9960  140.3699  160.5961 C   0  0  0  0  0  0  0  0  0  0  0  0
  152.9703  140.7745  159.6438 N   0  0  0  0  0  0  0  0  0  0  0  0
  152.0348  139.9969  159.0455 C   0  0  0  0  0  0  0  0  0  0  0  0
  151.9261  138.5325  159.3296 C   0  0  0  0  0  0  0  0  0  0  0  0
  151.2251  140.6165  158.1867 N   0  0  0  0  0  0  0  0  0  0  0  0
  151.6768  141.9213  158.2327 C   0  0  0  0  0  0  0  0  0  0  0  0
  151.2356  143.0705  157.5383 C   0  0  0  0  0  0  0  0  0  0  0  0
  151.8641  144.3156  157.7466 C   0  0  0  0  0  0  0  0  0  0  0  0
  152.9395  144.4300  158.6511 C   0  0  0  0  0  0  0  0  0  0  0  0
  153.3931  143.2982  159.3548 C   0  0  0  0  0  0  0  0  0  0  0  0
  152.7644  142.0566  159.1415 C   0  0  0  0  0  0  0  0  0  0  0  0
  156.1037  139.5028  162.2698 C   0  0  0  0  0  0  0  0  0  0  0  0
  155.1279  137.8119  165.5512 H   0  0  0  0  0  0  0  0  0  0  0  0
  155.3806  137.1618  163.9358 H   0  0  0  0  0  0  0  0  0  0  0  0
  154.5360  138.7130  164.1607 H   0  0  0  0  0  0  0  0  0  0  0  0
  159.2103  139.0652  163.6284 H   0  0  0  0  0  0  0  0  0  0  0  0
  159.8797  139.8239  161.4352 H   0  0  0  0  0  0  0  0  0  0  0  0
  159.4350  141.6622  158.2252 H   0  0  0  0  0  0  0  0  0  0  0  0
  160.2598  140.6668  159.4198 H   0  0  0  0  0  0  0  0  0  0  0  0
  159.3980  142.1451  159.9161 H   0  0  0  0  0  0  0  0  0  0  0  0
  155.6407  141.3054  159.5474 H   0  0  0  0  0  0  0  0  0  0  0  0
  154.7625  138.7473  159.0586 H   0  0  0  0  0  0  0  0  0  0  0  0
  153.7290  139.3898  160.9929 H   0  0  0  0  0  0  0  0  0  0  0  0
  153.9769  141.0539  161.4454 H   0  0  0  0  0  0  0  0  0  0  0  0
  151.1316  138.0856  158.7313 H   0  0  0  0  0  0  0  0  0  0  0  0
  151.6956  138.3680  160.3823 H   0  0  0  0  0  0  0  0  0  0  0  0
  152.8609  138.0271  159.0880 H   0  0  0  0  0  0  0  0  0  0  0  0
  150.4132  142.9932  156.8429 H   0  0  0  0  0  0  0  0  0  0  0  0
  151.5196  145.1871  157.2095 H   0  0  0  0  0  0  0  0  0  0  0  0
  153.4172  145.3868  158.8031 H   0  0  0  0  0  0  0  0  0  0  0  0
  154.2209  143.3824  160.0431 H   0  0  0  0  0  0  0  0  0  0  0  0
  155.0571  139.4226  162.5249 H   0  0  0  0  0  0  0  0  0  0  0  0
  1  2  1  0  0  0  0
  1 24  1  0  0  0  0
  1 25  1  0  0  0  0
  1 26  1  0  0  0  0
  2  3  1  0  0  0  0
  3 23  1  0  0  0  0
  3  4  2  0  0  0  0
  4  5  1  0  0  0  0
  4 27  1  0  0  0  0
  5  6  2  0  0  0  0
  5 28  1  0  0  0  0
  6  7  1  0  0  0  0
  6  9  1  0  0  0  0
  7  8  1  0  0  0  0
  8 29  1  0  0  0  0
  8 30  1  0  0  0  0
  8 31  1  0  0  0  0
  9 10  1  0  0  0  0
  9 23  2  0  0  0  0
 10 11  1  0  0  0  0
 10 12  1  0  0  0  0
 10 32  1  0  0  0  0
 11 33  1  0  0  0  0
 12 13  1  0  0  0  0
 12 34  1  0  0  0  0
 12 35  1  0  0  0  0
 13 22  1  0  0  0  0
 13 14  1  0  0  0  0
 14 15  1  0  0  0  0
 14 16  2  0  0  0  0
 15 36  1  0  0  0  0
 15 37  1  0  0  0  0
 15 38  1  0  0  0  0
 16 17  1  0  0  0  0
 17 22  2  0  0  0  0
 17 18  1  0  0  0  0
 18 19  2  0  0  0  0
 18 39  1  0  0  0  0
 19 20  1  0  0  0  0
 19 40  1  0  0  0  0
 20 21  2  0  0  0  0
 20 41  1  0  0  0  0
 21 22  1  0  0  0  0
 21 42  1  0  0  0  0
 23 43  1  0  0  0  0
M  END
> <s_m_source_file>
AV-unprocessed.smi

> <i_m_source_file_index>
1912

> <i_lp_mmshare_version>
43012

> <i_f3d_flags>
0

> <s_epik_input>
W0NIM11PYzFbY0hdW2NIXWMoT1tDSDNdKWMoW2NIXTEpW0NASF0oW09IXSlbQ0gyXW4oYyhuMilbQ0gzXSljKGMyMylbY0hdW2NIXVtjSF1bY0hdMw==

> <s_epik_cmdline>
J2VwaWtfcHl0aG9uJywgJy1waCcsICc3LjAnLCAnLXRuJywgJzgnLCAnLW1hJywgJzIwMCcsICctbWV0YWxfYmluZGluZycsICctaW1hZScsICc8aW5maWxlLm1hZT4nLCAnLW9tYWUnLCAnPG91dGZpbGUubWFlPic=

> <r_lp_tautomer_probability>
1

> <r_epik_Ionization_Penalty>
0.129663

> <r_epik_Ionization_Penalty_Charging>
0

> <r_epik_Ionization_Penalty_Neutral>
0.129663

> <r_epik_State_Penalty>
0.119073

> <r_epik_Charging_Adjusted_Penalty>
0.119073

> <i_epik_Tot_Q>
0

> <i_epik_Tot_abs_Q>
0

> <r_epik_Metal_State_Penalty>
0.000131867

> <b_epik_Metal_Only>
0

> <s_lp_Force_Field>
OPLS_2005

> <r_lp_Energy>
18.0714

> <b_lp_Chiralities_Consistent>
1

> <s_lp_Variant>
AV-unprocessed.smi:1912-2

> <Gold.Version>
5.8.1

> <Gold.Id.Protein>
6NUR|6NUR_protein|mol2

> <Gold.PLP.Fitness>
42.1500

> <Gold.PLP.PLP>
-41.2025

> <Gold.PLP.part.hbond>
-1.0000

> <Gold.PLP.part.metal>
0.0000

> <Gold.PLP.part.buried>
-4.5326

> <Gold.PLP.part.nonpolar>
-36.9230

> <Gold.PLP.part.repulsive>
0.0869

> <Gold.PLP.ligand.clash>
0.0000

> <Gold.PLP.ligand.torsion>
1.0602

> <Gold.PLP.Chemscore.Hbond>
1.0000

> <Gold.PLP.Chemscore.CHOScore>
0.0000

> <Gold.PLP.Chemscore.Metal>
0.0000

> <Gold.Chemscore.Hbonds>
donor molecule, donor type, donor heavy atom, donor atom, acceptor molecule, acceptor atom, score
      P1  H  7997  8009       L1    11  1.00

> <Gold.PLP.Chemscore.Internal.Correction>
0.0678

> <Gold.Rescore>
     Score         DG    S(hbond)    S(metal)    S(lipo)     H(rot)  DE(clash)    DE(int)     intcor
     17.57     -18.64       0.92        0.00     133.62       2.17       0.15       0.92       ----

> <Gold.Chemscore.Fitness>
17.5742

> <Gold.Chemscore.DG>
-18.6424

> <Gold.Chemscore.ZeroCoef>
-5.4800

> <Gold.Chemscore.Hbond>
0.9226

> <Gold.Chemscore.Metal>
0.0000

> <Gold.Chemscore.Lipo>
133.6198

> <Gold.Chemscore.Internal_Hbond>
0.0000

> <Gold.Chemscore.DEClash>
0.1489

> <Gold.Chemscore.DEInternal>
0.9193

> <Gold.Chemscore.Rot>
2.1690

> <Gold.Chemscore.Internal.Correction>
   9.000000E+99

> <Gold.Chemscore.Hbonds>
donor molecule, donor type, donor heavy atom, donor atom, acceptor molecule, acceptor atom, score
      P1  H  7997  8009       L1    11  0.76

> <Gold.Chemscore.Hbond.Weighted>
-3.0815

> <Gold.Chemscore.Metal.Weighted>
-0.0000

> <Gold.Chemscore.Lipo.Weighted>
-15.6335

> <Gold.Chemscore.Internal_Hbond.Weighted>
0.0000

> <Gold.Chemscore.DEClash.Weighted>
0.1489

> <Gold.Chemscore.DEInternal.Weighted>
0.9193

> <Gold.Chemscore.Rot.Weighted>
5.5526

> <Gold.Chemscore.Internal.Correction.Weighted>
   9.000000E+99

> <Gold.Protein.RotatedTorsions>
[ 6907 6896 6895 6894 ] final -169.49 input  -60.11 | X-H torsion
[ 7974 7965 7964 7962 ] final  -28.09 input  175.53 | X-H torsion
[ 8008 7997 7996 7995 ] final  120.39 input   59.86 | X-H torsion
[ 10167 10162 10161 10158 ] final  -81.94 input  -65.29 | X-H torsion
[ 10718 10713 10712 10709 ] final  -59.33 input   66.30 | X-H torsion
[ 10763 10752 10751 10750 ] final -166.71 input  -60.55 | X-H torsion
[ 11005 11000 10999 10996 ] final  134.15 input  -57.11 | X-H torsion

> <Gold.Protein.ActiveResidues>
 VAL166  LYS551  ARG553  GLY616  TRP617  ASP618  TYR619  PRO620  LYS621  CYS622 
 ASP623  PHE694  ASN695  SER759  ASP760  ASP761  ALA762  ILE779  LEU786  VAL792 
 PHE793  MET794  SER795  GLU796  ALA797  LYS798  CYS799  TRP800  GLU811  SER814 

> <Gold.Protein.RotatedAtoms>
  151.4925  133.3522  159.2855 H   0  0  0  0  0  0  0  0  0  0  0  0  # atno 6907 bound_to 6896
  150.8825  134.8221  159.7246 H   0  0  0  0  0  0  0  0  0  0  0  0  # atno 6908 bound_to 6896
  152.4772  134.4824  159.9721 H   0  0  0  0  0  0  0  0  0  0  0  0  # atno 6909 bound_to 6896
  146.1312  140.5238  142.8692 H   0  0  0  0  0  0  0  0  0  0  0  0  # atno 7974 bound_to 7965
  156.2640  140.2832  156.1143 H   0  0  0  0  0  0  0  0  0  0  0  0  # atno 8008 bound_to 7997
  155.1224  140.0392  157.2771 H   0  0  0  0  0  0  0  0  0  0  0  0  # atno 8009 bound_to 7997
  154.6661  140.2577  155.7063 H   0  0  0  0  0  0  0  0  0  0  0  0  # atno 8010 bound_to 7997
  140.4366  143.2529  151.8685 H   0  0  0  0  0  0  0  0  0  0  0  0  # atno 10167 bound_to 10162
  156.1070  130.4179  150.0700 H   0  0  0  0  0  0  0  0  0  0  0  0  # atno 10718 bound_to 10713
  154.6806  135.2954  154.9618 H   0  0  0  0  0  0  0  0  0  0  0  0  # atno 10763 bound_to 10752
  154.0614  135.6631  153.4816 H   0  0  0  0  0  0  0  0  0  0  0  0  # atno 10764 bound_to 10752
  153.0545  135.5153  154.7847 H   0  0  0  0  0  0  0  0  0  0  0  0  # atno 10765 bound_to 10752
  139.9897  134.9519  156.9826 H   0  0  0  0  0  0  0  0  0  0  0  0  # atno 11005 bound_to 11000
  144.7693  140.5601  143.6681 LP  0  0  0  0  0  0  0  0  0  0  0  0  # atno 17320 bound_to 7965
  145.5256  139.1476  143.3528 LP  0  0  0  0  0  0  0  0  0  0  0  0  # atno 17321 bound_to 7965
  139.4787  144.5276  151.8712 LP  0  0  0  0  0  0  0  0  0  0  0  0  # atno 17342 bound_to 10162
  140.4367  144.2042  150.5889 LP  0  0  0  0  0  0  0  0  0  0  0  0  # atno 17343 bound_to 10162
  156.8673  130.9512  151.3612 LP  0  0  0  0  0  0  0  0  0  0  0  0  # atno 17370 bound_to 10713
  157.6247  130.8682  149.9169 LP  0  0  0  0  0  0  0  0  0  0  0  0  # atno 17371 bound_to 10713
  140.4933  134.1171  155.7236 LP  0  0  0  0  0  0  0  0  0  0  0  0  # atno 17394 bound_to 11000
  141.1555  133.8890  157.1988 LP  0  0  0  0  0  0  0  0  0  0  0  0  # atno 17395 bound_to 11000

$$$$
