AV-unprocessed.smi:64|AV-procd|sdf|609|dock5
  -GOLD-   2262016503D 1   1.00000     0.00000
 Structure written by MMmdl.
 32 33  0  0  0  0  0  0  0  0  1 V2000
  151.9000  144.5395  159.6189 C   0  0  0  0  0  0  0  0  0  0  0  0
  152.4227  143.1114  159.5251 C   0  0  0  0  0  0  0  0  0  0  0  0
  153.6275  142.8650  159.5817 O   0  0  0  0  0  0  0  0  0  0  0  0
  151.4395  142.2106  159.3795 O   0  0  0  0  0  0  0  0  0  0  0  0
  151.7616  140.8374  159.2309 C   0  0  0  0  0  0  0  0  0  0  0  0
  151.0951  140.2986  157.9626 C   0  0  0  0  0  0  0  0  0  0  0  0
  151.5809  141.0305  156.8492 O   0  0  0  0  0  0  0  0  0  0  0  0
  150.5836  141.7057  156.1591 C   0  0  0  0  0  0  0  0  0  0  0  0
  149.9379  140.7492  155.2821 N   0  0  0  0  0  0  0  0  0  0  0  0
  150.3492  139.4867  154.9348 C   0  0  0  0  0  0  0  0  0  0  0  0
  149.5367  138.8704  154.1217 N   0  0  0  0  0  0  0  0  0  0  0  0
  148.5054  139.7824  153.9137 C   0  0  0  0  0  0  0  0  0  0  0  0
  147.3182  139.6722  153.1139 C   0  0  0  0  0  0  0  0  0  0  0  0
  146.9515  138.7255  152.4209 O   0  0  0  0  0  0  0  0  0  0  0  0
  146.5277  140.8269  153.1812 N   0  0  0  0  0  0  0  0  0  0  0  0
  146.8518  141.9543  153.9328 C   0  0  0  0  0  0  0  0  0  0  0  0
  145.9882  142.9772  153.8894 N   0  0  0  0  0  0  0  0  0  0  0  0
  147.9459  142.0556  154.6666 N   0  0  0  0  0  0  0  0  0  0  0  0
  148.7424  140.9426  154.6251 C   0  0  0  0  0  0  0  0  0  0  0  0
  145.6724  140.8257  152.6453 H   0  0  0  0  0  0  0  0  0  0  0  0
  150.8217  144.5726  159.4606 H   0  0  0  0  0  0  0  0  0  0  0  0
  152.3772  145.1642  158.8638 H   0  0  0  0  0  0  0  0  0  0  0  0
  152.1184  144.9572  160.6017 H   0  0  0  0  0  0  0  0  0  0  0  0
  152.8424  140.6960  159.1840 H   0  0  0  0  0  0  0  0  0  0  0  0
  151.3957  140.2912  160.1014 H   0  0  0  0  0  0  0  0  0  0  0  0
  151.3475  139.2446  157.8388 H   0  0  0  0  0  0  0  0  0  0  0  0
  150.0090  140.3702  158.0405 H   0  0  0  0  0  0  0  0  0  0  0  0
  149.8415  142.1227  156.8426 H   0  0  0  0  0  0  0  0  0  0  0  0
  151.0083  142.5080  155.5531 H   0  0  0  0  0  0  0  0  0  0  0  0
  151.2617  139.0393  155.3014 H   0  0  0  0  0  0  0  0  0  0  0  0
  145.1513  142.9028  153.3289 H   0  0  0  0  0  0  0  0  0  0  0  0
  146.1697  143.8199  154.4153 H   0  0  0  0  0  0  0  0  0  0  0  0
  1  2  1  0  0  0  0
  1 21  1  0  0  0  0
  1 22  1  0  0  0  0
  1 23  1  0  0  0  0
  2  3  2  0  0  0  0
  2  4  1  0  0  0  0
  4  5  1  0  0  0  0
  5  6  1  0  0  0  0
  5 24  1  0  0  0  0
  5 25  1  0  0  0  0
  6  7  1  0  0  0  0
  6 26  1  0  0  0  0
  6 27  1  0  0  0  0
  7  8  1  0  0  0  0
  8  9  1  0  0  0  0
  8 28  1  0  0  0  0
  8 29  1  0  0  0  0
  9 19  1  0  0  0  0
  9 10  1  0  0  0  0
 10 11  2  0  0  0  0
 10 30  1  0  0  0  0
 11 12  1  0  0  0  0
 12 19  2  0  0  0  0
 12 13  1  0  0  0  0
 13 14  2  0  0  0  0
 13 15  1  0  0  0  0
 15 20  1  0  0  0  0
 15 16  1  0  0  0  0
 16 17  1  0  0  0  0
 16 18  2  0  0  0  0
 17 31  1  0  0  0  0
 17 32  1  0  0  0  0
 18 19  1  0  0  0  0
M  END
> <s_m_source_file>
AV-unprocessed.smi

> <i_m_source_file_index>
64

> <i_lp_mmshare_version>
43012

> <i_f3d_flags>
0

> <s_epik_input>
W0NIM11DKD1PKU9bQ0gyXVtDSDJdT1tDSDJdbihbY0hdbjEpYyhjMTIpbmMoW05IMl0pW25IXWMyPU8=

> <s_epik_cmdline>
J2VwaWtfcHl0aG9uJywgJy1waCcsICc3LjAnLCAnLXRuJywgJzgnLCAnLW1hJywgJzIwMCcsICctbWV0YWxfYmluZGluZycsICctaW1hZScsICc8aW5maWxlLm1hZT4nLCAnLW9tYWUnLCAnPG91dGZpbGUubWFlPic=

> <r_lp_tautomer_probability>
1

> <r_epik_Ionization_Penalty>
0.00155449

> <r_epik_Ionization_Penalty_Charging>
0.00148332

> <r_epik_Ionization_Penalty_Neutral>
7.1171e-05

> <r_epik_State_Penalty>
-0

> <r_epik_Charging_Adjusted_Penalty>
0.00148332

> <i_epik_Tot_Q>
0

> <i_epik_Tot_abs_Q>
0

> <r_epik_Metal_State_Penalty>
0.320128

> <b_epik_Metal_Only>
0

> <s_epik_Chemistry_Notes>
This compound has an ester and may undergo hydrolysis at high or low pH. This compound contains an acetal/aminal-like group ( X-CH(R)-Y where X, Y are N, S, or O) that may be acid/base labile, releasing an aldehyde.

> <s_lp_Force_Field>
OPLS_2005

> <r_lp_Energy>
2.66723

> <b_lp_Chiralities_Consistent>
1

> <s_lp_Variant>
AV-unprocessed.smi:64-1

> <Gold.Version>
5.8.1

> <Gold.Id.Protein>
6NUR|6NUR_protein|mol2

> <Gold.PLP.Fitness>
34.6976

> <Gold.PLP.PLP>
-33.6199

> <Gold.PLP.part.hbond>
-1.0000

> <Gold.PLP.part.metal>
0.0000

> <Gold.PLP.part.buried>
-4.6942

> <Gold.PLP.part.nonpolar>
-28.8196

> <Gold.PLP.part.repulsive>
1.6850

> <Gold.PLP.ligand.clash>
0.0000

> <Gold.PLP.ligand.torsion>
1.0009

> <Gold.PLP.Chemscore.Hbond>
1.0000

> <Gold.PLP.Chemscore.CHOScore>
0.0000

> <Gold.PLP.Chemscore.Metal>
0.0000

> <Gold.Chemscore.Hbonds>
donor molecule, donor type, donor heavy atom, donor atom, acceptor molecule, acceptor atom, score
      L1  H    15    20       P1 10175  1.00

> <Gold.PLP.Chemscore.Internal.Correction>
0.0794

> <Gold.Rescore>
     Score         DG    S(hbond)    S(metal)    S(lipo)     H(rot)  DE(clash)    DE(int)     intcor
      1.00      -2.27       0.99        0.00      30.80       3.95       0.26       1.02       ----

> <Gold.Chemscore.Fitness>
0.9983

> <Gold.Chemscore.DG>
-2.2708

> <Gold.Chemscore.ZeroCoef>
-5.4800

> <Gold.Chemscore.Hbond>
0.9890

> <Gold.Chemscore.Metal>
0.0000

> <Gold.Chemscore.Lipo>
30.8045

> <Gold.Chemscore.Internal_Hbond>
0.0000

> <Gold.Chemscore.DEClash>
0.2550

> <Gold.Chemscore.DEInternal>
1.0175

> <Gold.Chemscore.Rot>
3.9518

> <Gold.Chemscore.Internal.Correction>
   9.000000E+99

> <Gold.Chemscore.Hbonds>
donor molecule, donor type, donor heavy atom, donor atom, acceptor molecule, acceptor atom, score
      L1  H    15    20       P1 10175  0.23

> <Gold.Chemscore.Hbond.Weighted>
-3.3032

> <Gold.Chemscore.Metal.Weighted>
-0.0000

> <Gold.Chemscore.Lipo.Weighted>
-3.6041

> <Gold.Chemscore.Internal_Hbond.Weighted>
0.0000

> <Gold.Chemscore.DEClash.Weighted>
0.2550

> <Gold.Chemscore.DEInternal.Weighted>
1.0175

> <Gold.Chemscore.Rot.Weighted>
10.1165

> <Gold.Chemscore.Internal.Correction.Weighted>
   9.000000E+99

> <Gold.Protein.RotatedTorsions>
[ 6907 6896 6895 6894 ] final  162.52 input  -60.11 | X-H torsion
[ 7974 7965 7964 7962 ] final -141.98 input  175.53 | X-H torsion
[ 8008 7997 7996 7995 ] final -177.36 input   59.86 | X-H torsion
[ 10167 10162 10161 10158 ] final  171.67 input  -65.29 | X-H torsion
[ 10718 10713 10712 10709 ] final -158.33 input   66.30 | X-H torsion
[ 10763 10752 10751 10750 ] final  -71.63 input  -60.55 | X-H torsion
[ 11005 11000 10999 10996 ] final  166.46 input  -57.11 | X-H torsion

> <Gold.Protein.ActiveResidues>
 VAL166  LYS551  ARG553  GLY616  TRP617  ASP618  TYR619  PRO620  LYS621  CYS622 
 ASP623  PHE694  ASN695  SER759  ASP760  ASP761  ALA762  ILE779  LEU786  VAL792 
 PHE793  MET794  SER795  GLU796  ALA797  LYS798  CYS799  TRP800  GLU811  SER814 

> <Gold.Protein.RotatedAtoms>
  151.9392  133.3633  159.3958 H   0  0  0  0  0  0  0  0  0  0  0  0  # atno 6907 bound_to 6896
  150.7001  134.4457  159.5322 H   0  0  0  0  0  0  0  0  0  0  0  0  # atno 6908 bound_to 6896
  152.2111  134.8501  160.0548 H   0  0  0  0  0  0  0  0  0  0  0  0  # atno 6909 bound_to 6896
  144.8478  140.6014  143.5410 H   0  0  0  0  0  0  0  0  0  0  0  0  # atno 7974 bound_to 7965
  156.0061  140.1230  157.0500 H   0  0  0  0  0  0  0  0  0  0  0  0  # atno 8008 bound_to 7997
  154.4259  140.1097  156.5833 H   0  0  0  0  0  0  0  0  0  0  0  0  # atno 8009 bound_to 7997
  155.6146  140.3472  155.4635 H   0  0  0  0  0  0  0  0  0  0  0  0  # atno 8010 bound_to 7997
  139.5053  144.3460  151.9971 H   0  0  0  0  0  0  0  0  0  0  0  0  # atno 10167 bound_to 10162
  156.5527  130.8612  151.2785 H   0  0  0  0  0  0  0  0  0  0  0  0  # atno 10718 bound_to 10713
  154.4344  135.5956  153.6089 H   0  0  0  0  0  0  0  0  0  0  0  0  # atno 10763 bound_to 10752
  152.9801  135.5983  154.3799 H   0  0  0  0  0  0  0  0  0  0  0  0  # atno 10764 bound_to 10752
  154.3641  135.2841  155.2282 H   0  0  0  0  0  0  0  0  0  0  0  0  # atno 10765 bound_to 10752
  140.2666  134.7860  157.3638 H   0  0  0  0  0  0  0  0  0  0  0  0  # atno 11005 bound_to 11000
  145.4561  139.1518  143.3892 LP  0  0  0  0  0  0  0  0  0  0  0  0  # atno 17320 bound_to 7965
  146.2759  140.4689  142.8795 LP  0  0  0  0  0  0  0  0  0  0  0  0  # atno 17321 bound_to 7965
  140.2897  144.3767  150.6092 LP  0  0  0  0  0  0  0  0  0  0  0  0  # atno 17342 bound_to 10162
  140.5956  143.2167  151.7171 LP  0  0  0  0  0  0  0  0  0  0  0  0  # atno 17343 bound_to 10162
  157.7384  130.9813  150.2252 LP  0  0  0  0  0  0  0  0  0  0  0  0  # atno 17370 bound_to 10713
  156.2870  130.3740  149.7879 LP  0  0  0  0  0  0  0  0  0  0  0  0  # atno 17371 bound_to 10713
  140.1413  134.4968  155.8029 LP  0  0  0  0  0  0  0  0  0  0  0  0  # atno 17394 bound_to 11000
  141.2183  133.6826  156.7215 LP  0  0  0  0  0  0  0  0  0  0  0  0  # atno 17395 bound_to 11000

$$$$
