AV-unprocessed.smi:3056|AV-procd|sdf|11647|dock5
  -GOLD-   2272017 43D 1   1.00000     0.00000
 Structure written by MMmdl.
 48 49  0  0  0  0  0  0  0  0  2 V2000
  144.7549  131.7784  149.5272 C   0  0  0  0  0  0  0  0  0  0  0  0
  145.5807  132.4147  150.6077 C   0  0  0  0  0  0  0  0  0  0  0  0
  145.1373  133.2533  151.6691 C   0  0  0  0  0  0  0  0  0  0  0  0
  146.1232  133.6450  152.4589 N   0  0  0  0  0  0  0  0  0  0  0  0
  147.2308  133.0851  151.9269 N   0  0  0  0  0  0  0  0  0  0  0  0
  148.5226  133.2883  152.5723 C   0  0  2  0  0  0  0  0  0  0  0  0
  149.1470  131.9269  152.9301 C   0  0  0  0  0  0  0  0  0  0  0  0
  148.3918  134.2393  153.7939 C   0  0  1  0  0  0  0  0  0  0  0  0
  148.0220  133.5148  155.1021 C   0  0  0  0  0  0  0  0  0  0  0  0
  149.5925  135.0954  153.9777 N   0  3  0  0  0  0  0  0  0  0  0  0
  149.6863  135.8617  155.2427 C   0  0  0  0  0  0  0  0  0  0  0  0
  150.9864  136.6744  155.3326 C   0  0  0  0  0  0  0  0  0  0  0  0
  151.9472  136.1932  155.9361 O   0  0  0  0  0  0  0  0  0  0  0  0
  151.0379  137.8956  154.7491 N   0  0  0  0  0  0  0  0  0  0  0  0
  152.2084  138.7734  154.8253 C   0  0  0  0  0  0  0  0  0  0  0  0
  151.8141  140.0360  155.6119 C   0  0  0  0  0  0  0  0  0  0  0  0
  150.7055  140.6708  154.9780 O   0  0  0  0  0  0  0  0  0  0  0  0
  149.5574  139.8309  154.8645 C   0  0  1  0  0  0  0  0  0  0  0  0
  148.4382  140.6345  154.1934 C   0  0  0  0  0  0  0  0  0  0  0  0
  149.9347  138.5712  154.0589 C   0  0  0  0  0  0  0  0  0  0  0  0
  146.9287  132.3302  150.8111 C   0  0  0  0  0  0  0  0  0  0  0  0
  143.7032  132.0553  149.6039 H   0  0  0  0  0  0  0  0  0  0  0  0
  144.8046  130.6904  149.5707 H   0  0  0  0  0  0  0  0  0  0  0  0
  145.0935  132.0772  148.5350 H   0  0  0  0  0  0  0  0  0  0  0  0
  144.1330  133.5835  151.8901 H   0  0  0  0  0  0  0  0  0  0  0  0
  149.1878  133.7502  151.8412 H   0  0  0  0  0  0  0  0  0  0  0  0
  150.1785  132.0340  153.2647 H   0  0  0  0  0  0  0  0  0  0  0  0
  149.1618  131.2652  152.0631 H   0  0  0  0  0  0  0  0  0  0  0  0
  148.5906  131.4238  153.7216 H   0  0  0  0  0  0  0  0  0  0  0  0
  147.5829  134.9387  153.5788 H   0  0  0  0  0  0  0  0  0  0  0  0
  147.0305  133.0663  155.0426 H   0  0  0  0  0  0  0  0  0  0  0  0
  148.0070  134.2081  155.9438 H   0  0  0  0  0  0  0  0  0  0  0  0
  148.7284  132.7182  155.3366 H   0  0  0  0  0  0  0  0  0  0  0  0
  150.4066  134.4998  153.9221 H   0  0  0  0  0  0  0  0  0  0  0  0
  148.8391  136.5433  155.3177 H   0  0  0  0  0  0  0  0  0  0  0  0
  149.6487  135.1788  156.0906 H   0  0  0  0  0  0  0  0  0  0  0  0
  153.0692  138.2979  155.2974 H   0  0  0  0  0  0  0  0  0  0  0  0
  152.5265  139.0416  153.8168 H   0  0  0  0  0  0  0  0  0  0  0  0
  151.5620  139.7875  156.6440 H   0  0  0  0  0  0  0  0  0  0  0  0
  152.6492  140.7356  155.6464 H   0  0  0  0  0  0  0  0  0  0  0  0
  149.2277  139.5426  155.8645 H   0  0  0  0  0  0  0  0  0  0  0  0
  147.5316  140.0374  154.0930 H   0  0  0  0  0  0  0  0  0  0  0  0
  148.7327  140.9669  153.1975 H   0  0  0  0  0  0  0  0  0  0  0  0
  148.1883  141.5195  154.7793 H   0  0  0  0  0  0  0  0  0  0  0  0
  150.2597  138.8496  153.0551 H   0  0  0  0  0  0  0  0  0  0  0  0
  149.0548  137.9451  153.9200 H   0  0  0  0  0  0  0  0  0  0  0  0
  147.6898  131.7976  150.2596 H   0  0  0  0  0  0  0  0  0  0  0  0
  149.6351  135.7550  153.2138 H   0  0  0  0  0  0  0  0  0  0  0  0
  1  2  1  0  0  0  0
  1 22  1  0  0  0  0
  1 23  1  0  0  0  0
  1 24  1  0  0  0  0
  2 21  2  0  0  0  0
  2  3  1  0  0  0  0
  3  4  2  0  0  0  0
  3 25  1  0  0  0  0
  4  5  1  0  0  0  0
  5  6  1  0  0  0  0
  5 21  1  0  0  0  0
  6  7  1  0  0  0  0
  6  8  1  0  0  0  0
  6 26  1  0  0  0  0
  7 27  1  0  0  0  0
  7 28  1  0  0  0  0
  7 29  1  0  0  0  0
  8  9  1  0  0  0  0
  8 10  1  0  0  0  0
  8 30  1  0  0  0  0
  9 31  1  0  0  0  0
  9 32  1  0  0  0  0
  9 33  1  0  0  0  0
 10 11  1  0  0  0  0
 10 34  1  0  0  0  0
 10 48  1  0  0  0  0
 11 12  1  0  0  0  0
 11 35  1  0  0  0  0
 11 36  1  0  0  0  0
 12 13  2  0  0  0  0
 12 14  1  0  0  0  0
 14 20  1  0  0  0  0
 14 15  1  0  0  0  0
 15 16  1  0  0  0  0
 15 37  1  0  0  0  0
 15 38  1  0  0  0  0
 16 17  1  0  0  0  0
 16 39  1  0  0  0  0
 16 40  1  0  0  0  0
 17 18  1  0  0  0  0
 18 19  1  0  0  0  0
 18 20  1  0  0  0  0
 18 41  1  0  0  0  0
 19 42  1  0  0  0  0
 19 43  1  0  0  0  0
 19 44  1  0  0  0  0
 20 45  1  0  0  0  0
 20 46  1  0  0  0  0
 21 47  1  0  0  0  0
M  CHG  1  10   1
M  END
> <s_m_source_file>
AV-unprocessed.smi

> <i_m_source_file_index>
3056

> <i_lp_mmshare_version>
43012

> <i_f3d_flags>
0

> <s_epik_input>
W0NIM11jMVtjSF1ubihbY0hdMSlbQ0BIXShbQ0gzXSlbQ0BIXShbQ0gzXSlbTkhdW0NIMl1DKD1PKU4yW0NIMl1bQ0gyXU9bQ0BASF0oW0NIM10pW0NIMl0y

> <s_epik_cmdline>
J2VwaWtfcHl0aG9uJywgJy1waCcsICc3LjAnLCAnLXRuJywgJzgnLCAnLW1hJywgJzIwMCcsICctbWV0YWxfYmluZGluZycsICctaW1hZScsICc8aW5maWxlLm1hZT4nLCAnLW9tYWUnLCAnPG91dGZpbGUubWFlPic=

> <r_lp_tautomer_probability>
1

> <r_epik_Ionization_Penalty>
0.233715

> <r_epik_Ionization_Penalty_Charging>
0.233698

> <r_epik_Ionization_Penalty_Neutral>
1.68157e-05

> <r_epik_State_Penalty>
0.225221

> <r_epik_Charging_Adjusted_Penalty>
0.458919

> <i_epik_Tot_Q>
1

> <i_epik_Tot_abs_Q>
1

> <r_epik_Metal_State_Penalty>
0.225535

> <b_epik_Metal_Only>
0

> <s_lp_Force_Field>
OPLS_2005

> <r_lp_Energy>
27.3139

> <b_lp_Chiralities_Consistent>
1

> <s_lp_Variant>
AV-unprocessed.smi:3056-3

> <Gold.Version>
5.8.1

> <Gold.Id.Protein>
6NUR|6NUR_protein|mol2

> <Gold.PLP.Fitness>
52.6497

> <Gold.PLP.PLP>
-39.8810

> <Gold.PLP.part.hbond>
-3.0000

> <Gold.PLP.part.metal>
0.0000

> <Gold.PLP.part.buried>
-2.7663

> <Gold.PLP.part.nonpolar>
-34.3200

> <Gold.PLP.part.repulsive>
0.1886

> <Gold.PLP.ligand.clash>
0.0000

> <Gold.PLP.ligand.torsion>
1.1813

> <Gold.PLP.Chemscore.Hbond>
4.0000

> <Gold.PLP.Chemscore.CHOScore>
1.0000

> <Gold.PLP.Chemscore.Metal>
0.0000

> <Gold.Chemscore.Hbonds>
donor molecule, donor type, donor heavy atom, donor atom, acceptor molecule, acceptor atom, score
      L1  H    10    48       P1  7948  1.11
      P1  H  7989  7998       L1    17  0.51
      P1  H 10752 10763       L1    13  1.00

> <Gold.PLP.Chemscore.Internal.Correction>
0.1314

> <Gold.Rescore>
     Score         DG    S(hbond)    S(metal)    S(lipo)     H(rot)  DE(clash)    DE(int)     intcor
     17.02     -18.71       2.33        0.00      84.42       1.74       0.05       1.64       ----

> <Gold.Chemscore.Fitness>
17.0217

> <Gold.Chemscore.DG>
-18.7088

> <Gold.Chemscore.ZeroCoef>
-5.4800

> <Gold.Chemscore.Hbond>
2.3336

> <Gold.Chemscore.Metal>
0.0000

> <Gold.Chemscore.Lipo>
84.4201

> <Gold.Chemscore.Internal_Hbond>
0.0000

> <Gold.Chemscore.DEClash>
0.0484

> <Gold.Chemscore.DEInternal>
1.6387

> <Gold.Chemscore.Rot>
1.7354

> <Gold.Chemscore.Internal.Correction>
   9.000000E+99

> <Gold.Chemscore.Hbonds>
donor molecule, donor type, donor heavy atom, donor atom, acceptor molecule, acceptor atom, score
      L1  H    10    48       P1  7948  0.04
      P1  H  7989  7998       L1    17  0.03
      P1  H 10752 10763       L1    13  0.65

> <Gold.Chemscore.Hbond.Weighted>
-7.7942

> <Gold.Chemscore.Metal.Weighted>
-0.0000

> <Gold.Chemscore.Lipo.Weighted>
-9.8771

> <Gold.Chemscore.Internal_Hbond.Weighted>
0.0000

> <Gold.Chemscore.DEClash.Weighted>
0.0484

> <Gold.Chemscore.DEInternal.Weighted>
1.6387

> <Gold.Chemscore.Rot.Weighted>
4.4426

> <Gold.Chemscore.Internal.Correction.Weighted>
   9.000000E+99

> <Gold.Protein.RotatedTorsions>
[ 6907 6896 6895 6894 ] final  -24.03 input  -60.11 | X-H torsion
[ 7974 7965 7964 7962 ] final  125.38 input  175.53 | X-H torsion
[ 8008 7997 7996 7995 ] final  -75.92 input   59.86 | X-H torsion
[ 10167 10162 10161 10158 ] final  -58.70 input  -65.29 | X-H torsion
[ 10718 10713 10712 10709 ] final  -34.32 input   66.30 | X-H torsion
[ 10763 10752 10751 10750 ] final   71.32 input  -60.55 | X-H torsion
[ 11005 11000 10999 10996 ] final -143.32 input  -57.11 | X-H torsion

> <Gold.Protein.ActiveResidues>
 VAL166  LYS551  ARG553  GLY616  TRP617  ASP618  TYR619  PRO620  LYS621  CYS622 
 ASP623  PHE694  ASN695  SER759  ASP760  ASP761  ALA762  ILE779  LEU786  VAL792 
 PHE793  MET794  SER795  GLU796  ALA797  LYS798  CYS799  TRP800  GLU811  SER814 

> <Gold.Protein.RotatedAtoms>
  151.1954  135.0420  159.8849 H   0  0  0  0  0  0  0  0  0  0  0  0  # atno 6907 bound_to 6896
  152.5436  134.0909  159.8286 H   0  0  0  0  0  0  0  0  0  0  0  0  # atno 6908 bound_to 6896
  151.1043  133.5173  159.2640 H   0  0  0  0  0  0  0  0  0  0  0  0  # atno 6909 bound_to 6896
  145.0737  139.3710  143.4944 H   0  0  0  0  0  0  0  0  0  0  0  0  # atno 7974 bound_to 7965
  154.5459  140.0736  156.8589 H   0  0  0  0  0  0  0  0  0  0  0  0  # atno 8008 bound_to 7997
  155.3087  140.3389  155.4226 H   0  0  0  0  0  0  0  0  0  0  0  0  # atno 8009 bound_to 7997
  156.1918  140.1689  156.8063 H   0  0  0  0  0  0  0  0  0  0  0  0  # atno 8010 bound_to 7997
  140.6181  143.2409  151.5548 H   0  0  0  0  0  0  0  0  0  0  0  0  # atno 10167 bound_to 10162
  156.3520  130.4310  149.7696 H   0  0  0  0  0  0  0  0  0  0  0  0  # atno 10718 bound_to 10713
  153.0392  135.5141  154.7575 H   0  0  0  0  0  0  0  0  0  0  0  0  # atno 10763 bound_to 10752
  154.6526  135.2927  154.9970 H   0  0  0  0  0  0  0  0  0  0  0  0  # atno 10764 bound_to 10752
  154.0848  135.6659  153.4896 H   0  0  0  0  0  0  0  0  0  0  0  0  # atno 10765 bound_to 10752
  140.8137  134.2713  157.4930 H   0  0  0  0  0  0  0  0  0  0  0  0  # atno 11005 bound_to 11000
  146.3529  140.0494  142.8637 LP  0  0  0  0  0  0  0  0  0  0  0  0  # atno 17320 bound_to 7965
  145.1261  140.9491  143.4571 LP  0  0  0  0  0  0  0  0  0  0  0  0  # atno 17321 bound_to 7965
  139.5415  144.2634  152.1360 LP  0  0  0  0  0  0  0  0  0  0  0  0  # atno 17342 bound_to 10162
  140.1848  144.4809  150.6509 LP  0  0  0  0  0  0  0  0  0  0  0  0  # atno 17343 bound_to 10162
  156.4893  130.8077  151.3088 LP  0  0  0  0  0  0  0  0  0  0  0  0  # atno 17370 bound_to 10713
  157.7462  130.9980  150.2838 LP  0  0  0  0  0  0  0  0  0  0  0  0  # atno 17371 bound_to 10713
  139.8712  134.9497  156.4034 LP  0  0  0  0  0  0  0  0  0  0  0  0  # atno 17394 bound_to 11000
  140.9171  133.7671  155.9861 LP  0  0  0  0  0  0  0  0  0  0  0  0  # atno 17395 bound_to 11000

$$$$
