AV-unprocessed.smi:2358|AV-procd|sdf|9405|dock5
  -GOLD-   2272013 43D 1   1.00000     0.00000
 Structure written by MMmdl.
 46 48  0  0  0  0  0  0  0  0  2 V2000
  151.9661  144.6206  158.0285 C   0  0  0  0  0  0  0  0  0  0  0  0
  152.2218  143.5231  159.0409 C   0  0  0  0  0  0  0  0  0  0  0  0
  152.5175  143.8454  160.3804 C   0  0  0  0  0  0  0  0  0  0  0  0
  152.7493  142.8210  161.3184 C   0  0  0  0  0  0  0  0  0  0  0  0
  153.0671  143.1745  162.7566 C   0  0  0  0  0  0  0  0  0  0  0  0
  152.6849  141.4726  160.9120 C   0  0  0  0  0  0  0  0  0  0  0  0
  152.3908  141.1326  159.5756 C   0  0  0  0  0  0  0  0  0  0  0  0
  152.3476  139.7896  159.2680 O   0  0  0  0  0  0  0  0  0  0  0  0
  151.7576  139.3988  158.0352 C   0  0  0  0  0  0  0  0  0  0  0  0
  152.4370  138.1092  157.5453 C   0  0  2  0  0  0  0  0  0  0  0  0
  153.8264  138.2552  157.7694 O   0  0  0  0  0  0  0  0  0  0  0  0
  152.2243  137.8853  156.0316 C   0  0  0  0  0  0  0  0  0  0  0  0
  150.7999  137.8375  155.6807 N   0  0  0  0  0  0  0  0  0  0  0  0
  150.2766  139.0582  155.2936 N   0  0  0  0  0  0  0  0  0  0  0  0
  149.0376  139.1662  154.9357 C   0  0  0  0  0  0  0  0  0  0  0  0
  148.4429  140.4211  154.5071 N   0  0  0  0  0  0  0  0  0  0  0  0
  147.3177  140.6569  153.7540 C   0  0  0  0  0  0  0  0  0  0  0  0
  147.2122  142.0198  153.6404 C   0  0  0  0  0  0  0  0  0  0  0  0
  148.2717  142.5545  154.3254 N   0  3  0  0  0  0  0  0  0  0  0  0
  149.0222  141.5818  154.8538 C   0  0  0  0  0  0  0  0  0  0  0  0
  148.1757  137.9943  154.9500 C   0  0  0  0  0  0  0  0  0  0  0  0
  148.6966  136.8066  155.3269 C   0  0  0  0  0  0  0  0  0  0  0  0
  150.0974  136.6669  155.7206 C   0  0  0  0  0  0  0  0  0  0  0  0
  150.6006  135.5941  156.0521 O   0  0  0  0  0  0  0  0  0  0  0  0
  152.1587  142.1728  158.6406 C   0  0  0  0  0  0  0  0  0  0  0  0
  152.2192  145.6014  158.4325 H   0  0  0  0  0  0  0  0  0  0  0  0
  150.9142  144.6296  157.7425 H   0  0  0  0  0  0  0  0  0  0  0  0
  152.5647  144.4583  157.1319 H   0  0  0  0  0  0  0  0  0  0  0  0
  152.5664  144.8790  160.6911 H   0  0  0  0  0  0  0  0  0  0  0  0
  153.1135  142.2846  163.3852 H   0  0  0  0  0  0  0  0  0  0  0  0
  152.3016  143.8365  163.1621 H   0  0  0  0  0  0  0  0  0  0  0  0
  154.0289  143.6844  162.8154 H   0  0  0  0  0  0  0  0  0  0  0  0
  152.8625  140.6855  161.6304 H   0  0  0  0  0  0  0  0  0  0  0  0
  150.6984  139.2042  158.2123 H   0  0  0  0  0  0  0  0  0  0  0  0
  151.8311  140.1882  157.2847 H   0  0  0  0  0  0  0  0  0  0  0  0
  152.0546  137.2596  158.1129 H   0  0  0  0  0  0  0  0  0  0  0  0
  154.0386  137.8610  158.6016 H   0  0  0  0  0  0  0  0  0  0  0  0
  152.6945  138.6917  155.4658 H   0  0  0  0  0  0  0  0  0  0  0  0
  152.7383  136.9805  155.7008 H   0  0  0  0  0  0  0  0  0  0  0  0
  146.6847  139.8762  153.3594 H   0  0  0  0  0  0  0  0  0  0  0  0
  146.4805  142.6336  153.1351 H   0  0  0  0  0  0  0  0  0  0  0  0
  149.9148  141.7221  155.4383 H   0  0  0  0  0  0  0  0  0  0  0  0
  147.1371  138.0532  154.6652 H   0  0  0  0  0  0  0  0  0  0  0  0
  148.0620  135.9326  155.3367 H   0  0  0  0  0  0  0  0  0  0  0  0
  151.9279  141.9585  157.6081 H   0  0  0  0  0  0  0  0  0  0  0  0
  148.4625  143.5445  154.4192 H   0  0  0  0  0  0  0  0  0  0  0  0
  1  2  1  0  0  0  0
  1 26  1  0  0  0  0
  1 27  1  0  0  0  0
  1 28  1  0  0  0  0
  2 25  1  0  0  0  0
  2  3  2  0  0  0  0
  3  4  1  0  0  0  0
  3 29  1  0  0  0  0
  4  5  1  0  0  0  0
  4  6  2  0  0  0  0
  5 30  1  0  0  0  0
  5 31  1  0  0  0  0
  5 32  1  0  0  0  0
  6  7  1  0  0  0  0
  6 33  1  0  0  0  0
  7  8  1  0  0  0  0
  7 25  2  0  0  0  0
  8  9  1  0  0  0  0
  9 10  1  0  0  0  0
  9 34  1  0  0  0  0
  9 35  1  0  0  0  0
 10 11  1  0  0  0  0
 10 12  1  0  0  0  0
 10 36  1  0  0  0  0
 11 37  1  0  0  0  0
 12 13  1  0  0  0  0
 12 38  1  0  0  0  0
 12 39  1  0  0  0  0
 13 23  1  0  0  0  0
 13 14  1  0  0  0  0
 14 15  2  0  0  0  0
 15 16  1  0  0  0  0
 15 21  1  0  0  0  0
 16 20  1  0  0  0  0
 16 17  1  0  0  0  0
 17 18  2  0  0  0  0
 17 40  1  0  0  0  0
 18 19  1  0  0  0  0
 18 41  1  0  0  0  0
 19 20  2  0  0  0  0
 19 46  1  0  0  0  0
 20 42  1  0  0  0  0
 21 22  2  0  0  0  0
 21 43  1  0  0  0  0
 22 23  1  0  0  0  0
 22 44  1  0  0  0  0
 23 24  2  0  0  0  0
 25 45  1  0  0  0  0
M  CHG  1  19   1
M  END
> <s_m_source_file>
AV-unprocessed.smi

> <i_m_source_file_index>
2358

> <i_lp_mmshare_version>
43012

> <i_f3d_flags>
0

> <s_epik_input>
W0NIM11jMVtjSF1jKFtDSDNdKVtjSF1jKFtjSF0xKU9bQ0gyXVtDQEhdKFtPSF0pW0NIMl1uMm5jKFtjSF1bY0hdYzI9TyktbjNbY0hdW2NIXW5bY0hdMw==

> <s_epik_cmdline>
J2VwaWtfcHl0aG9uJywgJy1waCcsICc3LjAnLCAnLXRuJywgJzgnLCAnLW1hJywgJzIwMCcsICctbWV0YWxfYmluZGluZycsICctaW1hZScsICc8aW5maWxlLm1hZT4nLCAnLW9tYWUnLCAnPG91dGZpbGUubWFlPic=

> <r_lp_tautomer_probability>
1

> <r_epik_Ionization_Penalty>
1.66053

> <r_epik_Ionization_Penalty_Charging>
2.42216e-09

> <r_epik_Ionization_Penalty_Neutral>
1.66053

> <r_epik_State_Penalty>
1.76336

> <r_epik_Charging_Adjusted_Penalty>
1.76336

> <i_epik_Tot_Q>
1

> <i_epik_Tot_abs_Q>
1

> <r_epik_Metal_State_Penalty>
1.79856

> <b_epik_Metal_Only>
0

> <s_lp_Force_Field>
OPLS_2005

> <r_lp_Energy>
37.8442

> <b_lp_Chiralities_Consistent>
1

> <s_lp_Variant>
AV-unprocessed.smi:2358-3

> <Gold.Version>
5.8.1

> <Gold.Id.Protein>
6NUR|6NUR_protein|mol2

> <Gold.PLP.Fitness>
60.3969

> <Gold.PLP.PLP>
-51.5557

> <Gold.PLP.part.hbond>
-2.1629

> <Gold.PLP.part.metal>
0.0000

> <Gold.PLP.part.buried>
-6.9563

> <Gold.PLP.part.nonpolar>
-44.1247

> <Gold.PLP.part.repulsive>
0.5180

> <Gold.PLP.ligand.clash>
0.0000

> <Gold.PLP.ligand.torsion>
1.0977

> <Gold.PLP.Chemscore.Hbond>
3.6236

> <Gold.PLP.Chemscore.CHOScore>
0.0000

> <Gold.PLP.Chemscore.Metal>
0.0000

> <Gold.Chemscore.Hbonds>
donor molecule, donor type, donor heavy atom, donor atom, acceptor molecule, acceptor atom, score
      L1  H    19    46       P1  8028  1.66
      P1  H  7997  8008       L1    11  0.76

> <Gold.PLP.Chemscore.Internal.Correction>
0.1658

> <Gold.Rescore>
     Score         DG    S(hbond)    S(metal)    S(lipo)     H(rot)  DE(clash)    DE(int)     intcor
     19.25     -20.49       2.22        0.00     122.87       2.65       0.05       1.18       ----

> <Gold.Chemscore.Fitness>
19.2510

> <Gold.Chemscore.DG>
-20.4879

> <Gold.Chemscore.ZeroCoef>
-5.4800

> <Gold.Chemscore.Hbond>
2.2232

> <Gold.Chemscore.Metal>
0.0000

> <Gold.Chemscore.Lipo>
122.8698

> <Gold.Chemscore.Internal_Hbond>
0.0000

> <Gold.Chemscore.DEClash>
0.0538

> <Gold.Chemscore.DEInternal>
1.1832

> <Gold.Chemscore.Rot>
2.6537

> <Gold.Chemscore.Internal.Correction>
   9.000000E+99

> <Gold.Chemscore.Hbonds>
donor molecule, donor type, donor heavy atom, donor atom, acceptor molecule, acceptor atom, score
      L1  H    19    46       P1  8028  0.83
      P1  H  7997  8008       L1    11  0.54

> <Gold.Chemscore.Hbond.Weighted>
-7.4256

> <Gold.Chemscore.Metal.Weighted>
-0.0000

> <Gold.Chemscore.Lipo.Weighted>
-14.3758

> <Gold.Chemscore.Internal_Hbond.Weighted>
0.0000

> <Gold.Chemscore.DEClash.Weighted>
0.0538

> <Gold.Chemscore.DEInternal.Weighted>
1.1832

> <Gold.Chemscore.Rot.Weighted>
6.7935

> <Gold.Chemscore.Internal.Correction.Weighted>
   9.000000E+99

> <Gold.Protein.RotatedTorsions>
[ 6907 6896 6895 6894 ] final   97.53 input  -60.11 | X-H torsion
[ 7974 7965 7964 7962 ] final  -99.43 input  175.53 | X-H torsion
[ 8008 7997 7996 7995 ] final  -75.00 input   59.86 | X-H torsion
[ 10167 10162 10161 10158 ] final  -31.22 input  -65.29 | X-H torsion
[ 10718 10713 10712 10709 ] final  108.73 input   66.30 | X-H torsion
[ 10763 10752 10751 10750 ] final   66.97 input  -60.55 | X-H torsion
[ 11005 11000 10999 10996 ] final -102.12 input  -57.11 | X-H torsion

> <Gold.Protein.ActiveResidues>
 VAL166  LYS551  ARG553  GLY616  TRP617  ASP618  TYR619  PRO620  LYS621  CYS622 
 ASP623  PHE694  ASN695  SER759  ASP760  ASP761  ALA762  ILE779  LEU786  VAL792 
 PHE793  MET794  SER795  GLU796  ALA797  LYS798  CYS799  TRP800  GLU811  SER814 

> <Gold.Protein.RotatedAtoms>
  152.5422  134.0718  159.8197 H   0  0  0  0  0  0  0  0  0  0  0  0  # atno 6907 bound_to 6896
  151.0832  133.5366  159.2626 H   0  0  0  0  0  0  0  0  0  0  0  0  # atno 6908 bound_to 6896
  151.2186  135.0518  159.8994 H   0  0  0  0  0  0  0  0  0  0  0  0  # atno 6909 bound_to 6896
  145.3077  140.9393  143.2787 H   0  0  0  0  0  0  0  0  0  0  0  0  # atno 7974 bound_to 7965
  154.5379  140.0751  156.8459 H   0  0  0  0  0  0  0  0  0  0  0  0  # atno 8008 bound_to 7997
  155.3241  140.3398  155.4222 H   0  0  0  0  0  0  0  0  0  0  0  0  # atno 8009 bound_to 7997
  156.1846  140.1664  156.8196 H   0  0  0  0  0  0  0  0  0  0  0  0  # atno 8010 bound_to 7997
  140.7239  143.3788  151.1640 H   0  0  0  0  0  0  0  0  0  0  0  0  # atno 10167 bound_to 10162
  157.6573  131.0899  150.6348 H   0  0  0  0  0  0  0  0  0  0  0  0  # atno 10718 bound_to 10713
  153.0164  135.5301  154.6907 H   0  0  0  0  0  0  0  0  0  0  0  0  # atno 10763 bound_to 10752
  154.6042  135.2871  155.0505 H   0  0  0  0  0  0  0  0  0  0  0  0  # atno 10764 bound_to 10752
  154.1550  135.6557  153.5025 H   0  0  0  0  0  0  0  0  0  0  0  0  # atno 10765 bound_to 10752
  141.1202  133.8533  157.1319 H   0  0  0  0  0  0  0  0  0  0  0  0  # atno 11005 bound_to 11000
  144.9041  139.4612  143.6618 LP  0  0  0  0  0  0  0  0  0  0  0  0  # atno 17320 bound_to 7965
  146.3129  139.7812  142.9006 LP  0  0  0  0  0  0  0  0  0  0  0  0  # atno 17321 bound_to 7965
  139.7373  143.8979  152.3039 LP  0  0  0  0  0  0  0  0  0  0  0  0  # atno 17342 bound_to 10162
  139.8788  144.7029  150.8901 LP  0  0  0  0  0  0  0  0  0  0  0  0  # atno 17343 bound_to 10162
  156.6654  130.4524  149.5674 LP  0  0  0  0  0  0  0  0  0  0  0  0  # atno 17370 bound_to 10713
  156.2036  130.6635  151.1194 LP  0  0  0  0  0  0  0  0  0  0  0  0  # atno 17371 bound_to 10713
  140.0154  134.9969  157.0483 LP  0  0  0  0  0  0  0  0  0  0  0  0  # atno 17394 bound_to 11000
  140.4528  134.1564  155.7183 LP  0  0  0  0  0  0  0  0  0  0  0  0  # atno 17395 bound_to 11000

$$$$
