AV-unprocessed.smi:595|AV-procd|sdf|3018|dock7
  -GOLD-   2262023523D 1   1.00000     0.00000
 Structure written by MMmdl.
 39 40  0  0  0  0  0  0  0  0  1 V2000
  150.2748  139.8081  154.5920 O   0  0  0  0  0  0  0  0  0  0  0  0
  150.0915  140.3925  155.6630 C   0  0  0  0  0  0  0  0  0  0  0  0
  150.7232  141.7732  155.8969 C   0  0  0  0  0  0  0  0  0  0  0  0
  151.4145  141.8718  157.1930 N   0  0  0  0  0  0  0  0  0  0  0  0
  151.1749  143.0340  157.9523 C   0  0  0  0  0  0  0  0  0  0  0  0
  151.7278  143.2471  159.1617 C   0  0  0  0  0  0  0  0  0  0  0  0
  151.4887  144.5345  159.9352 C   0  0  0  0  0  0  0  0  0  0  0  0
  150.1922  144.7044  160.1954 F   0  0  0  0  0  0  0  0  0  0  0  0
  152.1516  144.5311  161.0924 F   0  0  0  0  0  0  0  0  0  0  0  0
  151.9089  145.5771  159.2202 F   0  0  0  0  0  0  0  0  0  0  0  0
  152.6322  142.2229  159.6464 C   0  0  0  0  0  0  0  0  0  0  0  0
  152.8771  141.1083  158.9303 C   0  0  0  0  0  0  0  0  0  0  0  0
  152.2447  140.8777  157.6293 C   0  0  0  0  0  0  0  0  0  0  0  0
  152.4482  139.8550  156.9751 O   0  0  0  0  0  0  0  0  0  0  0  0
  149.3571  139.9236  156.6983 N   0  0  0  0  0  0  0  0  0  0  0  0
  148.6678  138.7677  156.8504 C   0  0  0  0  0  0  0  0  0  0  0  0
  148.3545  138.0934  155.8705 O   0  0  0  0  0  0  0  0  0  0  0  0
  148.3508  138.4007  158.1065 N   0  0  0  0  0  0  0  0  0  0  0  0
  147.9882  137.0506  158.5268 C   0  0  0  0  0  0  0  0  0  0  0  0
  146.5365  137.0193  159.0370 C   0  0  0  0  0  0  0  0  0  0  0  0
  146.6304  136.8745  160.5557 C   0  0  0  0  0  0  0  0  0  0  0  0
  147.8988  136.0551  160.7714 C   0  0  0  0  0  0  0  0  0  0  0  0
  148.8650  136.5623  159.6992 C   0  0  0  0  0  0  0  0  0  0  0  0
  151.3939  141.9919  155.0646 H   0  0  0  0  0  0  0  0  0  0  0  0
  149.9490  142.5409  155.8435 H   0  0  0  0  0  0  0  0  0  0  0  0
  150.5045  143.7419  157.4861 H   0  0  0  0  0  0  0  0  0  0  0  0
  153.1190  142.3487  160.6024 H   0  0  0  0  0  0  0  0  0  0  0  0
  153.5554  140.3654  159.3235 H   0  0  0  0  0  0  0  0  0  0  0  0
  149.3139  140.5400  157.4966 H   0  0  0  0  0  0  0  0  0  0  0  0
  148.3651  139.1124  158.8237 H   0  0  0  0  0  0  0  0  0  0  0  0
  148.0779  136.3711  157.6773 H   0  0  0  0  0  0  0  0  0  0  0  0
  145.9537  137.8933  158.7421 H   0  0  0  0  0  0  0  0  0  0  0  0
  146.0310  136.1444  158.6262 H   0  0  0  0  0  0  0  0  0  0  0  0
  146.7452  137.8578  161.0135 H   0  0  0  0  0  0  0  0  0  0  0  0
  145.7472  136.4044  160.9889 H   0  0  0  0  0  0  0  0  0  0  0  0
  148.2997  136.1569  161.7801 H   0  0  0  0  0  0  0  0  0  0  0  0
  147.6849  134.9989  160.6028 H   0  0  0  0  0  0  0  0  0  0  0  0
  149.5699  135.7897  159.3905 H   0  0  0  0  0  0  0  0  0  0  0  0
  149.4510  137.3852  160.1116 H   0  0  0  0  0  0  0  0  0  0  0  0
  1  2  2  0  0  0  0
  2  3  1  0  0  0  0
  2 15  1  0  0  0  0
  3  4  1  0  0  0  0
  3 24  1  0  0  0  0
  3 25  1  0  0  0  0
  4 13  1  0  0  0  0
  4  5  1  0  0  0  0
  5  6  2  0  0  0  0
  5 26  1  0  0  0  0
  6  7  1  0  0  0  0
  6 11  1  0  0  0  0
  7  8  1  0  0  0  0
  7  9  1  0  0  0  0
  7 10  1  0  0  0  0
 11 12  2  0  0  0  0
 11 27  1  0  0  0  0
 12 13  1  0  0  0  0
 12 28  1  0  0  0  0
 13 14  2  0  0  0  0
 15 16  1  0  0  0  0
 15 29  1  0  0  0  0
 16 17  2  0  0  0  0
 16 18  1  0  0  0  0
 18 19  1  0  0  0  0
 18 30  1  0  0  0  0
 19 23  1  0  0  0  0
 19 20  1  0  0  0  0
 19 31  1  0  0  0  0
 20 21  1  0  0  0  0
 20 32  1  0  0  0  0
 20 33  1  0  0  0  0
 21 22  1  0  0  0  0
 21 34  1  0  0  0  0
 21 35  1  0  0  0  0
 22 23  1  0  0  0  0
 22 36  1  0  0  0  0
 22 37  1  0  0  0  0
 23 38  1  0  0  0  0
 23 39  1  0  0  0  0
M  END
> <s_m_source_file>
AV-unprocessed.smi

> <i_m_source_file_index>
595

> <i_lp_mmshare_version>
43012

> <i_f3d_flags>
0

> <s_epik_input>
W0NIMl0xW0NIMl1bQ0gyXVtDSDJdW0NIXTFbTkhdQyg9TylbTkhdQyg9TylbQ0gyXW4yW2NIXWMoQyhGKShGKUYpW2NIXVtjSF1jMj1P

> <s_epik_cmdline>
J2VwaWtfcHl0aG9uJywgJy1waCcsICc3LjAnLCAnLXRuJywgJzgnLCAnLW1hJywgJzIwMCcsICctbWV0YWxfYmluZGluZycsICctaW1hZScsICc8aW5maWxlLm1hZT4nLCAnLW9tYWUnLCAnPG91dGZpbGUubWFlPic=

> <r_lp_tautomer_probability>
1

> <r_epik_Ionization_Penalty>
3.29047e-05

> <r_epik_Ionization_Penalty_Charging>
1.42456e-08

> <r_epik_Ionization_Penalty_Neutral>
3.28905e-05

> <r_epik_State_Penalty>
-0

> <r_epik_Charging_Adjusted_Penalty>
1.42456e-08

> <i_epik_Tot_Q>
0

> <i_epik_Tot_abs_Q>
0

> <r_epik_Metal_State_Penalty>
-0

> <b_epik_Metal_Only>
0

> <s_lp_Force_Field>
OPLS_2005

> <r_lp_Energy>
34.7393

> <b_lp_Chiralities_Consistent>
1

> <s_lp_Variant>
AV-unprocessed.smi:595-1

> <Gold.Version>
5.8.1

> <Gold.Id.Protein>
6NUR|6NUR_protein|mol2

> <Gold.PLP.Fitness>
47.7055

> <Gold.PLP.PLP>
-39.9652

> <Gold.PLP.part.hbond>
-2.0000

> <Gold.PLP.part.metal>
0.0000

> <Gold.PLP.part.buried>
-5.3655

> <Gold.PLP.part.nonpolar>
-31.8981

> <Gold.PLP.part.repulsive>
0.2693

> <Gold.PLP.ligand.clash>
0.0000

> <Gold.PLP.ligand.torsion>
0.5149

> <Gold.PLP.Chemscore.Hbond>
1.9913

> <Gold.PLP.Chemscore.CHOScore>
0.9074

> <Gold.PLP.Chemscore.Metal>
0.0000

> <Gold.Chemscore.Hbonds>
donor molecule, donor type, donor heavy atom, donor atom, acceptor molecule, acceptor atom, score
      P1  H  7989  7998       L1     1  0.98
      P1  H  7997  8008       L1    14  0.90
      L1  C     5    26       P1  8028  0.80

> <Gold.PLP.Chemscore.Internal.Correction>
0.0741

> <Gold.Rescore>
     Score         DG    S(hbond)    S(metal)    S(lipo)     H(rot)  DE(clash)    DE(int)     intcor
     12.30     -16.16       1.87        0.00      74.39       1.68       0.66       3.20       ----

> <Gold.Chemscore.Fitness>
12.2981

> <Gold.Chemscore.DG>
-16.1555

> <Gold.Chemscore.ZeroCoef>
-5.4800

> <Gold.Chemscore.Hbond>
1.8741

> <Gold.Chemscore.Metal>
0.0000

> <Gold.Chemscore.Lipo>
74.3941

> <Gold.Chemscore.Internal_Hbond>
0.0000

> <Gold.Chemscore.DEClash>
0.6600

> <Gold.Chemscore.DEInternal>
3.1974

> <Gold.Chemscore.Rot>
1.6750

> <Gold.Chemscore.Internal.Correction>
   9.000000E+99

> <Gold.Chemscore.Hbonds>
donor molecule, donor type, donor heavy atom, donor atom, acceptor molecule, acceptor atom, score
      P1  H  7989  7998       L1     1  0.65
      P1  H  7997  8008       L1    14  0.18

> <Gold.Chemscore.Hbond.Weighted>
-6.2595

> <Gold.Chemscore.Metal.Weighted>
-0.0000

> <Gold.Chemscore.Lipo.Weighted>
-8.7041

> <Gold.Chemscore.Internal_Hbond.Weighted>
0.0000

> <Gold.Chemscore.DEClash.Weighted>
0.6600

> <Gold.Chemscore.DEInternal.Weighted>
3.1974

> <Gold.Chemscore.Rot.Weighted>
4.2881

> <Gold.Chemscore.Internal.Correction.Weighted>
   9.000000E+99

> <Gold.Protein.RotatedTorsions>
[ 6907 6896 6895 6894 ] final  156.24 input  -60.11 | X-H torsion
[ 7974 7965 7964 7962 ] final  -25.86 input  175.53 | X-H torsion
[ 8008 7997 7996 7995 ] final  -62.19 input   59.86 | X-H torsion
[ 10167 10162 10161 10158 ] final -137.95 input  -65.29 | X-H torsion
[ 10718 10713 10712 10709 ] final -171.59 input   66.30 | X-H torsion
[ 10763 10752 10751 10750 ] final  -93.49 input  -60.55 | X-H torsion
[ 11005 11000 10999 10996 ] final    4.12 input  -57.11 | X-H torsion

> <Gold.Protein.ActiveResidues>
 VAL166  LYS551  ARG553  GLY616  TRP617  ASP618  TYR619  PRO620  LYS621  CYS622 
 ASP623  PHE694  ASN695  SER759  ASP760  ASP761  ALA762  ILE779  LEU786  VAL792 
 PHE793  MET794  SER795  GLU796  ALA797  LYS798  CYS799  TRP800  GLU811  SER814 

> <Gold.Protein.RotatedAtoms>
  152.0326  133.3943  159.4303 H   0  0  0  0  0  0  0  0  0  0  0  0  # atno 6907 bound_to 6896
  150.6881  134.3504  159.4915 H   0  0  0  0  0  0  0  0  0  0  0  0  # atno 6908 bound_to 6896
  152.1292  134.9147  160.0610 H   0  0  0  0  0  0  0  0  0  0  0  0  # atno 6909 bound_to 6896
  146.1463  140.4943  142.8630 H   0  0  0  0  0  0  0  0  0  0  0  0  # atno 7974 bound_to 7965
  154.4487  140.1001  156.6548 H   0  0  0  0  0  0  0  0  0  0  0  0  # atno 8008 bound_to 7997
  155.5358  140.3482  155.4417 H   0  0  0  0  0  0  0  0  0  0  0  0  # atno 8009 bound_to 7997
  156.0632  140.1331  156.9905 H   0  0  0  0  0  0  0  0  0  0  0  0  # atno 8010 bound_to 7997
  139.8527  143.7178  152.2656 H   0  0  0  0  0  0  0  0  0  0  0  0  # atno 10167 bound_to 10162
  156.7431  130.9350  151.3111 H   0  0  0  0  0  0  0  0  0  0  0  0  # atno 10718 bound_to 10713
  154.6964  135.5192  153.8464 H   0  0  0  0  0  0  0  0  0  0  0  0  # atno 10763 bound_to 10752
  153.0670  135.6588  154.0341 H   0  0  0  0  0  0  0  0  0  0  0  0  # atno 10764 bound_to 10752
  154.0207  135.2994  155.3361 H   0  0  0  0  0  0  0  0  0  0  0  0  # atno 10765 bound_to 10752
  140.5855  133.9972  155.8066 H   0  0  0  0  0  0  0  0  0  0  0  0  # atno 11005 bound_to 11000
  144.7851  140.5919  143.6579 LP  0  0  0  0  0  0  0  0  0  0  0  0  # atno 17320 bound_to 7965
  145.4928  139.1487  143.3700 LP  0  0  0  0  0  0  0  0  0  0  0  0  # atno 17321 bound_to 7965
  139.7450  144.7549  151.0594 LP  0  0  0  0  0  0  0  0  0  0  0  0  # atno 17342 bound_to 10162
  140.7785  143.4927  150.9872 LP  0  0  0  0  0  0  0  0  0  0  0  0  # atno 17343 bound_to 10162
  157.6810  130.9139  150.0266 LP  0  0  0  0  0  0  0  0  0  0  0  0  # atno 17370 bound_to 10713
  156.1451  130.3642  149.9523 LP  0  0  0  0  0  0  0  0  0  0  0  0  # atno 17371 bound_to 10713
  141.0968  133.9830  157.3146 LP  0  0  0  0  0  0  0  0  0  0  0  0  # atno 17394 bound_to 11000
  139.9297  135.0200  156.8359 LP  0  0  0  0  0  0  0  0  0  0  0  0  # atno 17395 bound_to 11000

$$$$
