AV-unprocessed.smi:3252|AV-procd|sdf|12444|dock10
  -GOLD-   2272018343D 1   1.00000     0.00000
 Structure written by MMmdl.
 36 37  0  0  0  0  0  0  0  0  1 V2000
  152.0680  145.2517  158.9806 C   0  0  0  0  0  0  0  0  0  0  0  0
  151.1054  144.6197  159.9962 C   0  0  0  0  0  0  0  0  0  0  0  0
  151.6486  143.4813  160.7348 N   0  0  0  0  0  0  0  0  0  0  0  0
  152.5140  143.8902  161.8384 C   0  0  0  0  0  0  0  0  0  0  0  0
  153.1079  142.6803  162.5802 C   0  0  0  0  0  0  0  0  0  0  0  0
  153.8003  141.8451  161.6577 O   0  0  0  0  0  0  0  0  0  0  0  0
  152.9686  141.3755  160.5991 C   0  0  2  0  0  0  0  0  0  0  0  0
  153.8094  140.4865  159.6733 C   0  0  0  0  0  0  0  0  0  0  0  0
  152.9915  139.4896  158.9969 N   0  0  0  0  0  0  0  0  0  0  0  0
  152.1338  139.8541  157.9504 C   0  0  0  0  0  0  0  0  0  0  0  0
  150.9223  140.5052  158.2655 C   0  0  0  0  0  0  0  0  0  0  0  0
  150.0584  140.8780  157.2170 C   0  0  0  0  0  0  0  0  0  0  0  0
  150.4352  140.5860  155.8912 C   0  0  0  0  0  0  0  0  0  0  0  0
  149.5791  140.9512  154.7755 C   0  0  0  0  0  0  0  0  0  0  0  0
  148.8975  141.2423  153.8870 N   0  0  0  0  0  0  0  0  0  0  0  0
  151.6646  139.9308  155.6749 C   0  0  0  0  0  0  0  0  0  0  0  0
  152.4972  139.5721  156.6760 N   0  0  0  0  0  0  0  0  0  0  0  0
  152.3983  142.5957  159.8506 C   0  0  0  0  0  0  0  0  0  0  0  0
  151.6300  146.1518  158.5491 H   0  0  0  0  0  0  0  0  0  0  0  0
  152.2950  144.5755  158.1566 H   0  0  0  0  0  0  0  0  0  0  0  0
  153.0079  145.5365  159.4543 H   0  0  0  0  0  0  0  0  0  0  0  0
  150.8259  145.3981  160.7073 H   0  0  0  0  0  0  0  0  0  0  0  0
  150.1824  144.3294  159.4923 H   0  0  0  0  0  0  0  0  0  0  0  0
  153.3251  144.5144  161.4603 H   0  0  0  0  0  0  0  0  0  0  0  0
  151.9572  144.4974  162.5512 H   0  0  0  0  0  0  0  0  0  0  0  0
  153.8029  143.0122  163.3516 H   0  0  0  0  0  0  0  0  0  0  0  0
  152.3234  142.1094  163.0795 H   0  0  0  0  0  0  0  0  0  0  0  0
  152.1446  140.7909  161.0132 H   0  0  0  0  0  0  0  0  0  0  0  0
  154.2911  141.1073  158.9167 H   0  0  0  0  0  0  0  0  0  0  0  0
  154.6014  139.9934  160.2383 H   0  0  0  0  0  0  0  0  0  0  0  0
  153.0310  138.5305  159.3107 H   0  0  0  0  0  0  0  0  0  0  0  0
  150.6574  140.7187  159.2908 H   0  0  0  0  0  0  0  0  0  0  0  0
  149.1260  141.3797  157.4328 H   0  0  0  0  0  0  0  0  0  0  0  0
  151.9944  139.6867  154.6752 H   0  0  0  0  0  0  0  0  0  0  0  0
  151.7514  142.2509  159.0429 H   0  0  0  0  0  0  0  0  0  0  0  0
  153.2142  143.1473  159.3805 H   0  0  0  0  0  0  0  0  0  0  0  0
  1  2  1  0  0  0  0
  1 19  1  0  0  0  0
  1 20  1  0  0  0  0
  1 21  1  0  0  0  0
  2  3  1  0  0  0  0
  2 22  1  0  0  0  0
  2 23  1  0  0  0  0
  3 18  1  0  0  0  0
  3  4  1  0  0  0  0
  4  5  1  0  0  0  0
  4 24  1  0  0  0  0
  4 25  1  0  0  0  0
  5  6  1  0  0  0  0
  5 26  1  0  0  0  0
  5 27  1  0  0  0  0
  6  7  1  0  0  0  0
  7  8  1  0  0  0  0
  7 18  1  0  0  0  0
  7 28  1  0  0  0  0
  8  9  1  0  0  0  0
  8 29  1  0  0  0  0
  8 30  1  0  0  0  0
  9 10  1  0  0  0  0
  9 31  1  0  0  0  0
 10 17  1  0  0  0  0
 10 11  2  0  0  0  0
 11 12  1  0  0  0  0
 11 32  1  0  0  0  0
 12 13  2  0  0  0  0
 12 33  1  0  0  0  0
 13 14  1  0  0  0  0
 13 16  1  0  0  0  0
 14 15  3  0  0  0  0
 16 17  2  0  0  0  0
 16 34  1  0  0  0  0
 18 35  1  0  0  0  0
 18 36  1  0  0  0  0
M  END
> <s_m_source_file>
AV-unprocessed.smi

> <i_m_source_file_index>
3252

> <i_lp_mmshare_version>
43012

> <i_f3d_flags>
0

> <s_epik_input>
W0NIM11bQ0gyXU4xW0NIMl1bQ0gyXU9bQ0BIXShbQ0gyXTEpW0NIMl1bTkhdYzJbY0hdW2NIXWMoQyNOKVtjSF1uMg==

> <s_epik_cmdline>
J2VwaWtfcHl0aG9uJywgJy1waCcsICc3LjAnLCAnLXRuJywgJzgnLCAnLW1hJywgJzIwMCcsICctbWV0YWxfYmluZGluZycsICctaW1hZScsICc8aW5maWxlLm1hZT4nLCAnLW9tYWUnLCAnPG91dGZpbGUubWFlPic=

> <r_epik_Ionization_Penalty>
0.797836

> <r_epik_Ionization_Penalty_Charging>
0

> <r_epik_Ionization_Penalty_Neutral>
0.797836

> <r_epik_State_Penalty>
0.828842

> <r_epik_Charging_Adjusted_Penalty>
0.828842

> <i_epik_Tot_Q>
0

> <i_epik_Tot_abs_Q>
0

> <r_epik_Metal_State_Penalty>
0.828842

> <b_epik_Metal_Only>
0

> <s_lp_Force_Field>
OPLS_2005

> <r_lp_Energy>
23.1529

> <b_lp_Chiralities_Consistent>
1

> <s_lp_Variant>
AV-unprocessed.smi:3252-6

> <Gold.Version>
5.8.1

> <Gold.Id.Protein>
6NUR|6NUR_protein|mol2

> <Gold.PLP.Fitness>
46.9639

> <Gold.PLP.PLP>
-44.1824

> <Gold.PLP.part.hbond>
-2.7437

> <Gold.PLP.part.metal>
0.0000

> <Gold.PLP.part.buried>
-5.3335

> <Gold.PLP.part.nonpolar>
-36.0139

> <Gold.PLP.part.repulsive>
0.9407

> <Gold.PLP.ligand.clash>
0.0000

> <Gold.PLP.ligand.torsion>
1.2886

> <Gold.PLP.Chemscore.Hbond>
1.7840

> <Gold.PLP.Chemscore.CHOScore>
0.0000

> <Gold.PLP.Chemscore.Metal>
0.0000

> <Gold.Chemscore.Hbonds>
donor molecule, donor type, donor heavy atom, donor atom, acceptor molecule, acceptor atom, score
      P1  H  7997  8008       L1    17  1.00
      P1  H  8011  8017       L1    15  0.58

> <Gold.PLP.Chemscore.Internal.Correction>
0.0067

> <Gold.Rescore>
     Score         DG    S(hbond)    S(metal)    S(lipo)     H(rot)  DE(clash)    DE(int)     intcor
     16.32     -17.95       1.44        0.00      96.88       1.43       0.37       1.26       ----

> <Gold.Chemscore.Fitness>
16.3223

> <Gold.Chemscore.DG>
-17.9483

> <Gold.Chemscore.ZeroCoef>
-5.4800

> <Gold.Chemscore.Hbond>
1.4379

> <Gold.Chemscore.Metal>
0.0000

> <Gold.Chemscore.Lipo>
96.8769

> <Gold.Chemscore.Internal_Hbond>
0.0000

> <Gold.Chemscore.DEClash>
0.3667

> <Gold.Chemscore.DEInternal>
1.2593

> <Gold.Chemscore.Rot>
1.4331

> <Gold.Chemscore.Internal.Correction>
   9.000000E+99

> <Gold.Chemscore.Hbonds>
donor molecule, donor type, donor heavy atom, donor atom, acceptor molecule, acceptor atom, score
      P1  H  7997  8008       L1    17  0.54
      P1  H  8011  8017       L1    15  0.54

> <Gold.Chemscore.Hbond.Weighted>
-4.8025

> <Gold.Chemscore.Metal.Weighted>
-0.0000

> <Gold.Chemscore.Lipo.Weighted>
-11.3346

> <Gold.Chemscore.Internal_Hbond.Weighted>
0.0000

> <Gold.Chemscore.DEClash.Weighted>
0.3667

> <Gold.Chemscore.DEInternal.Weighted>
1.2593

> <Gold.Chemscore.Rot.Weighted>
3.6688

> <Gold.Chemscore.Internal.Correction.Weighted>
   9.000000E+99

> <Gold.Protein.RotatedTorsions>
[ 6907 6896 6895 6894 ] final  -33.96 input  -60.11 | X-H torsion
[ 7974 7965 7964 7962 ] final -112.95 input  175.53 | X-H torsion
[ 8008 7997 7996 7995 ] final  -32.03 input   59.86 | X-H torsion
[ 10167 10162 10161 10158 ] final  -84.90 input  -65.29 | X-H torsion
[ 10718 10713 10712 10709 ] final -179.39 input   66.30 | X-H torsion
[ 10763 10752 10751 10750 ] final  -18.57 input  -60.55 | X-H torsion
[ 11005 11000 10999 10996 ] final  118.09 input  -57.11 | X-H torsion

> <Gold.Protein.ActiveResidues>
 VAL166  LYS551  ARG553  GLY616  TRP617  ASP618  TYR619  PRO620  LYS621  CYS622 
 ASP623  PHE694  ASN695  SER759  ASP760  ASP761  ALA762  ILE779  LEU786  VAL792 
 PHE793  MET794  SER795  GLU796  ALA797  LYS798  CYS799  TRP800  GLU811  SER814 

> <Gold.Protein.RotatedAtoms>
  151.0588  134.9723  159.8249 H   0  0  0  0  0  0  0  0  0  0  0  0  # atno 6907 bound_to 6896
  152.5392  134.2443  159.8884 H   0  0  0  0  0  0  0  0  0  0  0  0  # atno 6908 bound_to 6896
  151.2462  133.4330  159.2643 H   0  0  0  0  0  0  0  0  0  0  0  0  # atno 6909 bound_to 6896
  145.1379  140.8761  143.3719 H   0  0  0  0  0  0  0  0  0  0  0  0  # atno 7974 bound_to 7965
  154.4193  140.1748  156.1661 H   0  0  0  0  0  0  0  0  0  0  0  0  # atno 8008 bound_to 7997
  155.9798  140.3378  155.6629 H   0  0  0  0  0  0  0  0  0  0  0  0  # atno 8009 bound_to 7997
  155.6514  140.0691  157.2576 H   0  0  0  0  0  0  0  0  0  0  0  0  # atno 8010 bound_to 7997
  140.4088  143.2631  151.9045 H   0  0  0  0  0  0  0  0  0  0  0  0  # atno 10167 bound_to 10162
  156.8584  130.9743  151.3086 H   0  0  0  0  0  0  0  0  0  0  0  0  # atno 10718 bound_to 10713
  153.5913  135.7002  153.5422 H   0  0  0  0  0  0  0  0  0  0  0  0  # atno 10763 bound_to 10752
  153.3176  135.4083  155.1389 H   0  0  0  0  0  0  0  0  0  0  0  0  # atno 10764 bound_to 10752
  154.8600  135.3687  154.5445 H   0  0  0  0  0  0  0  0  0  0  0  0  # atno 10765 bound_to 10752
  139.9097  134.9617  156.7451 H   0  0  0  0  0  0  0  0  0  0  0  0  # atno 11005 bound_to 11000
  145.0564  139.3140  143.5902 LP  0  0  0  0  0  0  0  0  0  0  0  0  # atno 17320 bound_to 7965
  146.3508  139.9991  142.8678 LP  0  0  0  0  0  0  0  0  0  0  0  0  # atno 17321 bound_to 7965
  139.4783  144.5558  151.8315 LP  0  0  0  0  0  0  0  0  0  0  0  0  # atno 17342 bound_to 10162
  140.4660  144.1654  150.5912 LP  0  0  0  0  0  0  0  0  0  0  0  0  # atno 17343 bound_to 10162
  157.6264  130.8694  149.9196 LP  0  0  0  0  0  0  0  0  0  0  0  0  # atno 17370 bound_to 10713
  156.0790  130.3675  150.0619 LP  0  0  0  0  0  0  0  0  0  0  0  0  # atno 17371 bound_to 10713
  140.6818  133.9467  155.7915 LP  0  0  0  0  0  0  0  0  0  0  0  0  # atno 17394 bound_to 11000
  141.0504  134.0492  157.3790 LP  0  0  0  0  0  0  0  0  0  0  0  0  # atno 17395 bound_to 11000

$$$$
