AV-unprocessed.smi:677|AV-procd|sdf|3311|dock5
  -GOLD-   22720 0273D 1   1.00000     0.00000
 Structure written by MMmdl.
 43 44  0  0  0  0  0  0  0  0  1 V2000
  151.7494  145.4953  160.2550 C   0  0  0  0  0  0  0  0  0  0  0  0
  151.7694  144.2007  159.4694 C   0  0  0  0  0  0  0  0  0  0  0  0
  152.6481  143.1584  159.8301 C   0  0  0  0  0  0  0  0  0  0  0  0
  152.6310  141.9729  159.0704 C   0  0  0  0  0  0  0  0  0  0  0  0
  151.7396  141.8759  157.9818 C   0  0  0  0  0  0  0  0  0  0  0  0
  151.6628  140.6089  157.1488 C   0  0  0  0  0  0  0  0  0  0  0  0
  150.5033  140.7160  156.1593 C   0  0  0  0  0  0  0  0  0  0  0  0
  150.7300  140.7947  154.9523 O   0  0  0  0  0  0  0  0  0  0  0  0
  149.2691  140.6804  156.6858 N   0  0  0  0  0  0  0  0  0  0  0  0
  148.0241  140.6148  155.9277 C   0  0  0  0  0  0  0  0  0  0  0  0
  146.7954  140.8214  156.8370 C   0  0  0  0  0  0  0  0  0  0  0  0
  146.9536  141.9966  157.8216 C   0  0  0  0  0  0  0  0  0  0  0  0
  145.7352  142.1130  158.7540 C   0  0  0  0  0  0  0  0  0  0  0  0
  145.5449  140.8700  159.5057 N   0  0  0  0  0  0  0  0  0  0  0  0
  144.4128  141.0027  160.4165 C   0  0  0  0  0  0  0  0  0  0  0  0
  144.6525  141.9953  161.4776 C   0  0  0  0  0  0  0  0  0  0  0  0
  144.8409  142.7746  162.3119 N   0  0  0  0  0  0  0  0  0  0  0  0
  145.2757  139.7702  158.5790 C   0  0  0  0  0  0  0  0  0  0  0  0
  146.4776  139.5514  157.6434 C   0  0  0  0  0  0  0  0  0  0  0  0
  150.9059  142.9796  157.7016 C   0  0  0  0  0  0  0  0  0  0  0  0
  150.9146  144.1192  158.4256 N   0  0  0  0  0  0  0  0  0  0  0  0
  151.8751  145.2986  161.3200 H   0  0  0  0  0  0  0  0  0  0  0  0
  150.8072  146.0278  160.1188 H   0  0  0  0  0  0  0  0  0  0  0  0
  152.5612  146.1451  159.9279 H   0  0  0  0  0  0  0  0  0  0  0  0
  153.3179  143.2620  160.6712 H   0  0  0  0  0  0  0  0  0  0  0  0
  153.2847  141.1513  159.3240 H   0  0  0  0  0  0  0  0  0  0  0  0
  152.6000  140.4519  156.6129 H   0  0  0  0  0  0  0  0  0  0  0  0
  151.5186  139.7450  157.7992 H   0  0  0  0  0  0  0  0  0  0  0  0
  149.1895  140.6206  157.6907 H   0  0  0  0  0  0  0  0  0  0  0  0
  148.0575  141.3996  155.1715 H   0  0  0  0  0  0  0  0  0  0  0  0
  147.9395  139.6730  155.3830 H   0  0  0  0  0  0  0  0  0  0  0  0
  145.9372  141.0339  156.1971 H   0  0  0  0  0  0  0  0  0  0  0  0
  147.8597  141.8665  158.4151 H   0  0  0  0  0  0  0  0  0  0  0  0
  147.0715  142.9356  157.2803 H   0  0  0  0  0  0  0  0  0  0  0  0
  145.8942  142.9426  159.4431 H   0  0  0  0  0  0  0  0  0  0  0  0
  144.8382  142.3447  158.1776 H   0  0  0  0  0  0  0  0  0  0  0  0
  143.5051  141.2774  159.8771 H   0  0  0  0  0  0  0  0  0  0  0  0
  144.2235  140.0507  160.9138 H   0  0  0  0  0  0  0  0  0  0  0  0
  145.0882  138.8570  159.1448 H   0  0  0  0  0  0  0  0  0  0  0  0
  144.3747  139.9785  157.9998 H   0  0  0  0  0  0  0  0  0  0  0  0
  146.2663  138.7233  156.9660 H   0  0  0  0  0  0  0  0  0  0  0  0
  147.3477  139.2549  158.2310 H   0  0  0  0  0  0  0  0  0  0  0  0
  150.2049  142.9435  156.8808 H   0  0  0  0  0  0  0  0  0  0  0  0
  1  2  1  0  0  0  0
  1 22  1  0  0  0  0
  1 23  1  0  0  0  0
  1 24  1  0  0  0  0
  2 21  1  0  0  0  0
  2  3  2  0  0  0  0
  3  4  1  0  0  0  0
  3 25  1  0  0  0  0
  4  5  2  0  0  0  0
  4 26  1  0  0  0  0
  5  6  1  0  0  0  0
  5 20  1  0  0  0  0
  6  7  1  0  0  0  0
  6 27  1  0  0  0  0
  6 28  1  0  0  0  0
  7  8  2  0  0  0  0
  7  9  1  0  0  0  0
  9 10  1  0  0  0  0
  9 29  1  0  0  0  0
 10 11  1  0  0  0  0
 10 30  1  0  0  0  0
 10 31  1  0  0  0  0
 11 19  1  0  0  0  0
 11 12  1  0  0  0  0
 11 32  1  0  0  0  0
 12 13  1  0  0  0  0
 12 33  1  0  0  0  0
 12 34  1  0  0  0  0
 13 14  1  0  0  0  0
 13 35  1  0  0  0  0
 13 36  1  0  0  0  0
 14 15  1  0  0  0  0
 14 18  1  0  0  0  0
 15 16  1  0  0  0  0
 15 37  1  0  0  0  0
 15 38  1  0  0  0  0
 16 17  3  0  0  0  0
 18 19  1  0  0  0  0
 18 39  1  0  0  0  0
 18 40  1  0  0  0  0
 19 41  1  0  0  0  0
 19 42  1  0  0  0  0
 20 21  2  0  0  0  0
 20 43  1  0  0  0  0
M  END
> <s_m_source_file>
AV-unprocessed.smi

> <i_m_source_file_index>
677

> <i_lp_mmshare_version>
43012

> <i_f3d_flags>
0

> <s_epik_input>
W0NIM11jMVtjSF1bY0hdYyhbY0hdbjEpW0NIMl1DKD1PKVtOSF1bQ0gyXVtDSF0yW0NIMl1bQ0gyXU4oW0NIMl1DI04pW0NIMl1bQ0gyXTI=

> <s_epik_cmdline>
J2VwaWtfcHl0aG9uJywgJy1waCcsICc3LjAnLCAnLXRuJywgJzgnLCAnLW1hJywgJzIwMCcsICctbWV0YWxfYmluZGluZycsICctaW1hZScsICc8aW5maWxlLm1hZT4nLCAnLW9tYWUnLCAnPG91dGZpbGUubWFlPic=

> <r_epik_Ionization_Penalty>
0.0175809

> <r_epik_Ionization_Penalty_Charging>
0

> <r_epik_Ionization_Penalty_Neutral>
0.0175809

> <r_epik_State_Penalty>
0.0130795

> <r_epik_Charging_Adjusted_Penalty>
0.0130795

> <i_epik_Tot_Q>
0

> <i_epik_Tot_abs_Q>
0

> <r_epik_Metal_State_Penalty>
0.0127214

> <b_epik_Metal_Only>
0

> <s_lp_Force_Field>
OPLS_2005

> <r_lp_Energy>
13.8767

> <b_lp_Chiralities_Consistent>
1

> <s_lp_Variant>
AV-unprocessed.smi:677-1

> <Gold.Version>
5.8.1

> <Gold.Id.Protein>
6NUR|6NUR_protein|mol2

> <Gold.PLP.Fitness>
42.5544

> <Gold.PLP.PLP>
-34.8321

> <Gold.PLP.part.hbond>
-2.0000

> <Gold.PLP.part.metal>
0.0000

> <Gold.PLP.part.buried>
-6.4025

> <Gold.PLP.part.nonpolar>
-27.2301

> <Gold.PLP.part.repulsive>
0.3109

> <Gold.PLP.ligand.clash>
0.0123

> <Gold.PLP.ligand.torsion>
0.2984

> <Gold.PLP.Chemscore.Hbond>
1.8240

> <Gold.PLP.Chemscore.CHOScore>
0.9425

> <Gold.PLP.Chemscore.Metal>
0.0000

> <Gold.Chemscore.Hbonds>
donor molecule, donor type, donor heavy atom, donor atom, acceptor molecule, acceptor atom, score
      P1  H  6934  6946       L1    14  0.62
      P1  H  7989  7998       L1     8  0.85
      L1  C    20    43       P1  8028  1.00

> <Gold.PLP.Chemscore.Internal.Correction>
0.0318

> <Gold.Rescore>
     Score         DG    S(hbond)    S(metal)    S(lipo)     H(rot)  DE(clash)    DE(int)     intcor
     13.93     -14.30       1.19        0.00      80.19       1.78       0.03       0.35       ----

> <Gold.Chemscore.Fitness>
13.9271

> <Gold.Chemscore.DG>
-14.3023

> <Gold.Chemscore.ZeroCoef>
-5.4800

> <Gold.Chemscore.Hbond>
1.1930

> <Gold.Chemscore.Metal>
0.0000

> <Gold.Chemscore.Lipo>
80.1867

> <Gold.Chemscore.Internal_Hbond>
0.0000

> <Gold.Chemscore.DEClash>
0.0253

> <Gold.Chemscore.DEInternal>
0.3500

> <Gold.Chemscore.Rot>
1.7751

> <Gold.Chemscore.Internal.Correction>
   9.000000E+99

> <Gold.Chemscore.Hbonds>
donor molecule, donor type, donor heavy atom, donor atom, acceptor molecule, acceptor atom, score
      P1  H  6934  6946       L1    14  0.09
      P1  H  7989  7998       L1     8  0.83

> <Gold.Chemscore.Hbond.Weighted>
-3.9847

> <Gold.Chemscore.Metal.Weighted>
-0.0000

> <Gold.Chemscore.Lipo.Weighted>
-9.3818

> <Gold.Chemscore.Internal_Hbond.Weighted>
0.0000

> <Gold.Chemscore.DEClash.Weighted>
0.0253

> <Gold.Chemscore.DEInternal.Weighted>
0.3500

> <Gold.Chemscore.Rot.Weighted>
4.5442

> <Gold.Chemscore.Internal.Correction.Weighted>
   9.000000E+99

> <Gold.Protein.RotatedTorsions>
[ 6907 6896 6895 6894 ] final  -51.61 input  -60.11 | X-H torsion
[ 7974 7965 7964 7962 ] final  168.49 input  175.53 | X-H torsion
[ 8008 7997 7996 7995 ] final  120.18 input   59.86 | X-H torsion
[ 10167 10162 10161 10158 ] final -128.58 input  -65.29 | X-H torsion
[ 10718 10713 10712 10709 ] final  -12.54 input   66.30 | X-H torsion
[ 10763 10752 10751 10750 ] final   72.27 input  -60.55 | X-H torsion
[ 11005 11000 10999 10996 ] final   15.43 input  -57.11 | X-H torsion

> <Gold.Protein.ActiveResidues>
 VAL166  LYS551  ARG553  GLY616  TRP617  ASP618  TYR619  PRO620  LYS621  CYS622 
 ASP623  PHE694  ASN695  SER759  ASP760  ASP761  ALA762  ILE779  LEU786  VAL792 
 PHE793  MET794  SER795  GLU796  ALA797  LYS798  CYS799  TRP800  GLU811  SER814 

> <Gold.Protein.RotatedAtoms>
  150.8595  134.7944  159.7071 H   0  0  0  0  0  0  0  0  0  0  0  0  # atno 6907 bound_to 6896
  152.4637  134.5123  159.9767 H   0  0  0  0  0  0  0  0  0  0  0  0  # atno 6908 bound_to 6896
  151.5229  133.3425  159.2940 H   0  0  0  0  0  0  0  0  0  0  0  0  # atno 6909 bound_to 6896
  144.7387  139.8915  143.6403 H   0  0  0  0  0  0  0  0  0  0  0  0  # atno 7974 bound_to 7965
  156.2631  140.2836  156.1109 H   0  0  0  0  0  0  0  0  0  0  0  0  # atno 8008 bound_to 7997
  155.1258  140.0393  157.2779 H   0  0  0  0  0  0  0  0  0  0  0  0  # atno 8009 bound_to 7997
  154.6636  140.2572  155.7088 H   0  0  0  0  0  0  0  0  0  0  0  0  # atno 8010 bound_to 7997
  139.9488  143.6079  152.2481 H   0  0  0  0  0  0  0  0  0  0  0  0  # atno 10167 bound_to 10162
  156.6431  130.4933  149.6088 H   0  0  0  0  0  0  0  0  0  0  0  0  # atno 10718 bound_to 10713
  153.0449  135.5106  154.7719 H   0  0  0  0  0  0  0  0  0  0  0  0  # atno 10763 bound_to 10752
  154.6627  135.2941  154.9848 H   0  0  0  0  0  0  0  0  0  0  0  0  # atno 10764 bound_to 10752
  154.0693  135.6680  153.4875 H   0  0  0  0  0  0  0  0  0  0  0  0  # atno 10765 bound_to 10752
  140.4584  134.1152  155.7713 H   0  0  0  0  0  0  0  0  0  0  0  0  # atno 11005 bound_to 11000
  146.1138  139.4146  143.0271 LP  0  0  0  0  0  0  0  0  0  0  0  0  # atno 17320 bound_to 7965
  145.7404  141.0010  143.1304 LP  0  0  0  0  0  0  0  0  0  0  0  0  # atno 17321 bound_to 7965
  139.6645  144.7662  151.1900 LP  0  0  0  0  0  0  0  0  0  0  0  0  # atno 17342 bound_to 10162
  140.7589  143.5959  150.8749 LP  0  0  0  0  0  0  0  0  0  0  0  0  # atno 17343 bound_to 10162
  156.2143  130.6698  151.1302 LP  0  0  0  0  0  0  0  0  0  0  0  0  # atno 17370 bound_to 10713
  157.7164  131.0707  150.6308 LP  0  0  0  0  0  0  0  0  0  0  0  0  # atno 17371 bound_to 10713
  141.1632  133.8753  157.1789 LP  0  0  0  0  0  0  0  0  0  0  0  0  # atno 17394 bound_to 11000
  139.9961  135.0046  157.0085 LP  0  0  0  0  0  0  0  0  0  0  0  0  # atno 17395 bound_to 11000

$$$$
