AV-unprocessed.smi:285|AV-procd|sdf|2165|dock1
  -GOLD-   2262021523D 1   1.00000     0.00000
 Structure written by MMmdl.
 31 33  0  0  0  0  0  0  0  0  1 V2000
  156.3263  139.3686  162.9460 N   0  0  0  0  0  0  0  0  0  0  0  0
  155.5876  139.5298  161.8394 C   0  0  0  0  0  0  0  0  0  0  0  0
  155.6513  138.5770  160.8801 N   0  0  0  0  0  0  0  0  0  0  0  0
  154.9250  138.7135  159.7661 C   0  0  0  0  0  0  0  0  0  0  0  0
  154.0952  139.7032  159.4257 N   0  0  0  0  0  0  0  0  0  0  0  0
  154.0322  140.6656  160.3927 C   0  0  0  0  0  0  0  0  0  0  0  0
  154.7446  140.6498  161.6278 C   0  0  0  0  0  0  0  0  0  0  0  0
  154.4378  141.7808  162.3738 N   0  0  0  0  0  0  0  0  0  0  0  0
  153.5955  142.4123  161.6045 C   0  0  0  0  0  0  0  0  0  0  0  0
  152.8289  144.0623  162.1676 Br  0  0  0  0  0  0  0  0  0  0  0  0
  153.2906  141.8311  160.3942 N   0  0  0  0  0  0  0  0  0  0  0  0
  152.3785  142.3238  159.3163 C   0  0  2  0  0  0  0  0  0  0  0  0
  152.9415  143.5818  158.6546 C   0  0  0  0  0  0  0  0  0  0  0  0
  151.6740  144.3344  158.3087 C   0  0  1  0  0  0  0  0  0  0  0  0
  151.1478  143.8916  157.0711 O   0  0  0  0  0  0  0  0  0  0  0  0
  150.7676  143.9775  159.4980 C   0  0  1  0  0  0  0  0  0  0  0  0
  149.2490  144.0681  159.2706 C   0  0  0  0  0  0  0  0  0  0  0  0
  148.8566  143.2032  158.2259 O   0  0  0  0  0  0  0  0  0  0  0  0
  151.1479  142.6580  159.8847 O   0  0  0  0  0  0  0  0  0  0  0  0
  156.2968  140.0652  163.6768 H   0  0  0  0  0  0  0  0  0  0  0  0
  156.9145  138.5540  163.0451 H   0  0  0  0  0  0  0  0  0  0  0  0
  155.0227  137.9165  159.0439 H   0  0  0  0  0  0  0  0  0  0  0  0
  152.2464  141.4930  158.6240 H   0  0  0  0  0  0  0  0  0  0  0  0
  153.5286  144.1510  159.3767 H   0  0  0  0  0  0  0  0  0  0  0  0
  153.5728  143.3359  157.7998 H   0  0  0  0  0  0  0  0  0  0  0  0
  151.8476  145.4088  158.2424 H   0  0  0  0  0  0  0  0  0  0  0  0
  150.3800  144.4058  156.8724 H   0  0  0  0  0  0  0  0  0  0  0  0
  151.0360  144.6258  160.3337 H   0  0  0  0  0  0  0  0  0  0  0  0
  148.6924  143.8299  160.1770 H   0  0  0  0  0  0  0  0  0  0  0  0
  148.9775  145.0865  158.9916 H   0  0  0  0  0  0  0  0  0  0  0  0
  149.0071  143.6405  157.4017 H   0  0  0  0  0  0  0  0  0  0  0  0
  1  2  1  0  0  0  0
  1 20  1  0  0  0  0
  1 21  1  0  0  0  0
  2  7  1  0  0  0  0
  2  3  2  0  0  0  0
  3  4  1  0  0  0  0
  4  5  2  0  0  0  0
  4 22  1  0  0  0  0
  5  6  1  0  0  0  0
  6 11  1  0  0  0  0
  6  7  2  0  0  0  0
  7  8  1  0  0  0  0
  8  9  2  0  0  0  0
  9 10  1  0  0  0  0
  9 11  1  0  0  0  0
 11 12  1  0  0  0  0
 12 19  1  0  0  0  0
 12 13  1  0  0  0  0
 12 23  1  0  0  0  0
 13 14  1  0  0  0  0
 13 24  1  0  0  0  0
 13 25  1  0  0  0  0
 14 15  1  0  0  0  0
 14 16  1  0  0  0  0
 14 26  1  0  0  0  0
 15 27  1  0  0  0  0
 16 17  1  0  0  0  0
 16 19  1  0  0  0  0
 16 28  1  0  0  0  0
 17 18  1  0  0  0  0
 17 29  1  0  0  0  0
 17 30  1  0  0  0  0
 18 31  1  0  0  0  0
M  END
> <s_m_source_file>
AV-unprocessed.smi

> <i_m_source_file_index>
285

> <i_lp_mmshare_version>
43012

> <i_f3d_flags>
0

> <s_epik_input>
bjFbY0hdbmMoW05IMl0pYyhjMTIpbmMoQnIpbjJbQ0BASF0zW0NIMl1bQ0BASF0oW09IXSlbQ0BIXShPMylbQ0gyXVtPSF0=

> <s_epik_cmdline>
J2VwaWtfcHl0aG9uJywgJy1waCcsICc3LjAnLCAnLXRuJywgJzgnLCAnLW1hJywgJzIwMCcsICctbWV0YWxfYmluZGluZycsICctaW1hZScsICc8aW5maWxlLm1hZT4nLCAnLW9tYWUnLCAnPG91dGZpbGUubWFlPic=

> <r_lp_tautomer_probability>
1

> <r_epik_Ionization_Penalty>
0.000103242

> <r_epik_Ionization_Penalty_Charging>
0

> <r_epik_Ionization_Penalty_Neutral>
0.000103242

> <r_epik_State_Penalty>
-0

> <r_epik_Charging_Adjusted_Penalty>
0

> <i_epik_Tot_Q>
0

> <i_epik_Tot_abs_Q>
0

> <r_epik_Metal_State_Penalty>
-0

> <b_epik_Metal_Only>
0

> <s_epik_Chemistry_Notes>
This compound contains an acetal/aminal-like group ( X-CH(R)-Y where X, Y are N, S, or O) that may be acid/base labile, releasing an aldehyde.

> <s_lp_Force_Field>
OPLS_2005

> <r_lp_Energy>
33.7508

> <b_lp_Chiralities_Consistent>
1

> <s_lp_Variant>
AV-unprocessed.smi:285-1

> <Gold.Version>
5.8.1

> <Gold.Id.Protein>
6NUR|6NUR_protein|mol2

> <Gold.PLP.Fitness>
43.7301

> <Gold.PLP.PLP>
-38.0928

> <Gold.PLP.part.hbond>
-5.0000

> <Gold.PLP.part.metal>
0.0000

> <Gold.PLP.part.buried>
-3.9879

> <Gold.PLP.part.nonpolar>
-28.3916

> <Gold.PLP.part.repulsive>
0.0180

> <Gold.PLP.ligand.clash>
0.0000

> <Gold.PLP.ligand.torsion>
0.1470

> <Gold.PLP.Chemscore.Hbond>
1.9760

> <Gold.PLP.Chemscore.CHOScore>
0.0000

> <Gold.PLP.Chemscore.Metal>
0.0000

> <Gold.Chemscore.Hbonds>
donor molecule, donor type, donor heavy atom, donor atom, acceptor molecule, acceptor atom, score
      L1  H    15    27       P1  8028  0.98
      L1  H    18    31       P1  8028  0.99

> <Gold.PLP.Chemscore.Internal.Correction>
0.0032

> <Gold.Rescore>
     Score         DG    S(hbond)    S(metal)    S(lipo)     H(rot)  DE(clash)    DE(int)     intcor
      7.83      -8.02       0.93        0.00      62.09       3.06       0.04       0.15       ----

> <Gold.Chemscore.Fitness>
7.8300

> <Gold.Chemscore.DG>
-8.0154

> <Gold.Chemscore.ZeroCoef>
-5.4800

> <Gold.Chemscore.Hbond>
0.9299

> <Gold.Chemscore.Metal>
0.0000

> <Gold.Chemscore.Lipo>
62.0946

> <Gold.Chemscore.Internal_Hbond>
0.0000

> <Gold.Chemscore.DEClash>
0.0377

> <Gold.Chemscore.DEInternal>
0.1477

> <Gold.Chemscore.Rot>
3.0607

> <Gold.Chemscore.Internal.Correction>
   9.000000E+99

> <Gold.Chemscore.Hbonds>
donor molecule, donor type, donor heavy atom, donor atom, acceptor molecule, acceptor atom, score
      L1  H    15    27       P1  8028  0.86
      L1  H    18    31       P1  8028  0.24

> <Gold.Chemscore.Hbond.Weighted>
-3.1057

> <Gold.Chemscore.Metal.Weighted>
-0.0000

> <Gold.Chemscore.Lipo.Weighted>
-7.2651

> <Gold.Chemscore.Internal_Hbond.Weighted>
0.0000

> <Gold.Chemscore.DEClash.Weighted>
0.0377

> <Gold.Chemscore.DEInternal.Weighted>
0.1477

> <Gold.Chemscore.Rot.Weighted>
7.8354

> <Gold.Chemscore.Internal.Correction.Weighted>
   9.000000E+99

> <Gold.Protein.RotatedTorsions>
[ 6907 6896 6895 6894 ] final  -21.24 input  -60.11 | X-H torsion
[ 7974 7965 7964 7962 ] final   17.55 input  175.53 | X-H torsion
[ 8008 7997 7996 7995 ] final  -66.81 input   59.86 | X-H torsion
[ 10167 10162 10161 10158 ] final  135.14 input  -65.29 | X-H torsion
[ 10718 10713 10712 10709 ] final -111.66 input   66.30 | X-H torsion
[ 10763 10752 10751 10750 ] final -124.18 input  -60.55 | X-H torsion
[ 11005 11000 10999 10996 ] final  -88.67 input  -57.11 | X-H torsion

> <Gold.Protein.ActiveResidues>
 VAL166  LYS551  ARG553  GLY616  TRP617  ASP618  TYR619  PRO620  LYS621  CYS622 
 ASP623  PHE694  ASN695  SER759  ASP760  ASP761  ALA762  ILE779  LEU786  VAL792 
 PHE793  MET794  SER795  GLU796  ALA797  LYS798  CYS799  TRP800  GLU811  SER814 

> <Gold.Protein.RotatedAtoms>
  151.2362  135.0572  159.9006 H   0  0  0  0  0  0  0  0  0  0  0  0  # atno 6907 bound_to 6896
  152.5399  134.0483  159.8108 H   0  0  0  0  0  0  0  0  0  0  0  0  # atno 6908 bound_to 6896
  151.0670  133.5448  159.2661 H   0  0  0  0  0  0  0  0  0  0  0  0  # atno 6909 bound_to 6896
  146.2214  139.8585  142.8609 H   0  0  0  0  0  0  0  0  0  0  0  0  # atno 7974 bound_to 7965
  154.4758  140.0905  156.7259 H   0  0  0  0  0  0  0  0  0  0  0  0  # atno 8008 bound_to 7997
  155.4600  140.3460  155.4293 H   0  0  0  0  0  0  0  0  0  0  0  0  # atno 8009 bound_to 7997
  156.1114  140.1449  156.9321 H   0  0  0  0  0  0  0  0  0  0  0  0  # atno 8010 bound_to 7997
  139.5229  144.6532  151.5240 H   0  0  0  0  0  0  0  0  0  0  0  0  # atno 10167 bound_to 10162
  156.0660  130.5879  150.8403 H   0  0  0  0  0  0  0  0  0  0  0  0  # atno 10718 bound_to 10713
  154.8719  135.4073  154.3063 H   0  0  0  0  0  0  0  0  0  0  0  0  # atno 10763 bound_to 10752
  153.3914  135.7015  153.6497 H   0  0  0  0  0  0  0  0  0  0  0  0  # atno 10764 bound_to 10752
  153.5278  135.3674  155.2633 H   0  0  0  0  0  0  0  0  0  0  0  0  # atno 10765 bound_to 10752
  141.1598  133.7584  156.9484 H   0  0  0  0  0  0  0  0  0  0  0  0  # atno 11005 bound_to 11000
  145.2728  141.0114  143.3762 LP  0  0  0  0  0  0  0  0  0  0  0  0  # atno 17320 bound_to 7965
  144.9210  139.4412  143.6541 LP  0  0  0  0  0  0  0  0  0  0  0  0  # atno 17321 bound_to 7965
  140.6346  143.9009  150.6636 LP  0  0  0  0  0  0  0  0  0  0  0  0  # atno 17342 bound_to 10162
  140.2324  143.3726  152.1555 LP  0  0  0  0  0  0  0  0  0  0  0  0  # atno 17343 bound_to 10162
  157.5701  131.0946  150.9430 LP  0  0  0  0  0  0  0  0  0  0  0  0  # atno 17370 bound_to 10713
  156.9648  130.5469  149.5287 LP  0  0  0  0  0  0  0  0  0  0  0  0  # atno 17371 bound_to 10713
  140.1274  134.9378  157.2289 LP  0  0  0  0  0  0  0  0  0  0  0  0  # atno 17394 bound_to 11000
  140.2996  134.3147  155.7293 LP  0  0  0  0  0  0  0  0  0  0  0  0  # atno 17395 bound_to 11000

$$$$
