AV-unprocessed.smi:352|AV-procd|sdf|2401|dock8
  -GOLD-   2262022333D 1   1.00000     0.00000
 Structure written by MMmdl.
 45 46  0  0  0  0  0  0  0  0  2 V2000
  144.9165  130.9427  151.1265 C   0  0  0  0  0  0  0  0  0  0  0  0
  145.0740  132.4001  151.3947 C   0  0  0  0  0  0  0  0  0  0  0  0
  146.1633  133.2233  151.4452 C   0  0  0  0  0  0  0  0  0  0  0  0
  145.5905  134.4919  151.7524 C   0  0  0  0  0  0  0  0  0  0  0  0
  146.2917  135.7143  151.9169 N   0  0  0  0  0  0  0  0  0  0  0  0
  145.7921  136.9353  152.1715 C   0  0  0  0  0  0  0  0  0  0  0  0
  144.5975  137.2090  152.2783 O   0  0  0  0  0  0  0  0  0  0  0  0
  146.7725  137.8404  152.3049 N   0  0  0  0  0  0  0  0  0  0  0  0
  146.5881  139.2648  152.5872 C   0  0  0  0  0  0  0  0  0  0  0  0
  146.6120  139.6137  154.1126 C   0  0  0  0  0  0  0  0  0  0  0  0
  145.2513  139.3073  154.6967 N   0  3  0  0  0  0  0  0  0  0  0  0
  144.8392  140.1083  155.8789 C   0  0  0  0  0  0  0  0  0  0  0  0
  144.9711  137.8660  154.9305 C   0  0  0  0  0  0  0  0  0  0  0  0
  147.7239  138.7803  154.8191 C   0  0  0  0  0  0  0  0  0  0  0  0
  149.1532  139.1474  154.3749 C   0  0  0  0  0  0  0  0  0  0  0  0
  149.4396  140.6431  154.5609 C   0  0  0  0  0  0  0  0  0  0  0  0
  148.3899  141.5031  153.8454 C   0  0  0  0  0  0  0  0  0  0  0  0
  146.9680  141.1257  154.3009 C   0  0  0  0  0  0  0  0  0  0  0  0
  144.2771  134.4409  151.8755 N   0  0  0  0  0  0  0  0  0  0  0  0
  143.9370  133.1023  151.6486 O   0  0  0  0  0  0  0  0  0  0  0  0
  145.8303  130.5241  150.7043 H   0  0  0  0  0  0  0  0  0  0  0  0
  144.1057  130.7635  150.4202 H   0  0  0  0  0  0  0  0  0  0  0  0
  144.6908  130.4036  152.0466 H   0  0  0  0  0  0  0  0  0  0  0  0
  147.1940  132.9442  151.2860 H   0  0  0  0  0  0  0  0  0  0  0  0
  147.2960  135.6443  151.8452 H   0  0  0  0  0  0  0  0  0  0  0  0
  147.7230  137.5234  152.1809 H   0  0  0  0  0  0  0  0  0  0  0  0
  147.3892  139.7910  152.0694 H   0  0  0  0  0  0  0  0  0  0  0  0
  145.6857  139.6261  152.0967 H   0  0  0  0  0  0  0  0  0  0  0  0
  145.5630  140.0334  156.6903 H   0  0  0  0  0  0  0  0  0  0  0  0
  143.8783  139.7638  156.2630 H   0  0  0  0  0  0  0  0  0  0  0  0
  144.6974  141.1584  155.6256 H   0  0  0  0  0  0  0  0  0  0  0  0
  145.5538  137.4759  155.7653 H   0  0  0  0  0  0  0  0  0  0  0  0
  145.1699  137.2517  154.0543 H   0  0  0  0  0  0  0  0  0  0  0  0
  143.9181  137.7224  155.1745 H   0  0  0  0  0  0  0  0  0  0  0  0
  147.6602  138.9155  155.8989 H   0  0  0  0  0  0  0  0  0  0  0  0
  147.5795  137.7147  154.6412 H   0  0  0  0  0  0  0  0  0  0  0  0
  149.8743  138.5649  154.9491 H   0  0  0  0  0  0  0  0  0  0  0  0
  149.3075  138.8697  153.3322 H   0  0  0  0  0  0  0  0  0  0  0  0
  149.4427  140.8824  155.6251 H   0  0  0  0  0  0  0  0  0  0  0  0
  150.4359  140.8822  154.1879 H   0  0  0  0  0  0  0  0  0  0  0  0
  148.5743  142.5552  154.0649 H   0  0  0  0  0  0  0  0  0  0  0  0
  148.4966  141.4065  152.7660 H   0  0  0  0  0  0  0  0  0  0  0  0
  146.2376  141.7624  153.8021 H   0  0  0  0  0  0  0  0  0  0  0  0
  146.9294  141.3988  155.3546 H   0  0  0  0  0  0  0  0  0  0  0  0
  144.6031  139.5827  153.9727 H   0  0  0  0  0  0  0  0  0  0  0  0
  1  2  1  0  0  0  0
  1 21  1  0  0  0  0
  1 22  1  0  0  0  0
  1 23  1  0  0  0  0
  2 20  1  0  0  0  0
  2  3  2  0  0  0  0
  3  4  1  0  0  0  0
  3 24  1  0  0  0  0
  4  5  1  0  0  0  0
  4 19  2  0  0  0  0
  5  6  1  0  0  0  0
  5 25  1  0  0  0  0
  6  7  2  0  0  0  0
  6  8  1  0  0  0  0
  8  9  1  0  0  0  0
  8 26  1  0  0  0  0
  9 10  1  0  0  0  0
  9 27  1  0  0  0  0
  9 28  1  0  0  0  0
 10 18  1  0  0  0  0
 10 11  1  0  0  0  0
 10 14  1  0  0  0  0
 11 12  1  0  0  0  0
 11 13  1  0  0  0  0
 11 45  1  0  0  0  0
 12 29  1  0  0  0  0
 12 30  1  0  0  0  0
 12 31  1  0  0  0  0
 13 32  1  0  0  0  0
 13 33  1  0  0  0  0
 13 34  1  0  0  0  0
 14 15  1  0  0  0  0
 14 35  1  0  0  0  0
 14 36  1  0  0  0  0
 15 16  1  0  0  0  0
 15 37  1  0  0  0  0
 15 38  1  0  0  0  0
 16 17  1  0  0  0  0
 16 39  1  0  0  0  0
 16 40  1  0  0  0  0
 17 18  1  0  0  0  0
 17 41  1  0  0  0  0
 17 42  1  0  0  0  0
 18 43  1  0  0  0  0
 18 44  1  0  0  0  0
 19 20  1  0  0  0  0
M  CHG  1  11   1
M  END
> <s_m_source_file>
AV-unprocessed.smi

> <i_m_source_file_index>
352

> <i_lp_mmshare_version>
43012

> <i_f3d_flags>
0

> <s_epik_input>
W0NIM11jMVtjSF1jKG5vMSlbTkhdQyg9TylbTkhdW0NIMl1DMihOKFtDSDNdKVtDSDNdKVtDSDJdW0NIMl1bQ0gyXVtDSDJdW0NIMl0y

> <s_epik_cmdline>
J2VwaWtfcHl0aG9uJywgJy1waCcsICc3LjAnLCAnLXRuJywgJzgnLCAnLW1hJywgJzIwMCcsICctbWV0YWxfYmluZGluZycsICctaW1hZScsICc8aW5maWxlLm1hZT4nLCAnLW9tYWUnLCAnPG91dGZpbGUubWFlPic=

> <r_epik_Ionization_Penalty>
0.00254175

> <r_epik_Ionization_Penalty_Charging>
0.00251809

> <r_epik_Ionization_Penalty_Neutral>
2.36624e-05

> <r_epik_State_Penalty>
0.00174714

> <r_epik_Charging_Adjusted_Penalty>
0.00426523

> <i_epik_Tot_Q>
1

> <i_epik_Tot_abs_Q>
1

> <r_epik_Metal_State_Penalty>
-0

> <b_epik_Metal_Only>
0

> <s_lp_Force_Field>
OPLS_2005

> <r_lp_Energy>
33.762

> <b_lp_Chiralities_Consistent>
1

> <s_lp_Variant>
AV-unprocessed.smi:352-1

> <Gold.Version>
5.8.1

> <Gold.Id.Protein>
6NUR|6NUR_protein|mol2

> <Gold.PLP.Fitness>
37.5456

> <Gold.PLP.PLP>
-27.7990

> <Gold.PLP.part.hbond>
-3.0000

> <Gold.PLP.part.metal>
0.0000

> <Gold.PLP.part.buried>
-3.1692

> <Gold.PLP.part.nonpolar>
-23.2855

> <Gold.PLP.part.repulsive>
1.7049

> <Gold.PLP.ligand.clash>
0.0000

> <Gold.PLP.ligand.torsion>
1.1805

> <Gold.PLP.Chemscore.Hbond>
4.0000

> <Gold.PLP.Chemscore.CHOScore>
0.0000

> <Gold.PLP.Chemscore.Metal>
0.0000

> <Gold.Chemscore.Hbonds>
donor molecule, donor type, donor heavy atom, donor atom, acceptor molecule, acceptor atom, score
      L1  H     5    25       P1  7948  1.00
      L1  H     8    26       P1  7948  1.00
      L1  H    11    45       P1 10175  2.00

> <Gold.PLP.Chemscore.Internal.Correction>
0.1076

> <Gold.Rescore>
     Score         DG    S(hbond)    S(metal)    S(lipo)     H(rot)  DE(clash)    DE(int)     intcor
     14.17     -19.79       2.95        0.00      71.99       1.55       1.63       3.99       ----

> <Gold.Chemscore.Fitness>
14.1747

> <Gold.Chemscore.DG>
-19.7914

> <Gold.Chemscore.ZeroCoef>
-5.4800

> <Gold.Chemscore.Hbond>
2.9484

> <Gold.Chemscore.Metal>
0.0000

> <Gold.Chemscore.Lipo>
71.9881

> <Gold.Chemscore.Internal_Hbond>
0.0000

> <Gold.Chemscore.DEClash>
1.6264

> <Gold.Chemscore.DEInternal>
3.9904

> <Gold.Chemscore.Rot>
1.5464

> <Gold.Chemscore.Internal.Correction>
   9.000000E+99

> <Gold.Chemscore.Hbonds>
donor molecule, donor type, donor heavy atom, donor atom, acceptor molecule, acceptor atom, score
      L1  H     5    25       P1  7948  0.99
      L1  H     8    26       P1  7948  0.97
      L1  H    11    45       P1 10175  0.98

> <Gold.Chemscore.Hbond.Weighted>
-9.8476

> <Gold.Chemscore.Metal.Weighted>
-0.0000

> <Gold.Chemscore.Lipo.Weighted>
-8.4226

> <Gold.Chemscore.Internal_Hbond.Weighted>
0.0000

> <Gold.Chemscore.DEClash.Weighted>
1.6264

> <Gold.Chemscore.DEInternal.Weighted>
3.9904

> <Gold.Chemscore.Rot.Weighted>
3.9588

> <Gold.Chemscore.Internal.Correction.Weighted>
   9.000000E+99

> <Gold.Protein.RotatedTorsions>
[ 6907 6896 6895 6894 ] final -160.02 input  -60.11 | X-H torsion
[ 7974 7965 7964 7962 ] final   76.16 input  175.53 | X-H torsion
[ 8008 7997 7996 7995 ] final -104.09 input   59.86 | X-H torsion
[ 10167 10162 10161 10158 ] final   23.79 input  -65.29 | X-H torsion
[ 10718 10713 10712 10709 ] final   85.94 input   66.30 | X-H torsion
[ 10763 10752 10751 10750 ] final -131.93 input  -60.55 | X-H torsion
[ 11005 11000 10999 10996 ] final   78.20 input  -57.11 | X-H torsion

> <Gold.Protein.ActiveResidues>
 VAL166  LYS551  ARG553  GLY616  TRP617  ASP618  TYR619  PRO620  LYS621  CYS622 
 ASP623  PHE694  ASN695  SER759  ASP760  ASP761  ALA762  ILE779  LEU786  VAL792 
 PHE793  MET794  SER795  GLU796  ALA797  LYS798  CYS799  TRP800  GLU811  SER814 

> <Gold.Protein.RotatedAtoms>
  151.3425  133.3956  159.2672 H   0  0  0  0  0  0  0  0  0  0  0  0  # atno 6907 bound_to 6896
  150.9866  134.9211  159.7886 H   0  0  0  0  0  0  0  0  0  0  0  0  # atno 6908 bound_to 6896
  152.5234  134.3390  159.9262 H   0  0  0  0  0  0  0  0  0  0  0  0  # atno 6909 bound_to 6896
  145.7063  139.2599  143.1676 H   0  0  0  0  0  0  0  0  0  0  0  0  # atno 7974 bound_to 7965
  154.8803  140.0419  157.1778 H   0  0  0  0  0  0  0  0  0  0  0  0  # atno 8008 bound_to 7997
  154.8647  140.2949  155.5497 H   0  0  0  0  0  0  0  0  0  0  0  0  # atno 8009 bound_to 7997
  156.2999  140.2440  156.3626 H   0  0  0  0  0  0  0  0  0  0  0  0  # atno 8010 bound_to 7997
  140.5241  143.9953  150.6431 H   0  0  0  0  0  0  0  0  0  0  0  0  # atno 10167 bound_to 10162
  157.6922  131.0195  150.2898 H   0  0  0  0  0  0  0  0  0  0  0  0  # atno 10718 bound_to 10713
  154.8747  135.3814  154.4327 H   0  0  0  0  0  0  0  0  0  0  0  0  # atno 10763 bound_to 10752
  153.5020  135.7030  153.5832 H   0  0  0  0  0  0  0  0  0  0  0  0  # atno 10764 bound_to 10752
  153.4159  135.3913  155.2047 H   0  0  0  0  0  0  0  0  0  0  0  0  # atno 10765 bound_to 10752
  139.9222  134.7744  156.1619 H   0  0  0  0  0  0  0  0  0  0  0  0  # atno 11005 bound_to 11000
  146.0752  140.7825  142.9668 LP  0  0  0  0  0  0  0  0  0  0  0  0  # atno 17320 bound_to 7965
  144.6954  140.3404  143.7200 LP  0  0  0  0  0  0  0  0  0  0  0  0  # atno 17321 bound_to 7965
  140.3310  143.3078  152.0687 LP  0  0  0  0  0  0  0  0  0  0  0  0  # atno 17342 bound_to 10162
  139.4932  144.6509  151.6677 LP  0  0  0  0  0  0  0  0  0  0  0  0  # atno 17343 bound_to 10162
  156.3431  130.3818  149.7392 LP  0  0  0  0  0  0  0  0  0  0  0  0  # atno 17370 bound_to 10713
  156.4894  130.8078  151.3088 LP  0  0  0  0  0  0  0  0  0  0  0  0  # atno 17371 bound_to 10713
  141.0752  133.6778  156.2222 LP  0  0  0  0  0  0  0  0  0  0  0  0  # atno 17394 bound_to 11000
  140.6440  134.5136  157.5572 LP  0  0  0  0  0  0  0  0  0  0  0  0  # atno 17395 bound_to 11000

$$$$
