AV-unprocessed.smi:1413|AV-procd|sdf|5754|dock2
  -GOLD-   22720 5393D 1   1.00000     0.00000
 Structure written by MMmdl.
 53 55  0  0  0  0  0  0  0  0  1 V2000
  153.6385  141.8831  160.7435 C   0  0  0  0  0  0  0  0  0  0  0  0
  152.5326  142.4950  159.8770 C   0  0  2  0  0  0  0  0  0  0  0  0
  152.2145  141.6211  158.6500 C   0  0  0  0  0  0  0  0  0  0  0  0
  151.2562  142.2957  157.7806 N   0  0  0  0  0  0  0  0  0  0  0  0
  150.6407  141.4827  156.8049 C   0  0  0  0  0  0  0  0  0  0  0  0
  149.2907  141.7043  156.4453 C   0  0  0  0  0  0  0  0  0  0  0  0
  148.6959  140.8803  155.4711 C   0  0  0  0  0  0  0  0  0  0  0  0
  149.4549  139.8495  154.8846 C   0  0  0  0  0  0  0  0  0  0  0  0
  148.8382  139.0428  153.8910 N   0  0  0  0  0  0  0  0  0  0  0  0
  147.5409  139.0008  153.5420 C   0  0  0  0  0  0  0  0  0  0  0  0
  146.6554  139.7105  154.0181 O   0  0  0  0  0  0  0  0  0  0  0  0
  147.3276  138.0880  152.5829 N   0  0  0  0  0  0  0  0  0  0  0  0
  146.0414  137.7903  151.9539 C   0  0  1  0  0  0  0  0  0  0  0  0
  146.2294  137.7750  150.4297 C   0  0  0  0  0  0  0  0  0  0  0  0
  145.4810  136.4495  152.4719 C   0  0  1  0  0  0  0  0  0  0  0  0
  144.0374  136.1447  152.0702 C   0  0  0  0  0  0  0  0  0  0  0  0
  143.9569  134.6314  152.1790 C   0  0  0  0  0  0  0  0  0  0  0  0
  145.4193  134.1779  152.1311 C   0  0  0  0  0  0  0  0  0  0  0  0
  146.1770  135.3570  151.8920 O   0  0  0  0  0  0  0  0  0  0  0  0
  150.8026  139.7137  155.2931 C   0  0  0  0  0  0  0  0  0  0  0  0
  151.3774  140.5044  156.2237 N   0  0  0  0  0  0  0  0  0  0  0  0
  151.6841  143.6360  157.3861 C   0  0  0  0  0  0  0  0  0  0  0  0
  152.0462  144.4872  158.6187 C   0  0  1  0  0  0  0  0  0  0  0  0
  150.8192  144.9810  159.4062 C   0  0  0  0  0  0  0  0  0  0  0  0
  152.9726  143.7833  159.4487 O   0  0  0  0  0  0  0  0  0  0  0  0
  153.3484  140.8995  161.1137 H   0  0  0  0  0  0  0  0  0  0  0  0
  153.8502  142.5140  161.6073 H   0  0  0  0  0  0  0  0  0  0  0  0
  154.5644  141.7696  160.1789 H   0  0  0  0  0  0  0  0  0  0  0  0
  151.6397  142.5976  160.4940 H   0  0  0  0  0  0  0  0  0  0  0  0
  153.1244  141.4284  158.0799 H   0  0  0  0  0  0  0  0  0  0  0  0
  151.8428  140.6539  158.9863 H   0  0  0  0  0  0  0  0  0  0  0  0
  148.7143  142.5007  156.8920 H   0  0  0  0  0  0  0  0  0  0  0  0
  147.6674  141.0404  155.1820 H   0  0  0  0  0  0  0  0  0  0  0  0
  149.4650  138.4671  153.3481 H   0  0  0  0  0  0  0  0  0  0  0  0
  148.1204  137.5565  152.2546 H   0  0  0  0  0  0  0  0  0  0  0  0
  145.3250  138.5799  152.1879 H   0  0  0  0  0  0  0  0  0  0  0  0
  145.2845  137.5898  149.9182 H   0  0  0  0  0  0  0  0  0  0  0  0
  146.9304  136.9982  150.1227 H   0  0  0  0  0  0  0  0  0  0  0  0
  146.6122  138.7311  150.0714 H   0  0  0  0  0  0  0  0  0  0  0  0
  145.5798  136.3919  153.5579 H   0  0  0  0  0  0  0  0  0  0  0  0
  143.3050  136.6545  152.6966 H   0  0  0  0  0  0  0  0  0  0  0  0
  143.8639  136.4448  151.0359 H   0  0  0  0  0  0  0  0  0  0  0  0
  143.4970  134.3305  153.1209 H   0  0  0  0  0  0  0  0  0  0  0  0
  143.3679  134.2061  151.3658 H   0  0  0  0  0  0  0  0  0  0  0  0
  145.7184  133.7449  153.0865 H   0  0  0  0  0  0  0  0  0  0  0  0
  145.6014  133.4384  151.3509 H   0  0  0  0  0  0  0  0  0  0  0  0
  151.4594  138.9751  154.8607 H   0  0  0  0  0  0  0  0  0  0  0  0
  152.5547  143.5471  156.7346 H   0  0  0  0  0  0  0  0  0  0  0  0
  150.9024  144.1353  156.8122 H   0  0  0  0  0  0  0  0  0  0  0  0
  152.5703  145.3753  158.2645 H   0  0  0  0  0  0  0  0  0  0  0  0
  150.1983  145.6284  158.7867 H   0  0  0  0  0  0  0  0  0  0  0  0
  151.1240  145.5559  160.2806 H   0  0  0  0  0  0  0  0  0  0  0  0
  150.1883  144.1603  159.7469 H   0  0  0  0  0  0  0  0  0  0  0  0
  1  2  1  0  0  0  0
  1 26  1  0  0  0  0
  1 27  1  0  0  0  0
  1 28  1  0  0  0  0
  2 25  1  0  0  0  0
  2  3  1  0  0  0  0
  2 29  1  0  0  0  0
  3  4  1  0  0  0  0
  3 30  1  0  0  0  0
  3 31  1  0  0  0  0
  4  5  1  0  0  0  0
  4 22  1  0  0  0  0
  5 21  1  0  0  0  0
  5  6  2  0  0  0  0
  6  7  1  0  0  0  0
  6 32  1  0  0  0  0
  7  8  2  0  0  0  0
  7 33  1  0  0  0  0
  8  9  1  0  0  0  0
  8 20  1  0  0  0  0
  9 10  1  0  0  0  0
  9 34  1  0  0  0  0
 10 11  2  0  0  0  0
 10 12  1  0  0  0  0
 12 13  1  0  0  0  0
 12 35  1  0  0  0  0
 13 14  1  0  0  0  0
 13 15  1  0  0  0  0
 13 36  1  0  0  0  0
 14 37  1  0  0  0  0
 14 38  1  0  0  0  0
 14 39  1  0  0  0  0
 15 19  1  0  0  0  0
 15 16  1  0  0  0  0
 15 40  1  0  0  0  0
 16 17  1  0  0  0  0
 16 41  1  0  0  0  0
 16 42  1  0  0  0  0
 17 18  1  0  0  0  0
 17 43  1  0  0  0  0
 17 44  1  0  0  0  0
 18 19  1  0  0  0  0
 18 45  1  0  0  0  0
 18 46  1  0  0  0  0
 20 21  2  0  0  0  0
 20 47  1  0  0  0  0
 22 23  1  0  0  0  0
 22 48  1  0  0  0  0
 22 49  1  0  0  0  0
 23 24  1  0  0  0  0
 23 25  1  0  0  0  0
 23 50  1  0  0  0  0
 24 51  1  0  0  0  0
 24 52  1  0  0  0  0
 24 53  1  0  0  0  0
M  END
> <s_m_source_file>
AV-unprocessed.smi

> <i_m_source_file_index>
1413

> <i_lp_mmshare_version>
43012

> <i_f3d_flags>
0

> <s_epik_input>
W0NIM11bQ0BASF0xW0NIMl1OKFtDSDJdW0NASF0oTzEpW0NIM10pYzJbY0hdW2NIXWMoW2NIXW4yKVtOSF1DKD1PKVtOSF1bQ0BIXShbQ0gzXSlbQ0BASF0zW0NIMl1bQ0gyXVtDSDJdTzM=

> <s_epik_cmdline>
J2VwaWtfcHl0aG9uJywgJy1waCcsICc3LjAnLCAnLXRuJywgJzgnLCAnLW1hJywgJzIwMCcsICctbWV0YWxfYmluZGluZycsICctaW1hZScsICc8aW5maWxlLm1hZT4nLCAnLW9tYWUnLCAnPG91dGZpbGUubWFlPic=

> <r_lp_tautomer_probability>
1

> <r_epik_Ionization_Penalty>
0.00271172

> <r_epik_Ionization_Penalty_Charging>
0

> <r_epik_Ionization_Penalty_Neutral>
0.00271172

> <r_epik_State_Penalty>
0.00186503

> <r_epik_Charging_Adjusted_Penalty>
0.00186503

> <i_epik_Tot_Q>
0

> <i_epik_Tot_abs_Q>
0

> <r_epik_Metal_State_Penalty>
-0

> <b_epik_Metal_Only>
0

> <s_lp_Force_Field>
OPLS_2005

> <r_lp_Energy>
36.7239

> <b_lp_Chiralities_Consistent>
1

> <s_lp_Variant>
AV-unprocessed.smi:1413-7

> <Gold.Version>
5.8.1

> <Gold.Id.Protein>
6NUR|6NUR_protein|mol2

> <Gold.PLP.Fitness>
45.0948

> <Gold.PLP.PLP>
-43.5082

> <Gold.PLP.part.hbond>
-2.2192

> <Gold.PLP.part.metal>
0.0000

> <Gold.PLP.part.buried>
-0.1911

> <Gold.PLP.part.nonpolar>
-43.9101

> <Gold.PLP.part.repulsive>
2.3086

> <Gold.PLP.ligand.clash>
0.0000

> <Gold.PLP.ligand.torsion>
0.8925

> <Gold.PLP.Chemscore.Hbond>
1.0000

> <Gold.PLP.Chemscore.CHOScore>
0.0000

> <Gold.PLP.Chemscore.Metal>
0.0000

> <Gold.Chemscore.Hbonds>
donor molecule, donor type, donor heavy atom, donor atom, acceptor molecule, acceptor atom, score
      L1  H    12    35       P1  7948  1.00

> <Gold.PLP.Chemscore.Internal.Correction>
0.3716

> <Gold.Rescore>
     Score         DG    S(hbond)    S(metal)    S(lipo)     H(rot)  DE(clash)    DE(int)     intcor
     15.50     -19.89       1.00        0.00     124.10       1.35       2.18       2.21       ----

> <Gold.Chemscore.Fitness>
15.5020

> <Gold.Chemscore.DG>
-19.8891

> <Gold.Chemscore.ZeroCoef>
-5.4800

> <Gold.Chemscore.Hbond>
0.9992

> <Gold.Chemscore.Metal>
0.0000

> <Gold.Chemscore.Lipo>
124.1043

> <Gold.Chemscore.Internal_Hbond>
0.0000

> <Gold.Chemscore.DEClash>
2.1815

> <Gold.Chemscore.DEInternal>
2.2056

> <Gold.Chemscore.Rot>
1.3471

> <Gold.Chemscore.Internal.Correction>
   9.000000E+99

> <Gold.Chemscore.Hbonds>
donor molecule, donor type, donor heavy atom, donor atom, acceptor molecule, acceptor atom, score
      L1  H    12    35       P1  7948  0.97

> <Gold.Chemscore.Hbond.Weighted>
-3.3374

> <Gold.Chemscore.Metal.Weighted>
-0.0000

> <Gold.Chemscore.Lipo.Weighted>
-14.5202

> <Gold.Chemscore.Internal_Hbond.Weighted>
0.0000

> <Gold.Chemscore.DEClash.Weighted>
2.1815

> <Gold.Chemscore.DEInternal.Weighted>
2.2056

> <Gold.Chemscore.Rot.Weighted>
3.4485

> <Gold.Chemscore.Internal.Correction.Weighted>
   9.000000E+99

> <Gold.Protein.RotatedTorsions>
[ 6907 6896 6895 6894 ] final    6.24 input  -60.11 | X-H torsion
[ 7974 7965 7964 7962 ] final    0.40 input  175.53 | X-H torsion
[ 8008 7997 7996 7995 ] final  171.83 input   59.86 | X-H torsion
[ 10167 10162 10161 10158 ] final  172.49 input  -65.29 | X-H torsion
[ 10718 10713 10712 10709 ] final  111.84 input   66.30 | X-H torsion
[ 10763 10752 10751 10750 ] final   12.99 input  -60.55 | X-H torsion
[ 11005 11000 10999 10996 ] final  127.49 input  -57.11 | X-H torsion

> <Gold.Protein.ActiveResidues>
 VAL166  LYS551  ARG553  GLY616  TRP617  ASP618  TYR619  PRO620  LYS621  CYS622 
 ASP623  PHE694  ASN695  SER759  ASP760  ASP761  ALA762  ILE779  LEU786  VAL792 
 PHE793  MET794  SER795  GLU796  ALA797  LYS798  CYS799  TRP800  GLU811  SER814 

> <Gold.Protein.RotatedAtoms>
  151.6705  135.0977  160.0196 H   0  0  0  0  0  0  0  0  0  0  0  0  # atno 6907 bound_to 6896
  152.3894  133.6653  159.6234 H   0  0  0  0  0  0  0  0  0  0  0  0  # atno 6908 bound_to 6896
  150.7813  133.8896  159.3350 H   0  0  0  0  0  0  0  0  0  0  0  0  # atno 6909 bound_to 6896
  146.2434  140.1144  142.8342 H   0  0  0  0  0  0  0  0  0  0  0  0  # atno 7974 bound_to 7965
  156.1233  140.1501  156.9173 H   0  0  0  0  0  0  0  0  0  0  0  0  # atno 8008 bound_to 7997
  154.4852  140.0867  156.7512 H   0  0  0  0  0  0  0  0  0  0  0  0  # atno 8009 bound_to 7997
  155.4389  140.3430  155.4290 H   0  0  0  0  0  0  0  0  0  0  0  0  # atno 8010 bound_to 7997
  139.5078  144.3368  152.0057 H   0  0  0  0  0  0  0  0  0  0  0  0  # atno 10167 bound_to 10162
  157.6424  131.0957  150.6808 H   0  0  0  0  0  0  0  0  0  0  0  0  # atno 10718 bound_to 10713
  153.1766  135.6821  153.8535 H   0  0  0  0  0  0  0  0  0  0  0  0  # atno 10763 bound_to 10752
  153.7881  135.3173  155.3376 H   0  0  0  0  0  0  0  0  0  0  0  0  # atno 10764 bound_to 10752
  154.8033  135.4764  154.0422 H   0  0  0  0  0  0  0  0  0  0  0  0  # atno 10765 bound_to 10752
  139.9510  134.9622  156.8862 H   0  0  0  0  0  0  0  0  0  0  0  0  # atno 11005 bound_to 11000
  145.0459  140.8981  143.5024 LP  0  0  0  0  0  0  0  0  0  0  0  0  # atno 17320 bound_to 7965
  145.1233  139.2679  143.5577 LP  0  0  0  0  0  0  0  0  0  0  0  0  # atno 17321 bound_to 7965
  140.2807  144.3863  150.6120 LP  0  0  0  0  0  0  0  0  0  0  0  0  # atno 17342 bound_to 10162
  140.6020  143.2167  151.7053 LP  0  0  0  0  0  0  0  0  0  0  0  0  # atno 17343 bound_to 10162
  156.7129  130.4657  149.5542 LP  0  0  0  0  0  0  0  0  0  0  0  0  # atno 17370 bound_to 10713
  156.1717  130.6441  151.0845 LP  0  0  0  0  0  0  0  0  0  0  0  0  # atno 17371 bound_to 10713
  140.5719  134.0435  155.7433 LP  0  0  0  0  0  0  0  0  0  0  0  0  # atno 17394 bound_to 11000
  141.1173  133.9520  157.2798 LP  0  0  0  0  0  0  0  0  0  0  0  0  # atno 17395 bound_to 11000

$$$$
