AV-unprocessed.smi:933|AV-procd|sdf|4203|dock2
  -GOLD-   22720 2113D 1   1.00000     0.00000
 Structure written by MMmdl.
 42 43  0  0  0  0  0  0  0  0  1 V2000
  153.2630  137.6082  156.7084 C   0  0  0  0  0  0  0  0  0  0  0  0
  153.0414  138.3504  155.3861 C   0  0  0  0  0  0  0  0  0  0  0  0
  151.5969  138.4637  155.0307 C   0  0  0  0  0  0  0  0  0  0  0  0
  150.9380  139.6245  154.9900 N   0  0  0  0  0  0  0  0  0  0  0  0
  149.6074  139.4768  154.5844 C   0  0  0  0  0  0  0  0  0  0  0  0
  148.7152  140.6792  154.4671 C   0  0  0  0  0  0  0  0  0  0  0  0
  148.0159  141.0554  155.7851 C   0  0  0  0  0  0  0  0  0  0  0  0
  148.6556  142.2003  156.4317 N   0  0  0  0  0  0  0  0  0  0  0  0
  149.1773  142.2510  157.6687 C   0  0  0  0  0  0  0  0  0  0  0  0
  149.1644  141.2790  158.4214 O   0  0  0  0  0  0  0  0  0  0  0  0
  149.7038  143.4413  158.0013 N   0  0  0  0  0  0  0  0  0  0  0  0
  150.3275  143.7612  159.2842 C   0  0  2  0  0  0  0  0  0  0  0  0
  150.5004  145.2871  159.4472 C   0  0  0  0  0  0  0  0  0  0  0  0
  151.9942  145.5369  159.6775 C   0  0  0  0  0  0  0  0  0  0  0  0
  152.6924  144.3161  159.0848 C   0  0  0  0  0  0  0  0  0  0  0  0
  151.7461  143.1595  159.4108 C   0  0  2  0  0  0  0  0  0  0  0  0
  152.0282  141.8790  158.6048 C   0  0  0  0  0  0  0  0  0  0  0  0
  149.2671  138.1746  154.3145 C   0  0  0  0  0  0  0  0  0  0  0  0
  150.6092  137.0890  154.5503 S   0  0  0  0  0  0  0  0  0  0  0  0
  154.3255  137.5413  156.9435 H   0  0  0  0  0  0  0  0  0  0  0  0
  152.8674  136.5931  156.6605 H   0  0  0  0  0  0  0  0  0  0  0  0
  152.7700  138.1211  157.5348 H   0  0  0  0  0  0  0  0  0  0  0  0
  153.4659  139.3528  155.4461 H   0  0  0  0  0  0  0  0  0  0  0  0
  153.5647  137.8371  154.5785 H   0  0  0  0  0  0  0  0  0  0  0  0
  149.2944  141.5350  154.1187 H   0  0  0  0  0  0  0  0  0  0  0  0
  147.9607  140.5064  153.6983 H   0  0  0  0  0  0  0  0  0  0  0  0
  146.9684  141.2893  155.5874 H   0  0  0  0  0  0  0  0  0  0  0  0
  148.0327  140.2013  156.4637 H   0  0  0  0  0  0  0  0  0  0  0  0
  148.7044  143.0466  155.8820 H   0  0  0  0  0  0  0  0  0  0  0  0
  149.6700  144.1815  157.3159 H   0  0  0  0  0  0  0  0  0  0  0  0
  149.7072  143.3632  160.0896 H   0  0  0  0  0  0  0  0  0  0  0  0
  150.1793  145.8156  158.5482 H   0  0  0  0  0  0  0  0  0  0  0  0
  149.9024  145.6746  160.2725 H   0  0  0  0  0  0  0  0  0  0  0  0
  152.3359  146.4719  159.2323 H   0  0  0  0  0  0  0  0  0  0  0  0
  152.1958  145.5873  160.7482 H   0  0  0  0  0  0  0  0  0  0  0  0
  152.7865  144.4330  158.0042 H   0  0  0  0  0  0  0  0  0  0  0  0
  153.6925  144.1683  159.4937 H   0  0  0  0  0  0  0  0  0  0  0  0
  151.8933  142.9175  160.4647 H   0  0  0  0  0  0  0  0  0  0  0  0
  151.9742  142.0544  157.5300 H   0  0  0  0  0  0  0  0  0  0  0  0
  151.3132  141.0947  158.8543 H   0  0  0  0  0  0  0  0  0  0  0  0
  153.0258  141.4973  158.8234 H   0  0  0  0  0  0  0  0  0  0  0  0
  148.3138  137.7903  153.9837 H   0  0  0  0  0  0  0  0  0  0  0  0
  1  2  1  0  0  0  0
  1 20  1  0  0  0  0
  1 21  1  0  0  0  0
  1 22  1  0  0  0  0
  2  3  1  0  0  0  0
  2 23  1  0  0  0  0
  2 24  1  0  0  0  0
  3 19  1  0  0  0  0
  3  4  2  0  0  0  0
  4  5  1  0  0  0  0
  5  6  1  0  0  0  0
  5 18  2  0  0  0  0
  6  7  1  0  0  0  0
  6 25  1  0  0  0  0
  6 26  1  0  0  0  0
  7  8  1  0  0  0  0
  7 27  1  0  0  0  0
  7 28  1  0  0  0  0
  8  9  1  0  0  0  0
  8 29  1  0  0  0  0
  9 10  2  0  0  0  0
  9 11  1  0  0  0  0
 11 12  1  0  0  0  0
 11 30  1  0  0  0  0
 12 16  1  0  0  0  0
 12 13  1  0  0  0  0
 12 31  1  0  0  0  0
 13 14  1  0  0  0  0
 13 32  1  0  0  0  0
 13 33  1  0  0  0  0
 14 15  1  0  0  0  0
 14 34  1  0  0  0  0
 14 35  1  0  0  0  0
 15 16  1  0  0  0  0
 15 36  1  0  0  0  0
 15 37  1  0  0  0  0
 16 17  1  0  0  0  0
 16 38  1  0  0  0  0
 17 39  1  0  0  0  0
 17 40  1  0  0  0  0
 17 41  1  0  0  0  0
 18 19  1  0  0  0  0
 18 42  1  0  0  0  0
M  END
> <s_m_source_file>
AV-unprocessed.smi

> <i_m_source_file_index>
933

> <i_lp_mmshare_version>
43012

> <i_f3d_flags>
0

> <s_epik_input>
W0NIM11bQ0gyXWMxbmMoW2NIXXMxKVtDSDJdW0NIMl1bTkhdQyg9TylbTkhdW0NAQEhdMltDSDJdW0NIMl1bQ0gyXVtDQEhdMltDSDNd

> <s_epik_cmdline>
J2VwaWtfcHl0aG9uJywgJy1waCcsICc3LjAnLCAnLXRuJywgJzgnLCAnLW1hJywgJzIwMCcsICctbWV0YWxfYmluZGluZycsICctaW1hZScsICc8aW5maWxlLm1hZT4nLCAnLW9tYWUnLCAnPG91dGZpbGUubWFlPic=

> <r_epik_Ionization_Penalty>
0.00203408

> <r_epik_Ionization_Penalty_Charging>
0

> <r_epik_Ionization_Penalty_Neutral>
0.00203408

> <r_epik_State_Penalty>
0.0013452

> <r_epik_Charging_Adjusted_Penalty>
0.0013452

> <i_epik_Tot_Q>
0

> <i_epik_Tot_abs_Q>
0

> <r_epik_Metal_State_Penalty>
-0

> <b_epik_Metal_Only>
0

> <s_lp_Force_Field>
OPLS_2005

> <r_lp_Energy>
20.7198

> <b_lp_Chiralities_Consistent>
1

> <s_lp_Variant>
AV-unprocessed.smi:933-3

> <Gold.Version>
5.8.1

> <Gold.Id.Protein>
6NUR|6NUR_protein|mol2

> <Gold.PLP.Fitness>
46.0771

> <Gold.PLP.PLP>
-37.5935

> <Gold.PLP.part.hbond>
-3.6111

> <Gold.PLP.part.metal>
0.0000

> <Gold.PLP.part.buried>
0.1430

> <Gold.PLP.part.nonpolar>
-34.3886

> <Gold.PLP.part.repulsive>
0.1445

> <Gold.PLP.ligand.clash>
0.0000

> <Gold.PLP.ligand.torsion>
0.9153

> <Gold.PLP.Chemscore.Hbond>
2.9280

> <Gold.PLP.Chemscore.CHOScore>
0.4850

> <Gold.PLP.Chemscore.Metal>
0.0000

> <Gold.Chemscore.Hbonds>
donor molecule, donor type, donor heavy atom, donor atom, acceptor molecule, acceptor atom, score
      L1  H     8    29       P1  8028  1.00
      L1  H    11    30       P1  8028  0.91
      P1  H  7989  7998       L1     4  0.93
      L1  C    18    42       P1  7948  0.26

> <Gold.PLP.Chemscore.Internal.Correction>
0.0752

> <Gold.Rescore>
     Score         DG    S(hbond)    S(metal)    S(lipo)     H(rot)  DE(clash)    DE(int)     intcor
     19.67     -22.92       2.33        0.00     116.44       1.55       0.07       3.18       ----

> <Gold.Chemscore.Fitness>
19.6705

> <Gold.Chemscore.DG>
-22.9215

> <Gold.Chemscore.ZeroCoef>
-5.4800

> <Gold.Chemscore.Hbond>
2.3299

> <Gold.Chemscore.Metal>
0.0000

> <Gold.Chemscore.Lipo>
116.4356

> <Gold.Chemscore.Internal_Hbond>
0.0000

> <Gold.Chemscore.DEClash>
0.0700

> <Gold.Chemscore.DEInternal>
3.1810

> <Gold.Chemscore.Rot>
1.5482

> <Gold.Chemscore.Internal.Correction>
   9.000000E+99

> <Gold.Chemscore.Hbonds>
donor molecule, donor type, donor heavy atom, donor atom, acceptor molecule, acceptor atom, score
      L1  H     8    29       P1  8028  0.98
      L1  H    11    30       P1  8028  0.31
      P1  H  7989  7998       L1     4  0.19

> <Gold.Chemscore.Hbond.Weighted>
-7.7820

> <Gold.Chemscore.Metal.Weighted>
-0.0000

> <Gold.Chemscore.Lipo.Weighted>
-13.6230

> <Gold.Chemscore.Internal_Hbond.Weighted>
0.0000

> <Gold.Chemscore.DEClash.Weighted>
0.0700

> <Gold.Chemscore.DEInternal.Weighted>
3.1810

> <Gold.Chemscore.Rot.Weighted>
3.9635

> <Gold.Chemscore.Internal.Correction.Weighted>
   9.000000E+99

> <Gold.Protein.RotatedTorsions>
[ 6907 6896 6895 6894 ] final  166.53 input  -60.11 | X-H torsion
[ 7974 7965 7964 7962 ] final   19.22 input  175.53 | X-H torsion
[ 8008 7997 7996 7995 ] final -127.07 input   59.86 | X-H torsion
[ 10167 10162 10161 10158 ] final  -45.32 input  -65.29 | X-H torsion
[ 10718 10713 10712 10709 ] final   73.58 input   66.30 | X-H torsion
[ 10763 10752 10751 10750 ] final  -76.89 input  -60.55 | X-H torsion
[ 11005 11000 10999 10996 ] final  163.52 input  -57.11 | X-H torsion

> <Gold.Protein.ActiveResidues>
 VAL166  LYS551  ARG553  GLY616  TRP617  ASP618  TYR619  PRO620  LYS621  CYS622 
 ASP623  PHE694  ASN695  SER759  ASP760  ASP761  ALA762  ILE779  LEU786  VAL792 
 PHE793  MET794  SER795  GLU796  ALA797  LYS798  CYS799  TRP800  GLU811  SER814 

> <Gold.Protein.RotatedAtoms>
  151.8774  133.3488  159.3754 H   0  0  0  0  0  0  0  0  0  0  0  0  # atno 6907 bound_to 6896
  150.7136  134.5052  159.5590 H   0  0  0  0  0  0  0  0  0  0  0  0  # atno 6908 bound_to 6896
  152.2597  134.8047  160.0483 H   0  0  0  0  0  0  0  0  0  0  0  0  # atno 6909 bound_to 6896
  146.2157  139.8344  142.8653 H   0  0  0  0  0  0  0  0  0  0  0  0  # atno 7974 bound_to 7965
  155.2401  140.0428  157.2974 H   0  0  0  0  0  0  0  0  0  0  0  0  # atno 8008 bound_to 7997
  154.5834  140.2407  155.7992 H   0  0  0  0  0  0  0  0  0  0  0  0  # atno 8009 bound_to 7997
  156.2209  140.2970  155.9958 H   0  0  0  0  0  0  0  0  0  0  0  0  # atno 8010 bound_to 7997
  140.6863  143.2885  151.3621 H   0  0  0  0  0  0  0  0  0  0  0  0  # atno 10167 bound_to 10162
  157.6554  130.9635  150.1090 H   0  0  0  0  0  0  0  0  0  0  0  0  # atno 10718 bound_to 10713
  154.5058  135.5782  153.6566 H   0  0  0  0  0  0  0  0  0  0  0  0  # atno 10763 bound_to 10752
  152.9887  135.6146  154.2943 H   0  0  0  0  0  0  0  0  0  0  0  0  # atno 10764 bound_to 10752
  154.2854  135.2850  155.2658 H   0  0  0  0  0  0  0  0  0  0  0  0  # atno 10765 bound_to 10752
  140.2366  134.8083  157.3370 H   0  0  0  0  0  0  0  0  0  0  0  0  # atno 11005 bound_to 11000
  145.2964  141.0182  143.3633 LP  0  0  0  0  0  0  0  0  0  0  0  0  # atno 17320 bound_to 7965
  144.9039  139.4615  143.6619 LP  0  0  0  0  0  0  0  0  0  0  0  0  # atno 17321 bound_to 7965
  139.6224  144.0881  152.2403 LP  0  0  0  0  0  0  0  0  0  0  0  0  # atno 17342 bound_to 10162
  140.0329  144.6067  150.7473 LP  0  0  0  0  0  0  0  0  0  0  0  0  # atno 17343 bound_to 10162
  156.1991  130.3659  149.8810 LP  0  0  0  0  0  0  0  0  0  0  0  0  # atno 17370 bound_to 10713
  156.6719  130.8823  151.3563 LP  0  0  0  0  0  0  0  0  0  0  0  0  # atno 17371 bound_to 10713
  140.1696  134.4626  155.7840 LP  0  0  0  0  0  0  0  0  0  0  0  0  # atno 17394 bound_to 11000
  141.2214  133.6936  156.7684 LP  0  0  0  0  0  0  0  0  0  0  0  0  # atno 17395 bound_to 11000

$$$$
