AV-unprocessed.smi:1270|AV-procd|sdf|5331|dock5
  -GOLD-   22720 4463D 1   1.00000     0.00000
 Structure written by MMmdl.
 42 43  0  0  0  0  0  0  0  0  1 V2000
  144.5586  134.6274  150.4947 C   0  0  0  0  0  0  0  0  0  0  0  0
  145.7674  134.3914  151.2088 O   0  0  0  0  0  0  0  0  0  0  0  0
  146.0221  133.1140  151.6709 C   0  0  0  0  0  0  0  0  0  0  0  0
  145.2970  132.0873  151.1599 N   0  0  0  0  0  0  0  0  0  0  0  0
  145.5393  130.8405  151.6135 C   0  0  0  0  0  0  0  0  0  0  0  0
  146.5034  130.5529  152.5966 C   0  0  0  0  0  0  0  0  0  0  0  0
  147.2567  131.6158  153.1285 C   0  0  0  0  0  0  0  0  0  0  0  0
  147.0241  132.9294  152.6524 C   0  0  0  0  0  0  0  0  0  0  0  0
  147.7114  134.0790  153.1326 N   0  0  0  0  0  0  0  0  0  0  0  0
  148.1221  134.3550  154.3821 C   0  0  0  0  0  0  0  0  0  0  0  0
  147.9894  133.6158  155.3570 O   0  0  0  0  0  0  0  0  0  0  0  0
  148.7250  135.5510  154.4391 N   0  0  0  0  0  0  0  0  0  0  0  0
  149.2798  136.1565  155.6463 C   0  0  0  0  0  0  0  0  0  0  0  0
  148.7010  137.5663  155.8359 C   0  0  0  0  0  0  0  0  0  0  0  0
  149.3041  138.2606  157.0699 C   0  0  0  0  0  0  0  0  0  0  0  0
  150.7803  138.2709  157.0233 N   0  0  0  0  0  0  0  0  0  0  0  0
  151.6265  139.7153  156.5465 S   0  0  0  0  0  0  0  0  0  0  0  0
  150.4372  141.0720  156.9044 C   0  0  0  0  0  0  0  0  0  0  0  0
  152.7849  139.8737  157.4390 O   0  0  0  0  0  0  0  0  0  0  0  0
  151.8305  139.6573  155.0910 O   0  0  0  0  0  0  0  0  0  0  0  0
  151.3983  136.9480  156.8034 C   0  0  0  0  0  0  0  0  0  0  0  0
  150.8134  136.2451  155.5660 C   0  0  0  0  0  0  0  0  0  0  0  0
  144.5113  135.6765  150.2033 H   0  0  0  0  0  0  0  0  0  0  0  0
  143.6837  134.4156  151.1110 H   0  0  0  0  0  0  0  0  0  0  0  0
  144.5088  134.0288  149.5837 H   0  0  0  0  0  0  0  0  0  0  0  0
  144.9414  130.0494  151.1856 H   0  0  0  0  0  0  0  0  0  0  0  0
  146.6579  129.5405  152.9393 H   0  0  0  0  0  0  0  0  0  0  0  0
  147.9817  131.4019  153.8981 H   0  0  0  0  0  0  0  0  0  0  0  0
  147.9669  134.7511  152.4239 H   0  0  0  0  0  0  0  0  0  0  0  0
  148.7974  136.0875  153.5869 H   0  0  0  0  0  0  0  0  0  0  0  0
  149.0001  135.5499  156.5101 H   0  0  0  0  0  0  0  0  0  0  0  0
  148.8851  138.1666  154.9455 H   0  0  0  0  0  0  0  0  0  0  0  0
  147.6173  137.5114  155.9461 H   0  0  0  0  0  0  0  0  0  0  0  0
  148.9191  139.2758  157.1604 H   0  0  0  0  0  0  0  0  0  0  0  0
  148.9927  137.7333  157.9723 H   0  0  0  0  0  0  0  0  0  0  0  0
  150.8941  142.0241  156.6359 H   0  0  0  0  0  0  0  0  0  0  0  0
  150.1955  141.0835  157.9655 H   0  0  0  0  0  0  0  0  0  0  0  0
  149.5319  140.9369  156.3152 H   0  0  0  0  0  0  0  0  0  0  0  0
  152.4795  137.0438  156.7097 H   0  0  0  0  0  0  0  0  0  0  0  0
  151.2202  136.3343  157.6873 H   0  0  0  0  0  0  0  0  0  0  0  0
  151.2441  135.2465  155.4846 H   0  0  0  0  0  0  0  0  0  0  0  0
  151.1078  136.7760  154.6614 H   0  0  0  0  0  0  0  0  0  0  0  0
  1  2  1  0  0  0  0
  1 23  1  0  0  0  0
  1 24  1  0  0  0  0
  1 25  1  0  0  0  0
  2  3  1  0  0  0  0
  3  8  1  0  0  0  0
  3  4  2  0  0  0  0
  4  5  1  0  0  0  0
  5  6  2  0  0  0  0
  5 26  1  0  0  0  0
  6  7  1  0  0  0  0
  6 27  1  0  0  0  0
  7  8  2  0  0  0  0
  7 28  1  0  0  0  0
  8  9  1  0  0  0  0
  9 10  1  0  0  0  0
  9 29  1  0  0  0  0
 10 11  2  0  0  0  0
 10 12  1  0  0  0  0
 12 13  1  0  0  0  0
 12 30  1  0  0  0  0
 13 22  1  0  0  0  0
 13 14  1  0  0  0  0
 13 31  1  0  0  0  0
 14 15  1  0  0  0  0
 14 32  1  0  0  0  0
 14 33  1  0  0  0  0
 15 16  1  0  0  0  0
 15 34  1  0  0  0  0
 15 35  1  0  0  0  0
 16 17  1  0  0  0  0
 16 21  1  0  0  0  0
 17 18  1  0  0  0  0
 17 19  2  0  0  0  0
 17 20  2  0  0  0  0
 18 36  1  0  0  0  0
 18 37  1  0  0  0  0
 18 38  1  0  0  0  0
 21 22  1  0  0  0  0
 21 39  1  0  0  0  0
 21 40  1  0  0  0  0
 22 41  1  0  0  0  0
 22 42  1  0  0  0  0
M  END
> <s_m_source_file>
AV-unprocessed.smi

> <i_m_source_file_index>
1270

> <i_lp_mmshare_version>
43012

> <i_f3d_flags>
0

> <s_epik_input>
W0NIM11PYzFuW2NIXVtjSF1bY0hdYzFbTkhdQyg9TylbTkhdW0NIXTJbQ0gyXVtDSDJdTihTKD1PKSg9TylbQ0gzXSlbQ0gyXVtDSDJdMg==

> <s_epik_cmdline>
J2VwaWtfcHl0aG9uJywgJy1waCcsICc3LjAnLCAnLXRuJywgJzgnLCAnLW1hJywgJzIwMCcsICctbWV0YWxfYmluZGluZycsICctaW1hZScsICc8aW5maWxlLm1hZT4nLCAnLW9tYWUnLCAnPG91dGZpbGUubWFlPic=

> <r_lp_tautomer_probability>
1

> <r_epik_Ionization_Penalty>
9.27336e-05

> <r_epik_Ionization_Penalty_Charging>
0

> <r_epik_Ionization_Penalty_Neutral>
9.27336e-05

> <r_epik_State_Penalty>
-0

> <r_epik_Charging_Adjusted_Penalty>
0

> <i_epik_Tot_Q>
0

> <i_epik_Tot_abs_Q>
0

> <r_epik_Metal_State_Penalty>
-0

> <b_epik_Metal_Only>
0

> <s_lp_Force_Field>
OPLS_2005

> <r_lp_Energy>
1.71558

> <b_lp_Chiralities_Consistent>
1

> <s_lp_Variant>
AV-unprocessed.smi:1270-1

> <Gold.Version>
5.8.1

> <Gold.Id.Protein>
6NUR|6NUR_protein|mol2

> <Gold.PLP.Fitness>
37.6863

> <Gold.PLP.PLP>
-27.1266

> <Gold.PLP.part.hbond>
-4.0000

> <Gold.PLP.part.metal>
0.0000

> <Gold.PLP.part.buried>
-4.8169

> <Gold.PLP.part.nonpolar>
-18.6681

> <Gold.PLP.part.repulsive>
0.3223

> <Gold.PLP.ligand.clash>
0.0000

> <Gold.PLP.ligand.torsion>
1.7485

> <Gold.PLP.Chemscore.Hbond>
4.0000

> <Gold.PLP.Chemscore.CHOScore>
0.0000

> <Gold.PLP.Chemscore.Metal>
0.0000

> <Gold.Chemscore.Hbonds>
donor molecule, donor type, donor heavy atom, donor atom, acceptor molecule, acceptor atom, score
      L1  H     9    29       P1  7948  1.00
      L1  H    12    30       P1  7948  1.00
      P1  H  7989  7998       L1    20  1.00
      P1  H  7997  8009       L1    19  1.00

> <Gold.PLP.Chemscore.Internal.Correction>
2.0568

> <Gold.Rescore>
     Score         DG    S(hbond)    S(metal)    S(lipo)     H(rot)  DE(clash)    DE(int)     intcor
     18.84     -20.52       3.70        0.00      51.02       1.29       0.00       1.68       ----

> <Gold.Chemscore.Fitness>
18.8403

> <Gold.Chemscore.DG>
-20.5177

> <Gold.Chemscore.ZeroCoef>
-5.4800

> <Gold.Chemscore.Hbond>
3.7031

> <Gold.Chemscore.Metal>
0.0000

> <Gold.Chemscore.Lipo>
51.0182

> <Gold.Chemscore.Internal_Hbond>
0.0000

> <Gold.Chemscore.DEClash>
0.0000

> <Gold.Chemscore.DEInternal>
1.6774

> <Gold.Chemscore.Rot>
1.2890

> <Gold.Chemscore.Internal.Correction>
   9.000000E+99

> <Gold.Chemscore.Hbonds>
donor molecule, donor type, donor heavy atom, donor atom, acceptor molecule, acceptor atom, score
      L1  H     9    29       P1  7948  0.63
      L1  H    12    30       P1  7948  0.96
      P1  H  7989  7998       L1    20  0.91
      P1  H  7997  8009       L1    19  0.97

> <Gold.Chemscore.Hbond.Weighted>
-12.3685

> <Gold.Chemscore.Metal.Weighted>
-0.0000

> <Gold.Chemscore.Lipo.Weighted>
-5.9691

> <Gold.Chemscore.Internal_Hbond.Weighted>
0.0000

> <Gold.Chemscore.DEClash.Weighted>
0.0000

> <Gold.Chemscore.DEInternal.Weighted>
1.6774

> <Gold.Chemscore.Rot.Weighted>
3.2999

> <Gold.Chemscore.Internal.Correction.Weighted>
   9.000000E+99

> <Gold.Protein.RotatedTorsions>
[ 6907 6896 6895 6894 ] final   92.52 input  -60.11 | X-H torsion
[ 7974 7965 7964 7962 ] final  115.57 input  175.53 | X-H torsion
[ 8008 7997 7996 7995 ] final  174.85 input   59.86 | X-H torsion
[ 10167 10162 10161 10158 ] final   -3.90 input  -65.29 | X-H torsion
[ 10718 10713 10712 10709 ] final  168.15 input   66.30 | X-H torsion
[ 10763 10752 10751 10750 ] final   43.62 input  -60.55 | X-H torsion
[ 11005 11000 10999 10996 ] final -151.25 input  -57.11 | X-H torsion

> <Gold.Protein.ActiveResidues>
 VAL166  LYS551  ARG553  GLY616  TRP617  ASP618  TYR619  PRO620  LYS621  CYS622 
 ASP623  PHE694  ASN695  SER759  ASP760  ASP761  ALA762  ILE779  LEU786  VAL792 
 PHE793  MET794  SER795  GLU796  ALA797  LYS798  CYS799  TRP800  GLU811  SER814 

> <Gold.Protein.RotatedAtoms>
  152.5452  134.1490  159.8510 H   0  0  0  0  0  0  0  0  0  0  0  0  # atno 6907 bound_to 6896
  151.1519  133.4895  159.2602 H   0  0  0  0  0  0  0  0  0  0  0  0  # atno 6908 bound_to 6896
  151.1463  135.0216  159.8703 H   0  0  0  0  0  0  0  0  0  0  0  0  # atno 6909 bound_to 6896
  145.1904  139.3003  143.4371 H   0  0  0  0  0  0  0  0  0  0  0  0  # atno 7974 bound_to 7965
  156.0931  140.1424  156.9566 H   0  0  0  0  0  0  0  0  0  0  0  0  # atno 8008 bound_to 7997
  154.4654  140.0928  156.7053 H   0  0  0  0  0  0  0  0  0  0  0  0  # atno 8009 bound_to 7997
  155.4886  140.3447  155.4353 H   0  0  0  0  0  0  0  0  0  0  0  0  # atno 8010 bound_to 7997
  140.6907  143.6486  150.8370 H   0  0  0  0  0  0  0  0  0  0  0  0  # atno 10167 bound_to 10162
  157.0413  131.0287  151.2712 H   0  0  0  0  0  0  0  0  0  0  0  0  # atno 10718 bound_to 10713
  152.9857  135.6096  154.3141 H   0  0  0  0  0  0  0  0  0  0  0  0  # atno 10763 bound_to 10752
  154.2855  135.2776  155.2680 H   0  0  0  0  0  0  0  0  0  0  0  0  # atno 10764 bound_to 10752
  154.4999  135.5869  153.6580 H   0  0  0  0  0  0  0  0  0  0  0  0  # atno 10765 bound_to 10752
  140.7316  134.3614  157.5165 H   0  0  0  0  0  0  0  0  0  0  0  0  # atno 11005 bound_to 11000
  146.3437  140.2114  142.8590 LP  0  0  0  0  0  0  0  0  0  0  0  0  # atno 17320 bound_to 7965
  145.0047  140.8662  143.5260 LP  0  0  0  0  0  0  0  0  0  0  0  0  # atno 17321 bound_to 7965
  140.0198  143.5554  152.2805 LP  0  0  0  0  0  0  0  0  0  0  0  0  # atno 17342 bound_to 10162
  139.6308  144.7644  151.2540 LP  0  0  0  0  0  0  0  0  0  0  0  0  # atno 17343 bound_to 10162
  157.5102  130.7934  149.7697 LP  0  0  0  0  0  0  0  0  0  0  0  0  # atno 17370 bound_to 10713
  156.0037  130.3866  150.2510 LP  0  0  0  0  0  0  0  0  0  0  0  0  # atno 17371 bound_to 10713
  139.8825  134.9022  156.2828 LP  0  0  0  0  0  0  0  0  0  0  0  0  # atno 17394 bound_to 11000
  140.9916  133.7205  156.0822 LP  0  0  0  0  0  0  0  0  0  0  0  0  # atno 17395 bound_to 11000

$$$$
