AV-unprocessed.smi:354|AV-procd|sdf|2405|dock3
  -GOLD-   2262022333D 1   1.00000     0.00000
 Structure written by MMmdl.
 37 39  0  0  0  0  0  0  0  0  2 V2000
  151.3172  136.4641  154.3440 O   0  0  0  0  0  0  0  0  0  0  0  0
  151.6775  137.7920  154.6524 C   0  0  0  0  0  0  0  0  0  0  0  0
  150.5325  138.7403  154.5027 C   0  0  0  0  0  0  0  0  0  0  0  0
  149.4534  138.5489  153.6921 N   0  3  0  0  0  0  0  0  0  0  0  0
  148.5876  139.6383  153.7892 C   0  0  0  0  0  0  0  0  0  0  0  0
  147.3738  139.8976  153.1602 C   0  0  0  0  0  0  0  0  0  0  0  0
  146.7417  141.1164  153.4830 C   0  0  0  0  0  0  0  0  0  0  0  0
  147.3167  142.0222  154.3980 C   0  0  0  0  0  0  0  0  0  0  0  0
  148.5483  141.7485  155.0287 C   0  0  0  0  0  0  0  0  0  0  0  0
  149.1663  140.5410  154.7039 C   0  0  0  0  0  0  0  0  0  0  0  0
  150.3648  139.9488  155.1170 N   0  0  0  0  0  0  0  0  0  0  0  0
  151.2160  140.6697  156.0774 C   0  0  0  0  0  0  0  0  0  0  0  0
  150.8339  140.3914  157.5450 C   0  0  2  0  0  0  0  0  0  0  0  0
  149.4315  140.4998  157.7033 O   0  0  0  0  0  0  0  0  0  0  0  0
  151.6095  141.2968  158.4926 C   0  0  0  0  0  0  0  0  0  0  0  0
  151.4786  142.7022  158.4187 C   0  0  0  0  0  0  0  0  0  0  0  0
  152.2098  143.5319  159.2906 C   0  0  0  0  0  0  0  0  0  0  0  0
  153.0812  142.9637  160.2388 C   0  0  0  0  0  0  0  0  0  0  0  0
  153.2229  141.5652  160.3126 C   0  0  0  0  0  0  0  0  0  0  0  0
  152.4918  140.7332  159.4422 C   0  0  0  0  0  0  0  0  0  0  0  0
  152.6472  139.3893  159.5193 F   0  0  0  0  0  0  0  0  0  0  0  0
  150.9705  136.4424  153.4651 H   0  0  0  0  0  0  0  0  0  0  0  0
  152.0409  137.8297  155.6796 H   0  0  0  0  0  0  0  0  0  0  0  0
  152.5067  138.0945  154.0144 H   0  0  0  0  0  0  0  0  0  0  0  0
  146.9317  139.2056  152.4585 H   0  0  0  0  0  0  0  0  0  0  0  0
  145.7973  141.3618  153.0189 H   0  0  0  0  0  0  0  0  0  0  0  0
  146.8035  142.9467  154.6202 H   0  0  0  0  0  0  0  0  0  0  0  0
  148.9819  142.4502  155.7261 H   0  0  0  0  0  0  0  0  0  0  0  0
  152.2541  140.3936  155.8880 H   0  0  0  0  0  0  0  0  0  0  0  0
  151.1462  141.7359  155.8633 H   0  0  0  0  0  0  0  0  0  0  0  0
  151.0822  139.3578  157.7876 H   0  0  0  0  0  0  0  0  0  0  0  0
  149.0501  140.7054  156.8633 H   0  0  0  0  0  0  0  0  0  0  0  0
  150.8203  143.1536  157.6910 H   0  0  0  0  0  0  0  0  0  0  0  0
  152.1038  144.6050  159.2295 H   0  0  0  0  0  0  0  0  0  0  0  0
  153.6436  143.6000  160.9058 H   0  0  0  0  0  0  0  0  0  0  0  0
  153.8963  141.1294  161.0358 H   0  0  0  0  0  0  0  0  0  0  0  0
  149.3267  137.7318  153.1089 H   0  0  0  0  0  0  0  0  0  0  0  0
  1  2  1  0  0  0  0
  1 22  1  0  0  0  0
  2  3  1  0  0  0  0
  2 23  1  0  0  0  0
  2 24  1  0  0  0  0
  3 11  1  0  0  0  0
  3  4  2  0  0  0  0
  4  5  1  0  0  0  0
  4 37  1  0  0  0  0
  5 10  2  0  0  0  0
  5  6  1  0  0  0  0
  6  7  2  0  0  0  0
  6 25  1  0  0  0  0
  7  8  1  0  0  0  0
  7 26  1  0  0  0  0
  8  9  2  0  0  0  0
  8 27  1  0  0  0  0
  9 10  1  0  0  0  0
  9 28  1  0  0  0  0
 10 11  1  0  0  0  0
 11 12  1  0  0  0  0
 12 13  1  0  0  0  0
 12 29  1  0  0  0  0
 12 30  1  0  0  0  0
 13 14  1  0  0  0  0
 13 15  1  0  0  0  0
 13 31  1  0  0  0  0
 14 32  1  0  0  0  0
 15 20  1  0  0  0  0
 15 16  2  0  0  0  0
 16 17  1  0  0  0  0
 16 33  1  0  0  0  0
 17 18  2  0  0  0  0
 17 34  1  0  0  0  0
 18 19  1  0  0  0  0
 18 35  1  0  0  0  0
 19 20  2  0  0  0  0
 19 36  1  0  0  0  0
 20 21  1  0  0  0  0
M  CHG  1   4   1
M  END
> <s_m_source_file>
AV-unprocessed.smi

> <i_m_source_file_index>
354

> <i_lp_mmshare_version>
43012

> <i_f3d_flags>
0

> <s_epik_input>
W2NIXTFbY0hdW2NIXVtjSF1jKGMxMiluKGMobjIpW0NIMl1bT0hdKVtDSDJdW0NASF0oW09IXSljM1tjSF1bY0hdW2NIXVtjSF1jM0Y=

> <s_epik_cmdline>
J2VwaWtfcHl0aG9uJywgJy1waCcsICc3LjAnLCAnLXRuJywgJzgnLCAnLW1hJywgJzIwMCcsICctbWV0YWxfYmluZGluZycsICctaW1hZScsICc8aW5maWxlLm1hZT4nLCAnLW9tYWUnLCAnPG91dGZpbGUubWFlPic=

> <r_epik_Ionization_Penalty>
1.35643

> <r_epik_Ionization_Penalty_Charging>
1.35557

> <r_epik_Ionization_Penalty_Neutral>
0.000857128

> <r_epik_State_Penalty>
1.43401

> <r_epik_Charging_Adjusted_Penalty>
2.78958

> <i_epik_Tot_Q>
1

> <i_epik_Tot_abs_Q>
1

> <r_epik_Metal_State_Penalty>
5.47166

> <b_epik_Metal_Only>
0

> <s_lp_Force_Field>
OPLS_2005

> <r_lp_Energy>
14.4216

> <b_lp_Chiralities_Consistent>
1

> <s_lp_Variant>
AV-unprocessed.smi:354-3

> <Gold.Version>
5.8.1

> <Gold.Id.Protein>
6NUR|6NUR_protein|mol2

> <Gold.PLP.Fitness>
59.2999

> <Gold.PLP.PLP>
-48.7981

> <Gold.PLP.part.hbond>
-4.0000

> <Gold.PLP.part.metal>
0.0000

> <Gold.PLP.part.buried>
0.7867

> <Gold.PLP.part.nonpolar>
-46.3781

> <Gold.PLP.part.repulsive>
0.0793

> <Gold.PLP.ligand.clash>
0.0000

> <Gold.PLP.ligand.torsion>
0.7758

> <Gold.PLP.Chemscore.Hbond>
4.0000

> <Gold.PLP.Chemscore.CHOScore>
0.0000

> <Gold.PLP.Chemscore.Metal>
0.0000

> <Gold.Chemscore.Hbonds>
donor molecule, donor type, donor heavy atom, donor atom, acceptor molecule, acceptor atom, score
      L1  H     1    22       P1  7949  0.94
      L1  H     4    37       P1  7948  2.00
      P1  H 10752 10763       L1     1  0.93

> <Gold.PLP.Chemscore.Internal.Correction>
0.0535

> <Gold.Rescore>
     Score         DG    S(hbond)    S(metal)    S(lipo)     H(rot)  DE(clash)    DE(int)     intcor
     19.08     -20.04       2.45        0.00     116.20       2.82       0.30       0.65       ----

> <Gold.Chemscore.Fitness>
19.0814

> <Gold.Chemscore.DG>
-20.0374

> <Gold.Chemscore.ZeroCoef>
-5.4800

> <Gold.Chemscore.Hbond>
2.4507

> <Gold.Chemscore.Metal>
0.0000

> <Gold.Chemscore.Lipo>
116.2047

> <Gold.Chemscore.Internal_Hbond>
0.0000

> <Gold.Chemscore.DEClash>
0.3026

> <Gold.Chemscore.DEInternal>
0.6534

> <Gold.Chemscore.Rot>
2.8219

> <Gold.Chemscore.Internal.Correction>
   9.000000E+99

> <Gold.Chemscore.Hbonds>
donor molecule, donor type, donor heavy atom, donor atom, acceptor molecule, acceptor atom, score
      L1  H     1    22       P1  7949  0.19
      L1  H     4    37       P1  7948  0.96
      P1  H 10752 10763       L1     1  0.06

> <Gold.Chemscore.Hbond.Weighted>
-8.1855

> <Gold.Chemscore.Metal.Weighted>
-0.0000

> <Gold.Chemscore.Lipo.Weighted>
-13.5960

> <Gold.Chemscore.Internal_Hbond.Weighted>
0.0000

> <Gold.Chemscore.DEClash.Weighted>
0.3026

> <Gold.Chemscore.DEInternal.Weighted>
0.6534

> <Gold.Chemscore.Rot.Weighted>
7.2240

> <Gold.Chemscore.Internal.Correction.Weighted>
   9.000000E+99

> <Gold.Protein.RotatedTorsions>
[ 6907 6896 6895 6894 ] final -174.44 input  -60.11 | X-H torsion
[ 7974 7965 7964 7962 ] final -128.52 input  175.53 | X-H torsion
[ 8008 7997 7996 7995 ] final   86.75 input   59.86 | X-H torsion
[ 10167 10162 10161 10158 ] final -167.85 input  -65.29 | X-H torsion
[ 10718 10713 10712 10709 ] final  -36.70 input   66.30 | X-H torsion
[ 10763 10752 10751 10750 ] final   23.00 input  -60.55 | X-H torsion
[ 11005 11000 10999 10996 ] final -105.66 input  -57.11 | X-H torsion

> <Gold.Protein.ActiveResidues>
 VAL166  LYS551  ARG553  GLY616  TRP617  ASP618  TYR619  PRO620  LYS621  CYS622 
 ASP623  PHE694  ASN695  SER759  ASP760  ASP761  ALA762  ILE779  LEU786  VAL792 
 PHE793  MET794  SER795  GLU796  ALA797  LYS798  CYS799  TRP800  GLU811  SER814 

> <Gold.Protein.RotatedAtoms>
  151.5724  133.3388  159.2992 H   0  0  0  0  0  0  0  0  0  0  0  0  # atno 6907 bound_to 6896
  150.8360  134.7636  159.6904 H   0  0  0  0  0  0  0  0  0  0  0  0  # atno 6908 bound_to 6896
  152.4436  134.5548  159.9928 H   0  0  0  0  0  0  0  0  0  0  0  0  # atno 6909 bound_to 6896
  144.9663  140.7499  143.4698 H   0  0  0  0  0  0  0  0  0  0  0  0  # atno 7974 bound_to 7965
  155.9668  140.3389  155.6539 H   0  0  0  0  0  0  0  0  0  0  0  0  # atno 8008 bound_to 7997
  155.6727  140.0728  157.2532 H   0  0  0  0  0  0  0  0  0  0  0  0  # atno 8009 bound_to 7997
  154.4156  140.1688  156.1884 H   0  0  0  0  0  0  0  0  0  0  0  0  # atno 8010 bound_to 7997
  139.6023  144.0985  152.1756 H   0  0  0  0  0  0  0  0  0  0  0  0  # atno 10167 bound_to 10162
  156.3238  130.4269  149.7935 H   0  0  0  0  0  0  0  0  0  0  0  0  # atno 10718 bound_to 10713
  153.0871  135.6636  153.9926 H   0  0  0  0  0  0  0  0  0  0  0  0  # atno 10763 bound_to 10752
  153.9533  135.2981  155.3439 H   0  0  0  0  0  0  0  0  0  0  0  0  # atno 10764 bound_to 10752
  154.7281  135.5135  153.8992 H   0  0  0  0  0  0  0  0  0  0  0  0  # atno 10765 bound_to 10752
  141.1042  133.8827  157.1761 H   0  0  0  0  0  0  0  0  0  0  0  0  # atno 11005 bound_to 11000
  145.2625  139.1986  143.4884 LP  0  0  0  0  0  0  0  0  0  0  0  0  # atno 17320 bound_to 7965
  146.3368  140.2557  142.8600 LP  0  0  0  0  0  0  0  0  0  0  0  0  # atno 17321 bound_to 7965
  140.0584  144.5876  150.7281 LP  0  0  0  0  0  0  0  0  0  0  0  0  # atno 17342 bound_to 10162
  140.7259  143.2635  151.4123 LP  0  0  0  0  0  0  0  0  0  0  0  0  # atno 17343 bound_to 10162
  156.5233  130.8225  151.3211 LP  0  0  0  0  0  0  0  0  0  0  0  0  # atno 17370 bound_to 10713
  157.7417  130.9875  150.2465 LP  0  0  0  0  0  0  0  0  0  0  0  0  # atno 17371 bound_to 10713
  139.9906  135.0066  156.9966 LP  0  0  0  0  0  0  0  0  0  0  0  0  # atno 17394 bound_to 11000
  140.4944  134.1161  155.7238 LP  0  0  0  0  0  0  0  0  0  0  0  0  # atno 17395 bound_to 11000

$$$$
