AV-unprocessed.smi:2774|AV-procd|sdf|10681|dock7
  -GOLD-   2272015123D 1   1.00000     0.00000
 Structure written by MMmdl.
 35 36  0  0  0  0  0  0  0  0  2 V2000
  148.4817  141.0253  155.7141 O   0  0  0  0  0  0  0  0  0  0  0  0
  149.8914  141.1340  155.6765 C   0  0  1  0  0  0  0  0  0  0  0  0
  150.3686  141.8269  156.9646 C   0  0  0  0  0  0  0  0  0  0  0  0
  150.9714  143.1465  156.6755 N   0  3  0  0  0  0  0  0  0  0  0  0
  151.7376  143.7537  157.7866 C   0  0  2  0  0  0  0  0  0  0  0  0
  152.3299  142.6692  158.7141 C   0  0  0  0  0  0  0  0  0  0  0  0
  153.1777  143.2572  159.8546 C   0  0  0  0  0  0  0  0  0  0  0  0
  152.3705  144.1860  160.7716 C   0  0  0  0  0  0  0  0  0  0  0  0
  151.7299  145.6111  159.8535 S   0  0  0  0  0  0  0  0  0  0  0  0
  150.8207  144.7129  158.5670 C   0  0  0  0  0  0  0  0  0  0  0  0
  150.5557  139.7770  155.5035 C   0  0  0  0  0  0  0  0  0  0  0  0
  151.6252  139.3924  156.3393 C   0  0  0  0  0  0  0  0  0  0  0  0
  152.2078  138.1234  156.1475 C   0  0  0  0  0  0  0  0  0  0  0  0
  151.7931  137.2523  155.2032 N   0  0  0  0  0  0  0  0  0  0  0  0
  150.7683  137.6239  154.4069 C   0  0  0  0  0  0  0  0  0  0  0  0
  150.1164  138.8687  154.5158 C   0  0  0  0  0  0  0  0  0  0  0  0
  148.1811  140.7318  154.8669 H   0  0  0  0  0  0  0  0  0  0  0  0
  150.1472  141.7554  154.8167 H   0  0  0  0  0  0  0  0  0  0  0  0
  149.5364  141.9344  157.6604 H   0  0  0  0  0  0  0  0  0  0  0  0
  151.1174  141.2043  157.4563 H   0  0  0  0  0  0  0  0  0  0  0  0
  151.6055  143.0203  155.8996 H   0  0  0  0  0  0  0  0  0  0  0  0
  152.5492  144.3414  157.3542 H   0  0  0  0  0  0  0  0  0  0  0  0
  151.5264  142.0621  159.1336 H   0  0  0  0  0  0  0  0  0  0  0  0
  152.9592  141.9864  158.1437 H   0  0  0  0  0  0  0  0  0  0  0  0
  153.5945  142.4429  160.4481 H   0  0  0  0  0  0  0  0  0  0  0  0
  154.0296  143.7981  159.4404 H   0  0  0  0  0  0  0  0  0  0  0  0
  151.5363  143.6472  161.2223 H   0  0  0  0  0  0  0  0  0  0  0  0
  152.9959  144.5486  161.5877 H   0  0  0  0  0  0  0  0  0  0  0  0
  150.3761  145.4465  157.8936 H   0  0  0  0  0  0  0  0  0  0  0  0
  149.9985  144.1671  159.0316 H   0  0  0  0  0  0  0  0  0  0  0  0
  151.9957  140.0502  157.1119 H   0  0  0  0  0  0  0  0  0  0  0  0
  153.0282  137.7995  156.7707 H   0  0  0  0  0  0  0  0  0  0  0  0
  150.4569  136.9075  153.6612 H   0  0  0  0  0  0  0  0  0  0  0  0
  149.2985  139.1148  153.8542 H   0  0  0  0  0  0  0  0  0  0  0  0
  150.2430  143.7856  156.3902 H   0  0  0  0  0  0  0  0  0  0  0  0
  1  2  1  0  0  0  0
  1 17  1  0  0  0  0
  2  3  1  0  0  0  0
  2 11  1  0  0  0  0
  2 18  1  0  0  0  0
  3  4  1  0  0  0  0
  3 19  1  0  0  0  0
  3 20  1  0  0  0  0
  4  5  1  0  0  0  0
  4 21  1  0  0  0  0
  4 35  1  0  0  0  0
  5 10  1  0  0  0  0
  5  6  1  0  0  0  0
  5 22  1  0  0  0  0
  6  7  1  0  0  0  0
  6 23  1  0  0  0  0
  6 24  1  0  0  0  0
  7  8  1  0  0  0  0
  7 25  1  0  0  0  0
  7 26  1  0  0  0  0
  8  9  1  0  0  0  0
  8 27  1  0  0  0  0
  8 28  1  0  0  0  0
  9 10  1  0  0  0  0
 10 29  1  0  0  0  0
 10 30  1  0  0  0  0
 11 16  1  0  0  0  0
 11 12  2  0  0  0  0
 12 13  1  0  0  0  0
 12 31  1  0  0  0  0
 13 14  2  0  0  0  0
 13 32  1  0  0  0  0
 14 15  1  0  0  0  0
 15 16  2  0  0  0  0
 15 33  1  0  0  0  0
 16 34  1  0  0  0  0
M  CHG  1   4   1
M  END
> <s_m_source_file>
AV-unprocessed.smi

> <i_m_source_file_index>
2774

> <i_lp_mmshare_version>
43012

> <i_f3d_flags>
0

> <s_epik_input>
W2NIXTFbY0hdbltjSF1bY0hdYzFbQ0BIXShbT0hdKVtDSDJdW05IXVtDQEBIXTJbQ0gyXVtDSDJdW0NIMl1TW0NIMl0y

> <s_epik_cmdline>
J2VwaWtfcHl0aG9uJywgJy1waCcsICc3LjAnLCAnLXRuJywgJzgnLCAnLW1hJywgJzIwMCcsICctbWV0YWxfYmluZGluZycsICctaW1hZScsICc8aW5maWxlLm1hZT4nLCAnLW9tYWUnLCAnPG91dGZpbGUubWFlPic=

> <r_epik_Ionization_Penalty>
0.0205977

> <r_epik_Ionization_Penalty_Charging>
0.0185619

> <r_epik_Ionization_Penalty_Neutral>
0.00203589

> <r_epik_State_Penalty>
0.0147768

> <r_epik_Charging_Adjusted_Penalty>
0.0333386

> <i_epik_Tot_Q>
1

> <i_epik_Tot_abs_Q>
1

> <r_epik_Metal_State_Penalty>
0.0152254

> <b_epik_Metal_Only>
0

> <s_lp_Force_Field>
OPLS_2005

> <r_lp_Energy>
10.436

> <b_lp_Chiralities_Consistent>
1

> <s_lp_Variant>
AV-unprocessed.smi:2774-2

> <Gold.Version>
5.8.1

> <Gold.Id.Protein>
6NUR|6NUR_protein|mol2

> <Gold.PLP.Fitness>
50.8344

> <Gold.PLP.PLP>
-42.5183

> <Gold.PLP.part.hbond>
-2.0000

> <Gold.PLP.part.metal>
0.0000

> <Gold.PLP.part.buried>
-4.1680

> <Gold.PLP.part.nonpolar>
-37.3606

> <Gold.PLP.part.repulsive>
0.1258

> <Gold.PLP.ligand.clash>
0.0000

> <Gold.PLP.ligand.torsion>
1.4494

> <Gold.PLP.Chemscore.Hbond>
2.6552

> <Gold.PLP.Chemscore.CHOScore>
1.0742

> <Gold.PLP.Chemscore.Metal>
0.0000

> <Gold.Chemscore.Hbonds>
donor molecule, donor type, donor heavy atom, donor atom, acceptor molecule, acceptor atom, score
      L1  H     4    35       P1  8028  2.00
      P1  H 10752 10765       L1    14  0.64
      L1  C    15    33       P1  7948  0.60
      L1  C    15    33       P1  7949  0.43

> <Gold.PLP.Chemscore.Internal.Correction>
0.0266

> <Gold.Rescore>
     Score         DG    S(hbond)    S(metal)    S(lipo)     H(rot)  DE(clash)    DE(int)     intcor
     19.59     -20.78       1.89        0.00     120.01       1.97       0.19       1.00       ----

> <Gold.Chemscore.Fitness>
19.5911

> <Gold.Chemscore.DG>
-20.7784

> <Gold.Chemscore.ZeroCoef>
-5.4800

> <Gold.Chemscore.Hbond>
1.8851

> <Gold.Chemscore.Metal>
0.0000

> <Gold.Chemscore.Lipo>
120.0147

> <Gold.Chemscore.Internal_Hbond>
0.0000

> <Gold.Chemscore.DEClash>
0.1895

> <Gold.Chemscore.DEInternal>
0.9979

> <Gold.Chemscore.Rot>
1.9686

> <Gold.Chemscore.Internal.Correction>
   9.000000E+99

> <Gold.Chemscore.Hbonds>
donor molecule, donor type, donor heavy atom, donor atom, acceptor molecule, acceptor atom, score
      L1  H     4    35       P1  8028  1.00
      P1  H 10752 10765       L1    14  0.52

> <Gold.Chemscore.Hbond.Weighted>
-6.2963

> <Gold.Chemscore.Metal.Weighted>
-0.0000

> <Gold.Chemscore.Lipo.Weighted>
-14.0417

> <Gold.Chemscore.Internal_Hbond.Weighted>
0.0000

> <Gold.Chemscore.DEClash.Weighted>
0.1895

> <Gold.Chemscore.DEInternal.Weighted>
0.9979

> <Gold.Chemscore.Rot.Weighted>
5.0396

> <Gold.Chemscore.Internal.Correction.Weighted>
   9.000000E+99

> <Gold.Protein.RotatedTorsions>
[ 6907 6896 6895 6894 ] final  -82.84 input  -60.11 | X-H torsion
[ 7974 7965 7964 7962 ] final   70.75 input  175.53 | X-H torsion
[ 8008 7997 7996 7995 ] final  -13.52 input   59.86 | X-H torsion
[ 10167 10162 10161 10158 ] final   87.93 input  -65.29 | X-H torsion
[ 10718 10713 10712 10709 ] final -114.20 input   66.30 | X-H torsion
[ 10763 10752 10751 10750 ] final  164.43 input  -60.55 | X-H torsion
[ 11005 11000 10999 10996 ] final -179.70 input  -57.11 | X-H torsion

> <Gold.Protein.ActiveResidues>
 VAL166  LYS551  ARG553  GLY616  TRP617  ASP618  TYR619  PRO620  LYS621  CYS622 
 ASP623  PHE694  ASN695  SER759  ASP760  ASP761  ALA762  ILE779  LEU786  VAL792 
 PHE793  MET794  SER795  GLU796  ALA797  LYS798  CYS799  TRP800  GLU811  SER814 

> <Gold.Protein.RotatedAtoms>
  150.6892  134.3604  159.4947 H   0  0  0  0  0  0  0  0  0  0  0  0  # atno 6907 bound_to 6896
  152.1433  134.9042  160.0561 H   0  0  0  0  0  0  0  0  0  0  0  0  # atno 6908 bound_to 6896
  152.0168  133.3848  159.4279 H   0  0  0  0  0  0  0  0  0  0  0  0  # atno 6909 bound_to 6896
  145.7743  139.2858  143.1302 H   0  0  0  0  0  0  0  0  0  0  0  0  # atno 7974 bound_to 7965
  154.5285  140.2247  155.8846 H   0  0  0  0  0  0  0  0  0  0  0  0  # atno 8008 bound_to 7997
  156.1739  140.3115  155.8987 H   0  0  0  0  0  0  0  0  0  0  0  0  # atno 8009 bound_to 7997
  155.3500  140.0455  157.3036 H   0  0  0  0  0  0  0  0  0  0  0  0  # atno 8010 bound_to 7997
  139.8724  144.6485  150.8934 H   0  0  0  0  0  0  0  0  0  0  0  0  # atno 10167 bound_to 10162
  156.0815  130.6014  150.8744 H   0  0  0  0  0  0  0  0  0  0  0  0  # atno 10718 bound_to 10713
  154.3089  135.2757  155.2576 H   0  0  0  0  0  0  0  0  0  0  0  0  # atno 10763 bound_to 10752
  154.4980  135.5816  153.6512 H   0  0  0  0  0  0  0  0  0  0  0  0  # atno 10764 bound_to 10752
  152.9890  135.6151  154.3264 H   0  0  0  0  0  0  0  0  0  0  0  0  # atno 10765 bound_to 10752
  140.4157  134.6652  157.4637 H   0  0  0  0  0  0  0  0  0  0  0  0  # atno 11005 bound_to 11000
  146.0138  140.8411  142.9957 LP  0  0  0  0  0  0  0  0  0  0  0  0  # atno 17320 bound_to 7965
  144.6807  140.2528  143.7329 LP  0  0  0  0  0  0  0  0  0  0  0  0  # atno 17321 bound_to 7965
  140.7758  143.3653  151.1751 LP  0  0  0  0  0  0  0  0  0  0  0  0  # atno 17342 bound_to 10162
  139.7271  143.9131  152.3006 LP  0  0  0  0  0  0  0  0  0  0  0  0  # atno 17343 bound_to 10162
  157.5933  131.0944  150.9082 LP  0  0  0  0  0  0  0  0  0  0  0  0  # atno 17370 bound_to 10713
  156.9254  130.5330  149.5279 LP  0  0  0  0  0  0  0  0  0  0  0  0  # atno 17371 bound_to 10713
  140.0236  134.6511  155.9205 LP  0  0  0  0  0  0  0  0  0  0  0  0  # atno 17394 bound_to 11000
  141.1804  133.6545  156.4996 LP  0  0  0  0  0  0  0  0  0  0  0  0  # atno 17395 bound_to 11000

$$$$
