AV-unprocessed.smi:1952|AV-procd|sdf|7885|dock4
  -GOLD-   2272010 33D 1   1.00000     0.00000
 Structure written by MMmdl.
 40 41  0  0  0  0  0  0  0  0  2 V2000
  138.3242  136.9276  153.5035 C   0  0  0  0  0  0  0  0  0  0  0  0
  139.8054  136.9648  153.6639 C   0  0  0  0  0  0  0  0  0  0  0  0
  140.7507  137.9030  153.3572 C   0  0  0  0  0  0  0  0  0  0  0  0
  141.9591  137.2887  153.7804 C   0  0  0  0  0  0  0  0  0  0  0  0
  143.2038  137.9523  153.6322 N   0  0  0  0  0  0  0  0  0  0  0  0
  144.4253  137.4728  153.9208 C   0  0  0  0  0  0  0  0  0  0  0  0
  144.6571  136.3575  154.3881 O   0  0  0  0  0  0  0  0  0  0  0  0
  145.3829  138.3648  153.6257 N   0  0  0  0  0  0  0  0  0  0  0  0
  146.8195  138.1920  153.8481 C   0  0  2  0  0  0  0  0  0  0  0  0
  147.0382  137.6150  155.2535 C   0  0  0  0  0  0  0  0  0  0  0  0
  147.5879  139.5220  153.6650 C   0  0  0  0  0  0  0  0  0  0  0  0
  148.7857  139.6317  154.5359 N   0  3  0  0  0  0  0  0  0  0  0  0
  149.9115  138.7809  154.0849 C   0  0  0  0  0  0  0  0  0  0  0  0
  151.0871  138.8853  155.0717 C   0  0  0  0  0  0  0  0  0  0  0  0
  151.4818  140.2452  155.2067 O   0  0  0  0  0  0  0  0  0  0  0  0
  150.4312  141.0576  155.7162 C   0  0  0  0  0  0  0  0  0  0  0  0
  149.2421  141.0279  154.7421 C   0  0  0  0  0  0  0  0  0  0  0  0
  141.7699  136.0827  154.2937 N   0  0  0  0  0  0  0  0  0  0  0  0
  140.3881  135.8697  154.2235 O   0  0  0  0  0  0  0  0  0  0  0  0
  137.9815  137.7410  152.8638 H   0  0  0  0  0  0  0  0  0  0  0  0
  137.8289  137.0254  154.4696 H   0  0  0  0  0  0  0  0  0  0  0  0
  138.0063  135.9873  153.0531 H   0  0  0  0  0  0  0  0  0  0  0  0
  140.5980  138.8718  152.9051 H   0  0  0  0  0  0  0  0  0  0  0  0
  143.1571  138.8918  153.2660 H   0  0  0  0  0  0  0  0  0  0  0  0
  145.0932  139.2539  153.2444 H   0  0  0  0  0  0  0  0  0  0  0  0
  147.2015  137.4528  153.1429 H   0  0  0  0  0  0  0  0  0  0  0  0
  148.0975  137.4394  155.4447 H   0  0  0  0  0  0  0  0  0  0  0  0
  146.5223  136.6616  155.3716 H   0  0  0  0  0  0  0  0  0  0  0  0
  146.6693  138.2918  156.0250 H   0  0  0  0  0  0  0  0  0  0  0  0
  147.8974  139.5927  152.6210 H   0  0  0  0  0  0  0  0  0  0  0  0
  146.9316  140.3753  153.8431 H   0  0  0  0  0  0  0  0  0  0  0  0
  149.5870  137.7422  154.0126 H   0  0  0  0  0  0  0  0  0  0  0  0
  150.2283  139.0905  153.0876 H   0  0  0  0  0  0  0  0  0  0  0  0
  150.8156  138.4748  156.0457 H   0  0  0  0  0  0  0  0  0  0  0  0
  151.9356  138.3061  154.7073 H   0  0  0  0  0  0  0  0  0  0  0  0
  150.1327  140.7117  156.7074 H   0  0  0  0  0  0  0  0  0  0  0  0
  150.7973  142.0779  155.8316 H   0  0  0  0  0  0  0  0  0  0  0  0
  149.5315  141.4669  153.7861 H   0  0  0  0  0  0  0  0  0  0  0  0
  148.4332  141.6390  155.1412 H   0  0  0  0  0  0  0  0  0  0  0  0
  148.5113  139.2788  155.4423 H   0  0  0  0  0  0  0  0  0  0  0  0
  1  2  1  0  0  0  0
  1 20  1  0  0  0  0
  1 21  1  0  0  0  0
  1 22  1  0  0  0  0
  2 19  1  0  0  0  0
  2  3  2  0  0  0  0
  3  4  1  0  0  0  0
  3 23  1  0  0  0  0
  4  5  1  0  0  0  0
  4 18  2  0  0  0  0
  5  6  1  0  0  0  0
  5 24  1  0  0  0  0
  6  7  2  0  0  0  0
  6  8  1  0  0  0  0
  8  9  1  0  0  0  0
  8 25  1  0  0  0  0
  9 10  1  0  0  0  0
  9 11  1  0  0  0  0
  9 26  1  0  0  0  0
 10 27  1  0  0  0  0
 10 28  1  0  0  0  0
 10 29  1  0  0  0  0
 11 12  1  0  0  0  0
 11 30  1  0  0  0  0
 11 31  1  0  0  0  0
 12 17  1  0  0  0  0
 12 13  1  0  0  0  0
 12 40  1  0  0  0  0
 13 14  1  0  0  0  0
 13 32  1  0  0  0  0
 13 33  1  0  0  0  0
 14 15  1  0  0  0  0
 14 34  1  0  0  0  0
 14 35  1  0  0  0  0
 15 16  1  0  0  0  0
 16 17  1  0  0  0  0
 16 36  1  0  0  0  0
 16 37  1  0  0  0  0
 17 38  1  0  0  0  0
 17 39  1  0  0  0  0
 18 19  1  0  0  0  0
M  CHG  1  12   1
M  END
> <s_m_source_file>
AV-unprocessed.smi

> <i_m_source_file_index>
1952

> <i_lp_mmshare_version>
43012

> <i_f3d_flags>
0

> <s_epik_input>
W0NIM11jMVtjSF1jKG5vMSlbTkhdQyg9TylbTkhdW0NASF0oW0NIM10pW0NIMl1OMltDSDJdW0NIMl1PW0NIMl1bQ0gyXTI=

> <s_epik_cmdline>
J2VwaWtfcHl0aG9uJywgJy1waCcsICc3LjAnLCAnLXRuJywgJzgnLCAnLW1hJywgJzIwMCcsICctbWV0YWxfYmluZGluZycsICctaW1hZScsICc8aW5maWxlLm1hZT4nLCAnLW9tYWUnLCAnPG91dGZpbGUubWFlPic=

> <r_epik_Ionization_Penalty>
0.707079

> <r_epik_Ionization_Penalty_Charging>
0.707039

> <r_epik_Ionization_Penalty_Neutral>
4.01892e-05

> <r_epik_State_Penalty>
0.730276

> <r_epik_Charging_Adjusted_Penalty>
1.43732

> <i_epik_Tot_Q>
1

> <i_epik_Tot_abs_Q>
1

> <r_epik_Metal_State_Penalty>
0.744847

> <b_epik_Metal_Only>
0

> <s_lp_Force_Field>
OPLS_2005

> <r_lp_Energy>
19.2222

> <b_lp_Chiralities_Consistent>
1

> <s_lp_Variant>
AV-unprocessed.smi:1952-3

> <Gold.Version>
5.8.1

> <Gold.Id.Protein>
6NUR|6NUR_protein|mol2

> <Gold.PLP.Fitness>
40.4309

> <Gold.PLP.PLP>
-29.8564

> <Gold.PLP.part.hbond>
-4.0429

> <Gold.PLP.part.metal>
0.0000

> <Gold.PLP.part.buried>
-5.1724

> <Gold.PLP.part.nonpolar>
-21.8189

> <Gold.PLP.part.repulsive>
0.2549

> <Gold.PLP.ligand.clash>
0.0000

> <Gold.PLP.ligand.torsion>
0.7333

> <Gold.PLP.Chemscore.Hbond>
4.0000

> <Gold.PLP.Chemscore.CHOScore>
0.0000

> <Gold.PLP.Chemscore.Metal>
0.0000

> <Gold.Chemscore.Hbonds>
donor molecule, donor type, donor heavy atom, donor atom, acceptor molecule, acceptor atom, score
      L1  H     5    24       P1 10175  1.00
      L1  H     8    25       P1 10175  1.00
      P1  H  7989  7998       L1    15  0.98
      P1  H 11000 11005       L1    19  0.84

> <Gold.PLP.Chemscore.Internal.Correction>
0.0411

> <Gold.Rescore>
     Score         DG    S(hbond)    S(metal)    S(lipo)     H(rot)  DE(clash)    DE(int)     intcor
     14.53     -17.96       2.74        0.00      63.67       1.61       0.03       3.40       ----

> <Gold.Chemscore.Fitness>
14.5338

> <Gold.Chemscore.DG>
-17.9616

> <Gold.Chemscore.ZeroCoef>
-5.4800

> <Gold.Chemscore.Hbond>
2.7391

> <Gold.Chemscore.Metal>
0.0000

> <Gold.Chemscore.Lipo>
63.6657

> <Gold.Chemscore.Internal_Hbond>
0.0000

> <Gold.Chemscore.DEClash>
0.0259

> <Gold.Chemscore.DEInternal>
3.4020

> <Gold.Chemscore.Rot>
1.6078

> <Gold.Chemscore.Internal.Correction>
   9.000000E+99

> <Gold.Chemscore.Hbonds>
donor molecule, donor type, donor heavy atom, donor atom, acceptor molecule, acceptor atom, score
      L1  H     5    24       P1 10175  1.00
      L1  H     8    25       P1 10175  0.90
      P1  H  7989  7998       L1    15  0.18
      P1  H 11000 11005       L1    19  0.24

> <Gold.Chemscore.Hbond.Weighted>
-9.1486

> <Gold.Chemscore.Metal.Weighted>
-0.0000

> <Gold.Chemscore.Lipo.Weighted>
-7.4489

> <Gold.Chemscore.Internal_Hbond.Weighted>
0.0000

> <Gold.Chemscore.DEClash.Weighted>
0.0259

> <Gold.Chemscore.DEInternal.Weighted>
3.4020

> <Gold.Chemscore.Rot.Weighted>
4.1158

> <Gold.Chemscore.Internal.Correction.Weighted>
   9.000000E+99

> <Gold.Protein.RotatedTorsions>
[ 6907 6896 6895 6894 ] final -127.69 input  -60.11 | X-H torsion
[ 7974 7965 7964 7962 ] final  -46.82 input  175.53 | X-H torsion
[ 8008 7997 7996 7995 ] final   45.36 input   59.86 | X-H torsion
[ 10167 10162 10161 10158 ] final  -94.11 input  -65.29 | X-H torsion
[ 10718 10713 10712 10709 ] final  105.80 input   66.30 | X-H torsion
[ 10763 10752 10751 10750 ] final  -27.68 input  -60.55 | X-H torsion
[ 11005 11000 10999 10996 ] final   52.42 input  -57.11 | X-H torsion

> <Gold.Protein.ActiveResidues>
 VAL166  LYS551  ARG553  GLY616  TRP617  ASP618  TYR619  PRO620  LYS621  CYS622 
 ASP623  PHE694  ASN695  SER759  ASP760  ASP761  ALA762  ILE779  LEU786  VAL792 
 PHE793  MET794  SER795  GLU796  ALA797  LYS798  CYS799  TRP800  GLU811  SER814 

> <Gold.Protein.RotatedAtoms>
  150.9100  133.7009  159.2856 H   0  0  0  0  0  0  0  0  0  0  0  0  # atno 6907 bound_to 6896
  151.4499  135.1027  159.9704 H   0  0  0  0  0  0  0  0  0  0  0  0  # atno 6908 bound_to 6896
  152.4924  133.8488  159.7246 H   0  0  0  0  0  0  0  0  0  0  0  0  # atno 6909 bound_to 6896
  145.9679  140.7413  142.9425 H   0  0  0  0  0  0  0  0  0  0  0  0  # atno 7974 bound_to 7965
  155.3346  140.3404  155.4239 H   0  0  0  0  0  0  0  0  0  0  0  0  # atno 8008 bound_to 7997
  156.1844  140.1675  156.8250 H   0  0  0  0  0  0  0  0  0  0  0  0  # atno 8009 bound_to 7997
  154.5369  140.0733  156.8427 H   0  0  0  0  0  0  0  0  0  0  0  0  # atno 8010 bound_to 7997
  140.3178  143.3067  152.0079 H   0  0  0  0  0  0  0  0  0  0  0  0  # atno 10167 bound_to 10162
  157.6692  131.0836  150.5910 H   0  0  0  0  0  0  0  0  0  0  0  0  # atno 10718 bound_to 10713
  153.7360  135.6935  153.4978 H   0  0  0  0  0  0  0  0  0  0  0  0  # atno 10763 bound_to 10752
  153.2102  135.4405  155.0370 H   0  0  0  0  0  0  0  0  0  0  0  0  # atno 10764 bound_to 10752
  154.8237  135.3435  154.6887 H   0  0  0  0  0  0  0  0  0  0  0  0  # atno 10765 bound_to 10752
  140.0851  134.5285  155.8907 H   0  0  0  0  0  0  0  0  0  0  0  0  # atno 11005 bound_to 11000
  144.6830  140.2700  143.7307 LP  0  0  0  0  0  0  0  0  0  0  0  0  # atno 17320 bound_to 7965
  145.7947  139.1941  143.2082 LP  0  0  0  0  0  0  0  0  0  0  0  0  # atno 17321 bound_to 7965
  139.4880  144.6335  151.7023 LP  0  0  0  0  0  0  0  0  0  0  0  0  # atno 17342 bound_to 10162
  140.5511  144.0424  150.6127 LP  0  0  0  0  0  0  0  0  0  0  0  0  # atno 17343 bound_to 10162
  156.6211  130.4406  149.5822 LP  0  0  0  0  0  0  0  0  0  0  0  0  # atno 17370 bound_to 10713
  156.2355  130.6820  151.1505 LP  0  0  0  0  0  0  0  0  0  0  0  0  # atno 17371 bound_to 10713
  141.2060  133.6651  156.6214 LP  0  0  0  0  0  0  0  0  0  0  0  0  # atno 17394 bound_to 11000
  140.3432  134.7831  157.4413 LP  0  0  0  0  0  0  0  0  0  0  0  0  # atno 17395 bound_to 11000

$$$$
