AV-unprocessed.smi:2072|AV-procd|sdf|8442|dock2
  -GOLD-   2272011143D 1   1.00000     0.00000
 Structure written by MMmdl.
 40 42  0  0  0  0  0  0  0  0  2 V2000
  149.4222  135.0252  155.9686 O   0  0  0  0  0  0  0  0  0  0  0  0
  149.2818  135.4373  154.8182 C   0  0  0  0  0  0  0  0  0  0  0  0
  149.6433  136.6523  154.3706 N   0  0  0  0  0  0  0  0  0  0  0  0
  150.2558  137.7281  155.0719 C   0  0  0  0  0  0  0  0  0  0  0  0
  150.8416  137.6308  156.3586 C   0  0  0  0  0  0  0  0  0  0  0  0
  151.4202  138.7800  156.9313 C   0  0  0  0  0  0  0  0  0  0  0  0
  151.3975  139.9823  156.1988 C   0  0  0  0  0  0  0  0  0  0  0  0
  150.8501  140.0889  154.9703 N   0  0  0  0  0  0  0  0  0  0  0  0
  150.2973  138.9834  154.4277 C   0  0  0  0  0  0  0  0  0  0  0  0
  148.7250  134.7091  153.8400 N   0  0  0  0  0  0  0  0  0  0  0  0
  148.2285  133.3438  153.9867 C   0  0  2  0  0  0  0  0  0  0  0  0
  149.2796  132.3803  154.5247 C   0  0  0  0  0  0  0  0  0  0  0  0
  148.7069  131.0188  154.1255 C   0  0  0  0  0  0  0  0  0  0  0  0
  147.9895  131.2344  152.8473 N   0  3  1  0  0  0  0  0  0  0  0  0
  146.7481  130.4358  152.6982 C   0  0  0  0  0  0  0  0  0  0  0  0
  146.0869  130.6984  151.3318 C   0  0  0  0  0  0  0  0  0  0  0  0
  145.9597  132.1996  150.9979 C   0  0  0  0  0  0  0  0  0  0  0  0
  146.4188  133.0962  152.1574 C   0  0  0  0  0  0  0  0  0  0  0  0
  147.8321  132.7031  152.6456 C   0  0  1  0  0  0  0  0  0  0  0  0
  149.4286  136.8452  153.4031 H   0  0  0  0  0  0  0  0  0  0  0  0
  150.8709  136.7097  156.9177 H   0  0  0  0  0  0  0  0  0  0  0  0
  151.8738  138.7396  157.9105 H   0  0  0  0  0  0  0  0  0  0  0  0
  151.8329  140.8812  156.6098 H   0  0  0  0  0  0  0  0  0  0  0  0
  149.8710  139.1070  153.4427 H   0  0  0  0  0  0  0  0  0  0  0  0
  148.6466  135.1268  152.9242 H   0  0  0  0  0  0  0  0  0  0  0  0
  147.3776  133.3236  154.6716 H   0  0  0  0  0  0  0  0  0  0  0  0
  150.2375  132.5419  154.0276 H   0  0  0  0  0  0  0  0  0  0  0  0
  149.4343  132.4751  155.5999 H   0  0  0  0  0  0  0  0  0  0  0  0
  149.4788  130.2558  154.0239 H   0  0  0  0  0  0  0  0  0  0  0  0
  148.0081  130.6840  154.8941 H   0  0  0  0  0  0  0  0  0  0  0  0
  146.9810  129.3755  152.8017 H   0  0  0  0  0  0  0  0  0  0  0  0
  146.0546  130.6837  153.5036 H   0  0  0  0  0  0  0  0  0  0  0  0
  146.6668  130.2083  150.5488 H   0  0  0  0  0  0  0  0  0  0  0  0
  145.1026  130.2294  151.3129 H   0  0  0  0  0  0  0  0  0  0  0  0
  146.5641  132.4222  150.1177 H   0  0  0  0  0  0  0  0  0  0  0  0
  144.9313  132.4392  150.7263 H   0  0  0  0  0  0  0  0  0  0  0  0
  146.4070  134.1399  151.8429 H   0  0  0  0  0  0  0  0  0  0  0  0
  145.7022  133.0196  152.9764 H   0  0  0  0  0  0  0  0  0  0  0  0
  148.5616  132.9809  151.8828 H   0  0  0  0  0  0  0  0  0  0  0  0
  148.6109  130.9266  152.1129 H   0  0  0  0  0  0  0  0  0  0  0  0
  1  2  2  0  0  0  0
  2  3  1  0  0  0  0
  2 10  1  0  0  0  0
  3  4  1  0  0  0  0
  3 20  1  0  0  0  0
  4  9  1  0  0  0  0
  4  5  2  0  0  0  0
  5  6  1  0  0  0  0
  5 21  1  0  0  0  0
  6  7  2  0  0  0  0
  6 22  1  0  0  0  0
  7  8  1  0  0  0  0
  7 23  1  0  0  0  0
  8  9  2  0  0  0  0
  9 24  1  0  0  0  0
 10 11  1  0  0  0  0
 10 25  1  0  0  0  0
 11 19  1  0  0  0  0
 11 12  1  0  0  0  0
 11 26  1  0  0  0  0
 12 13  1  0  0  0  0
 12 27  1  0  0  0  0
 12 28  1  0  0  0  0
 13 14  1  0  0  0  0
 13 29  1  0  0  0  0
 13 30  1  0  0  0  0
 14 19  1  0  0  0  0
 14 15  1  0  0  0  0
 14 40  1  0  0  0  0
 15 16  1  0  0  0  0
 15 31  1  0  0  0  0
 15 32  1  0  0  0  0
 16 17  1  0  0  0  0
 16 33  1  0  0  0  0
 16 34  1  0  0  0  0
 17 18  1  0  0  0  0
 17 35  1  0  0  0  0
 17 36  1  0  0  0  0
 18 19  1  0  0  0  0
 18 37  1  0  0  0  0
 18 38  1  0  0  0  0
 19 39  1  0  0  0  0
M  CHG  1  14   1
M  END
> <s_m_source_file>
AV-unprocessed.smi

> <i_m_source_file_index>
2072

> <i_lp_mmshare_version>
43012

> <i_f3d_flags>
0

> <s_epik_input>
W0NIMl0xW0NIMl1bQ0gyXVtDSDJdW0NASF0oTjEyKVtDQEBIXShbQ0gyXVtDSDJdMilbTkhdQyg9TylbTkhdYzNbY0hdW2NIXVtjSF1uW2NIXTM=

> <s_epik_cmdline>
J2VwaWtfcHl0aG9uJywgJy1waCcsICc3LjAnLCAnLXRuJywgJzgnLCAnLW1hJywgJzIwMCcsICctbWV0YWxfYmluZGluZycsICctaW1hZScsICc8aW5maWxlLm1hZT4nLCAnLW9tYWUnLCAnPG91dGZpbGUubWFlPic=

> <r_lp_tautomer_probability>
1

> <r_epik_Ionization_Penalty>
0.00482425

> <r_epik_Ionization_Penalty_Charging>
0.000974069

> <r_epik_Ionization_Penalty_Neutral>
0.00385018

> <r_epik_State_Penalty>
-0

> <r_epik_Charging_Adjusted_Penalty>
0.000974069

> <i_epik_Tot_Q>
1

> <i_epik_Tot_abs_Q>
1

> <r_epik_Metal_State_Penalty>
-0

> <b_epik_Metal_Only>
0

> <s_lp_Force_Field>
OPLS_2005

> <r_lp_Energy>
43.341

> <b_lp_Chiralities_Consistent>
1

> <s_lp_Variant>
AV-unprocessed.smi:2072-1

> <Gold.Version>
5.8.1

> <Gold.Id.Protein>
6NUR|6NUR_protein|mol2

> <Gold.PLP.Fitness>
48.6819

> <Gold.PLP.PLP>
-33.8294

> <Gold.PLP.part.hbond>
-4.5634

> <Gold.PLP.part.metal>
0.0000

> <Gold.PLP.part.buried>
-3.5661

> <Gold.PLP.part.nonpolar>
-26.2633

> <Gold.PLP.part.repulsive>
0.1694

> <Gold.PLP.ligand.clash>
0.0000

> <Gold.PLP.ligand.torsion>
0.0775

> <Gold.PLP.Chemscore.Hbond>
4.0000

> <Gold.PLP.Chemscore.CHOScore>
1.0000

> <Gold.PLP.Chemscore.Metal>
0.0000

> <Gold.Chemscore.Hbonds>
donor molecule, donor type, donor heavy atom, donor atom, acceptor molecule, acceptor atom, score
      L1  H     3    20       P1  7948  0.96
      L1  H    10    25       P1  7948  0.99
      L1  H    14    40       P1 10747  0.98
      P1  H  7989  7998       L1     8  1.00
      L1  C     9    24       P1  7957  1.00

> <Gold.PLP.Chemscore.Internal.Correction>
0.0074

> <Gold.Rescore>
     Score         DG    S(hbond)    S(metal)    S(lipo)     H(rot)  DE(clash)    DE(int)     intcor
     20.37     -21.55       2.86        0.00      77.50       1.00       0.14       1.04       ----

> <Gold.Chemscore.Fitness>
20.3731

> <Gold.Chemscore.DG>
-21.5501

> <Gold.Chemscore.ZeroCoef>
-5.4800

> <Gold.Chemscore.Hbond>
2.8632

> <Gold.Chemscore.Metal>
0.0000

> <Gold.Chemscore.Lipo>
77.4973

> <Gold.Chemscore.Internal_Hbond>
0.0000

> <Gold.Chemscore.DEClash>
0.1377

> <Gold.Chemscore.DEInternal>
1.0394

> <Gold.Chemscore.Rot>
1.0000

> <Gold.Chemscore.Internal.Correction>
   9.000000E+99

> <Gold.Chemscore.Hbonds>
donor molecule, donor type, donor heavy atom, donor atom, acceptor molecule, acceptor atom, score
      L1  H     3    20       P1  7948  0.81
      L1  H    10    25       P1  7948  0.50
      L1  H    14    40       P1 10747  0.85
      P1  H  7989  7998       L1     8  0.35

> <Gold.Chemscore.Hbond.Weighted>
-9.5629

> <Gold.Chemscore.Metal.Weighted>
-0.0000

> <Gold.Chemscore.Lipo.Weighted>
-9.0672

> <Gold.Chemscore.Internal_Hbond.Weighted>
0.0000

> <Gold.Chemscore.DEClash.Weighted>
0.1377

> <Gold.Chemscore.DEInternal.Weighted>
1.0394

> <Gold.Chemscore.Rot.Weighted>
2.5600

> <Gold.Chemscore.Internal.Correction.Weighted>
   9.000000E+99

> <Gold.Protein.RotatedTorsions>
[ 6907 6896 6895 6894 ] final  141.24 input  -60.11 | X-H torsion
[ 7974 7965 7964 7962 ] final -103.46 input  175.53 | X-H torsion
[ 8008 7997 7996 7995 ] final  -95.26 input   59.86 | X-H torsion
[ 10167 10162 10161 10158 ] final -127.34 input  -65.29 | X-H torsion
[ 10718 10713 10712 10709 ] final   86.55 input   66.30 | X-H torsion
[ 10763 10752 10751 10750 ] final  -59.49 input  -60.55 | X-H torsion
[ 11005 11000 10999 10996 ] final    1.44 input  -57.11 | X-H torsion

> <Gold.Protein.ActiveResidues>
 VAL166  LYS551  ARG553  GLY616  TRP617  ASP618  TYR619  PRO620  LYS621  CYS622 
 ASP623  PHE694  ASN695  SER759  ASP760  ASP761  ALA762  ILE779  LEU786  VAL792 
 PHE793  MET794  SER795  GLU796  ALA797  LYS798  CYS799  TRP800  GLU811  SER814 

> <Gold.Protein.RotatedAtoms>
  152.2334  133.5076  159.5228 H   0  0  0  0  0  0  0  0  0  0  0  0  # atno 6907 bound_to 6896
  150.7044  134.1186  159.4035 H   0  0  0  0  0  0  0  0  0  0  0  0  # atno 6908 bound_to 6896
  151.9107  135.0340  160.0565 H   0  0  0  0  0  0  0  0  0  0  0  0  # atno 6909 bound_to 6896
  145.2556  140.9252  143.3070 H   0  0  0  0  0  0  0  0  0  0  0  0  # atno 7974 bound_to 7965
  154.7591  140.0481  157.0958 H   0  0  0  0  0  0  0  0  0  0  0  0  # atno 8008 bound_to 7997
  154.9961  140.3119  155.4867 H   0  0  0  0  0  0  0  0  0  0  0  0  # atno 8009 bound_to 7997
  156.2900  140.2210  156.5068 H   0  0  0  0  0  0  0  0  0  0  0  0  # atno 8010 bound_to 7997
  139.9618  143.5941  152.2442 H   0  0  0  0  0  0  0  0  0  0  0  0  # atno 10167 bound_to 10162
  157.6930  131.0220  150.2989 H   0  0  0  0  0  0  0  0  0  0  0  0  # atno 10718 bound_to 10713
  154.2545  135.6320  153.5252 H   0  0  0  0  0  0  0  0  0  0  0  0  # atno 10763 bound_to 10752
  152.9906  135.5573  154.5771 H   0  0  0  0  0  0  0  0  0  0  0  0  # atno 10764 bound_to 10752
  154.5306  135.2888  155.1158 H   0  0  0  0  0  0  0  0  0  0  0  0  # atno 10765 bound_to 10752
  140.6154  133.9710  155.8198 H   0  0  0  0  0  0  0  0  0  0  0  0  # atno 11005 bound_to 11000
  144.9464  139.4132  143.6424 LP  0  0  0  0  0  0  0  0  0  0  0  0  # atno 17320 bound_to 7965
  146.3290  139.8449  142.8883 LP  0  0  0  0  0  0  0  0  0  0  0  0  # atno 17321 bound_to 7965
  139.6548  144.7662  151.2077 LP  0  0  0  0  0  0  0  0  0  0  0  0  # atno 17342 bound_to 10162
  140.7550  143.6103  150.8612 LP  0  0  0  0  0  0  0  0  0  0  0  0  # atno 17343 bound_to 10162
  156.3508  130.3830  149.7331 LP  0  0  0  0  0  0  0  0  0  0  0  0  # atno 17370 bound_to 10713
  156.4809  130.8040  151.3055 LP  0  0  0  0  0  0  0  0  0  0  0  0  # atno 17371 bound_to 10713
  141.0779  134.0107  157.3430 LP  0  0  0  0  0  0  0  0  0  0  0  0  # atno 17394 bound_to 11000
  139.9175  135.0198  156.7937 LP  0  0  0  0  0  0  0  0  0  0  0  0  # atno 17395 bound_to 11000

$$$$
