AV-unprocessed.smi:1978|AV-procd|sdf|8007|dock1
  -GOLD-   2272010193D 1   1.00000     0.00000
 Structure written by MMmdl.
 44 45  0  0  0  0  0  0  0  0  3 V2000
  144.8281  132.7088  150.1044 C   0  0  0  0  0  0  0  0  0  0  0  0
  144.4504  133.8116  151.0333 C   0  0  0  0  0  0  0  0  0  0  0  0
  144.8820  135.1010  151.1656 C   0  0  0  0  0  0  0  0  0  0  0  0
  144.1076  135.5932  152.2516 C   0  0  0  0  0  0  0  0  0  0  0  0
  144.1571  136.8342  152.7600 N   0  5  0  0  0  0  0  0  0  0  0  0
  145.1548  137.1864  153.6024 C   0  0  0  0  0  0  0  0  0  0  0  0
  146.0580  136.4563  154.0167 O   0  0  0  0  0  0  0  0  0  0  0  0
  145.1026  138.4671  153.9909 N   0  0  0  0  0  0  0  0  0  0  0  0
  146.0374  139.1082  154.9087 C   0  0  0  0  0  0  0  0  0  0  0  0
  146.6686  140.3931  154.3065 C   0  0  1  0  0  0  0  0  0  0  0  0
  147.1822  140.1006  152.8736 C   0  0  0  0  0  0  0  0  0  0  0  0
  145.7226  141.5637  154.3195 N   0  3  2  0  0  0  0  0  0  0  0  0
  146.2863  142.8036  153.7020 C   0  0  0  0  0  0  0  0  0  0  0  0
  145.2227  143.9023  153.5382 C   0  0  0  0  0  0  0  0  0  0  0  0
  144.5509  144.2353  154.8709 C   0  0  0  0  0  0  0  0  0  0  0  0
  143.9874  142.9524  155.4888 C   0  0  0  0  0  0  0  0  0  0  0  0
  145.0617  141.8542  155.6367 C   0  0  2  0  0  0  0  0  0  0  0  0
  146.0638  142.1727  156.7688 C   0  0  0  0  0  0  0  0  0  0  0  0
  143.2687  134.6875  152.7256 N   0  0  0  0  0  0  0  0  0  0  0  0
  143.4866  133.5400  151.9538 O   0  0  0  0  0  0  0  0  0  0  0  0
  144.6829  133.0120  149.0676 H   0  0  0  0  0  0  0  0  0  0  0  0
  144.2248  131.8184  150.2833 H   0  0  0  0  0  0  0  0  0  0  0  0
  145.8758  132.4380  150.2345 H   0  0  0  0  0  0  0  0  0  0  0  0
  145.6343  135.6101  150.5823 H   0  0  0  0  0  0  0  0  0  0  0  0
  144.3494  139.0326  153.6277 H   0  0  0  0  0  0  0  0  0  0  0  0
  145.5319  139.3498  155.8455 H   0  0  0  0  0  0  0  0  0  0  0  0
  146.7897  138.3523  155.1297 H   0  0  0  0  0  0  0  0  0  0  0  0
  147.5333  140.6558  154.9177 H   0  0  0  0  0  0  0  0  0  0  0  0
  147.7819  139.1924  152.8246 H   0  0  0  0  0  0  0  0  0  0  0  0
  147.8348  140.8851  152.4950 H   0  0  0  0  0  0  0  0  0  0  0  0
  146.3540  139.9784  152.1749 H   0  0  0  0  0  0  0  0  0  0  0  0
  147.1255  143.1688  154.2945 H   0  0  0  0  0  0  0  0  0  0  0  0
  146.6765  142.6077  152.7065 H   0  0  0  0  0  0  0  0  0  0  0  0
  145.6770  144.8001  153.1179 H   0  0  0  0  0  0  0  0  0  0  0  0
  144.4686  143.5745  152.8216 H   0  0  0  0  0  0  0  0  0  0  0  0
  145.2679  144.7011  155.5474 H   0  0  0  0  0  0  0  0  0  0  0  0
  143.7519  144.9616  154.7182 H   0  0  0  0  0  0  0  0  0  0  0  0
  143.5351  143.1722  156.4566 H   0  0  0  0  0  0  0  0  0  0  0  0
  143.1793  142.5796  154.8576 H   0  0  0  0  0  0  0  0  0  0  0  0
  144.4967  140.9742  155.9393 H   0  0  0  0  0  0  0  0  0  0  0  0
  145.5379  142.3667  157.7038 H   0  0  0  0  0  0  0  0  0  0  0  0
  146.6702  143.0515  156.5523 H   0  0  0  0  0  0  0  0  0  0  0  0
  146.7447  141.3434  156.9578 H   0  0  0  0  0  0  0  0  0  0  0  0
  144.9661  141.2862  153.7105 H   0  0  0  0  0  0  0  0  0  0  0  0
  1  2  1  0  0  0  0
  1 21  1  0  0  0  0
  1 22  1  0  0  0  0
  1 23  1  0  0  0  0
  2 20  1  0  0  0  0
  2  3  2  0  0  0  0
  3  4  1  0  0  0  0
  3 24  1  0  0  0  0
  4  5  1  0  0  0  0
  4 19  2  0  0  0  0
  5  6  1  0  0  0  0
  6  7  2  0  0  0  0
  6  8  1  0  0  0  0
  8  9  1  0  0  0  0
  8 25  1  0  0  0  0
  9 10  1  0  0  0  0
  9 26  1  0  0  0  0
  9 27  1  0  0  0  0
 10 11  1  0  0  0  0
 10 12  1  0  0  0  0
 10 28  1  0  0  0  0
 11 29  1  0  0  0  0
 11 30  1  0  0  0  0
 11 31  1  0  0  0  0
 12 17  1  0  0  0  0
 12 13  1  0  0  0  0
 12 44  1  0  0  0  0
 13 14  1  0  0  0  0
 13 32  1  0  0  0  0
 13 33  1  0  0  0  0
 14 15  1  0  0  0  0
 14 34  1  0  0  0  0
 14 35  1  0  0  0  0
 15 16  1  0  0  0  0
 15 36  1  0  0  0  0
 15 37  1  0  0  0  0
 16 17  1  0  0  0  0
 16 38  1  0  0  0  0
 16 39  1  0  0  0  0
 17 18  1  0  0  0  0
 17 40  1  0  0  0  0
 18 41  1  0  0  0  0
 18 42  1  0  0  0  0
 18 43  1  0  0  0  0
 19 20  1  0  0  0  0
M  CHG  1   5  -1
M  CHG  1  12   1
M  END
> <s_m_source_file>
AV-unprocessed.smi

> <i_m_source_file_index>
1978

> <i_lp_mmshare_version>
43012

> <i_f3d_flags>
0

> <s_epik_input>
W0NIM11jMVtjSF1jKG5vMSlbTkhdQyg9TylbTkhdW0NIMl1bQ0BIXShbQ0gzXSlOMltDSDJdW0NIMl1bQ0gyXVtDSDJdW0NASF0yW0NIM10=

> <s_epik_cmdline>
J2VwaWtfcHl0aG9uJywgJy1waCcsICc3LjAnLCAnLXRuJywgJzgnLCAnLW1hJywgJzIwMCcsICctbWV0YWxfYmluZGluZycsICctaW1hZScsICc8aW5maWxlLm1hZT4nLCAnLW9tYWUnLCAnPG91dGZpbGUubWFlPic=

> <r_epik_Ionization_Penalty>
6.22372

> <r_epik_Ionization_Penalty_Charging>
6.22362

> <r_epik_Ionization_Penalty_Neutral>
9.65074e-05

> <r_epik_State_Penalty>
6.22363

> <r_epik_Charging_Adjusted_Penalty>
12.4472

> <i_epik_Tot_Q>
0

> <i_epik_Tot_abs_Q>
2

> <r_epik_Metal_State_Penalty>
2.16675

> <b_epik_Metal_Only>
1

> <s_lp_Force_Field>
OPLS_2005

> <r_lp_Energy>
15.9266

> <b_lp_Chiralities_Consistent>
1

> <s_lp_Variant>
AV-unprocessed.smi:1978-16

> <Gold.Version>
5.8.1

> <Gold.Id.Protein>
6NUR|6NUR_protein|mol2

> <Gold.PLP.Fitness>
36.8714

> <Gold.PLP.PLP>
-29.4863

> <Gold.PLP.part.hbond>
-2.0000

> <Gold.PLP.part.metal>
0.0000

> <Gold.PLP.part.buried>
-6.0603

> <Gold.PLP.part.nonpolar>
-22.5098

> <Gold.PLP.part.repulsive>
0.6489

> <Gold.PLP.ligand.clash>
0.0000

> <Gold.PLP.ligand.torsion>
0.8768

> <Gold.PLP.Chemscore.Hbond>
2.9920

> <Gold.PLP.Chemscore.CHOScore>
0.0000

> <Gold.PLP.Chemscore.Metal>
0.0000

> <Gold.Chemscore.Hbonds>
donor molecule, donor type, donor heavy atom, donor atom, acceptor molecule, acceptor atom, score
      L1  H     8    25       P1 10175  1.00
      L1  H    12    44       P1 10175  2.00

> <Gold.PLP.Chemscore.Internal.Correction>
0.1626

> <Gold.Rescore>
     Score         DG    S(hbond)    S(metal)    S(lipo)     H(rot)  DE(clash)    DE(int)     intcor
     12.87     -13.64       1.51        0.00      59.87       1.52       0.03       0.74       ----

> <Gold.Chemscore.Fitness>
12.8749

> <Gold.Chemscore.DG>
-13.6411

> <Gold.Chemscore.ZeroCoef>
-5.4800

> <Gold.Chemscore.Hbond>
1.5106

> <Gold.Chemscore.Metal>
0.0000

> <Gold.Chemscore.Lipo>
59.8661

> <Gold.Chemscore.Internal_Hbond>
0.0000

> <Gold.Chemscore.DEClash>
0.0263

> <Gold.Chemscore.DEInternal>
0.7399

> <Gold.Chemscore.Rot>
1.5190

> <Gold.Chemscore.Internal.Correction>
   9.000000E+99

> <Gold.Chemscore.Hbonds>
donor molecule, donor type, donor heavy atom, donor atom, acceptor molecule, acceptor atom, score
      L1  H     8    25       P1 10175  0.95
      L1  H    12    44       P1 10175  0.39

> <Gold.Chemscore.Hbond.Weighted>
-5.0454

> <Gold.Chemscore.Metal.Weighted>
-0.0000

> <Gold.Chemscore.Lipo.Weighted>
-7.0043

> <Gold.Chemscore.Internal_Hbond.Weighted>
0.0000

> <Gold.Chemscore.DEClash.Weighted>
0.0263

> <Gold.Chemscore.DEInternal.Weighted>
0.7399

> <Gold.Chemscore.Rot.Weighted>
3.8886

> <Gold.Chemscore.Internal.Correction.Weighted>
   9.000000E+99

> <Gold.Protein.RotatedTorsions>
[ 6907 6896 6895 6894 ] final  160.95 input  -60.11 | X-H torsion
[ 7974 7965 7964 7962 ] final -131.72 input  175.53 | X-H torsion
[ 8008 7997 7996 7995 ] final   52.27 input   59.86 | X-H torsion
[ 10167 10162 10161 10158 ] final   71.83 input  -65.29 | X-H torsion
[ 10718 10713 10712 10709 ] final  -70.81 input   66.30 | X-H torsion
[ 10763 10752 10751 10750 ] final  176.82 input  -60.55 | X-H torsion
[ 11005 11000 10999 10996 ] final   11.90 input  -57.11 | X-H torsion

> <Gold.Protein.ActiveResidues>
 VAL166  LYS551  ARG553  GLY616  TRP617  ASP618  TYR619  PRO620  LYS621  CYS622 
 ASP623  PHE694  ASN695  SER759  ASP760  ASP761  ALA762  ILE779  LEU786  VAL792 
 PHE793  MET794  SER795  GLU796  ALA797  LYS798  CYS799  TRP800  GLU811  SER814 

> <Gold.Protein.RotatedAtoms>
  151.9629  133.3701  159.4041 H   0  0  0  0  0  0  0  0  0  0  0  0  # atno 6907 bound_to 6896
  150.6961  134.4222  159.5219 H   0  0  0  0  0  0  0  0  0  0  0  0  # atno 6908 bound_to 6896
  152.1913  134.8669  160.0568 H   0  0  0  0  0  0  0  0  0  0  0  0  # atno 6909 bound_to 6896
  144.9353  140.7176  143.4880 H   0  0  0  0  0  0  0  0  0  0  0  0  # atno 7974 bound_to 7965
  155.4490  140.3457  155.4298 H   0  0  0  0  0  0  0  0  0  0  0  0  # atno 8008 bound_to 7997
  156.1232  140.1493  156.9204 H   0  0  0  0  0  0  0  0  0  0  0  0  # atno 8009 bound_to 7997
  154.4838  140.0861  156.7420 H   0  0  0  0  0  0  0  0  0  0  0  0  # atno 8010 bound_to 7997
  140.0418  144.5383  150.7428 H   0  0  0  0  0  0  0  0  0  0  0  0  # atno 10167 bound_to 10162
  156.0391  130.4339  150.2350 H   0  0  0  0  0  0  0  0  0  0  0  0  # atno 10718 bound_to 10713
  154.4862  135.2777  155.1532 H   0  0  0  0  0  0  0  0  0  0  0  0  # atno 10763 bound_to 10752
  154.3222  135.6207  153.5517 H   0  0  0  0  0  0  0  0  0  0  0  0  # atno 10764 bound_to 10752
  152.9882  135.5745  154.5274 H   0  0  0  0  0  0  0  0  0  0  0  0  # atno 10765 bound_to 10752
  140.4980  134.0774  155.7787 H   0  0  0  0  0  0  0  0  0  0  0  0  # atno 11005 bound_to 11000
  145.3077  139.1829  143.4655 LP  0  0  0  0  0  0  0  0  0  0  0  0  # atno 17320 bound_to 7965
  146.3264  140.3077  142.8625 LP  0  0  0  0  0  0  0  0  0  0  0  0  # atno 17321 bound_to 7965
  140.7256  143.2633  151.4130 LP  0  0  0  0  0  0  0  0  0  0  0  0  # atno 17342 bound_to 10162
  139.6009  144.1298  152.2196 LP  0  0  0  0  0  0  0  0  0  0  0  0  # atno 17343 bound_to 10162
  157.0447  131.0045  151.3272 LP  0  0  0  0  0  0  0  0  0  0  0  0  # atno 17370 bound_to 10713
  157.5184  130.7982  149.7782 LP  0  0  0  0  0  0  0  0  0  0  0  0  # atno 17371 bound_to 10713
  141.1450  133.9071  157.2237 LP  0  0  0  0  0  0  0  0  0  0  0  0  # atno 17394 bound_to 11000
  139.9730  135.0122  156.9560 LP  0  0  0  0  0  0  0  0  0  0  0  0  # atno 17395 bound_to 11000

$$$$
