AV-unprocessed.smi:2560|AV-procd|sdf|10038|dock2
  -GOLD-   2272014 83D 1   1.00000     0.00000
 Structure written by MMmdl.
 31 32  0  0  0  0  0  0  0  0  1 V2000
  147.8275  133.3893  160.0780 C   0  0  0  0  0  0  0  0  0  0  0  0
  148.0762  132.2408  158.6962 S   0  0  0  0  0  0  0  0  0  0  0  0
  148.6730  133.2191  157.3557 C   0  0  0  0  0  0  0  0  0  0  0  0
  149.8316  133.8948  157.4619 N   0  0  0  0  0  0  0  0  0  0  0  0
  150.1072  134.7216  156.0129 S   0  0  0  0  0  0  0  0  0  0  0  0
  148.6275  134.1012  155.3417 C   0  0  0  0  0  0  0  0  0  0  0  0
  148.1887  134.4236  154.0245 N   0  0  0  0  0  0  0  0  0  0  0  0
  147.1918  133.9124  153.2703 C   0  0  0  0  0  0  0  0  0  0  0  0
  146.4748  133.0075  153.6937 O   0  0  0  0  0  0  0  0  0  0  0  0
  147.0399  134.4494  152.0484 N   0  0  0  0  0  0  0  0  0  0  0  0
  146.0346  134.0715  151.0628 C   0  0  2  0  0  0  0  0  0  0  0  0
  144.6536  134.2471  151.6751 C   0  0  0  0  0  0  0  0  0  0  0  0
  143.6647  133.3434  151.5660 C   0  0  0  0  0  0  0  0  0  0  0  0
  143.8026  132.0415  150.7999 C   0  0  0  0  0  0  0  0  0  0  0  0
  145.0281  132.0466  149.8699 C   0  0  0  0  0  0  0  0  0  0  0  0
  146.2683  132.6242  150.5687 C   0  0  0  0  0  0  0  0  0  0  0  0
  147.9868  133.3113  156.2032 N   0  0  0  0  0  0  0  0  0  0  0  0
  147.4576  132.8525  160.9513 H   0  0  0  0  0  0  0  0  0  0  0  0
  147.1007  134.1565  159.8102 H   0  0  0  0  0  0  0  0  0  0  0  0
  148.7659  133.8766  160.3435 H   0  0  0  0  0  0  0  0  0  0  0  0
  148.7135  135.1621  153.5788 H   0  0  0  0  0  0  0  0  0  0  0  0
  147.6749  135.1893  151.7841 H   0  0  0  0  0  0  0  0  0  0  0  0
  146.0880  134.7586  150.2167 H   0  0  0  0  0  0  0  0  0  0  0  0
  144.4801  135.1572  152.2309 H   0  0  0  0  0  0  0  0  0  0  0  0
  142.7160  133.5256  152.0490 H   0  0  0  0  0  0  0  0  0  0  0  0
  143.8796  131.2292  151.5232 H   0  0  0  0  0  0  0  0  0  0  0  0
  142.8964  131.8672  150.2194 H   0  0  0  0  0  0  0  0  0  0  0  0
  145.2294  131.0357  149.5148 H   0  0  0  0  0  0  0  0  0  0  0  0
  144.8085  132.6456  148.9850 H   0  0  0  0  0  0  0  0  0  0  0  0
  147.1256  132.5919  149.8955 H   0  0  0  0  0  0  0  0  0  0  0  0
  146.5193  131.9820  151.4143 H   0  0  0  0  0  0  0  0  0  0  0  0
  1  2  1  0  0  0  0
  1 18  1  0  0  0  0
  1 19  1  0  0  0  0
  1 20  1  0  0  0  0
  2  3  1  0  0  0  0
  3 17  1  0  0  0  0
  3  4  2  0  0  0  0
  4  5  1  0  0  0  0
  5  6  1  0  0  0  0
  6  7  1  0  0  0  0
  6 17  2  0  0  0  0
  7  8  1  0  0  0  0
  7 21  1  0  0  0  0
  8  9  2  0  0  0  0
  8 10  1  0  0  0  0
 10 11  1  0  0  0  0
 10 22  1  0  0  0  0
 11 16  1  0  0  0  0
 11 12  1  0  0  0  0
 11 23  1  0  0  0  0
 12 13  2  0  0  0  0
 12 24  1  0  0  0  0
 13 14  1  0  0  0  0
 13 25  1  0  0  0  0
 14 15  1  0  0  0  0
 14 26  1  0  0  0  0
 14 27  1  0  0  0  0
 15 16  1  0  0  0  0
 15 28  1  0  0  0  0
 15 29  1  0  0  0  0
 16 30  1  0  0  0  0
 16 31  1  0  0  0  0
M  END
> <s_m_source_file>
AV-unprocessed.smi

> <i_m_source_file_index>
2560

> <i_lp_mmshare_version>
43012

> <i_f3d_flags>
0

> <s_epik_input>
W0NIM11TYzFuc2MobjEpW05IXUMoPU8pW05IXVtDQEBIXTJbQ0hdPVtDSF1bQ0gyXVtDSDJdW0NIMl0y

> <s_epik_cmdline>
J2VwaWtfcHl0aG9uJywgJy1waCcsICc3LjAnLCAnLXRuJywgJzgnLCAnLW1hJywgJzIwMCcsICctbWV0YWxfYmluZGluZycsICctaW1hZScsICc8aW5maWxlLm1hZT4nLCAnLW9tYWUnLCAnPG91dGZpbGUubWFlPic=

> <r_lp_tautomer_probability>
1

> <r_epik_Ionization_Penalty>
2.65559e-05

> <r_epik_Ionization_Penalty_Charging>
0

> <r_epik_Ionization_Penalty_Neutral>
2.65559e-05

> <r_epik_State_Penalty>
-0

> <r_epik_Charging_Adjusted_Penalty>
0

> <i_epik_Tot_Q>
0

> <i_epik_Tot_abs_Q>
0

> <r_epik_Metal_State_Penalty>
-0

> <b_epik_Metal_Only>
0

> <s_lp_Force_Field>
OPLS_2005

> <r_lp_Energy>
8.21818

> <b_lp_Chiralities_Consistent>
1

> <s_lp_Variant>
AV-unprocessed.smi:2560-1

> <Gold.Version>
5.8.1

> <Gold.Id.Protein>
6NUR|6NUR_protein|mol2

> <Gold.PLP.Fitness>
33.7710

> <Gold.PLP.PLP>
-25.1931

> <Gold.PLP.part.hbond>
-3.0000

> <Gold.PLP.part.metal>
0.0000

> <Gold.PLP.part.buried>
-3.6173

> <Gold.PLP.part.nonpolar>
-18.7070

> <Gold.PLP.part.repulsive>
0.1248

> <Gold.PLP.ligand.clash>
0.0000

> <Gold.PLP.ligand.torsion>
0.0451

> <Gold.PLP.Chemscore.Hbond>
2.8873

> <Gold.PLP.Chemscore.CHOScore>
0.0000

> <Gold.PLP.Chemscore.Metal>
0.0000

> <Gold.Chemscore.Hbonds>
donor molecule, donor type, donor heavy atom, donor atom, acceptor molecule, acceptor atom, score
      L1  H     7    21       P1  7948  0.90
      L1  H    10    22       P1  7948  1.00
      P1  H  6896  6909       L1     4  0.99

> <Gold.PLP.Chemscore.Internal.Correction>
0.0065

> <Gold.Rescore>
     Score         DG    S(hbond)    S(metal)    S(lipo)     H(rot)  DE(clash)    DE(int)     intcor
     15.32     -17.39       2.55        0.00      56.51       1.25       0.01       2.07       ----

> <Gold.Chemscore.Fitness>
15.3196

> <Gold.Chemscore.DG>
-17.3939

> <Gold.Chemscore.ZeroCoef>
-5.4800

> <Gold.Chemscore.Hbond>
2.5473

> <Gold.Chemscore.Metal>
0.0000

> <Gold.Chemscore.Lipo>
56.5130

> <Gold.Chemscore.Internal_Hbond>
0.0000

> <Gold.Chemscore.DEClash>
0.0069

> <Gold.Chemscore.DEInternal>
2.0674

> <Gold.Chemscore.Rot>
1.2524

> <Gold.Chemscore.Internal.Correction>
   9.000000E+99

> <Gold.Chemscore.Hbonds>
donor molecule, donor type, donor heavy atom, donor atom, acceptor molecule, acceptor atom, score
      L1  H     7    21       P1  7948  0.66
      L1  H    10    22       P1  7948  0.81
      P1  H  6896  6909       L1     4  0.86

> <Gold.Chemscore.Hbond.Weighted>
-8.5080

> <Gold.Chemscore.Metal.Weighted>
-0.0000

> <Gold.Chemscore.Lipo.Weighted>
-6.6120

> <Gold.Chemscore.Internal_Hbond.Weighted>
0.0000

> <Gold.Chemscore.DEClash.Weighted>
0.0069

> <Gold.Chemscore.DEInternal.Weighted>
2.0674

> <Gold.Chemscore.Rot.Weighted>
3.2062

> <Gold.Chemscore.Internal.Correction.Weighted>
   9.000000E+99

> <Gold.Protein.RotatedTorsions>
[ 6907 6896 6895 6894 ] final    3.69 input  -60.11 | X-H torsion
[ 7974 7965 7964 7962 ] final   12.49 input  175.53 | X-H torsion
[ 8008 7997 7996 7995 ] final -104.65 input   59.86 | X-H torsion
[ 10167 10162 10161 10158 ] final -156.01 input  -65.29 | X-H torsion
[ 10718 10713 10712 10709 ] final   46.62 input   66.30 | X-H torsion
[ 10763 10752 10751 10750 ] final  164.90 input  -60.55 | X-H torsion
[ 11005 11000 10999 10996 ] final  148.28 input  -57.11 | X-H torsion

> <Gold.Protein.ActiveResidues>
 VAL166  LYS551  ARG553  GLY616  TRP617  ASP618  TYR619  PRO620  LYS621  CYS622 
 ASP623  PHE694  ASN695  SER759  ASP760  ASP761  ALA762  ILE779  LEU786  VAL792 
 PHE793  MET794  SER795  GLU796  ALA797  LYS798  CYS799  TRP800  GLU811  SER814 

> <Gold.Protein.RotatedAtoms>
  151.6292  135.1024  160.0117 H   0  0  0  0  0  0  0  0  0  0  0  0  # atno 6907 bound_to 6896
  152.4115  133.6967  159.6411 H   0  0  0  0  0  0  0  0  0  0  0  0  # atno 6908 bound_to 6896
  150.8005  133.8532  159.3252 H   0  0  0  0  0  0  0  0  0  0  0  0  # atno 6909 bound_to 6896
  146.2350  139.9328  142.8494 H   0  0  0  0  0  0  0  0  0  0  0  0  # atno 7974 bound_to 7965
  154.8884  140.0417  157.1824 H   0  0  0  0  0  0  0  0  0  0  0  0  # atno 8008 bound_to 7997
  154.8566  140.2937  155.5544 H   0  0  0  0  0  0  0  0  0  0  0  0  # atno 8009 bound_to 7997
  156.2997  140.2455  156.3534 H   0  0  0  0  0  0  0  0  0  0  0  0  # atno 8010 bound_to 7997
  139.6885  143.9461  152.2373 H   0  0  0  0  0  0  0  0  0  0  0  0  # atno 10167 bound_to 10162
  157.4500  130.8133  149.7779 H   0  0  0  0  0  0  0  0  0  0  0  0  # atno 10718 bound_to 10713
  154.3159  135.2756  155.2543 H   0  0  0  0  0  0  0  0  0  0  0  0  # atno 10763 bound_to 10752
  154.4918  135.5831  153.6468 H   0  0  0  0  0  0  0  0  0  0  0  0  # atno 10764 bound_to 10752
  152.9882  135.6136  154.3340 H   0  0  0  0  0  0  0  0  0  0  0  0  # atno 10765 bound_to 10752
  140.0946  134.9020  157.1704 H   0  0  0  0  0  0  0  0  0  0  0  0  # atno 11005 bound_to 11000
  145.2027  140.9861  143.4146 LP  0  0  0  0  0  0  0  0  0  0  0  0  # atno 17320 bound_to 7965
  144.9759  139.3832  143.6286 LP  0  0  0  0  0  0  0  0  0  0  0  0  # atno 17321 bound_to 7965
  139.9271  144.6764  150.8401 LP  0  0  0  0  0  0  0  0  0  0  0  0  # atno 17342 bound_to 10162
  140.7675  143.3334  151.2360 LP  0  0  0  0  0  0  0  0  0  0  0  0  # atno 17343 bound_to 10162
  155.9983  130.3895  150.2706 LP  0  0  0  0  0  0  0  0  0  0  0  0  # atno 17370 bound_to 10713
  157.0877  131.0161  151.3133 LP  0  0  0  0  0  0  0  0  0  0  0  0  # atno 17371 bound_to 10713
  140.3304  134.2816  155.7229 LP  0  0  0  0  0  0  0  0  0  0  0  0  # atno 17394 bound_to 11000
  141.2088  133.7767  157.0035 LP  0  0  0  0  0  0  0  0  0  0  0  0  # atno 17395 bound_to 11000

$$$$
