AV-unprocessed.smi:557|AV-procd|sdf|2921|dock6
  -GOLD-   2262023413D 1   1.00000     0.00000
 Structure written by MMmdl.
 47 49  0  0  0  0  0  0  0  0  2 V2000
  151.7218  138.3396  154.7211 C   0  0  0  0  0  0  0  0  0  0  0  0
  150.5157  139.1084  154.4991 N   0  0  0  0  0  0  0  0  0  0  0  0
  149.2732  138.6635  154.1027 C   0  0  0  0  0  0  0  0  0  0  0  0
  148.4517  139.7530  154.0284 C   0  0  0  0  0  0  0  0  0  0  0  0
  147.0010  139.8086  153.6398 C   0  0  0  0  0  0  0  0  0  0  0  0
  146.7995  139.4299  152.1667 C   0  0  0  0  0  0  0  0  0  0  0  0
  146.8075  137.9788  152.0038 N   0  0  0  0  0  0  0  0  0  0  0  0
  145.8104  137.1254  152.2907 C   0  0  0  0  0  0  0  0  0  0  0  0
  144.7321  137.5107  152.7374 O   0  0  0  0  0  0  0  0  0  0  0  0
  146.0919  135.8348  152.0410 N   0  0  0  0  0  0  0  0  0  0  0  0
  145.1936  134.7091  152.2912 C   0  0  1  0  0  0  0  0  0  0  0  0
  144.5594  134.1416  151.0070 C   0  0  0  0  0  0  0  0  0  0  0  0
  144.5686  132.6233  151.2126 C   0  0  0  0  0  0  0  0  0  0  0  0
  145.7978  132.4084  151.9844 N   0  3  2  0  0  0  0  0  0  0  0  0
  146.0376  131.0809  152.5848 C   0  0  0  0  0  0  0  0  0  0  0  0
  147.4700  131.0617  153.1616 C   0  0  0  0  0  0  0  0  0  0  0  0
  147.7385  132.2537  154.1093 C   0  0  0  0  0  0  0  0  0  0  0  0
  147.3371  133.6013  153.4700 C   0  0  0  0  0  0  0  0  0  0  0  0
  145.8858  133.5023  152.9670 C   0  0  1  0  0  0  0  0  0  0  0  0
  149.2996  140.8325  154.4081 C   0  0  0  0  0  0  0  0  0  0  0  0
  150.5335  140.4439  154.6868 N   0  0  0  0  0  0  0  0  0  0  0  0
  151.5432  137.2888  154.4913 H   0  0  0  0  0  0  0  0  0  0  0  0
  152.0284  138.4274  155.7638 H   0  0  0  0  0  0  0  0  0  0  0  0
  152.5210  138.7113  154.0791 H   0  0  0  0  0  0  0  0  0  0  0  0
  149.0775  137.6196  153.9067 H   0  0  0  0  0  0  0  0  0  0  0  0
  146.4150  139.1377  154.2693 H   0  0  0  0  0  0  0  0  0  0  0  0
  146.5968  140.8068  153.8142 H   0  0  0  0  0  0  0  0  0  0  0  0
  145.8543  139.8358  151.8029 H   0  0  0  0  0  0  0  0  0  0  0  0
  147.5972  139.8641  151.5614 H   0  0  0  0  0  0  0  0  0  0  0  0
  147.6275  137.5878  151.5622 H   0  0  0  0  0  0  0  0  0  0  0  0
  147.0013  135.6181  151.6596 H   0  0  0  0  0  0  0  0  0  0  0  0
  144.3794  135.0392  152.9399 H   0  0  0  0  0  0  0  0  0  0  0  0
  143.5579  134.5323  150.8235 H   0  0  0  0  0  0  0  0  0  0  0  0
  145.1740  134.3898  150.1400 H   0  0  0  0  0  0  0  0  0  0  0  0
  143.7039  132.3082  151.7991 H   0  0  0  0  0  0  0  0  0  0  0  0
  144.5729  132.0703  150.2729 H   0  0  0  0  0  0  0  0  0  0  0  0
  145.2998  130.8803  153.3634 H   0  0  0  0  0  0  0  0  0  0  0  0
  145.9270  130.3065  151.8251 H   0  0  0  0  0  0  0  0  0  0  0  0
  147.6507  130.1213  153.6832 H   0  0  0  0  0  0  0  0  0  0  0  0
  148.1851  131.0959  152.3386 H   0  0  0  0  0  0  0  0  0  0  0  0
  147.1732  132.1113  155.0312 H   0  0  0  0  0  0  0  0  0  0  0  0
  148.7904  132.2739  154.3959 H   0  0  0  0  0  0  0  0  0  0  0  0
  147.4347  134.4019  154.2039 H   0  0  0  0  0  0  0  0  0  0  0  0
  148.0105  133.8402  152.6455 H   0  0  0  0  0  0  0  0  0  0  0  0
  145.2578  133.2301  153.8183 H   0  0  0  0  0  0  0  0  0  0  0  0
  149.0558  141.8818  154.4874 H   0  0  0  0  0  0  0  0  0  0  0  0
  146.5511  132.5636  151.3300 H   0  0  0  0  0  0  0  0  0  0  0  0
  1  2  1  0  0  0  0
  1 22  1  0  0  0  0
  1 23  1  0  0  0  0
  1 24  1  0  0  0  0
  2 21  1  0  0  0  0
  2  3  1  0  0  0  0
  3  4  2  0  0  0  0
  3 25  1  0  0  0  0
  4  5  1  0  0  0  0
  4 20  1  0  0  0  0
  5  6  1  0  0  0  0
  5 26  1  0  0  0  0
  5 27  1  0  0  0  0
  6  7  1  0  0  0  0
  6 28  1  0  0  0  0
  6 29  1  0  0  0  0
  7  8  1  0  0  0  0
  7 30  1  0  0  0  0
  8  9  2  0  0  0  0
  8 10  1  0  0  0  0
 10 11  1  0  0  0  0
 10 31  1  0  0  0  0
 11 19  1  0  0  0  0
 11 12  1  0  0  0  0
 11 32  1  0  0  0  0
 12 13  1  0  0  0  0
 12 33  1  0  0  0  0
 12 34  1  0  0  0  0
 13 14  1  0  0  0  0
 13 35  1  0  0  0  0
 13 36  1  0  0  0  0
 14 19  1  0  0  0  0
 14 15  1  0  0  0  0
 14 47  1  0  0  0  0
 15 16  1  0  0  0  0
 15 37  1  0  0  0  0
 15 38  1  0  0  0  0
 16 17  1  0  0  0  0
 16 39  1  0  0  0  0
 16 40  1  0  0  0  0
 17 18  1  0  0  0  0
 17 41  1  0  0  0  0
 17 42  1  0  0  0  0
 18 19  1  0  0  0  0
 18 43  1  0  0  0  0
 18 44  1  0  0  0  0
 19 45  1  0  0  0  0
 20 21  2  0  0  0  0
 20 46  1  0  0  0  0
M  CHG  1  14   1
M  END
> <s_m_source_file>
AV-unprocessed.smi

> <i_m_source_file_index>
557

> <i_lp_mmshare_version>
43012

> <i_f3d_flags>
0

> <s_epik_input>
W0NIM11uMVtjSF1jKFtjSF1uMSlbQ0gyXVtDSDJdW05IXUMoPU8pW05IXVtDQEhdKFtDSDJdW0NIMl0yKVtDQEhdKE4yMylbQ0gyXVtDSDJdW0NIMl1bQ0gyXTM=

> <s_epik_cmdline>
J2VwaWtfcHl0aG9uJywgJy1waCcsICc3LjAnLCAnLXRuJywgJzgnLCAnLW1hJywgJzIwMCcsICctbWV0YWxfYmluZGluZycsICctaW1hZScsICc8aW5maWxlLm1hZT4nLCAnLW9tYWUnLCAnPG91dGZpbGUubWFlPic=

> <r_lp_tautomer_probability>
1

> <r_epik_Ionization_Penalty>
0.000956547

> <r_epik_Ionization_Penalty_Charging>
0.000435796

> <r_epik_Ionization_Penalty_Neutral>
0.000520752

> <r_epik_State_Penalty>
-0

> <r_epik_Charging_Adjusted_Penalty>
0.000435796

> <i_epik_Tot_Q>
1

> <i_epik_Tot_abs_Q>
1

> <r_epik_Metal_State_Penalty>
-0

> <b_epik_Metal_Only>
0

> <s_lp_Force_Field>
OPLS_2005

> <r_lp_Energy>
46.7552

> <b_lp_Chiralities_Consistent>
1

> <s_lp_Variant>
AV-unprocessed.smi:557-8

> <Gold.Version>
5.8.1

> <Gold.Id.Protein>
6NUR|6NUR_protein|mol2

> <Gold.PLP.Fitness>
46.2374

> <Gold.PLP.PLP>
-36.1682

> <Gold.PLP.part.hbond>
-3.0000

> <Gold.PLP.part.metal>
0.0000

> <Gold.PLP.part.buried>
-2.2366

> <Gold.PLP.part.nonpolar>
-31.4574

> <Gold.PLP.part.repulsive>
0.4151

> <Gold.PLP.ligand.clash>
0.0000

> <Gold.PLP.ligand.torsion>
0.4445

> <Gold.PLP.Chemscore.Hbond>
2.6480

> <Gold.PLP.Chemscore.CHOScore>
1.0000

> <Gold.PLP.Chemscore.Metal>
0.0000

> <Gold.Chemscore.Hbonds>
donor molecule, donor type, donor heavy atom, donor atom, acceptor molecule, acceptor atom, score
      L1  H     7    30       P1  7948  0.83
      L1  H    10    31       P1  7948  0.82
      P1  H  7989  7998       L1    21  1.00
      L1  C     3    25       P1  7948  1.00

> <Gold.PLP.Chemscore.Internal.Correction>
0.0141

> <Gold.Rescore>
     Score         DG    S(hbond)    S(metal)    S(lipo)     H(rot)  DE(clash)    DE(int)     intcor
     18.24     -18.69       2.36        0.00      80.53       1.60       0.05       0.41       ----

> <Gold.Chemscore.Fitness>
18.2354

> <Gold.Chemscore.DG>
-18.6921

> <Gold.Chemscore.ZeroCoef>
-5.4800

> <Gold.Chemscore.Hbond>
2.3624

> <Gold.Chemscore.Metal>
0.0000

> <Gold.Chemscore.Lipo>
80.5328

> <Gold.Chemscore.Internal_Hbond>
0.0000

> <Gold.Chemscore.DEClash>
0.0482

> <Gold.Chemscore.DEInternal>
0.4085

> <Gold.Chemscore.Rot>
1.6018

> <Gold.Chemscore.Internal.Correction>
   9.000000E+99

> <Gold.Chemscore.Hbonds>
donor molecule, donor type, donor heavy atom, donor atom, acceptor molecule, acceptor atom, score
      L1  H     7    30       P1  7948  0.83
      L1  H    10    31       P1  7948  0.77
      P1  H  7989  7998       L1    21  0.20

> <Gold.Chemscore.Hbond.Weighted>
-7.8903

> <Gold.Chemscore.Metal.Weighted>
-0.0000

> <Gold.Chemscore.Lipo.Weighted>
-9.4223

> <Gold.Chemscore.Internal_Hbond.Weighted>
0.0000

> <Gold.Chemscore.DEClash.Weighted>
0.0482

> <Gold.Chemscore.DEInternal.Weighted>
0.4085

> <Gold.Chemscore.Rot.Weighted>
4.1006

> <Gold.Chemscore.Internal.Correction.Weighted>
   9.000000E+99

> <Gold.Protein.RotatedTorsions>
[ 6907 6896 6895 6894 ] final   45.39 input  -60.11 | X-H torsion
[ 7974 7965 7964 7962 ] final  123.72 input  175.53 | X-H torsion
[ 8008 7997 7996 7995 ] final    9.47 input   59.86 | X-H torsion
[ 10167 10162 10161 10158 ] final   10.90 input  -65.29 | X-H torsion
[ 10718 10713 10712 10709 ] final   35.25 input   66.30 | X-H torsion
[ 10763 10752 10751 10750 ] final -115.76 input  -60.55 | X-H torsion
[ 11005 11000 10999 10996 ] final  167.75 input  -57.11 | X-H torsion

> <Gold.Protein.ActiveResidues>
 VAL166  LYS551  ARG553  GLY616  TRP617  ASP618  TYR619  PRO620  LYS621  CYS622 
 ASP623  PHE694  ASN695  SER759  ASP760  ASP761  ALA762  ILE779  LEU786  VAL792 
 PHE793  MET794  SER795  GLU796  ALA797  LYS798  CYS799  TRP800  GLU811  SER814 

> <Gold.Protein.RotatedAtoms>
  152.2439  134.8200  160.0455 H   0  0  0  0  0  0  0  0  0  0  0  0  # atno 6907 bound_to 6896
  151.8905  133.3510  159.3805 H   0  0  0  0  0  0  0  0  0  0  0  0  # atno 6908 bound_to 6896
  150.7062  134.4855  159.5535 H   0  0  0  0  0  0  0  0  0  0  0  0  # atno 6909 bound_to 6896
  145.0927  139.3575  143.4852 H   0  0  0  0  0  0  0  0  0  0  0  0  # atno 7974 bound_to 7965
  154.7804  140.2818  155.6068 H   0  0  0  0  0  0  0  0  0  0  0  0  # atno 8008 bound_to 7997
  156.2949  140.2624  156.2556 H   0  0  0  0  0  0  0  0  0  0  0  0  # atno 8009 bound_to 7997
  154.9791  140.0375  157.2259 H   0  0  0  0  0  0  0  0  0  0  0  0  # atno 8010 bound_to 7997
  140.6165  143.8296  150.7125 H   0  0  0  0  0  0  0  0  0  0  0  0  # atno 10167 bound_to 10162
  157.3204  130.7445  149.6781 H   0  0  0  0  0  0  0  0  0  0  0  0  # atno 10718 bound_to 10713
  154.8493  135.4370  154.1713 H   0  0  0  0  0  0  0  0  0  0  0  0  # atno 10763 bound_to 10752
  153.2826  135.6955  153.7376 H   0  0  0  0  0  0  0  0  0  0  0  0  # atno 10764 bound_to 10752
  153.6574  135.3441  155.3092 H   0  0  0  0  0  0  0  0  0  0  0  0  # atno 10765 bound_to 10752
  140.2800  134.7758  157.3750 H   0  0  0  0  0  0  0  0  0  0  0  0  # atno 11005 bound_to 11000
  146.3531  140.0769  142.8620 LP  0  0  0  0  0  0  0  0  0  0  0  0  # atno 17320 bound_to 7965
  145.1047  140.9368  143.4692 LP  0  0  0  0  0  0  0  0  0  0  0  0  # atno 17321 bound_to 7965
  140.1876  143.4062  152.1887 LP  0  0  0  0  0  0  0  0  0  0  0  0  # atno 17342 bound_to 10162
  139.5403  144.7250  151.4756 LP  0  0  0  0  0  0  0  0  0  0  0  0  # atno 17343 bound_to 10162
  155.9685  130.4225  150.4518 LP  0  0  0  0  0  0  0  0  0  0  0  0  # atno 17370 bound_to 10713
  157.2532  131.0551  151.2366 LP  0  0  0  0  0  0  0  0  0  0  0  0  # atno 17371 bound_to 10713
  140.1292  134.5117  155.8119 LP  0  0  0  0  0  0  0  0  0  0  0  0  # atno 17394 bound_to 11000
  141.2164  133.6784  156.7008 LP  0  0  0  0  0  0  0  0  0  0  0  0  # atno 17395 bound_to 11000

$$$$
