AV-unprocessed.smi:837|AV-procd|sdf|3905|dock8
  -GOLD-   22720 1363D 1   1.00000     0.00000
 Structure written by MMmdl.
 49 51  0  0  0  0  0  0  0  0  3 V2000
  148.3429  136.9786  159.2938 C   0  0  0  0  0  0  0  0  0  0  0  0
  148.2596  135.9756  160.4654 C   0  0  1  0  0  0  0  0  0  0  0  0
  147.3991  136.5671  161.6040 C   0  0  0  0  0  0  0  0  0  0  0  0
  147.3499  135.6406  162.8272 C   0  0  0  0  0  0  0  0  0  0  0  0
  146.8333  134.2475  162.4479 C   0  0  0  0  0  0  0  0  0  0  0  0
  147.6812  133.6326  161.3214 C   0  0  0  0  0  0  0  0  0  0  0  0
  147.7919  134.5364  160.0636 C   0  0  2  0  0  0  0  0  0  0  0  0
  148.7448  133.9338  159.1469 N   0  5  0  0  0  0  0  0  0  0  0  0
  148.1101  133.6113  157.9969 C   0  0  0  0  0  0  0  0  0  0  0  0
  148.6086  133.0664  157.0120 O   0  0  0  0  0  0  0  0  0  0  0  0
  146.8080  133.9494  158.0506 N   0  0  0  0  0  0  0  0  0  0  0  0
  145.8315  133.6852  156.9871 C   0  0  0  0  0  0  0  0  0  0  0  0
  146.2911  134.3023  155.6637 C   0  0  0  0  0  0  0  0  0  0  0  0
  146.2582  135.5219  155.5019 O   0  0  0  0  0  0  0  0  0  0  0  0
  146.7014  133.4400  154.7224 N   0  0  0  0  0  0  0  0  0  0  0  0
  147.0878  133.7896  153.3589 C   0  0  0  0  0  0  0  0  0  0  0  0
  145.9986  134.5734  152.5918 C   0  0  0  0  0  0  0  0  0  0  0  0
  145.2950  133.7749  151.5037 C   0  0  0  0  0  0  0  0  0  0  0  0
  146.0243  132.8864  150.6814 C   0  0  0  0  0  0  0  0  0  0  0  0
  145.3532  132.1674  149.6713 C   0  0  0  0  0  0  0  0  0  0  0  0
  143.9689  132.3617  149.4948 C   0  0  0  0  0  0  0  0  0  0  0  0
  143.3032  133.2189  150.2989 N   0  3  0  0  0  0  0  0  0  0  0  0
  143.9071  133.9174  151.2855 C   0  0  0  0  0  0  0  0  0  0  0  0
  146.5106  134.5014  159.2319 C   0  0  0  0  0  0  0  0  0  0  0  0
  145.4097  134.9065  159.6067 O   0  0  0  0  0  0  0  0  0  0  0  0
  147.3633  137.1795  158.8594 H   0  0  0  0  0  0  0  0  0  0  0  0
  148.9931  136.6154  158.4977 H   0  0  0  0  0  0  0  0  0  0  0  0
  148.7507  137.9324  159.6289 H   0  0  0  0  0  0  0  0  0  0  0  0
  149.2734  135.8817  160.8590 H   0  0  0  0  0  0  0  0  0  0  0  0
  147.8030  137.5338  161.9065 H   0  0  0  0  0  0  0  0  0  0  0  0
  146.3862  136.7621  161.2513 H   0  0  0  0  0  0  0  0  0  0  0  0
  148.3468  135.5551  163.2613 H   0  0  0  0  0  0  0  0  0  0  0  0
  146.7127  136.0757  163.5976 H   0  0  0  0  0  0  0  0  0  0  0  0
  146.8560  133.5960  163.3216 H   0  0  0  0  0  0  0  0  0  0  0  0
  145.7881  134.3106  162.1454 H   0  0  0  0  0  0  0  0  0  0  0  0
  148.6799  133.4294  161.7119 H   0  0  0  0  0  0  0  0  0  0  0  0
  147.2625  132.6605  161.0566 H   0  0  0  0  0  0  0  0  0  0  0  0
  145.6960  132.6113  156.8481 H   0  0  0  0  0  0  0  0  0  0  0  0
  144.8503  134.0729  157.2672 H   0  0  0  0  0  0  0  0  0  0  0  0
  146.6947  132.4572  154.9552 H   0  0  0  0  0  0  0  0  0  0  0  0
  148.0289  134.3410  153.3609 H   0  0  0  0  0  0  0  0  0  0  0  0
  147.2837  132.8511  152.8401 H   0  0  0  0  0  0  0  0  0  0  0  0
  145.2522  134.9320  153.3014 H   0  0  0  0  0  0  0  0  0  0  0  0
  146.4357  135.4665  152.1443 H   0  0  0  0  0  0  0  0  0  0  0  0
  147.0892  132.7610  150.8131 H   0  0  0  0  0  0  0  0  0  0  0  0
  145.8963  131.4928  149.0258 H   0  0  0  0  0  0  0  0  0  0  0  0
  143.3811  131.8680  148.7350 H   0  0  0  0  0  0  0  0  0  0  0  0
  143.2682  134.5752  151.8561 H   0  0  0  0  0  0  0  0  0  0  0  0
  142.3026  133.3490  150.1492 H   0  0  0  0  0  0  0  0  0  0  0  0
  1  2  1  0  0  0  0
  1 26  1  0  0  0  0
  1 27  1  0  0  0  0
  1 28  1  0  0  0  0
  2  7  1  0  0  0  0
  2  3  1  0  0  0  0
  2 29  1  0  0  0  0
  3  4  1  0  0  0  0
  3 30  1  0  0  0  0
  3 31  1  0  0  0  0
  4  5  1  0  0  0  0
  4 32  1  0  0  0  0
  4 33  1  0  0  0  0
  5  6  1  0  0  0  0
  5 34  1  0  0  0  0
  5 35  1  0  0  0  0
  6  7  1  0  0  0  0
  6 36  1  0  0  0  0
  6 37  1  0  0  0  0
  7 24  1  0  0  0  0
  7  8  1  0  0  0  0
  8  9  1  0  0  0  0
  9 10  2  0  0  0  0
  9 11  1  0  0  0  0
 11 12  1  0  0  0  0
 11 24  1  0  0  0  0
 12 13  1  0  0  0  0
 12 38  1  0  0  0  0
 12 39  1  0  0  0  0
 13 14  2  0  0  0  0
 13 15  1  0  0  0  0
 15 16  1  0  0  0  0
 15 40  1  0  0  0  0
 16 17  1  0  0  0  0
 16 41  1  0  0  0  0
 16 42  1  0  0  0  0
 17 18  1  0  0  0  0
 17 43  1  0  0  0  0
 17 44  1  0  0  0  0
 18 23  1  0  0  0  0
 18 19  2  0  0  0  0
 19 20  1  0  0  0  0
 19 45  1  0  0  0  0
 20 21  2  0  0  0  0
 20 46  1  0  0  0  0
 21 22  1  0  0  0  0
 21 47  1  0  0  0  0
 22 23  2  0  0  0  0
 22 49  1  0  0  0  0
 23 48  1  0  0  0  0
 24 25  2  0  0  0  0
M  CHG  1   8  -1
M  CHG  1  22   1
M  END
> <s_m_source_file>
AV-unprocessed.smi

> <i_m_source_file_index>
837

> <i_lp_mmshare_version>
43012

> <i_f3d_flags>
0

> <s_epik_input>
W0NIMl0xW0NIMl1bQ0gyXVtDSDJdW0NAQEhdKFtDSDNdKVtDQEBdMTJbTkhdQyg9TylOKEMyPU8pW0NIMl1DKD1PKVtOSF1bQ0gyXVtDSDJdYzNbY0hdW2NIXVtjSF1uW2NIXTM=

> <s_epik_cmdline>
J2VwaWtfcHl0aG9uJywgJy1waCcsICc3LjAnLCAnLXRuJywgJzgnLCAnLW1hJywgJzIwMCcsICctbWV0YWxfYmluZGluZycsICctaW1hZScsICc8aW5maWxlLm1hZT4nLCAnLW9tYWUnLCAnPG91dGZpbGUubWFlPic=

> <r_lp_tautomer_probability>
1

> <r_epik_Ionization_Penalty>
8.27169

> <r_epik_Ionization_Penalty_Charging>
8.27169

> <r_epik_Ionization_Penalty_Neutral>
1.56557e-07

> <r_epik_State_Penalty>
8.42098

> <r_epik_Charging_Adjusted_Penalty>
16.6927

> <i_epik_Tot_Q>
0

> <i_epik_Tot_abs_Q>
2

> <r_epik_Metal_State_Penalty>
4.38565

> <b_epik_Metal_Only>
1

> <s_lp_Force_Field>
OPLS_2005

> <r_lp_Energy>
12.2851

> <b_lp_Chiralities_Consistent>
1

> <s_lp_Variant>
AV-unprocessed.smi:837-14

> <Gold.Version>
5.8.1

> <Gold.Id.Protein>
6NUR|6NUR_protein|mol2

> <Gold.PLP.Fitness>
50.2639

> <Gold.PLP.PLP>
-39.8408

> <Gold.PLP.part.hbond>
-2.0000

> <Gold.PLP.part.metal>
0.0000

> <Gold.PLP.part.buried>
-5.7281

> <Gold.PLP.part.nonpolar>
-32.9665

> <Gold.PLP.part.repulsive>
0.0588

> <Gold.PLP.ligand.clash>
0.0000

> <Gold.PLP.ligand.torsion>
0.8020

> <Gold.PLP.Chemscore.Hbond>
4.0000

> <Gold.PLP.Chemscore.CHOScore>
0.0000

> <Gold.PLP.Chemscore.Metal>
0.0000

> <Gold.Chemscore.Hbonds>
donor molecule, donor type, donor heavy atom, donor atom, acceptor molecule, acceptor atom, score
      L1  H    22    49       P1 10186  1.89
      P1  H  6896  6909       L1     8  1.95

> <Gold.PLP.Chemscore.Internal.Correction>
0.0270

> <Gold.Rescore>
     Score         DG    S(hbond)    S(metal)    S(lipo)     H(rot)  DE(clash)    DE(int)     intcor
     16.73     -18.71       1.94        0.00      99.74       1.92       0.00       1.99       ----

> <Gold.Chemscore.Fitness>
16.7270

> <Gold.Chemscore.DG>
-18.7129

> <Gold.Chemscore.ZeroCoef>
-5.4800

> <Gold.Chemscore.Hbond>
1.9377

> <Gold.Chemscore.Metal>
0.0000

> <Gold.Chemscore.Lipo>
99.7404

> <Gold.Chemscore.Internal_Hbond>
0.0000

> <Gold.Chemscore.DEClash>
0.0000

> <Gold.Chemscore.DEInternal>
1.9859

> <Gold.Chemscore.Rot>
1.9175

> <Gold.Chemscore.Internal.Correction>
   9.000000E+99

> <Gold.Chemscore.Hbonds>
donor molecule, donor type, donor heavy atom, donor atom, acceptor molecule, acceptor atom, score
      L1  H    22    49       P1 10186  0.91
      P1  H  6896  6909       L1     8  0.92

> <Gold.Chemscore.Hbond.Weighted>
-6.4720

> <Gold.Chemscore.Metal.Weighted>
-0.0000

> <Gold.Chemscore.Lipo.Weighted>
-11.6696

> <Gold.Chemscore.Internal_Hbond.Weighted>
0.0000

> <Gold.Chemscore.DEClash.Weighted>
0.0000

> <Gold.Chemscore.DEInternal.Weighted>
1.9859

> <Gold.Chemscore.Rot.Weighted>
4.9087

> <Gold.Chemscore.Internal.Correction.Weighted>
   9.000000E+99

> <Gold.Protein.RotatedTorsions>
[ 6907 6896 6895 6894 ] final   12.91 input  -60.11 | X-H torsion
[ 7974 7965 7964 7962 ] final   71.96 input  175.53 | X-H torsion
[ 8008 7997 7996 7995 ] final   49.84 input   59.86 | X-H torsion
[ 10167 10162 10161 10158 ] final  -51.08 input  -65.29 | X-H torsion
[ 10718 10713 10712 10709 ] final  -49.78 input   66.30 | X-H torsion
[ 10763 10752 10751 10750 ] final  -76.27 input  -60.55 | X-H torsion
[ 11005 11000 10999 10996 ] final -176.18 input  -57.11 | X-H torsion

> <Gold.Protein.ActiveResidues>
 VAL166  LYS551  ARG553  GLY616  TRP617  ASP618  TYR619  PRO620  LYS621  CYS622 
 ASP623  PHE694  ASN695  SER759  ASP760  ASP761  ALA762  ILE779  LEU786  VAL792 
 PHE793  MET794  SER795  GLU796  ALA797  LYS798  CYS799  TRP800  GLU811  SER814 

> <Gold.Protein.RotatedAtoms>
  151.7779  135.0769  160.0369 H   0  0  0  0  0  0  0  0  0  0  0  0  # atno 6907 bound_to 6896
  152.3244  133.5884  159.5774 H   0  0  0  0  0  0  0  0  0  0  0  0  # atno 6908 bound_to 6896
  150.7387  133.9879  159.3639 H   0  0  0  0  0  0  0  0  0  0  0  0  # atno 6909 bound_to 6896
  145.7594  139.2794  143.1385 H   0  0  0  0  0  0  0  0  0  0  0  0  # atno 7974 bound_to 7965
  155.4089  140.3441  155.4262 H   0  0  0  0  0  0  0  0  0  0  0  0  # atno 8008 bound_to 7997
  156.1460  140.1556  156.8877 H   0  0  0  0  0  0  0  0  0  0  0  0  # atno 8009 bound_to 7997
  154.5011  140.0814  156.7781 H   0  0  0  0  0  0  0  0  0  0  0  0  # atno 8010 bound_to 7997
  140.6606  143.2633  151.4451 H   0  0  0  0  0  0  0  0  0  0  0  0  # atno 10167 bound_to 10162
  156.1861  130.4151  149.9437 H   0  0  0  0  0  0  0  0  0  0  0  0  # atno 10718 bound_to 10713
  154.4976  135.5803  153.6506 H   0  0  0  0  0  0  0  0  0  0  0  0  # atno 10763 bound_to 10752
  152.9873  135.6128  154.3044 H   0  0  0  0  0  0  0  0  0  0  0  0  # atno 10764 bound_to 10752
  154.2949  135.2848  155.2617 H   0  0  0  0  0  0  0  0  0  0  0  0  # atno 10765 bound_to 10752
  140.4549  134.6308  157.4818 H   0  0  0  0  0  0  0  0  0  0  0  0  # atno 11005 bound_to 11000
  146.0279  140.8286  142.9890 LP  0  0  0  0  0  0  0  0  0  0  0  0  # atno 17320 bound_to 7965
  144.6833  140.2725  143.7304 LP  0  0  0  0  0  0  0  0  0  0  0  0  # atno 17321 bound_to 7965
  139.5839  144.1647  152.2004 LP  0  0  0  0  0  0  0  0  0  0  0  0  # atno 17342 bound_to 10162
  140.0981  144.5563  150.7008 LP  0  0  0  0  0  0  0  0  0  0  0  0  # atno 17343 bound_to 10162
  156.7192  130.9000  151.3616 LP  0  0  0  0  0  0  0  0  0  0  0  0  # atno 17370 bound_to 10713
  157.6899  130.9223  150.0487 LP  0  0  0  0  0  0  0  0  0  0  0  0  # atno 17371 bound_to 10713
  139.9982  134.6877  155.9574 LP  0  0  0  0  0  0  0  0  0  0  0  0  # atno 17394 bound_to 11000
  141.1647  133.6537  156.4439 LP  0  0  0  0  0  0  0  0  0  0  0  0  # atno 17395 bound_to 11000

$$$$
