AV-unprocessed.smi:1243|AV-procd|sdf|5218|dock3
  -GOLD-   22720 4313D 1   1.00000     0.00000
 Structure written by MMmdl.
 51 52  0  0  0  0  0  0  0  0  2 V2000
  152.2370  139.0046  155.6159 C   0  0  0  0  0  0  0  0  0  0  0  0
  152.5804  139.4437  156.9258 O   0  0  0  0  0  0  0  0  0  0  0  0
  151.9220  140.5418  157.4464 C   0  0  0  0  0  0  0  0  0  0  0  0
  150.9226  141.1007  156.7186 N   0  0  0  0  0  0  0  0  0  0  0  0
  150.2816  142.1743  157.2248 C   0  0  0  0  0  0  0  0  0  0  0  0
  150.6033  142.7486  158.4683 C   0  0  0  0  0  0  0  0  0  0  0  0
  151.6388  142.1703  159.2254 C   0  0  0  0  0  0  0  0  0  0  0  0
  152.3099  141.0334  158.7143 C   0  0  0  0  0  0  0  0  0  0  0  0
  153.3821  140.3912  159.3905 N   0  0  0  0  0  0  0  0  0  0  0  0
  153.8952  140.6859  160.5963 C   0  0  0  0  0  0  0  0  0  0  0  0
  153.4892  141.5783  161.3405 O   0  0  0  0  0  0  0  0  0  0  0  0
  154.9008  139.8561  160.9071 N   0  0  0  0  0  0  0  0  0  0  0  0
  155.6482  139.8493  162.1648 C   0  0  0  0  0  0  0  0  0  0  0  0
  156.4951  138.5561  162.3531 C   0  0  0  0  0  0  0  0  0  0  0  0
  157.3883  138.3651  161.1039 C   0  0  0  0  0  0  0  0  0  0  0  0
  157.4078  138.7716  163.5875 C   0  0  0  0  0  0  0  0  0  0  0  0
  155.6113  137.3811  162.5863 N   0  0  0  0  0  0  0  0  0  0  0  0
  155.0769  137.2725  163.9544 C   0  0  0  0  0  0  0  0  0  0  0  0
  153.9831  136.1879  164.0227 C   0  0  0  0  0  0  0  0  0  0  0  0
  154.5000  134.8664  163.6004 N   0  3  0  0  0  0  0  0  0  0  0  0
  155.3365  134.1931  164.6205 C   0  0  0  0  0  0  0  0  0  0  0  0
  155.1421  134.9704  162.2704 C   0  0  0  0  0  0  0  0  0  0  0  0
  156.2119  136.0806  162.2442 C   0  0  0  0  0  0  0  0  0  0  0  0
  152.8352  138.1303  155.3604 H   0  0  0  0  0  0  0  0  0  0  0  0
  152.4421  139.7745  154.8710 H   0  0  0  0  0  0  0  0  0  0  0  0
  151.1867  138.7159  155.5533 H   0  0  0  0  0  0  0  0  0  0  0  0
  149.4929  142.5922  156.6168 H   0  0  0  0  0  0  0  0  0  0  0  0
  150.0715  143.6159  158.8305 H   0  0  0  0  0  0  0  0  0  0  0  0
  151.9094  142.6145  160.1710 H   0  0  0  0  0  0  0  0  0  0  0  0
  153.7457  139.5650  158.9386 H   0  0  0  0  0  0  0  0  0  0  0  0
  155.1524  139.1492  160.2325 H   0  0  0  0  0  0  0  0  0  0  0  0
  156.2676  140.7446  162.1989 H   0  0  0  0  0  0  0  0  0  0  0  0
  154.9717  139.9660  163.0133 H   0  0  0  0  0  0  0  0  0  0  0  0
  158.0375  139.2298  160.9614 H   0  0  0  0  0  0  0  0  0  0  0  0
  156.8048  138.2589  160.1896 H   0  0  0  0  0  0  0  0  0  0  0  0
  158.0411  137.4967  161.1877 H   0  0  0  0  0  0  0  0  0  0  0  0
  157.9018  139.7430  163.5448 H   0  0  0  0  0  0  0  0  0  0  0  0
  158.2066  138.0331  163.6526 H   0  0  0  0  0  0  0  0  0  0  0  0
  156.8443  138.7383  164.5209 H   0  0  0  0  0  0  0  0  0  0  0  0
  155.8737  137.0543  164.6655 H   0  0  0  0  0  0  0  0  0  0  0  0
  154.6177  138.2055  164.2734 H   0  0  0  0  0  0  0  0  0  0  0  0
  153.5719  136.1223  165.0308 H   0  0  0  0  0  0  0  0  0  0  0  0
  153.1534  136.4637  163.3699 H   0  0  0  0  0  0  0  0  0  0  0  0
  156.2472  134.7516  164.8367 H   0  0  0  0  0  0  0  0  0  0  0  0
  155.6226  133.1970  164.2812 H   0  0  0  0  0  0  0  0  0  0  0  0
  154.7814  134.0771  165.5521 H   0  0  0  0  0  0  0  0  0  0  0  0
  155.5793  134.0109  161.9915 H   0  0  0  0  0  0  0  0  0  0  0  0
  154.3736  135.1856  161.5264 H   0  0  0  0  0  0  0  0  0  0  0  0
  156.6323  136.0912  161.2413 H   0  0  0  0  0  0  0  0  0  0  0  0
  157.0286  135.8397  162.9249 H   0  0  0  0  0  0  0  0  0  0  0  0
  153.6934  134.2702  163.4819 H   0  0  0  0  0  0  0  0  0  0  0  0
  1  2  1  0  0  0  0
  1 24  1  0  0  0  0
  1 25  1  0  0  0  0
  1 26  1  0  0  0  0
  2  3  1  0  0  0  0
  3  8  1  0  0  0  0
  3  4  2  0  0  0  0
  4  5  1  0  0  0  0
  5  6  2  0  0  0  0
  5 27  1  0  0  0  0
  6  7  1  0  0  0  0
  6 28  1  0  0  0  0
  7  8  2  0  0  0  0
  7 29  1  0  0  0  0
  8  9  1  0  0  0  0
  9 10  1  0  0  0  0
  9 30  1  0  0  0  0
 10 11  2  0  0  0  0
 10 12  1  0  0  0  0
 12 13  1  0  0  0  0
 12 31  1  0  0  0  0
 13 14  1  0  0  0  0
 13 32  1  0  0  0  0
 13 33  1  0  0  0  0
 14 15  1  0  0  0  0
 14 16  1  0  0  0  0
 14 17  1  0  0  0  0
 15 34  1  0  0  0  0
 15 35  1  0  0  0  0
 15 36  1  0  0  0  0
 16 37  1  0  0  0  0
 16 38  1  0  0  0  0
 16 39  1  0  0  0  0
 17 23  1  0  0  0  0
 17 18  1  0  0  0  0
 18 19  1  0  0  0  0
 18 40  1  0  0  0  0
 18 41  1  0  0  0  0
 19 20  1  0  0  0  0
 19 42  1  0  0  0  0
 19 43  1  0  0  0  0
 20 21  1  0  0  0  0
 20 22  1  0  0  0  0
 20 51  1  0  0  0  0
 21 44  1  0  0  0  0
 21 45  1  0  0  0  0
 21 46  1  0  0  0  0
 22 23  1  0  0  0  0
 22 47  1  0  0  0  0
 22 48  1  0  0  0  0
 23 49  1  0  0  0  0
 23 50  1  0  0  0  0
M  CHG  1  20   1
M  END
> <s_m_source_file>
AV-unprocessed.smi

> <i_m_source_file_index>
1243

> <i_lp_mmshare_version>
43012

> <i_f3d_flags>
0

> <s_epik_input>
W0NIM11PYzFuW2NIXVtjSF1bY0hdYzFbTkhdQyg9TylbTkhdW0NIMl1DKFtDSDNdKShbQ0gzXSlOMltDSDJdW0NIMl1OKFtDSDNdKVtDSDJdW0NIMl0y

> <s_epik_cmdline>
J2VwaWtfcHl0aG9uJywgJy1waCcsICc3LjAnLCAnLXRuJywgJzgnLCAnLW1hJywgJzIwMCcsICctbWV0YWxfYmluZGluZycsICctaW1hZScsICc8aW5maWxlLm1hZT4nLCAnLW9tYWUnLCAnPG91dGZpbGUubWFlPic=

> <r_lp_tautomer_probability>
1

> <r_epik_Ionization_Penalty>
0.0248754

> <r_epik_Ionization_Penalty_Charging>
0.0238192

> <r_epik_Ionization_Penalty_Neutral>
0.00105626

> <r_epik_State_Penalty>
0.139266

> <r_epik_Charging_Adjusted_Penalty>
0.163085

> <i_epik_Tot_Q>
1

> <i_epik_Tot_abs_Q>
1

> <r_epik_Metal_State_Penalty>
0.139265

> <b_epik_Metal_Only>
0

> <s_lp_Force_Field>
OPLS_2005

> <r_lp_Energy>
29.8064

> <b_lp_Chiralities_Consistent>
1

> <s_lp_Variant>
AV-unprocessed.smi:1243-1

> <Gold.Version>
5.8.1

> <Gold.Id.Protein>
6NUR|6NUR_protein|mol2

> <Gold.PLP.Fitness>
36.1424

> <Gold.PLP.PLP>
-31.7507

> <Gold.PLP.part.hbond>
-1.0000

> <Gold.PLP.part.metal>
0.0000

> <Gold.PLP.part.buried>
-5.7049

> <Gold.PLP.part.nonpolar>
-25.6207

> <Gold.PLP.part.repulsive>
0.1615

> <Gold.PLP.ligand.clash>
0.0000

> <Gold.PLP.ligand.torsion>
0.8262

> <Gold.PLP.Chemscore.Hbond>
1.0000

> <Gold.PLP.Chemscore.CHOScore>
1.0000

> <Gold.PLP.Chemscore.Metal>
0.0000

> <Gold.Chemscore.Hbonds>
donor molecule, donor type, donor heavy atom, donor atom, acceptor molecule, acceptor atom, score
      P1  H  7997  8008       L1     2  1.00
      L1  C     5    27       P1  8028  1.00

> <Gold.PLP.Chemscore.Internal.Correction>
0.0441

> <Gold.Rescore>
     Score         DG    S(hbond)    S(metal)    S(lipo)     H(rot)  DE(clash)    DE(int)     intcor
     11.44     -13.22       0.58        0.00      87.14       1.72       0.07       1.71       ----

> <Gold.Chemscore.Fitness>
11.4413

> <Gold.Chemscore.DG>
-13.2153

> <Gold.Chemscore.ZeroCoef>
-5.4800

> <Gold.Chemscore.Hbond>
0.5828

> <Gold.Chemscore.Metal>
0.0000

> <Gold.Chemscore.Lipo>
87.1408

> <Gold.Chemscore.Internal_Hbond>
0.0000

> <Gold.Chemscore.DEClash>
0.0684

> <Gold.Chemscore.DEInternal>
1.7056

> <Gold.Chemscore.Rot>
1.7213

> <Gold.Chemscore.Internal.Correction>
   9.000000E+99

> <Gold.Chemscore.Hbonds>
donor molecule, donor type, donor heavy atom, donor atom, acceptor molecule, acceptor atom, score
      P1  H  7997  8008       L1     2  0.16

> <Gold.Chemscore.Hbond.Weighted>
-1.9464

> <Gold.Chemscore.Metal.Weighted>
-0.0000

> <Gold.Chemscore.Lipo.Weighted>
-10.1955

> <Gold.Chemscore.Internal_Hbond.Weighted>
0.0000

> <Gold.Chemscore.DEClash.Weighted>
0.0684

> <Gold.Chemscore.DEInternal.Weighted>
1.7056

> <Gold.Chemscore.Rot.Weighted>
4.4066

> <Gold.Chemscore.Internal.Correction.Weighted>
   9.000000E+99

> <Gold.Protein.RotatedTorsions>
[ 6907 6896 6895 6894 ] final  -23.78 input  -60.11 | X-H torsion
[ 7974 7965 7964 7962 ] final  -51.31 input  175.53 | X-H torsion
[ 8008 7997 7996 7995 ] final  -64.44 input   59.86 | X-H torsion
[ 10167 10162 10161 10158 ] final  -94.89 input  -65.29 | X-H torsion
[ 10718 10713 10712 10709 ] final   38.45 input   66.30 | X-H torsion
[ 10763 10752 10751 10750 ] final  172.53 input  -60.55 | X-H torsion
[ 11005 11000 10999 10996 ] final  175.62 input  -57.11 | X-H torsion

> <Gold.Protein.ActiveResidues>
 VAL166  LYS551  ARG553  GLY616  TRP617  ASP618  TYR619  PRO620  LYS621  CYS622 
 ASP623  PHE694  ASN695  SER759  ASP760  ASP761  ALA762  ILE779  LEU786  VAL792 
 PHE793  MET794  SER795  GLU796  ALA797  LYS798  CYS799  TRP800  GLU811  SER814 

> <Gold.Protein.RotatedAtoms>
  151.1991  135.0435  159.8864 H   0  0  0  0  0  0  0  0  0  0  0  0  # atno 6907 bound_to 6896
  152.5434  134.0870  159.8270 H   0  0  0  0  0  0  0  0  0  0  0  0  # atno 6908 bound_to 6896
  151.1009  133.5197  159.2642 H   0  0  0  0  0  0  0  0  0  0  0  0  # atno 6909 bound_to 6896
  145.9203  140.7839  142.9651 H   0  0  0  0  0  0  0  0  0  0  0  0  # atno 7974 bound_to 7965
  154.4612  140.0954  156.6897 H   0  0  0  0  0  0  0  0  0  0  0  0  # atno 8008 bound_to 7997
  155.4990  140.3473  155.4349 H   0  0  0  0  0  0  0  0  0  0  0  0  # atno 8009 bound_to 7997
  156.0873  140.1388  156.9626 H   0  0  0  0  0  0  0  0  0  0  0  0  # atno 8010 bound_to 7997
  140.3098  143.3112  152.0160 H   0  0  0  0  0  0  0  0  0  0  0  0  # atno 10167 bound_to 10162
  157.3590  130.7639  149.7033 H   0  0  0  0  0  0  0  0  0  0  0  0  # atno 10718 bound_to 10713
  154.4274  135.2759  155.1935 H   0  0  0  0  0  0  0  0  0  0  0  0  # atno 10763 bound_to 10752
  154.3856  135.6078  153.5818 H   0  0  0  0  0  0  0  0  0  0  0  0  # atno 10764 bound_to 10752
  152.9835  135.5891  154.4579 H   0  0  0  0  0  0  0  0  0  0  0  0  # atno 10765 bound_to 10752
  140.3642  134.7086  157.4351 H   0  0  0  0  0  0  0  0  0  0  0  0  # atno 11005 bound_to 11000
  144.6752  140.1965  143.7391 LP  0  0  0  0  0  0  0  0  0  0  0  0  # atno 17320 bound_to 7965
  145.8558  139.2198  143.1745 LP  0  0  0  0  0  0  0  0  0  0  0  0  # atno 17321 bound_to 7965
  139.4896  144.6393  151.6910 LP  0  0  0  0  0  0  0  0  0  0  0  0  # atno 17342 bound_to 10162
  140.5578  144.0319  150.6155 LP  0  0  0  0  0  0  0  0  0  0  0  0  # atno 17343 bound_to 10162
  155.9734  130.4119  150.4005 LP  0  0  0  0  0  0  0  0  0  0  0  0  # atno 17370 bound_to 10713
  157.2079  131.0453  151.2615 LP  0  0  0  0  0  0  0  0  0  0  0  0  # atno 17371 bound_to 10713
  140.0602  134.6006  155.8757 LP  0  0  0  0  0  0  0  0  0  0  0  0  # atno 17394 bound_to 11000
  141.1975  133.6596  156.5743 LP  0  0  0  0  0  0  0  0  0  0  0  0  # atno 17395 bound_to 11000

$$$$
