AV-unprocessed.smi:1260|AV-procd|sdf|5294|dock7
  -GOLD-   22720 4413D 1   1.00000     0.00000
 Structure written by MMmdl.
 37 39  0  0  0  0  0  0  0  0  2 V2000
  149.5920  132.7062  154.9950 O   0  0  0  0  0  0  0  0  0  0  0  0
  149.3561  133.7976  154.4780 C   0  0  0  0  0  0  0  0  0  0  0  0
  149.9624  135.0717  155.0633 C   0  0  0  0  0  0  0  0  0  0  0  0
  149.5361  135.2400  156.4397 N   0  0  0  0  0  0  0  0  0  0  0  0
  148.3469  135.0582  157.0175 C   0  0  0  0  0  0  0  0  0  0  0  0
  148.3976  135.2860  158.3210 N   0  0  0  0  0  0  0  0  0  0  0  0
  149.7223  135.6323  158.5293 N   0  0  0  0  0  0  0  0  0  0  0  0
  150.4031  135.6068  157.4167 N   0  0  0  0  0  0  0  0  0  0  0  0
  148.6108  133.9461  153.3721 N   0  0  0  0  0  0  0  0  0  0  0  0
  148.0817  132.8456  152.5725 C   0  0  1  0  0  0  0  0  0  0  0  0
  147.2295  131.8598  153.3828 C   0  0  0  0  0  0  0  0  0  0  0  0
  146.1683  131.3408  152.3953 C   0  0  0  0  0  0  0  0  0  0  0  0
  146.4052  132.0549  151.1206 N   0  3  1  0  0  0  0  0  0  0  0  0
  145.2346  132.2040  150.2182 C   0  0  0  0  0  0  0  0  0  0  0  0
  144.2891  133.3368  150.6519 C   0  0  0  0  0  0  0  0  0  0  0  0
  145.0594  134.6499  150.8227 C   0  0  0  0  0  0  0  0  0  0  0  0
  146.1823  134.4557  151.8460 C   0  0  0  0  0  0  0  0  0  0  0  0
  147.1368  133.2996  151.4456 C   0  0  1  0  0  0  0  0  0  0  0  0
  151.0520  135.0331  155.0198 H   0  0  0  0  0  0  0  0  0  0  0  0
  149.6434  135.9402  154.4857 H   0  0  0  0  0  0  0  0  0  0  0  0
  147.4563  134.7501  156.4900 H   0  0  0  0  0  0  0  0  0  0  0  0
  148.4653  134.8817  153.0199 H   0  0  0  0  0  0  0  0  0  0  0  0
  148.9114  132.2885  152.1319 H   0  0  0  0  0  0  0  0  0  0  0  0
  147.8338  131.0533  153.7995 H   0  0  0  0  0  0  0  0  0  0  0  0
  146.7368  132.3636  154.2160 H   0  0  0  0  0  0  0  0  0  0  0  0
  146.2493  130.2649  152.2385 H   0  0  0  0  0  0  0  0  0  0  0  0
  145.1690  131.5469  152.7802 H   0  0  0  0  0  0  0  0  0  0  0  0
  145.6106  132.4173  149.2169 H   0  0  0  0  0  0  0  0  0  0  0  0
  144.6972  131.2573  150.1515 H   0  0  0  0  0  0  0  0  0  0  0  0
  143.5001  133.4638  149.9101 H   0  0  0  0  0  0  0  0  0  0  0  0
  143.7912  133.0761  151.5864 H   0  0  0  0  0  0  0  0  0  0  0  0
  145.4763  134.9682  149.8663 H   0  0  0  0  0  0  0  0  0  0  0  0
  144.3856  135.4419  151.1512 H   0  0  0  0  0  0  0  0  0  0  0  0
  146.7397  135.3873  151.9485 H   0  0  0  0  0  0  0  0  0  0  0  0
  145.7383  134.2583  152.8225 H   0  0  0  0  0  0  0  0  0  0  0  0
  147.7106  133.6075  150.5702 H   0  0  0  0  0  0  0  0  0  0  0  0
  147.0694  131.4779  150.6243 H   0  0  0  0  0  0  0  0  0  0  0  0
  1  2  2  0  0  0  0
  2  3  1  0  0  0  0
  2  9  1  0  0  0  0
  3  4  1  0  0  0  0
  3 19  1  0  0  0  0
  3 20  1  0  0  0  0
  4  8  1  0  0  0  0
  4  5  1  0  0  0  0
  5  6  2  0  0  0  0
  5 21  1  0  0  0  0
  6  7  1  0  0  0  0
  7  8  2  0  0  0  0
  9 10  1  0  0  0  0
  9 22  1  0  0  0  0
 10 18  1  0  0  0  0
 10 11  1  0  0  0  0
 10 23  1  0  0  0  0
 11 12  1  0  0  0  0
 11 24  1  0  0  0  0
 11 25  1  0  0  0  0
 12 13  1  0  0  0  0
 12 26  1  0  0  0  0
 12 27  1  0  0  0  0
 13 18  1  0  0  0  0
 13 14  1  0  0  0  0
 13 37  1  0  0  0  0
 14 15  1  0  0  0  0
 14 28  1  0  0  0  0
 14 29  1  0  0  0  0
 15 16  1  0  0  0  0
 15 30  1  0  0  0  0
 15 31  1  0  0  0  0
 16 17  1  0  0  0  0
 16 32  1  0  0  0  0
 16 33  1  0  0  0  0
 17 18  1  0  0  0  0
 17 34  1  0  0  0  0
 17 35  1  0  0  0  0
 18 36  1  0  0  0  0
M  CHG  1  13   1
M  END
> <s_m_source_file>
AV-unprocessed.smi

> <i_m_source_file_index>
1260

> <i_lp_mmshare_version>
43012

> <i_f3d_flags>
0

> <s_epik_input>
bjFubltjSF1uMVtDSDJdQyg9TylbTkhdW0NASF0oW0NIMl1bQ0gyXTIpW0NAQEhdKE4yMylbQ0gyXVtDSDJdW0NIMl1bQ0gyXTM=

> <s_epik_cmdline>
J2VwaWtfcHl0aG9uJywgJy1waCcsICc3LjAnLCAnLXRuJywgJzgnLCAnLW1hJywgJzIwMCcsICctbWV0YWxfYmluZGluZycsICctaW1hZScsICc8aW5maWxlLm1hZT4nLCAnLW9tYWUnLCAnPG91dGZpbGUubWFlPic=

> <r_lp_tautomer_probability>
1

> <r_epik_Ionization_Penalty>
0.00234324

> <r_epik_Ionization_Penalty_Charging>
0.00233897

> <r_epik_Ionization_Penalty_Neutral>
4.26861e-06

> <r_epik_State_Penalty>
0.00161477

> <r_epik_Charging_Adjusted_Penalty>
0.00395374

> <i_epik_Tot_Q>
1

> <i_epik_Tot_abs_Q>
1

> <r_epik_Metal_State_Penalty>
-0

> <b_epik_Metal_Only>
0

> <s_lp_Force_Field>
OPLS_2005

> <r_lp_Energy>
37.4375

> <b_lp_Chiralities_Consistent>
1

> <s_lp_Variant>
AV-unprocessed.smi:1260-2

> <Gold.Version>
5.8.1

> <Gold.Id.Protein>
6NUR|6NUR_protein|mol2

> <Gold.PLP.Fitness>
37.4174

> <Gold.PLP.PLP>
-29.0705

> <Gold.PLP.part.hbond>
-3.9065

> <Gold.PLP.part.metal>
0.0000

> <Gold.PLP.part.buried>
-3.1489

> <Gold.PLP.part.nonpolar>
-21.3116

> <Gold.PLP.part.repulsive>
0.0420

> <Gold.PLP.ligand.clash>
0.0000

> <Gold.PLP.ligand.torsion>
0.2571

> <Gold.PLP.Chemscore.Hbond>
2.9513

> <Gold.PLP.Chemscore.CHOScore>
0.0000

> <Gold.PLP.Chemscore.Metal>
0.0000

> <Gold.Chemscore.Hbonds>
donor molecule, donor type, donor heavy atom, donor atom, acceptor molecule, acceptor atom, score
      L1  H     9    22       P1  7948  0.94
      L1  H    13    37       P1 10747  0.99
      P1  H  6896  6907       L1     7  1.00

> <Gold.PLP.Chemscore.Internal.Correction>
0.0072

> <Gold.Rescore>
     Score         DG    S(hbond)    S(metal)    S(lipo)     H(rot)  DE(clash)    DE(int)     intcor
     14.72     -14.84       2.25        0.00      58.96       1.98       0.03       0.09       ----

> <Gold.Chemscore.Fitness>
14.7166

> <Gold.Chemscore.DG>
-14.8422

> <Gold.Chemscore.ZeroCoef>
-5.4800

> <Gold.Chemscore.Hbond>
2.2519

> <Gold.Chemscore.Metal>
0.0000

> <Gold.Chemscore.Lipo>
58.9627

> <Gold.Chemscore.Internal_Hbond>
0.0000

> <Gold.Chemscore.DEClash>
0.0323

> <Gold.Chemscore.DEInternal>
0.0934

> <Gold.Chemscore.Rot>
1.9757

> <Gold.Chemscore.Internal.Correction>
   9.000000E+99

> <Gold.Chemscore.Hbonds>
donor molecule, donor type, donor heavy atom, donor atom, acceptor molecule, acceptor atom, score
      L1  H     9    22       P1  7948  0.55
      L1  H    13    37       P1 10747  0.89
      P1  H  6896  6907       L1     7  0.34

> <Gold.Chemscore.Hbond.Weighted>
-7.5214

> <Gold.Chemscore.Metal.Weighted>
-0.0000

> <Gold.Chemscore.Lipo.Weighted>
-6.8986

> <Gold.Chemscore.Internal_Hbond.Weighted>
0.0000

> <Gold.Chemscore.DEClash.Weighted>
0.0323

> <Gold.Chemscore.DEInternal.Weighted>
0.0934

> <Gold.Chemscore.Rot.Weighted>
5.0578

> <Gold.Chemscore.Internal.Correction.Weighted>
   9.000000E+99

> <Gold.Protein.RotatedTorsions>
[ 6907 6896 6895 6894 ] final  -56.39 input  -60.11 | X-H torsion
[ 7974 7965 7964 7962 ] final -177.83 input  175.53 | X-H torsion
[ 8008 7997 7996 7995 ] final    3.71 input   59.86 | X-H torsion
[ 10167 10162 10161 10158 ] final   84.85 input  -65.29 | X-H torsion
[ 10718 10713 10712 10709 ] final -105.64 input   66.30 | X-H torsion
[ 10763 10752 10751 10750 ] final -114.16 input  -60.55 | X-H torsion
[ 11005 11000 10999 10996 ] final   87.91 input  -57.11 | X-H torsion

> <Gold.Protein.ActiveResidues>
 VAL166  LYS551  ARG553  GLY616  TRP617  ASP618  TYR619  PRO620  LYS621  CYS622 
 ASP623  PHE694  ASN695  SER759  ASP760  ASP761  ALA762  ILE779  LEU786  VAL792 
 PHE793  MET794  SER795  GLU796  ALA797  LYS798  CYS799  TRP800  GLU811  SER814 

> <Gold.Protein.RotatedAtoms>
  150.8172  134.7360  159.6739 H   0  0  0  0  0  0  0  0  0  0  0  0  # atno 6907 bound_to 6896
  152.4290  134.5811  159.9958 H   0  0  0  0  0  0  0  0  0  0  0  0  # atno 6908 bound_to 6896
  151.6005  133.3319  159.3082 H   0  0  0  0  0  0  0  0  0  0  0  0  # atno 6909 bound_to 6896
  144.7129  140.0961  143.6419 H   0  0  0  0  0  0  0  0  0  0  0  0  # atno 7974 bound_to 7965
  154.7070  140.2685  155.6665 H   0  0  0  0  0  0  0  0  0  0  0  0  # atno 8008 bound_to 7997
  156.2783  140.2761  156.1623 H   0  0  0  0  0  0  0  0  0  0  0  0  # atno 8009 bound_to 7997
  155.0687  140.0372  157.2591 H   0  0  0  0  0  0  0  0  0  0  0  0  # atno 8010 bound_to 7997
  139.9037  144.6314  150.8609 H   0  0  0  0  0  0  0  0  0  0  0  0  # atno 10167 bound_to 10162
  156.0355  130.5573  150.7567 H   0  0  0  0  0  0  0  0  0  0  0  0  # atno 10718 bound_to 10713
  154.8428  135.4428  154.1462 H   0  0  0  0  0  0  0  0  0  0  0  0  # atno 10763 bound_to 10752
  153.2634  135.6938  153.7561 H   0  0  0  0  0  0  0  0  0  0  0  0  # atno 10764 bound_to 10752
  153.6829  135.3400  155.3158 H   0  0  0  0  0  0  0  0  0  0  0  0  # atno 10765 bound_to 10752
  139.8908  134.8453  156.2926 H   0  0  0  0  0  0  0  0  0  0  0  0  # atno 11005 bound_to 11000
  145.9578  139.2779  143.1173 LP  0  0  0  0  0  0  0  0  0  0  0  0  # atno 17320 bound_to 7965
  145.9253  140.9087  143.0384 LP  0  0  0  0  0  0  0  0  0  0  0  0  # atno 17321 bound_to 7965
  140.7701  143.3417  151.2194 LP  0  0  0  0  0  0  0  0  0  0  0  0  # atno 17342 bound_to 10162
  139.7002  143.9545  152.2902 LP  0  0  0  0  0  0  0  0  0  0  0  0  # atno 17343 bound_to 10162
  157.5098  131.0924  151.0213 LP  0  0  0  0  0  0  0  0  0  0  0  0  # atno 17370 bound_to 10713
  157.0571  130.5810  149.5380 LP  0  0  0  0  0  0  0  0  0  0  0  0  # atno 17371 bound_to 10713
  140.9966  133.7176  156.0895 LP  0  0  0  0  0  0  0  0  0  0  0  0  # atno 17394 bound_to 11000
  140.7554  134.3998  157.5534 LP  0  0  0  0  0  0  0  0  0  0  0  0  # atno 17395 bound_to 11000

$$$$
