AV-unprocessed.smi:1759|AV-procd|sdf|7087|dock2
  -GOLD-   22720 8303D 1   1.00000     0.00000
 Structure written by MMmdl.
 31 32  0  0  0  0  0  0  0  0  1 V2000
  147.0848  140.2617  153.3243 C   0  0  0  0  0  0  0  0  0  0  0  0
  148.2979  140.6300  154.1070 C   0  0  0  0  0  0  0  0  0  0  0  0
  148.5815  141.6671  154.9503 C   0  0  0  0  0  0  0  0  0  0  0  0
  149.9181  141.3988  155.3484 C   0  0  0  0  0  0  0  0  0  0  0  0
  150.5955  142.2594  156.2490 N   0  0  0  0  0  0  0  0  0  0  0  0
  150.3450  142.4365  157.5572 C   0  0  0  0  0  0  0  0  0  0  0  0
  149.4797  141.8422  158.2008 O   0  0  0  0  0  0  0  0  0  0  0  0
  151.1678  143.3500  158.0913 N   0  0  0  0  0  0  0  0  0  0  0  0
  151.1727  143.7505  159.4934 C   0  0  0  0  0  0  0  0  0  0  0  0
  152.5299  143.4606  160.1546 C   0  0  2  0  0  0  0  0  0  0  0  0
  152.9589  141.9973  160.0553 C   0  0  0  0  0  0  0  0  0  0  0  0
  153.8473  141.8524  161.2692 C   0  0  0  0  0  0  0  0  0  0  0  0
  153.1005  142.6980  162.2944 C   0  0  0  0  0  0  0  0  0  0  0  0
  152.4744  143.7412  161.5528 O   0  0  0  0  0  0  0  0  0  0  0  0
  150.4066  140.2982  154.7972 N   0  0  0  0  0  0  0  0  0  0  0  0
  149.3705  139.7998  153.9985 O   0  0  0  0  0  0  0  0  0  0  0  0
  146.2867  140.9883  153.4773 H   0  0  0  0  0  0  0  0  0  0  0  0
  146.7135  139.2824  153.6266 H   0  0  0  0  0  0  0  0  0  0  0  0
  147.3096  140.2250  152.2583 H   0  0  0  0  0  0  0  0  0  0  0  0
  147.9349  142.4838  155.2355 H   0  0  0  0  0  0  0  0  0  0  0  0
  151.3474  142.8038  155.8532 H   0  0  0  0  0  0  0  0  0  0  0  0
  151.8534  143.7860  157.4920 H   0  0  0  0  0  0  0  0  0  0  0  0
  150.9483  144.8160  159.5490 H   0  0  0  0  0  0  0  0  0  0  0  0
  150.3727  143.2382  160.0311 H   0  0  0  0  0  0  0  0  0  0  0  0
  153.3109  144.0860  159.7188 H   0  0  0  0  0  0  0  0  0  0  0  0
  152.0969  141.3344  160.1451 H   0  0  0  0  0  0  0  0  0  0  0  0
  153.4704  141.7681  159.1201 H   0  0  0  0  0  0  0  0  0  0  0  0
  153.9807  140.8172  161.5843 H   0  0  0  0  0  0  0  0  0  0  0  0
  154.8302  142.2814  161.0696 H   0  0  0  0  0  0  0  0  0  0  0  0
  152.3239  142.1063  162.7804 H   0  0  0  0  0  0  0  0  0  0  0  0
  153.7582  143.0948  163.0681 H   0  0  0  0  0  0  0  0  0  0  0  0
  1  2  1  0  0  0  0
  1 17  1  0  0  0  0
  1 18  1  0  0  0  0
  1 19  1  0  0  0  0
  2 16  1  0  0  0  0
  2  3  2  0  0  0  0
  3  4  1  0  0  0  0
  3 20  1  0  0  0  0
  4  5  1  0  0  0  0
  4 15  2  0  0  0  0
  5  6  1  0  0  0  0
  5 21  1  0  0  0  0
  6  7  2  0  0  0  0
  6  8  1  0  0  0  0
  8  9  1  0  0  0  0
  8 22  1  0  0  0  0
  9 10  1  0  0  0  0
  9 23  1  0  0  0  0
  9 24  1  0  0  0  0
 10 14  1  0  0  0  0
 10 11  1  0  0  0  0
 10 25  1  0  0  0  0
 11 12  1  0  0  0  0
 11 26  1  0  0  0  0
 11 27  1  0  0  0  0
 12 13  1  0  0  0  0
 12 28  1  0  0  0  0
 12 29  1  0  0  0  0
 13 14  1  0  0  0  0
 13 30  1  0  0  0  0
 13 31  1  0  0  0  0
 15 16  1  0  0  0  0
M  END
> <s_m_source_file>
AV-unprocessed.smi

> <i_m_source_file_index>
1759

> <i_lp_mmshare_version>
43012

> <i_f3d_flags>
0

> <s_epik_input>
W0NIM11jMVtjSF1jKG5vMSlbTkhdQyg9TylbTkhdW0NIMl1bQ0BASF0yW0NIMl1bQ0gyXVtDSDJdTzI=

> <s_epik_cmdline>
J2VwaWtfcHl0aG9uJywgJy1waCcsICc3LjAnLCAnLXRuJywgJzgnLCAnLW1hJywgJzIwMCcsICctbWV0YWxfYmluZGluZycsICctaW1hZScsICc8aW5maWxlLm1hZT4nLCAnLW9tYWUnLCAnPG91dGZpbGUubWFlPic=

> <r_lp_tautomer_probability>
1

> <r_epik_Ionization_Penalty>
2.1743e-05

> <r_epik_Ionization_Penalty_Charging>
0

> <r_epik_Ionization_Penalty_Neutral>
2.1743e-05

> <r_epik_State_Penalty>
-0

> <r_epik_Charging_Adjusted_Penalty>
0

> <i_epik_Tot_Q>
0

> <i_epik_Tot_abs_Q>
0

> <r_epik_Metal_State_Penalty>
-0

> <b_epik_Metal_Only>
0

> <s_lp_Force_Field>
OPLS_2005

> <r_lp_Energy>
14.3546

> <b_lp_Chiralities_Consistent>
1

> <s_lp_Variant>
AV-unprocessed.smi:1759-1

> <Gold.Version>
5.8.1

> <Gold.Id.Protein>
6NUR|6NUR_protein|mol2

> <Gold.PLP.Fitness>
35.7998

> <Gold.PLP.PLP>
-34.1361

> <Gold.PLP.part.hbond>
-1.7839

> <Gold.PLP.part.metal>
0.0000

> <Gold.PLP.part.buried>
-5.2061

> <Gold.PLP.part.nonpolar>
-29.0598

> <Gold.PLP.part.repulsive>
2.0182

> <Gold.PLP.ligand.clash>
0.0000

> <Gold.PLP.ligand.torsion>
0.6688

> <Gold.PLP.Chemscore.Hbond>
1.0000

> <Gold.PLP.Chemscore.CHOScore>
0.0000

> <Gold.PLP.Chemscore.Metal>
0.0000

> <Gold.Chemscore.Hbonds>
donor molecule, donor type, donor heavy atom, donor atom, acceptor molecule, acceptor atom, score
      P1  H  7989  7998       L1    15  1.00

> <Gold.PLP.Chemscore.Internal.Correction>
0.0014

> <Gold.Rescore>
     Score         DG    S(hbond)    S(metal)    S(lipo)     H(rot)  DE(clash)    DE(int)     intcor
     11.91     -12.59       0.70        0.00      68.99       1.30       0.16       0.51       ----

> <Gold.Chemscore.Fitness>
11.9132

> <Gold.Chemscore.DG>
-12.5857

> <Gold.Chemscore.ZeroCoef>
-5.4800

> <Gold.Chemscore.Hbond>
0.7045

> <Gold.Chemscore.Metal>
0.0000

> <Gold.Chemscore.Lipo>
68.9890

> <Gold.Chemscore.Internal_Hbond>
0.0000

> <Gold.Chemscore.DEClash>
0.1596

> <Gold.Chemscore.DEInternal>
0.5128

> <Gold.Chemscore.Rot>
1.2965

> <Gold.Chemscore.Internal.Correction>
   9.000000E+99

> <Gold.Chemscore.Hbonds>
donor molecule, donor type, donor heavy atom, donor atom, acceptor molecule, acceptor atom, score
      P1  H  7989  7998       L1    15  0.16

> <Gold.Chemscore.Hbond.Weighted>
-2.3531

> <Gold.Chemscore.Metal.Weighted>
-0.0000

> <Gold.Chemscore.Lipo.Weighted>
-8.0717

> <Gold.Chemscore.Internal_Hbond.Weighted>
0.0000

> <Gold.Chemscore.DEClash.Weighted>
0.1596

> <Gold.Chemscore.DEInternal.Weighted>
0.5128

> <Gold.Chemscore.Rot.Weighted>
3.3192

> <Gold.Chemscore.Internal.Correction.Weighted>
   9.000000E+99

> <Gold.Protein.RotatedTorsions>
[ 6907 6896 6895 6894 ] final  126.13 input  -60.11 | X-H torsion
[ 7974 7965 7964 7962 ] final  -96.42 input  175.53 | X-H torsion
[ 8008 7997 7996 7995 ] final  152.82 input   59.86 | X-H torsion
[ 10167 10162 10161 10158 ] final -122.01 input  -65.29 | X-H torsion
[ 10718 10713 10712 10709 ] final  -41.83 input   66.30 | X-H torsion
[ 10763 10752 10751 10750 ] final -106.98 input  -60.55 | X-H torsion
[ 11005 11000 10999 10996 ] final  124.56 input  -57.11 | X-H torsion

> <Gold.Protein.ActiveResidues>
 VAL166  LYS551  ARG553  GLY616  TRP617  ASP618  TYR619  PRO620  LYS621  CYS622 
 ASP623  PHE694  ASN695  SER759  ASP760  ASP761  ALA762  ILE779  LEU786  VAL792 
 PHE793  MET794  SER795  GLU796  ALA797  LYS798  CYS799  TRP800  GLU811  SER814 

> <Gold.Protein.RotatedAtoms>
  152.3930  133.6706  159.6253 H   0  0  0  0  0  0  0  0  0  0  0  0  # atno 6907 bound_to 6896
  150.7835  133.8921  159.3325 H   0  0  0  0  0  0  0  0  0  0  0  0  # atno 6908 bound_to 6896
  151.6704  135.0978  160.0248 H   0  0  0  0  0  0  0  0  0  0  0  0  # atno 6909 bound_to 6896
  145.3471  140.9470  143.2575 H   0  0  0  0  0  0  0  0  0  0  0  0  # atno 7974 bound_to 7965
  156.2611  140.2010  156.6394 H   0  0  0  0  0  0  0  0  0  0  0  0  # atno 8008 bound_to 7997
  154.6621  140.0559  157.0098 H   0  0  0  0  0  0  0  0  0  0  0  0  # atno 8009 bound_to 7997
  155.1261  140.3229  155.4488 H   0  0  0  0  0  0  0  0  0  0  0  0  # atno 8010 bound_to 7997
  140.0188  143.5365  152.2230 H   0  0  0  0  0  0  0  0  0  0  0  0  # atno 10167 bound_to 10162
  156.2661  130.4202  149.8489 H   0  0  0  0  0  0  0  0  0  0  0  0  # atno 10718 bound_to 10713
  154.8047  135.4692  154.0362 H   0  0  0  0  0  0  0  0  0  0  0  0  # atno 10763 bound_to 10752
  153.1840  135.6845  153.8447 H   0  0  0  0  0  0  0  0  0  0  0  0  # atno 10764 bound_to 10752
  153.7987  135.3233  155.3365 H   0  0  0  0  0  0  0  0  0  0  0  0  # atno 10765 bound_to 10752
  139.9365  134.9639  156.8428 H   0  0  0  0  0  0  0  0  0  0  0  0  # atno 11005 bound_to 11000
  144.8746  139.4990  143.6752 LP  0  0  0  0  0  0  0  0  0  0  0  0  # atno 17320 bound_to 7965
  146.2983  139.7347  142.9110 LP  0  0  0  0  0  0  0  0  0  0  0  0  # atno 17321 bound_to 7965
  139.6154  144.7618  151.2859 LP  0  0  0  0  0  0  0  0  0  0  0  0  # atno 17342 bound_to 10162
  140.7351  143.6747  150.8052 LP  0  0  0  0  0  0  0  0  0  0  0  0  # atno 17343 bound_to 10162
  156.5987  130.8537  151.3426 LP  0  0  0  0  0  0  0  0  0  0  0  0  # atno 17370 bound_to 10713
  157.7268  130.9634  150.1670 LP  0  0  0  0  0  0  0  0  0  0  0  0  # atno 17371 bound_to 10713
  140.6063  134.0124  155.7558 LP  0  0  0  0  0  0  0  0  0  0  0  0  # atno 17394 bound_to 11000
  141.0980  133.9812  157.3127 LP  0  0  0  0  0  0  0  0  0  0  0  0  # atno 17395 bound_to 11000

$$$$
