AV-unprocessed.smi:1511|AV-procd|sdf|6098|dock1
  -GOLD-   22720 6223D 1   1.00000     0.00000
 Structure written by MMmdl.
 32 33  0  0  0  0  0  0  0  0  1 V2000
  153.5009  139.8198  158.4110 O   0  0  0  0  0  0  0  0  0  0  0  0
  152.5410  140.5529  158.6464 C   0  0  0  0  0  0  0  0  0  0  0  0
  152.6216  141.5826  159.7757 C   0  0  0  0  0  0  0  0  0  0  0  0
  152.2063  142.8990  159.3202 N   0  0  0  0  0  0  0  0  0  0  0  0
  152.2221  144.0908  160.0150 C   0  0  0  0  0  0  0  0  0  0  0  0
  151.7203  145.0523  159.1854 C   0  0  0  0  0  0  0  0  0  0  0  0
  151.4236  144.3440  157.9876 C   0  0  0  0  0  0  0  0  0  0  0  0
  151.7164  143.0563  158.0707 N   0  0  0  0  0  0  0  0  0  0  0  0
  151.3963  140.5188  157.9462 N   0  0  0  0  0  0  0  0  0  0  0  0
  151.1641  139.7084  156.7567 C   0  0  0  0  0  0  0  0  0  0  0  0
  150.2784  138.4822  157.0585 C   0  0  2  0  0  0  0  0  0  0  0  0
  148.8118  138.8438  157.3781 C   0  0  0  0  0  0  0  0  0  0  0  0
  148.1141  137.5995  157.9337 C   0  0  0  0  0  0  0  0  0  0  0  0
  149.3908  136.7110  158.8988 S   0  0  0  0  0  0  0  0  0  0  0  0
  149.2430  137.0402  160.3245 O   0  0  0  0  0  0  0  0  0  0  0  0
  149.4485  135.3127  158.4465 O   0  0  0  0  0  0  0  0  0  0  0  0
  150.8214  137.6375  158.2222 C   0  0  0  0  0  0  0  0  0  0  0  0
  151.9814  141.2727  160.6025 H   0  0  0  0  0  0  0  0  0  0  0  0
  153.6407  141.6432  160.1610 H   0  0  0  0  0  0  0  0  0  0  0  0
  152.5808  144.1539  161.0318 H   0  0  0  0  0  0  0  0  0  0  0  0
  151.5854  146.1016  159.4014 H   0  0  0  0  0  0  0  0  0  0  0  0
  151.0060  144.7243  157.0672 H   0  0  0  0  0  0  0  0  0  0  0  0
  150.6558  141.1483  158.2196 H   0  0  0  0  0  0  0  0  0  0  0  0
  150.7139  140.3194  155.9726 H   0  0  0  0  0  0  0  0  0  0  0  0
  152.1340  139.3848  156.3777 H   0  0  0  0  0  0  0  0  0  0  0  0
  150.2638  137.8383  156.1779 H   0  0  0  0  0  0  0  0  0  0  0  0
  148.7924  139.6287  158.1352 H   0  0  0  0  0  0  0  0  0  0  0  0
  148.2859  139.2304  156.5042 H   0  0  0  0  0  0  0  0  0  0  0  0
  147.2552  137.8323  158.5631 H   0  0  0  0  0  0  0  0  0  0  0  0
  147.7889  136.9467  157.1232 H   0  0  0  0  0  0  0  0  0  0  0  0
  151.6040  136.9451  157.9121 H   0  0  0  0  0  0  0  0  0  0  0  0
  151.2143  138.2686  159.0196 H   0  0  0  0  0  0  0  0  0  0  0  0
  1  2  2  0  0  0  0
  2  3  1  0  0  0  0
  2  9  1  0  0  0  0
  3  4  1  0  0  0  0
  3 18  1  0  0  0  0
  3 19  1  0  0  0  0
  4  8  1  0  0  0  0
  4  5  1  0  0  0  0
  5  6  2  0  0  0  0
  5 20  1  0  0  0  0
  6  7  1  0  0  0  0
  6 21  1  0  0  0  0
  7  8  2  0  0  0  0
  7 22  1  0  0  0  0
  9 10  1  0  0  0  0
  9 23  1  0  0  0  0
 10 11  1  0  0  0  0
 10 24  1  0  0  0  0
 10 25  1  0  0  0  0
 11 17  1  0  0  0  0
 11 12  1  0  0  0  0
 11 26  1  0  0  0  0
 12 13  1  0  0  0  0
 12 27  1  0  0  0  0
 12 28  1  0  0  0  0
 13 14  1  0  0  0  0
 13 29  1  0  0  0  0
 13 30  1  0  0  0  0
 14 15  2  0  0  0  0
 14 16  2  0  0  0  0
 14 17  1  0  0  0  0
 17 31  1  0  0  0  0
 17 32  1  0  0  0  0
M  END
> <s_m_source_file>
AV-unprocessed.smi

> <i_m_source_file_index>
1511

> <i_lp_mmshare_version>
43012

> <i_f3d_flags>
0

> <s_epik_input>
bjFbY0hdW2NIXVtjSF1uMVtDSDJdQyg9TylbTkhdW0NIMl1bQ0BASF0oW0NIMl0yKVtDSDJdW0NIMl1TMig9Tyk9Tw==

> <s_epik_cmdline>
J2VwaWtfcHl0aG9uJywgJy1waCcsICc3LjAnLCAnLXRuJywgJzgnLCAnLW1hJywgJzIwMCcsICctbWV0YWxfYmluZGluZycsICctaW1hZScsICc8aW5maWxlLm1hZT4nLCAnLW9tYWUnLCAnPG91dGZpbGUubWFlPic=

> <r_lp_tautomer_probability>
1

> <r_epik_Ionization_Penalty>
1.34373e-05

> <r_epik_Ionization_Penalty_Charging>
0

> <r_epik_Ionization_Penalty_Neutral>
1.34373e-05

> <r_epik_State_Penalty>
-0

> <r_epik_Charging_Adjusted_Penalty>
0

> <i_epik_Tot_Q>
0

> <i_epik_Tot_abs_Q>
0

> <r_epik_Metal_State_Penalty>
-0

> <b_epik_Metal_Only>
0

> <s_lp_Force_Field>
OPLS_2005

> <r_lp_Energy>
3.80917

> <b_lp_Chiralities_Consistent>
1

> <s_lp_Variant>
AV-unprocessed.smi:1511-1

> <Gold.Version>
5.8.1

> <Gold.Id.Protein>
6NUR|6NUR_protein|mol2

> <Gold.PLP.Fitness>
41.7175

> <Gold.PLP.PLP>
-31.6132

> <Gold.PLP.part.hbond>
-3.1413

> <Gold.PLP.part.metal>
0.0000

> <Gold.PLP.part.buried>
-4.3644

> <Gold.PLP.part.nonpolar>
-24.4771

> <Gold.PLP.part.repulsive>
0.1451

> <Gold.PLP.ligand.clash>
0.0000

> <Gold.PLP.ligand.torsion>
0.2572

> <Gold.PLP.Chemscore.Hbond>
2.5440

> <Gold.PLP.Chemscore.CHOScore>
0.9853

> <Gold.PLP.Chemscore.Metal>
0.0000

> <Gold.Chemscore.Hbonds>
donor molecule, donor type, donor heavy atom, donor atom, acceptor molecule, acceptor atom, score
      P1  H  6896  6909       L1    16  1.00
      P1  H  6931  6943       L1    15  0.56
      P1  H  7997  8010       L1     1  1.00
      L1  C     7    22       P1  8028  1.00

> <Gold.PLP.Chemscore.Internal.Correction>
0.0309

> <Gold.Rescore>
     Score         DG    S(hbond)    S(metal)    S(lipo)     H(rot)  DE(clash)    DE(int)     intcor
     16.33     -16.56       2.58        0.00      60.76       1.82       0.00       0.23       ----

> <Gold.Chemscore.Fitness>
16.3260

> <Gold.Chemscore.DG>
-16.5597

> <Gold.Chemscore.ZeroCoef>
-5.4800

> <Gold.Chemscore.Hbond>
2.5821

> <Gold.Chemscore.Metal>
0.0000

> <Gold.Chemscore.Lipo>
60.7618

> <Gold.Chemscore.Internal_Hbond>
0.0000

> <Gold.Chemscore.DEClash>
0.0029

> <Gold.Chemscore.DEInternal>
0.2308

> <Gold.Chemscore.Rot>
1.8178

> <Gold.Chemscore.Internal.Correction>
   9.000000E+99

> <Gold.Chemscore.Hbonds>
donor molecule, donor type, donor heavy atom, donor atom, acceptor molecule, acceptor atom, score
      P1  H  6896  6909       L1    16  0.83
      P1  H  6931  6943       L1    15  0.55
      P1  H  7997  8010       L1     1  0.99

> <Gold.Chemscore.Hbond.Weighted>
-8.6242

> <Gold.Chemscore.Metal.Weighted>
-0.0000

> <Gold.Chemscore.Lipo.Weighted>
-7.1091

> <Gold.Chemscore.Internal_Hbond.Weighted>
0.0000

> <Gold.Chemscore.DEClash.Weighted>
0.0029

> <Gold.Chemscore.DEInternal.Weighted>
0.2308

> <Gold.Chemscore.Rot.Weighted>
4.6537

> <Gold.Chemscore.Internal.Correction.Weighted>
   9.000000E+99

> <Gold.Protein.RotatedTorsions>
[ 6907 6896 6895 6894 ] final   30.24 input  -60.11 | X-H torsion
[ 7974 7965 7964 7962 ] final -158.88 input  175.53 | X-H torsion
[ 8008 7997 7996 7995 ] final   23.93 input   59.86 | X-H torsion
[ 10167 10162 10161 10158 ] final   13.79 input  -65.29 | X-H torsion
[ 10718 10713 10712 10709 ] final  -99.70 input   66.30 | X-H torsion
[ 10763 10752 10751 10750 ] final -136.81 input  -60.55 | X-H torsion
[ 11005 11000 10999 10996 ] final  -73.68 input  -57.11 | X-H torsion

> <Gold.Protein.ActiveResidues>
 VAL166  LYS551  ARG553  GLY616  TRP617  ASP618  TYR619  PRO620  LYS621  CYS622 
 ASP623  PHE694  ASN695  SER759  ASP760  ASP761  ALA762  ILE779  LEU786  VAL792 
 PHE793  MET794  SER795  GLU796  ALA797  LYS798  CYS799  TRP800  GLU811  SER814 

> <Gold.Protein.RotatedAtoms>
  152.0431  134.9699  160.0573 H   0  0  0  0  0  0  0  0  0  0  0  0  # atno 6907 bound_to 6896
  152.1130  133.4306  159.4648 H   0  0  0  0  0  0  0  0  0  0  0  0  # atno 6908 bound_to 6896
  150.6844  134.2545  159.4567 H   0  0  0  0  0  0  0  0  0  0  0  0  # atno 6909 bound_to 6896
  144.7488  140.3765  143.6064 H   0  0  0  0  0  0  0  0  0  0  0  0  # atno 7974 bound_to 7965
  154.9885  140.3111  155.4916 H   0  0  0  0  0  0  0  0  0  0  0  0  # atno 8008 bound_to 7997
  156.2943  140.2253  156.4928 H   0  0  0  0  0  0  0  0  0  0  0  0  # atno 8009 bound_to 7997
  154.7725  140.0451  157.1051 H   0  0  0  0  0  0  0  0  0  0  0  0  # atno 8010 bound_to 7997
  140.5979  143.8664  150.6936 H   0  0  0  0  0  0  0  0  0  0  0  0  # atno 10167 bound_to 10162
  156.0141  130.5294  150.6709 H   0  0  0  0  0  0  0  0  0  0  0  0  # atno 10718 bound_to 10713
  154.8676  135.3661  154.5121 H   0  0  0  0  0  0  0  0  0  0  0  0  # atno 10763 bound_to 10752
  153.5756  135.7019  153.5490 H   0  0  0  0  0  0  0  0  0  0  0  0  # atno 10764 bound_to 10752
  153.3503  135.4074  155.1604 H   0  0  0  0  0  0  0  0  0  0  0  0  # atno 10765 bound_to 10752
  141.1626  133.6886  156.7248 H   0  0  0  0  0  0  0  0  0  0  0  0  # atno 11005 bound_to 11000
  145.7023  139.1664  143.2586 LP  0  0  0  0  0  0  0  0  0  0  0  0  # atno 17320 bound_to 7965
  146.1407  140.7062  142.9368 LP  0  0  0  0  0  0  0  0  0  0  0  0  # atno 17321 bound_to 7965
  140.2203  143.3814  152.1648 LP  0  0  0  0  0  0  0  0  0  0  0  0  # atno 17342 bound_to 10162
  139.5271  144.7115  151.5191 LP  0  0  0  0  0  0  0  0  0  0  0  0  # atno 17343 bound_to 10162
  157.4432  131.0863  151.0922 LP  0  0  0  0  0  0  0  0  0  0  0  0  # atno 17370 bound_to 10713
  157.1460  130.6163  149.5569 LP  0  0  0  0  0  0  0  0  0  0  0  0  # atno 17371 bound_to 10713
  140.2789  134.8333  157.3915 LP  0  0  0  0  0  0  0  0  0  0  0  0  # atno 17394 bound_to 11000
  140.1452  134.4921  155.8002 LP  0  0  0  0  0  0  0  0  0  0  0  0  # atno 17395 bound_to 11000

$$$$
