AV-unprocessed.smi:2627|AV-procd|sdf|10239|dock9
  -GOLD-   2272014243D 1   1.00000     0.00000
 Structure written by MMmdl.
 39 41  0  0  0  0  0  0  0  0  1 V2000
  153.7882  138.9530  160.3784 C   0  0  0  0  0  0  0  0  0  0  0  0
  152.8253  139.3265  159.2437 C   0  0  2  0  0  0  0  0  0  0  0  0
  153.4284  138.9641  158.0176 O   0  0  0  0  0  0  0  0  0  0  0  0
  152.4462  140.7821  159.2877 C   0  0  0  0  0  0  0  0  0  0  0  0
  152.9730  141.6283  160.1761 N   0  0  0  0  0  0  0  0  0  0  0  0
  152.3520  142.8227  159.8693 C   0  0  0  0  0  0  0  0  0  0  0  0
  152.4916  144.1051  160.4462 C   0  0  0  0  0  0  0  0  0  0  0  0
  151.7425  145.1942  159.9547 C   0  0  0  0  0  0  0  0  0  0  0  0
  150.8448  145.0167  158.8821 C   0  0  0  0  0  0  0  0  0  0  0  0
  150.6895  143.7465  158.2942 C   0  0  0  0  0  0  0  0  0  0  0  0
  151.4396  142.6628  158.7890 C   0  0  0  0  0  0  0  0  0  0  0  0
  151.5227  141.3168  158.4475 N   0  0  0  0  0  0  0  0  0  0  0  0
  150.7671  140.6556  157.3952 C   0  0  0  0  0  0  0  0  0  0  0  0
  151.0230  141.3020  156.0286 C   0  0  0  0  0  0  0  0  0  0  0  0
  150.7147  140.3553  155.0158 O   0  0  0  0  0  0  0  0  0  0  0  0
  149.4338  140.3403  154.5069 C   0  0  0  0  0  0  0  0  0  0  0  0
  148.7355  141.5657  154.4962 C   0  0  0  0  0  0  0  0  0  0  0  0
  147.4219  141.6430  153.9950 C   0  0  0  0  0  0  0  0  0  0  0  0
  146.7908  140.4890  153.4955 C   0  0  0  0  0  0  0  0  0  0  0  0
  147.4759  139.2597  153.4985 C   0  0  0  0  0  0  0  0  0  0  0  0
  148.7897  139.1824  154.0008 C   0  0  0  0  0  0  0  0  0  0  0  0
  153.3466  139.1656  161.3523 H   0  0  0  0  0  0  0  0  0  0  0  0
  154.7210  139.5138  160.3073 H   0  0  0  0  0  0  0  0  0  0  0  0
  154.0346  137.8911  160.3531 H   0  0  0  0  0  0  0  0  0  0  0  0
  151.9263  138.7168  159.3252 H   0  0  0  0  0  0  0  0  0  0  0  0
  153.1994  138.0677  157.8257 H   0  0  0  0  0  0  0  0  0  0  0  0
  153.1778  144.2513  161.2672 H   0  0  0  0  0  0  0  0  0  0  0  0
  151.8581  146.1706  160.4022 H   0  0  0  0  0  0  0  0  0  0  0  0
  150.2758  145.8565  158.5105 H   0  0  0  0  0  0  0  0  0  0  0  0
  150.0032  143.6078  157.4720 H   0  0  0  0  0  0  0  0  0  0  0  0
  151.0203  139.5957  157.3775 H   0  0  0  0  0  0  0  0  0  0  0  0
  149.7061  140.7085  157.6406 H   0  0  0  0  0  0  0  0  0  0  0  0
  150.3984  142.1902  155.9209 H   0  0  0  0  0  0  0  0  0  0  0  0
  152.0673  141.6081  155.9501 H   0  0  0  0  0  0  0  0  0  0  0  0
  149.2118  142.4571  154.8780 H   0  0  0  0  0  0  0  0  0  0  0  0
  146.8992  142.5881  153.9943 H   0  0  0  0  0  0  0  0  0  0  0  0
  145.7834  140.5465  153.1106 H   0  0  0  0  0  0  0  0  0  0  0  0
  146.9929  138.3731  153.1146 H   0  0  0  0  0  0  0  0  0  0  0  0
  149.2820  138.2219  153.9855 H   0  0  0  0  0  0  0  0  0  0  0  0
  1  2  1  0  0  0  0
  1 22  1  0  0  0  0
  1 23  1  0  0  0  0
  1 24  1  0  0  0  0
  2  3  1  0  0  0  0
  2  4  1  0  0  0  0
  2 25  1  0  0  0  0
  3 26  1  0  0  0  0
  4 12  1  0  0  0  0
  4  5  2  0  0  0  0
  5  6  1  0  0  0  0
  6 11  2  0  0  0  0
  6  7  1  0  0  0  0
  7  8  2  0  0  0  0
  7 27  1  0  0  0  0
  8  9  1  0  0  0  0
  8 28  1  0  0  0  0
  9 10  2  0  0  0  0
  9 29  1  0  0  0  0
 10 11  1  0  0  0  0
 10 30  1  0  0  0  0
 11 12  1  0  0  0  0
 12 13  1  0  0  0  0
 13 14  1  0  0  0  0
 13 31  1  0  0  0  0
 13 32  1  0  0  0  0
 14 15  1  0  0  0  0
 14 33  1  0  0  0  0
 14 34  1  0  0  0  0
 15 16  1  0  0  0  0
 16 21  1  0  0  0  0
 16 17  2  0  0  0  0
 17 18  1  0  0  0  0
 17 35  1  0  0  0  0
 18 19  2  0  0  0  0
 18 36  1  0  0  0  0
 19 20  1  0  0  0  0
 19 37  1  0  0  0  0
 20 21  2  0  0  0  0
 20 38  1  0  0  0  0
 21 39  1  0  0  0  0
M  END
> <s_m_source_file>
AV-unprocessed.smi

> <i_m_source_file_index>
2627

> <i_lp_mmshare_version>
43012

> <i_f3d_flags>
0

> <s_epik_input>
W2NIXTFbY0hdW2NIXVtjSF1jKGMxMiluKGMobjIpW0NASF0oW0NIM10pW09IXSlbQ0gyXVtDSDJdT2MzW2NIXVtjSF1bY0hdW2NIXVtjSF0z

> <s_epik_cmdline>
J2VwaWtfcHl0aG9uJywgJy1waCcsICc3LjAnLCAnLXRuJywgJzgnLCAnLW1hJywgJzIwMCcsICctbWV0YWxfYmluZGluZycsICctaW1hZScsICc8aW5maWxlLm1hZT4nLCAnLW9tYWUnLCAnPG91dGZpbGUubWFlPic=

> <r_lp_tautomer_probability>
1

> <r_epik_Ionization_Penalty>
0.0472514

> <r_epik_Ionization_Penalty_Charging>
0

> <r_epik_Ionization_Penalty_Neutral>
0.0472514

> <r_epik_State_Penalty>
0.040225

> <r_epik_Charging_Adjusted_Penalty>
0.040225

> <i_epik_Tot_Q>
0

> <i_epik_Tot_abs_Q>
0

> <r_epik_Metal_State_Penalty>
4.16204e-05

> <b_epik_Metal_Only>
0

> <s_lp_Force_Field>
OPLS_2005

> <r_lp_Energy>
15.0565

> <b_lp_Chiralities_Consistent>
1

> <s_lp_Variant>
AV-unprocessed.smi:2627-1

> <Gold.Version>
5.8.1

> <Gold.Id.Protein>
6NUR|6NUR_protein|mol2

> <Gold.PLP.Fitness>
52.5922

> <Gold.PLP.PLP>
-47.9767

> <Gold.PLP.part.hbond>
-2.0000

> <Gold.PLP.part.metal>
0.0000

> <Gold.PLP.part.buried>
-4.7920

> <Gold.PLP.part.nonpolar>
-40.6056

> <Gold.PLP.part.repulsive>
0.0629

> <Gold.PLP.ligand.clash>
0.0000

> <Gold.PLP.ligand.torsion>
0.7225

> <Gold.PLP.Chemscore.Hbond>
2.0000

> <Gold.PLP.Chemscore.CHOScore>
0.0000

> <Gold.PLP.Chemscore.Metal>
0.0000

> <Gold.Chemscore.Hbonds>
donor molecule, donor type, donor heavy atom, donor atom, acceptor molecule, acceptor atom, score
      P1  H  7989  7998       L1    15  0.95
      P1  H  7997  8008       L1     3  1.00

> <Gold.PLP.Chemscore.Internal.Correction>
0.0606

> <Gold.Rescore>
     Score         DG    S(hbond)    S(metal)    S(lipo)     H(rot)  DE(clash)    DE(int)     intcor
     19.20     -19.90       1.60        0.00     122.45       2.06       0.02       0.68       ----

> <Gold.Chemscore.Fitness>
19.2029

> <Gold.Chemscore.DG>
-19.8992

> <Gold.Chemscore.ZeroCoef>
-5.4800

> <Gold.Chemscore.Hbond>
1.6047

> <Gold.Chemscore.Metal>
0.0000

> <Gold.Chemscore.Lipo>
122.4544

> <Gold.Chemscore.Internal_Hbond>
0.0000

> <Gold.Chemscore.DEClash>
0.0174

> <Gold.Chemscore.DEInternal>
0.6789

> <Gold.Chemscore.Rot>
2.0577

> <Gold.Chemscore.Internal.Correction>
   9.000000E+99

> <Gold.Chemscore.Hbonds>
donor molecule, donor type, donor heavy atom, donor atom, acceptor molecule, acceptor atom, score
      P1  H  7989  7998       L1    15  0.13
      P1  H  7997  8008       L1     3  0.99

> <Gold.Chemscore.Hbond.Weighted>
-5.3598

> <Gold.Chemscore.Metal.Weighted>
-0.0000

> <Gold.Chemscore.Lipo.Weighted>
-14.3272

> <Gold.Chemscore.Internal_Hbond.Weighted>
0.0000

> <Gold.Chemscore.DEClash.Weighted>
0.0174

> <Gold.Chemscore.DEInternal.Weighted>
0.6789

> <Gold.Chemscore.Rot.Weighted>
5.2678

> <Gold.Chemscore.Internal.Correction.Weighted>
   9.000000E+99

> <Gold.Protein.RotatedTorsions>
[ 6907 6896 6895 6894 ] final -162.65 input  -60.11 | X-H torsion
[ 7974 7965 7964 7962 ] final   15.31 input  175.53 | X-H torsion
[ 8008 7997 7996 7995 ] final  -75.29 input   59.86 | X-H torsion
[ 10167 10162 10161 10158 ] final   53.96 input  -65.29 | X-H torsion
[ 10718 10713 10712 10709 ] final  154.59 input   66.30 | X-H torsion
[ 10763 10752 10751 10750 ] final  173.30 input  -60.55 | X-H torsion
[ 11005 11000 10999 10996 ] final  -13.65 input  -57.11 | X-H torsion

> <Gold.Protein.ActiveResidues>
 VAL166  LYS551  ARG553  GLY616  TRP617  ASP618  TYR619  PRO620  LYS621  CYS622 
 ASP623  PHE694  ASN695  SER759  ASP760  ASP761  ALA762  ILE779  LEU786  VAL792 
 PHE793  MET794  SER795  GLU796  ALA797  LYS798  CYS799  TRP800  GLU811  SER814 

> <Gold.Protein.RotatedAtoms>
  151.3837  133.3812  159.2712 H   0  0  0  0  0  0  0  0  0  0  0  0  # atno 6907 bound_to 6896
  150.9558  134.8953  159.7710 H   0  0  0  0  0  0  0  0  0  0  0  0  # atno 6908 bound_to 6896
  152.5130  134.3794  159.9398 H   0  0  0  0  0  0  0  0  0  0  0  0  # atno 6909 bound_to 6896
  146.2282  139.8913  142.8554 H   0  0  0  0  0  0  0  0  0  0  0  0  # atno 7974 bound_to 7965
  154.5404  140.0746  156.8500 H   0  0  0  0  0  0  0  0  0  0  0  0  # atno 8008 bound_to 7997
  155.3193  140.3395  155.4223 H   0  0  0  0  0  0  0  0  0  0  0  0  # atno 8009 bound_to 7997
  156.1869  140.1672  156.8155 H   0  0  0  0  0  0  0  0  0  0  0  0  # atno 8010 bound_to 7997
  140.2352  144.3644  150.6400 H   0  0  0  0  0  0  0  0  0  0  0  0  # atno 10167 bound_to 10162
  157.2297  131.0736  151.1861 H   0  0  0  0  0  0  0  0  0  0  0  0  # atno 10718 bound_to 10713
  154.4382  135.2761  155.1866 H   0  0  0  0  0  0  0  0  0  0  0  0  # atno 10763 bound_to 10752
  154.3744  135.6101  153.5760 H   0  0  0  0  0  0  0  0  0  0  0  0  # atno 10764 bound_to 10752
  152.9839  135.5865  154.4705 H   0  0  0  0  0  0  0  0  0  0  0  0  # atno 10765 bound_to 10752
  140.7783  133.8383  155.9269 H   0  0  0  0  0  0  0  0  0  0  0  0  # atno 11005 bound_to 11000
  145.2414  141.0011  143.3933 LP  0  0  0  0  0  0  0  0  0  0  0  0  # atno 17320 bound_to 7965
  144.9448  139.4148  143.6431 LP  0  0  0  0  0  0  0  0  0  0  0  0  # atno 17321 bound_to 7965
  140.6155  143.2172  151.6800 LP  0  0  0  0  0  0  0  0  0  0  0  0  # atno 17342 bound_to 10162
  139.5096  144.3571  152.0597 LP  0  0  0  0  0  0  0  0  0  0  0  0  # atno 17343 bound_to 10162
  157.3491  130.7073  149.6429 LP  0  0  0  0  0  0  0  0  0  0  0  0  # atno 17370 bound_to 10713
  155.9676  130.4257  150.4668 LP  0  0  0  0  0  0  0  0  0  0  0  0  # atno 17371 bound_to 10713
  140.9507  134.1782  157.4729 LP  0  0  0  0  0  0  0  0  0  0  0  0  # atno 17394 bound_to 11000
  139.8746  134.9908  156.5520 LP  0  0  0  0  0  0  0  0  0  0  0  0  # atno 17395 bound_to 11000

$$$$
