AV-unprocessed.smi:1791|AV-procd|sdf|7219|dock6
  -GOLD-   22720 8463D 1   1.00000     0.00000
 Structure written by MMmdl.
 38 39  0  0  0  0  0  0  0  0  1 V2000
  150.8294  141.7871  158.0304 C   0  0  0  0  0  0  0  0  0  0  0  0
  151.3153  141.2572  156.8017 O   0  0  0  0  0  0  0  0  0  0  0  0
  150.5141  140.3736  156.1075 C   0  0  0  0  0  0  0  0  0  0  0  0
  149.4149  139.7936  156.7715 C   0  0  0  0  0  0  0  0  0  0  0  0
  148.5907  138.8933  156.0691 C   0  0  0  0  0  0  0  0  0  0  0  0
  148.8897  138.6059  154.7156 C   0  0  0  0  0  0  0  0  0  0  0  0
  148.1499  137.7084  153.8982 N   0  0  0  0  0  0  0  0  0  0  0  0
  146.8459  137.3882  153.9617 C   0  0  0  0  0  0  0  0  0  0  0  0
  146.0421  137.8335  154.7801 O   0  0  0  0  0  0  0  0  0  0  0  0
  146.5188  136.5198  152.9937 N   0  0  0  0  0  0  0  0  0  0  0  0
  145.1902  135.9581  152.7585 C   0  0  1  0  0  0  0  0  0  0  0  0
  144.1869  137.1120  152.6071 C   0  0  0  0  0  0  0  0  0  0  0  0
  145.2307  135.0490  151.5145 C   0  0  2  0  0  0  0  0  0  0  0  0
  143.9524  134.2452  151.2672 C   0  0  0  0  0  0  0  0  0  0  0  0
  144.4328  133.0228  150.4995 C   0  0  0  0  0  0  0  0  0  0  0  0
  145.9542  133.0529  150.6622 C   0  0  0  0  0  0  0  0  0  0  0  0
  146.1960  134.0203  151.6730 O   0  0  0  0  0  0  0  0  0  0  0  0
  150.0206  139.2286  154.1484 C   0  0  0  0  0  0  0  0  0  0  0  0
  150.8140  140.0927  154.8155 N   0  0  0  0  0  0  0  0  0  0  0  0
  151.5733  142.4628  158.4519 H   0  0  0  0  0  0  0  0  0  0  0  0
  150.6488  140.9975  158.7612 H   0  0  0  0  0  0  0  0  0  0  0  0
  149.9108  142.3570  157.8844 H   0  0  0  0  0  0  0  0  0  0  0  0
  149.2086  140.0330  157.8044 H   0  0  0  0  0  0  0  0  0  0  0  0
  147.7605  138.4389  156.5863 H   0  0  0  0  0  0  0  0  0  0  0  0
  148.6650  137.3043  153.1299 H   0  0  0  0  0  0  0  0  0  0  0  0
  147.2510  136.2137  152.3701 H   0  0  0  0  0  0  0  0  0  0  0  0
  144.8773  135.3569  153.6138 H   0  0  0  0  0  0  0  0  0  0  0  0
  143.1701  136.7404  152.4779 H   0  0  0  0  0  0  0  0  0  0  0  0
  144.4250  137.7363  151.7453 H   0  0  0  0  0  0  0  0  0  0  0  0
  144.1884  137.7501  153.4913 H   0  0  0  0  0  0  0  0  0  0  0  0
  145.4806  135.6301  150.6242 H   0  0  0  0  0  0  0  0  0  0  0  0
  143.5153  133.9291  152.2154 H   0  0  0  0  0  0  0  0  0  0  0  0
  143.1979  134.8148  150.7236 H   0  0  0  0  0  0  0  0  0  0  0  0
  144.0024  132.1117  150.9167 H   0  0  0  0  0  0  0  0  0  0  0  0
  144.1557  133.0731  149.4462 H   0  0  0  0  0  0  0  0  0  0  0  0
  146.3667  132.0823  150.9386 H   0  0  0  0  0  0  0  0  0  0  0  0
  146.4323  133.3751  149.7361 H   0  0  0  0  0  0  0  0  0  0  0  0
  150.2971  139.0325  153.1227 H   0  0  0  0  0  0  0  0  0  0  0  0
  1  2  1  0  0  0  0
  1 20  1  0  0  0  0
  1 21  1  0  0  0  0
  1 22  1  0  0  0  0
  2  3  1  0  0  0  0
  3 19  1  0  0  0  0
  3  4  2  0  0  0  0
  4  5  1  0  0  0  0
  4 23  1  0  0  0  0
  5  6  2  0  0  0  0
  5 24  1  0  0  0  0
  6  7  1  0  0  0  0
  6 18  1  0  0  0  0
  7  8  1  0  0  0  0
  7 25  1  0  0  0  0
  8  9  2  0  0  0  0
  8 10  1  0  0  0  0
 10 11  1  0  0  0  0
 10 26  1  0  0  0  0
 11 12  1  0  0  0  0
 11 13  1  0  0  0  0
 11 27  1  0  0  0  0
 12 28  1  0  0  0  0
 12 29  1  0  0  0  0
 12 30  1  0  0  0  0
 13 17  1  0  0  0  0
 13 14  1  0  0  0  0
 13 31  1  0  0  0  0
 14 15  1  0  0  0  0
 14 32  1  0  0  0  0
 14 33  1  0  0  0  0
 15 16  1  0  0  0  0
 15 34  1  0  0  0  0
 15 35  1  0  0  0  0
 16 17  1  0  0  0  0
 16 36  1  0  0  0  0
 16 37  1  0  0  0  0
 18 19  2  0  0  0  0
 18 38  1  0  0  0  0
M  END
> <s_m_source_file>
AV-unprocessed.smi

> <i_m_source_file_index>
1791

> <i_lp_mmshare_version>
43012

> <i_f3d_flags>
0

> <s_epik_input>
W0NIM11PYzFbY0hdW2NIXWMoW2NIXW4xKVtOSF1DKD1PKVtOSF1bQ0BIXShbQ0gzXSlbQ0BASF0yW0NIMl1bQ0gyXVtDSDJdTzI=

> <s_epik_cmdline>
J2VwaWtfcHl0aG9uJywgJy1waCcsICc3LjAnLCAnLXRuJywgJzgnLCAnLW1hJywgJzIwMCcsICctbWV0YWxfYmluZGluZycsICctaW1hZScsICc8aW5maWxlLm1hZT4nLCAnLW9tYWUnLCAnPG91dGZpbGUubWFlPic=

> <r_lp_tautomer_probability>
1

> <r_epik_Ionization_Penalty>
9.18737e-05

> <r_epik_Ionization_Penalty_Charging>
0

> <r_epik_Ionization_Penalty_Neutral>
9.18737e-05

> <r_epik_State_Penalty>
-0

> <r_epik_Charging_Adjusted_Penalty>
0

> <i_epik_Tot_Q>
0

> <i_epik_Tot_abs_Q>
0

> <r_epik_Metal_State_Penalty>
-0

> <b_epik_Metal_Only>
0

> <s_lp_Force_Field>
OPLS_2005

> <r_lp_Energy>
20.9022

> <b_lp_Chiralities_Consistent>
1

> <s_lp_Variant>
AV-unprocessed.smi:1791-2

> <Gold.Version>
5.8.1

> <Gold.Id.Protein>
6NUR|6NUR_protein|mol2

> <Gold.PLP.Fitness>
36.1025

> <Gold.PLP.PLP>
-24.8831

> <Gold.PLP.part.hbond>
-3.0000

> <Gold.PLP.part.metal>
0.0000

> <Gold.PLP.part.buried>
-3.1191

> <Gold.PLP.part.nonpolar>
-18.3651

> <Gold.PLP.part.repulsive>
0.3381

> <Gold.PLP.ligand.clash>
0.0186

> <Gold.PLP.ligand.torsion>
0.4012

> <Gold.PLP.Chemscore.Hbond>
3.0000

> <Gold.PLP.Chemscore.CHOScore>
1.0000

> <Gold.PLP.Chemscore.Metal>
0.0000

> <Gold.Chemscore.Hbonds>
donor molecule, donor type, donor heavy atom, donor atom, acceptor molecule, acceptor atom, score
      L1  H     7    25       P1  7948  1.00
      L1  H    10    26       P1  7948  1.00
      P1  H  7989  7998       L1    19  1.00
      L1  C    18    38       P1  7957  1.00

> <Gold.PLP.Chemscore.Internal.Correction>
0.0404

> <Gold.Rescore>
     Score         DG    S(hbond)    S(metal)    S(lipo)     H(rot)  DE(clash)    DE(int)     intcor
     14.38     -17.39       2.77        0.00      55.01       1.47       0.43       2.58       ----

> <Gold.Chemscore.Fitness>
14.3797

> <Gold.Chemscore.DG>
-17.3944

> <Gold.Chemscore.ZeroCoef>
-5.4800

> <Gold.Chemscore.Hbond>
2.7665

> <Gold.Chemscore.Metal>
0.0000

> <Gold.Chemscore.Lipo>
55.0058

> <Gold.Chemscore.Internal_Hbond>
0.0000

> <Gold.Chemscore.DEClash>
0.4318

> <Gold.Chemscore.DEInternal>
2.5829

> <Gold.Chemscore.Rot>
1.4693

> <Gold.Chemscore.Internal.Correction>
   9.000000E+99

> <Gold.Chemscore.Hbonds>
donor molecule, donor type, donor heavy atom, donor atom, acceptor molecule, acceptor atom, score
      L1  H     7    25       P1  7948  0.99
      L1  H    10    26       P1  7948  0.96
      P1  H  7989  7998       L1    19  0.30

> <Gold.Chemscore.Hbond.Weighted>
-9.2400

> <Gold.Chemscore.Metal.Weighted>
-0.0000

> <Gold.Chemscore.Lipo.Weighted>
-6.4357

> <Gold.Chemscore.Internal_Hbond.Weighted>
0.0000

> <Gold.Chemscore.DEClash.Weighted>
0.4318

> <Gold.Chemscore.DEInternal.Weighted>
2.5829

> <Gold.Chemscore.Rot.Weighted>
3.7613

> <Gold.Chemscore.Internal.Correction.Weighted>
   9.000000E+99

> <Gold.Protein.RotatedTorsions>
[ 6907 6896 6895 6894 ] final   79.46 input  -60.11 | X-H torsion
[ 7974 7965 7964 7962 ] final   29.03 input  175.53 | X-H torsion
[ 8008 7997 7996 7995 ] final  138.24 input   59.86 | X-H torsion
[ 10167 10162 10161 10158 ] final  170.57 input  -65.29 | X-H torsion
[ 10718 10713 10712 10709 ] final  125.47 input   66.30 | X-H torsion
[ 10763 10752 10751 10750 ] final   53.64 input  -60.55 | X-H torsion
[ 11005 11000 10999 10996 ] final  -76.85 input  -57.11 | X-H torsion

> <Gold.Protein.ActiveResidues>
 VAL166  LYS551  ARG553  GLY616  TRP617  ASP618  TYR619  PRO620  LYS621  CYS622 
 ASP623  PHE694  ASN695  SER759  ASP760  ASP761  ALA762  ILE779  LEU786  VAL792 
 PHE793  MET794  SER795  GLU796  ALA797  LYS798  CYS799  TRP800  GLU811  SER814 

> <Gold.Protein.RotatedAtoms>
  152.5199  134.3507  159.9249 H   0  0  0  0  0  0  0  0  0  0  0  0  # atno 6907 bound_to 6896
  151.3458  133.3938  159.2683 H   0  0  0  0  0  0  0  0  0  0  0  0  # atno 6908 bound_to 6896
  150.9766  134.9148  159.7878 H   0  0  0  0  0  0  0  0  0  0  0  0  # atno 6909 bound_to 6896
  146.1695  139.6976  142.8977 H   0  0  0  0  0  0  0  0  0  0  0  0  # atno 7974 bound_to 7965
  156.2998  140.2399  156.4041 H   0  0  0  0  0  0  0  0  0  0  0  0  # atno 8008 bound_to 7997
  154.8501  140.0424  157.1618 H   0  0  0  0  0  0  0  0  0  0  0  0  # atno 8009 bound_to 7997
  154.9008  140.2976  155.5322 H   0  0  0  0  0  0  0  0  0  0  0  0  # atno 8010 bound_to 7997
  139.5022  144.3582  151.9852 H   0  0  0  0  0  0  0  0  0  0  0  0  # atno 10167 bound_to 10162
  157.5500  131.1094  150.8718 H   0  0  0  0  0  0  0  0  0  0  0  0  # atno 10718 bound_to 10713
  152.9797  135.5772  154.4774 H   0  0  0  0  0  0  0  0  0  0  0  0  # atno 10763 bound_to 10752
  154.4328  135.2774  155.1903 H   0  0  0  0  0  0  0  0  0  0  0  0  # atno 10764 bound_to 10752
  154.3604  135.6190  153.5741 H   0  0  0  0  0  0  0  0  0  0  0  0  # atno 10765 bound_to 10752
  141.1656  133.6999  156.7731 H   0  0  0  0  0  0  0  0  0  0  0  0  # atno 11005 bound_to 11000
  145.4378  141.0420  143.2874 LP  0  0  0  0  0  0  0  0  0  0  0  0  # atno 17320 bound_to 7965
  144.8142  139.5907  143.7016 LP  0  0  0  0  0  0  0  0  0  0  0  0  # atno 17321 bound_to 7965
  140.3018  144.3638  150.6058 LP  0  0  0  0  0  0  0  0  0  0  0  0  # atno 17342 bound_to 10162
  140.5867  143.2169  151.7328 LP  0  0  0  0  0  0  0  0  0  0  0  0  # atno 17343 bound_to 10162
  156.9245  130.5327  149.5279 LP  0  0  0  0  0  0  0  0  0  0  0  0  # atno 17370 bound_to 10713
  156.0568  130.5628  150.9109 LP  0  0  0  0  0  0  0  0  0  0  0  0  # atno 17371 bound_to 10713
  140.2449  134.8585  157.3610 LP  0  0  0  0  0  0  0  0  0  0  0  0  # atno 17394 bound_to 11000
  140.1759  134.4550  155.7802 LP  0  0  0  0  0  0  0  0  0  0  0  0  # atno 17395 bound_to 11000

$$$$
