AV-unprocessed.smi:103|AV-procd|sdf|978|dock1
  -GOLD-   2262017533D 1   1.00000     0.00000
 Structure written by MMmdl.
 53 55  0  0  0  0  0  0  0  0  1 V2000
  149.6315  132.2278  155.3922 C   0  0  0  0  0  0  0  0  0  0  0  0
  149.3867  132.8962  156.7390 C   0  0  0  0  0  0  0  0  0  0  0  0
  150.1524  132.7251  157.6878 O   0  0  0  0  0  0  0  0  0  0  0  0
  148.2806  133.6608  156.7423 O   0  0  0  0  0  0  0  0  0  0  0  0
  147.8708  134.3343  157.9253 C   0  0  0  0  0  0  0  0  0  0  0  0
  149.0369  135.1309  158.5481 C   0  0  1  0  0  0  0  0  0  0  0  0
  149.6142  135.9419  157.5215 O   0  0  0  0  0  0  0  0  0  0  0  0
  149.4794  137.2971  157.8234 C   0  0  1  0  0  0  0  0  0  0  0  0
  149.1771  138.0667  156.5715 N   0  0  0  0  0  0  0  0  0  0  0  0
  149.8735  139.1187  156.0116 C   0  0  0  0  0  0  0  0  0  0  0  0
  151.4183  139.8011  156.6000 S   0  0  0  0  0  0  0  0  0  0  0  0
  150.8592  141.3670  157.3843 C   0  0  0  0  0  0  0  0  0  0  0  0
  151.9243  138.8878  157.6366 O   0  0  0  0  0  0  0  0  0  0  0  0
  152.2355  140.1189  155.4192 O   0  0  0  0  0  0  0  0  0  0  0  0
  149.4174  139.5918  154.8842 N   0  0  0  0  0  0  0  0  0  0  0  0
  148.2627  138.8510  154.6782 C   0  0  0  0  0  0  0  0  0  0  0  0
  147.2582  138.8533  153.6781 C   0  0  0  0  0  0  0  0  0  0  0  0
  147.2704  139.6905  152.6320 N   0  0  0  0  0  0  0  0  0  0  0  0
  146.2369  137.9717  153.7836 N   0  0  0  0  0  0  0  0  0  0  0  0
  146.2012  137.1272  154.8187 C   0  0  0  0  0  0  0  0  0  0  0  0
  147.0667  137.0078  155.8279 N   0  0  0  0  0  0  0  0  0  0  0  0
  148.0983  137.8964  155.7230 C   0  0  0  0  0  0  0  0  0  0  0  0
  148.3765  137.4140  158.8813 C   0  0  1  0  0  0  0  0  0  0  0  0
  147.0777  137.4468  158.2901 O   0  0  0  0  0  0  0  0  0  0  0  0
  145.9774  137.5847  159.0509 C   0  0  0  0  0  0  0  0  0  0  0  0
  144.6952  137.4662  158.2385 C   0  0  0  0  0  0  0  0  0  0  0  0
  145.9538  137.7999  160.2623 O   0  0  0  0  0  0  0  0  0  0  0  0
  148.6105  136.1211  159.6441 C   0  0  1  0  0  0  0  0  0  0  0  0
  147.4795  135.7015  160.4012 O   0  0  0  0  0  0  0  0  0  0  0  0
  147.4166  135.9534  161.7204 C   0  0  0  0  0  0  0  0  0  0  0  0
  146.6112  134.9040  162.4744 C   0  0  0  0  0  0  0  0  0  0  0  0
  147.9276  136.9116  162.3003 O   0  0  0  0  0  0  0  0  0  0  0  0
  148.7151  132.1960  154.8022 H   0  0  0  0  0  0  0  0  0  0  0  0
  149.9840  131.2060  155.5353 H   0  0  0  0  0  0  0  0  0  0  0  0
  150.3864  132.7779  154.8304 H   0  0  0  0  0  0  0  0  0  0  0  0
  147.0463  135.0004  157.6747 H   0  0  0  0  0  0  0  0  0  0  0  0
  147.4726  133.6116  158.6389 H   0  0  0  0  0  0  0  0  0  0  0  0
  149.7863  134.4472  158.9475 H   0  0  0  0  0  0  0  0  0  0  0  0
  150.4443  137.6661  158.1698 H   0  0  0  0  0  0  0  0  0  0  0  0
  151.7199  141.8948  157.7940 H   0  0  0  0  0  0  0  0  0  0  0  0
  150.1580  141.1394  158.1871 H   0  0  0  0  0  0  0  0  0  0  0  0
  150.3679  141.9936  156.6404 H   0  0  0  0  0  0  0  0  0  0  0  0
  148.0208  140.3589  152.5321 H   0  0  0  0  0  0  0  0  0  0  0  0
  146.5272  139.6557  151.9495 H   0  0  0  0  0  0  0  0  0  0  0  0
  145.3609  136.4489  154.8412 H   0  0  0  0  0  0  0  0  0  0  0  0
  148.5538  138.2810  159.5180 H   0  0  0  0  0  0  0  0  0  0  0  0
  144.8378  137.8731  157.2369 H   0  0  0  0  0  0  0  0  0  0  0  0
  143.8864  138.0153  158.7214 H   0  0  0  0  0  0  0  0  0  0  0  0
  144.4006  136.4203  158.1505 H   0  0  0  0  0  0  0  0  0  0  0  0
  149.4652  136.2625  160.3082 H   0  0  0  0  0  0  0  0  0  0  0  0
  145.6756  134.6971  161.9543 H   0  0  0  0  0  0  0  0  0  0  0  0
  146.3766  135.2523  163.4805 H   0  0  0  0  0  0  0  0  0  0  0  0
  147.1784  133.9766  162.5528 H   0  0  0  0  0  0  0  0  0  0  0  0
  1  2  1  0  0  0  0
  1 33  1  0  0  0  0
  1 34  1  0  0  0  0
  1 35  1  0  0  0  0
  2  3  2  0  0  0  0
  2  4  1  0  0  0  0
  4  5  1  0  0  0  0
  5  6  1  0  0  0  0
  5 36  1  0  0  0  0
  5 37  1  0  0  0  0
  6 28  1  0  0  0  0
  6  7  1  0  0  0  0
  6 38  1  0  0  0  0
  7  8  1  0  0  0  0
  8  9  1  0  0  0  0
  8 23  1  0  0  0  0
  8 39  1  0  0  0  0
  9 22  1  0  0  0  0
  9 10  1  0  0  0  0
 10 11  1  0  0  0  0
 10 15  2  0  0  0  0
 11 12  1  0  0  0  0
 11 13  2  0  0  0  0
 11 14  2  0  0  0  0
 12 40  1  0  0  0  0
 12 41  1  0  0  0  0
 12 42  1  0  0  0  0
 15 16  1  0  0  0  0
 16 22  2  0  0  0  0
 16 17  1  0  0  0  0
 17 18  1  0  0  0  0
 17 19  2  0  0  0  0
 18 43  1  0  0  0  0
 18 44  1  0  0  0  0
 19 20  1  0  0  0  0
 20 21  2  0  0  0  0
 20 45  1  0  0  0  0
 21 22  1  0  0  0  0
 23 24  1  0  0  0  0
 23 28  1  0  0  0  0
 23 46  1  0  0  0  0
 24 25  1  0  0  0  0
 25 26  1  0  0  0  0
 25 27  2  0  0  0  0
 26 47  1  0  0  0  0
 26 48  1  0  0  0  0
 26 49  1  0  0  0  0
 28 29  1  0  0  0  0
 28 50  1  0  0  0  0
 29 30  1  0  0  0  0
 30 31  1  0  0  0  0
 30 32  2  0  0  0  0
 31 51  1  0  0  0  0
 31 52  1  0  0  0  0
 31 53  1  0  0  0  0
M  END
> <s_m_source_file>
AV-unprocessed.smi

> <i_m_source_file_index>
103

> <i_lp_mmshare_version>
43012

> <i_f3d_flags>
0

> <s_epik_input>
W0NIM11DKD1PKU9bQ0gyXVtDQEBIXTFPW0NASF0oW0NAQEhdKE9DKD1PKVtDSDNdKVtDQEhdMU9DKD1PKVtDSDNdKW4oYyhuMilTKD1PKSg9TylbQ0gzXSljKGMyMyluW2NIXW5jM1tOSDJd

> <s_epik_cmdline>
J2VwaWtfcHl0aG9uJywgJy1waCcsICc3LjAnLCAnLXRuJywgJzgnLCAnLW1hJywgJzIwMCcsICctbWV0YWxfYmluZGluZycsICctaW1hZScsICc8aW5maWxlLm1hZT4nLCAnLW9tYWUnLCAnPG91dGZpbGUubWFlPic=

> <r_lp_tautomer_probability>
1

> <r_epik_Ionization_Penalty>
1.51338e-05

> <r_epik_Ionization_Penalty_Charging>
0

> <r_epik_Ionization_Penalty_Neutral>
1.51338e-05

> <r_epik_State_Penalty>
-0

> <r_epik_Charging_Adjusted_Penalty>
0

> <i_epik_Tot_Q>
0

> <i_epik_Tot_abs_Q>
0

> <r_epik_Metal_State_Penalty>
-0

> <b_epik_Metal_Only>
0

> <s_epik_Chemistry_Notes>
This compound has an ester and may undergo hydrolysis at high or low pH. This compound contains an acetal/aminal-like group ( X-CH(R)-Y where X, Y are N, S, or O) that may be acid/base labile, releasing an aldehyde.

> <s_lp_Force_Field>
OPLS_2005

> <r_lp_Energy>
15.224

> <b_lp_Chiralities_Consistent>
1

> <s_lp_Variant>
AV-unprocessed.smi:103-2

> <Gold.Version>
5.8.1

> <Gold.Id.Protein>
6NUR|6NUR_protein|mol2

> <Gold.PLP.Fitness>
41.4002

> <Gold.PLP.PLP>
-28.4657

> <Gold.PLP.part.hbond>
-6.0157

> <Gold.PLP.part.metal>
0.0000

> <Gold.PLP.part.buried>
-4.0919

> <Gold.PLP.part.nonpolar>
-19.7370

> <Gold.PLP.part.repulsive>
0.4449

> <Gold.PLP.ligand.clash>
0.0000

> <Gold.PLP.ligand.torsion>
2.0808

> <Gold.PLP.Chemscore.Hbond>
4.8610

> <Gold.PLP.Chemscore.CHOScore>
0.0000

> <Gold.PLP.Chemscore.Metal>
0.0000

> <Gold.Chemscore.Hbonds>
donor molecule, donor type, donor heavy atom, donor atom, acceptor molecule, acceptor atom, score
      L1  H    18    43       P1  7957  0.34
      P1  H  6896  6907       L1     3  1.00
      P1  H  6931  6943       L1    32  1.00
      P1  H  6934  6947       L1    27  1.00
      P1  H  7989  7998       L1    14  0.51
      P1  H  7997  8008       L1    14  0.46

> <Gold.PLP.Chemscore.Internal.Correction>
2.5130

> <Gold.Rescore>
     Score         DG    S(hbond)    S(metal)    S(lipo)     H(rot)  DE(clash)    DE(int)     intcor
      2.15     -13.35       4.41        0.00      34.35       4.25       0.50      10.71       ----

> <Gold.Chemscore.Fitness>
2.1475

> <Gold.Chemscore.DG>
-13.3513

> <Gold.Chemscore.ZeroCoef>
-5.4800

> <Gold.Chemscore.Hbond>
4.4077

> <Gold.Chemscore.Metal>
0.0000

> <Gold.Chemscore.Lipo>
34.3456

> <Gold.Chemscore.Internal_Hbond>
0.0000

> <Gold.Chemscore.DEClash>
0.4974

> <Gold.Chemscore.DEInternal>
10.7064

> <Gold.Chemscore.Rot>
4.2456

> <Gold.Chemscore.Internal.Correction>
   9.000000E+99

> <Gold.Chemscore.Hbonds>
donor molecule, donor type, donor heavy atom, donor atom, acceptor molecule, acceptor atom, score
      L1  H    18    43       P1  7957  0.33
      P1  H  6896  6907       L1     3  0.99
      P1  H  6931  6943       L1    32  0.99
      P1  H  6934  6947       L1    27  0.91
      P1  H  7989  7998       L1    14  0.51
      P1  H  7997  8008       L1    14  0.35

> <Gold.Chemscore.Hbond.Weighted>
-14.7216

> <Gold.Chemscore.Metal.Weighted>
-0.0000

> <Gold.Chemscore.Lipo.Weighted>
-4.0184

> <Gold.Chemscore.Internal_Hbond.Weighted>
0.0000

> <Gold.Chemscore.DEClash.Weighted>
0.4974

> <Gold.Chemscore.DEInternal.Weighted>
10.7064

> <Gold.Chemscore.Rot.Weighted>
10.8687

> <Gold.Chemscore.Internal.Correction.Weighted>
   9.000000E+99

> <Gold.Protein.RotatedTorsions>
[ 6907 6896 6895 6894 ] final -134.45 input  -60.11 | X-H torsion
[ 7974 7965 7964 7962 ] final  -28.69 input  175.53 | X-H torsion
[ 8008 7997 7996 7995 ] final  -18.52 input   59.86 | X-H torsion
[ 10167 10162 10161 10158 ] final   67.10 input  -65.29 | X-H torsion
[ 10718 10713 10712 10709 ] final -137.44 input   66.30 | X-H torsion
[ 10763 10752 10751 10750 ] final    5.51 input  -60.55 | X-H torsion
[ 11005 11000 10999 10996 ] final  -89.85 input  -57.11 | X-H torsion

> <Gold.Protein.ActiveResidues>
 VAL166  LYS551  ARG553  GLY616  TRP617  ASP618  TYR619  PRO620  LYS621  CYS622 
 ASP623  PHE694  ASN695  SER759  ASP760  ASP761  ALA762  ILE779  LEU786  VAL792 
 PHE793  MET794  SER795  GLU796  ALA797  LYS798  CYS799  TRP800  GLU811  SER814 

> <Gold.Protein.RotatedAtoms>
  150.9860  133.6197  159.2715 H   0  0  0  0  0  0  0  0  0  0  0  0  # atno 6907 bound_to 6896
  151.3435  135.0868  159.9388 H   0  0  0  0  0  0  0  0  0  0  0  0  # atno 6908 bound_to 6896
  152.5231  133.9467  159.7706 H   0  0  0  0  0  0  0  0  0  0  0  0  # atno 6909 bound_to 6896
  146.1270  140.5315  142.8710 H   0  0  0  0  0  0  0  0  0  0  0  0  # atno 7974 bound_to 7965
  154.4900  140.2113  155.9570 H   0  0  0  0  0  0  0  0  0  0  0  0  # atno 8008 bound_to 7997
  156.1291  140.3200  155.8291 H   0  0  0  0  0  0  0  0  0  0  0  0  # atno 8009 bound_to 7997
  155.4328  140.0504  157.3008 H   0  0  0  0  0  0  0  0  0  0  0  0  # atno 8010 bound_to 7997
  140.0932  144.4969  150.7085 H   0  0  0  0  0  0  0  0  0  0  0  0  # atno 10167 bound_to 10162
  156.2881  130.7359  151.1377 H   0  0  0  0  0  0  0  0  0  0  0  0  # atno 10718 bound_to 10713
  153.2586  135.6921  153.7602 H   0  0  0  0  0  0  0  0  0  0  0  0  # atno 10763 bound_to 10752
  153.6670  135.3351  155.3144 H   0  0  0  0  0  0  0  0  0  0  0  0  # atno 10764 bound_to 10752
  154.8422  135.4491  154.1568 H   0  0  0  0  0  0  0  0  0  0  0  0  # atno 10765 bound_to 10752
  141.1577  133.7656  156.9654 H   0  0  0  0  0  0  0  0  0  0  0  0  # atno 11005 bound_to 11000
  144.7652  140.5514  143.6708 LP  0  0  0  0  0  0  0  0  0  0  0  0  # atno 17320 bound_to 7965
  145.5344  139.1475  143.3482 LP  0  0  0  0  0  0  0  0  0  0  0  0  # atno 17321 bound_to 7965
  140.7017  143.2439  151.4844 LP  0  0  0  0  0  0  0  0  0  0  0  0  # atno 17342 bound_to 10162
  139.5713  144.1922  152.1840 LP  0  0  0  0  0  0  0  0  0  0  0  0  # atno 17343 bound_to 10162
  157.7334  131.0591  150.5576 LP  0  0  0  0  0  0  0  0  0  0  0  0  # atno 17370 bound_to 10713
  156.5689  130.4275  149.6028 LP  0  0  0  0  0  0  0  0  0  0  0  0  # atno 17371 bound_to 10713
  140.1165  134.9444  157.2141 LP  0  0  0  0  0  0  0  0  0  0  0  0  # atno 17394 bound_to 11000
  140.3127  134.3005  155.7263 LP  0  0  0  0  0  0  0  0  0  0  0  0  # atno 17395 bound_to 11000

$$$$
