AV-unprocessed.smi:1095|AV-procd|sdf|4747|dock9
  -GOLD-   22720 3283D 1   1.00000     0.00000
 Structure written by MMmdl.
 50 51  0  0  0  0  0  0  0  0  1 V2000
  150.4146  144.7305  159.6111 C   0  0  0  0  0  0  0  0  0  0  0  0
  151.7975  144.2046  160.0203 C   0  0  0  0  0  0  0  0  0  0  0  0
  151.9177  142.6671  159.9997 C   0  0  2  0  0  0  0  0  0  0  0  0
  153.3565  142.2259  160.3318 C   0  0  0  0  0  0  0  0  0  0  0  0
  153.4998  140.6958  160.3299 C   0  0  0  0  0  0  0  0  0  0  0  0
  153.0727  140.0843  158.9825 C   0  0  1  0  0  0  0  0  0  0  0  0
  153.2436  138.5506  158.9973 C   0  0  0  0  0  0  0  0  0  0  0  0
  152.7459  137.9451  157.7672 N   0  0  0  0  0  0  0  0  0  0  0  0
  151.7489  137.0507  157.6826 C   0  0  0  0  0  0  0  0  0  0  0  0
  151.1989  136.5435  158.6598 O   0  0  0  0  0  0  0  0  0  0  0  0
  151.2673  136.7118  156.2733 C   0  0  0  0  0  0  0  0  0  0  0  0
  150.6882  137.9545  155.6435 C   0  0  0  0  0  0  0  0  0  0  0  0
  151.3897  139.0078  154.9839 C   0  0  0  0  0  0  0  0  0  0  0  0
  152.8671  139.1467  154.7521 C   0  0  0  0  0  0  0  0  0  0  0  0
  150.5812  139.9645  154.5599 N   0  0  0  0  0  0  0  0  0  0  0  0
  149.3486  139.5624  154.9278 N   0  0  0  0  0  0  0  0  0  0  0  0
  148.2058  140.3979  154.6140 C   0  0  0  0  0  0  0  0  0  0  0  0
  149.3786  138.3513  155.5914 C   0  0  0  0  0  0  0  0  0  0  0  0
  148.1407  137.6980  156.1160 C   0  0  0  0  0  0  0  0  0  0  0  0
  151.6337  140.5275  158.6383 C   0  0  0  0  0  0  0  0  0  0  0  0
  151.4858  142.0573  158.6500 C   0  0  0  0  0  0  0  0  0  0  0  0
  150.3682  145.8142  159.7203 H   0  0  0  0  0  0  0  0  0  0  0  0
  149.6291  144.3016  160.2338 H   0  0  0  0  0  0  0  0  0  0  0  0
  150.1855  144.4992  158.5711 H   0  0  0  0  0  0  0  0  0  0  0  0
  152.5609  144.6460  159.3785 H   0  0  0  0  0  0  0  0  0  0  0  0
  152.0082  144.5634  161.0284 H   0  0  0  0  0  0  0  0  0  0  0  0
  151.2638  142.2698  160.7778 H   0  0  0  0  0  0  0  0  0  0  0  0
  154.0509  142.6567  159.6091 H   0  0  0  0  0  0  0  0  0  0  0  0
  153.6498  142.6135  161.3081 H   0  0  0  0  0  0  0  0  0  0  0  0
  154.5344  140.4293  160.5484 H   0  0  0  0  0  0  0  0  0  0  0  0
  152.8969  140.2736  161.1350 H   0  0  0  0  0  0  0  0  0  0  0  0
  153.7362  140.4828  158.2132 H   0  0  0  0  0  0  0  0  0  0  0  0
  154.3009  138.2985  159.0823 H   0  0  0  0  0  0  0  0  0  0  0  0
  152.7581  138.1235  159.8763 H   0  0  0  0  0  0  0  0  0  0  0  0
  153.1334  138.2966  156.9035 H   0  0  0  0  0  0  0  0  0  0  0  0
  152.0987  136.3142  155.6902 H   0  0  0  0  0  0  0  0  0  0  0  0
  150.5309  135.9094  156.3306 H   0  0  0  0  0  0  0  0  0  0  0  0
  153.3444  138.1731  154.6456 H   0  0  0  0  0  0  0  0  0  0  0  0
  153.3437  139.6604  155.5870 H   0  0  0  0  0  0  0  0  0  0  0  0
  153.0787  139.7154  153.8457 H   0  0  0  0  0  0  0  0  0  0  0  0
  147.8036  140.8256  155.5325 H   0  0  0  0  0  0  0  0  0  0  0  0
  147.4335  139.7989  154.1308 H   0  0  0  0  0  0  0  0  0  0  0  0
  148.4933  141.2079  153.9422 H   0  0  0  0  0  0  0  0  0  0  0  0
  148.3825  136.8959  156.8130 H   0  0  0  0  0  0  0  0  0  0  0  0
  147.5546  137.2719  155.3016 H   0  0  0  0  0  0  0  0  0  0  0  0
  147.5144  138.4161  156.6457 H   0  0  0  0  0  0  0  0  0  0  0  0
  151.3442  140.1591  157.6541 H   0  0  0  0  0  0  0  0  0  0  0  0
  150.9330  140.0876  159.3490 H   0  0  0  0  0  0  0  0  0  0  0  0
  150.4485  142.3098  158.4316 H   0  0  0  0  0  0  0  0  0  0  0  0
  152.0828  142.4849  157.8432 H   0  0  0  0  0  0  0  0  0  0  0  0
  1  2  1  0  0  0  0
  1 22  1  0  0  0  0
  1 23  1  0  0  0  0
  1 24  1  0  0  0  0
  2  3  1  0  0  0  0
  2 25  1  0  0  0  0
  2 26  1  0  0  0  0
  3 21  1  0  0  0  0
  3  4  1  0  0  0  0
  3 27  1  0  0  0  0
  4  5  1  0  0  0  0
  4 28  1  0  0  0  0
  4 29  1  0  0  0  0
  5  6  1  0  0  0  0
  5 30  1  0  0  0  0
  5 31  1  0  0  0  0
  6  7  1  0  0  0  0
  6 20  1  0  0  0  0
  6 32  1  0  0  0  0
  7  8  1  0  0  0  0
  7 33  1  0  0  0  0
  7 34  1  0  0  0  0
  8  9  1  0  0  0  0
  8 35  1  0  0  0  0
  9 10  2  0  0  0  0
  9 11  1  0  0  0  0
 11 12  1  0  0  0  0
 11 36  1  0  0  0  0
 11 37  1  0  0  0  0
 12 18  2  0  0  0  0
 12 13  1  0  0  0  0
 13 14  1  0  0  0  0
 13 15  2  0  0  0  0
 14 38  1  0  0  0  0
 14 39  1  0  0  0  0
 14 40  1  0  0  0  0
 15 16  1  0  0  0  0
 16 17  1  0  0  0  0
 16 18  1  0  0  0  0
 17 41  1  0  0  0  0
 17 42  1  0  0  0  0
 17 43  1  0  0  0  0
 18 19  1  0  0  0  0
 19 44  1  0  0  0  0
 19 45  1  0  0  0  0
 19 46  1  0  0  0  0
 20 21  1  0  0  0  0
 20 47  1  0  0  0  0
 20 48  1  0  0  0  0
 21 49  1  0  0  0  0
 21 50  1  0  0  0  0
M  END
> <s_m_source_file>
AV-unprocessed.smi

> <i_m_source_file_index>
1095

> <i_lp_mmshare_version>
43012

> <i_f3d_flags>
0

> <s_epik_input>
W0NIM11bQ0gyXVtDQEBIXTFbQ0gyXVtDSDJdW0NASF0oW0NIMl1bQ0gyXTEpW0NIMl1bTkhdQyg9TylbQ0gyXWMyYyhbQ0gzXSlubihbQ0gzXSljMltDSDNd

> <s_epik_cmdline>
J2VwaWtfcHl0aG9uJywgJy1waCcsICc3LjAnLCAnLXRuJywgJzgnLCAnLW1hJywgJzIwMCcsICctbWV0YWxfYmluZGluZycsICctaW1hZScsICc8aW5maWxlLm1hZT4nLCAnLW9tYWUnLCAnPG91dGZpbGUubWFlPic=

> <r_lp_tautomer_probability>
1

> <r_epik_Ionization_Penalty>
0.00317479

> <r_epik_Ionization_Penalty_Charging>
0

> <r_epik_Ionization_Penalty_Neutral>
0.00317479

> <r_epik_State_Penalty>
0.00223767

> <r_epik_Charging_Adjusted_Penalty>
0.00223767

> <i_epik_Tot_Q>
0

> <i_epik_Tot_abs_Q>
0

> <r_epik_Metal_State_Penalty>
-0

> <b_epik_Metal_Only>
0

> <s_lp_Force_Field>
OPLS_2005

> <r_lp_Energy>
5.54232

> <b_lp_Chiralities_Consistent>
1

> <s_lp_Variant>
AV-unprocessed.smi:1095-1

> <Gold.Version>
5.8.1

> <Gold.Id.Protein>
6NUR|6NUR_protein|mol2

> <Gold.PLP.Fitness>
47.6021

> <Gold.PLP.PLP>
-42.3953

> <Gold.PLP.part.hbond>
-2.0000

> <Gold.PLP.part.metal>
0.0000

> <Gold.PLP.part.buried>
-5.8244

> <Gold.PLP.part.nonpolar>
-35.1634

> <Gold.PLP.part.repulsive>
0.2176

> <Gold.PLP.ligand.clash>
0.0000

> <Gold.PLP.ligand.torsion>
0.3970

> <Gold.PLP.Chemscore.Hbond>
1.9913

> <Gold.PLP.Chemscore.CHOScore>
0.0000

> <Gold.PLP.Chemscore.Metal>
0.0000

> <Gold.Chemscore.Hbonds>
donor molecule, donor type, donor heavy atom, donor atom, acceptor molecule, acceptor atom, score
      P1  H  6896  6907       L1    10  0.82
      P1  H  7989  7998       L1    15  1.00

> <Gold.PLP.Chemscore.Internal.Correction>
0.0271

> <Gold.Rescore>
     Score         DG    S(hbond)    S(metal)    S(lipo)     H(rot)  DE(clash)    DE(int)     intcor
     22.14     -22.59       1.96        0.00     121.78       1.43       0.07       0.38       ----

> <Gold.Chemscore.Fitness>
22.1403

> <Gold.Chemscore.DG>
-22.5940

> <Gold.Chemscore.ZeroCoef>
-5.4800

> <Gold.Chemscore.Hbond>
1.9569

> <Gold.Chemscore.Metal>
0.0000

> <Gold.Chemscore.Lipo>
121.7778

> <Gold.Chemscore.Internal_Hbond>
0.0000

> <Gold.Chemscore.DEClash>
0.0745

> <Gold.Chemscore.DEInternal>
0.3792

> <Gold.Chemscore.Rot>
1.4336

> <Gold.Chemscore.Internal.Correction>
   9.000000E+99

> <Gold.Chemscore.Hbonds>
donor molecule, donor type, donor heavy atom, donor atom, acceptor molecule, acceptor atom, score
      P1  H  6896  6907       L1    10  0.81
      P1  H  7989  7998       L1    15  0.35

> <Gold.Chemscore.Hbond.Weighted>
-6.5360

> <Gold.Chemscore.Metal.Weighted>
-0.0000

> <Gold.Chemscore.Lipo.Weighted>
-14.2480

> <Gold.Chemscore.Internal_Hbond.Weighted>
0.0000

> <Gold.Chemscore.DEClash.Weighted>
0.0745

> <Gold.Chemscore.DEInternal.Weighted>
0.3792

> <Gold.Chemscore.Rot.Weighted>
3.6700

> <Gold.Chemscore.Internal.Correction.Weighted>
   9.000000E+99

> <Gold.Protein.RotatedTorsions>
[ 6907 6896 6895 6894 ] final  -24.67 input  -60.11 | X-H torsion
[ 7974 7965 7964 7962 ] final -143.05 input  175.53 | X-H torsion
[ 8008 7997 7996 7995 ] final   75.10 input   59.86 | X-H torsion
[ 10167 10162 10161 10158 ] final   30.84 input  -65.29 | X-H torsion
[ 10718 10713 10712 10709 ] final -149.07 input   66.30 | X-H torsion
[ 10763 10752 10751 10750 ] final   58.24 input  -60.55 | X-H torsion
[ 11005 11000 10999 10996 ] final  -50.70 input  -57.11 | X-H torsion

> <Gold.Protein.ActiveResidues>
 VAL166  LYS551  ARG553  GLY616  TRP617  ASP618  TYR619  PRO620  LYS621  CYS622 
 ASP623  PHE694  ASN695  SER759  ASP760  ASP761  ALA762  ILE779  LEU786  VAL792 
 PHE793  MET794  SER795  GLU796  ALA797  LYS798  CYS799  TRP800  GLU811  SER814 

> <Gold.Protein.RotatedAtoms>
  151.1861  135.0382  159.8812 H   0  0  0  0  0  0  0  0  0  0  0  0  # atno 6907 bound_to 6896
  152.5442  134.1008  159.8327 H   0  0  0  0  0  0  0  0  0  0  0  0  # atno 6908 bound_to 6896
  151.1131  133.5111  159.2637 H   0  0  0  0  0  0  0  0  0  0  0  0  # atno 6909 bound_to 6896
  144.8398  140.5883  143.5460 H   0  0  0  0  0  0  0  0  0  0  0  0  # atno 7974 bound_to 7965
  155.8080  140.3474  155.5441 H   0  0  0  0  0  0  0  0  0  0  0  0  # atno 8008 bound_to 7997
  155.8470  140.0950  157.1719 H   0  0  0  0  0  0  0  0  0  0  0  0  # atno 8009 bound_to 7997
  154.4006  140.1383  156.3785 H   0  0  0  0  0  0  0  0  0  0  0  0  # atno 8010 bound_to 7997
  140.4642  144.0861  150.6220 H   0  0  0  0  0  0  0  0  0  0  0  0  # atno 10167 bound_to 10162
  156.4284  130.8063  151.2289 H   0  0  0  0  0  0  0  0  0  0  0  0  # atno 10718 bound_to 10713
  152.9866  135.5614  154.5520 H   0  0  0  0  0  0  0  0  0  0  0  0  # atno 10763 bound_to 10752
  154.4955  135.2795  155.1465 H   0  0  0  0  0  0  0  0  0  0  0  0  # atno 10764 bound_to 10752
  154.2917  135.6325  153.5441 H   0  0  0  0  0  0  0  0  0  0  0  0  # atno 10765 bound_to 10752
  141.0830  133.6649  156.3769 H   0  0  0  0  0  0  0  0  0  0  0  0  # atno 11005 bound_to 11000
  145.4718  139.1503  143.3810 LP  0  0  0  0  0  0  0  0  0  0  0  0  # atno 17320 bound_to 7965
  146.2692  140.4851  142.8821 LP  0  0  0  0  0  0  0  0  0  0  0  0  # atno 17321 bound_to 7965
  140.4057  143.2681  151.9894 LP  0  0  0  0  0  0  0  0  0  0  0  0  # atno 17342 bound_to 10162
  139.4810  144.5959  151.7691 LP  0  0  0  0  0  0  0  0  0  0  0  0  # atno 17343 bound_to 10162
  157.7508  131.0206  150.3715 LP  0  0  0  0  0  0  0  0  0  0  0  0  # atno 17370 bound_to 10713
  156.4047  130.3922  149.6934 LP  0  0  0  0  0  0  0  0  0  0  0  0  # atno 17371 bound_to 10713
  140.5425  134.6106  157.5384 LP  0  0  0  0  0  0  0  0  0  0  0  0  # atno 17394 bound_to 11000
  139.9646  134.7395  156.0166 LP  0  0  0  0  0  0  0  0  0  0  0  0  # atno 17395 bound_to 11000

$$$$
