AV-unprocessed.smi:1607|AV-procd|sdf|6466|dock1
  -GOLD-   22720 7123D 1   1.00000     0.00000
 Structure written by MMmdl.
 39 40  0  0  0  0  0  0  0  0  2 V2000
  145.9588  132.3071  150.0884 C   0  0  0  0  0  0  0  0  0  0  0  0
  146.3835  133.5058  150.9486 C   0  0  1  0  0  0  0  0  0  0  0  0
  145.1812  134.3974  151.3009 C   0  0  0  0  0  0  0  0  0  0  0  0
  145.6301  135.5705  152.1807 C   0  0  0  0  0  0  0  0  0  0  0  0
  146.3704  135.0689  153.4302 C   0  0  0  0  0  0  0  0  0  0  0  0
  147.5285  134.2139  153.0612 N   0  3  1  0  0  0  0  0  0  0  0  0
  148.3376  133.8276  154.2451 C   0  0  0  0  0  0  0  0  0  0  0  0
  148.5410  134.9951  155.2249 C   0  0  0  0  0  0  0  0  0  0  0  0
  149.2526  136.0875  154.5759 N   0  0  0  0  0  0  0  0  0  0  0  0
  150.5108  136.4510  154.8691 C   0  0  0  0  0  0  0  0  0  0  0  0
  151.1825  135.9041  155.7429 O   0  0  0  0  0  0  0  0  0  0  0  0
  151.1038  137.6112  154.0647 C   0  0  0  0  0  0  0  0  0  0  0  0
  151.5329  138.6998  154.9245 N   0  0  0  0  0  0  0  0  0  0  0  0
  152.3417  138.7114  155.9860 C   0  0  0  0  0  0  0  0  0  0  0  0
  152.4631  139.9275  156.4956 N   0  0  0  0  0  0  0  0  0  0  0  0
  151.6670  140.6977  155.6646 N   0  0  0  0  0  0  0  0  0  0  0  0
  151.1142  139.9754  154.7291 N   0  0  0  0  0  0  0  0  0  0  0  0
  147.1069  133.0518  152.2327 C   0  0  0  0  0  0  0  0  0  0  0  0
  145.2563  131.6648  150.6207 H   0  0  0  0  0  0  0  0  0  0  0  0
  146.8195  131.6991  149.8085 H   0  0  0  0  0  0  0  0  0  0  0  0
  145.4760  132.6362  149.1676 H   0  0  0  0  0  0  0  0  0  0  0  0
  147.0839  134.1001  150.3596 H   0  0  0  0  0  0  0  0  0  0  0  0
  144.7095  134.7744  150.3927 H   0  0  0  0  0  0  0  0  0  0  0  0
  144.4245  133.8130  151.8265 H   0  0  0  0  0  0  0  0  0  0  0  0
  146.2823  136.2311  151.6077 H   0  0  0  0  0  0  0  0  0  0  0  0
  144.7659  136.1675  152.4740 H   0  0  0  0  0  0  0  0  0  0  0  0
  146.7136  135.9283  154.0076 H   0  0  0  0  0  0  0  0  0  0  0  0
  145.6903  134.5061  154.0716 H   0  0  0  0  0  0  0  0  0  0  0  0
  147.8264  133.0264  154.7815 H   0  0  0  0  0  0  0  0  0  0  0  0
  149.2959  133.4183  153.9211 H   0  0  0  0  0  0  0  0  0  0  0  0
  147.5881  135.3789  155.5889 H   0  0  0  0  0  0  0  0  0  0  0  0
  149.1050  134.6524  156.0942 H   0  0  0  0  0  0  0  0  0  0  0  0
  148.7646  136.5917  153.8495 H   0  0  0  0  0  0  0  0  0  0  0  0
  151.9584  137.2568  153.4870 H   0  0  0  0  0  0  0  0  0  0  0  0
  150.3688  137.9922  153.3540 H   0  0  0  0  0  0  0  0  0  0  0  0
  152.8327  137.8363  156.3852 H   0  0  0  0  0  0  0  0  0  0  0  0
  146.4574  132.4025  152.8225 H   0  0  0  0  0  0  0  0  0  0  0  0
  147.9753  132.4559  151.9543 H   0  0  0  0  0  0  0  0  0  0  0  0
  148.1255  134.7874  152.4824 H   0  0  0  0  0  0  0  0  0  0  0  0
  1  2  1  0  0  0  0
  1 19  1  0  0  0  0
  1 20  1  0  0  0  0
  1 21  1  0  0  0  0
  2 18  1  0  0  0  0
  2  3  1  0  0  0  0
  2 22  1  0  0  0  0
  3  4  1  0  0  0  0
  3 23  1  0  0  0  0
  3 24  1  0  0  0  0
  4  5  1  0  0  0  0
  4 25  1  0  0  0  0
  4 26  1  0  0  0  0
  5  6  1  0  0  0  0
  5 27  1  0  0  0  0
  5 28  1  0  0  0  0
  6  7  1  0  0  0  0
  6 18  1  0  0  0  0
  6 39  1  0  0  0  0
  7  8  1  0  0  0  0
  7 29  1  0  0  0  0
  7 30  1  0  0  0  0
  8  9  1  0  0  0  0
  8 31  1  0  0  0  0
  8 32  1  0  0  0  0
  9 10  1  0  0  0  0
  9 33  1  0  0  0  0
 10 11  2  0  0  0  0
 10 12  1  0  0  0  0
 12 13  1  0  0  0  0
 12 34  1  0  0  0  0
 12 35  1  0  0  0  0
 13 17  1  0  0  0  0
 13 14  1  0  0  0  0
 14 15  2  0  0  0  0
 14 36  1  0  0  0  0
 15 16  1  0  0  0  0
 16 17  2  0  0  0  0
 18 37  1  0  0  0  0
 18 38  1  0  0  0  0
M  CHG  1   6   1
M  END
> <s_m_source_file>
AV-unprocessed.smi

> <i_m_source_file_index>
1607

> <i_lp_mmshare_version>
43012

> <i_f3d_flags>
0

> <s_epik_input>
W0NIM11bQ0BASF0xW0NIMl1bQ0gyXVtDSDJdTihbQ0gyXTEpW0NIMl1bQ0gyXVtOSF1DKD1PKVtDSDJdbjJbY0hdbm5uMg==

> <s_epik_cmdline>
J2VwaWtfcHl0aG9uJywgJy1waCcsICc3LjAnLCAnLXRuJywgJzgnLCAnLW1hJywgJzIwMCcsICctbWV0YWxfYmluZGluZycsICctaW1hZScsICc8aW5maWxlLm1hZT4nLCAnLW9tYWUnLCAnPG91dGZpbGUubWFlPic=

> <r_lp_tautomer_probability>
1

> <r_epik_Ionization_Penalty>
0.00268321

> <r_epik_Ionization_Penalty_Charging>
0.00267875

> <r_epik_Ionization_Penalty_Neutral>
4.46125e-06

> <r_epik_State_Penalty>
0.00186642

> <r_epik_Charging_Adjusted_Penalty>
0.00454517

> <i_epik_Tot_Q>
1

> <i_epik_Tot_abs_Q>
1

> <r_epik_Metal_State_Penalty>
-0

> <b_epik_Metal_Only>
0

> <s_lp_Force_Field>
OPLS_2005

> <r_lp_Energy>
19.4205

> <b_lp_Chiralities_Consistent>
1

> <s_lp_Variant>
AV-unprocessed.smi:1607-4

> <Gold.Version>
5.8.1

> <Gold.Id.Protein>
6NUR|6NUR_protein|mol2

> <Gold.PLP.Fitness>
46.7534

> <Gold.PLP.PLP>
-30.6049

> <Gold.PLP.part.hbond>
-5.9085

> <Gold.PLP.part.metal>
0.0000

> <Gold.PLP.part.buried>
-0.8785

> <Gold.PLP.part.nonpolar>
-23.9953

> <Gold.PLP.part.repulsive>
0.1509

> <Gold.PLP.ligand.clash>
0.0000

> <Gold.PLP.ligand.torsion>
0.2005

> <Gold.PLP.Chemscore.Hbond>
5.4960

> <Gold.PLP.Chemscore.CHOScore>
0.0000

> <Gold.PLP.Chemscore.Metal>
0.0000

> <Gold.Chemscore.Hbonds>
donor molecule, donor type, donor heavy atom, donor atom, acceptor molecule, acceptor atom, score
      L1  H     6    39       P1  7948  2.00
      L1  H     9    33       P1  7948  0.48
      P1  H  7989  7998       L1    17  0.80
      P1  H  7997  8009       L1    15  1.00
      P1  H 10752 10763       L1    11  0.91

> <Gold.PLP.Chemscore.Internal.Correction>
0.0615

> <Gold.Rescore>
     Score         DG    S(hbond)    S(metal)    S(lipo)     H(rot)  DE(clash)    DE(int)     intcor
     13.51     -14.51       3.05        0.00      48.97       2.69       0.87       0.13       ----

> <Gold.Chemscore.Fitness>
13.5071

> <Gold.Chemscore.DG>
-14.5115

> <Gold.Chemscore.ZeroCoef>
-5.4800

> <Gold.Chemscore.Hbond>
3.0527

> <Gold.Chemscore.Metal>
0.0000

> <Gold.Chemscore.Lipo>
48.9736

> <Gold.Chemscore.Internal_Hbond>
0.0000

> <Gold.Chemscore.DEClash>
0.8697

> <Gold.Chemscore.DEInternal>
0.1346

> <Gold.Chemscore.Rot>
2.6932

> <Gold.Chemscore.Internal.Correction>
   9.000000E+99

> <Gold.Chemscore.Hbonds>
donor molecule, donor type, donor heavy atom, donor atom, acceptor molecule, acceptor atom, score
      L1  H     6    39       P1  7948  0.55
      L1  H     9    33       P1  7948  0.45
      P1  H  7989  7998       L1    17  0.12
      P1  H  7997  8009       L1    15  0.25
      P1  H 10752 10763       L1    11  0.48

> <Gold.Chemscore.Hbond.Weighted>
-10.1961

> <Gold.Chemscore.Metal.Weighted>
-0.0000

> <Gold.Chemscore.Lipo.Weighted>
-5.7299

> <Gold.Chemscore.Internal_Hbond.Weighted>
0.0000

> <Gold.Chemscore.DEClash.Weighted>
0.8697

> <Gold.Chemscore.DEInternal.Weighted>
0.1346

> <Gold.Chemscore.Rot.Weighted>
6.8945

> <Gold.Chemscore.Internal.Correction.Weighted>
   9.000000E+99

> <Gold.Protein.RotatedTorsions>
[ 6907 6896 6895 6894 ] final   98.09 input  -60.11 | X-H torsion
[ 7974 7965 7964 7962 ] final  137.97 input  175.53 | X-H torsion
[ 8008 7997 7996 7995 ] final -167.20 input   59.86 | X-H torsion
[ 10167 10162 10161 10158 ] final  -16.75 input  -65.29 | X-H torsion
[ 10718 10713 10712 10709 ] final  -77.50 input   66.30 | X-H torsion
[ 10763 10752 10751 10750 ] final   76.95 input  -60.55 | X-H torsion
[ 11005 11000 10999 10996 ] final  105.23 input  -57.11 | X-H torsion

> <Gold.Protein.ActiveResidues>
 VAL166  LYS551  ARG553  GLY616  TRP617  ASP618  TYR619  PRO620  LYS621  CYS622 
 ASP623  PHE694  ASN695  SER759  ASP760  ASP761  ALA762  ILE779  LEU786  VAL792 
 PHE793  MET794  SER795  GLU796  ALA797  LYS798  CYS799  TRP800  GLU811  SER814 

> <Gold.Protein.RotatedAtoms>
  152.5414  134.0634  159.8161 H   0  0  0  0  0  0  0  0  0  0  0  0  # atno 6907 bound_to 6896
  151.0758  133.5422  159.2631 H   0  0  0  0  0  0  0  0  0  0  0  0  # atno 6908 bound_to 6896
  151.2267  135.0547  159.9025 H   0  0  0  0  0  0  0  0  0  0  0  0  # atno 6909 bound_to 6896
  144.9417  139.4923  143.5568 H   0  0  0  0  0  0  0  0  0  0  0  0  # atno 7974 bound_to 7965
  155.8744  140.0998  157.1528 H   0  0  0  0  0  0  0  0  0  0  0  0  # atno 8008 bound_to 7997
  154.3999  140.1341  156.4181 H   0  0  0  0  0  0  0  0  0  0  0  0  # atno 8009 bound_to 7997
  155.7714  140.3461  155.5251 H   0  0  0  0  0  0  0  0  0  0  0  0  # atno 8010 bound_to 7997
  140.7238  143.5084  150.9781 H   0  0  0  0  0  0  0  0  0  0  0  0  # atno 10167 bound_to 10162
  156.0143  130.4493  150.3354 H   0  0  0  0  0  0  0  0  0  0  0  0  # atno 10718 bound_to 10713
  153.0762  135.4932  154.8409 H   0  0  0  0  0  0  0  0  0  0  0  0  # atno 10763 bound_to 10752
  154.7091  135.3016  154.9228 H   0  0  0  0  0  0  0  0  0  0  0  0  # atno 10764 bound_to 10752
  153.9927  135.6776  153.4808 H   0  0  0  0  0  0  0  0  0  0  0  0  # atno 10765 bound_to 10752
  139.8800  134.9328  156.5482 H   0  0  0  0  0  0  0  0  0  0  0  0  # atno 11005 bound_to 11000
  146.3288  139.8441  142.8885 LP  0  0  0  0  0  0  0  0  0  0  0  0  # atno 17320 bound_to 7965
  145.2981  141.0186  143.3625 LP  0  0  0  0  0  0  0  0  0  0  0  0  # atno 17321 bound_to 7965
  139.8797  143.7088  152.3158 LP  0  0  0  0  0  0  0  0  0  0  0  0  # atno 17342 bound_to 10162
  139.7366  144.7570  151.0718 LP  0  0  0  0  0  0  0  0  0  0  0  0  # atno 17343 bound_to 10162
  157.1451  131.0306  151.2910 LP  0  0  0  0  0  0  0  0  0  0  0  0  # atno 17370 bound_to 10713
  157.4439  130.7560  149.7093 LP  0  0  0  0  0  0  0  0  0  0  0  0  # atno 17371 bound_to 10713
  140.8260  133.8316  155.8939 LP  0  0  0  0  0  0  0  0  0  0  0  0  # atno 17394 bound_to 11000
  140.9374  134.1945  157.4822 LP  0  0  0  0  0  0  0  0  0  0  0  0  # atno 17395 bound_to 11000

$$$$
