AV-unprocessed.smi:3134|AV-procd|sdf|11941|dock7
  -GOLD-   2272017333D 1   1.00000     0.00000
 Structure written by MMmdl.
 37 37  0  0  0  0  0  0  0  0  2 V2000
  148.7312  139.5346  154.7374 C   0  0  0  0  0  0  0  0  0  0  0  0
  149.5978  138.3590  155.2157 C   0  0  0  0  0  0  0  0  0  0  0  0
  151.0488  138.4923  154.7342 C   0  0  0  0  0  0  0  0  0  0  0  0
  149.0448  137.0923  154.7448 N   0  0  0  0  0  0  0  0  0  0  0  0
  148.9616  135.9634  155.4665 C   0  0  0  0  0  0  0  0  0  0  0  0
  149.3446  135.8760  156.6337 O   0  0  0  0  0  0  0  0  0  0  0  0
  148.3354  134.7501  154.7644 C   0  0  2  0  0  0  0  0  0  0  0  0
  149.4384  133.8603  154.1712 C   0  0  0  0  0  0  0  0  0  0  0  0
  147.3920  135.1558  153.6971 N   0  3  0  0  0  0  0  0  0  0  0  0
  146.5928  134.0564  153.1157 C   0  0  0  0  0  0  0  0  0  0  0  0
  147.2824  133.4727  151.8745 C   0  0  0  0  0  0  0  0  0  0  0  0
  146.3207  133.0617  150.8702 N   0  0  0  0  0  0  0  0  0  0  0  0
  146.5481  132.3925  149.6859 C   0  0  0  0  0  0  0  0  0  0  0  0
  145.3380  132.2243  149.0761 C   0  0  0  0  0  0  0  0  0  0  0  0
  144.4179  132.8293  149.9774 C   0  0  0  0  0  0  0  0  0  0  0  0
  145.0093  133.3283  151.0512 N   0  0  0  0  0  0  0  0  0  0  0  0
  149.1324  140.4847  155.0912 H   0  0  0  0  0  0  0  0  0  0  0  0
  147.7099  139.4527  155.1107 H   0  0  0  0  0  0  0  0  0  0  0  0
  148.6855  139.5781  153.6488 H   0  0  0  0  0  0  0  0  0  0  0  0
  149.6099  138.3585  156.3072 H   0  0  0  0  0  0  0  0  0  0  0  0
  151.4981  139.4171  155.0974 H   0  0  0  0  0  0  0  0  0  0  0  0
  151.1084  138.4993  153.6453 H   0  0  0  0  0  0  0  0  0  0  0  0
  151.6616  137.6663  155.0964 H   0  0  0  0  0  0  0  0  0  0  0  0
  148.6982  137.0759  153.7963 H   0  0  0  0  0  0  0  0  0  0  0  0
  147.7846  134.1604  155.4995 H   0  0  0  0  0  0  0  0  0  0  0  0
  150.1361  133.5258  154.9403 H   0  0  0  0  0  0  0  0  0  0  0  0
  150.0129  134.3880  153.4084 H   0  0  0  0  0  0  0  0  0  0  0  0
  149.0145  132.9688  153.7081 H   0  0  0  0  0  0  0  0  0  0  0  0
  146.7676  135.8559  154.0724 H   0  0  0  0  0  0  0  0  0  0  0  0
  146.4564  133.2791  153.8690 H   0  0  0  0  0  0  0  0  0  0  0  0
  145.6010  134.4217  152.8468 H   0  0  0  0  0  0  0  0  0  0  0  0
  147.9535  134.2096  151.4311 H   0  0  0  0  0  0  0  0  0  0  0  0
  147.8922  132.6089  152.1440 H   0  0  0  0  0  0  0  0  0  0  0  0
  147.5399  132.0953  149.3779 H   0  0  0  0  0  0  0  0  0  0  0  0
  145.1396  131.7415  148.1307 H   0  0  0  0  0  0  0  0  0  0  0  0
  143.3456  132.9195  149.8843 H   0  0  0  0  0  0  0  0  0  0  0  0
  147.9289  135.5698  152.9488 H   0  0  0  0  0  0  0  0  0  0  0  0
  1  2  1  0  0  0  0
  1 17  1  0  0  0  0
  1 18  1  0  0  0  0
  1 19  1  0  0  0  0
  2  3  1  0  0  0  0
  2  4  1  0  0  0  0
  2 20  1  0  0  0  0
  3 21  1  0  0  0  0
  3 22  1  0  0  0  0
  3 23  1  0  0  0  0
  4  5  1  0  0  0  0
  4 24  1  0  0  0  0
  5  6  2  0  0  0  0
  5  7  1  0  0  0  0
  7  8  1  0  0  0  0
  7  9  1  0  0  0  0
  7 25  1  0  0  0  0
  8 26  1  0  0  0  0
  8 27  1  0  0  0  0
  8 28  1  0  0  0  0
  9 10  1  0  0  0  0
  9 29  1  0  0  0  0
  9 37  1  0  0  0  0
 10 11  1  0  0  0  0
 10 30  1  0  0  0  0
 10 31  1  0  0  0  0
 11 12  1  0  0  0  0
 11 32  1  0  0  0  0
 11 33  1  0  0  0  0
 12 16  1  0  0  0  0
 12 13  1  0  0  0  0
 13 14  2  0  0  0  0
 13 34  1  0  0  0  0
 14 15  1  0  0  0  0
 14 35  1  0  0  0  0
 15 16  2  0  0  0  0
 15 36  1  0  0  0  0
M  CHG  1   9   1
M  END
> <s_m_source_file>
AV-unprocessed.smi

> <i_m_source_file_index>
3134

> <i_lp_mmshare_version>
43012

> <i_f3d_flags>
0

> <s_epik_input>
W0NIM11bQ0hdKFtDSDNdKVtOSF1DKD1PKVtDQEhdKFtDSDNdKVtOSF1bQ0gyXVtDSDJdbjFbY0hdW2NIXVtjSF1uMQ==

> <s_epik_cmdline>
J2VwaWtfcHl0aG9uJywgJy1waCcsICc3LjAnLCAnLXRuJywgJzgnLCAnLW1hJywgJzIwMCcsICctbWV0YWxfYmluZGluZycsICctaW1hZScsICc8aW5maWxlLm1hZT4nLCAnLW9tYWUnLCAnPG91dGZpbGUubWFlPic=

> <r_lp_tautomer_probability>
1

> <r_epik_Ionization_Penalty>
0.20398

> <r_epik_Ionization_Penalty_Charging>
0.203977

> <r_epik_Ionization_Penalty_Neutral>
3.23345e-06

> <r_epik_State_Penalty>
0.193898

> <r_epik_Charging_Adjusted_Penalty>
0.397875

> <i_epik_Tot_Q>
1

> <i_epik_Tot_abs_Q>
1

> <r_epik_Metal_State_Penalty>
0.194184

> <b_epik_Metal_Only>
0

> <s_lp_Force_Field>
OPLS_2005

> <r_lp_Energy>
4.26542

> <b_lp_Chiralities_Consistent>
1

> <s_lp_Variant>
AV-unprocessed.smi:3134-1

> <Gold.Version>
5.8.1

> <Gold.Id.Protein>
6NUR|6NUR_protein|mol2

> <Gold.PLP.Fitness>
43.5570

> <Gold.PLP.PLP>
-31.5138

> <Gold.PLP.part.hbond>
-2.0000

> <Gold.PLP.part.metal>
0.0000

> <Gold.PLP.part.buried>
-4.6365

> <Gold.PLP.part.nonpolar>
-26.3099

> <Gold.PLP.part.repulsive>
0.1561

> <Gold.PLP.ligand.clash>
0.0000

> <Gold.PLP.ligand.torsion>
1.5151

> <Gold.PLP.Chemscore.Hbond>
3.0000

> <Gold.PLP.Chemscore.CHOScore>
2.0000

> <Gold.PLP.Chemscore.Metal>
0.0000

> <Gold.Chemscore.Hbonds>
donor molecule, donor type, donor heavy atom, donor atom, acceptor molecule, acceptor atom, score
      L1  H     4    24       P1  7948  0.70
      L1  H     9    37       P1  7948  2.00
      L1  C    13    34       P1 10747  1.00
      L1  C    15    36       P1 10186  0.33

> <Gold.PLP.Chemscore.Internal.Correction>
0.0734

> <Gold.Rescore>
     Score         DG    S(hbond)    S(metal)    S(lipo)     H(rot)  DE(clash)    DE(int)     intcor
     13.40     -14.94       1.93        0.00      72.37       2.13       0.05       1.48       ----

> <Gold.Chemscore.Fitness>
13.4035

> <Gold.Chemscore.DG>
-14.9430

> <Gold.Chemscore.ZeroCoef>
-5.4800

> <Gold.Chemscore.Hbond>
1.9335

> <Gold.Chemscore.Metal>
0.0000

> <Gold.Chemscore.Lipo>
72.3663

> <Gold.Chemscore.Internal_Hbond>
0.0000

> <Gold.Chemscore.DEClash>
0.0546

> <Gold.Chemscore.DEInternal>
1.4850

> <Gold.Chemscore.Rot>
2.1334

> <Gold.Chemscore.Internal.Correction>
   9.000000E+99

> <Gold.Chemscore.Hbonds>
donor molecule, donor type, donor heavy atom, donor atom, acceptor molecule, acceptor atom, score
      L1  H     4    24       P1  7948  0.68
      L1  H     9    37       P1  7948  0.99

> <Gold.Chemscore.Hbond.Weighted>
-6.4577

> <Gold.Chemscore.Metal.Weighted>
-0.0000

> <Gold.Chemscore.Lipo.Weighted>
-8.4669

> <Gold.Chemscore.Internal_Hbond.Weighted>
0.0000

> <Gold.Chemscore.DEClash.Weighted>
0.0546

> <Gold.Chemscore.DEInternal.Weighted>
1.4850

> <Gold.Chemscore.Rot.Weighted>
5.4615

> <Gold.Chemscore.Internal.Correction.Weighted>
   9.000000E+99

> <Gold.Protein.RotatedTorsions>
[ 6907 6896 6895 6894 ] final   36.28 input  -60.11 | X-H torsion
[ 7974 7965 7964 7962 ] final  132.40 input  175.53 | X-H torsion
[ 8008 7997 7996 7995 ] final  -73.15 input   59.86 | X-H torsion
[ 10167 10162 10161 10158 ] final  -17.84 input  -65.29 | X-H torsion
[ 10718 10713 10712 10709 ] final  150.24 input   66.30 | X-H torsion
[ 10763 10752 10751 10750 ] final  138.33 input  -60.55 | X-H torsion
[ 11005 11000 10999 10996 ] final  106.88 input  -57.11 | X-H torsion

> <Gold.Protein.ActiveResidues>
 VAL166  LYS551  ARG553  GLY616  TRP617  ASP618  TYR619  PRO620  LYS621  CYS622 
 ASP623  PHE694  ASN695  SER759  ASP760  ASP761  ALA762  ILE779  LEU786  VAL792 
 PHE793  MET794  SER795  GLU796  ALA797  LYS798  CYS799  TRP800  GLU811  SER814 

> <Gold.Protein.RotatedAtoms>
  152.1276  134.9159  160.0560 H   0  0  0  0  0  0  0  0  0  0  0  0  # atno 6907 bound_to 6896
  152.0276  133.3919  159.4292 H   0  0  0  0  0  0  0  0  0  0  0  0  # atno 6908 bound_to 6896
  150.6854  134.3478  159.4939 H   0  0  0  0  0  0  0  0  0  0  0  0  # atno 6909 bound_to 6896
  144.9972  139.4348  143.5310 H   0  0  0  0  0  0  0  0  0  0  0  0  # atno 7974 bound_to 7965
  154.5224  140.0784  156.8196 H   0  0  0  0  0  0  0  0  0  0  0  0  # atno 8008 bound_to 7997
  155.3548  140.3414  155.4221 H   0  0  0  0  0  0  0  0  0  0  0  0  # atno 8009 bound_to 7997
  156.1695  140.1615  156.8459 H   0  0  0  0  0  0  0  0  0  0  0  0  # atno 8010 bound_to 7997
  140.7252  143.4975  150.9912 H   0  0  0  0  0  0  0  0  0  0  0  0  # atno 10167 bound_to 10162
  157.2860  131.0844  151.1497 H   0  0  0  0  0  0  0  0  0  0  0  0  # atno 10718 bound_to 10713
  153.8879  135.3036  155.3447 H   0  0  0  0  0  0  0  0  0  0  0  0  # atno 10763 bound_to 10752
  154.7730  135.4876  153.9691 H   0  0  0  0  0  0  0  0  0  0  0  0  # atno 10764 bound_to 10752
  153.1314  135.6804  153.9270 H   0  0  0  0  0  0  0  0  0  0  0  0  # atno 10765 bound_to 10752
  139.8820  134.9383  156.5734 H   0  0  0  0  0  0  0  0  0  0  0  0  # atno 11005 bound_to 11000
  146.3444  139.9339  142.8750 LP  0  0  0  0  0  0  0  0  0  0  0  0  # atno 17320 bound_to 7965
  145.2203  140.9932  143.4049 LP  0  0  0  0  0  0  0  0  0  0  0  0  # atno 17321 bound_to 7965
  139.8683  143.7225  152.3168 LP  0  0  0  0  0  0  0  0  0  0  0  0  # atno 17342 bound_to 10162
  139.7465  144.7546  151.0572 LP  0  0  0  0  0  0  0  0  0  0  0  0  # atno 17343 bound_to 10162
  157.2913  130.6797  149.6115 LP  0  0  0  0  0  0  0  0  0  0  0  0  # atno 17370 bound_to 10713
  155.9665  130.4420  150.5363 LP  0  0  0  0  0  0  0  0  0  0  0  0  # atno 17371 bound_to 10713
  140.8081  133.8451  155.8786 LP  0  0  0  0  0  0  0  0  0  0  0  0  # atno 17394 bound_to 11000
  140.9531  134.1753  157.4712 LP  0  0  0  0  0  0  0  0  0  0  0  0  # atno 17395 bound_to 11000

$$$$
