AV-unprocessed.smi:465|AV-procd|sdf|2639|dock6
  -GOLD-   2262023 43D 1   1.00000     0.00000
 Structure written by MMmdl.
 42 44  0  0  0  0  0  0  0  0  1 V2000
  153.3046  143.2780  163.4180 C   0  0  0  0  0  0  0  0  0  0  0  0
  152.7178  143.2799  162.0215 C   0  0  0  0  0  0  0  0  0  0  0  0
  152.9528  142.2013  161.1463 C   0  0  0  0  0  0  0  0  0  0  0  0
  152.3999  142.2097  159.8512 C   0  0  0  0  0  0  0  0  0  0  0  0
  151.6057  143.2882  159.4108 C   0  0  0  0  0  0  0  0  0  0  0  0
  151.1008  143.2122  158.1302 O   0  0  0  0  0  0  0  0  0  0  0  0
  150.9022  141.9252  157.5628 C   0  0  0  0  0  0  0  0  0  0  0  0
  151.0051  142.0394  156.0374 C   0  0  0  0  0  0  0  0  0  0  0  0
  150.2354  140.9995  155.3722 N   0  0  0  0  0  0  0  0  0  0  0  0
  150.5707  139.7005  155.1622 C   0  0  0  0  0  0  0  0  0  0  0  0
  151.8694  139.1101  155.6300 C   0  0  0  0  0  0  0  0  0  0  0  0
  152.6770  138.4475  154.5024 C   0  0  0  0  0  0  0  0  0  0  0  0
  152.1340  137.1889  154.1637 O   0  0  0  0  0  0  0  0  0  0  0  0
  149.6651  138.9675  154.5125 N   0  0  0  0  0  0  0  0  0  0  0  0
  148.6515  139.8748  154.2742 C   0  0  0  0  0  0  0  0  0  0  0  0
  147.4099  139.7135  153.6181 C   0  0  0  0  0  0  0  0  0  0  0  0
  146.5237  140.8030  153.4899 C   0  0  0  0  0  0  0  0  0  0  0  0
  146.8653  142.0665  154.0143 C   0  0  0  0  0  0  0  0  0  0  0  0
  148.0971  142.2484  154.6721 C   0  0  0  0  0  0  0  0  0  0  0  0
  148.9778  141.1572  154.7984 C   0  0  0  0  0  0  0  0  0  0  0  0
  151.3748  144.3712  160.2964 C   0  0  0  0  0  0  0  0  0  0  0  0
  151.9273  144.3636  161.5919 C   0  0  0  0  0  0  0  0  0  0  0  0
  154.0652  142.5045  163.5274 H   0  0  0  0  0  0  0  0  0  0  0  0
  152.5216  143.0948  164.1540 H   0  0  0  0  0  0  0  0  0  0  0  0
  153.7660  144.2407  163.6392 H   0  0  0  0  0  0  0  0  0  0  0  0
  153.5559  141.3633  161.4637 H   0  0  0  0  0  0  0  0  0  0  0  0
  152.5859  141.3772  159.1885 H   0  0  0  0  0  0  0  0  0  0  0  0
  151.6598  141.2304  157.9292 H   0  0  0  0  0  0  0  0  0  0  0  0
  149.9208  141.5384  157.8420 H   0  0  0  0  0  0  0  0  0  0  0  0
  150.6686  143.0187  155.6994 H   0  0  0  0  0  0  0  0  0  0  0  0
  152.0465  141.9530  155.7263 H   0  0  0  0  0  0  0  0  0  0  0  0
  152.4629  139.9209  156.0538 H   0  0  0  0  0  0  0  0  0  0  0  0
  151.7058  138.4122  156.4509 H   0  0  0  0  0  0  0  0  0  0  0  0
  152.7170  139.0864  153.6195 H   0  0  0  0  0  0  0  0  0  0  0  0
  153.7045  138.2886  154.8303 H   0  0  0  0  0  0  0  0  0  0  0  0
  151.9113  137.1938  153.2453 H   0  0  0  0  0  0  0  0  0  0  0  0
  147.1396  138.7501  153.2117 H   0  0  0  0  0  0  0  0  0  0  0  0
  145.5776  140.6690  152.9863 H   0  0  0  0  0  0  0  0  0  0  0  0
  146.1810  142.8960  153.9109 H   0  0  0  0  0  0  0  0  0  0  0  0
  148.3620  143.2152  155.0736 H   0  0  0  0  0  0  0  0  0  0  0  0
  150.7758  145.2209  160.0065 H   0  0  0  0  0  0  0  0  0  0  0  0
  151.7411  145.1942  162.2570 H   0  0  0  0  0  0  0  0  0  0  0  0
  1  2  1  0  0  0  0
  1 23  1  0  0  0  0
  1 24  1  0  0  0  0
  1 25  1  0  0  0  0
  2 22  1  0  0  0  0
  2  3  2  0  0  0  0
  3  4  1  0  0  0  0
  3 26  1  0  0  0  0
  4  5  2  0  0  0  0
  4 27  1  0  0  0  0
  5  6  1  0  0  0  0
  5 21  1  0  0  0  0
  6  7  1  0  0  0  0
  7  8  1  0  0  0  0
  7 28  1  0  0  0  0
  7 29  1  0  0  0  0
  8  9  1  0  0  0  0
  8 30  1  0  0  0  0
  8 31  1  0  0  0  0
  9 20  1  0  0  0  0
  9 10  1  0  0  0  0
 10 11  1  0  0  0  0
 10 14  2  0  0  0  0
 11 12  1  0  0  0  0
 11 32  1  0  0  0  0
 11 33  1  0  0  0  0
 12 13  1  0  0  0  0
 12 34  1  0  0  0  0
 12 35  1  0  0  0  0
 13 36  1  0  0  0  0
 14 15  1  0  0  0  0
 15 20  2  0  0  0  0
 15 16  1  0  0  0  0
 16 17  2  0  0  0  0
 16 37  1  0  0  0  0
 17 18  1  0  0  0  0
 17 38  1  0  0  0  0
 18 19  2  0  0  0  0
 18 39  1  0  0  0  0
 19 20  1  0  0  0  0
 19 40  1  0  0  0  0
 21 22  2  0  0  0  0
 21 41  1  0  0  0  0
 22 42  1  0  0  0  0
M  END
> <s_m_source_file>
AV-unprocessed.smi

> <i_m_source_file_index>
465

> <i_lp_mmshare_version>
43012

> <i_f3d_flags>
0

> <s_epik_input>
W0NIM11jMVtjSF1bY0hdYyhbY0hdW2NIXTEpT1tDSDJdW0NIMl1uKGMobjIpW0NIMl1bQ0gyXVtPSF0pYyhjMjMpW2NIXVtjSF1bY0hdW2NIXTM=

> <s_epik_cmdline>
J2VwaWtfcHl0aG9uJywgJy1waCcsICc3LjAnLCAnLXRuJywgJzgnLCAnLW1hJywgJzIwMCcsICctbWV0YWxfYmluZGluZycsICctaW1hZScsICc8aW5maWxlLm1hZT4nLCAnLW9tYWUnLCAnPG91dGZpbGUubWFlPic=

> <r_lp_tautomer_probability>
1

> <r_epik_Ionization_Penalty>
0.207749

> <r_epik_Ionization_Penalty_Charging>
0

> <r_epik_Ionization_Penalty_Neutral>
0.207749

> <r_epik_State_Penalty>
0.197758

> <r_epik_Charging_Adjusted_Penalty>
0.197758

> <i_epik_Tot_Q>
0

> <i_epik_Tot_abs_Q>
0

> <r_epik_Metal_State_Penalty>
0.000234715

> <b_epik_Metal_Only>
0

> <s_lp_Force_Field>
OPLS_2005

> <r_lp_Energy>
16.7212

> <b_lp_Chiralities_Consistent>
1

> <s_lp_Variant>
AV-unprocessed.smi:465-1

> <Gold.Version>
5.8.1

> <Gold.Id.Protein>
6NUR|6NUR_protein|mol2

> <Gold.PLP.Fitness>
57.0765

> <Gold.PLP.PLP>
-53.6519

> <Gold.PLP.part.hbond>
-2.0000

> <Gold.PLP.part.metal>
0.0000

> <Gold.PLP.part.buried>
-2.3725

> <Gold.PLP.part.nonpolar>
-48.4202

> <Gold.PLP.part.repulsive>
0.2586

> <Gold.PLP.ligand.clash>
0.0092

> <Gold.PLP.ligand.torsion>
1.0354

> <Gold.PLP.Chemscore.Hbond>
1.8214

> <Gold.PLP.Chemscore.CHOScore>
0.0000

> <Gold.PLP.Chemscore.Metal>
0.0000

> <Gold.Chemscore.Hbonds>
donor molecule, donor type, donor heavy atom, donor atom, acceptor molecule, acceptor atom, score
      L1  H    13    36       P1  7949  0.42
      P1  H 10752 10765       L1    13  0.48

> <Gold.PLP.Chemscore.Internal.Correction>
0.0404

> <Gold.Rescore>
     Score         DG    S(hbond)    S(metal)    S(lipo)     H(rot)  DE(clash)    DE(int)     intcor
     17.98     -20.79       1.11        0.00     149.22       2.28       1.99       0.82       ----

> <Gold.Chemscore.Fitness>
17.9770

> <Gold.Chemscore.DG>
-20.7945

> <Gold.Chemscore.ZeroCoef>
-5.4800

> <Gold.Chemscore.Hbond>
1.1073

> <Gold.Chemscore.Metal>
0.0000

> <Gold.Chemscore.Lipo>
149.2167

> <Gold.Chemscore.Internal_Hbond>
0.0000

> <Gold.Chemscore.DEClash>
1.9926

> <Gold.Chemscore.DEInternal>
0.8249

> <Gold.Chemscore.Rot>
2.2821

> <Gold.Chemscore.Internal.Correction>
   9.000000E+99

> <Gold.Chemscore.Hbonds>
donor molecule, donor type, donor heavy atom, donor atom, acceptor molecule, acceptor atom, score
      L1  H    13    36       P1  7949  0.41
      P1  H 10752 10765       L1    13  0.03

> <Gold.Chemscore.Hbond.Weighted>
-3.6982

> <Gold.Chemscore.Metal.Weighted>
-0.0000

> <Gold.Chemscore.Lipo.Weighted>
-17.4584

> <Gold.Chemscore.Internal_Hbond.Weighted>
0.0000

> <Gold.Chemscore.DEClash.Weighted>
1.9926

> <Gold.Chemscore.DEInternal.Weighted>
0.8249

> <Gold.Chemscore.Rot.Weighted>
5.8421

> <Gold.Chemscore.Internal.Correction.Weighted>
   9.000000E+99

> <Gold.Protein.RotatedTorsions>
[ 6907 6896 6895 6894 ] final  -33.26 input  -60.11 | X-H torsion
[ 7974 7965 7964 7962 ] final    5.77 input  175.53 | X-H torsion
[ 8008 7997 7996 7995 ] final  -81.05 input   59.86 | X-H torsion
[ 10167 10162 10161 10158 ] final   20.99 input  -65.29 | X-H torsion
[ 10718 10713 10712 10709 ] final   56.73 input   66.30 | X-H torsion
[ 10763 10752 10751 10750 ] final  140.70 input  -60.55 | X-H torsion
[ 11005 11000 10999 10996 ] final -164.80 input  -57.11 | X-H torsion

> <Gold.Protein.ActiveResidues>
 VAL166  LYS551  ARG553  GLY616  TRP617  ASP618  TYR619  PRO620  LYS621  CYS622 
 ASP623  PHE694  ASN695  SER759  ASP760  ASP761  ALA762  ILE779  LEU786  VAL792 
 PHE793  MET794  SER795  GLU796  ALA797  LYS798  CYS799  TRP800  GLU811  SER814 

> <Gold.Protein.RotatedAtoms>
  151.0680  134.9780  159.8293 H   0  0  0  0  0  0  0  0  0  0  0  0  # atno 6907 bound_to 6896
  152.5404  134.2335  159.8844 H   0  0  0  0  0  0  0  0  0  0  0  0  # atno 6908 bound_to 6896
  151.2358  133.4382  159.2639 H   0  0  0  0  0  0  0  0  0  0  0  0  # atno 6909 bound_to 6896
  146.2439  140.0333  142.8388 H   0  0  0  0  0  0  0  0  0  0  0  0  # atno 7974 bound_to 7965
  154.5945  140.0653  156.9284 H   0  0  0  0  0  0  0  0  0  0  0  0  # atno 8008 bound_to 7997
  155.2238  140.3332  155.4294 H   0  0  0  0  0  0  0  0  0  0  0  0  # atno 8009 bound_to 7997
  156.2278  140.1827  156.7304 H   0  0  0  0  0  0  0  0  0  0  0  0  # atno 8010 bound_to 7997
  140.5461  143.9591  150.6549 H   0  0  0  0  0  0  0  0  0  0  0  0  # atno 10167 bound_to 10162
  157.5455  130.8728  149.8885 H   0  0  0  0  0  0  0  0  0  0  0  0  # atno 10718 bound_to 10713
  153.9271  135.2994  155.3446 H   0  0  0  0  0  0  0  0  0  0  0  0  # atno 10763 bound_to 10752
  154.7546  135.4964  153.9354 H   0  0  0  0  0  0  0  0  0  0  0  0  # atno 10764 bound_to 10752
  153.1111  135.6759  153.9603 H   0  0  0  0  0  0  0  0  0  0  0  0  # atno 10765 bound_to 10752
  140.5829  134.5123  157.5181 H   0  0  0  0  0  0  0  0  0  0  0  0  # atno 11005 bound_to 11000
  145.1135  140.9419  143.4642 LP  0  0  0  0  0  0  0  0  0  0  0  0  # atno 17320 bound_to 7965
  145.0552  139.3149  143.5908 LP  0  0  0  0  0  0  0  0  0  0  0  0  # atno 17321 bound_to 7965
  140.3005  143.3264  152.0976 LP  0  0  0  0  0  0  0  0  0  0  0  0  # atno 17342 bound_to 10162
  139.5008  144.6700  151.6266 LP  0  0  0  0  0  0  0  0  0  0  0  0  # atno 17343 bound_to 10162
  156.0532  130.3713  150.1152 LP  0  0  0  0  0  0  0  0  0  0  0  0  # atno 17370 bound_to 10713
  156.9329  130.9719  151.3530 LP  0  0  0  0  0  0  0  0  0  0  0  0  # atno 17371 bound_to 10713
  139.9309  134.7966  156.0934 LP  0  0  0  0  0  0  0  0  0  0  0  0  # atno 17394 bound_to 11000
  141.0985  133.6686  156.2699 LP  0  0  0  0  0  0  0  0  0  0  0  0  # atno 17395 bound_to 11000

$$$$
