AV-unprocessed.smi:2044|AV-procd|sdf|8300|dock2
  -GOLD-   2272010563D 1   1.00000     0.00000
 Structure written by MMmdl.
 40 41  0  0  0  0  0  0  0  0  2 V2000
  153.2219  142.5402  160.6708 C   0  0  0  0  0  0  0  0  0  0  0  0
  152.4127  142.2052  159.4652 C   0  0  0  0  0  0  0  0  0  0  0  0
  151.4390  142.8783  158.7831 C   0  0  0  0  0  0  0  0  0  0  0  0
  151.0983  141.9725  157.7367 C   0  0  0  0  0  0  0  0  0  0  0  0
  150.1174  142.1785  156.7326 N   0  0  0  0  0  0  0  0  0  0  0  0
  149.8644  141.4288  155.6470 C   0  0  0  0  0  0  0  0  0  0  0  0
  150.4539  140.3920  155.3431 O   0  0  0  0  0  0  0  0  0  0  0  0
  148.8616  141.9469  154.9215 N   0  0  0  0  0  0  0  0  0  0  0  0
  148.3415  141.3886  153.6749 C   0  0  0  0  0  0  0  0  0  0  0  0
  146.7910  141.3907  153.6034 C   0  0  2  0  0  0  0  0  0  0  0  0
  146.1979  142.4956  154.5125 C   0  0  0  0  0  0  0  0  0  0  0  0
  146.2612  140.0209  153.9117 N   0  3  0  0  0  0  0  0  0  0  0  0
  146.7824  138.9186  153.0561 C   0  0  0  0  0  0  0  0  0  0  0  0
  146.1436  137.5712  153.4351 C   0  0  0  0  0  0  0  0  0  0  0  0
  146.3688  137.2973  154.8096 O   0  0  0  0  0  0  0  0  0  0  0  0
  145.7787  138.2866  155.6395 C   0  0  0  0  0  0  0  0  0  0  0  0
  146.4216  139.6513  155.3448 C   0  0  0  0  0  0  0  0  0  0  0  0
  151.8014  140.8558  157.7813 N   0  0  0  0  0  0  0  0  0  0  0  0
  152.6488  140.9970  158.8865 O   0  0  0  0  0  0  0  0  0  0  0  0
  152.9033  143.4896  161.1018 H   0  0  0  0  0  0  0  0  0  0  0  0
  154.2785  142.6217  160.4161 H   0  0  0  0  0  0  0  0  0  0  0  0
  153.1152  141.7701  161.4347 H   0  0  0  0  0  0  0  0  0  0  0  0
  151.0452  143.8569  159.0128 H   0  0  0  0  0  0  0  0  0  0  0  0
  149.5387  142.9956  156.8599 H   0  0  0  0  0  0  0  0  0  0  0  0
  148.4344  142.8013  155.2489 H   0  0  0  0  0  0  0  0  0  0  0  0
  148.7720  141.9959  152.8811 H   0  0  0  0  0  0  0  0  0  0  0  0
  148.7195  140.3776  153.5124 H   0  0  0  0  0  0  0  0  0  0  0  0
  146.4939  141.6377  152.5827 H   0  0  0  0  0  0  0  0  0  0  0  0
  146.5970  143.4792  154.2679 H   0  0  0  0  0  0  0  0  0  0  0  0
  146.4153  142.3065  155.5642 H   0  0  0  0  0  0  0  0  0  0  0  0
  145.1183  142.5901  154.3958 H   0  0  0  0  0  0  0  0  0  0  0  0
  146.5549  139.0988  152.0059 H   0  0  0  0  0  0  0  0  0  0  0  0
  147.8677  138.8599  153.1534 H   0  0  0  0  0  0  0  0  0  0  0  0
  145.0729  137.5749  153.2232 H   0  0  0  0  0  0  0  0  0  0  0  0
  146.5813  136.7696  152.8399 H   0  0  0  0  0  0  0  0  0  0  0  0
  144.6990  138.3198  155.4836 H   0  0  0  0  0  0  0  0  0  0  0  0
  145.9415  138.0138  156.6822 H   0  0  0  0  0  0  0  0  0  0  0  0
  147.4830  139.6188  155.5965 H   0  0  0  0  0  0  0  0  0  0  0  0
  145.9651  140.3917  155.9986 H   0  0  0  0  0  0  0  0  0  0  0  0
  145.2682  140.0590  153.7289 H   0  0  0  0  0  0  0  0  0  0  0  0
  1  2  1  0  0  0  0
  1 20  1  0  0  0  0
  1 21  1  0  0  0  0
  1 22  1  0  0  0  0
  2 19  1  0  0  0  0
  2  3  2  0  0  0  0
  3  4  1  0  0  0  0
  3 23  1  0  0  0  0
  4  5  1  0  0  0  0
  4 18  2  0  0  0  0
  5  6  1  0  0  0  0
  5 24  1  0  0  0  0
  6  7  2  0  0  0  0
  6  8  1  0  0  0  0
  8  9  1  0  0  0  0
  8 25  1  0  0  0  0
  9 10  1  0  0  0  0
  9 26  1  0  0  0  0
  9 27  1  0  0  0  0
 10 11  1  0  0  0  0
 10 12  1  0  0  0  0
 10 28  1  0  0  0  0
 11 29  1  0  0  0  0
 11 30  1  0  0  0  0
 11 31  1  0  0  0  0
 12 17  1  0  0  0  0
 12 13  1  0  0  0  0
 12 40  1  0  0  0  0
 13 14  1  0  0  0  0
 13 32  1  0  0  0  0
 13 33  1  0  0  0  0
 14 15  1  0  0  0  0
 14 34  1  0  0  0  0
 14 35  1  0  0  0  0
 15 16  1  0  0  0  0
 16 17  1  0  0  0  0
 16 36  1  0  0  0  0
 16 37  1  0  0  0  0
 17 38  1  0  0  0  0
 17 39  1  0  0  0  0
 18 19  1  0  0  0  0
M  CHG  1  12   1
M  END
> <s_m_source_file>
AV-unprocessed.smi

> <i_m_source_file_index>
2044

> <i_lp_mmshare_version>
43012

> <i_f3d_flags>
0

> <s_epik_input>
W0NIM11jMVtjSF1jKG5vMSlbTkhdQyg9TylbTkhdW0NIMl1bQ0BIXShbQ0gzXSlOMltDSDJdW0NIMl1PW0NIMl1bQ0gyXTI=

> <s_epik_cmdline>
J2VwaWtfcHl0aG9uJywgJy1waCcsICc3LjAnLCAnLXRuJywgJzgnLCAnLW1hJywgJzIwMCcsICctbWV0YWxfYmluZGluZycsICctaW1hZScsICc8aW5maWxlLm1hZT4nLCAnLW9tYWUnLCAnPG91dGZpbGUubWFlPic=

> <r_epik_Ionization_Penalty>
0.707076

> <r_epik_Ionization_Penalty_Charging>
0.707039

> <r_epik_Ionization_Penalty_Neutral>
3.67886e-05

> <r_epik_State_Penalty>
0.730276

> <r_epik_Charging_Adjusted_Penalty>
1.43732

> <i_epik_Tot_Q>
1

> <i_epik_Tot_abs_Q>
1

> <r_epik_Metal_State_Penalty>
0.743216

> <b_epik_Metal_Only>
0

> <s_lp_Force_Field>
OPLS_2005

> <r_lp_Energy>
20.903

> <b_lp_Chiralities_Consistent>
1

> <s_lp_Variant>
AV-unprocessed.smi:2044-3

> <Gold.Version>
5.8.1

> <Gold.Id.Protein>
6NUR|6NUR_protein|mol2

> <Gold.PLP.Fitness>
42.4004

> <Gold.PLP.PLP>
-29.6557

> <Gold.PLP.part.hbond>
-4.0000

> <Gold.PLP.part.metal>
0.0000

> <Gold.PLP.part.buried>
-1.9406

> <Gold.PLP.part.nonpolar>
-22.6257

> <Gold.PLP.part.repulsive>
0.4233

> <Gold.PLP.ligand.clash>
0.0000

> <Gold.PLP.ligand.torsion>
0.6927

> <Gold.PLP.Chemscore.Hbond>
4.6912

> <Gold.PLP.Chemscore.CHOScore>
0.0000

> <Gold.PLP.Chemscore.Metal>
0.0000

> <Gold.Chemscore.Hbonds>
donor molecule, donor type, donor heavy atom, donor atom, acceptor molecule, acceptor atom, score
      L1  H     5    24       P1  8028  0.44
      L1  H     8    25       P1  8028  0.83
      L1  H    12    40       P1 10175  1.82
      P1  H  7989  7998       L1     7  0.49

> <Gold.PLP.Chemscore.Internal.Correction>
0.0566

> <Gold.Rescore>
     Score         DG    S(hbond)    S(metal)    S(lipo)     H(rot)  DE(clash)    DE(int)     intcor
     16.23     -19.74       3.26        0.00      64.35       1.62       1.44       2.07       ----

> <Gold.Chemscore.Fitness>
16.2270

> <Gold.Chemscore.DG>
-19.7369

> <Gold.Chemscore.ZeroCoef>
-5.4800

> <Gold.Chemscore.Hbond>
3.2571

> <Gold.Chemscore.Metal>
0.0000

> <Gold.Chemscore.Lipo>
64.3480

> <Gold.Chemscore.Internal_Hbond>
0.0000

> <Gold.Chemscore.DEClash>
1.4382

> <Gold.Chemscore.DEInternal>
2.0717

> <Gold.Chemscore.Rot>
1.6213

> <Gold.Chemscore.Internal.Correction>
   9.000000E+99

> <Gold.Chemscore.Hbonds>
donor molecule, donor type, donor heavy atom, donor atom, acceptor molecule, acceptor atom, score
      L1  H     5    24       P1  8028  0.44
      L1  H     8    25       P1  8028  0.80
      L1  H    12    40       P1 10175  0.84
      P1  H  7989  7998       L1     7  0.23

> <Gold.Chemscore.Hbond.Weighted>
-10.8788

> <Gold.Chemscore.Metal.Weighted>
-0.0000

> <Gold.Chemscore.Lipo.Weighted>
-7.5287

> <Gold.Chemscore.Internal_Hbond.Weighted>
0.0000

> <Gold.Chemscore.DEClash.Weighted>
1.4382

> <Gold.Chemscore.DEInternal.Weighted>
2.0717

> <Gold.Chemscore.Rot.Weighted>
4.1506

> <Gold.Chemscore.Internal.Correction.Weighted>
   9.000000E+99

> <Gold.Protein.RotatedTorsions>
[ 6907 6896 6895 6894 ] final  -36.59 input  -60.11 | X-H torsion
[ 7974 7965 7964 7962 ] final  -85.23 input  175.53 | X-H torsion
[ 8008 7997 7996 7995 ] final  -69.74 input   59.86 | X-H torsion
[ 10167 10162 10161 10158 ] final  -32.76 input  -65.29 | X-H torsion
[ 10718 10713 10712 10709 ] final  -18.37 input   66.30 | X-H torsion
[ 10763 10752 10751 10750 ] final  103.56 input  -60.55 | X-H torsion
[ 11005 11000 10999 10996 ] final  -22.45 input  -57.11 | X-H torsion

> <Gold.Protein.ActiveResidues>
 VAL166  LYS551  ARG553  GLY616  TRP617  ASP618  TYR619  PRO620  LYS621  CYS622 
 ASP623  PHE694  ASN695  SER759  ASP760  ASP761  ALA762  ILE779  LEU786  VAL792 
 PHE793  MET794  SER795  GLU796  ALA797  LYS798  CYS799  TRP800  GLU811  SER814 

> <Gold.Protein.RotatedAtoms>
  151.0252  134.9499  159.8081 H   0  0  0  0  0  0  0  0  0  0  0  0  # atno 6907 bound_to 6896
  152.5334  134.2851  159.9032 H   0  0  0  0  0  0  0  0  0  0  0  0  # atno 6908 bound_to 6896
  151.2859  133.4145  159.2664 H   0  0  0  0  0  0  0  0  0  0  0  0  # atno 6909 bound_to 6896
  145.4960  140.9550  143.1786 H   0  0  0  0  0  0  0  0  0  0  0  0  # atno 7974 bound_to 7965
  154.4961  140.0847  156.7698 H   0  0  0  0  0  0  0  0  0  0  0  0  # atno 8008 bound_to 7997
  155.4114  140.3441  155.4246 H   0  0  0  0  0  0  0  0  0  0  0  0  # atno 8009 bound_to 7997
  156.1395  140.1525  156.8931 H   0  0  0  0  0  0  0  0  0  0  0  0  # atno 8010 bound_to 7997
  140.7216  143.3671  151.1850 H   0  0  0  0  0  0  0  0  0  0  0  0  # atno 10167 bound_to 10162
  156.5605  130.4724  149.6409 H   0  0  0  0  0  0  0  0  0  0  0  0  # atno 10718 bound_to 10713
  153.3543  135.3972  155.1670 H   0  0  0  0  0  0  0  0  0  0  0  0  # atno 10763 bound_to 10752
  154.8668  135.3664  154.5182 H   0  0  0  0  0  0  0  0  0  0  0  0  # atno 10764 bound_to 10752
  153.5636  135.7080  153.5596 H   0  0  0  0  0  0  0  0  0  0  0  0  # atno 10765 bound_to 10752
  140.8658  133.7756  156.0128 H   0  0  0  0  0  0  0  0  0  0  0  0  # atno 11005 bound_to 11000
  144.7807  139.6532  143.7155 LP  0  0  0  0  0  0  0  0  0  0  0  0  # atno 17320 bound_to 7965
  146.2255  139.5715  142.9590 LP  0  0  0  0  0  0  0  0  0  0  0  0  # atno 17321 bound_to 7965
  139.7235  143.9186  152.2994 LP  0  0  0  0  0  0  0  0  0  0  0  0  # atno 17342 bound_to 10162
  139.8951  144.6944  150.8727 LP  0  0  0  0  0  0  0  0  0  0  0  0  # atno 17343 bound_to 10162
  156.2803  130.7067  151.1889 LP  0  0  0  0  0  0  0  0  0  0  0  0  # atno 17370 bound_to 10713
  157.7369  131.0557  150.5385 LP  0  0  0  0  0  0  0  0  0  0  0  0  # atno 17371 bound_to 10713
  140.8631  134.2817  157.5225 LP  0  0  0  0  0  0  0  0  0  0  0  0  # atno 17394 bound_to 11000
  139.8709  134.9528  156.4126 LP  0  0  0  0  0  0  0  0  0  0  0  0  # atno 17395 bound_to 11000

$$$$
