AV-unprocessed.smi:157|AV-procd|sdf|1291|dock9
  -GOLD-   2262018573D 1   1.00000     0.00000
 Structure written by MMmdl.
 35 37  0  0  0  0  0  0  0  0  1 V2000
  151.5324  137.0785  153.9538 O   0  0  0  0  0  0  0  0  0  0  0  0
  152.0783  138.1868  154.6365 C   0  0  0  0  0  0  0  0  0  0  0  0
  152.3784  137.8204  156.0989 C   0  0  1  0  0  0  0  0  0  0  0  0
  153.0726  138.8878  156.7514 O   0  0  0  0  0  0  0  0  0  0  0  0
  152.5396  139.1225  158.0240 C   0  0  1  0  0  0  0  0  0  0  0  0
  151.7162  140.3806  157.9785 N   0  0  0  0  0  0  0  0  0  0  0  0
  150.7261  140.6731  157.1227 C   0  0  0  0  0  0  0  0  0  0  0  0
  150.1650  141.8552  157.3098 N   0  0  0  0  0  0  0  0  0  0  0  0
  150.8716  142.3959  158.3813 C   0  0  0  0  0  0  0  0  0  0  0  0
  151.8497  141.5053  158.7998 C   0  0  0  0  0  0  0  0  0  0  0  0
  152.8283  141.4889  159.7756 N   0  0  0  0  0  0  0  0  0  0  0  0
  153.1811  142.6173  160.3058 C   0  0  0  0  0  0  0  0  0  0  0  0
  152.6660  143.8928  160.1244 N   0  0  0  0  0  0  0  0  0  0  0  0
  151.2455  144.1947  160.1673 C   0  0  0  0  0  0  0  0  0  0  0  0
  150.4879  143.7475  158.9114 C   0  0  1  0  0  0  0  0  0  0  0  0
  150.7143  144.6791  157.8734 O   0  0  0  0  0  0  0  0  0  0  0  0
  151.6469  137.9221  158.3400 C   0  0  0  0  0  0  0  0  0  0  0  0
  151.1399  137.5518  156.9622 C   0  0  2  0  0  0  0  0  0  0  0  0
  150.7375  136.1985  156.9249 O   0  0  0  0  0  0  0  0  0  0  0  0
  153.0495  136.9602  156.1361 H   0  0  0  0  0  0  0  0  0  0  0  0
  153.3148  139.3219  158.7645 H   0  0  0  0  0  0  0  0  0  0  0  0
  149.4193  143.7693  159.1275 H   0  0  0  0  0  0  0  0  0  0  0  0
  150.3109  138.2006  156.6760 H   0  0  0  0  0  0  0  0  0  0  0  0
  151.5395  137.2628  153.0270 H   0  0  0  0  0  0  0  0  0  0  0  0
  152.9978  138.4795  154.1292 H   0  0  0  0  0  0  0  0  0  0  0  0
  151.3891  139.0280  154.5696 H   0  0  0  0  0  0  0  0  0  0  0  0
  150.4003  140.0066  156.3394 H   0  0  0  0  0  0  0  0  0  0  0  0
  154.0051  142.6179  161.0207 H   0  0  0  0  0  0  0  0  0  0  0  0
  153.2168  144.6822  160.4293 H   0  0  0  0  0  0  0  0  0  0  0  0
  150.8298  143.6764  161.0326 H   0  0  0  0  0  0  0  0  0  0  0  0
  151.0975  145.2594  160.3504 H   0  0  0  0  0  0  0  0  0  0  0  0
  150.2136  144.4078  157.1190 H   0  0  0  0  0  0  0  0  0  0  0  0
  152.2729  137.1307  158.7556 H   0  0  0  0  0  0  0  0  0  0  0  0
  150.8580  138.1600  159.0539 H   0  0  0  0  0  0  0  0  0  0  0  0
  150.1973  136.0703  156.1599 H   0  0  0  0  0  0  0  0  0  0  0  0
  1  2  1  0  0  0  0
  1 24  1  0  0  0  0
  2  3  1  0  0  0  0
  2 25  1  0  0  0  0
  2 26  1  0  0  0  0
  3 20  1  0  0  0  0
  3 18  1  0  0  0  0
  3  4  1  0  0  0  0
  4  5  1  0  0  0  0
  5 21  1  0  0  0  0
  5  6  1  0  0  0  0
  5 17  1  0  0  0  0
  6 10  1  0  0  0  0
  6  7  1  0  0  0  0
  7  8  2  0  0  0  0
  7 27  1  0  0  0  0
  8  9  1  0  0  0  0
  9 15  1  0  0  0  0
  9 10  2  0  0  0  0
 10 11  1  0  0  0  0
 11 12  2  0  0  0  0
 12 13  1  0  0  0  0
 12 28  1  0  0  0  0
 13 14  1  0  0  0  0
 13 29  1  0  0  0  0
 14 15  1  0  0  0  0
 14 30  1  0  0  0  0
 14 31  1  0  0  0  0
 15 22  1  0  0  0  0
 15 16  1  0  0  0  0
 16 32  1  0  0  0  0
 17 18  1  0  0  0  0
 17 33  1  0  0  0  0
 17 34  1  0  0  0  0
 18 23  1  0  0  0  0
 18 19  1  0  0  0  0
 19 35  1  0  0  0  0
M  END
> <s_m_source_file>
AV-unprocessed.smi

> <i_m_source_file_index>
157

> <i_lp_mmshare_version>
43012

> <i_f3d_flags>
0

> <s_epik_input>
W09IXVtDSDJdW0NASF0xT1tDQEhdKFtDSDJdW0NAQEhdMVtPSF0pbihbY0hdbjIpYyhjMjMpTj1bQ0hdW05IXVtDSDJdW0NASF0zW09IXQ==

> <s_epik_cmdline>
J2VwaWtfcHl0aG9uJywgJy1waCcsICc3LjAnLCAnLXRuJywgJzgnLCAnLW1hJywgJzIwMCcsICctbWV0YWxfYmluZGluZycsICctaW1hZScsICc8aW5maWxlLm1hZT4nLCAnLW9tYWUnLCAnPG91dGZpbGUubWFlPic=

> <r_lp_tautomer_probability>
1

> <r_epik_Ionization_Penalty>
0.0357149

> <r_epik_Ionization_Penalty_Charging>
0.0355056

> <r_epik_Ionization_Penalty_Neutral>
0.000209255

> <r_epik_State_Penalty>
0.0296046

> <r_epik_Charging_Adjusted_Penalty>
0.0651102

> <i_epik_Tot_Q>
0

> <i_epik_Tot_abs_Q>
0

> <r_epik_Metal_State_Penalty>
3.03559e-05

> <b_epik_Metal_Only>
0

> <s_epik_Chemistry_Notes>
This compound has an imine and may undergo hydrolysis. This compound contains an acetal/aminal-like group ( X-CH(R)-Y where X, Y are N, S, or O) that may be acid/base labile, releasing an aldehyde.

> <s_lp_Force_Field>
OPLS_2005

> <r_lp_Energy>
41.3094

> <b_lp_Chiralities_Consistent>
1

> <s_lp_Variant>
AV-unprocessed.smi:157-1

> <Gold.Version>
5.8.1

> <Gold.Id.Protein>
6NUR|6NUR_protein|mol2

> <Gold.PLP.Fitness>
41.3785

> <Gold.PLP.PLP>
-30.9350

> <Gold.PLP.part.hbond>
-4.6536

> <Gold.PLP.part.metal>
0.0000

> <Gold.PLP.part.buried>
-7.7568

> <Gold.PLP.part.nonpolar>
-19.6546

> <Gold.PLP.part.repulsive>
0.1178

> <Gold.PLP.ligand.clash>
0.0000

> <Gold.PLP.ligand.torsion>
0.0737

> <Gold.PLP.Chemscore.Hbond>
3.5234

> <Gold.PLP.Chemscore.CHOScore>
0.0000

> <Gold.PLP.Chemscore.Metal>
0.0000

> <Gold.Chemscore.Hbonds>
donor molecule, donor type, donor heavy atom, donor atom, acceptor molecule, acceptor atom, score
      L1  H     1    24       P1  7949  0.58
      L1  H    16    32       P1  8028  1.00
      P1  H  7997  8008       L1     4  1.00
      P1  H 10752 10763       L1     1  0.95

> <Gold.PLP.Chemscore.Internal.Correction>
0.0209

> <Gold.Rescore>
     Score         DG    S(hbond)    S(metal)    S(lipo)     H(rot)  DE(clash)    DE(int)     intcor
     11.20     -11.28       2.89        0.00      46.62       3.64       0.00       0.07       ----

> <Gold.Chemscore.Fitness>
11.2039

> <Gold.Chemscore.DG>
-11.2803

> <Gold.Chemscore.ZeroCoef>
-5.4800

> <Gold.Chemscore.Hbond>
2.8905

> <Gold.Chemscore.Metal>
0.0000

> <Gold.Chemscore.Lipo>
46.6211

> <Gold.Chemscore.Internal_Hbond>
0.0000

> <Gold.Chemscore.DEClash>
0.0048

> <Gold.Chemscore.DEInternal>
0.0716

> <Gold.Chemscore.Rot>
3.6362

> <Gold.Chemscore.Internal.Correction>
   9.000000E+99

> <Gold.Chemscore.Hbonds>
donor molecule, donor type, donor heavy atom, donor atom, acceptor molecule, acceptor atom, score
      L1  H     1    24       P1  7949  0.50
      L1  H    16    32       P1  8028  0.66
      P1  H  7997  8008       L1     4  0.50
      P1  H 10752 10763       L1     1  0.08

> <Gold.Chemscore.Hbond.Weighted>
-9.6544

> <Gold.Chemscore.Metal.Weighted>
-0.0000

> <Gold.Chemscore.Lipo.Weighted>
-5.4547

> <Gold.Chemscore.Internal_Hbond.Weighted>
0.0000

> <Gold.Chemscore.DEClash.Weighted>
0.0048

> <Gold.Chemscore.DEInternal.Weighted>
0.0716

> <Gold.Chemscore.Rot.Weighted>
9.3087

> <Gold.Chemscore.Internal.Correction.Weighted>
   9.000000E+99

> <Gold.Protein.RotatedTorsions>
[ 6907 6896 6895 6894 ] final  -13.19 input  -60.11 | X-H torsion
[ 7974 7965 7964 7962 ] final  159.57 input  175.53 | X-H torsion
[ 8008 7997 7996 7995 ] final  -57.23 input   59.86 | X-H torsion
[ 10167 10162 10161 10158 ] final  -93.73 input  -65.29 | X-H torsion
[ 10718 10713 10712 10709 ] final  -95.85 input   66.30 | X-H torsion
[ 10763 10752 10751 10750 ] final   23.88 input  -60.55 | X-H torsion
[ 11005 11000 10999 10996 ] final   92.69 input  -57.11 | X-H torsion

> <Gold.Protein.ActiveResidues>
 VAL166  LYS551  ARG553  GLY616  TRP617  ASP618  TYR619  PRO620  LYS621  CYS622 
 ASP623  PHE694  ASN695  SER759  ASP760  ASP761  ALA762  ILE779  LEU786  VAL792 
 PHE793  MET794  SER795  GLU796  ALA797  LYS798  CYS799  TRP800  GLU811  SER814 

> <Gold.Protein.RotatedAtoms>
  151.3588  135.0900  159.9427 H   0  0  0  0  0  0  0  0  0  0  0  0  # atno 6907 bound_to 6896
  152.5167  133.9279  159.7576 H   0  0  0  0  0  0  0  0  0  0  0  0  # atno 6908 bound_to 6896
  150.9669  133.6331  159.2774 H   0  0  0  0  0  0  0  0  0  0  0  0  # atno 6909 bound_to 6896
  144.7783  139.7636  143.6270 H   0  0  0  0  0  0  0  0  0  0  0  0  # atno 7974 bound_to 7965
  154.4260  140.1111  156.5764 H   0  0  0  0  0  0  0  0  0  0  0  0  # atno 8008 bound_to 7997
  155.6159  140.3494  155.4618 H   0  0  0  0  0  0  0  0  0  0  0  0  # atno 8009 bound_to 7997
  156.0063  140.1209  157.0488 H   0  0  0  0  0  0  0  0  0  0  0  0  # atno 8010 bound_to 7997
  140.3216  143.3046  152.0040 H   0  0  0  0  0  0  0  0  0  0  0  0  # atno 10167 bound_to 10162
  156.0051  130.5126  150.6138 H   0  0  0  0  0  0  0  0  0  0  0  0  # atno 10718 bound_to 10713
  153.0805  135.6617  154.0054 H   0  0  0  0  0  0  0  0  0  0  0  0  # atno 10763 bound_to 10752
  153.9677  135.2967  155.3431 H   0  0  0  0  0  0  0  0  0  0  0  0  # atno 10764 bound_to 10752
  154.7204  135.5167  153.8874 H   0  0  0  0  0  0  0  0  0  0  0  0  # atno 10765 bound_to 10752
  139.8820  134.8747  156.3609 H   0  0  0  0  0  0  0  0  0  0  0  0  # atno 11005 bound_to 11000
  146.1976  139.5251  142.9764 LP  0  0  0  0  0  0  0  0  0  0  0  0  # atno 17320 bound_to 7965
  145.6123  141.0337  143.1960 LP  0  0  0  0  0  0  0  0  0  0  0  0  # atno 17321 bound_to 7965
  139.4873  144.6306  151.7077 LP  0  0  0  0  0  0  0  0  0  0  0  0  # atno 17342 bound_to 10162
  140.5478  144.0475  150.6114 LP  0  0  0  0  0  0  0  0  0  0  0  0  # atno 17343 bound_to 10162
  157.3966  131.0803  151.1346 LP  0  0  0  0  0  0  0  0  0  0  0  0  # atno 17370 bound_to 10713
  157.2021  130.6399  149.5742 LP  0  0  0  0  0  0  0  0  0  0  0  0  # atno 17371 bound_to 10713
  140.9530  133.7439  156.0297 LP  0  0  0  0  0  0  0  0  0  0  0  0  # atno 17394 bound_to 11000
  140.8083  134.3429  157.5419 LP  0  0  0  0  0  0  0  0  0  0  0  0  # atno 17395 bound_to 11000

$$$$
