AV-unprocessed.smi:3181|AV-procd|sdf|12136|dock8
  -GOLD-   2272017573D 1   1.00000     0.00000
 Structure written by MMmdl.
 42 43  0  0  0  0  0  0  0  0  2 V2000
  146.5072  138.9871  151.3503 C   0  0  0  0  0  0  0  0  0  0  0  0
  146.9101  139.0933  152.8303 C   0  0  1  0  0  0  0  0  0  0  0  0
  146.2304  138.0153  153.7024 C   0  0  0  0  0  0  0  0  0  0  0  0
  145.3098  137.1811  152.9529 N   0  0  0  0  0  0  0  0  0  0  0  0
  145.5388  136.2331  152.0424 C   0  0  0  0  0  0  0  0  0  0  0  0
  144.4367  135.6680  151.5707 N   0  0  0  0  0  0  0  0  0  0  0  0
  143.5002  136.3575  152.2880 C   0  0  0  0  0  0  0  0  0  0  0  0
  143.9717  137.2744  153.1336 N   0  0  0  0  0  0  0  0  0  0  0  0
  148.3828  138.9914  152.9506 N   0  3  0  0  0  0  0  0  0  0  0  0
  148.9575  139.3610  154.2651 C   0  0  2  0  0  0  0  0  0  0  0  0
  148.9030  140.8892  154.4410 C   0  0  0  0  0  0  0  0  0  0  0  0
  149.5186  141.3332  155.7769 C   0  0  0  0  0  0  0  0  0  0  0  0
  150.9647  140.8227  155.9279 C   0  0  1  0  0  0  0  0  0  0  0  0
  151.6180  141.3340  157.2224 C   0  0  0  0  0  0  0  0  0  0  0  0
  151.0452  139.2835  155.7639 C   0  0  1  0  0  0  0  0  0  0  0  0
  150.4613  138.4895  156.9502 C   0  0  0  0  0  0  0  0  0  0  0  0
  150.4092  138.8543  154.4247 C   0  0  0  0  0  0  0  0  0  0  0  0
  145.4341  139.1265  151.2159 H   0  0  0  0  0  0  0  0  0  0  0  0
  146.7702  138.0135  150.9357 H   0  0  0  0  0  0  0  0  0  0  0  0
  147.0072  139.7500  150.7528 H   0  0  0  0  0  0  0  0  0  0  0  0
  146.5938  140.0778  153.1787 H   0  0  0  0  0  0  0  0  0  0  0  0
  146.9833  137.3705  154.1583 H   0  0  0  0  0  0  0  0  0  0  0  0
  145.6772  138.4707  154.5241 H   0  0  0  0  0  0  0  0  0  0  0  0
  146.5296  135.9517  151.7161 H   0  0  0  0  0  0  0  0  0  0  0  0
  142.4402  136.1768  152.1853 H   0  0  0  0  0  0  0  0  0  0  0  0
  148.6721  138.0539  152.7108 H   0  0  0  0  0  0  0  0  0  0  0  0
  148.3297  138.9128  155.0362 H   0  0  0  0  0  0  0  0  0  0  0  0
  149.4357  141.3747  153.6221 H   0  0  0  0  0  0  0  0  0  0  0  0
  147.8703  141.2357  154.3843 H   0  0  0  0  0  0  0  0  0  0  0  0
  149.5031  142.4221  155.8353 H   0  0  0  0  0  0  0  0  0  0  0  0
  148.9038  140.9770  156.6040 H   0  0  0  0  0  0  0  0  0  0  0  0
  151.5401  141.2546  155.1074 H   0  0  0  0  0  0  0  0  0  0  0  0
  151.0559  141.0320  158.1064 H   0  0  0  0  0  0  0  0  0  0  0  0
  151.6698  142.4230  157.2266 H   0  0  0  0  0  0  0  0  0  0  0  0
  152.6357  140.9570  157.3261 H   0  0  0  0  0  0  0  0  0  0  0  0
  152.1018  139.0170  155.7108 H   0  0  0  0  0  0  0  0  0  0  0  0
  149.4139  138.7277  157.1321 H   0  0  0  0  0  0  0  0  0  0  0  0
  151.0094  138.6867  157.8714 H   0  0  0  0  0  0  0  0  0  0  0  0
  150.5271  137.4165  156.7687 H   0  0  0  0  0  0  0  0  0  0  0  0
  150.4486  137.7678  154.3439 H   0  0  0  0  0  0  0  0  0  0  0  0
  151.0166  139.2394  153.6044 H   0  0  0  0  0  0  0  0  0  0  0  0
  148.7775  139.6258  152.2712 H   0  0  0  0  0  0  0  0  0  0  0  0
  1  2  1  0  0  0  0
  1 18  1  0  0  0  0
  1 19  1  0  0  0  0
  1 20  1  0  0  0  0
  2  3  1  0  0  0  0
  2  9  1  0  0  0  0
  2 21  1  0  0  0  0
  3  4  1  0  0  0  0
  3 22  1  0  0  0  0
  3 23  1  0  0  0  0
  4  8  1  0  0  0  0
  4  5  1  0  0  0  0
  5  6  2  0  0  0  0
  5 24  1  0  0  0  0
  6  7  1  0  0  0  0
  7  8  2  0  0  0  0
  7 25  1  0  0  0  0
  9 10  1  0  0  0  0
  9 26  1  0  0  0  0
  9 42  1  0  0  0  0
 10 17  1  0  0  0  0
 10 11  1  0  0  0  0
 10 27  1  0  0  0  0
 11 12  1  0  0  0  0
 11 28  1  0  0  0  0
 11 29  1  0  0  0  0
 12 13  1  0  0  0  0
 12 30  1  0  0  0  0
 12 31  1  0  0  0  0
 13 14  1  0  0  0  0
 13 15  1  0  0  0  0
 13 32  1  0  0  0  0
 14 33  1  0  0  0  0
 14 34  1  0  0  0  0
 14 35  1  0  0  0  0
 15 16  1  0  0  0  0
 15 17  1  0  0  0  0
 15 36  1  0  0  0  0
 16 37  1  0  0  0  0
 16 38  1  0  0  0  0
 16 39  1  0  0  0  0
 17 40  1  0  0  0  0
 17 41  1  0  0  0  0
M  CHG  1   9   1
M  END
> <s_m_source_file>
AV-unprocessed.smi

> <i_m_source_file_index>
3181

> <i_lp_mmshare_version>
43012

> <i_f3d_flags>
0

> <s_epik_input>
bjFbY0hdbltjSF1uMVtDSDJdW0NAQEhdKFtDSDNdKVtOSF1bQ0BASF0yW0NIMl1bQ0gyXVtDQEBIXShbQ0gzXSlbQ0BASF0oW0NIM10pW0NIMl0y

> <s_epik_cmdline>
J2VwaWtfcHl0aG9uJywgJy1waCcsICc3LjAnLCAnLXRuJywgJzgnLCAnLW1hJywgJzIwMCcsICctbWV0YWxfYmluZGluZycsICctaW1hZScsICc8aW5maWxlLm1hZT4nLCAnLW9tYWUnLCAnPG91dGZpbGUubWFlPic=

> <r_lp_tautomer_probability>
1

> <r_epik_Ionization_Penalty>
0.000617007

> <r_epik_Ionization_Penalty_Charging>
0.000616215

> <r_epik_Ionization_Penalty_Neutral>
7.92544e-07

> <r_epik_State_Penalty>
0.000388807

> <r_epik_Charging_Adjusted_Penalty>
0.00100502

> <i_epik_Tot_Q>
1

> <i_epik_Tot_abs_Q>
1

> <r_epik_Metal_State_Penalty>
-0

> <b_epik_Metal_Only>
0

> <s_lp_Force_Field>
OPLS_2005

> <r_lp_Energy>
21.1382

> <b_lp_Chiralities_Consistent>
1

> <s_lp_Variant>
AV-unprocessed.smi:3181-2

> <Gold.Version>
5.8.1

> <Gold.Id.Protein>
6NUR|6NUR_protein|mol2

> <Gold.PLP.Fitness>
39.9721

> <Gold.PLP.PLP>
-30.6472

> <Gold.PLP.part.hbond>
-1.5560

> <Gold.PLP.part.metal>
0.0000

> <Gold.PLP.part.buried>
-3.3519

> <Gold.PLP.part.nonpolar>
-27.3094

> <Gold.PLP.part.repulsive>
0.4357

> <Gold.PLP.ligand.clash>
0.0000

> <Gold.PLP.ligand.torsion>
1.0189

> <Gold.PLP.Chemscore.Hbond>
2.7800

> <Gold.PLP.Chemscore.CHOScore>
1.0000

> <Gold.PLP.Chemscore.Metal>
0.0000

> <Gold.Chemscore.Hbonds>
donor molecule, donor type, donor heavy atom, donor atom, acceptor molecule, acceptor atom, score
      L1  H     9    26       P1  7948  2.00
      L1  H     9    42       P1  7957  0.78
      L1  C     5    24       P1  7948  1.00

> <Gold.PLP.Chemscore.Internal.Correction>
0.0227

> <Gold.Rescore>
     Score         DG    S(hbond)    S(metal)    S(lipo)     H(rot)  DE(clash)    DE(int)     intcor
     13.61     -14.75       1.97        0.00      69.01       2.11       0.02       1.12       ----

> <Gold.Chemscore.Fitness>
13.6095

> <Gold.Chemscore.DG>
-14.7484

> <Gold.Chemscore.ZeroCoef>
-5.4800

> <Gold.Chemscore.Hbond>
1.9744

> <Gold.Chemscore.Metal>
0.0000

> <Gold.Chemscore.Lipo>
69.0111

> <Gold.Chemscore.Internal_Hbond>
0.0000

> <Gold.Chemscore.DEClash>
0.0174

> <Gold.Chemscore.DEInternal>
1.1215

> <Gold.Chemscore.Rot>
2.1095

> <Gold.Chemscore.Internal.Correction>
   9.000000E+99

> <Gold.Chemscore.Hbonds>
donor molecule, donor type, donor heavy atom, donor atom, acceptor molecule, acceptor atom, score
      L1  H     9    26       P1  7948  0.96
      L1  H     9    42       P1  7957  0.76

> <Gold.Chemscore.Hbond.Weighted>
-6.5944

> <Gold.Chemscore.Metal.Weighted>
-0.0000

> <Gold.Chemscore.Lipo.Weighted>
-8.0743

> <Gold.Chemscore.Internal_Hbond.Weighted>
0.0000

> <Gold.Chemscore.DEClash.Weighted>
0.0174

> <Gold.Chemscore.DEInternal.Weighted>
1.1215

> <Gold.Chemscore.Rot.Weighted>
5.4003

> <Gold.Chemscore.Internal.Correction.Weighted>
   9.000000E+99

> <Gold.Protein.RotatedTorsions>
[ 6907 6896 6895 6894 ] final   71.01 input  -60.11 | X-H torsion
[ 7974 7965 7964 7962 ] final -171.17 input  175.53 | X-H torsion
[ 8008 7997 7996 7995 ] final  -12.19 input   59.86 | X-H torsion
[ 10167 10162 10161 10158 ] final  127.33 input  -65.29 | X-H torsion
[ 10718 10713 10712 10709 ] final -106.17 input   66.30 | X-H torsion
[ 10763 10752 10751 10750 ] final   -4.92 input  -60.55 | X-H torsion
[ 11005 11000 10999 10996 ] final  -47.12 input  -57.11 | X-H torsion

> <Gold.Protein.ActiveResidues>
 VAL166  LYS551  ARG553  GLY616  TRP617  ASP618  TYR619  PRO620  LYS621  CYS622 
 ASP623  PHE694  ASN695  SER759  ASP760  ASP761  ALA762  ILE779  LEU786  VAL792 
 PHE793  MET794  SER795  GLU796  ALA797  LYS798  CYS799  TRP800  GLU811  SER814 

> <Gold.Protein.RotatedAtoms>
  152.4784  134.4784  159.9657 H   0  0  0  0  0  0  0  0  0  0  0  0  # atno 6907 bound_to 6896
  151.4795  133.3544  159.2844 H   0  0  0  0  0  0  0  0  0  0  0  0  # atno 6908 bound_to 6896
  150.8839  134.8260  159.7306 H   0  0  0  0  0  0  0  0  0  0  0  0  # atno 6909 bound_to 6896
  144.7160  140.1962  143.6343 H   0  0  0  0  0  0  0  0  0  0  0  0  # atno 7974 bound_to 7965
  154.5399  140.2282  155.8659 H   0  0  0  0  0  0  0  0  0  0  0  0  # atno 8008 bound_to 7997
  156.1848  140.3091  155.9179 H   0  0  0  0  0  0  0  0  0  0  0  0  # atno 8009 bound_to 7997
  155.3279  140.0444  157.3032 H   0  0  0  0  0  0  0  0  0  0  0  0  # atno 8010 bound_to 7997
  139.5584  144.6864  151.4116 H   0  0  0  0  0  0  0  0  0  0  0  0  # atno 10167 bound_to 10162
  156.0378  130.5599  150.7643 H   0  0  0  0  0  0  0  0  0  0  0  0  # atno 10718 bound_to 10713
  153.3914  135.7002  153.6492 H   0  0  0  0  0  0  0  0  0  0  0  0  # atno 10763 bound_to 10752
  153.5063  135.3641  155.2565 H   0  0  0  0  0  0  0  0  0  0  0  0  # atno 10764 bound_to 10752
  154.8702  135.4124  154.3231 H   0  0  0  0  0  0  0  0  0  0  0  0  # atno 10765 bound_to 10752
  141.0621  133.6705  156.3252 H   0  0  0  0  0  0  0  0  0  0  0  0  # atno 11005 bound_to 11000
  145.8723  139.2278  143.1654 LP  0  0  0  0  0  0  0  0  0  0  0  0  # atno 17320 bound_to 7965
  146.0073  140.8467  142.9988 LP  0  0  0  0  0  0  0  0  0  0  0  0  # atno 17321 bound_to 7965
  140.6860  143.7973  150.7187 LP  0  0  0  0  0  0  0  0  0  0  0  0  # atno 17342 bound_to 10162
  140.1441  143.4415  152.2175 LP  0  0  0  0  0  0  0  0  0  0  0  0  # atno 17343 bound_to 10162
  157.5154  131.0928  151.0146 LP  0  0  0  0  0  0  0  0  0  0  0  0  # atno 17370 bound_to 10713
  157.0491  130.5780  149.5367 LP  0  0  0  0  0  0  0  0  0  0  0  0  # atno 17371 bound_to 10713
  140.5847  134.5710  157.5487 LP  0  0  0  0  0  0  0  0  0  0  0  0  # atno 17394 bound_to 11000
  139.9442  134.7732  156.0602 LP  0  0  0  0  0  0  0  0  0  0  0  0  # atno 17395 bound_to 11000

$$$$
