AV-unprocessed.smi:721|AV-procd|sdf|3503|dock4
  -GOLD-   22720 0493D 1   1.00000     0.00000
 Structure written by MMmdl.
 29 30  0  0  0  0  0  0  0  0  1 V2000
  143.4382  143.7837  162.4146 Cl  0  0  0  0  0  0  0  0  0  0  0  0
  144.9057  144.1195  161.5719 C   0  0  0  0  0  0  0  0  0  0  0  0
  146.1183  143.4880  161.9133 C   0  0  0  0  0  0  0  0  0  0  0  0
  147.2655  143.7541  161.2507 N   0  0  0  0  0  0  0  0  0  0  0  0
  147.2012  144.6430  160.2554 C   0  0  0  0  0  0  0  0  0  0  0  0
  148.3954  144.8862  159.6011 N   0  0  0  0  0  0  0  0  0  0  0  0
  149.7179  144.7093  160.1858 C   0  0  0  0  0  0  0  0  0  0  0  0
  150.8187  144.6158  159.1207 C   0  0  0  0  0  0  0  0  0  0  0  0
  152.0377  144.2492  159.7450 O   0  0  0  0  0  0  0  0  0  0  0  0
  152.9626  143.6741  158.8391 C   0  0  0  0  0  0  0  0  0  0  0  0
  153.5615  142.4355  159.4695 C   0  0  0  0  0  0  0  0  0  0  0  0
  152.6841  141.2591  159.8313 C   0  0  0  0  0  0  0  0  0  0  0  0
  153.2932  142.1056  160.9202 C   0  0  0  0  0  0  0  0  0  0  0  0
  146.1069  145.3003  159.8505 N   0  0  0  0  0  0  0  0  0  0  0  0
  144.9550  145.0400  160.5065 C   0  0  0  0  0  0  0  0  0  0  0  0
  146.1704  142.7694  162.7178 H   0  0  0  0  0  0  0  0  0  0  0  0
  148.3381  145.3204  158.6911 H   0  0  0  0  0  0  0  0  0  0  0  0
  149.9246  145.5388  160.8626 H   0  0  0  0  0  0  0  0  0  0  0  0
  149.7141  143.8074  160.7982 H   0  0  0  0  0  0  0  0  0  0  0  0
  150.5518  143.9006  158.3414 H   0  0  0  0  0  0  0  0  0  0  0  0
  150.9381  145.5884  158.6412 H   0  0  0  0  0  0  0  0  0  0  0  0
  152.4641  143.3940  157.9099 H   0  0  0  0  0  0  0  0  0  0  0  0
  153.7541  144.3853  158.5964 H   0  0  0  0  0  0  0  0  0  0  0  0
  154.5572  142.1934  159.1023 H   0  0  0  0  0  0  0  0  0  0  0  0
  151.6139  141.3546  159.6586 H   0  0  0  0  0  0  0  0  0  0  0  0
  153.0938  140.2630  159.6777 H   0  0  0  0  0  0  0  0  0  0  0  0
  154.1093  141.6736  161.4958 H   0  0  0  0  0  0  0  0  0  0  0  0
  152.6261  142.7617  161.4760 H   0  0  0  0  0  0  0  0  0  0  0  0
  144.0721  145.5689  160.1790 H   0  0  0  0  0  0  0  0  0  0  0  0
  1  2  1  0  0  0  0
  2 15  1  0  0  0  0
  2  3  2  0  0  0  0
  3  4  1  0  0  0  0
  3 16  1  0  0  0  0
  4  5  2  0  0  0  0
  5  6  1  0  0  0  0
  5 14  1  0  0  0  0
  6  7  1  0  0  0  0
  6 17  1  0  0  0  0
  7  8  1  0  0  0  0
  7 18  1  0  0  0  0
  7 19  1  0  0  0  0
  8  9  1  0  0  0  0
  8 20  1  0  0  0  0
  8 21  1  0  0  0  0
  9 10  1  0  0  0  0
 10 11  1  0  0  0  0
 10 22  1  0  0  0  0
 10 23  1  0  0  0  0
 11 13  1  0  0  0  0
 11 12  1  0  0  0  0
 11 24  1  0  0  0  0
 12 13  1  0  0  0  0
 12 25  1  0  0  0  0
 12 26  1  0  0  0  0
 13 27  1  0  0  0  0
 13 28  1  0  0  0  0
 14 15  2  0  0  0  0
 15 29  1  0  0  0  0
M  END
> <s_m_source_file>
AV-unprocessed.smi

> <i_m_source_file_index>
721

> <i_lp_mmshare_version>
43012

> <i_f3d_flags>
0

> <s_epik_input>
Q2xjMVtjSF1uYyhuW2NIXTEpW05IXVtDSDJdW0NIMl1PW0NIMl1bQ0hdMltDSDJdW0NIMl0y

> <s_epik_cmdline>
J2VwaWtfcHl0aG9uJywgJy1waCcsICc3LjAnLCAnLXRuJywgJzgnLCAnLW1hJywgJzIwMCcsICctbWV0YWxfYmluZGluZycsICctaW1hZScsICc8aW5maWxlLm1hZT4nLCAnLW9tYWUnLCAnPG91dGZpbGUubWFlPic=

> <r_lp_tautomer_probability>
1

> <r_epik_Ionization_Penalty>
7.18353e-06

> <r_epik_Ionization_Penalty_Charging>
0

> <r_epik_Ionization_Penalty_Neutral>
7.18353e-06

> <r_epik_State_Penalty>
-0

> <r_epik_Charging_Adjusted_Penalty>
0

> <i_epik_Tot_Q>
0

> <i_epik_Tot_abs_Q>
0

> <r_epik_Metal_State_Penalty>
-0

> <b_epik_Metal_Only>
0

> <s_lp_Force_Field>
OPLS_2005

> <r_lp_Energy>
6.1156

> <b_lp_Chiralities_Consistent>
1

> <s_lp_Variant>
AV-unprocessed.smi:721-1

> <Gold.Version>
5.8.1

> <Gold.Id.Protein>
6NUR|6NUR_protein|mol2

> <Gold.PLP.Fitness>
41.2433

> <Gold.PLP.PLP>
-36.7833

> <Gold.PLP.part.hbond>
-2.0000

> <Gold.PLP.part.metal>
0.0000

> <Gold.PLP.part.buried>
-7.0643

> <Gold.PLP.part.nonpolar>
-28.1081

> <Gold.PLP.part.repulsive>
0.4345

> <Gold.PLP.ligand.clash>
0.0000

> <Gold.PLP.ligand.torsion>
1.0738

> <Gold.PLP.Chemscore.Hbond>
2.0000

> <Gold.PLP.Chemscore.CHOScore>
0.0000

> <Gold.PLP.Chemscore.Metal>
0.0000

> <Gold.Chemscore.Hbonds>
donor molecule, donor type, donor heavy atom, donor atom, acceptor molecule, acceptor atom, score
      L1  H     6    17       P1  8029  1.00
      P1  H  6933  6944       L1     4  1.00

> <Gold.PLP.Chemscore.Internal.Correction>
0.6076

> <Gold.Rescore>
     Score         DG    S(hbond)    S(metal)    S(lipo)     H(rot)  DE(clash)    DE(int)     intcor
     17.09     -18.15       1.87        0.00      93.64       1.77       0.05       1.01       ----

> <Gold.Chemscore.Fitness>
17.0859

> <Gold.Chemscore.DG>
-18.1455

> <Gold.Chemscore.ZeroCoef>
-5.4800

> <Gold.Chemscore.Hbond>
1.8700

> <Gold.Chemscore.Metal>
0.0000

> <Gold.Chemscore.Lipo>
93.6439

> <Gold.Chemscore.Internal_Hbond>
0.0000

> <Gold.Chemscore.DEClash>
0.0528

> <Gold.Chemscore.DEInternal>
1.0068

> <Gold.Chemscore.Rot>
1.7722

> <Gold.Chemscore.Internal.Correction>
   9.000000E+99

> <Gold.Chemscore.Hbonds>
donor molecule, donor type, donor heavy atom, donor atom, acceptor molecule, acceptor atom, score
      L1  H     6    17       P1  8029  0.99
      P1  H  6933  6944       L1     4  0.78

> <Gold.Chemscore.Hbond.Weighted>
-6.2459

> <Gold.Chemscore.Metal.Weighted>
-0.0000

> <Gold.Chemscore.Lipo.Weighted>
-10.9563

> <Gold.Chemscore.Internal_Hbond.Weighted>
0.0000

> <Gold.Chemscore.DEClash.Weighted>
0.0528

> <Gold.Chemscore.DEInternal.Weighted>
1.0068

> <Gold.Chemscore.Rot.Weighted>
4.5367

> <Gold.Chemscore.Internal.Correction.Weighted>
   9.000000E+99

> <Gold.Protein.RotatedTorsions>
[ 6907 6896 6895 6894 ] final   22.41 input  -60.11 | X-H torsion
[ 7974 7965 7964 7962 ] final  154.56 input  175.53 | X-H torsion
[ 8008 7997 7996 7995 ] final   85.90 input   59.86 | X-H torsion
[ 10167 10162 10161 10158 ] final -117.42 input  -65.29 | X-H torsion
[ 10718 10713 10712 10709 ] final   10.99 input   66.30 | X-H torsion
[ 10763 10752 10751 10750 ] final  -78.71 input  -60.55 | X-H torsion
[ 11005 11000 10999 10996 ] final -165.67 input  -57.11 | X-H torsion

> <Gold.Protein.ActiveResidues>
 VAL166  LYS551  ARG553  GLY616  TRP617  ASP618  TYR619  PRO620  LYS621  CYS622 
 ASP623  PHE694  ASN695  SER759  ASP760  ASP761  ALA762  ILE779  LEU786  VAL792 
 PHE793  MET794  SER795  GLU796  ALA797  LYS798  CYS799  TRP800  GLU811  SER814 

> <Gold.Protein.RotatedAtoms>
  151.9268  135.0274  160.0525 H   0  0  0  0  0  0  0  0  0  0  0  0  # atno 6907 bound_to 6896
  152.2153  133.4937  159.5141 H   0  0  0  0  0  0  0  0  0  0  0  0  # atno 6908 bound_to 6896
  150.6986  134.1330  159.4119 H   0  0  0  0  0  0  0  0  0  0  0  0  # atno 6909 bound_to 6896
  144.8081  139.6949  143.6153 H   0  0  0  0  0  0  0  0  0  0  0  0  # atno 7974 bound_to 7965
  155.9559  140.3397  155.6448 H   0  0  0  0  0  0  0  0  0  0  0  0  # atno 8008 bound_to 7997
  155.6860  140.0743  157.2484 H   0  0  0  0  0  0  0  0  0  0  0  0  # atno 8009 bound_to 7997
  154.4132  140.1665  156.2022 H   0  0  0  0  0  0  0  0  0  0  0  0  # atno 8010 bound_to 7997
  140.0686  143.4899  152.1992 H   0  0  0  0  0  0  0  0  0  0  0  0  # atno 10167 bound_to 10162
  156.9890  130.6035  149.5684 H   0  0  0  0  0  0  0  0  0  0  0  0  # atno 10718 bound_to 10713
  154.5293  135.5720  153.6746 H   0  0  0  0  0  0  0  0  0  0  0  0  # atno 10763 bound_to 10752
  152.9935  135.6201  154.2650 H   0  0  0  0  0  0  0  0  0  0  0  0  # atno 10764 bound_to 10752
  154.2575  135.2857  155.2771 H   0  0  0  0  0  0  0  0  0  0  0  0  # atno 10765 bound_to 10752
  140.5731  134.5217  157.5165 H   0  0  0  0  0  0  0  0  0  0  0  0  # atno 11005 bound_to 11000
  146.2376  139.5936  142.9513 LP  0  0  0  0  0  0  0  0  0  0  0  0  # atno 17320 bound_to 7965
  145.5389  141.0422  143.2341 LP  0  0  0  0  0  0  0  0  0  0  0  0  # atno 17321 bound_to 7965
  139.5850  144.7527  151.3543 LP  0  0  0  0  0  0  0  0  0  0  0  0  # atno 17342 bound_to 10162
  140.7137  143.7323  150.7614 LP  0  0  0  0  0  0  0  0  0  0  0  0  # atno 17343 bound_to 10162
  156.0214  130.5309  150.8287 LP  0  0  0  0  0  0  0  0  0  0  0  0  # atno 17370 bound_to 10713
  157.5472  131.0943  150.9746 LP  0  0  0  0  0  0  0  0  0  0  0  0  # atno 17371 bound_to 10713
  139.9352  134.7888  156.0822 LP  0  0  0  0  0  0  0  0  0  0  0  0  # atno 17394 bound_to 11000
  141.1043  133.6665  156.2828 LP  0  0  0  0  0  0  0  0  0  0  0  0  # atno 17395 bound_to 11000

$$$$
