AV-unprocessed.smi:1481|AV-procd|sdf|5987|dock2
  -GOLD-   22720 6 83D 1   1.00000     0.00000
 Structure written by MMmdl.
 39 40  0  0  0  0  0  0  0  0  1 V2000
  150.4068  135.9376  156.1410 O   0  0  0  0  0  0  0  0  0  0  0  0
  149.9794  136.1581  155.0076 C   0  0  0  0  0  0  0  0  0  0  0  0
  150.5944  136.9453  154.1136 N   0  0  0  0  0  0  0  0  0  0  0  0
  151.8600  137.6350  154.3453 C   0  0  0  0  0  0  0  0  0  0  0  0
  151.7647  138.8206  155.2959 C   0  0  0  0  0  0  0  0  0  0  0  0
  150.8916  139.9032  155.0592 C   0  0  0  0  0  0  0  0  0  0  0  0
  150.8557  140.9669  155.9803 C   0  0  0  0  0  0  0  0  0  0  0  0
  151.6932  140.9230  157.1203 C   0  0  0  0  0  0  0  0  0  0  0  0
  151.6805  141.9835  158.0528 N   0  0  0  0  0  0  0  0  0  0  0  0
  152.5017  141.8479  159.2547 C   0  0  0  0  0  0  0  0  0  0  0  0
  152.1496  142.9460  160.2722 C   0  0  0  0  0  0  0  0  0  0  0  0
  152.2793  144.2251  159.6610 O   0  0  0  0  0  0  0  0  0  0  0  0
  151.3902  144.3770  158.5597 C   0  0  0  0  0  0  0  0  0  0  0  0
  151.7106  143.3278  157.4809 C   0  0  0  0  0  0  0  0  0  0  0  0
  152.5180  139.8719  157.3525 N   0  0  0  0  0  0  0  0  0  0  0  0
  152.5501  138.8556  156.4653 C   0  0  0  0  0  0  0  0  0  0  0  0
  148.8508  135.6314  154.5142 N   0  0  0  0  0  0  0  0  0  0  0  0
  147.9851  134.6954  155.2242 C   0  0  0  0  0  0  0  0  0  0  0  0
  147.8498  133.3576  154.4771 C   0  0  0  0  0  0  0  0  0  0  0  0
  147.2792  133.5744  153.2929 F   0  0  0  0  0  0  0  0  0  0  0  0
  149.0526  132.8178  154.2786 F   0  0  0  0  0  0  0  0  0  0  0  0
  147.0928  132.5014  155.1631 F   0  0  0  0  0  0  0  0  0  0  0  0
  150.1668  137.0670  153.2074 H   0  0  0  0  0  0  0  0  0  0  0  0
  152.5661  136.9178  154.7643 H   0  0  0  0  0  0  0  0  0  0  0  0
  152.2793  137.9594  153.3913 H   0  0  0  0  0  0  0  0  0  0  0  0
  150.2539  139.9252  154.1881 H   0  0  0  0  0  0  0  0  0  0  0  0
  150.1807  141.7919  155.8089 H   0  0  0  0  0  0  0  0  0  0  0  0
  152.3447  140.8700  159.7114 H   0  0  0  0  0  0  0  0  0  0  0  0
  153.5559  141.9164  158.9819 H   0  0  0  0  0  0  0  0  0  0  0  0
  151.1356  142.8133  160.6529 H   0  0  0  0  0  0  0  0  0  0  0  0
  152.8207  142.8924  161.1296 H   0  0  0  0  0  0  0  0  0  0  0  0
  150.3564  144.2839  158.8973 H   0  0  0  0  0  0  0  0  0  0  0  0
  151.5011  145.3811  158.1503 H   0  0  0  0  0  0  0  0  0  0  0  0
  152.7027  143.5110  157.0661 H   0  0  0  0  0  0  0  0  0  0  0  0
  151.0007  143.4358  156.6621 H   0  0  0  0  0  0  0  0  0  0  0  0
  153.2275  138.0468  156.6965 H   0  0  0  0  0  0  0  0  0  0  0  0
  148.5845  135.8708  153.5704 H   0  0  0  0  0  0  0  0  0  0  0  0
  148.3496  134.5295  156.2395 H   0  0  0  0  0  0  0  0  0  0  0  0
  147.0038  135.1597  155.3243 H   0  0  0  0  0  0  0  0  0  0  0  0
  1  2  2  0  0  0  0
  2  3  1  0  0  0  0
  2 17  1  0  0  0  0
  3  4  1  0  0  0  0
  3 23  1  0  0  0  0
  4  5  1  0  0  0  0
  4 24  1  0  0  0  0
  4 25  1  0  0  0  0
  5 16  1  0  0  0  0
  5  6  2  0  0  0  0
  6  7  1  0  0  0  0
  6 26  1  0  0  0  0
  7  8  2  0  0  0  0
  7 27  1  0  0  0  0
  8  9  1  0  0  0  0
  8 15  1  0  0  0  0
  9 14  1  0  0  0  0
  9 10  1  0  0  0  0
 10 11  1  0  0  0  0
 10 28  1  0  0  0  0
 10 29  1  0  0  0  0
 11 12  1  0  0  0  0
 11 30  1  0  0  0  0
 11 31  1  0  0  0  0
 12 13  1  0  0  0  0
 13 14  1  0  0  0  0
 13 32  1  0  0  0  0
 13 33  1  0  0  0  0
 14 34  1  0  0  0  0
 14 35  1  0  0  0  0
 15 16  2  0  0  0  0
 16 36  1  0  0  0  0
 17 18  1  0  0  0  0
 17 37  1  0  0  0  0
 18 19  1  0  0  0  0
 18 38  1  0  0  0  0
 18 39  1  0  0  0  0
 19 20  1  0  0  0  0
 19 21  1  0  0  0  0
 19 22  1  0  0  0  0
M  END
> <s_m_source_file>
AV-unprocessed.smi

> <i_m_source_file_index>
1481

> <i_lp_mmshare_version>
43012

> <i_f3d_flags>
0

> <s_epik_input>
RkMoRikoRilbQ0gyXVtOSF1DKD1PKVtOSF1bQ0gyXWMxW2NIXVtjSF1jKG5bY0hdMSlOMltDSDJdW0NIMl1PW0NIMl1bQ0gyXTI=

> <s_epik_cmdline>
J2VwaWtfcHl0aG9uJywgJy1waCcsICc3LjAnLCAnLXRuJywgJzgnLCAnLW1hJywgJzIwMCcsICctbWV0YWxfYmluZGluZycsICctaW1hZScsICc8aW5maWxlLm1hZT4nLCAnLW9tYWUnLCAnPG91dGZpbGUubWFlPic=

> <r_lp_tautomer_probability>
1

> <r_epik_Ionization_Penalty>
0.00288034

> <r_epik_Ionization_Penalty_Charging>
0

> <r_epik_Ionization_Penalty_Neutral>
0.00288034

> <r_epik_State_Penalty>
0.00199456

> <r_epik_Charging_Adjusted_Penalty>
0.00199456

> <i_epik_Tot_Q>
0

> <i_epik_Tot_abs_Q>
0

> <r_epik_Metal_State_Penalty>
-0

> <b_epik_Metal_Only>
0

> <s_lp_Force_Field>
OPLS_2005

> <r_lp_Energy>
12.6538

> <b_lp_Chiralities_Consistent>
1

> <s_lp_Variant>
AV-unprocessed.smi:1481-1

> <Gold.Version>
5.8.1

> <Gold.Id.Protein>
6NUR|6NUR_protein|mol2

> <Gold.PLP.Fitness>
45.0532

> <Gold.PLP.PLP>
-39.3817

> <Gold.PLP.part.hbond>
-4.0000

> <Gold.PLP.part.metal>
0.0000

> <Gold.PLP.part.buried>
-3.2253

> <Gold.PLP.part.nonpolar>
-33.1289

> <Gold.PLP.part.repulsive>
0.1440

> <Gold.PLP.ligand.clash>
0.0000

> <Gold.PLP.ligand.torsion>
0.2832

> <Gold.PLP.Chemscore.Hbond>
1.9535

> <Gold.PLP.Chemscore.CHOScore>
0.0000

> <Gold.PLP.Chemscore.Metal>
0.0000

> <Gold.Chemscore.Hbonds>
donor molecule, donor type, donor heavy atom, donor atom, acceptor molecule, acceptor atom, score
      L1  H     3    23       P1  7948  0.63
      L1  H    17    37       P1  7948  1.00
      P1  H  7997  8010       L1    15  0.19

> <Gold.PLP.Chemscore.Internal.Correction>
0.3775

> <Gold.Rescore>
     Score         DG    S(hbond)    S(metal)    S(lipo)     H(rot)  DE(clash)    DE(int)     intcor
     13.81     -14.06       1.19        0.00      85.11       2.09       0.04       0.22       ----

> <Gold.Chemscore.Fitness>
13.8060

> <Gold.Chemscore.DG>
-14.0634

> <Gold.Chemscore.ZeroCoef>
-5.4800

> <Gold.Chemscore.Hbond>
1.1902

> <Gold.Chemscore.Metal>
0.0000

> <Gold.Chemscore.Lipo>
85.1140

> <Gold.Chemscore.Internal_Hbond>
0.0000

> <Gold.Chemscore.DEClash>
0.0407

> <Gold.Chemscore.DEInternal>
0.2167

> <Gold.Chemscore.Rot>
2.0899

> <Gold.Chemscore.Internal.Correction>
   9.000000E+99

> <Gold.Chemscore.Hbonds>
donor molecule, donor type, donor heavy atom, donor atom, acceptor molecule, acceptor atom, score
      L1  H     3    23       P1  7948  0.06
      L1  H    17    37       P1  7948  0.96

> <Gold.Chemscore.Hbond.Weighted>
-3.9753

> <Gold.Chemscore.Metal.Weighted>
-0.0000

> <Gold.Chemscore.Lipo.Weighted>
-9.9583

> <Gold.Chemscore.Internal_Hbond.Weighted>
0.0000

> <Gold.Chemscore.DEClash.Weighted>
0.0407

> <Gold.Chemscore.DEInternal.Weighted>
0.2167

> <Gold.Chemscore.Rot.Weighted>
5.3502

> <Gold.Chemscore.Internal.Correction.Weighted>
   9.000000E+99

> <Gold.Protein.RotatedTorsions>
[ 6907 6896 6895 6894 ] final  -21.42 input  -60.11 | X-H torsion
[ 7974 7965 7964 7962 ] final  174.54 input  175.53 | X-H torsion
[ 8008 7997 7996 7995 ] final   29.52 input   59.86 | X-H torsion
[ 10167 10162 10161 10158 ] final  150.38 input  -65.29 | X-H torsion
[ 10718 10713 10712 10709 ] final   72.73 input   66.30 | X-H torsion
[ 10763 10752 10751 10750 ] final    8.63 input  -60.55 | X-H torsion
[ 11005 11000 10999 10996 ] final  -15.66 input  -57.11 | X-H torsion

> <Gold.Protein.ActiveResidues>
 VAL166  LYS551  ARG553  GLY616  TRP617  ASP618  TYR619  PRO620  LYS621  CYS622 
 ASP623  PHE694  ASN695  SER759  ASP760  ASP761  ALA762  ILE779  LEU786  VAL792 
 PHE793  MET794  SER795  GLU796  ALA797  LYS798  CYS799  TRP800  GLU811  SER814 

> <Gold.Protein.RotatedAtoms>
  151.2335  135.0563  159.8996 H   0  0  0  0  0  0  0  0  0  0  0  0  # atno 6907 bound_to 6896
  152.5402  134.0511  159.8120 H   0  0  0  0  0  0  0  0  0  0  0  0  # atno 6908 bound_to 6896
  151.0694  133.5430  159.2660 H   0  0  0  0  0  0  0  0  0  0  0  0  # atno 6909 bound_to 6896
  144.7219  139.9812  143.6439 H   0  0  0  0  0  0  0  0  0  0  0  0  # atno 7974 bound_to 7965
  155.0758  140.3205  155.4616 H   0  0  0  0  0  0  0  0  0  0  0  0  # atno 8008 bound_to 7997
  156.2779  140.2103  156.5831 H   0  0  0  0  0  0  0  0  0  0  0  0  # atno 8009 bound_to 7997
  154.7018  140.0506  157.0453 H   0  0  0  0  0  0  0  0  0  0  0  0  # atno 8010 bound_to 7997
  139.4851  144.5526  151.7373 H   0  0  0  0  0  0  0  0  0  0  0  0  # atno 10167 bound_to 10162
  157.6515  130.9593  150.0970 H   0  0  0  0  0  0  0  0  0  0  0  0  # atno 10718 bound_to 10713
  153.2229  135.6883  153.7979 H   0  0  0  0  0  0  0  0  0  0  0  0  # atno 10763 bound_to 10752
  153.7171  135.3273  155.3259 H   0  0  0  0  0  0  0  0  0  0  0  0  # atno 10764 bound_to 10752
  154.8278  135.4604  154.1084 H   0  0  0  0  0  0  0  0  0  0  0  0  # atno 10765 bound_to 10752
  140.7989  133.8230  155.9450 H   0  0  0  0  0  0  0  0  0  0  0  0  # atno 11005 bound_to 11000
  146.0486  139.3489  143.0653 LP  0  0  0  0  0  0  0  0  0  0  0  0  # atno 17320 bound_to 7965
  145.8244  140.9663  143.0882 LP  0  0  0  0  0  0  0  0  0  0  0  0  # atno 17321 bound_to 7965
  140.5083  144.1064  150.5988 LP  0  0  0  0  0  0  0  0  0  0  0  0  # atno 17342 bound_to 10162
  140.3981  143.2718  151.9980 LP  0  0  0  0  0  0  0  0  0  0  0  0  # atno 17343 bound_to 10162
  156.1903  130.3654  149.8918 LP  0  0  0  0  0  0  0  0  0  0  0  0  # atno 17370 bound_to 10713
  156.6848  130.8872  151.3580 LP  0  0  0  0  0  0  0  0  0  0  0  0  # atno 17371 bound_to 10713
  140.9315  134.2016  157.4860 LP  0  0  0  0  0  0  0  0  0  0  0  0  # atno 17394 bound_to 11000
  139.8723  134.9835  156.5199 LP  0  0  0  0  0  0  0  0  0  0  0  0  # atno 17395 bound_to 11000

$$$$
