AV-unprocessed.smi:2695|AV-procd|sdf|10409|dock1
  -GOLD-   2272014443D 1   1.00000     0.00000
 Structure written by MMmdl.
 42 43  0  0  0  0  0  0  0  0  1 V2000
  150.1950  135.6971  156.9186 C   0  0  0  0  0  0  0  0  0  0  0  0
  150.2549  136.9723  156.0859 C   0  0  0  0  0  0  0  0  0  0  0  0
  149.3998  137.1777  155.0675 C   0  0  0  0  0  0  0  0  0  0  0  0
  149.5055  138.3769  154.2734 C   0  0  0  0  0  0  0  0  0  0  0  0
  148.6510  138.5901  153.2652 O   0  0  0  0  0  0  0  0  0  0  0  0
  150.4727  139.2722  154.5453 C   0  0  0  0  0  0  0  0  0  0  0  0
  151.4255  139.0739  155.6402 C   0  0  0  0  0  0  0  0  0  0  0  0
  152.3167  139.8931  155.8689 O   0  0  0  0  0  0  0  0  0  0  0  0
  151.2617  137.9357  156.3891 N   0  0  0  0  0  0  0  0  0  0  0  0
  152.1669  137.7171  157.5412 C   0  0  0  0  0  0  0  0  0  0  0  0
  151.9002  138.6633  158.7218 C   0  0  0  0  0  0  0  0  0  0  0  0
  150.9885  138.4405  159.5196 O   0  0  0  0  0  0  0  0  0  0  0  0
  152.7046  139.7342  158.8009 N   0  0  0  0  0  0  0  0  0  0  0  0
  152.6469  140.7822  159.8222 C   0  0  2  0  0  0  0  0  0  0  0  0
  152.6258  142.1747  159.1383 C   0  0  0  0  0  0  0  0  0  0  0  0
  152.2992  143.3505  160.0688 C   0  0  0  0  0  0  0  0  0  0  0  0
  151.7832  144.4778  159.1644 C   0  0  0  0  0  0  0  0  0  0  0  0
  151.4358  143.8301  157.8178 C   0  0  0  0  0  0  0  0  0  0  0  0
  151.5735  142.3219  158.0312 C   0  0  0  0  0  0  0  0  0  0  0  0
  153.8256  140.5831  160.8023 C   0  0  0  0  0  0  0  0  0  0  0  0
  153.6684  141.3746  161.8642 F   0  0  0  0  0  0  0  0  0  0  0  0
  153.8822  139.3173  161.2185 F   0  0  0  0  0  0  0  0  0  0  0  0
  154.9849  140.9017  160.2282 F   0  0  0  0  0  0  0  0  0  0  0  0
  149.5687  134.9498  156.4306 H   0  0  0  0  0  0  0  0  0  0  0  0
  149.7632  135.8988  157.8991 H   0  0  0  0  0  0  0  0  0  0  0  0
  151.1785  135.2458  157.0481 H   0  0  0  0  0  0  0  0  0  0  0  0
  148.6439  136.4425  154.8316 H   0  0  0  0  0  0  0  0  0  0  0  0
  148.7604  137.8855  152.6450 H   0  0  0  0  0  0  0  0  0  0  0  0
  150.5531  140.1674  153.9454 H   0  0  0  0  0  0  0  0  0  0  0  0
  152.0861  136.6904  157.9038 H   0  0  0  0  0  0  0  0  0  0  0  0
  153.2142  137.7960  157.2533 H   0  0  0  0  0  0  0  0  0  0  0  0
  153.4249  139.8322  158.1000 H   0  0  0  0  0  0  0  0  0  0  0  0
  151.7270  140.6752  160.3999 H   0  0  0  0  0  0  0  0  0  0  0  0
  153.6031  142.3626  158.6908 H   0  0  0  0  0  0  0  0  0  0  0  0
  151.5131  143.0631  160.7683 H   0  0  0  0  0  0  0  0  0  0  0  0
  153.1619  143.6678  160.6553 H   0  0  0  0  0  0  0  0  0  0  0  0
  150.9142  144.9623  159.6104 H   0  0  0  0  0  0  0  0  0  0  0  0
  152.5470  145.2439  159.0262 H   0  0  0  0  0  0  0  0  0  0  0  0
  150.4386  144.1030  157.4710 H   0  0  0  0  0  0  0  0  0  0  0  0
  152.1477  144.1604  157.0601 H   0  0  0  0  0  0  0  0  0  0  0  0
  151.8495  141.8020  157.1131 H   0  0  0  0  0  0  0  0  0  0  0  0
  150.6198  141.9128  158.3687 H   0  0  0  0  0  0  0  0  0  0  0  0
  1  2  1  0  0  0  0
  1 24  1  0  0  0  0
  1 25  1  0  0  0  0
  1 26  1  0  0  0  0
  2  9  1  0  0  0  0
  2  3  2  0  0  0  0
  3  4  1  0  0  0  0
  3 27  1  0  0  0  0
  4  5  1  0  0  0  0
  4  6  2  0  0  0  0
  5 28  1  0  0  0  0
  6  7  1  0  0  0  0
  6 29  1  0  0  0  0
  7  8  2  0  0  0  0
  7  9  1  0  0  0  0
  9 10  1  0  0  0  0
 10 11  1  0  0  0  0
 10 30  1  0  0  0  0
 10 31  1  0  0  0  0
 11 12  2  0  0  0  0
 11 13  1  0  0  0  0
 13 14  1  0  0  0  0
 13 32  1  0  0  0  0
 14 15  1  0  0  0  0
 14 20  1  0  0  0  0
 14 33  1  0  0  0  0
 15 19  1  0  0  0  0
 15 16  1  0  0  0  0
 15 34  1  0  0  0  0
 16 17  1  0  0  0  0
 16 35  1  0  0  0  0
 16 36  1  0  0  0  0
 17 18  1  0  0  0  0
 17 37  1  0  0  0  0
 17 38  1  0  0  0  0
 18 19  1  0  0  0  0
 18 39  1  0  0  0  0
 18 40  1  0  0  0  0
 19 41  1  0  0  0  0
 19 42  1  0  0  0  0
 20 21  1  0  0  0  0
 20 22  1  0  0  0  0
 20 23  1  0  0  0  0
M  END
> <s_m_source_file>
AV-unprocessed.smi

> <i_m_source_file_index>
2695

> <i_lp_mmshare_version>
43012

> <i_f3d_flags>
0

> <s_epik_input>
W0NIM11jMVtjSF1jKFtPSF0pW2NIXWMoPU8pbjFbQ0gyXUMoPU8pW05IXVtDQEBIXShDKEYpKEYpRilbQ0hdMltDSDJdW0NIMl1bQ0gyXVtDSDJdMg==

> <s_epik_cmdline>
J2VwaWtfcHl0aG9uJywgJy1waCcsICc3LjAnLCAnLXRuJywgJzgnLCAnLW1hJywgJzIwMCcsICctbWV0YWxfYmluZGluZycsICctaW1hZScsICc8aW5maWxlLm1hZT4nLCAnLW9tYWUnLCAnPG91dGZpbGUubWFlPic=

> <r_lp_tautomer_probability>
0.999984

> <r_epik_Ionization_Penalty>
0.843628

> <r_epik_Ionization_Penalty_Charging>
1.18449e-07

> <r_epik_Ionization_Penalty_Neutral>
0.843628

> <r_epik_State_Penalty>
0.886913

> <r_epik_Charging_Adjusted_Penalty>
0.886913

> <i_epik_Tot_Q>
0

> <i_epik_Tot_abs_Q>
0

> <r_epik_Metal_State_Penalty>
0.886913

> <b_epik_Metal_Only>
0

> <s_lp_Force_Field>
OPLS_2005

> <r_lp_Energy>
35.2102

> <b_lp_Chiralities_Consistent>
1

> <s_lp_Variant>
AV-unprocessed.smi:2695-3

> <Gold.Version>
5.8.1

> <Gold.Id.Protein>
6NUR|6NUR_protein|mol2

> <Gold.PLP.Fitness>
49.6562

> <Gold.PLP.PLP>
-44.7516

> <Gold.PLP.part.hbond>
-3.4541

> <Gold.PLP.part.metal>
0.0000

> <Gold.PLP.part.buried>
-2.6389

> <Gold.PLP.part.nonpolar>
-38.7650

> <Gold.PLP.part.repulsive>
0.0981

> <Gold.PLP.ligand.clash>
0.0000

> <Gold.PLP.ligand.torsion>
0.7810

> <Gold.PLP.Chemscore.Hbond>
2.0000

> <Gold.PLP.Chemscore.CHOScore>
0.0000

> <Gold.PLP.Chemscore.Metal>
0.0000

> <Gold.Chemscore.Hbonds>
donor molecule, donor type, donor heavy atom, donor atom, acceptor molecule, acceptor atom, score
      L1  H     5    28       P1  7948  1.00
      P1  H  7997  8008       L1     8  0.89

> <Gold.PLP.Chemscore.Internal.Correction>
0.4667

> <Gold.Rescore>
     Score         DG    S(hbond)    S(metal)    S(lipo)     H(rot)  DE(clash)    DE(int)     intcor
     17.06     -18.22       2.00        0.00     103.43       2.36       0.20       0.96       ----

> <Gold.Chemscore.Fitness>
17.0606

> <Gold.Chemscore.DG>
-18.2192

> <Gold.Chemscore.ZeroCoef>
-5.4800

> <Gold.Chemscore.Hbond>
1.9998

> <Gold.Chemscore.Metal>
0.0000

> <Gold.Chemscore.Lipo>
103.4276

> <Gold.Chemscore.Internal_Hbond>
0.0000

> <Gold.Chemscore.DEClash>
0.2022

> <Gold.Chemscore.DEInternal>
0.9564

> <Gold.Chemscore.Rot>
2.3599

> <Gold.Chemscore.Internal.Correction>
   9.000000E+99

> <Gold.Chemscore.Hbonds>
donor molecule, donor type, donor heavy atom, donor atom, acceptor molecule, acceptor atom, score
      L1  H     5    28       P1  7948  1.00
      P1  H  7997  8008       L1     8  0.87

> <Gold.Chemscore.Hbond.Weighted>
-6.6795

> <Gold.Chemscore.Metal.Weighted>
-0.0000

> <Gold.Chemscore.Lipo.Weighted>
-12.1010

> <Gold.Chemscore.Internal_Hbond.Weighted>
0.0000

> <Gold.Chemscore.DEClash.Weighted>
0.2022

> <Gold.Chemscore.DEInternal.Weighted>
0.9564

> <Gold.Chemscore.Rot.Weighted>
6.0413

> <Gold.Chemscore.Internal.Correction.Weighted>
   9.000000E+99

> <Gold.Protein.RotatedTorsions>
[ 6907 6896 6895 6894 ] final  -51.04 input  -60.11 | X-H torsion
[ 7974 7965 7964 7962 ] final    8.86 input  175.53 | X-H torsion
[ 8008 7997 7996 7995 ] final  -33.66 input   59.86 | X-H torsion
[ 10167 10162 10161 10158 ] final  151.44 input  -65.29 | X-H torsion
[ 10718 10713 10712 10709 ] final  -91.51 input   66.30 | X-H torsion
[ 10763 10752 10751 10750 ] final  117.44 input  -60.55 | X-H torsion
[ 11005 11000 10999 10996 ] final  -43.62 input  -57.11 | X-H torsion

> <Gold.Protein.ActiveResidues>
 VAL166  LYS551  ARG553  GLY616  TRP617  ASP618  TYR619  PRO620  LYS621  CYS622 
 ASP623  PHE694  ASN695  SER759  ASP760  ASP761  ALA762  ILE779  LEU786  VAL792 
 PHE793  MET794  SER795  GLU796  ALA797  LYS798  CYS799  TRP800  GLU811  SER814 

> <Gold.Protein.RotatedAtoms>
  150.8649  134.8010  159.7110 H   0  0  0  0  0  0  0  0  0  0  0  0  # atno 6907 bound_to 6896
  152.4674  134.5040  159.9743 H   0  0  0  0  0  0  0  0  0  0  0  0  # atno 6908 bound_to 6896
  151.5138  133.3441  159.2925 H   0  0  0  0  0  0  0  0  0  0  0  0  # atno 6909 bound_to 6896
  146.2411  139.9871  142.8430 H   0  0  0  0  0  0  0  0  0  0  0  0  # atno 7974 bound_to 7965
  154.4142  140.1705  156.1923 H   0  0  0  0  0  0  0  0  0  0  0  0  # atno 8008 bound_to 7997
  155.9593  140.3395  155.6452 H   0  0  0  0  0  0  0  0  0  0  0  0  # atno 8009 bound_to 7997
  155.6769  140.0718  157.2490 H   0  0  0  0  0  0  0  0  0  0  0  0  # atno 8010 bound_to 7997
  139.4840  144.5441  151.7514 H   0  0  0  0  0  0  0  0  0  0  0  0  # atno 10167 bound_to 10162
  155.9994  130.4951  150.5486 H   0  0  0  0  0  0  0  0  0  0  0  0  # atno 10718 bound_to 10713
  153.5524  135.3537  155.2765 H   0  0  0  0  0  0  0  0  0  0  0  0  # atno 10763 bound_to 10752
  154.8705  135.4117  154.2922 H   0  0  0  0  0  0  0  0  0  0  0  0  # atno 10764 bound_to 10752
  153.3651  135.7061  153.6750 H   0  0  0  0  0  0  0  0  0  0  0  0  # atno 10765 bound_to 10752
  141.0396  133.6785  156.2759 H   0  0  0  0  0  0  0  0  0  0  0  0  # atno 11005 bound_to 11000
  145.1538  140.9637  143.4417 LP  0  0  0  0  0  0  0  0  0  0  0  0  # atno 17320 bound_to 7965
  145.0180  139.3450  143.6086 LP  0  0  0  0  0  0  0  0  0  0  0  0  # atno 17321 bound_to 7965
  140.4985  144.1205  150.5965 LP  0  0  0  0  0  0  0  0  0  0  0  0  # atno 17342 bound_to 10162
  140.4090  143.2666  151.9856 LP  0  0  0  0  0  0  0  0  0  0  0  0  # atno 17343 bound_to 10162
  157.3412  131.0717  151.1786 LP  0  0  0  0  0  0  0  0  0  0  0  0  # atno 17370 bound_to 10713
  157.2634  130.6670  149.5985 LP  0  0  0  0  0  0  0  0  0  0  0  0  # atno 17371 bound_to 10713
  140.6259  134.5314  157.5553 LP  0  0  0  0  0  0  0  0  0  0  0  0  # atno 17394 bound_to 11000
  139.9266  134.8044  156.1051 LP  0  0  0  0  0  0  0  0  0  0  0  0  # atno 17395 bound_to 11000

$$$$
