AV-unprocessed.smi:2775|AV-procd|sdf|10690|dock3
  -GOLD-   2272015133D 1   1.00000     0.00000
 Structure written by MMmdl.
 42 45  0  0  0  0  0  0  0  0  1 V2000
  149.8744  130.4194  153.6213 C   0  0  0  0  0  0  0  0  0  0  0  0
  150.3047  131.6645  154.3744 C   0  0  0  0  0  0  0  0  0  0  0  0
  151.1317  131.4579  155.4224 N   0  0  0  0  0  0  0  0  0  0  0  0
  151.5408  132.5314  156.1291 C   0  0  0  0  0  0  0  0  0  0  0  0
  151.1560  133.8514  155.8269 C   0  0  0  0  0  0  0  0  0  0  0  0
  150.3005  134.0731  154.7209 C   0  0  0  0  0  0  0  0  0  0  0  0
  149.8324  135.3564  154.3252 N   0  0  0  0  0  0  0  0  0  0  0  0
  149.6597  136.4758  155.0546 C   0  0  0  0  0  0  0  0  0  0  0  0
  149.8907  136.5788  156.2571 O   0  0  0  0  0  0  0  0  0  0  0  0
  149.2065  137.5213  154.3407 N   0  0  0  0  0  0  0  0  0  0  0  0
  148.9171  138.8700  154.8306 C   0  0  2  0  0  0  0  0  0  0  0  0
  148.5507  139.8425  153.6937 C   0  0  1  0  0  0  0  0  0  0  0  0
  147.1769  140.4550  153.6478 C   0  0  0  0  0  0  0  0  0  0  0  0
  147.3915  141.8248  154.2974 C   0  0  0  0  0  0  0  0  0  0  0  0
  148.5686  141.6689  155.0864 O   0  0  0  0  0  0  0  0  0  0  0  0
  149.4784  140.8632  154.3433 C   0  0  1  0  0  0  0  0  0  0  0  0
  150.1606  139.7353  155.1267 C   0  0  0  0  0  0  0  0  0  0  0  0
  151.5921  139.3011  154.7572 C   0  0  0  0  0  0  0  0  0  0  0  0
  151.8613  139.0605  156.2451 C   0  0  0  0  0  0  0  0  0  0  0  0
  150.6582  139.9534  156.5623 C   0  0  0  0  0  0  0  0  0  0  0  0
  149.8566  132.9488  153.9857 C   0  0  0  0  0  0  0  0  0  0  0  0
  148.7885  133.1400  152.6349 Cl  0  0  0  0  0  0  0  0  0  0  0  0
  150.1869  130.4806  152.5786 H   0  0  0  0  0  0  0  0  0  0  0  0
  148.7897  130.3137  153.6514 H   0  0  0  0  0  0  0  0  0  0  0  0
  150.3124  129.5179  154.0518 H   0  0  0  0  0  0  0  0  0  0  0  0
  152.1931  132.3319  156.9665 H   0  0  0  0  0  0  0  0  0  0  0  0
  151.5143  134.6534  156.4527 H   0  0  0  0  0  0  0  0  0  0  0  0
  149.6504  135.4535  153.3368 H   0  0  0  0  0  0  0  0  0  0  0  0
  149.0395  137.3625  153.3575 H   0  0  0  0  0  0  0  0  0  0  0  0
  148.1841  138.9128  155.6393 H   0  0  0  0  0  0  0  0  0  0  0  0
  148.9369  139.5193  152.7250 H   0  0  0  0  0  0  0  0  0  0  0  0
  146.7916  140.5482  152.6323 H   0  0  0  0  0  0  0  0  0  0  0  0
  146.4659  139.8610  154.2231 H   0  0  0  0  0  0  0  0  0  0  0  0
  147.5729  142.5847  153.5358 H   0  0  0  0  0  0  0  0  0  0  0  0
  146.5415  142.1424  154.9016 H   0  0  0  0  0  0  0  0  0  0  0  0
  150.1018  141.4176  153.6405 H   0  0  0  0  0  0  0  0  0  0  0  0
  151.6802  138.4135  154.1309 H   0  0  0  0  0  0  0  0  0  0  0  0
  152.1881  140.1234  154.3587 H   0  0  0  0  0  0  0  0  0  0  0  0
  151.7093  138.0217  156.5402 H   0  0  0  0  0  0  0  0  0  0  0  0
  152.8179  139.4441  156.6008 H   0  0  0  0  0  0  0  0  0  0  0  0
  150.9423  140.9888  156.7559 H   0  0  0  0  0  0  0  0  0  0  0  0
  149.9987  139.5652  157.3388 H   0  0  0  0  0  0  0  0  0  0  0  0
  1  2  1  0  0  0  0
  1 23  1  0  0  0  0
  1 24  1  0  0  0  0
  1 25  1  0  0  0  0
  2 21  1  0  0  0  0
  2  3  2  0  0  0  0
  3  4  1  0  0  0  0
  4  5  2  0  0  0  0
  4 26  1  0  0  0  0
  5  6  1  0  0  0  0
  5 27  1  0  0  0  0
  6  7  1  0  0  0  0
  6 21  2  0  0  0  0
  7  8  1  0  0  0  0
  7 28  1  0  0  0  0
  8  9  2  0  0  0  0
  8 10  1  0  0  0  0
 10 11  1  0  0  0  0
 10 29  1  0  0  0  0
 11 17  1  0  0  0  0
 11 12  1  0  0  0  0
 11 30  1  0  0  0  0
 12 16  1  0  0  0  0
 12 13  1  0  0  0  0
 12 31  1  0  0  0  0
 13 14  1  0  0  0  0
 13 32  1  0  0  0  0
 13 33  1  0  0  0  0
 14 15  1  0  0  0  0
 14 34  1  0  0  0  0
 14 35  1  0  0  0  0
 15 16  1  0  0  0  0
 16 17  1  0  0  0  0
 16 36  1  0  0  0  0
 17 20  1  0  0  0  0
 17 18  1  0  0  0  0
 18 19  1  0  0  0  0
 18 37  1  0  0  0  0
 18 38  1  0  0  0  0
 19 20  1  0  0  0  0
 19 39  1  0  0  0  0
 19 40  1  0  0  0  0
 20 41  1  0  0  0  0
 20 42  1  0  0  0  0
 21 22  1  0  0  0  0
M  END
> <s_m_source_file>
AV-unprocessed.smi

> <i_m_source_file_index>
2775

> <i_lp_mmshare_version>
43012

> <i_f3d_flags>
0

> <s_epik_input>
W0NIM11jMW5bY0hdW2NIXWMoYzFDbClbTkhdQyg9TylbTkhdW0NAQEhdMltDQEhdKFtDSDJdW0NIMl1PMylbQ0BASF0zQzI0W0NIMl1bQ0gyXVtDSDJdNA==

> <s_epik_cmdline>
J2VwaWtfcHl0aG9uJywgJy1waCcsICc3LjAnLCAnLXRuJywgJzgnLCAnLW1hJywgJzIwMCcsICctbWV0YWxfYmluZGluZycsICctaW1hZScsICc8aW5maWxlLm1hZT4nLCAnLW9tYWUnLCAnPG91dGZpbGUubWFlPic=

> <r_epik_Ionization_Penalty>
0.01026

> <r_epik_Ionization_Penalty_Charging>
0

> <r_epik_Ionization_Penalty_Neutral>
0.01026

> <r_epik_State_Penalty>
0.00780685

> <r_epik_Charging_Adjusted_Penalty>
0.00780685

> <i_epik_Tot_Q>
0

> <i_epik_Tot_abs_Q>
0

> <r_epik_Metal_State_Penalty>
0.00767411

> <b_epik_Metal_Only>
0

> <s_lp_Force_Field>
OPLS_2005

> <r_lp_Energy>
55.7352

> <b_lp_Chiralities_Consistent>
1

> <s_lp_Variant>
AV-unprocessed.smi:2775-3

> <Gold.Version>
5.8.1

> <Gold.Id.Protein>
6NUR|6NUR_protein|mol2

> <Gold.PLP.Fitness>
42.7704

> <Gold.PLP.PLP>
-37.0920

> <Gold.PLP.part.hbond>
-2.0000

> <Gold.PLP.part.metal>
0.0000

> <Gold.PLP.part.buried>
-0.6086

> <Gold.PLP.part.nonpolar>
-35.2903

> <Gold.PLP.part.repulsive>
0.6136

> <Gold.PLP.ligand.clash>
0.0000

> <Gold.PLP.ligand.torsion>
0.2580

> <Gold.PLP.Chemscore.Hbond>
2.0000

> <Gold.PLP.Chemscore.CHOScore>
0.0000

> <Gold.PLP.Chemscore.Metal>
0.0000

> <Gold.Chemscore.Hbonds>
donor molecule, donor type, donor heavy atom, donor atom, acceptor molecule, acceptor atom, score
      L1  H     7    28       P1  7948  0.50
      L1  H    10    29       P1  7948  1.00

> <Gold.PLP.Chemscore.Internal.Correction>
0.1943

> <Gold.Rescore>
     Score         DG    S(hbond)    S(metal)    S(lipo)     H(rot)  DE(clash)    DE(int)     intcor
     18.21     -18.85       1.63        0.00      89.56       1.00       0.12       0.52       ----

> <Gold.Chemscore.Fitness>
18.2146

> <Gold.Chemscore.DG>
-18.8499

> <Gold.Chemscore.ZeroCoef>
-5.4800

> <Gold.Chemscore.Hbond>
1.6322

> <Gold.Chemscore.Metal>
0.0000

> <Gold.Chemscore.Lipo>
89.5581

> <Gold.Chemscore.Internal_Hbond>
0.0000

> <Gold.Chemscore.DEClash>
0.1194

> <Gold.Chemscore.DEInternal>
0.5158

> <Gold.Chemscore.Rot>
1.0000

> <Gold.Chemscore.Internal.Correction>
   9.000000E+99

> <Gold.Chemscore.Hbonds>
donor molecule, donor type, donor heavy atom, donor atom, acceptor molecule, acceptor atom, score
      L1  H     7    28       P1  7948  0.02
      L1  H    10    29       P1  7948  0.96

> <Gold.Chemscore.Hbond.Weighted>
-5.4516

> <Gold.Chemscore.Metal.Weighted>
-0.0000

> <Gold.Chemscore.Lipo.Weighted>
-10.4783

> <Gold.Chemscore.Internal_Hbond.Weighted>
0.0000

> <Gold.Chemscore.DEClash.Weighted>
0.1194

> <Gold.Chemscore.DEInternal.Weighted>
0.5158

> <Gold.Chemscore.Rot.Weighted>
2.5600

> <Gold.Chemscore.Internal.Correction.Weighted>
   9.000000E+99

> <Gold.Protein.RotatedTorsions>
[ 6907 6896 6895 6894 ] final   50.13 input  -60.11 | X-H torsion
[ 7974 7965 7964 7962 ] final  -93.35 input  175.53 | X-H torsion
[ 8008 7997 7996 7995 ] final -110.20 input   59.86 | X-H torsion
[ 10167 10162 10161 10158 ] final    1.01 input  -65.29 | X-H torsion
[ 10718 10713 10712 10709 ] final  -21.32 input   66.30 | X-H torsion
[ 10763 10752 10751 10750 ] final -119.78 input  -60.55 | X-H torsion
[ 11005 11000 10999 10996 ] final   65.23 input  -57.11 | X-H torsion

> <Gold.Protein.ActiveResidues>
 VAL166  LYS551  ARG553  GLY616  TRP617  ASP618  TYR619  PRO620  LYS621  CYS622 
 ASP623  PHE694  ASN695  SER759  ASP760  ASP761  ALA762  ILE779  LEU786  VAL792 
 PHE793  MET794  SER795  GLU796  ALA797  LYS798  CYS799  TRP800  GLU811  SER814 

> <Gold.Protein.RotatedAtoms>
  152.2984  134.7640  160.0362 H   0  0  0  0  0  0  0  0  0  0  0  0  # atno 6907 bound_to 6896
  151.8162  133.3383  159.3578 H   0  0  0  0  0  0  0  0  0  0  0  0  # atno 6908 bound_to 6896
  150.7262  134.5547  159.5856 H   0  0  0  0  0  0  0  0  0  0  0  0  # atno 6909 bound_to 6896
  145.3877  140.9525  143.2358 H   0  0  0  0  0  0  0  0  0  0  0  0  # atno 7974 bound_to 7965
  154.9709  140.0397  157.2234 H   0  0  0  0  0  0  0  0  0  0  0  0  # atno 8008 bound_to 7997
  154.7802  140.2817  155.6047 H   0  0  0  0  0  0  0  0  0  0  0  0  # atno 8009 bound_to 7997
  156.2935  140.2593  156.2626 H   0  0  0  0  0  0  0  0  0  0  0  0  # atno 8010 bound_to 7997
  140.6702  143.7068  150.7908 H   0  0  0  0  0  0  0  0  0  0  0  0  # atno 10167 bound_to 10162
  156.5198  130.4629  149.6603 H   0  0  0  0  0  0  0  0  0  0  0  0  # atno 10718 bound_to 10713
  154.8626  135.4226  154.2353 H   0  0  0  0  0  0  0  0  0  0  0  0  # atno 10763 bound_to 10752
  153.3330  135.6989  153.6937 H   0  0  0  0  0  0  0  0  0  0  0  0  # atno 10764 bound_to 10752
  153.5947  135.3548  155.2897 H   0  0  0  0  0  0  0  0  0  0  0  0  # atno 10765 bound_to 10752
  139.9907  134.6595  156.0095 H   0  0  0  0  0  0  0  0  0  0  0  0  # atno 11005 bound_to 11000
  144.8463  139.5392  143.6877 LP  0  0  0  0  0  0  0  0  0  0  0  0  # atno 17320 bound_to 7965
  146.2812  139.6883  142.9227 LP  0  0  0  0  0  0  0  0  0  0  0  0  # atno 17321 bound_to 7965
  140.0752  143.5022  152.2559 LP  0  0  0  0  0  0  0  0  0  0  0  0  # atno 17342 bound_to 10162
  139.5968  144.7569  151.3268 LP  0  0  0  0  0  0  0  0  0  0  0  0  # atno 17343 bound_to 10162
  156.3161  130.7255  151.2157 LP  0  0  0  0  0  0  0  0  0  0  0  0  # atno 17370 bound_to 10713
  157.7438  131.0468  150.4913 LP  0  0  0  0  0  0  0  0  0  0  0  0  # atno 17371 bound_to 10713
  141.1564  133.6542  156.4174 LP  0  0  0  0  0  0  0  0  0  0  0  0  # atno 17394 bound_to 11000
  140.4913  134.6572  157.5212 LP  0  0  0  0  0  0  0  0  0  0  0  0  # atno 17395 bound_to 11000

$$$$
