AV-unprocessed.smi:816|AV-procd|sdf|3826|dock4
  -GOLD-   22720 1263D 1   1.00000     0.00000
 Structure written by MMmdl.
 40 41  0  0  0  0  0  0  0  0  1 V2000
  146.0364  134.5016  156.2400 C   0  0  0  0  0  0  0  0  0  0  0  0
  147.2049  135.0782  156.9929 C   0  0  0  0  0  0  0  0  0  0  0  0
  148.3168  135.1866  156.3430 N   0  0  0  0  0  0  0  0  0  0  0  0
  149.4510  135.7026  156.9389 N   0  0  0  0  0  0  0  0  0  0  0  0
  150.6244  135.7382  156.0588 C   0  0  0  0  0  0  0  0  0  0  0  0
  150.4548  136.7717  154.9221 C   0  0  2  0  0  0  0  0  0  0  0  0
  151.6661  136.8647  154.1997 O   0  0  0  0  0  0  0  0  0  0  0  0
  150.1397  138.1780  155.4540 C   0  0  0  0  0  0  0  0  0  0  0  0
  151.1555  138.5550  156.3747 O   0  0  0  0  0  0  0  0  0  0  0  0
  151.2151  139.8707  156.7803 C   0  0  0  0  0  0  0  0  0  0  0  0
  151.8470  140.1316  158.0134 C   0  0  0  0  0  0  0  0  0  0  0  0
  151.9572  141.4470  158.5043 C   0  0  0  0  0  0  0  0  0  0  0  0
  151.4312  142.5224  157.7618 C   0  0  0  0  0  0  0  0  0  0  0  0
  151.5432  143.8815  158.2644 C   0  0  0  0  0  0  0  0  0  0  0  0
  151.6324  144.9635  158.6647 N   0  0  0  0  0  0  0  0  0  0  0  0
  150.7949  142.2744  156.5294 C   0  0  0  0  0  0  0  0  0  0  0  0
  150.6858  140.9581  156.0401 C   0  0  0  0  0  0  0  0  0  0  0  0
  149.5259  136.1230  158.2332 C   0  0  0  0  0  0  0  0  0  0  0  0
  150.5671  136.5539  158.7309 O   0  0  0  0  0  0  0  0  0  0  0  0
  148.2609  136.0050  158.9621 C   0  0  0  0  0  0  0  0  0  0  0  0
  148.2918  136.4446  160.3200 C   0  0  0  0  0  0  0  0  0  0  0  0
  148.3020  136.7885  161.4253 N   0  0  0  0  0  0  0  0  0  0  0  0
  147.1373  135.5093  158.3857 C   0  0  0  0  0  0  0  0  0  0  0  0
  145.8005  135.3626  159.0997 C   0  0  0  0  0  0  0  0  0  0  0  0
  145.2479  135.2450  156.1239 H   0  0  0  0  0  0  0  0  0  0  0  0
  145.6191  133.6437  156.7671 H   0  0  0  0  0  0  0  0  0  0  0  0
  146.3219  134.1644  155.2425 H   0  0  0  0  0  0  0  0  0  0  0  0
  151.4900  136.0055  156.6681 H   0  0  0  0  0  0  0  0  0  0  0  0
  150.8672  134.7489  155.6657 H   0  0  0  0  0  0  0  0  0  0  0  0
  149.6631  136.4694  154.2348 H   0  0  0  0  0  0  0  0  0  0  0  0
  151.4632  136.9027  153.2769 H   0  0  0  0  0  0  0  0  0  0  0  0
  150.0800  138.8872  154.6263 H   0  0  0  0  0  0  0  0  0  0  0  0
  149.1761  138.1716  155.9667 H   0  0  0  0  0  0  0  0  0  0  0  0
  152.2539  139.3134  158.5895 H   0  0  0  0  0  0  0  0  0  0  0  0
  152.4471  141.6232  159.4513 H   0  0  0  0  0  0  0  0  0  0  0  0
  150.3867  143.0913  155.9515 H   0  0  0  0  0  0  0  0  0  0  0  0
  150.1898  140.8092  155.0932 H   0  0  0  0  0  0  0  0  0  0  0  0
  145.8230  135.7769  160.1073 H   0  0  0  0  0  0  0  0  0  0  0  0
  145.5268  134.3103  159.1824 H   0  0  0  0  0  0  0  0  0  0  0  0
  145.0127  135.8819  158.5530 H   0  0  0  0  0  0  0  0  0  0  0  0
  1  2  1  0  0  0  0
  1 25  1  0  0  0  0
  1 26  1  0  0  0  0
  1 27  1  0  0  0  0
  2 23  1  0  0  0  0
  2  3  2  0  0  0  0
  3  4  1  0  0  0  0
  4  5  1  0  0  0  0
  4 18  1  0  0  0  0
  5  6  1  0  0  0  0
  5 28  1  0  0  0  0
  5 29  1  0  0  0  0
  6  7  1  0  0  0  0
  6  8  1  0  0  0  0
  6 30  1  0  0  0  0
  7 31  1  0  0  0  0
  8  9  1  0  0  0  0
  8 32  1  0  0  0  0
  8 33  1  0  0  0  0
  9 10  1  0  0  0  0
 10 17  1  0  0  0  0
 10 11  2  0  0  0  0
 11 12  1  0  0  0  0
 11 34  1  0  0  0  0
 12 13  2  0  0  0  0
 12 35  1  0  0  0  0
 13 14  1  0  0  0  0
 13 16  1  0  0  0  0
 14 15  3  0  0  0  0
 16 17  2  0  0  0  0
 16 36  1  0  0  0  0
 17 37  1  0  0  0  0
 18 19  2  0  0  0  0
 18 20  1  0  0  0  0
 20 21  1  0  0  0  0
 20 23  2  0  0  0  0
 21 22  3  0  0  0  0
 23 24  1  0  0  0  0
 24 38  1  0  0  0  0
 24 39  1  0  0  0  0
 24 40  1  0  0  0  0
M  END
> <s_m_source_file>
AV-unprocessed.smi

> <i_m_source_file_index>
816

> <i_lp_mmshare_version>
43012

> <i_f3d_flags>
0

> <s_epik_input>
TiNDYyhjMVtDSDNdKWMoPU8pbihuYzFbQ0gzXSlbQ0gyXVtDQEhdKFtPSF0pW0NIMl1PYzJbY0hdW2NIXWMoQyNOKVtjSF1bY0hdMg==

> <s_epik_cmdline>
J2VwaWtfcHl0aG9uJywgJy1waCcsICc3LjAnLCAnLXRuJywgJzgnLCAnLW1hJywgJzIwMCcsICctbWV0YWxfYmluZGluZycsICctaW1hZScsICc8aW5maWxlLm1hZT4nLCAnLW9tYWUnLCAnPG91dGZpbGUubWFlPic=

> <r_lp_tautomer_probability>
1

> <r_epik_Ionization_Penalty>
1.1732e-07

> <r_epik_Ionization_Penalty_Charging>
1.4567e-10

> <r_epik_Ionization_Penalty_Neutral>
1.17174e-07

> <r_epik_State_Penalty>
-0

> <r_epik_Charging_Adjusted_Penalty>
1.4567e-10

> <i_epik_Tot_Q>
0

> <i_epik_Tot_abs_Q>
0

> <r_epik_Metal_State_Penalty>
-0

> <b_epik_Metal_Only>
0

> <s_lp_Force_Field>
OPLS_2005

> <r_lp_Energy>
30.0039

> <b_lp_Chiralities_Consistent>
1

> <s_lp_Variant>
AV-unprocessed.smi:816-1

> <Gold.Version>
5.8.1

> <Gold.Id.Protein>
6NUR|6NUR_protein|mol2

> <Gold.PLP.Fitness>
43.3909

> <Gold.PLP.PLP>
-31.5527

> <Gold.PLP.part.hbond>
-4.8517

> <Gold.PLP.part.metal>
0.0000

> <Gold.PLP.part.buried>
-7.0723

> <Gold.PLP.part.nonpolar>
-20.5984

> <Gold.PLP.part.repulsive>
0.1015

> <Gold.PLP.ligand.clash>
0.0000

> <Gold.PLP.ligand.torsion>
0.4590

> <Gold.PLP.Chemscore.Hbond>
4.2462

> <Gold.PLP.Chemscore.CHOScore>
0.0000

> <Gold.PLP.Chemscore.Metal>
0.0000

> <Gold.Chemscore.Hbonds>
donor molecule, donor type, donor heavy atom, donor atom, acceptor molecule, acceptor atom, score
      L1  H     7    31       P1  7949  1.00
      P1  H  6896  6907       L1    19  0.90
      P1  H  6931  6943       L1    22  1.00
      P1  H 10752 10765       L1     7  0.95

> <Gold.PLP.Chemscore.Internal.Correction>
0.0176

> <Gold.Rescore>
     Score         DG    S(hbond)    S(metal)    S(lipo)     H(rot)  DE(clash)    DE(int)     intcor
     16.63     -17.15       3.34        0.00      61.64       2.62       0.20       0.31       ----

> <Gold.Chemscore.Fitness>
16.6311

> <Gold.Chemscore.DG>
-17.1459

> <Gold.Chemscore.ZeroCoef>
-5.4800

> <Gold.Chemscore.Hbond>
3.3433

> <Gold.Chemscore.Metal>
0.0000

> <Gold.Chemscore.Lipo>
61.6421

> <Gold.Chemscore.Internal_Hbond>
0.0000

> <Gold.Chemscore.DEClash>
0.2040

> <Gold.Chemscore.DEInternal>
0.3108

> <Gold.Chemscore.Rot>
2.6222

> <Gold.Chemscore.Internal.Correction>
   9.000000E+99

> <Gold.Chemscore.Hbonds>
donor molecule, donor type, donor heavy atom, donor atom, acceptor molecule, acceptor atom, score
      L1  H     7    31       P1  7949  0.76
      P1  H  6896  6907       L1    19  0.17
      P1  H  6931  6943       L1    22  0.99
      P1  H 10752 10765       L1     7  0.21

> <Gold.Chemscore.Hbond.Weighted>
-11.1665

> <Gold.Chemscore.Metal.Weighted>
-0.0000

> <Gold.Chemscore.Lipo.Weighted>
-7.2121

> <Gold.Chemscore.Internal_Hbond.Weighted>
0.0000

> <Gold.Chemscore.DEClash.Weighted>
0.2040

> <Gold.Chemscore.DEInternal.Weighted>
0.3108

> <Gold.Chemscore.Rot.Weighted>
6.7127

> <Gold.Chemscore.Internal.Correction.Weighted>
   9.000000E+99

> <Gold.Protein.RotatedTorsions>
[ 6907 6896 6895 6894 ] final  -36.54 input  -60.11 | X-H torsion
[ 7974 7965 7964 7962 ] final -130.25 input  175.53 | X-H torsion
[ 8008 7997 7996 7995 ] final   89.85 input   59.86 | X-H torsion
[ 10167 10162 10161 10158 ] final   50.76 input  -65.29 | X-H torsion
[ 10718 10713 10712 10709 ] final  152.91 input   66.30 | X-H torsion
[ 10763 10752 10751 10750 ] final  153.65 input  -60.55 | X-H torsion
[ 11005 11000 10999 10996 ] final  144.45 input  -57.11 | X-H torsion

> <Gold.Protein.ActiveResidues>
 VAL166  LYS551  ARG553  GLY616  TRP617  ASP618  TYR619  PRO620  LYS621  CYS622 
 ASP623  PHE694  ASN695  SER759  ASP760  ASP761  ALA762  ILE779  LEU786  VAL792 
 PHE793  MET794  SER795  GLU796  ALA797  LYS798  CYS799  TRP800  GLU811  SER814 

> <Gold.Protein.RotatedAtoms>
  151.0259  134.9503  159.8084 H   0  0  0  0  0  0  0  0  0  0  0  0  # atno 6907 bound_to 6896
  152.5335  134.2843  159.9029 H   0  0  0  0  0  0  0  0  0  0  0  0  # atno 6908 bound_to 6896
  151.2852  133.4149  159.2663 H   0  0  0  0  0  0  0  0  0  0  0  0  # atno 6909 bound_to 6896
  144.9493  140.7327  143.4797 H   0  0  0  0  0  0  0  0  0  0  0  0  # atno 7974 bound_to 7965
  156.0049  140.3356  155.6882 H   0  0  0  0  0  0  0  0  0  0  0  0  # atno 8008 bound_to 7997
  155.6239  140.0678  157.2687 H   0  0  0  0  0  0  0  0  0  0  0  0  # atno 8009 bound_to 7997
  154.4261  140.1772  156.1388 H   0  0  0  0  0  0  0  0  0  0  0  0  # atno 8010 bound_to 7997
  140.2691  144.3286  150.6295 H   0  0  0  0  0  0  0  0  0  0  0  0  # atno 10167 bound_to 10162
  157.2517  131.0780  151.1725 H   0  0  0  0  0  0  0  0  0  0  0  0  # atno 10718 bound_to 10713
  154.1396  135.2821  155.3164 H   0  0  0  0  0  0  0  0  0  0  0  0  # atno 10763 bound_to 10752
  154.6296  135.5439  153.7669 H   0  0  0  0  0  0  0  0  0  0  0  0  # atno 10764 bound_to 10752
  153.0255  135.6459  154.1543 H   0  0  0  0  0  0  0  0  0  0  0  0  # atno 10765 bound_to 10752
  140.0633  134.9192  157.1221 H   0  0  0  0  0  0  0  0  0  0  0  0  # atno 11005 bound_to 11000
  145.2868  139.1898  143.4761 LP  0  0  0  0  0  0  0  0  0  0  0  0  # atno 17320 bound_to 7965
  146.3315  140.2839  142.8611 LP  0  0  0  0  0  0  0  0  0  0  0  0  # atno 17321 bound_to 7965
  140.5904  143.2168  151.7263 LP  0  0  0  0  0  0  0  0  0  0  0  0  # atno 17342 bound_to 10162
  139.4994  144.3947  152.0244 LP  0  0  0  0  0  0  0  0  0  0  0  0  # atno 17343 bound_to 10162
  157.3271  130.6966  149.6302 LP  0  0  0  0  0  0  0  0  0  0  0  0  # atno 17370 bound_to 10713
  155.9666  130.4318  150.4937 LP  0  0  0  0  0  0  0  0  0  0  0  0  # atno 17371 bound_to 10713
  140.3737  134.2362  155.7176 LP  0  0  0  0  0  0  0  0  0  0  0  0  # atno 17394 bound_to 11000
  141.1982  133.8041  157.0592 LP  0  0  0  0  0  0  0  0  0  0  0  0  # atno 17395 bound_to 11000

$$$$
