AV-unprocessed.smi:212|AV-procd|sdf|1624|dock3
  -GOLD-   2262019563D 1   1.00000     0.00000
 Structure written by MMmdl.
 65 68  0  0  0  0  0  0  0  0  2 V2000
  147.4598  141.1230  152.9825 C   0  0  0  0  0  0  0  0  0  0  0  0
  147.0876  139.7188  153.4961 C   0  0  1  0  0  0  0  0  0  0  0  0
  147.2812  138.6070  152.4412 C   0  0  0  0  0  0  0  0  0  0  0  0
  146.8539  137.2862  152.9721 N   0  3  1  0  0  0  0  0  0  0  0  0
  146.9536  136.1916  151.9711 C   0  0  0  0  0  0  0  0  0  0  0  0
  145.8116  136.2425  150.9308 C   0  0  0  0  0  0  0  0  0  0  0  0
  145.7126  134.9010  150.1852 C   0  0  0  0  0  0  0  0  0  0  0  0
  144.4528  136.6020  151.5597 C   0  0  0  0  0  0  0  0  0  0  0  0
  146.1290  137.2242  149.9634 O   0  0  0  0  0  0  0  0  0  0  0  0
  147.4948  136.9559  154.2714 C   0  0  0  0  0  0  0  0  0  0  0  0
  147.2678  138.0770  155.3031 C   0  0  0  0  0  0  0  0  0  0  0  0
  147.7127  139.3641  154.7773 N   0  0  0  0  0  0  0  0  0  0  0  0
  149.0322  139.5936  155.0014 C   0  0  0  0  0  0  0  0  0  0  0  0
  149.9770  139.0938  154.1621 N   0  0  0  0  0  0  0  0  0  0  0  0
  151.2742  139.3030  154.4074 C   0  0  0  0  0  0  0  0  0  0  0  0
  151.8357  139.9650  155.4208 N   0  0  0  0  0  0  0  0  0  0  0  0
  150.8912  140.4596  156.2707 C   0  0  0  0  0  0  0  0  0  0  0  0
  149.4818  140.3182  156.1382 C   0  0  0  0  0  0  0  0  0  0  0  0
  148.8382  140.9505  157.1948 N   0  0  0  0  0  0  0  0  0  0  0  0
  149.8132  141.4406  157.9117 C   0  0  0  0  0  0  0  0  0  0  0  0
  151.0782  141.1974  157.4256 N   0  0  0  0  0  0  0  0  0  0  0  0
  152.3350  141.6237  158.0158 C   0  0  0  0  0  0  0  0  0  0  0  0
  152.4763  141.2337  159.5086 C   0  0  1  0  0  0  0  0  0  0  0  0
  153.4360  140.0390  159.7286 C   0  0  0  0  0  0  0  0  0  0  0  0
  154.7206  140.3043  159.2031 O   0  0  0  0  0  0  0  0  0  0  0  0
  152.8493  142.4582  160.3817 C   0  0  2  0  0  0  0  0  0  0  0  0
  152.8024  142.2164  161.8805 C   0  0  0  0  0  0  0  0  0  0  0  0
  152.7415  143.6356  162.4342 C   0  0  0  0  0  0  0  0  0  0  0  0
  152.0322  144.3977  161.4637 O   0  0  0  0  0  0  0  0  0  0  0  0
  151.8853  143.6434  160.2649 C   0  0  0  0  0  0  0  0  0  0  0  0
  146.8423  141.3947  152.1260 H   0  0  0  0  0  0  0  0  0  0  0  0
  148.4985  141.1899  152.6610 H   0  0  0  0  0  0  0  0  0  0  0  0
  147.2979  141.8775  153.7529 H   0  0  0  0  0  0  0  0  0  0  0  0
  146.0185  139.7609  153.7099 H   0  0  0  0  0  0  0  0  0  0  0  0
  146.6919  138.8407  151.5536 H   0  0  0  0  0  0  0  0  0  0  0  0
  148.3210  138.5505  152.1184 H   0  0  0  0  0  0  0  0  0  0  0  0
  147.9164  136.2386  151.4585 H   0  0  0  0  0  0  0  0  0  0  0  0
  146.9448  135.2230  152.4735 H   0  0  0  0  0  0  0  0  0  0  0  0
  145.4691  134.0878  150.8698 H   0  0  0  0  0  0  0  0  0  0  0  0
  146.6528  134.6458  149.6942 H   0  0  0  0  0  0  0  0  0  0  0  0
  144.9379  134.9262  149.4179 H   0  0  0  0  0  0  0  0  0  0  0  0
  144.1719  135.8803  152.3274 H   0  0  0  0  0  0  0  0  0  0  0  0
  143.6595  136.6088  150.8111 H   0  0  0  0  0  0  0  0  0  0  0  0
  144.4668  137.5890  152.0229 H   0  0  0  0  0  0  0  0  0  0  0  0
  145.3524  137.7330  149.7842 H   0  0  0  0  0  0  0  0  0  0  0  0
  147.0878  136.0201  154.6552 H   0  0  0  0  0  0  0  0  0  0  0  0
  148.5636  136.7981  154.1184 H   0  0  0  0  0  0  0  0  0  0  0  0
  146.2065  138.1502  155.5436 H   0  0  0  0  0  0  0  0  0  0  0  0
  147.7757  137.8350  156.2376 H   0  0  0  0  0  0  0  0  0  0  0  0
  151.9604  138.8778  153.6899 H   0  0  0  0  0  0  0  0  0  0  0  0
  149.6353  142.0027  158.8171 H   0  0  0  0  0  0  0  0  0  0  0  0
  153.1515  141.1925  157.4354 H   0  0  0  0  0  0  0  0  0  0  0  0
  152.4074  142.7045  157.8927 H   0  0  0  0  0  0  0  0  0  0  0  0
  151.4933  140.8956  159.8389 H   0  0  0  0  0  0  0  0  0  0  0  0
  153.5327  139.8086  160.7892 H   0  0  0  0  0  0  0  0  0  0  0  0
  153.0471  139.1334  159.2632 H   0  0  0  0  0  0  0  0  0  0  0  0
  155.3668  139.9977  159.8209 H   0  0  0  0  0  0  0  0  0  0  0  0
  153.8512  142.8027  160.1195 H   0  0  0  0  0  0  0  0  0  0  0  0
  151.8968  141.6710  162.1509 H   0  0  0  0  0  0  0  0  0  0  0  0
  153.6623  141.6612  162.2560 H   0  0  0  0  0  0  0  0  0  0  0  0
  152.2589  143.6820  163.4107 H   0  0  0  0  0  0  0  0  0  0  0  0
  153.7463  144.0486  162.5323 H   0  0  0  0  0  0  0  0  0  0  0  0
  152.0856  144.2602  159.3885 H   0  0  0  0  0  0  0  0  0  0  0  0
  150.8526  143.2977  160.2045 H   0  0  0  0  0  0  0  0  0  0  0  0
  145.8676  137.3820  153.1683 H   0  0  0  0  0  0  0  0  0  0  0  0
  1  2  1  0  0  0  0
  1 31  1  0  0  0  0
  1 32  1  0  0  0  0
  1 33  1  0  0  0  0
  2 12  1  0  0  0  0
  2  3  1  0  0  0  0
  2 34  1  0  0  0  0
  3  4  1  0  0  0  0
  3 35  1  0  0  0  0
  3 36  1  0  0  0  0
  4  5  1  0  0  0  0
  4 10  1  0  0  0  0
  4 65  1  0  0  0  0
  5  6  1  0  0  0  0
  5 37  1  0  0  0  0
  5 38  1  0  0  0  0
  6  7  1  0  0  0  0
  6  8  1  0  0  0  0
  6  9  1  0  0  0  0
  7 39  1  0  0  0  0
  7 40  1  0  0  0  0
  7 41  1  0  0  0  0
  8 42  1  0  0  0  0
  8 43  1  0  0  0  0
  8 44  1  0  0  0  0
  9 45  1  0  0  0  0
 10 11  1  0  0  0  0
 10 46  1  0  0  0  0
 10 47  1  0  0  0  0
 11 12  1  0  0  0  0
 11 48  1  0  0  0  0
 11 49  1  0  0  0  0
 12 13  1  0  0  0  0
 13 18  1  0  0  0  0
 13 14  2  0  0  0  0
 14 15  1  0  0  0  0
 15 16  2  0  0  0  0
 15 50  1  0  0  0  0
 16 17  1  0  0  0  0
 17 21  1  0  0  0  0
 17 18  2  0  0  0  0
 18 19  1  0  0  0  0
 19 20  2  0  0  0  0
 20 21  1  0  0  0  0
 20 51  1  0  0  0  0
 21 22  1  0  0  0  0
 22 23  1  0  0  0  0
 22 52  1  0  0  0  0
 22 53  1  0  0  0  0
 23 24  1  0  0  0  0
 23 26  1  0  0  0  0
 23 54  1  0  0  0  0
 24 25  1  0  0  0  0
 24 55  1  0  0  0  0
 24 56  1  0  0  0  0
 25 57  1  0  0  0  0
 26 30  1  0  0  0  0
 26 27  1  0  0  0  0
 26 58  1  0  0  0  0
 27 28  1  0  0  0  0
 27 59  1  0  0  0  0
 27 60  1  0  0  0  0
 28 29  1  0  0  0  0
 28 61  1  0  0  0  0
 28 62  1  0  0  0  0
 29 30  1  0  0  0  0
 30 63  1  0  0  0  0
 30 64  1  0  0  0  0
M  CHG  1   4   1
M  END
> <s_m_source_file>
AV-unprocessed.smi

> <i_m_source_file_index>
212

> <i_lp_mmshare_version>
43012

> <i_f3d_flags>
0

> <s_epik_input>
W0NIM11bQ0BASF0xW0NIMl1OKFtDSDJdQyhbQ0gzXSkoW0NIM10pW09IXSlbQ0gyXVtDSDJdTjFjKG5bY0hdbjIpYyhjMjMpbltjSF1uM1tDSDJdW0NASF0oW0NIMl1bT0hdKVtDQEBIXTRbQ0gyXVtDSDJdT1tDSDJdNA==

> <s_epik_cmdline>
J2VwaWtfcHl0aG9uJywgJy1waCcsICc3LjAnLCAnLXRuJywgJzgnLCAnLW1hJywgJzIwMCcsICctbWV0YWxfYmluZGluZycsICctaW1hZScsICc8aW5maWxlLm1hZT4nLCAnLW9tYWUnLCAnPG91dGZpbGUubWFlPic=

> <r_lp_tautomer_probability>
1

> <r_epik_Ionization_Penalty>
0.00182193

> <r_epik_Ionization_Penalty_Charging>
0.00173996

> <r_epik_Ionization_Penalty_Neutral>
8.19718e-05

> <r_epik_State_Penalty>
-0

> <r_epik_Charging_Adjusted_Penalty>
0.00173996

> <i_epik_Tot_Q>
1

> <i_epik_Tot_abs_Q>
1

> <r_epik_Metal_State_Penalty>
-0

> <b_epik_Metal_Only>
0

> <s_lp_Force_Field>
OPLS_2005

> <r_lp_Energy>
58.8905

> <b_lp_Chiralities_Consistent>
1

> <s_lp_Variant>
AV-unprocessed.smi:212-8

> <Gold.Version>
5.8.1

> <Gold.Id.Protein>
6NUR|6NUR_protein|mol2

> <Gold.PLP.Fitness>
49.0942

> <Gold.PLP.PLP>
-45.0342

> <Gold.PLP.part.hbond>
-2.3121

> <Gold.PLP.part.metal>
0.0000

> <Gold.PLP.part.buried>
-4.3983

> <Gold.PLP.part.nonpolar>
-37.7862

> <Gold.PLP.part.repulsive>
0.4625

> <Gold.PLP.ligand.clash>
0.0000

> <Gold.PLP.ligand.torsion>
1.6243

> <Gold.PLP.Chemscore.Hbond>
2.0000

> <Gold.PLP.Chemscore.CHOScore>
0.0000

> <Gold.PLP.Chemscore.Metal>
0.0000

> <Gold.Chemscore.Hbonds>
donor molecule, donor type, donor heavy atom, donor atom, acceptor molecule, acceptor atom, score
      L1  H     9    45       P1 10171  1.00
      P1  H  7954  7966       L1     9  0.47
      P1  H  7997  8008       L1    25  0.85

> <Gold.PLP.Chemscore.Internal.Correction>
1.3087

> <Gold.Rescore>
     Score         DG    S(hbond)    S(metal)    S(lipo)     H(rot)  DE(clash)    DE(int)     intcor
     12.72     -14.82       1.90        0.00     106.12       3.68       0.32       1.77       ----

> <Gold.Chemscore.Fitness>
12.7198

> <Gold.Chemscore.DG>
-14.8171

> <Gold.Chemscore.ZeroCoef>
-5.4800

> <Gold.Chemscore.Hbond>
1.8998

> <Gold.Chemscore.Metal>
0.0000

> <Gold.Chemscore.Lipo>
106.1155

> <Gold.Chemscore.Internal_Hbond>
0.0000

> <Gold.Chemscore.DEClash>
0.3240

> <Gold.Chemscore.DEInternal>
1.7733

> <Gold.Chemscore.Rot>
3.6812

> <Gold.Chemscore.Internal.Correction>
   9.000000E+99

> <Gold.Chemscore.Hbonds>
donor molecule, donor type, donor heavy atom, donor atom, acceptor molecule, acceptor atom, score
      L1  H     9    45       P1 10171  1.00
      P1  H  7954  7966       L1     9  0.43
      P1  H  7997  8008       L1    25  0.78

> <Gold.Chemscore.Hbond.Weighted>
-6.3455

> <Gold.Chemscore.Metal.Weighted>
-0.0000

> <Gold.Chemscore.Lipo.Weighted>
-12.4155

> <Gold.Chemscore.Internal_Hbond.Weighted>
0.0000

> <Gold.Chemscore.DEClash.Weighted>
0.3240

> <Gold.Chemscore.DEInternal.Weighted>
1.7733

> <Gold.Chemscore.Rot.Weighted>
9.4239

> <Gold.Chemscore.Internal.Correction.Weighted>
   9.000000E+99

> <Gold.Protein.RotatedTorsions>
[ 6907 6896 6895 6894 ] final -167.44 input  -60.11 | X-H torsion
[ 7974 7965 7964 7962 ] final   30.31 input  175.53 | X-H torsion
[ 8008 7997 7996 7995 ] final -114.95 input   59.86 | X-H torsion
[ 10167 10162 10161 10158 ] final  104.40 input  -65.29 | X-H torsion
[ 10718 10713 10712 10709 ] final  -48.00 input   66.30 | X-H torsion
[ 10763 10752 10751 10750 ] final   65.73 input  -60.55 | X-H torsion
[ 11005 11000 10999 10996 ] final   70.88 input  -57.11 | X-H torsion

> <Gold.Protein.ActiveResidues>
 VAL166  LYS551  ARG553  GLY616  TRP617  ASP618  TYR619  PRO620  LYS621  CYS622 
 ASP623  PHE694  ASN695  SER759  ASP760  ASP761  ALA762  ILE779  LEU786  VAL792 
 PHE793  MET794  SER795  GLU796  ALA797  LYS798  CYS799  TRP800  GLU811  SER814 

> <Gold.Protein.RotatedAtoms>
  151.4595  133.3596  159.2806 H   0  0  0  0  0  0  0  0  0  0  0  0  # atno 6907 bound_to 6896
  150.9035  134.8450  159.7387 H   0  0  0  0  0  0  0  0  0  0  0  0  # atno 6908 bound_to 6896
  152.4893  134.4518  159.9629 H   0  0  0  0  0  0  0  0  0  0  0  0  # atno 6909 bound_to 6896
  146.1620  139.6806  142.9027 H   0  0  0  0  0  0  0  0  0  0  0  0  # atno 7974 bound_to 7965
  155.0443  140.0392  157.2521 H   0  0  0  0  0  0  0  0  0  0  0  0  # atno 8008 bound_to 7997
  154.7190  140.2708  155.6535 H   0  0  0  0  0  0  0  0  0  0  0  0  # atno 8009 bound_to 7997
  156.2811  140.2706  156.1855 H   0  0  0  0  0  0  0  0  0  0  0  0  # atno 8010 bound_to 7997
  139.7180  144.7064  151.0919 H   0  0  0  0  0  0  0  0  0  0  0  0  # atno 10167 bound_to 10162
  156.2030  130.4157  149.9215 H   0  0  0  0  0  0  0  0  0  0  0  0  # atno 10718 bound_to 10713
  153.0109  135.5346  154.6713 H   0  0  0  0  0  0  0  0  0  0  0  0  # atno 10763 bound_to 10752
  154.5896  135.2857  155.0651 H   0  0  0  0  0  0  0  0  0  0  0  0  # atno 10764 bound_to 10752
  154.1749  135.6526  153.5071 H   0  0  0  0  0  0  0  0  0  0  0  0  # atno 10765 bound_to 10752
  139.9573  134.7121  156.0724 H   0  0  0  0  0  0  0  0  0  0  0  0  # atno 11005 bound_to 11000
  145.4565  141.0431  143.2775 LP  0  0  0  0  0  0  0  0  0  0  0  0  # atno 17320 bound_to 7965
  144.8039  139.6087  143.7059 LP  0  0  0  0  0  0  0  0  0  0  0  0  # atno 17321 bound_to 7965
  140.7748  143.5204  150.9544 LP  0  0  0  0  0  0  0  0  0  0  0  0  # atno 17342 bound_to 10162
  139.8890  143.6977  152.3147 LP  0  0  0  0  0  0  0  0  0  0  0  0  # atno 17343 bound_to 10162
  156.6918  130.8899  151.3589 LP  0  0  0  0  0  0  0  0  0  0  0  0  # atno 17370 bound_to 10713
  157.6996  130.9319  150.0747 LP  0  0  0  0  0  0  0  0  0  0  0  0  # atno 17371 bound_to 10713
  141.1246  133.6603  156.3304 LP  0  0  0  0  0  0  0  0  0  0  0  0  # atno 17394 bound_to 11000
  140.5579  134.5963  157.5426 LP  0  0  0  0  0  0  0  0  0  0  0  0  # atno 17395 bound_to 11000

$$$$
