AV-unprocessed.smi:1362|AV-procd|sdf|5558|dock3
  -GOLD-   22720 5153D 1   1.00000     0.00000
 Structure written by MMmdl.
 39 39  0  0  0  0  0  0  0  0  1 V2000
  144.2242  132.3563  151.4269 C   0  0  0  0  0  0  0  0  0  0  0  0
  144.1576  133.7607  151.9883 C   0  0  0  0  0  0  0  0  0  0  0  0
  144.9288  134.7260  151.6088 N   0  0  0  0  0  0  0  0  0  0  0  0
  144.7740  135.9856  152.2043 C   0  0  0  0  0  0  0  0  0  0  0  0
  145.7191  137.0668  151.7084 C   0  0  0  0  0  0  0  0  0  0  0  0
  143.8322  136.2116  153.1669 C   0  0  0  0  0  0  0  0  0  0  0  0
  143.6434  137.5722  153.8362 C   0  0  0  0  0  0  0  0  0  0  0  0
  144.8410  138.0967  154.6321 C   0  0  0  0  0  0  0  0  0  0  0  0
  145.4331  137.3638  155.4247 O   0  0  0  0  0  0  0  0  0  0  0  0
  145.1919  139.3705  154.3988 N   0  0  0  0  0  0  0  0  0  0  0  0
  146.3353  140.0630  154.9914 C   0  0  2  0  0  0  0  0  0  0  0  0
  145.8775  140.7669  156.2828 C   0  0  0  0  0  0  0  0  0  0  0  0
  146.9668  141.0290  153.9541 C   0  0  0  0  0  0  0  0  0  0  0  0
  148.4576  141.2984  154.2399 C   0  0  0  0  0  0  0  0  0  0  0  0
  146.2128  142.3680  153.8618 C   0  0  0  0  0  0  0  0  0  0  0  0
  142.9566  135.1022  153.5919 C   0  0  0  0  0  0  0  0  0  0  0  0
  142.0805  135.1934  154.4505 O   0  0  0  0  0  0  0  0  0  0  0  0
  143.1765  133.9251  152.9647 N   0  0  0  0  0  0  0  0  0  0  0  0
  142.6033  133.1346  153.2215 H   0  0  0  0  0  0  0  0  0  0  0  0
  145.2063  131.9229  151.6179 H   0  0  0  0  0  0  0  0  0  0  0  0
  144.0607  132.3748  150.3491 H   0  0  0  0  0  0  0  0  0  0  0  0
  143.4713  131.7067  151.8757 H   0  0  0  0  0  0  0  0  0  0  0  0
  145.1616  137.8705  151.2277 H   0  0  0  0  0  0  0  0  0  0  0  0
  146.4279  136.6703  150.9805 H   0  0  0  0  0  0  0  0  0  0  0  0
  146.2935  137.4869  152.5343 H   0  0  0  0  0  0  0  0  0  0  0  0
  143.3928  138.3002  153.0638 H   0  0  0  0  0  0  0  0  0  0  0  0
  142.7761  137.5601  154.4970 H   0  0  0  0  0  0  0  0  0  0  0  0
  144.6415  139.8951  153.7344 H   0  0  0  0  0  0  0  0  0  0  0  0
  147.0918  139.3225  155.2585 H   0  0  0  0  0  0  0  0  0  0  0  0
  146.7178  141.1922  156.8306 H   0  0  0  0  0  0  0  0  0  0  0  0
  145.3851  140.0678  156.9593 H   0  0  0  0  0  0  0  0  0  0  0  0
  145.1733  141.5715  156.0687 H   0  0  0  0  0  0  0  0  0  0  0  0
  146.9080  140.5558  152.9726 H   0  0  0  0  0  0  0  0  0  0  0  0
  148.5977  141.7332  155.2301 H   0  0  0  0  0  0  0  0  0  0  0  0
  148.8773  141.9928  153.5113 H   0  0  0  0  0  0  0  0  0  0  0  0
  149.0553  140.3882  154.1890 H   0  0  0  0  0  0  0  0  0  0  0  0
  146.1731  142.8685  154.8298 H   0  0  0  0  0  0  0  0  0  0  0  0
  145.1903  142.2350  153.5096 H   0  0  0  0  0  0  0  0  0  0  0  0
  146.7004  143.0448  153.1597 H   0  0  0  0  0  0  0  0  0  0  0  0
  1  2  1  0  0  0  0
  1 20  1  0  0  0  0
  1 21  1  0  0  0  0
  1 22  1  0  0  0  0
  2 18  1  0  0  0  0
  2  3  2  0  0  0  0
  3  4  1  0  0  0  0
  4  5  1  0  0  0  0
  4  6  2  0  0  0  0
  5 23  1  0  0  0  0
  5 24  1  0  0  0  0
  5 25  1  0  0  0  0
  6  7  1  0  0  0  0
  6 16  1  0  0  0  0
  7  8  1  0  0  0  0
  7 26  1  0  0  0  0
  7 27  1  0  0  0  0
  8  9  2  0  0  0  0
  8 10  1  0  0  0  0
 10 11  1  0  0  0  0
 10 28  1  0  0  0  0
 11 12  1  0  0  0  0
 11 13  1  0  0  0  0
 11 29  1  0  0  0  0
 12 30  1  0  0  0  0
 12 31  1  0  0  0  0
 12 32  1  0  0  0  0
 13 14  1  0  0  0  0
 13 15  1  0  0  0  0
 13 33  1  0  0  0  0
 14 34  1  0  0  0  0
 14 35  1  0  0  0  0
 14 36  1  0  0  0  0
 15 37  1  0  0  0  0
 15 38  1  0  0  0  0
 15 39  1  0  0  0  0
 16 17  2  0  0  0  0
 16 18  1  0  0  0  0
 18 19  1  0  0  0  0
M  END
> <s_m_source_file>
AV-unprocessed.smi

> <i_m_source_file_index>
1362

> <i_lp_mmshare_version>
43012

> <i_f3d_flags>
0

> <s_epik_input>
W0NIM11jMW5jKFtDSDNdKWMoYyg9TylbbkhdMSlbQ0gyXUMoPU8pW05IXVtDQEhdKFtDSDNdKVtDSF0oW0NIM10pW0NIM10=

> <s_epik_cmdline>
J2VwaWtfcHl0aG9uJywgJy1waCcsICc3LjAnLCAnLXRuJywgJzgnLCAnLW1hJywgJzIwMCcsICctbWV0YWxfYmluZGluZycsICctaW1hZScsICc8aW5maWxlLm1hZT4nLCAnLW9tYWUnLCAnPG91dGZpbGUubWFlPic=

> <r_lp_tautomer_probability>
0.839158

> <r_epik_Ionization_Penalty>
0.000388977

> <r_epik_Ionization_Penalty_Charging>
0.000356458

> <r_epik_Ionization_Penalty_Neutral>
3.25191e-05

> <r_epik_State_Penalty>
0.0469868

> <r_epik_Charging_Adjusted_Penalty>
0.0473433

> <i_epik_Tot_Q>
0

> <i_epik_Tot_abs_Q>
0

> <r_epik_Metal_State_Penalty>
0.223288

> <b_epik_Metal_Only>
0

> <s_lp_Force_Field>
OPLS_2005

> <r_lp_Energy>
7.29912

> <b_lp_Chiralities_Consistent>
1

> <s_lp_Variant>
AV-unprocessed.smi:1362-1

> <Gold.Version>
5.8.1

> <Gold.Id.Protein>
6NUR|6NUR_protein|mol2

> <Gold.PLP.Fitness>
29.7681

> <Gold.PLP.PLP>
-25.7304

> <Gold.PLP.part.hbond>
-3.0000

> <Gold.PLP.part.metal>
0.0000

> <Gold.PLP.part.buried>
-2.8930

> <Gold.PLP.part.nonpolar>
-20.6722

> <Gold.PLP.part.repulsive>
0.2514

> <Gold.PLP.ligand.clash>
0.0000

> <Gold.PLP.ligand.torsion>
0.9622

> <Gold.PLP.Chemscore.Hbond>
1.9751

> <Gold.PLP.Chemscore.CHOScore>
0.0000

> <Gold.PLP.Chemscore.Metal>
0.0000

> <Gold.Chemscore.Hbonds>
donor molecule, donor type, donor heavy atom, donor atom, acceptor molecule, acceptor atom, score
      L1  H    10    28       P1 10175  1.00
      L1  H    18    19       P1 10957  0.65
      P1  H 11000 11005       L1    17  0.24

> <Gold.PLP.Chemscore.Internal.Correction>
0.0369

> <Gold.Rescore>
     Score         DG    S(hbond)    S(metal)    S(lipo)     H(rot)  DE(clash)    DE(int)     intcor
     13.47     -14.32       2.27        0.00      47.73       1.69       0.02       0.83       ----

> <Gold.Chemscore.Fitness>
13.4746

> <Gold.Chemscore.DG>
-14.3232

> <Gold.Chemscore.ZeroCoef>
-5.4800

> <Gold.Chemscore.Hbond>
2.2723

> <Gold.Chemscore.Metal>
0.0000

> <Gold.Chemscore.Lipo>
47.7297

> <Gold.Chemscore.Internal_Hbond>
0.0000

> <Gold.Chemscore.DEClash>
0.0197

> <Gold.Chemscore.DEInternal>
0.8288

> <Gold.Chemscore.Rot>
1.6916

> <Gold.Chemscore.Internal.Correction>
   9.000000E+99

> <Gold.Chemscore.Hbonds>
donor molecule, donor type, donor heavy atom, donor atom, acceptor molecule, acceptor atom, score
      L1  H    10    28       P1 10175  1.00
      L1  H    18    19       P1 10957  0.51
      P1  H 11000 11005       L1    17  0.24

> <Gold.Chemscore.Hbond.Weighted>
-7.5893

> <Gold.Chemscore.Metal.Weighted>
-0.0000

> <Gold.Chemscore.Lipo.Weighted>
-5.5844

> <Gold.Chemscore.Internal_Hbond.Weighted>
0.0000

> <Gold.Chemscore.DEClash.Weighted>
0.0197

> <Gold.Chemscore.DEInternal.Weighted>
0.8288

> <Gold.Chemscore.Rot.Weighted>
4.3305

> <Gold.Chemscore.Internal.Correction.Weighted>
   9.000000E+99

> <Gold.Protein.RotatedTorsions>
[ 6907 6896 6895 6894 ] final  -81.54 input  -60.11 | X-H torsion
[ 7974 7965 7964 7962 ] final  151.96 input  175.53 | X-H torsion
[ 8008 7997 7996 7995 ] final  113.52 input   59.86 | X-H torsion
[ 10167 10162 10161 10158 ] final  136.56 input  -65.29 | X-H torsion
[ 10718 10713 10712 10709 ] final  147.18 input   66.30 | X-H torsion
[ 10763 10752 10751 10750 ] final  -48.94 input  -60.55 | X-H torsion
[ 11005 11000 10999 10996 ] final    1.03 input  -57.11 | X-H torsion

> <Gold.Protein.ActiveResidues>
 VAL166  LYS551  ARG553  GLY616  TRP617  ASP618  TYR619  PRO620  LYS621  CYS622 
 ASP623  PHE694  ASN695  SER759  ASP760  ASP761  ALA762  ILE779  LEU786  VAL792 
 PHE793  MET794  SER795  GLU796  ALA797  LYS798  CYS799  TRP800  GLU811  SER814 

> <Gold.Protein.RotatedAtoms>
  150.6910  134.3802  159.5030 H   0  0  0  0  0  0  0  0  0  0  0  0  # atno 6907 bound_to 6896
  152.1605  134.8913  160.0551 H   0  0  0  0  0  0  0  0  0  0  0  0  # atno 6908 bound_to 6896
  151.9977  133.3779  159.4206 H   0  0  0  0  0  0  0  0  0  0  0  0  # atno 6909 bound_to 6896
  144.8255  139.6606  143.6081 H   0  0  0  0  0  0  0  0  0  0  0  0  # atno 7974 bound_to 7965
  156.2263  140.2978  156.0075 H   0  0  0  0  0  0  0  0  0  0  0  0  # atno 8008 bound_to 7997
  155.2347  140.0420  157.2984 H   0  0  0  0  0  0  0  0  0  0  0  0  # atno 8009 bound_to 7997
  154.5921  140.2404  155.7914 H   0  0  0  0  0  0  0  0  0  0  0  0  # atno 8010 bound_to 7997
  139.5175  144.6457  151.5445 H   0  0  0  0  0  0  0  0  0  0  0  0  # atno 10167 bound_to 10162
  157.3242  131.0909  151.1216 H   0  0  0  0  0  0  0  0  0  0  0  0  # atno 10718 bound_to 10713
  154.0860  135.6584  153.4845 H   0  0  0  0  0  0  0  0  0  0  0  0  # atno 10763 bound_to 10752
  153.0338  135.5191  154.7427 H   0  0  0  0  0  0  0  0  0  0  0  0  # atno 10764 bound_to 10752
  154.6536  135.3005  154.9924 H   0  0  0  0  0  0  0  0  0  0  0  0  # atno 10765 bound_to 10752
  140.6200  133.9670  155.8220 H   0  0  0  0  0  0  0  0  0  0  0  0  # atno 11005 bound_to 11000
  146.2561  139.6305  142.9394 LP  0  0  0  0  0  0  0  0  0  0  0  0  # atno 17320 bound_to 7965
  145.5009  141.0437  143.2541 LP  0  0  0  0  0  0  0  0  0  0  0  0  # atno 17321 bound_to 7965
  140.6242  143.9201  150.6551 LP  0  0  0  0  0  0  0  0  0  0  0  0  # atno 17342 bound_to 10162
  140.2484  143.3611  152.1427 LP  0  0  0  0  0  0  0  0  0  0  0  0  # atno 17343 bound_to 10162
  157.2489  130.6604  149.5922 LP  0  0  0  0  0  0  0  0  0  0  0  0  # atno 17370 bound_to 10713
  155.9689  130.4544  150.5851 LP  0  0  0  0  0  0  0  0  0  0  0  0  # atno 17371 bound_to 10713
  141.0749  134.0150  157.3473 LP  0  0  0  0  0  0  0  0  0  0  0  0  # atno 17394 bound_to 11000
  139.9157  135.0196  156.7871 LP  0  0  0  0  0  0  0  0  0  0  0  0  # atno 17395 bound_to 11000

$$$$
