AV-unprocessed.smi:933|AV-procd|sdf|4203|dock6
  -GOLD-   22720 2113D 1   1.00000     0.00000
 Structure written by MMmdl.
 42 43  0  0  0  0  0  0  0  0  1 V2000
  144.4918  142.6378  155.7169 C   0  0  0  0  0  0  0  0  0  0  0  0
  145.8723  143.1429  155.2841 C   0  0  0  0  0  0  0  0  0  0  0  0
  146.8553  142.0348  155.1063 C   0  0  0  0  0  0  0  0  0  0  0  0
  147.1847  141.1804  156.0783 N   0  0  0  0  0  0  0  0  0  0  0  0
  148.0899  140.2019  155.6539 C   0  0  0  0  0  0  0  0  0  0  0  0
  148.5639  139.1453  156.6102 C   0  0  0  0  0  0  0  0  0  0  0  0
  150.0748  139.2082  156.8945 C   0  0  0  0  0  0  0  0  0  0  0  0
  150.3988  140.2344  157.8846 N   0  0  0  0  0  0  0  0  0  0  0  0
  151.6200  140.6088  158.3006 C   0  0  0  0  0  0  0  0  0  0  0  0
  152.6449  140.0909  157.8613 O   0  0  0  0  0  0  0  0  0  0  0  0
  151.6176  141.5832  159.2254 N   0  0  0  0  0  0  0  0  0  0  0  0
  152.8076  142.1655  159.8434 C   0  0  2  0  0  0  0  0  0  0  0  0
  152.9213  141.7439  161.3247 C   0  0  0  0  0  0  0  0  0  0  0  0
  152.9604  143.0360  162.1466 C   0  0  0  0  0  0  0  0  0  0  0  0
  152.3072  144.0885  161.2549 C   0  0  0  0  0  0  0  0  0  0  0  0
  152.7680  143.7111  159.8461 C   0  0  2  0  0  0  0  0  0  0  0  0
  151.9558  144.3837  158.7251 C   0  0  0  0  0  0  0  0  0  0  0  0
  148.4419  140.3292  154.3332 C   0  0  0  0  0  0  0  0  0  0  0  0
  147.6408  141.6766  153.5730 S   0  0  0  0  0  0  0  0  0  0  0  0
  143.7946  143.4671  155.8381 H   0  0  0  0  0  0  0  0  0  0  0  0
  144.5478  142.1074  156.6683 H   0  0  0  0  0  0  0  0  0  0  0  0
  144.0730  141.9550  154.9770 H   0  0  0  0  0  0  0  0  0  0  0  0
  145.7906  143.6913  154.3453 H   0  0  0  0  0  0  0  0  0  0  0  0
  146.2609  143.8446  156.0232 H   0  0  0  0  0  0  0  0  0  0  0  0
  148.0238  139.2333  157.5535 H   0  0  0  0  0  0  0  0  0  0  0  0
  148.3136  138.1566  156.2229 H   0  0  0  0  0  0  0  0  0  0  0  0
  150.4184  138.2366  157.2537 H   0  0  0  0  0  0  0  0  0  0  0  0
  150.6120  139.4176  155.9683 H   0  0  0  0  0  0  0  0  0  0  0  0
  149.6104  140.7090  158.3017 H   0  0  0  0  0  0  0  0  0  0  0  0
  150.7256  141.9489  159.5246 H   0  0  0  0  0  0  0  0  0  0  0  0
  153.6904  141.8406  159.2894 H   0  0  0  0  0  0  0  0  0  0  0  0
  152.0598  141.1472  161.6289 H   0  0  0  0  0  0  0  0  0  0  0  0
  153.8073  141.1341  161.5032 H   0  0  0  0  0  0  0  0  0  0  0  0
  152.4601  142.9347  163.1101 H   0  0  0  0  0  0  0  0  0  0  0  0
  153.9969  143.3154  162.3398 H   0  0  0  0  0  0  0  0  0  0  0  0
  151.2214  144.0129  161.3292 H   0  0  0  0  0  0  0  0  0  0  0  0
  152.5917  145.1042  161.5317 H   0  0  0  0  0  0  0  0  0  0  0  0
  153.7997  144.0533  159.7482 H   0  0  0  0  0  0  0  0  0  0  0  0
  150.8931  144.1505  158.7964 H   0  0  0  0  0  0  0  0  0  0  0  0
  152.3056  144.0639  157.7433 H   0  0  0  0  0  0  0  0  0  0  0  0
  152.0559  145.4684  158.7735 H   0  0  0  0  0  0  0  0  0  0  0  0
  149.1150  139.7086  153.7607 H   0  0  0  0  0  0  0  0  0  0  0  0
  1  2  1  0  0  0  0
  1 20  1  0  0  0  0
  1 21  1  0  0  0  0
  1 22  1  0  0  0  0
  2  3  1  0  0  0  0
  2 23  1  0  0  0  0
  2 24  1  0  0  0  0
  3 19  1  0  0  0  0
  3  4  2  0  0  0  0
  4  5  1  0  0  0  0
  5  6  1  0  0  0  0
  5 18  2  0  0  0  0
  6  7  1  0  0  0  0
  6 25  1  0  0  0  0
  6 26  1  0  0  0  0
  7  8  1  0  0  0  0
  7 27  1  0  0  0  0
  7 28  1  0  0  0  0
  8  9  1  0  0  0  0
  8 29  1  0  0  0  0
  9 10  2  0  0  0  0
  9 11  1  0  0  0  0
 11 12  1  0  0  0  0
 11 30  1  0  0  0  0
 12 16  1  0  0  0  0
 12 13  1  0  0  0  0
 12 31  1  0  0  0  0
 13 14  1  0  0  0  0
 13 32  1  0  0  0  0
 13 33  1  0  0  0  0
 14 15  1  0  0  0  0
 14 34  1  0  0  0  0
 14 35  1  0  0  0  0
 15 16  1  0  0  0  0
 15 36  1  0  0  0  0
 15 37  1  0  0  0  0
 16 17  1  0  0  0  0
 16 38  1  0  0  0  0
 17 39  1  0  0  0  0
 17 40  1  0  0  0  0
 17 41  1  0  0  0  0
 18 19  1  0  0  0  0
 18 42  1  0  0  0  0
M  END
> <s_m_source_file>
AV-unprocessed.smi

> <i_m_source_file_index>
933

> <i_lp_mmshare_version>
43012

> <i_f3d_flags>
0

> <s_epik_input>
W0NIM11bQ0gyXWMxbmMoW2NIXXMxKVtDSDJdW0NIMl1bTkhdQyg9TylbTkhdW0NAQEhdMltDSDJdW0NIMl1bQ0gyXVtDQEhdMltDSDNd

> <s_epik_cmdline>
J2VwaWtfcHl0aG9uJywgJy1waCcsICc3LjAnLCAnLXRuJywgJzgnLCAnLW1hJywgJzIwMCcsICctbWV0YWxfYmluZGluZycsICctaW1hZScsICc8aW5maWxlLm1hZT4nLCAnLW9tYWUnLCAnPG91dGZpbGUubWFlPic=

> <r_epik_Ionization_Penalty>
0.00203408

> <r_epik_Ionization_Penalty_Charging>
0

> <r_epik_Ionization_Penalty_Neutral>
0.00203408

> <r_epik_State_Penalty>
0.0013452

> <r_epik_Charging_Adjusted_Penalty>
0.0013452

> <i_epik_Tot_Q>
0

> <i_epik_Tot_abs_Q>
0

> <r_epik_Metal_State_Penalty>
-0

> <b_epik_Metal_Only>
0

> <s_lp_Force_Field>
OPLS_2005

> <r_lp_Energy>
20.7198

> <b_lp_Chiralities_Consistent>
1

> <s_lp_Variant>
AV-unprocessed.smi:933-3

> <Gold.Version>
5.8.1

> <Gold.Id.Protein>
6NUR|6NUR_protein|mol2

> <Gold.PLP.Fitness>
42.8421

> <Gold.PLP.PLP>
-37.4202

> <Gold.PLP.part.hbond>
-1.0000

> <Gold.PLP.part.metal>
0.0000

> <Gold.PLP.part.buried>
-4.4463

> <Gold.PLP.part.nonpolar>
-31.5723

> <Gold.PLP.part.repulsive>
0.2811

> <Gold.PLP.ligand.clash>
0.0000

> <Gold.PLP.ligand.torsion>
0.2455

> <Gold.PLP.Chemscore.Hbond>
0.9920

> <Gold.PLP.Chemscore.CHOScore>
0.9649

> <Gold.PLP.Chemscore.Metal>
0.0000

> <Gold.Chemscore.Hbonds>
donor molecule, donor type, donor heavy atom, donor atom, acceptor molecule, acceptor atom, score
      P1  H  7997  8009       L1    10  0.88
      L1  C    18    42       P1  7957  0.58

> <Gold.PLP.Chemscore.Internal.Correction>
0.0421

> <Gold.Rescore>
     Score         DG    S(hbond)    S(metal)    S(lipo)     H(rot)  DE(clash)    DE(int)     intcor
     16.72     -16.95       0.97        0.00     104.29       1.55       0.06       0.18       ----

> <Gold.Chemscore.Fitness>
16.7162

> <Gold.Chemscore.DG>
-16.9528

> <Gold.Chemscore.ZeroCoef>
-5.4800

> <Gold.Chemscore.Hbond>
0.9685

> <Gold.Chemscore.Metal>
0.0000

> <Gold.Chemscore.Lipo>
104.2854

> <Gold.Chemscore.Internal_Hbond>
0.0000

> <Gold.Chemscore.DEClash>
0.0550

> <Gold.Chemscore.DEInternal>
0.1816

> <Gold.Chemscore.Rot>
1.5482

> <Gold.Chemscore.Internal.Correction>
   9.000000E+99

> <Gold.Chemscore.Hbonds>
donor molecule, donor type, donor heavy atom, donor atom, acceptor molecule, acceptor atom, score
      P1  H  7997  8009       L1    10  0.83

> <Gold.Chemscore.Hbond.Weighted>
-3.2349

> <Gold.Chemscore.Metal.Weighted>
-0.0000

> <Gold.Chemscore.Lipo.Weighted>
-12.2014

> <Gold.Chemscore.Internal_Hbond.Weighted>
0.0000

> <Gold.Chemscore.DEClash.Weighted>
0.0550

> <Gold.Chemscore.DEInternal.Weighted>
0.1816

> <Gold.Chemscore.Rot.Weighted>
3.9635

> <Gold.Chemscore.Internal.Correction.Weighted>
   9.000000E+99

> <Gold.Protein.RotatedTorsions>
[ 6907 6896 6895 6894 ] final  127.90 input  -60.11 | X-H torsion
[ 7974 7965 7964 7962 ] final   57.21 input  175.53 | X-H torsion
[ 8008 7997 7996 7995 ] final  164.78 input   59.86 | X-H torsion
[ 10167 10162 10161 10158 ] final  -50.66 input  -65.29 | X-H torsion
[ 10718 10713 10712 10709 ] final  163.19 input   66.30 | X-H torsion
[ 10763 10752 10751 10750 ] final  -50.19 input  -60.55 | X-H torsion
[ 11005 11000 10999 10996 ] final   48.18 input  -57.11 | X-H torsion

> <Gold.Protein.ActiveResidues>
 VAL166  LYS551  ARG553  GLY616  TRP617  ASP618  TYR619  PRO620  LYS621  CYS622 
 ASP623  PHE694  ASN695  SER759  ASP760  ASP761  ALA762  ILE779  LEU786  VAL792 
 PHE793  MET794  SER795  GLU796  ALA797  LYS798  CYS799  TRP800  GLU811  SER814 

> <Gold.Protein.RotatedAtoms>
  152.3769  133.6494  159.6130 H   0  0  0  0  0  0  0  0  0  0  0  0  # atno 6907 bound_to 6896
  150.7711  133.9178  159.3397 H   0  0  0  0  0  0  0  0  0  0  0  0  # atno 6908 bound_to 6896
  151.6990  135.0934  160.0299 H   0  0  0  0  0  0  0  0  0  0  0  0  # atno 6909 bound_to 6896
  145.9315  139.3812  143.0418 H   0  0  0  0  0  0  0  0  0  0  0  0  # atno 7974 bound_to 7965
  156.1853  140.1687  156.8197 H   0  0  0  0  0  0  0  0  0  0  0  0  # atno 8008 bound_to 7997
  154.5407  140.0737  156.8537 H   0  0  0  0  0  0  0  0  0  0  0  0  # atno 8009 bound_to 7997
  155.3221  140.3374  155.4243 H   0  0  0  0  0  0  0  0  0  0  0  0  # atno 8010 bound_to 7997
  140.6627  143.2649  151.4391 H   0  0  0  0  0  0  0  0  0  0  0  0  # atno 10167 bound_to 10162
  157.1120  131.0470  151.2453 H   0  0  0  0  0  0  0  0  0  0  0  0  # atno 10718 bound_to 10713
  154.1064  135.6556  153.4877 H   0  0  0  0  0  0  0  0  0  0  0  0  # atno 10763 bound_to 10752
  153.0271  135.5237  154.7236 H   0  0  0  0  0  0  0  0  0  0  0  0  # atno 10764 bound_to 10752
  154.6403  135.2987  155.0081 H   0  0  0  0  0  0  0  0  0  0  0  0  # atno 10765 bound_to 10752
  140.1213  134.4825  155.8595 H   0  0  0  0  0  0  0  0  0  0  0  0  # atno 11005 bound_to 11000
  145.8419  140.9576  143.0794 LP  0  0  0  0  0  0  0  0  0  0  0  0  # atno 17320 bound_to 7965
  144.6765  140.0296  143.7483 LP  0  0  0  0  0  0  0  0  0  0  0  0  # atno 17321 bound_to 7965
  139.5865  144.1593  152.2035 LP  0  0  0  0  0  0  0  0  0  0  0  0  # atno 17342 bound_to 10162
  140.0934  144.5601  150.7039 LP  0  0  0  0  0  0  0  0  0  0  0  0  # atno 17343 bound_to 10162
  157.4551  130.7621  149.7186 LP  0  0  0  0  0  0  0  0  0  0  0  0  # atno 17370 bound_to 10713
  155.9848  130.3988  150.3292 LP  0  0  0  0  0  0  0  0  0  0  0  0  # atno 17371 bound_to 10713
  141.2152  133.6762  156.6895 LP  0  0  0  0  0  0  0  0  0  0  0  0  # atno 17394 bound_to 11000
  140.2961  134.8201  157.4058 LP  0  0  0  0  0  0  0  0  0  0  0  0  # atno 17395 bound_to 11000

$$$$
