AV-unprocessed.smi:2149|AV-procd|sdf|8755|dock9
  -GOLD-   2272011533D 1   1.00000     0.00000
 Structure written by MMmdl.
 43 44  0  0  0  0  0  0  0  0  2 V2000
  152.1559  138.3593  156.3031 C   0  0  0  0  0  0  0  0  0  0  0  0
  152.1181  138.8489  154.5294 S   0  0  0  0  0  0  0  0  0  0  0  0
  153.2010  139.8213  154.3143 O   0  0  0  0  0  0  0  0  0  0  0  0
  152.0411  137.6391  153.6966 O   0  0  0  0  0  0  0  0  0  0  0  0
  150.6086  139.6912  154.3808 N   0  0  0  0  0  0  0  0  0  0  0  0
  150.4439  140.9323  155.1645 C   0  0  0  0  0  0  0  0  0  0  0  0
  149.2652  141.7731  154.6492 C   0  0  0  0  0  0  0  0  0  0  0  0
  147.9741  140.9510  154.6137 C   0  0  0  0  0  0  0  0  0  0  0  0
  148.1908  139.7025  153.7434 C   0  0  2  0  0  0  0  0  0  0  0  0
  146.9180  138.8477  153.6792 C   0  0  0  0  0  0  0  0  0  0  0  0
  145.9554  139.1091  154.4016 O   0  0  0  0  0  0  0  0  0  0  0  0
  146.9264  137.8228  152.8125 N   0  0  0  0  0  0  0  0  0  0  0  0
  145.8253  136.8878  152.6148 C   0  0  0  0  0  0  0  0  0  0  0  0
  145.5456  136.6529  151.1205 C   0  0  0  0  0  0  0  0  0  0  0  0
  145.5958  135.1837  150.7498 C   0  0  0  0  0  0  0  0  0  0  0  0
  144.4972  134.5166  150.1654 C   0  0  0  0  0  0  0  0  0  0  0  0
  144.6131  133.1470  149.8474 C   0  0  0  0  0  0  0  0  0  0  0  0
  145.8220  132.4743  150.1218 C   0  0  0  0  0  0  0  0  0  0  0  0
  146.8865  133.1890  150.7081 C   0  0  0  0  0  0  0  0  0  0  0  0
  146.7371  134.5006  150.9969 N   0  3  0  0  0  0  0  0  0  0  0  0
  149.3806  138.8758  154.2771 C   0  0  0  0  0  0  0  0  0  0  0  0
  153.1134  137.8877  156.5236 H   0  0  0  0  0  0  0  0  0  0  0  0
  151.3555  137.6521  156.5151 H   0  0  0  0  0  0  0  0  0  0  0  0
  152.0382  139.2441  156.9279 H   0  0  0  0  0  0  0  0  0  0  0  0
  150.2905  140.6700  156.2122 H   0  0  0  0  0  0  0  0  0  0  0  0
  151.3569  141.5240  155.1198 H   0  0  0  0  0  0  0  0  0  0  0  0
  149.1304  142.6494  155.2837 H   0  0  0  0  0  0  0  0  0  0  0  0
  149.4918  142.1473  153.6500 H   0  0  0  0  0  0  0  0  0  0  0  0
  147.6919  140.6682  155.6291 H   0  0  0  0  0  0  0  0  0  0  0  0
  147.1590  141.5577  154.2168 H   0  0  0  0  0  0  0  0  0  0  0  0
  148.4346  140.0310  152.7311 H   0  0  0  0  0  0  0  0  0  0  0  0
  147.7560  137.6798  152.2545 H   0  0  0  0  0  0  0  0  0  0  0  0
  146.0443  135.9448  153.1191 H   0  0  0  0  0  0  0  0  0  0  0  0
  144.9392  137.2996  153.0986 H   0  0  0  0  0  0  0  0  0  0  0  0
  144.5667  137.0556  150.8570 H   0  0  0  0  0  0  0  0  0  0  0  0
  146.2727  137.1897  150.5093 H   0  0  0  0  0  0  0  0  0  0  0  0
  143.5769  135.0455  149.9629 H   0  0  0  0  0  0  0  0  0  0  0  0
  143.7844  132.6191  149.3983 H   0  0  0  0  0  0  0  0  0  0  0  0
  145.9308  131.4256  149.8862 H   0  0  0  0  0  0  0  0  0  0  0  0
  147.8453  132.7550  150.9525 H   0  0  0  0  0  0  0  0  0  0  0  0
  149.5575  138.0336  153.6080 H   0  0  0  0  0  0  0  0  0  0  0  0
  149.1579  138.4560  155.2595 H   0  0  0  0  0  0  0  0  0  0  0  0
  147.5207  134.9991  151.4201 H   0  0  0  0  0  0  0  0  0  0  0  0
  1  2  1  0  0  0  0
  1 22  1  0  0  0  0
  1 23  1  0  0  0  0
  1 24  1  0  0  0  0
  2  3  2  0  0  0  0
  2  4  2  0  0  0  0
  2  5  1  0  0  0  0
  5 21  1  0  0  0  0
  5  6  1  0  0  0  0
  6  7  1  0  0  0  0
  6 25  1  0  0  0  0
  6 26  1  0  0  0  0
  7  8  1  0  0  0  0
  7 27  1  0  0  0  0
  7 28  1  0  0  0  0
  8  9  1  0  0  0  0
  8 29  1  0  0  0  0
  8 30  1  0  0  0  0
  9 10  1  0  0  0  0
  9 21  1  0  0  0  0
  9 31  1  0  0  0  0
 10 11  2  0  0  0  0
 10 12  1  0  0  0  0
 12 13  1  0  0  0  0
 12 32  1  0  0  0  0
 13 14  1  0  0  0  0
 13 33  1  0  0  0  0
 13 34  1  0  0  0  0
 14 15  1  0  0  0  0
 14 35  1  0  0  0  0
 14 36  1  0  0  0  0
 15 20  1  0  0  0  0
 15 16  2  0  0  0  0
 16 17  1  0  0  0  0
 16 37  1  0  0  0  0
 17 18  2  0  0  0  0
 17 38  1  0  0  0  0
 18 19  1  0  0  0  0
 18 39  1  0  0  0  0
 19 20  2  0  0  0  0
 19 40  1  0  0  0  0
 20 43  1  0  0  0  0
 21 41  1  0  0  0  0
 21 42  1  0  0  0  0
M  CHG  1  20   1
M  END
> <s_m_source_file>
AV-unprocessed.smi

> <i_m_source_file_index>
2149

> <i_lp_mmshare_version>
43012

> <i_f3d_flags>
0

> <s_epik_input>
W0NIM11TKD1PKSg9TylOMVtDSDJdW0NIMl1bQ0gyXVtDQEhdKFtDSDJdMSlDKD1PKVtOSF1bQ0gyXVtDSDJdYzJbY0hdW2NIXVtjSF1bY0hdbjI=

> <s_epik_cmdline>
J2VwaWtfcHl0aG9uJywgJy1waCcsICc3LjAnLCAnLXRuJywgJzgnLCAnLW1hJywgJzIwMCcsICctbWV0YWxfYmluZGluZycsICctaW1hZScsICc8aW5maWxlLm1hZT4nLCAnLW9tYWUnLCAnPG91dGZpbGUubWFlPic=

> <r_epik_Ionization_Penalty>
1.83523

> <r_epik_Ionization_Penalty_Charging>
1.83523

> <r_epik_Ionization_Penalty_Neutral>
2.62835e-08

> <r_epik_State_Penalty>
1.95153

> <r_epik_Charging_Adjusted_Penalty>
3.78676

> <i_epik_Tot_Q>
1

> <i_epik_Tot_abs_Q>
1

> <r_epik_Metal_State_Penalty>
1.97791

> <b_epik_Metal_Only>
0

> <s_lp_Force_Field>
OPLS_2005

> <r_lp_Energy>
9.7414

> <b_lp_Chiralities_Consistent>
1

> <s_lp_Variant>
AV-unprocessed.smi:2149-4

> <Gold.Version>
5.8.1

> <Gold.Id.Protein>
6NUR|6NUR_protein|mol2

> <Gold.PLP.Fitness>
50.6582

> <Gold.PLP.PLP>
-37.0860

> <Gold.PLP.part.hbond>
-5.8089

> <Gold.PLP.part.metal>
0.0000

> <Gold.PLP.part.buried>
-0.9791

> <Gold.PLP.part.nonpolar>
-30.5036

> <Gold.PLP.part.repulsive>
0.4717

> <Gold.PLP.ligand.clash>
0.0000

> <Gold.PLP.ligand.torsion>
0.9702

> <Gold.PLP.Chemscore.Hbond>
4.9196

> <Gold.PLP.Chemscore.CHOScore>
0.0000

> <Gold.PLP.Chemscore.Metal>
0.0000

> <Gold.Chemscore.Hbonds>
donor molecule, donor type, donor heavy atom, donor atom, acceptor molecule, acceptor atom, score
      L1  H    12    32       P1  7948  0.77
      L1  H    20    43       P1  7948  2.00
      P1  H  7989  7998       L1     3  0.02
      P1  H  7997  8008       L1     3  0.49
      P1  H 10752 10763       L1     4  0.26

> <Gold.PLP.Chemscore.Internal.Correction>
0.7538

> <Gold.Rescore>
     Score         DG    S(hbond)    S(metal)    S(lipo)     H(rot)  DE(clash)    DE(int)     intcor
     21.07     -22.72       3.74        0.00      83.11       1.95       0.26       1.39       ----

> <Gold.Chemscore.Fitness>
21.0656

> <Gold.Chemscore.DG>
-22.7167

> <Gold.Chemscore.ZeroCoef>
-5.4800

> <Gold.Chemscore.Hbond>
3.7412

> <Gold.Chemscore.Metal>
0.0000

> <Gold.Chemscore.Lipo>
83.1146

> <Gold.Chemscore.Internal_Hbond>
0.0000

> <Gold.Chemscore.DEClash>
0.2566

> <Gold.Chemscore.DEInternal>
1.3945

> <Gold.Chemscore.Rot>
1.9466

> <Gold.Chemscore.Internal.Correction>
   9.000000E+99

> <Gold.Chemscore.Hbonds>
donor molecule, donor type, donor heavy atom, donor atom, acceptor molecule, acceptor atom, score
      L1  H    12    32       P1  7948  0.76
      L1  H    20    43       P1  7948  0.50
      P1  H  7997  8008       L1     3  0.43
      P1  H 10752 10763       L1     4  0.26

> <Gold.Chemscore.Hbond.Weighted>
-12.4955

> <Gold.Chemscore.Metal.Weighted>
-0.0000

> <Gold.Chemscore.Lipo.Weighted>
-9.7244

> <Gold.Chemscore.Internal_Hbond.Weighted>
0.0000

> <Gold.Chemscore.DEClash.Weighted>
0.2566

> <Gold.Chemscore.DEInternal.Weighted>
1.3945

> <Gold.Chemscore.Rot.Weighted>
4.9832

> <Gold.Chemscore.Internal.Correction.Weighted>
   9.000000E+99

> <Gold.Protein.RotatedTorsions>
[ 6907 6896 6895 6894 ] final  173.80 input  -60.11 | X-H torsion
[ 7974 7965 7964 7962 ] final -132.18 input  175.53 | X-H torsion
[ 8008 7997 7996 7995 ] final  -32.02 input   59.86 | X-H torsion
[ 10167 10162 10161 10158 ] final   81.14 input  -65.29 | X-H torsion
[ 10718 10713 10712 10709 ] final   32.63 input   66.30 | X-H torsion
[ 10763 10752 10751 10750 ] final   48.54 input  -60.55 | X-H torsion
[ 11005 11000 10999 10996 ] final  103.60 input  -57.11 | X-H torsion

> <Gold.Protein.ActiveResidues>
 VAL166  LYS551  ARG553  GLY616  TRP617  ASP618  TYR619  PRO620  LYS621  CYS622 
 ASP623  PHE694  ASN695  SER759  ASP760  ASP761  ALA762  ILE779  LEU786  VAL792 
 PHE793  MET794  SER795  GLU796  ALA797  LYS798  CYS799  TRP800  GLU811  SER814 

> <Gold.Protein.RotatedAtoms>
  151.7625  133.3335  159.3421 H   0  0  0  0  0  0  0  0  0  0  0  0  # atno 6907 bound_to 6896
  150.7492  134.6092  159.6086 H   0  0  0  0  0  0  0  0  0  0  0  0  # atno 6908 bound_to 6896
  152.3395  134.7155  160.0319 H   0  0  0  0  0  0  0  0  0  0  0  0  # atno 6909 bound_to 6896
  144.9309  140.7127  143.4906 H   0  0  0  0  0  0  0  0  0  0  0  0  # atno 7974 bound_to 7965
  154.4194  140.1748  156.1660 H   0  0  0  0  0  0  0  0  0  0  0  0  # atno 8008 bound_to 7997
  155.9799  140.3378  155.6629 H   0  0  0  0  0  0  0  0  0  0  0  0  # atno 8009 bound_to 7997
  155.6514  140.0691  157.2576 H   0  0  0  0  0  0  0  0  0  0  0  0  # atno 8010 bound_to 7997
  139.9423  144.6081  150.8239 H   0  0  0  0  0  0  0  0  0  0  0  0  # atno 10167 bound_to 10162
  157.2877  130.7287  149.6592 H   0  0  0  0  0  0  0  0  0  0  0  0  # atno 10718 bound_to 10713
  152.9791  135.5941  154.3943 H   0  0  0  0  0  0  0  0  0  0  0  0  # atno 10763 bound_to 10752
  154.3595  135.2767  155.2329 H   0  0  0  0  0  0  0  0  0  0  0  0  # atno 10764 bound_to 10752
  154.4333  135.6031  153.6137 H   0  0  0  0  0  0  0  0  0  0  0  0  # atno 10765 bound_to 10752
  139.8785  134.9269  156.5234 H   0  0  0  0  0  0  0  0  0  0  0  0  # atno 11005 bound_to 11000
  145.3143  139.1808  143.4622 LP  0  0  0  0  0  0  0  0  0  0  0  0  # atno 17320 bound_to 7965
  146.3246  140.3152  142.8629 LP  0  0  0  0  0  0  0  0  0  0  0  0  # atno 17321 bound_to 7965
  140.7607  143.3157  151.2738 LP  0  0  0  0  0  0  0  0  0  0  0  0  # atno 17342 bound_to 10162
  139.6694  144.0047  152.2743 LP  0  0  0  0  0  0  0  0  0  0  0  0  # atno 17343 bound_to 10162
  155.9666  130.4318  150.4938 LP  0  0  0  0  0  0  0  0  0  0  0  0  # atno 17370 bound_to 10713
  157.2894  131.0623  151.2144 LP  0  0  0  0  0  0  0  0  0  0  0  0  # atno 17371 bound_to 10713
  140.8434  133.8188  155.9097 LP  0  0  0  0  0  0  0  0  0  0  0  0  # atno 17394 bound_to 11000
  140.9215  134.2135  157.4923 LP  0  0  0  0  0  0  0  0  0  0  0  0  # atno 17395 bound_to 11000

$$$$
