AV-unprocessed.smi:1760|AV-procd|sdf|7089|dock1
  -GOLD-   22720 8303D 1   1.00000     0.00000
 Structure written by MMmdl.
 44 46  0  0  0  0  0  0  0  0  2 V2000
  146.8224  137.2375  153.3118 O   0  0  0  0  0  0  0  0  0  0  0  0
  146.1475  138.1886  152.9192 C   0  0  0  0  0  0  0  0  0  0  0  0
  146.4584  139.4892  153.0706 N   0  0  0  0  0  0  0  0  0  0  0  0
  147.5568  140.0681  153.7284 C   0  0  0  0  0  0  0  0  0  0  0  0
  148.6865  139.4022  154.0838 C   0  0  0  0  0  0  0  0  0  0  0  0
  149.7822  140.0576  154.7778 C   0  0  0  0  0  0  0  0  0  0  0  0
  151.0739  139.3224  155.0994 C   0  0  0  0  0  0  0  0  0  0  0  0
  151.0529  138.0770  154.6229 F   0  0  0  0  0  0  0  0  0  0  0  0
  152.1062  139.9599  154.5488 F   0  0  0  0  0  0  0  0  0  0  0  0
  151.2767  139.2634  156.4158 F   0  0  0  0  0  0  0  0  0  0  0  0
  149.6258  141.3672  155.0450 C   0  0  0  0  0  0  0  0  0  0  0  0
  148.4590  142.0541  154.7023 N   0  0  0  0  0  0  0  0  0  0  0  0
  147.4075  141.4941  154.0631 C   0  0  0  0  0  0  0  0  0  0  0  0
  146.4121  142.1668  153.7961 O   0  0  0  0  0  0  0  0  0  0  0  0
  144.9926  138.0490  152.2518 N   0  0  0  0  0  0  0  0  0  0  0  0
  144.3666  136.7818  151.8821 C   0  0  2  0  0  0  0  0  0  0  0  0
  144.2488  135.8749  153.1185 C   0  0  0  0  0  0  0  0  0  0  0  0
  143.6974  134.4904  152.7399 C   0  0  0  0  0  0  0  0  0  0  0  0
  144.5363  133.8509  151.6960 N   0  3  1  0  0  0  0  0  0  0  0  0
  144.0979  132.4702  151.3989 C   0  0  0  0  0  0  0  0  0  0  0  0
  145.2065  131.5811  150.8855 C   0  0  0  0  0  0  0  0  0  0  0  0
  144.1600  132.1139  149.9319 C   0  0  0  0  0  0  0  0  0  0  0  0
  144.6242  134.6878  150.4735 C   0  0  0  0  0  0  0  0  0  0  0  0
  145.1982  136.0778  150.7966 C   0  0  0  0  0  0  0  0  0  0  0  0
  148.4123  143.0317  154.9511 H   0  0  0  0  0  0  0  0  0  0  0  0
  145.8433  140.1532  152.6228 H   0  0  0  0  0  0  0  0  0  0  0  0
  148.7971  138.3497  153.8803 H   0  0  0  0  0  0  0  0  0  0  0  0
  150.3704  141.9819  155.5291 H   0  0  0  0  0  0  0  0  0  0  0  0
  144.5119  138.8907  151.9688 H   0  0  0  0  0  0  0  0  0  0  0  0
  143.3635  136.9504  151.4858 H   0  0  0  0  0  0  0  0  0  0  0  0
  145.2262  135.7584  153.5895 H   0  0  0  0  0  0  0  0  0  0  0  0
  143.6001  136.3388  153.8627 H   0  0  0  0  0  0  0  0  0  0  0  0
  143.6677  133.8556  153.6265 H   0  0  0  0  0  0  0  0  0  0  0  0
  142.6711  134.5795  152.3802 H   0  0  0  0  0  0  0  0  0  0  0  0
  143.3121  132.0639  152.0335 H   0  0  0  0  0  0  0  0  0  0  0  0
  146.2099  131.9970  150.8127 H   0  0  0  0  0  0  0  0  0  0  0  0
  145.1594  130.5237  151.1376 H   0  0  0  0  0  0  0  0  0  0  0  0
  143.4228  131.4075  149.5559 H   0  0  0  0  0  0  0  0  0  0  0  0
  144.4683  132.8834  149.2264 H   0  0  0  0  0  0  0  0  0  0  0  0
  145.2589  134.1949  149.7360 H   0  0  0  0  0  0  0  0  0  0  0  0
  143.6343  134.7842  150.0246 H   0  0  0  0  0  0  0  0  0  0  0  0
  145.2233  136.6857  149.8911 H   0  0  0  0  0  0  0  0  0  0  0  0
  146.2324  135.9736  151.1284 H   0  0  0  0  0  0  0  0  0  0  0  0
  145.4711  133.7831  152.0722 H   0  0  0  0  0  0  0  0  0  0  0  0
  1  2  2  0  0  0  0
  2  3  1  0  0  0  0
  2 15  1  0  0  0  0
  3  4  1  0  0  0  0
  3 26  1  0  0  0  0
  4 13  1  0  0  0  0
  4  5  2  0  0  0  0
  5  6  1  0  0  0  0
  5 27  1  0  0  0  0
  6  7  1  0  0  0  0
  6 11  2  0  0  0  0
  7  8  1  0  0  0  0
  7  9  1  0  0  0  0
  7 10  1  0  0  0  0
 11 12  1  0  0  0  0
 11 28  1  0  0  0  0
 12 25  1  0  0  0  0
 12 13  1  0  0  0  0
 13 14  2  0  0  0  0
 15 16  1  0  0  0  0
 15 29  1  0  0  0  0
 16 24  1  0  0  0  0
 16 17  1  0  0  0  0
 16 30  1  0  0  0  0
 17 18  1  0  0  0  0
 17 31  1  0  0  0  0
 17 32  1  0  0  0  0
 18 19  1  0  0  0  0
 18 33  1  0  0  0  0
 18 34  1  0  0  0  0
 19 20  1  0  0  0  0
 19 23  1  0  0  0  0
 19 44  1  0  0  0  0
 20 22  1  0  0  0  0
 20 21  1  0  0  0  0
 20 35  1  0  0  0  0
 21 22  1  0  0  0  0
 21 36  1  0  0  0  0
 21 37  1  0  0  0  0
 22 38  1  0  0  0  0
 22 39  1  0  0  0  0
 23 24  1  0  0  0  0
 23 40  1  0  0  0  0
 23 41  1  0  0  0  0
 24 42  1  0  0  0  0
 24 43  1  0  0  0  0
M  CHG  1  19   1
M  END
> <s_m_source_file>
AV-unprocessed.smi

> <i_m_source_file_index>
1760

> <i_lp_mmshare_version>
43012

> <i_f3d_flags>
0

> <s_epik_input>
W0NIMl0xW0NIMl1bQ0hdMU4oW0NIMl1bQ0gyXTIpW0NIMl1bQ0gyXVtDSF0yW05IXUMoPU8pW05IXWMzW2NIXWMoQyhGKShGKUYpW2NIXVtuSF1jMz1P

> <s_epik_cmdline>
J2VwaWtfcHl0aG9uJywgJy1waCcsICc3LjAnLCAnLXRuJywgJzgnLCAnLW1hJywgJzIwMCcsICctbWV0YWxfYmluZGluZycsICctaW1hZScsICc8aW5maWxlLm1hZT4nLCAnLW9tYWUnLCAnPG91dGZpbGUubWFlPic=

> <r_lp_tautomer_probability>
0.999

> <r_epik_Ionization_Penalty>
0.131122

> <r_epik_Ionization_Penalty_Charging>
0.131104

> <r_epik_Ionization_Penalty_Neutral>
1.84439e-05

> <r_epik_State_Penalty>
0.116042

> <r_epik_Charging_Adjusted_Penalty>
0.247146

> <i_epik_Tot_Q>
1

> <i_epik_Tot_abs_Q>
1

> <r_epik_Metal_State_Penalty>
0.492282

> <b_epik_Metal_Only>
0

> <s_lp_Force_Field>
OPLS_2005

> <r_lp_Energy>
37.3321

> <b_lp_Chiralities_Consistent>
1

> <s_lp_Variant>
AV-unprocessed.smi:1760-1

> <Gold.Version>
5.8.1

> <Gold.Id.Protein>
6NUR|6NUR_protein|mol2

> <Gold.PLP.Fitness>
43.6901

> <Gold.PLP.PLP>
-40.3197

> <Gold.PLP.part.hbond>
-4.0000

> <Gold.PLP.part.metal>
0.0000

> <Gold.PLP.part.buried>
-0.1280

> <Gold.PLP.part.nonpolar>
-38.8129

> <Gold.PLP.part.repulsive>
2.4200

> <Gold.PLP.ligand.clash>
2.8323

> <Gold.PLP.ligand.torsion>
1.0545

> <Gold.PLP.Chemscore.Hbond>
2.2941

> <Gold.PLP.Chemscore.CHOScore>
0.0000

> <Gold.PLP.Chemscore.Metal>
0.0000

> <Gold.Chemscore.Hbonds>
donor molecule, donor type, donor heavy atom, donor atom, acceptor molecule, acceptor atom, score
      L1  H     3    26       P1 10175  0.46
      L1  H    12    25       P1  8028  1.00
      L1  H    15    29       P1 10175  0.99

> <Gold.PLP.Chemscore.Internal.Correction>
1.4294

> <Gold.Rescore>
     Score         DG    S(hbond)    S(metal)    S(lipo)     H(rot)  DE(clash)    DE(int)     intcor
     12.81     -18.33       1.96        0.00      81.92       1.29       2.27       3.25       ----

> <Gold.Chemscore.Fitness>
12.8085

> <Gold.Chemscore.DG>
-18.3313

> <Gold.Chemscore.ZeroCoef>
-5.4800

> <Gold.Chemscore.Hbond>
1.9648

> <Gold.Chemscore.Metal>
0.0000

> <Gold.Chemscore.Lipo>
81.9214

> <Gold.Chemscore.Internal_Hbond>
0.0000

> <Gold.Chemscore.DEClash>
2.2678

> <Gold.Chemscore.DEInternal>
3.2550

> <Gold.Chemscore.Rot>
1.2875

> <Gold.Chemscore.Internal.Correction>
   9.000000E+99

> <Gold.Chemscore.Hbonds>
donor molecule, donor type, donor heavy atom, donor atom, acceptor molecule, acceptor atom, score
      L1  H     3    26       P1 10175  0.41
      L1  H    12    25       P1  8028  1.00
      L1  H    15    29       P1 10175  0.93

> <Gold.Chemscore.Hbond.Weighted>
-6.5625

> <Gold.Chemscore.Metal.Weighted>
-0.0000

> <Gold.Chemscore.Lipo.Weighted>
-9.5848

> <Gold.Chemscore.Internal_Hbond.Weighted>
0.0000

> <Gold.Chemscore.DEClash.Weighted>
2.2678

> <Gold.Chemscore.DEInternal.Weighted>
3.2550

> <Gold.Chemscore.Rot.Weighted>
3.2960

> <Gold.Chemscore.Internal.Correction.Weighted>
   9.000000E+99

> <Gold.Protein.RotatedTorsions>
[ 6907 6896 6895 6894 ] final  -57.48 input  -60.11 | X-H torsion
[ 7974 7965 7964 7962 ] final  151.32 input  175.53 | X-H torsion
[ 8008 7997 7996 7995 ] final  -78.52 input   59.86 | X-H torsion
[ 10167 10162 10161 10158 ] final  177.00 input  -65.29 | X-H torsion
[ 10718 10713 10712 10709 ] final   41.63 input   66.30 | X-H torsion
[ 10763 10752 10751 10750 ] final  105.18 input  -60.55 | X-H torsion
[ 11005 11000 10999 10996 ] final   50.91 input  -57.11 | X-H torsion

> <Gold.Protein.ActiveResidues>
 VAL166  LYS551  ARG553  GLY616  TRP617  ASP618  TYR619  PRO620  LYS621  CYS622 
 ASP623  PHE694  ASN695  SER759  ASP760  ASP761  ALA762  ILE779  LEU786  VAL792 
 PHE793  MET794  SER795  GLU796  ALA797  LYS798  CYS799  TRP800  GLU811  SER814 

> <Gold.Protein.RotatedAtoms>
  150.8083  134.7222  159.6664 H   0  0  0  0  0  0  0  0  0  0  0  0  # atno 6907 bound_to 6896
  152.4203  134.5965  159.9998 H   0  0  0  0  0  0  0  0  0  0  0  0  # atno 6908 bound_to 6896
  151.6182  133.3304  159.3118 H   0  0  0  0  0  0  0  0  0  0  0  0  # atno 6909 bound_to 6896
  144.8301  139.6522  143.6062 H   0  0  0  0  0  0  0  0  0  0  0  0  # atno 7974 bound_to 7965
  154.5697  140.0693  156.8946 H   0  0  0  0  0  0  0  0  0  0  0  0  # atno 8008 bound_to 7997
  155.2657  140.3361  155.4251 H   0  0  0  0  0  0  0  0  0  0  0  0  # atno 8009 bound_to 7997
  156.2109  140.1758  156.7683 H   0  0  0  0  0  0  0  0  0  0  0  0  # atno 8010 bound_to 7997
  139.5236  144.2849  152.0514 H   0  0  0  0  0  0  0  0  0  0  0  0  # atno 10167 bound_to 10162
  157.3957  130.7832  149.7306 H   0  0  0  0  0  0  0  0  0  0  0  0  # atno 10718 bound_to 10713
  153.3759  135.3918  155.1822 H   0  0  0  0  0  0  0  0  0  0  0  0  # atno 10763 bound_to 10752
  154.8701  135.3713  154.4919 H   0  0  0  0  0  0  0  0  0  0  0  0  # atno 10764 bound_to 10752
  153.5391  135.7085  153.5706 H   0  0  0  0  0  0  0  0  0  0  0  0  # atno 10765 bound_to 10752
  140.0977  134.5123  155.8791 H   0  0  0  0  0  0  0  0  0  0  0  0  # atno 11005 bound_to 11000
  146.2604  139.6398  142.9366 LP  0  0  0  0  0  0  0  0  0  0  0  0  # atno 17320 bound_to 7965
  145.4915  141.0438  143.2591 LP  0  0  0  0  0  0  0  0  0  0  0  0  # atno 17321 bound_to 7965
  140.2303  144.4375  150.6303 LP  0  0  0  0  0  0  0  0  0  0  0  0  # atno 17342 bound_to 10162
  140.6360  143.2195  151.6394 LP  0  0  0  0  0  0  0  0  0  0  0  0  # atno 17343 bound_to 10162
  155.9810  130.4024  150.3498 LP  0  0  0  0  0  0  0  0  0  0  0  0  # atno 17370 bound_to 10713
  157.1619  131.0347  151.2837 LP  0  0  0  0  0  0  0  0  0  0  0  0  # atno 17371 bound_to 10713
  141.2097  133.6686  156.6456 LP  0  0  0  0  0  0  0  0  0  0  0  0  # atno 17394 bound_to 11000
  140.3263  134.7966  157.4291 LP  0  0  0  0  0  0  0  0  0  0  0  0  # atno 17395 bound_to 11000

$$$$
