AV-unprocessed.smi:314|AV-procd|sdf|2314|dock9
  -GOLD-   2262022213D 1   1.00000     0.00000
 Structure written by MMmdl.
 48 49  0  0  0  0  0  0  0  0  1 V2000
  142.9973  132.5395  148.2882 C   0  0  0  0  0  0  0  0  0  0  0  0
  143.4119  131.7902  149.4252 O   0  0  0  0  0  0  0  0  0  0  0  0
  144.4298  132.2961  150.2074 C   0  0  0  0  0  0  0  0  0  0  0  0
  144.9721  131.4789  151.2192 C   0  0  0  0  0  0  0  0  0  0  0  0
  146.0157  131.9849  152.0173 C   0  0  0  0  0  0  0  0  0  0  0  0
  146.4893  133.2955  151.7721 C   0  0  0  0  0  0  0  0  0  0  0  0
  147.5213  133.9200  152.5217 N   0  0  0  0  0  0  0  0  0  0  0  0
  148.1517  133.4527  153.6123 C   0  0  0  0  0  0  0  0  0  0  0  0
  147.9466  132.3583  154.1375 O   0  0  0  0  0  0  0  0  0  0  0  0
  149.0689  134.3250  154.0540 N   0  0  0  0  0  0  0  0  0  0  0  0
  149.9487  134.1039  155.1960 C   0  0  0  0  0  0  0  0  0  0  0  0
  150.8030  135.3524  155.4944 C   0  0  0  0  0  0  0  0  0  0  0  0
  149.9920  136.6562  155.5846 C   0  0  0  0  0  0  0  0  0  0  0  0
  149.0171  136.7039  156.3364 O   0  0  0  0  0  0  0  0  0  0  0  0
  150.3794  137.7186  154.8385 N   0  0  0  0  0  0  0  0  0  0  0  0
  151.5436  137.7742  153.9492 C   0  0  0  0  0  0  0  0  0  0  0  0
  152.5622  138.7890  154.5099 C   0  0  2  0  0  0  0  0  0  0  0  0
  153.2813  138.3117  155.7846 C   0  0  0  0  0  0  0  0  0  0  0  0
  151.9249  140.0548  154.7101 O   0  0  0  0  0  0  0  0  0  0  0  0
  150.7394  140.0325  155.5094 C   0  0  1  0  0  0  0  0  0  0  0  0
  150.1758  141.4569  155.5598 C   0  0  0  0  0  0  0  0  0  0  0  0
  149.7335  139.0305  154.9101 C   0  0  0  0  0  0  0  0  0  0  0  0
  145.8663  134.0390  150.7488 C   0  0  0  0  0  0  0  0  0  0  0  0
  144.8681  133.5588  149.9780 N   0  0  0  0  0  0  0  0  0  0  0  0
  142.1978  132.0050  147.7755 H   0  0  0  0  0  0  0  0  0  0  0  0
  143.8149  132.6714  147.5779 H   0  0  0  0  0  0  0  0  0  0  0  0
  142.6101  133.5183  148.5747 H   0  0  0  0  0  0  0  0  0  0  0  0
  144.5921  130.4812  151.3828 H   0  0  0  0  0  0  0  0  0  0  0  0
  146.4206  131.3685  152.8049 H   0  0  0  0  0  0  0  0  0  0  0  0
  147.8640  134.7922  152.1467 H   0  0  0  0  0  0  0  0  0  0  0  0
  149.1726  135.2000  153.5613 H   0  0  0  0  0  0  0  0  0  0  0  0
  149.3249  133.8607  156.0569 H   0  0  0  0  0  0  0  0  0  0  0  0
  150.5808  133.2330  155.0118 H   0  0  0  0  0  0  0  0  0  0  0  0
  151.3273  135.2097  156.4401 H   0  0  0  0  0  0  0  0  0  0  0  0
  151.5602  135.4620  154.7170 H   0  0  0  0  0  0  0  0  0  0  0  0
  152.0274  136.8118  153.7897 H   0  0  0  0  0  0  0  0  0  0  0  0
  151.2120  138.0970  152.9612 H   0  0  0  0  0  0  0  0  0  0  0  0
  153.3283  138.9489  153.7508 H   0  0  0  0  0  0  0  0  0  0  0  0
  153.8447  137.3986  155.5912 H   0  0  0  0  0  0  0  0  0  0  0  0
  152.5887  138.0984  156.5981 H   0  0  0  0  0  0  0  0  0  0  0  0
  153.9863  139.0650  156.1365 H   0  0  0  0  0  0  0  0  0  0  0  0
  150.9920  139.7321  156.5268 H   0  0  0  0  0  0  0  0  0  0  0  0
  149.2753  141.5014  156.1728 H   0  0  0  0  0  0  0  0  0  0  0  0
  149.9210  141.8165  154.5625 H   0  0  0  0  0  0  0  0  0  0  0  0
  150.9026  142.1478  155.9877 H   0  0  0  0  0  0  0  0  0  0  0  0
  149.4353  139.3421  153.9078 H   0  0  0  0  0  0  0  0  0  0  0  0
  148.8199  139.0194  155.5058 H   0  0  0  0  0  0  0  0  0  0  0  0
  146.1827  135.0495  150.5346 H   0  0  0  0  0  0  0  0  0  0  0  0
  1  2  1  0  0  0  0
  1 25  1  0  0  0  0
  1 26  1  0  0  0  0
  1 27  1  0  0  0  0
  2  3  1  0  0  0  0
  3 24  1  0  0  0  0
  3  4  2  0  0  0  0
  4  5  1  0  0  0  0
  4 28  1  0  0  0  0
  5  6  2  0  0  0  0
  5 29  1  0  0  0  0
  6  7  1  0  0  0  0
  6 23  1  0  0  0  0
  7  8  1  0  0  0  0
  7 30  1  0  0  0  0
  8  9  2  0  0  0  0
  8 10  1  0  0  0  0
 10 11  1  0  0  0  0
 10 31  1  0  0  0  0
 11 12  1  0  0  0  0
 11 32  1  0  0  0  0
 11 33  1  0  0  0  0
 12 13  1  0  0  0  0
 12 34  1  0  0  0  0
 12 35  1  0  0  0  0
 13 14  2  0  0  0  0
 13 15  1  0  0  0  0
 15 22  1  0  0  0  0
 15 16  1  0  0  0  0
 16 17  1  0  0  0  0
 16 36  1  0  0  0  0
 16 37  1  0  0  0  0
 17 18  1  0  0  0  0
 17 19  1  0  0  0  0
 17 38  1  0  0  0  0
 18 39  1  0  0  0  0
 18 40  1  0  0  0  0
 18 41  1  0  0  0  0
 19 20  1  0  0  0  0
 20 21  1  0  0  0  0
 20 22  1  0  0  0  0
 20 42  1  0  0  0  0
 21 43  1  0  0  0  0
 21 44  1  0  0  0  0
 21 45  1  0  0  0  0
 22 46  1  0  0  0  0
 22 47  1  0  0  0  0
 23 24  2  0  0  0  0
 23 48  1  0  0  0  0
M  END
> <s_m_source_file>
AV-unprocessed.smi

> <i_m_source_file_index>
314

> <i_lp_mmshare_version>
43012

> <i_f3d_flags>
0

> <s_epik_input>
W0NIM11PYzFbY0hdW2NIXWMoW2NIXW4xKVtOSF1DKD1PKVtOSF1bQ0gyXVtDSDJdQyg9TylOMltDSDJdW0NAQEhdKFtDSDNdKU9bQ0BASF0oW0NIM10pW0NIMl0y

> <s_epik_cmdline>
J2VwaWtfcHl0aG9uJywgJy1waCcsICc3LjAnLCAnLXRuJywgJzgnLCAnLW1hJywgJzIwMCcsICctbWV0YWxfYmluZGluZycsICctaW1hZScsICc8aW5maWxlLm1hZT4nLCAnLW9tYWUnLCAnPG91dGZpbGUubWFlPic=

> <r_lp_tautomer_probability>
1

> <r_epik_Ionization_Penalty>
8.55977e-05

> <r_epik_Ionization_Penalty_Charging>
0

> <r_epik_Ionization_Penalty_Neutral>
8.55977e-05

> <r_epik_State_Penalty>
-0

> <r_epik_Charging_Adjusted_Penalty>
0

> <i_epik_Tot_Q>
0

> <i_epik_Tot_abs_Q>
0

> <r_epik_Metal_State_Penalty>
-0

> <b_epik_Metal_Only>
0

> <s_lp_Force_Field>
OPLS_2005

> <r_lp_Energy>
25.8744

> <b_lp_Chiralities_Consistent>
1

> <s_lp_Variant>
AV-unprocessed.smi:314-2

> <Gold.Version>
5.8.1

> <Gold.Id.Protein>
6NUR|6NUR_protein|mol2

> <Gold.PLP.Fitness>
52.0378

> <Gold.PLP.PLP>
-41.1441

> <Gold.PLP.part.hbond>
-4.0000

> <Gold.PLP.part.metal>
0.0000

> <Gold.PLP.part.buried>
-2.3390

> <Gold.PLP.part.nonpolar>
-37.7863

> <Gold.PLP.part.repulsive>
2.4582

> <Gold.PLP.ligand.clash>
0.0000

> <Gold.PLP.ligand.torsion>
0.1813

> <Gold.PLP.Chemscore.Hbond>
3.7128

> <Gold.PLP.Chemscore.CHOScore>
0.0308

> <Gold.PLP.Chemscore.Metal>
0.0000

> <Gold.Chemscore.Hbonds>
donor molecule, donor type, donor heavy atom, donor atom, acceptor molecule, acceptor atom, score
      L1  H     7    30       P1  7948  1.00
      L1  H    10    31       P1  7948  0.96
      P1  H  7989  7998       L1    19  0.76
      P1  H 10785 10796       L1     2  0.90
      L1  C    23    48       P1  7921  0.03

> <Gold.PLP.Chemscore.Internal.Correction>
0.0254

> <Gold.Rescore>
     Score         DG    S(hbond)    S(metal)    S(lipo)     H(rot)  DE(clash)    DE(int)     intcor
     16.91     -18.91       2.10        0.00      94.52       1.81       0.55       1.45       ----

> <Gold.Chemscore.Fitness>
16.9130

> <Gold.Chemscore.DG>
-18.9128

> <Gold.Chemscore.ZeroCoef>
-5.4800

> <Gold.Chemscore.Hbond>
2.0956

> <Gold.Chemscore.Metal>
0.0000

> <Gold.Chemscore.Lipo>
94.5180

> <Gold.Chemscore.Internal_Hbond>
0.0000

> <Gold.Chemscore.DEClash>
0.5457

> <Gold.Chemscore.DEInternal>
1.4541

> <Gold.Chemscore.Rot>
1.8067

> <Gold.Chemscore.Internal.Correction>
   9.000000E+99

> <Gold.Chemscore.Hbonds>
donor molecule, donor type, donor heavy atom, donor atom, acceptor molecule, acceptor atom, score
      L1  H     7    30       P1  7948  0.60
      L1  H    10    31       P1  7948  0.27
      P1  H  7989  7998       L1    19  0.48
      P1  H 10785 10796       L1     2  0.17

> <Gold.Chemscore.Hbond.Weighted>
-6.9994

> <Gold.Chemscore.Metal.Weighted>
-0.0000

> <Gold.Chemscore.Lipo.Weighted>
-11.0586

> <Gold.Chemscore.Internal_Hbond.Weighted>
0.0000

> <Gold.Chemscore.DEClash.Weighted>
0.5457

> <Gold.Chemscore.DEInternal.Weighted>
1.4541

> <Gold.Chemscore.Rot.Weighted>
4.6252

> <Gold.Chemscore.Internal.Correction.Weighted>
   9.000000E+99

> <Gold.Protein.RotatedTorsions>
[ 6907 6896 6895 6894 ] final  123.86 input  -60.11 | X-H torsion
[ 7974 7965 7964 7962 ] final  167.89 input  175.53 | X-H torsion
[ 8008 7997 7996 7995 ] final   69.76 input   59.86 | X-H torsion
[ 10167 10162 10161 10158 ] final  125.13 input  -65.29 | X-H torsion
[ 10718 10713 10712 10709 ] final   25.44 input   66.30 | X-H torsion
[ 10763 10752 10751 10750 ] final  -53.32 input  -60.55 | X-H torsion
[ 11005 11000 10999 10996 ] final  -60.88 input  -57.11 | X-H torsion

> <Gold.Protein.ActiveResidues>
 VAL166  LYS551  ARG553  GLY616  TRP617  ASP618  TYR619  PRO620  LYS621  CYS622 
 ASP623  PHE694  ASN695  SER759  ASP760  ASP761  ALA762  ILE779  LEU786  VAL792 
 PHE793  MET794  SER795  GLU796  ALA797  LYS798  CYS799  TRP800  GLU811  SER814 

> <Gold.Protein.RotatedAtoms>
  152.4126  133.6988  159.6411 H   0  0  0  0  0  0  0  0  0  0  0  0  # atno 6907 bound_to 6896
  150.8005  133.8596  159.3237 H   0  0  0  0  0  0  0  0  0  0  0  0  # atno 6908 bound_to 6896
  151.6335  135.1022  160.0178 H   0  0  0  0  0  0  0  0  0  0  0  0  # atno 6909 bound_to 6896
  144.7408  139.8827  143.6397 H   0  0  0  0  0  0  0  0  0  0  0  0  # atno 7974 bound_to 7965
  155.7285  140.3492  155.5048 H   0  0  0  0  0  0  0  0  0  0  0  0  # atno 8008 bound_to 7997
  155.9204  140.1066  157.1232 H   0  0  0  0  0  0  0  0  0  0  0  0  # atno 8009 bound_to 7997
  154.4069  140.1250  156.4659 H   0  0  0  0  0  0  0  0  0  0  0  0  # atno 8010 bound_to 7997
  139.5703  144.6935  151.3797 H   0  0  0  0  0  0  0  0  0  0  0  0  # atno 10167 bound_to 10162
  157.1934  130.6856  149.6159 H   0  0  0  0  0  0  0  0  0  0  0  0  # atno 10718 bound_to 10713
  154.1569  135.6481  153.4976 H   0  0  0  0  0  0  0  0  0  0  0  0  # atno 10763 bound_to 10752
  153.0121  135.5351  154.6751 H   0  0  0  0  0  0  0  0  0  0  0  0  # atno 10764 bound_to 10752
  154.6054  135.2948  155.0462 H   0  0  0  0  0  0  0  0  0  0  0  0  # atno 10765 bound_to 10752
  141.1304  133.6625  156.5290 H   0  0  0  0  0  0  0  0  0  0  0  0  # atno 11005 bound_to 11000
  146.1200  139.4216  143.0234 LP  0  0  0  0  0  0  0  0  0  0  0  0  # atno 17320 bound_to 7965
  145.7319  141.0039  143.1347 LP  0  0  0  0  0  0  0  0  0  0  0  0  # atno 17321 bound_to 7965
  140.6987  143.7685  150.7368 LP  0  0  0  0  0  0  0  0  0  0  0  0  # atno 17342 bound_to 10162
  140.1189  143.4630  152.2325 LP  0  0  0  0  0  0  0  0  0  0  0  0  # atno 17343 bound_to 10162
  155.9709  130.4607  150.6082 LP  0  0  0  0  0  0  0  0  0  0  0  0  # atno 17370 bound_to 10713
  157.3838  131.0785  151.1454 LP  0  0  0  0  0  0  0  0  0  0  0  0  # atno 17371 bound_to 10713
  140.4231  134.7169  157.4901 LP  0  0  0  0  0  0  0  0  0  0  0  0  # atno 17394 bound_to 11000
  140.0346  134.6356  155.9061 LP  0  0  0  0  0  0  0  0  0  0  0  0  # atno 17395 bound_to 11000

$$$$
