AV-unprocessed.smi:2775|AV-procd|sdf|10702|dock1
  -GOLD-   2272015143D 1   1.00000     0.00000
 Structure written by MMmdl.
 43 46  0  0  0  0  0  0  0  0  2 V2000
  153.3986  142.8663  163.4210 C   0  0  0  0  0  0  0  0  0  0  0  0
  152.7402  143.1475  162.0841 C   0  0  0  0  0  0  0  0  0  0  0  0
  152.0730  144.3140  161.9451 N   0  3  0  0  0  0  0  0  0  0  0  0
  151.4434  144.6692  160.8063 C   0  0  0  0  0  0  0  0  0  0  0  0
  151.4666  143.8085  159.6917 C   0  0  0  0  0  0  0  0  0  0  0  0
  152.1616  142.5747  159.7774 C   0  0  0  0  0  0  0  0  0  0  0  0
  152.2372  141.6298  158.7154 N   0  0  0  0  0  0  0  0  0  0  0  0
  151.5897  141.5941  157.5350 C   0  0  0  0  0  0  0  0  0  0  0  0
  150.8178  142.4579  157.1264 O   0  0  0  0  0  0  0  0  0  0  0  0
  151.8747  140.5089  156.7950 N   0  0  0  0  0  0  0  0  0  0  0  0
  151.3456  140.1682  155.4743 C   0  0  2  0  0  0  0  0  0  0  0  0
  149.8826  140.5852  155.3106 C   0  0  1  0  0  0  0  0  0  0  0  0
  149.1871  141.6304  154.5158 C   0  0  0  0  0  0  0  0  0  0  0  0
  148.0160  140.7549  154.0013 C   0  0  0  0  0  0  0  0  0  0  0  0
  148.3505  139.3939  154.3670 O   0  0  0  0  0  0  0  0  0  0  0  0
  149.7650  139.3760  154.3964 C   0  0  2  0  0  0  0  0  0  0  0  0
  150.7569  138.7215  155.3694 C   0  0  0  0  0  0  0  0  0  0  0  0
  150.2733  137.8854  156.5690 C   0  0  0  0  0  0  0  0  0  0  0  0
  150.6738  136.6328  155.7828 C   0  0  0  0  0  0  0  0  0  0  0  0
  151.5944  137.5136  154.9308 C   0  0  0  0  0  0  0  0  0  0  0  0
  152.7990  142.2417  160.9988 C   0  0  0  0  0  0  0  0  0  0  0  0
  153.6445  140.7389  161.1682 Cl  0  0  0  0  0  0  0  0  0  0  0  0
  154.4747  142.7414  163.2957 H   0  0  0  0  0  0  0  0  0  0  0  0
  152.9941  141.9530  163.8585 H   0  0  0  0  0  0  0  0  0  0  0  0
  153.2319  143.6814  164.1264 H   0  0  0  0  0  0  0  0  0  0  0  0
  150.9381  145.6240  160.8218 H   0  0  0  0  0  0  0  0  0  0  0  0
  150.9410  144.1162  158.8018 H   0  0  0  0  0  0  0  0  0  0  0  0
  152.8828  140.8693  158.8726 H   0  0  0  0  0  0  0  0  0  0  0  0
  152.5370  139.8543  157.1863 H   0  0  0  0  0  0  0  0  0  0  0  0
  151.9759  140.4633  154.6309 H   0  0  0  0  0  0  0  0  0  0  0  0
  149.3515  140.4357  156.2581 H   0  0  0  0  0  0  0  0  0  0  0  0
  148.8486  142.4705  155.1228 H   0  0  0  0  0  0  0  0  0  0  0  0
  149.8077  142.0037  153.7002 H   0  0  0  0  0  0  0  0  0  0  0  0
  147.0657  141.0340  154.4574 H   0  0  0  0  0  0  0  0  0  0  0  0
  147.9119  140.8436  152.9192 H   0  0  0  0  0  0  0  0  0  0  0  0
  150.1931  139.5307  153.4004 H   0  0  0  0  0  0  0  0  0  0  0  0
  150.8779  138.0227  157.4663 H   0  0  0  0  0  0  0  0  0  0  0  0
  149.2072  137.9618  156.7847 H   0  0  0  0  0  0  0  0  0  0  0  0
  151.1866  135.8703  156.3699 H   0  0  0  0  0  0  0  0  0  0  0  0
  149.8447  136.2135  155.2105 H   0  0  0  0  0  0  0  0  0  0  0  0
  151.5662  137.3007  153.8619 H   0  0  0  0  0  0  0  0  0  0  0  0
  152.6159  137.5353  155.3100 H   0  0  0  0  0  0  0  0  0  0  0  0
  152.0402  144.9540  162.7391 H   0  0  0  0  0  0  0  0  0  0  0  0
  1  2  1  0  0  0  0
  1 23  1  0  0  0  0
  1 24  1  0  0  0  0
  1 25  1  0  0  0  0
  2 21  1  0  0  0  0
  2  3  2  0  0  0  0
  3  4  1  0  0  0  0
  3 43  1  0  0  0  0
  4  5  2  0  0  0  0
  4 26  1  0  0  0  0
  5  6  1  0  0  0  0
  5 27  1  0  0  0  0
  6  7  1  0  0  0  0
  6 21  2  0  0  0  0
  7  8  1  0  0  0  0
  7 28  1  0  0  0  0
  8  9  2  0  0  0  0
  8 10  1  0  0  0  0
 10 11  1  0  0  0  0
 10 29  1  0  0  0  0
 11 17  1  0  0  0  0
 11 12  1  0  0  0  0
 11 30  1  0  0  0  0
 12 16  1  0  0  0  0
 12 13  1  0  0  0  0
 12 31  1  0  0  0  0
 13 14  1  0  0  0  0
 13 32  1  0  0  0  0
 13 33  1  0  0  0  0
 14 15  1  0  0  0  0
 14 34  1  0  0  0  0
 14 35  1  0  0  0  0
 15 16  1  0  0  0  0
 16 17  1  0  0  0  0
 16 36  1  0  0  0  0
 17 20  1  0  0  0  0
 17 18  1  0  0  0  0
 18 19  1  0  0  0  0
 18 37  1  0  0  0  0
 18 38  1  0  0  0  0
 19 20  1  0  0  0  0
 19 39  1  0  0  0  0
 19 40  1  0  0  0  0
 20 41  1  0  0  0  0
 20 42  1  0  0  0  0
 21 22  1  0  0  0  0
M  CHG  1   3   1
M  END
> <s_m_source_file>
AV-unprocessed.smi

> <i_m_source_file_index>
2775

> <i_lp_mmshare_version>
43012

> <i_f3d_flags>
0

> <s_epik_input>
W0NIM11jMW5bY0hdW2NIXWMoYzFDbClbTkhdQyg9TylbTkhdW0NAQEhdMltDQEhdKFtDSDJdW0NIMl1PMylbQ0BASF0zQzI0W0NIMl1bQ0gyXVtDSDJdNA==

> <s_epik_cmdline>
J2VwaWtfcHl0aG9uJywgJy1waCcsICc3LjAnLCAnLXRuJywgJzgnLCAnLW1hJywgJzIwMCcsICctbWV0YWxfYmluZGluZycsICctaW1hZScsICc8aW5maWxlLm1hZT4nLCAnLW9tYWUnLCAnPG91dGZpbGUubWFlPic=

> <r_epik_Ionization_Penalty>
2.4104

> <r_epik_Ionization_Penalty_Charging>
2.41038

> <r_epik_Ionization_Penalty_Neutral>
1.9872e-05

> <r_epik_State_Penalty>
2.56896

> <r_epik_Charging_Adjusted_Penalty>
4.97934

> <i_epik_Tot_Q>
1

> <i_epik_Tot_abs_Q>
1

> <r_epik_Metal_State_Penalty>
2.57906

> <b_epik_Metal_Only>
0

> <s_lp_Force_Field>
OPLS_2005

> <r_lp_Energy>
84.5881

> <b_lp_Chiralities_Consistent>
1

> <s_lp_Variant>
AV-unprocessed.smi:2775-15

> <Gold.Version>
5.8.1

> <Gold.Id.Protein>
6NUR|6NUR_protein|mol2

> <Gold.PLP.Fitness>
47.5676

> <Gold.PLP.PLP>
-47.6995

> <Gold.PLP.part.hbond>
-1.0000

> <Gold.PLP.part.metal>
0.0000

> <Gold.PLP.part.buried>
-3.6015

> <Gold.PLP.part.nonpolar>
-42.4832

> <Gold.PLP.part.repulsive>
0.5103

> <Gold.PLP.ligand.clash>
0.0000

> <Gold.PLP.ligand.torsion>
0.2264

> <Gold.PLP.Chemscore.Hbond>
0.0000

> <Gold.PLP.Chemscore.CHOScore>
0.0000

> <Gold.PLP.Chemscore.Metal>
0.0000

> <Gold.PLP.Chemscore.Internal.Correction>
0.3208

> <Gold.Rescore>
     Score         DG    S(hbond)    S(metal)    S(lipo)     H(rot)  DE(clash)    DE(int)     intcor
     15.29     -18.07       0.00        0.00     129.45       1.00       0.05       2.73       ----

> <Gold.Chemscore.Fitness>
15.2895

> <Gold.Chemscore.DG>
-18.0654

> <Gold.Chemscore.ZeroCoef>
-5.4800

> <Gold.Chemscore.Hbond>
0.0000

> <Gold.Chemscore.Metal>
0.0000

> <Gold.Chemscore.Lipo>
129.4476

> <Gold.Chemscore.Internal_Hbond>
0.0000

> <Gold.Chemscore.DEClash>
0.0456

> <Gold.Chemscore.DEInternal>
2.7303

> <Gold.Chemscore.Rot>
1.0000

> <Gold.Chemscore.Internal.Correction>
   9.000000E+99

> <Gold.Chemscore.Hbond.Weighted>
-0.0000

> <Gold.Chemscore.Metal.Weighted>
-0.0000

> <Gold.Chemscore.Lipo.Weighted>
-15.1454

> <Gold.Chemscore.Internal_Hbond.Weighted>
0.0000

> <Gold.Chemscore.DEClash.Weighted>
0.0456

> <Gold.Chemscore.DEInternal.Weighted>
2.7303

> <Gold.Chemscore.Rot.Weighted>
2.5600

> <Gold.Chemscore.Internal.Correction.Weighted>
   9.000000E+99

> <Gold.Protein.RotatedTorsions>
[ 6907 6896 6895 6894 ] final -167.25 input  -60.11 | X-H torsion
[ 7974 7965 7964 7962 ] final  -74.84 input  175.53 | X-H torsion
[ 8008 7997 7996 7995 ] final -140.63 input   59.86 | X-H torsion
[ 10167 10162 10161 10158 ] final  -93.39 input  -65.29 | X-H torsion
[ 10718 10713 10712 10709 ] final -151.13 input   66.30 | X-H torsion
[ 10763 10752 10751 10750 ] final  144.35 input  -60.55 | X-H torsion
[ 11005 11000 10999 10996 ] final  -27.75 input  -57.11 | X-H torsion

> <Gold.Protein.ActiveResidues>
 VAL166  LYS551  ARG553  GLY616  TRP617  ASP618  TYR619  PRO620  LYS621  CYS622 
 ASP623  PHE694  ASN695  SER759  ASP760  ASP761  ALA762  ILE779  LEU786  VAL792 
 PHE793  MET794  SER795  GLU796  ALA797  LYS798  CYS799  TRP800  GLU811  SER814 

> <Gold.Protein.RotatedAtoms>
  151.4565  133.3604  159.2802 H   0  0  0  0  0  0  0  0  0  0  0  0  # atno 6907 bound_to 6896
  150.9055  134.8471  159.7400 H   0  0  0  0  0  0  0  0  0  0  0  0  # atno 6908 bound_to 6896
  152.4903  134.4489  159.9620 H   0  0  0  0  0  0  0  0  0  0  0  0  # atno 6909 bound_to 6896
  145.6338  140.9330  143.1072 H   0  0  0  0  0  0  0  0  0  0  0  0  # atno 7974 bound_to 7965
  155.4645  140.0548  157.2987 H   0  0  0  0  0  0  0  0  0  0  0  0  # atno 8008 bound_to 7997
  154.4724  140.2046  155.9917 H   0  0  0  0  0  0  0  0  0  0  0  0  # atno 8009 bound_to 7997
  156.1077  140.3209  155.8033 H   0  0  0  0  0  0  0  0  0  0  0  0  # atno 8010 bound_to 7997
  140.3251  143.3026  152.0003 H   0  0  0  0  0  0  0  0  0  0  0  0  # atno 10167 bound_to 10162
  156.4552  130.8187  151.2418 H   0  0  0  0  0  0  0  0  0  0  0  0  # atno 10718 bound_to 10713
  153.9875  135.2935  155.3415 H   0  0  0  0  0  0  0  0  0  0  0  0  # atno 10763 bound_to 10752
  154.7234  135.5099  153.8851 H   0  0  0  0  0  0  0  0  0  0  0  0  # atno 10764 bound_to 10752
  153.0825  135.6683  154.0131 H   0  0  0  0  0  0  0  0  0  0  0  0  # atno 10765 bound_to 10752
  140.9148  133.7437  156.0719 H   0  0  0  0  0  0  0  0  0  0  0  0  # atno 11005 bound_to 11000
  144.7183  139.8118  143.7391 LP  0  0  0  0  0  0  0  0  0  0  0  0  # atno 17320 bound_to 7965
  146.1335  139.4376  143.0153 LP  0  0  0  0  0  0  0  0  0  0  0  0  # atno 17321 bound_to 7965
  139.4867  144.6280  151.7127 LP  0  0  0  0  0  0  0  0  0  0  0  0  # atno 17342 bound_to 10162
  140.5448  144.0521  150.6102 LP  0  0  0  0  0  0  0  0  0  0  0  0  # atno 17343 bound_to 10162
  157.7501  131.0125  150.3387 LP  0  0  0  0  0  0  0  0  0  0  0  0  # atno 17370 bound_to 10713
  156.3774  130.3874  149.7128 LP  0  0  0  0  0  0  0  0  0  0  0  0  # atno 17371 bound_to 10713
  140.8064  134.3449  157.5424 LP  0  0  0  0  0  0  0  0  0  0  0  0  # atno 17394 bound_to 11000
  139.8764  134.9228  156.3310 LP  0  0  0  0  0  0  0  0  0  0  0  0  # atno 17395 bound_to 11000

$$$$
