AV-unprocessed.smi:491|AV-procd|sdf|2707|dock2
  -GOLD-   2262023143D 1   1.00000     0.00000
 Structure written by MMmdl.
 45 46  0  0  0  0  0  0  0  0  1 V2000
  151.9238  145.6035  159.3033 C   0  0  0  0  0  0  0  0  0  0  0  0
  151.0345  144.4044  159.6646 C   0  0  0  0  0  0  0  0  0  0  0  0
  151.4558  143.1813  159.0325 N   0  0  0  0  0  0  0  0  0  0  0  0
  150.9066  142.7537  157.8418 C   0  0  0  0  0  0  0  0  0  0  0  0
  151.2882  141.6113  157.2350 C   0  0  0  0  0  0  0  0  0  0  0  0
  150.7064  141.1832  156.0061 C   0  0  0  0  0  0  0  0  0  0  0  0
  150.2442  140.8132  155.0117 N   0  0  0  0  0  0  0  0  0  0  0  0
  152.3189  140.7562  157.8181 C   0  0  0  0  0  0  0  0  0  0  0  0
  152.6832  139.6923  157.3149 O   0  0  0  0  0  0  0  0  0  0  0  0
  152.8833  141.2203  159.0340 N   0  0  0  0  0  0  0  0  0  0  0  0
  153.9163  140.3890  159.6972 C   0  0  0  0  0  0  0  0  0  0  0  0
  153.5606  138.8955  159.8165 C   0  0  0  0  0  0  0  0  0  0  0  0
  152.4278  138.5203  159.5172 O   0  0  0  0  0  0  0  0  0  0  0  0
  154.5116  138.0566  160.2549 N   0  0  0  0  0  0  0  0  0  0  0  0
  154.3503  136.6244  160.4552 C   0  0  0  0  0  0  0  0  0  0  0  0
  154.6727  136.2309  161.9098 C   0  0  0  0  0  0  0  0  0  0  0  0
  154.6276  134.6998  162.0893 C   0  0  0  0  0  0  0  0  0  0  0  0
  154.9633  134.2851  163.5311 C   0  0  0  0  0  0  0  0  0  0  0  0
  154.0301  134.9728  164.5390 C   0  0  0  0  0  0  0  0  0  0  0  0
  154.0706  136.4996  164.3749 C   0  0  0  0  0  0  0  0  0  0  0  0
  153.7379  136.9165  162.9332 C   0  0  0  0  0  0  0  0  0  0  0  0
  152.4708  142.4221  159.6597 C   0  0  0  0  0  0  0  0  0  0  0  0
  152.9762  142.7860  160.7245 O   0  0  0  0  0  0  0  0  0  0  0  0
  151.5523  146.5137  159.7740 H   0  0  0  0  0  0  0  0  0  0  0  0
  151.9398  145.7704  158.2259 H   0  0  0  0  0  0  0  0  0  0  0  0
  152.9519  145.4569  159.6351 H   0  0  0  0  0  0  0  0  0  0  0  0
  150.9906  144.2223  160.7401 H   0  0  0  0  0  0  0  0  0  0  0  0
  150.0086  144.5739  159.3348 H   0  0  0  0  0  0  0  0  0  0  0  0
  150.1400  143.3565  157.3761 H   0  0  0  0  0  0  0  0  0  0  0  0
  154.8717  140.4699  159.1767 H   0  0  0  0  0  0  0  0  0  0  0  0
  154.1355  140.7640  160.6979 H   0  0  0  0  0  0  0  0  0  0  0  0
  155.4159  138.4457  160.4783 H   0  0  0  0  0  0  0  0  0  0  0  0
  153.3270  136.3420  160.2028 H   0  0  0  0  0  0  0  0  0  0  0  0
  155.0095  136.0886  159.7700 H   0  0  0  0  0  0  0  0  0  0  0  0
  155.6928  136.5575  162.1198 H   0  0  0  0  0  0  0  0  0  0  0  0
  153.6362  134.3271  161.8269 H   0  0  0  0  0  0  0  0  0  0  0  0
  155.3274  134.2224  161.4024 H   0  0  0  0  0  0  0  0  0  0  0  0
  154.8865  133.2023  163.6334 H   0  0  0  0  0  0  0  0  0  0  0  0
  155.9991  134.5443  163.7548 H   0  0  0  0  0  0  0  0  0  0  0  0
  153.0094  134.6160  164.3955 H   0  0  0  0  0  0  0  0  0  0  0  0
  154.3137  134.6996  165.5558 H   0  0  0  0  0  0  0  0  0  0  0  0
  153.3692  136.9664  165.0670 H   0  0  0  0  0  0  0  0  0  0  0  0
  155.0612  136.8699  164.6423 H   0  0  0  0  0  0  0  0  0  0  0  0
  153.8113  138.0017  162.8552 H   0  0  0  0  0  0  0  0  0  0  0  0
  152.7004  136.6626  162.7116 H   0  0  0  0  0  0  0  0  0  0  0  0
  1  2  1  0  0  0  0
  1 24  1  0  0  0  0
  1 25  1  0  0  0  0
  1 26  1  0  0  0  0
  2  3  1  0  0  0  0
  2 27  1  0  0  0  0
  2 28  1  0  0  0  0
  3 22  1  0  0  0  0
  3  4  1  0  0  0  0
  4  5  2  0  0  0  0
  4 29  1  0  0  0  0
  5  6  1  0  0  0  0
  5  8  1  0  0  0  0
  6  7  3  0  0  0  0
  8  9  2  0  0  0  0
  8 10  1  0  0  0  0
 10 11  1  0  0  0  0
 10 22  1  0  0  0  0
 11 12  1  0  0  0  0
 11 30  1  0  0  0  0
 11 31  1  0  0  0  0
 12 13  2  0  0  0  0
 12 14  1  0  0  0  0
 14 15  1  0  0  0  0
 14 32  1  0  0  0  0
 15 16  1  0  0  0  0
 15 33  1  0  0  0  0
 15 34  1  0  0  0  0
 16 21  1  0  0  0  0
 16 17  1  0  0  0  0
 16 35  1  0  0  0  0
 17 18  1  0  0  0  0
 17 36  1  0  0  0  0
 17 37  1  0  0  0  0
 18 19  1  0  0  0  0
 18 38  1  0  0  0  0
 18 39  1  0  0  0  0
 19 20  1  0  0  0  0
 19 40  1  0  0  0  0
 19 41  1  0  0  0  0
 20 21  1  0  0  0  0
 20 42  1  0  0  0  0
 20 43  1  0  0  0  0
 21 44  1  0  0  0  0
 21 45  1  0  0  0  0
 22 23  2  0  0  0  0
M  END
> <s_m_source_file>
AV-unprocessed.smi

> <i_m_source_file_index>
491

> <i_lp_mmshare_version>
43012

> <i_f3d_flags>
0

> <s_epik_input>
W0NIM11bQ0gyXW4xW2NIXWMoQyNOKWMoPU8pbihjMT1PKVtDSDJdQyg9TylbTkhdW0NIMl1bQ0hdMltDSDJdW0NIMl1bQ0gyXVtDSDJdW0NIMl0y

> <s_epik_cmdline>
J2VwaWtfcHl0aG9uJywgJy1waCcsICc3LjAnLCAnLXRuJywgJzgnLCAnLW1hJywgJzIwMCcsICctbWV0YWxfYmluZGluZycsICctaW1hZScsICc8aW5maWxlLm1hZT4nLCAnLW9tYWUnLCAnPG91dGZpbGUubWFlPic=

> <r_lp_tautomer_probability>
1

> <r_epik_Ionization_Penalty>
1.98356e-08

> <r_epik_Ionization_Penalty_Charging>
3.77777e-11

> <r_epik_Ionization_Penalty_Neutral>
1.97978e-08

> <r_epik_State_Penalty>
-0

> <r_epik_Charging_Adjusted_Penalty>
3.77777e-11

> <i_epik_Tot_Q>
0

> <i_epik_Tot_abs_Q>
0

> <r_epik_Metal_State_Penalty>
-0

> <b_epik_Metal_Only>
0

> <s_lp_Force_Field>
OPLS_2005

> <r_lp_Energy>
13.3995

> <b_lp_Chiralities_Consistent>
1

> <s_lp_Variant>
AV-unprocessed.smi:491-1

> <Gold.Version>
5.8.1

> <Gold.Id.Protein>
6NUR|6NUR_protein|mol2

> <Gold.PLP.Fitness>
54.0897

> <Gold.PLP.PLP>
-46.7118

> <Gold.PLP.part.hbond>
-2.0000

> <Gold.PLP.part.metal>
0.0000

> <Gold.PLP.part.buried>
-4.7276

> <Gold.PLP.part.nonpolar>
-40.3064

> <Gold.PLP.part.repulsive>
0.1298

> <Gold.PLP.ligand.clash>
0.0000

> <Gold.PLP.ligand.torsion>
0.5518

> <Gold.PLP.Chemscore.Hbond>
1.8160

> <Gold.PLP.Chemscore.CHOScore>
1.0000

> <Gold.PLP.Chemscore.Metal>
0.0000

> <Gold.Chemscore.Hbonds>
donor molecule, donor type, donor heavy atom, donor atom, acceptor molecule, acceptor atom, score
      P1  H  7989  7998       L1     7  0.77
      P1  H  7997  8009       L1     9  1.00
      L1  C     4    29       P1  8028  1.00

> <Gold.PLP.Chemscore.Internal.Correction>
0.0335

> <Gold.Rescore>
     Score         DG    S(hbond)    S(metal)    S(lipo)     H(rot)  DE(clash)    DE(int)     intcor
     12.01     -16.69       1.57        0.00      93.64       1.95       0.01       4.66       ----

> <Gold.Chemscore.Fitness>
12.0071

> <Gold.Chemscore.DG>
-16.6851

> <Gold.Chemscore.ZeroCoef>
-5.4800

> <Gold.Chemscore.Hbond>
1.5659

> <Gold.Chemscore.Metal>
0.0000

> <Gold.Chemscore.Lipo>
93.6444

> <Gold.Chemscore.Internal_Hbond>
0.0000

> <Gold.Chemscore.DEClash>
0.0135

> <Gold.Chemscore.DEInternal>
4.6644

> <Gold.Chemscore.Rot>
1.9458

> <Gold.Chemscore.Internal.Correction>
   9.000000E+99

> <Gold.Chemscore.Hbonds>
donor molecule, donor type, donor heavy atom, donor atom, acceptor molecule, acceptor atom, score
      P1  H  7989  7998       L1     7  0.57
      P1  H  7997  8009       L1     9  0.40

> <Gold.Chemscore.Hbond.Weighted>
-5.2300

> <Gold.Chemscore.Metal.Weighted>
-0.0000

> <Gold.Chemscore.Lipo.Weighted>
-10.9564

> <Gold.Chemscore.Internal_Hbond.Weighted>
0.0000

> <Gold.Chemscore.DEClash.Weighted>
0.0135

> <Gold.Chemscore.DEInternal.Weighted>
4.6644

> <Gold.Chemscore.Rot.Weighted>
4.9813

> <Gold.Chemscore.Internal.Correction.Weighted>
   9.000000E+99

> <Gold.Protein.RotatedTorsions>
[ 6907 6896 6895 6894 ] final  -85.00 input  -60.11 | X-H torsion
[ 7974 7965 7964 7962 ] final  -12.75 input  175.53 | X-H torsion
[ 8008 7997 7996 7995 ] final  173.41 input   59.86 | X-H torsion
[ 10167 10162 10161 10158 ] final  -81.52 input  -65.29 | X-H torsion
[ 10718 10713 10712 10709 ] final -165.52 input   66.30 | X-H torsion
[ 10763 10752 10751 10750 ] final  -44.01 input  -60.55 | X-H torsion
[ 11005 11000 10999 10996 ] final   45.71 input  -57.11 | X-H torsion

> <Gold.Protein.ActiveResidues>
 VAL166  LYS551  ARG553  GLY616  TRP617  ASP618  TYR619  PRO620  LYS621  CYS622 
 ASP623  PHE694  ASN695  SER759  ASP760  ASP761  ALA762  ILE779  LEU786  VAL792 
 PHE793  MET794  SER795  GLU796  ALA797  LYS798  CYS799  TRP800  GLU811  SER814 

> <Gold.Protein.RotatedAtoms>
  150.6873  134.3272  159.4811 H   0  0  0  0  0  0  0  0  0  0  0  0  # atno 6907 bound_to 6896
  152.1141  134.9251  160.0575 H   0  0  0  0  0  0  0  0  0  0  0  0  # atno 6908 bound_to 6896
  152.0482  133.3972  159.4403 H   0  0  0  0  0  0  0  0  0  0  0  0  # atno 6909 bound_to 6896
  146.2140  140.3104  142.8382 H   0  0  0  0  0  0  0  0  0  0  0  0  # atno 7974 bound_to 7965
  156.1078  140.1461  156.9380 H   0  0  0  0  0  0  0  0  0  0  0  0  # atno 8008 bound_to 7997
  154.4746  140.0898  156.7274 H   0  0  0  0  0  0  0  0  0  0  0  0  # atno 8009 bound_to 7997
  155.4649  140.3439  155.4320 H   0  0  0  0  0  0  0  0  0  0  0  0  # atno 8010 bound_to 7997
  140.4404  143.2517  151.8634 H   0  0  0  0  0  0  0  0  0  0  0  0  # atno 10167 bound_to 10162
  156.6546  130.9021  151.3019 H   0  0  0  0  0  0  0  0  0  0  0  0  # atno 10718 bound_to 10713
  154.0050  135.6688  153.4761 H   0  0  0  0  0  0  0  0  0  0  0  0  # atno 10763 bound_to 10752
  153.0645  135.5008  154.8166 H   0  0  0  0  0  0  0  0  0  0  0  0  # atno 10764 bound_to 10752
  154.7030  135.3082  154.9276 H   0  0  0  0  0  0  0  0  0  0  0  0  # atno 10765 bound_to 10752
  140.1435  134.4553  155.8432 H   0  0  0  0  0  0  0  0  0  0  0  0  # atno 11005 bound_to 11000
  144.8993  140.7622  143.5877 LP  0  0  0  0  0  0  0  0  0  0  0  0  # atno 17320 bound_to 7965
  145.3029  139.1844  143.4680 LP  0  0  0  0  0  0  0  0  0  0  0  0  # atno 17321 bound_to 7965
  139.4789  144.5235  151.8768 LP  0  0  0  0  0  0  0  0  0  0  0  0  # atno 17342 bound_to 10162
  140.4325  144.2097  150.5888 LP  0  0  0  0  0  0  0  0  0  0  0  0  # atno 17343 bound_to 10162
  157.7130  130.9462  150.1154 LP  0  0  0  0  0  0  0  0  0  0  0  0  # atno 17370 bound_to 10713
  156.2058  130.3663  149.8732 LP  0  0  0  0  0  0  0  0  0  0  0  0  # atno 17371 bound_to 10713
  141.2189  133.6843  156.7290 LP  0  0  0  0  0  0  0  0  0  0  0  0  # atno 17394 bound_to 11000
  140.2693  134.8405  157.3832 LP  0  0  0  0  0  0  0  0  0  0  0  0  # atno 17395 bound_to 11000

$$$$
