AV-unprocessed.smi:1256|AV-procd|sdf|5283|dock10
  -GOLD-   22720 4403D 1   1.00000     0.00000
 Structure written by MMmdl.
 41 42  0  0  0  0  0  0  0  0  1 V2000
  148.4789  129.2043  154.0110 C   0  0  0  0  0  0  0  0  0  0  0  0
  148.3525  130.6709  153.7217 C   0  0  0  0  0  0  0  0  0  0  0  0
  149.1996  131.7290  154.1624 C   0  0  0  0  0  0  0  0  0  0  0  0
  148.6150  132.8341  153.6067 C   0  0  0  0  0  0  0  0  0  0  0  0
  148.9925  134.1372  153.6952 N   0  0  0  0  0  0  0  0  0  0  0  0
  149.8158  134.7154  154.5870 C   0  0  0  0  0  0  0  0  0  0  0  0
  150.3881  134.1372  155.5114 O   0  0  0  0  0  0  0  0  0  0  0  0
  149.9466  136.0274  154.3439 N   0  0  0  0  0  0  0  0  0  0  0  0
  150.7732  136.9435  155.1209 C   0  0  0  0  0  0  0  0  0  0  0  0
  151.0927  138.2232  154.3283 C   0  0  0  0  0  0  0  0  0  0  0  0
  150.9311  139.4862  155.1577 C   0  0  0  0  0  0  0  0  0  0  0  0
  151.7735  139.7873  156.1651 C   0  0  0  0  0  0  0  0  0  0  0  0
  151.6371  141.0094  157.0560 C   0  0  0  0  0  0  0  0  0  0  0  0
  150.2525  141.6678  156.9382 C   0  0  0  0  0  0  0  0  0  0  0  0
  149.8061  141.7590  155.4739 C   0  0  0  0  0  0  0  0  0  0  0  0
  149.7342  140.3684  154.8173 C   0  0  0  0  0  0  0  0  0  0  0  0
  147.5058  132.4390  152.8922 N   0  0  0  0  0  0  0  0  0  0  0  0
  146.5653  133.2395  152.1324 C   0  0  0  0  0  0  0  0  0  0  0  0
  147.3468  131.0999  152.9672 N   0  0  0  0  0  0  0  0  0  0  0  0
  149.3439  129.0005  154.6427 H   0  0  0  0  0  0  0  0  0  0  0  0
  148.5980  128.6317  153.0909 H   0  0  0  0  0  0  0  0  0  0  0  0
  147.5954  128.8280  154.5276 H   0  0  0  0  0  0  0  0  0  0  0  0
  150.0811  131.6647  154.7821 H   0  0  0  0  0  0  0  0  0  0  0  0
  148.6044  134.7455  152.9896 H   0  0  0  0  0  0  0  0  0  0  0  0
  149.4411  136.4217  153.5638 H   0  0  0  0  0  0  0  0  0  0  0  0
  150.2276  137.1986  156.0297 H   0  0  0  0  0  0  0  0  0  0  0  0
  151.6853  136.4369  155.4390 H   0  0  0  0  0  0  0  0  0  0  0  0
  152.1115  138.1908  153.9403 H   0  0  0  0  0  0  0  0  0  0  0  0
  150.4365  138.2802  153.4584 H   0  0  0  0  0  0  0  0  0  0  0  0
  152.6144  139.1416  156.3735 H   0  0  0  0  0  0  0  0  0  0  0  0
  151.8232  140.7217  158.0911 H   0  0  0  0  0  0  0  0  0  0  0  0
  152.4173  141.7186  156.7779 H   0  0  0  0  0  0  0  0  0  0  0  0
  149.5216  141.0842  157.4995 H   0  0  0  0  0  0  0  0  0  0  0  0
  150.2712  142.6588  157.3926 H   0  0  0  0  0  0  0  0  0  0  0  0
  148.8369  142.2533  155.4030 H   0  0  0  0  0  0  0  0  0  0  0  0
  150.5116  142.3837  154.9246 H   0  0  0  0  0  0  0  0  0  0  0  0
  149.6483  140.4884  153.7380 H   0  0  0  0  0  0  0  0  0  0  0  0
  148.8336  139.8487  155.1459 H   0  0  0  0  0  0  0  0  0  0  0  0
  147.1073  133.8961  151.4516 H   0  0  0  0  0  0  0  0  0  0  0  0
  145.9674  133.8454  152.8134 H   0  0  0  0  0  0  0  0  0  0  0  0
  145.9007  132.6008  151.5494 H   0  0  0  0  0  0  0  0  0  0  0  0
  1  2  1  0  0  0  0
  1 20  1  0  0  0  0
  1 21  1  0  0  0  0
  1 22  1  0  0  0  0
  2 19  2  0  0  0  0
  2  3  1  0  0  0  0
  3  4  2  0  0  0  0
  3 23  1  0  0  0  0
  4  5  1  0  0  0  0
  4 17  1  0  0  0  0
  5  6  1  0  0  0  0
  5 24  1  0  0  0  0
  6  7  2  0  0  0  0
  6  8  1  0  0  0  0
  8  9  1  0  0  0  0
  8 25  1  0  0  0  0
  9 10  1  0  0  0  0
  9 26  1  0  0  0  0
  9 27  1  0  0  0  0
 10 11  1  0  0  0  0
 10 28  1  0  0  0  0
 10 29  1  0  0  0  0
 11 16  1  0  0  0  0
 11 12  2  0  0  0  0
 12 13  1  0  0  0  0
 12 30  1  0  0  0  0
 13 14  1  0  0  0  0
 13 31  1  0  0  0  0
 13 32  1  0  0  0  0
 14 15  1  0  0  0  0
 14 33  1  0  0  0  0
 14 34  1  0  0  0  0
 15 16  1  0  0  0  0
 15 35  1  0  0  0  0
 15 36  1  0  0  0  0
 16 37  1  0  0  0  0
 16 38  1  0  0  0  0
 17 18  1  0  0  0  0
 17 19  1  0  0  0  0
 18 39  1  0  0  0  0
 18 40  1  0  0  0  0
 18 41  1  0  0  0  0
M  END
> <s_m_source_file>
AV-unprocessed.smi

> <i_m_source_file_index>
1256

> <i_lp_mmshare_version>
43012

> <i_f3d_flags>
0

> <s_epik_input>
W0NIM11jMVtjSF1jKG4objEpW0NIM10pW05IXUMoPU8pW05IXVtDSDJdW0NIMl1DMj1bQ0hdW0NIMl1bQ0gyXVtDSDJdW0NIMl0y

> <s_epik_cmdline>
J2VwaWtfcHl0aG9uJywgJy1waCcsICc3LjAnLCAnLXRuJywgJzgnLCAnLW1hJywgJzIwMCcsICctbWV0YWxfYmluZGluZycsICctaW1hZScsICc8aW5maWxlLm1hZT4nLCAnLW9tYWUnLCAnPG91dGZpbGUubWFlPic=

> <r_lp_tautomer_probability>
1

> <r_epik_Ionization_Penalty>
9.50632e-05

> <r_epik_Ionization_Penalty_Charging>
0

> <r_epik_Ionization_Penalty_Neutral>
9.50632e-05

> <r_epik_State_Penalty>
-0

> <r_epik_Charging_Adjusted_Penalty>
0

> <i_epik_Tot_Q>
0

> <i_epik_Tot_abs_Q>
0

> <r_epik_Metal_State_Penalty>
-0

> <b_epik_Metal_Only>
0

> <s_lp_Force_Field>
OPLS_2005

> <r_lp_Energy>
8.63058

> <b_lp_Chiralities_Consistent>
1

> <s_lp_Variant>
AV-unprocessed.smi:1256-1

> <Gold.Version>
5.8.1

> <Gold.Id.Protein>
6NUR|6NUR_protein|mol2

> <Gold.PLP.Fitness>
40.9776

> <Gold.PLP.PLP>
-36.4488

> <Gold.PLP.part.hbond>
-2.7141

> <Gold.PLP.part.metal>
0.0000

> <Gold.PLP.part.buried>
-2.5291

> <Gold.PLP.part.nonpolar>
-31.3829

> <Gold.PLP.part.repulsive>
0.2359

> <Gold.PLP.ligand.clash>
0.0000

> <Gold.PLP.ligand.torsion>
0.6300

> <Gold.PLP.Chemscore.Hbond>
1.9260

> <Gold.PLP.Chemscore.CHOScore>
0.0000

> <Gold.PLP.Chemscore.Metal>
0.0000

> <Gold.Chemscore.Hbonds>
donor molecule, donor type, donor heavy atom, donor atom, acceptor molecule, acceptor atom, score
      L1  H     5    24       P1  7948  0.88
      L1  H     8    25       P1  7948  0.91

> <Gold.PLP.Chemscore.Internal.Correction>
0.0108

> <Gold.Rescore>
     Score         DG    S(hbond)    S(metal)    S(lipo)     H(rot)  DE(clash)    DE(int)     intcor
     13.10     -14.76       1.27        0.00      73.60       1.40       0.12       1.55       ----

> <Gold.Chemscore.Fitness>
13.0958

> <Gold.Chemscore.DG>
-14.7625

> <Gold.Chemscore.ZeroCoef>
-5.4800

> <Gold.Chemscore.Hbond>
1.2708

> <Gold.Chemscore.Metal>
0.0000

> <Gold.Chemscore.Lipo>
73.6026

> <Gold.Chemscore.Internal_Hbond>
0.0000

> <Gold.Chemscore.DEClash>
0.1213

> <Gold.Chemscore.DEInternal>
1.5454

> <Gold.Chemscore.Rot>
1.3958

> <Gold.Chemscore.Internal.Correction>
   9.000000E+99

> <Gold.Chemscore.Hbonds>
donor molecule, donor type, donor heavy atom, donor atom, acceptor molecule, acceptor atom, score
      L1  H     5    24       P1  7948  0.26
      L1  H     8    25       P1  7948  0.69

> <Gold.Chemscore.Hbond.Weighted>
-4.2443

> <Gold.Chemscore.Metal.Weighted>
-0.0000

> <Gold.Chemscore.Lipo.Weighted>
-8.6115

> <Gold.Chemscore.Internal_Hbond.Weighted>
0.0000

> <Gold.Chemscore.DEClash.Weighted>
0.1213

> <Gold.Chemscore.DEInternal.Weighted>
1.5454

> <Gold.Chemscore.Rot.Weighted>
3.5733

> <Gold.Chemscore.Internal.Correction.Weighted>
   9.000000E+99

> <Gold.Protein.RotatedTorsions>
[ 6907 6896 6895 6894 ] final   36.49 input  -60.11 | X-H torsion
[ 7974 7965 7964 7962 ] final   38.49 input  175.53 | X-H torsion
[ 8008 7997 7996 7995 ] final  -55.97 input   59.86 | X-H torsion
[ 10167 10162 10161 10158 ] final    7.29 input  -65.29 | X-H torsion
[ 10718 10713 10712 10709 ] final  -31.12 input   66.30 | X-H torsion
[ 10763 10752 10751 10750 ] final  -45.66 input  -60.55 | X-H torsion
[ 11005 11000 10999 10996 ] final  120.31 input  -57.11 | X-H torsion

> <Gold.Protein.ActiveResidues>
 VAL166  LYS551  ARG553  GLY616  TRP617  ASP618  TYR619  PRO620  LYS621  CYS622 
 ASP623  PHE694  ASN695  SER759  ASP760  ASP761  ALA762  ILE779  LEU786  VAL792 
 PHE793  MET794  SER795  GLU796  ALA797  LYS798  CYS799  TRP800  GLU811  SER814 

> <Gold.Protein.RotatedAtoms>
  152.1304  134.9139  160.0558 H   0  0  0  0  0  0  0  0  0  0  0  0  # atno 6907 bound_to 6896
  152.0245  133.3907  159.4280 H   0  0  0  0  0  0  0  0  0  0  0  0  # atno 6908 bound_to 6896
  150.6856  134.3510  159.4953 H   0  0  0  0  0  0  0  0  0  0  0  0  # atno 6909 bound_to 6896
  146.1057  139.5765  142.9385 H   0  0  0  0  0  0  0  0  0  0  0  0  # atno 7974 bound_to 7965
  154.4213  140.1140  156.5563 H   0  0  0  0  0  0  0  0  0  0  0  0  # atno 8008 bound_to 7997
  155.6358  140.3496  155.4679 H   0  0  0  0  0  0  0  0  0  0  0  0  # atno 8009 bound_to 7997
  155.9911  140.1179  157.0627 H   0  0  0  0  0  0  0  0  0  0  0  0  # atno 8010 bound_to 7997
  140.6380  143.7841  150.7386 H   0  0  0  0  0  0  0  0  0  0  0  0  # atno 10167 bound_to 10162
  156.3913  130.4373  149.7392 H   0  0  0  0  0  0  0  0  0  0  0  0  # atno 10718 bound_to 10713
  154.0321  135.6655  153.4782 H   0  0  0  0  0  0  0  0  0  0  0  0  # atno 10763 bound_to 10752
  153.0536  135.5069  154.7922 H   0  0  0  0  0  0  0  0  0  0  0  0  # atno 10764 bound_to 10752
  154.6871  135.3055  154.9497 H   0  0  0  0  0  0  0  0  0  0  0  0  # atno 10765 bound_to 10752
  139.9180  134.9634  156.7788 H   0  0  0  0  0  0  0  0  0  0  0  0  # atno 11005 bound_to 11000
  145.5764  141.0388  143.2146 LP  0  0  0  0  0  0  0  0  0  0  0  0  # atno 17320 bound_to 7965
  144.7469  139.7296  143.7288 LP  0  0  0  0  0  0  0  0  0  0  0  0  # atno 17321 bound_to 7965
  140.1467  143.4394  152.2158 LP  0  0  0  0  0  0  0  0  0  0  0  0  # atno 17342 bound_to 10162
  139.5589  144.7392  151.4211 LP  0  0  0  0  0  0  0  0  0  0  0  0  # atno 17343 bound_to 10162
  156.4445  130.7877  151.2898 LP  0  0  0  0  0  0  0  0  0  0  0  0  # atno 17370 bound_to 10713
  157.7499  131.0114  150.3346 LP  0  0  0  0  0  0  0  0  0  0  0  0  # atno 17371 bound_to 10713
  140.6561  133.9687  155.7780 LP  0  0  0  0  0  0  0  0  0  0  0  0  # atno 17394 bound_to 11000
  141.0675  134.0255  157.3573 LP  0  0  0  0  0  0  0  0  0  0  0  0  # atno 17395 bound_to 11000

$$$$
