AV-unprocessed.smi:1868|AV-procd|sdf|7586|dock3
  -GOLD-   22720 9293D 1   1.00000     0.00000
 Structure written by MMmdl.
 47 49  0  0  0  0  0  0  0  0  2 V2000
  146.6871  142.3554  154.2188 C   0  0  0  0  0  0  0  0  0  0  0  0
  147.9829  141.7005  154.5792 C   0  0  0  0  0  0  0  0  0  0  0  0
  148.7555  142.1508  155.5674 N   0  0  0  0  0  0  0  0  0  0  0  0
  149.8113  141.2600  155.5577 C   0  0  0  0  0  0  0  0  0  0  0  0
  150.9679  141.1971  156.3671 C   0  0  0  0  0  0  0  0  0  0  0  0
  151.9252  140.1811  156.1666 C   0  0  0  0  0  0  0  0  0  0  0  0
  151.7401  139.2151  155.1564 C   0  0  0  0  0  0  0  0  0  0  0  0
  150.5951  139.2596  154.3383 C   0  0  0  0  0  0  0  0  0  0  0  0
  149.6431  140.2768  154.5417 C   0  0  0  0  0  0  0  0  0  0  0  0
  148.4423  140.6083  153.9200 N   0  0  0  0  0  0  0  0  0  0  0  0
  147.8245  139.9123  152.7998 C   0  0  0  0  0  0  0  0  0  0  0  0
  147.0663  138.6377  153.2266 C   0  0  2  0  0  0  0  0  0  0  0  0
  148.0346  137.6825  153.6115 O   0  0  0  0  0  0  0  0  0  0  0  0
  146.1842  138.0405  152.1059 C   0  0  0  0  0  0  0  0  0  0  0  0
  146.1854  136.5553  152.0881 N   0  3  2  0  0  0  0  0  0  0  0  0
  145.6149  136.0147  150.8271 C   0  0  0  0  0  0  0  0  0  0  0  0
  145.7452  134.4825  150.7651 C   0  0  0  0  0  0  0  0  0  0  0  0
  145.1049  133.7940  151.9835 C   0  0  2  0  0  0  0  0  0  0  0  0
  143.5669  133.8037  151.9335 C   0  0  0  0  0  0  0  0  0  0  0  0
  145.6632  134.4193  153.2746 C   0  0  0  0  0  0  0  0  0  0  0  0
  145.5355  135.9533  153.2832 C   0  0  0  0  0  0  0  0  0  0  0  0
  146.5139  143.2297  154.8470 H   0  0  0  0  0  0  0  0  0  0  0  0
  145.8601  141.6607  154.3655 H   0  0  0  0  0  0  0  0  0  0  0  0
  146.6982  142.6800  153.1791 H   0  0  0  0  0  0  0  0  0  0  0  0
  151.1190  141.9319  157.1443 H   0  0  0  0  0  0  0  0  0  0  0  0
  152.8055  140.1424  156.7914 H   0  0  0  0  0  0  0  0  0  0  0  0
  152.4780  138.4398  155.0104 H   0  0  0  0  0  0  0  0  0  0  0  0
  150.4531  138.5214  153.5634 H   0  0  0  0  0  0  0  0  0  0  0  0
  147.1460  140.6037  152.2983 H   0  0  0  0  0  0  0  0  0  0  0  0
  148.5972  139.6691  152.0693 H   0  0  0  0  0  0  0  0  0  0  0  0
  146.4648  138.8734  154.1026 H   0  0  0  0  0  0  0  0  0  0  0  0
  148.1475  137.0582  152.9114 H   0  0  0  0  0  0  0  0  0  0  0  0
  145.1507  138.3751  152.1972 H   0  0  0  0  0  0  0  0  0  0  0  0
  146.5426  138.4239  151.1490 H   0  0  0  0  0  0  0  0  0  0  0  0
  144.5700  136.3151  150.7382 H   0  0  0  0  0  0  0  0  0  0  0  0
  146.1381  136.4472  149.9732 H   0  0  0  0  0  0  0  0  0  0  0  0
  145.3028  134.1062  149.8421 H   0  0  0  0  0  0  0  0  0  0  0  0
  146.8030  134.2194  150.7208 H   0  0  0  0  0  0  0  0  0  0  0  0
  145.4070  132.7459  151.9668 H   0  0  0  0  0  0  0  0  0  0  0  0
  143.1585  134.8138  151.9554 H   0  0  0  0  0  0  0  0  0  0  0  0
  143.1468  133.2606  152.7803 H   0  0  0  0  0  0  0  0  0  0  0  0
  143.2037  133.3220  151.0253 H   0  0  0  0  0  0  0  0  0  0  0  0
  145.1617  133.9972  154.1462 H   0  0  0  0  0  0  0  0  0  0  0  0
  146.7162  134.1524  153.3741 H   0  0  0  0  0  0  0  0  0  0  0  0
  145.9922  136.3333  154.1957 H   0  0  0  0  0  0  0  0  0  0  0  0
  144.4857  136.2477  153.3179 H   0  0  0  0  0  0  0  0  0  0  0  0
  147.1537  136.2694  152.1011 H   0  0  0  0  0  0  0  0  0  0  0  0
  1  2  1  0  0  0  0
  1 22  1  0  0  0  0
  1 23  1  0  0  0  0
  1 24  1  0  0  0  0
  2 10  1  0  0  0  0
  2  3  2  0  0  0  0
  3  4  1  0  0  0  0
  4  9  2  0  0  0  0
  4  5  1  0  0  0  0
  5  6  2  0  0  0  0
  5 25  1  0  0  0  0
  6  7  1  0  0  0  0
  6 26  1  0  0  0  0
  7  8  2  0  0  0  0
  7 27  1  0  0  0  0
  8  9  1  0  0  0  0
  8 28  1  0  0  0  0
  9 10  1  0  0  0  0
 10 11  1  0  0  0  0
 11 12  1  0  0  0  0
 11 29  1  0  0  0  0
 11 30  1  0  0  0  0
 12 13  1  0  0  0  0
 12 14  1  0  0  0  0
 12 31  1  0  0  0  0
 13 32  1  0  0  0  0
 14 15  1  0  0  0  0
 14 33  1  0  0  0  0
 14 34  1  0  0  0  0
 15 21  1  0  0  0  0
 15 16  1  0  0  0  0
 15 47  1  0  0  0  0
 16 17  1  0  0  0  0
 16 35  1  0  0  0  0
 16 36  1  0  0  0  0
 17 18  1  0  0  0  0
 17 37  1  0  0  0  0
 17 38  1  0  0  0  0
 18 19  1  0  0  0  0
 18 20  1  0  0  0  0
 18 39  1  0  0  0  0
 19 40  1  0  0  0  0
 19 41  1  0  0  0  0
 19 42  1  0  0  0  0
 20 21  1  0  0  0  0
 20 43  1  0  0  0  0
 20 44  1  0  0  0  0
 21 45  1  0  0  0  0
 21 46  1  0  0  0  0
M  CHG  1  15   1
M  END
> <s_m_source_file>
AV-unprocessed.smi

> <i_m_source_file_index>
1868

> <i_lp_mmshare_version>
43012

> <i_f3d_flags>
0

> <s_epik_input>
W2NIXTFbY0hdW2NIXVtjSF1jKGMxMiluKGMobjIpW0NIM10pW0NIMl1bQ0BIXShbT0hdKVtDSDJdTjNbQ0gyXVtDSDJdW0NIXShbQ0gzXSlbQ0gyXVtDSDJdMw==

> <s_epik_cmdline>
J2VwaWtfcHl0aG9uJywgJy1waCcsICc3LjAnLCAnLXRuJywgJzgnLCAnLW1hJywgJzIwMCcsICctbWV0YWxfYmluZGluZycsICctaW1hZScsICc8aW5maWxlLm1hZT4nLCAnLW9tYWUnLCAnPG91dGZpbGUubWFlPic=

> <r_epik_Ionization_Penalty>
0.101157

> <r_epik_Ionization_Penalty_Charging>
0.00181365

> <r_epik_Ionization_Penalty_Neutral>
0.0993436

> <r_epik_State_Penalty>
0.0871902

> <r_epik_Charging_Adjusted_Penalty>
0.0890039

> <i_epik_Tot_Q>
1

> <i_epik_Tot_abs_Q>
1

> <r_epik_Metal_State_Penalty>
9.24346e-05

> <b_epik_Metal_Only>
0

> <s_lp_Force_Field>
OPLS_2005

> <r_lp_Energy>
25.8314

> <b_lp_Chiralities_Consistent>
1

> <s_lp_Variant>
AV-unprocessed.smi:1868-3

> <Gold.Version>
5.8.1

> <Gold.Id.Protein>
6NUR|6NUR_protein|mol2

> <Gold.PLP.Fitness>
45.9562

> <Gold.PLP.PLP>
-38.7789

> <Gold.PLP.part.hbond>
-1.8041

> <Gold.PLP.part.metal>
0.0000

> <Gold.PLP.part.buried>
2.4351

> <Gold.PLP.part.nonpolar>
-42.5264

> <Gold.PLP.part.repulsive>
3.6869

> <Gold.PLP.ligand.clash>
0.0000

> <Gold.PLP.ligand.torsion>
0.9229

> <Gold.PLP.Chemscore.Hbond>
3.0000

> <Gold.PLP.Chemscore.CHOScore>
0.0000

> <Gold.PLP.Chemscore.Metal>
0.0000

> <Gold.Chemscore.Hbonds>
donor molecule, donor type, donor heavy atom, donor atom, acceptor molecule, acceptor atom, score
      L1  H    13    32       P1  7948  1.00
      L1  H    15    47       P1  7948  2.00

> <Gold.PLP.Chemscore.Internal.Correction>
0.0230

> <Gold.Rescore>
     Score         DG    S(hbond)    S(metal)    S(lipo)     H(rot)  DE(clash)    DE(int)     intcor
     14.35     -18.65       1.97        0.00      98.38       1.92       3.25       1.05       ----

> <Gold.Chemscore.Fitness>
14.3478

> <Gold.Chemscore.DG>
-18.6451

> <Gold.Chemscore.ZeroCoef>
-5.4800

> <Gold.Chemscore.Hbond>
1.9669

> <Gold.Chemscore.Metal>
0.0000

> <Gold.Chemscore.Lipo>
98.3799

> <Gold.Chemscore.Internal_Hbond>
0.0000

> <Gold.Chemscore.DEClash>
3.2472

> <Gold.Chemscore.DEInternal>
1.0500

> <Gold.Chemscore.Rot>
1.9198

> <Gold.Chemscore.Internal.Correction>
   9.000000E+99

> <Gold.Chemscore.Hbonds>
donor molecule, donor type, donor heavy atom, donor atom, acceptor molecule, acceptor atom, score
      L1  H    13    32       P1  7948  0.94
      L1  H    15    47       P1  7948  1.00

> <Gold.Chemscore.Hbond.Weighted>
-6.5694

> <Gold.Chemscore.Metal.Weighted>
-0.0000

> <Gold.Chemscore.Lipo.Weighted>
-11.5104

> <Gold.Chemscore.Internal_Hbond.Weighted>
0.0000

> <Gold.Chemscore.DEClash.Weighted>
3.2472

> <Gold.Chemscore.DEInternal.Weighted>
1.0500

> <Gold.Chemscore.Rot.Weighted>
4.9147

> <Gold.Chemscore.Internal.Correction.Weighted>
   9.000000E+99

> <Gold.Protein.RotatedTorsions>
[ 6907 6896 6895 6894 ] final  151.93 input  -60.11 | X-H torsion
[ 7974 7965 7964 7962 ] final -176.38 input  175.53 | X-H torsion
[ 8008 7997 7996 7995 ] final -151.86 input   59.86 | X-H torsion
[ 10167 10162 10161 10158 ] final   81.45 input  -65.29 | X-H torsion
[ 10718 10713 10712 10709 ] final  -53.70 input   66.30 | X-H torsion
[ 10763 10752 10751 10750 ] final  118.72 input  -60.55 | X-H torsion
[ 11005 11000 10999 10996 ] final   89.73 input  -57.11 | X-H torsion

> <Gold.Protein.ActiveResidues>
 VAL166  LYS551  ARG553  GLY616  TRP617  ASP618  TYR619  PRO620  LYS621  CYS622 
 ASP623  PHE694  ASN695  SER759  ASP760  ASP761  ALA762  ILE779  LEU786  VAL792 
 PHE793  MET794  SER795  GLU796  ALA797  LYS798  CYS799  TRP800  GLU811  SER814 

> <Gold.Protein.RotatedAtoms>
  152.0938  133.4214  159.4555 H   0  0  0  0  0  0  0  0  0  0  0  0  # atno 6907 bound_to 6896
  150.6863  134.2841  159.4648 H   0  0  0  0  0  0  0  0  0  0  0  0  # atno 6908 bound_to 6896
  152.0695  134.9542  160.0625 H   0  0  0  0  0  0  0  0  0  0  0  0  # atno 6909 bound_to 6896
  144.7127  140.1179  143.6407 H   0  0  0  0  0  0  0  0  0  0  0  0  # atno 7974 bound_to 7965
  155.6460  140.0707  157.2603 H   0  0  0  0  0  0  0  0  0  0  0  0  # atno 8008 bound_to 7997
  154.4173  140.1742  156.1673 H   0  0  0  0  0  0  0  0  0  0  0  0  # atno 8009 bound_to 7997
  155.9816  140.3353  155.6672 H   0  0  0  0  0  0  0  0  0  0  0  0  # atno 8010 bound_to 7997
  139.9391  144.6102  150.8270 H   0  0  0  0  0  0  0  0  0  0  0  0  # atno 10167 bound_to 10162
  156.1513  130.4151  149.9941 H   0  0  0  0  0  0  0  0  0  0  0  0  # atno 10718 bound_to 10713
  153.5719  135.3500  155.2841 H   0  0  0  0  0  0  0  0  0  0  0  0  # atno 10763 bound_to 10752
  154.8680  135.4161  154.2716 H   0  0  0  0  0  0  0  0  0  0  0  0  # atno 10764 bound_to 10752
  153.3483  135.7053  153.6879 H   0  0  0  0  0  0  0  0  0  0  0  0  # atno 10765 bound_to 10752
  139.8869  134.8570  156.3184 H   0  0  0  0  0  0  0  0  0  0  0  0  # atno 11005 bound_to 11000
  145.9397  139.2660  143.1276 LP  0  0  0  0  0  0  0  0  0  0  0  0  # atno 17320 bound_to 7965
  145.9437  140.8961  143.0294 LP  0  0  0  0  0  0  0  0  0  0  0  0  # atno 17321 bound_to 7965
  140.7616  143.3178  151.2692 LP  0  0  0  0  0  0  0  0  0  0  0  0  # atno 17342 bound_to 10162
  139.6719  144.0005  152.2758 LP  0  0  0  0  0  0  0  0  0  0  0  0  # atno 17343 bound_to 10162
  156.7798  130.9217  151.3646 LP  0  0  0  0  0  0  0  0  0  0  0  0  # atno 17370 bound_to 10713
  157.6659  130.9007  149.9931 LP  0  0  0  0  0  0  0  0  0  0  0  0  # atno 17371 bound_to 10713
  140.9803  133.7271  156.0662 LP  0  0  0  0  0  0  0  0  0  0  0  0  # atno 17394 bound_to 11000
  140.7758  134.3781  157.5498 LP  0  0  0  0  0  0  0  0  0  0  0  0  # atno 17395 bound_to 11000

$$$$
