AV-unprocessed.smi:601|AV-procd|sdf|3031|dock1
  -GOLD-   2262023543D 1   1.00000     0.00000
 Structure written by MMmdl.
 50 51  0  0  0  0  0  0  0  0  1 V2000
  150.1056  134.3161  154.6486 C   0  0  0  0  0  0  0  0  0  0  0  0
  149.0163  134.3040  155.7291 C   0  0  0  0  0  0  0  0  0  0  0  0
  149.1190  135.4703  156.7249 C   0  0  0  0  0  0  0  0  0  0  0  0
  148.0040  135.4705  157.7904 C   0  0  0  0  0  0  0  0  0  0  0  0
  148.1949  136.5089  158.8153 N   0  0  0  0  0  0  0  0  0  0  0  0
  147.7945  136.3082  160.0992 C   0  0  0  0  0  0  0  0  0  0  0  0
  147.9603  137.1638  160.9708 O   0  0  0  0  0  0  0  0  0  0  0  0
  147.1182  134.9662  160.4838 C   0  0  2  0  0  0  0  0  0  0  0  0
  145.6980  135.0942  161.0495 C   0  0  0  0  0  0  0  0  0  0  0  0
  145.9076  135.3859  162.5295 C   0  0  0  0  0  0  0  0  0  0  0  0
  147.3565  134.9637  162.7932 C   0  0  0  0  0  0  0  0  0  0  0  0
  147.7999  134.3649  161.5792 O   0  0  0  0  0  0  0  0  0  0  0  0
  148.9119  137.6550  158.4277 C   0  0  0  0  0  0  0  0  0  0  0  0
  148.3449  138.6442  157.6748 C   0  0  0  0  0  0  0  0  0  0  0  0
  147.0140  138.5614  157.2946 N   0  0  0  0  0  0  0  0  0  0  0  0
  149.0669  139.7779  157.2904 N   0  0  0  0  0  0  0  0  0  0  0  0
  148.5002  140.8647  156.5170 C   0  0  0  0  0  0  0  0  0  0  0  0
  149.0868  140.9455  155.0975 C   0  0  0  0  0  0  0  0  0  0  0  0
  148.1624  141.6848  154.1254 C   0  0  0  0  0  0  0  0  0  0  0  0
  150.4110  139.9384  157.7049 C   0  0  0  0  0  0  0  0  0  0  0  0
  151.0908  140.9309  157.4413 O   0  0  0  0  0  0  0  0  0  0  0  0
  150.9722  138.9077  158.4507 N   0  0  0  0  0  0  0  0  0  0  0  0
  150.3169  137.7445  158.8457 C   0  0  0  0  0  0  0  0  0  0  0  0
  150.9251  136.8990  159.5008 O   0  0  0  0  0  0  0  0  0  0  0  0
  151.9347  139.0154  158.7358 H   0  0  0  0  0  0  0  0  0  0  0  0
  149.9411  133.5151  153.9276 H   0  0  0  0  0  0  0  0  0  0  0  0
  151.0976  134.1724  155.0766 H   0  0  0  0  0  0  0  0  0  0  0  0
  150.1076  135.2594  154.1019 H   0  0  0  0  0  0  0  0  0  0  0  0
  148.0433  134.3500  155.2390 H   0  0  0  0  0  0  0  0  0  0  0  0
  149.0385  133.3549  156.2656 H   0  0  0  0  0  0  0  0  0  0  0  0
  150.0969  135.4439  157.2039 H   0  0  0  0  0  0  0  0  0  0  0  0
  149.0845  136.4029  156.1614 H   0  0  0  0  0  0  0  0  0  0  0  0
  147.0305  135.6003  157.3145 H   0  0  0  0  0  0  0  0  0  0  0  0
  147.9614  134.4929  158.2723 H   0  0  0  0  0  0  0  0  0  0  0  0
  147.1184  134.2993  159.6218 H   0  0  0  0  0  0  0  0  0  0  0  0
  145.0881  135.8488  160.5513 H   0  0  0  0  0  0  0  0  0  0  0  0
  145.1817  134.1403  160.9362 H   0  0  0  0  0  0  0  0  0  0  0  0
  145.7764  136.4472  162.7439 H   0  0  0  0  0  0  0  0  0  0  0  0
  145.2005  134.8297  163.1458 H   0  0  0  0  0  0  0  0  0  0  0  0
  147.9765  135.8319  163.0209 H   0  0  0  0  0  0  0  0  0  0  0  0
  147.4418  134.2610  163.6224 H   0  0  0  0  0  0  0  0  0  0  0  0
  146.4371  137.7766  157.5618 H   0  0  0  0  0  0  0  0  0  0  0  0
  146.5354  139.3425  156.8698 H   0  0  0  0  0  0  0  0  0  0  0  0
  147.4150  140.7487  156.5088 H   0  0  0  0  0  0  0  0  0  0  0  0
  148.6798  141.7820  157.0773 H   0  0  0  0  0  0  0  0  0  0  0  0
  150.0534  141.4500  155.1281 H   0  0  0  0  0  0  0  0  0  0  0  0
  149.2763  139.9412  154.7168 H   0  0  0  0  0  0  0  0  0  0  0  0
  148.6055  141.7349  153.1306 H   0  0  0  0  0  0  0  0  0  0  0  0
  147.9760  142.7061  154.4587 H   0  0  0  0  0  0  0  0  0  0  0  0
  147.2003  141.1795  154.0369 H   0  0  0  0  0  0  0  0  0  0  0  0
  1  2  1  0  0  0  0
  1 26  1  0  0  0  0
  1 27  1  0  0  0  0
  1 28  1  0  0  0  0
  2  3  1  0  0  0  0
  2 29  1  0  0  0  0
  2 30  1  0  0  0  0
  3  4  1  0  0  0  0
  3 31  1  0  0  0  0
  3 32  1  0  0  0  0
  4  5  1  0  0  0  0
  4 33  1  0  0  0  0
  4 34  1  0  0  0  0
  5  6  1  0  0  0  0
  5 13  1  0  0  0  0
  6  7  2  0  0  0  0
  6  8  1  0  0  0  0
  8 12  1  0  0  0  0
  8  9  1  0  0  0  0
  8 35  1  0  0  0  0
  9 10  1  0  0  0  0
  9 36  1  0  0  0  0
  9 37  1  0  0  0  0
 10 11  1  0  0  0  0
 10 38  1  0  0  0  0
 10 39  1  0  0  0  0
 11 12  1  0  0  0  0
 11 40  1  0  0  0  0
 11 41  1  0  0  0  0
 13 23  1  0  0  0  0
 13 14  2  0  0  0  0
 14 15  1  0  0  0  0
 14 16  1  0  0  0  0
 15 42  1  0  0  0  0
 15 43  1  0  0  0  0
 16 17  1  0  0  0  0
 16 20  1  0  0  0  0
 17 18  1  0  0  0  0
 17 44  1  0  0  0  0
 17 45  1  0  0  0  0
 18 19  1  0  0  0  0
 18 46  1  0  0  0  0
 18 47  1  0  0  0  0
 19 48  1  0  0  0  0
 19 49  1  0  0  0  0
 19 50  1  0  0  0  0
 20 21  2  0  0  0  0
 20 22  1  0  0  0  0
 22 25  1  0  0  0  0
 22 23  1  0  0  0  0
 23 24  2  0  0  0  0
M  END
> <s_m_source_file>
AV-unprocessed.smi

> <i_m_source_file_index>
601

> <i_lp_mmshare_version>
43012

> <i_f3d_flags>
0

> <s_epik_input>
TzFbQ0gyXVtDSDJdW0NIMl1bQ0BIXTFDKD1PKU4oW0NIMl1bQ0gyXVtDSDJdW0NIM10pYzJjKFtOSDJdKW4oW0NIMl1bQ0gyXVtDSDNdKWMoPU8pW25IXWMyPU8=

> <s_epik_cmdline>
J2VwaWtfcHl0aG9uJywgJy1waCcsICc3LjAnLCAnLXRuJywgJzgnLCAnLW1hJywgJzIwMCcsICctbWV0YWxfYmluZGluZycsICctaW1hZScsICc8aW5maWxlLm1hZT4nLCAnLW9tYWUnLCAnPG91dGZpbGUubWFlPic=

> <r_lp_tautomer_probability>
1

> <r_epik_Ionization_Penalty>
6.19718e-05

> <r_epik_Ionization_Penalty_Charging>
2.78773e-05

> <r_epik_Ionization_Penalty_Neutral>
3.40944e-05

> <r_epik_State_Penalty>
-0

> <r_epik_Charging_Adjusted_Penalty>
2.78773e-05

> <i_epik_Tot_Q>
0

> <i_epik_Tot_abs_Q>
0

> <r_epik_Metal_State_Penalty>
0.0271358

> <b_epik_Metal_Only>
0

> <s_lp_Force_Field>
OPLS_2005

> <r_lp_Energy>
42.1273

> <b_lp_Chiralities_Consistent>
1

> <s_lp_Variant>
AV-unprocessed.smi:601-1

> <Gold.Version>
5.8.1

> <Gold.Id.Protein>
6NUR|6NUR_protein|mol2

> <Gold.PLP.Fitness>
37.2169

> <Gold.PLP.PLP>
-30.7104

> <Gold.PLP.part.hbond>
-3.0000

> <Gold.PLP.part.metal>
0.0000

> <Gold.PLP.part.buried>
-5.2441

> <Gold.PLP.part.nonpolar>
-21.8770

> <Gold.PLP.part.repulsive>
0.1728

> <Gold.PLP.ligand.clash>
0.0000

> <Gold.PLP.ligand.torsion>
2.0200

> <Gold.PLP.Chemscore.Hbond>
2.7120

> <Gold.PLP.Chemscore.CHOScore>
0.0000

> <Gold.PLP.Chemscore.Metal>
0.0000

> <Gold.Chemscore.Hbonds>
donor molecule, donor type, donor heavy atom, donor atom, acceptor molecule, acceptor atom, score
      P1  H  6896  6908       L1    24  1.00
      P1  H  6931  6943       L1     7  0.94
      P1  H  6934  6947       L1     7  0.77

> <Gold.PLP.Chemscore.Internal.Correction>
2.4106

> <Gold.Rescore>
     Score         DG    S(hbond)    S(metal)    S(lipo)     H(rot)  DE(clash)    DE(int)     intcor
     13.33     -16.55       2.71        0.00      60.17       1.96       0.03       3.19       ----

> <Gold.Chemscore.Fitness>
13.3261

> <Gold.Chemscore.DG>
-16.5469

> <Gold.Chemscore.ZeroCoef>
-5.4800

> <Gold.Chemscore.Hbond>
2.7084

> <Gold.Chemscore.Metal>
0.0000

> <Gold.Chemscore.Lipo>
60.1651

> <Gold.Chemscore.Internal_Hbond>
0.0000

> <Gold.Chemscore.DEClash>
0.0308

> <Gold.Chemscore.DEInternal>
3.1900

> <Gold.Chemscore.Rot>
1.9603

> <Gold.Chemscore.Internal.Correction>
   9.000000E+99

> <Gold.Chemscore.Hbonds>
donor molecule, donor type, donor heavy atom, donor atom, acceptor molecule, acceptor atom, score
      P1  H  6896  6908       L1    24  0.98
      P1  H  6931  6943       L1     7  0.91
      P1  H  6934  6947       L1     7  0.72

> <Gold.Chemscore.Hbond.Weighted>
-9.0460

> <Gold.Chemscore.Metal.Weighted>
-0.0000

> <Gold.Chemscore.Lipo.Weighted>
-7.0393

> <Gold.Chemscore.Internal_Hbond.Weighted>
0.0000

> <Gold.Chemscore.DEClash.Weighted>
0.0308

> <Gold.Chemscore.DEInternal.Weighted>
3.1900

> <Gold.Chemscore.Rot.Weighted>
5.0185

> <Gold.Chemscore.Internal.Correction.Weighted>
   9.000000E+99

> <Gold.Protein.RotatedTorsions>
[ 6907 6896 6895 6894 ] final -154.65 input  -60.11 | X-H torsion
[ 7974 7965 7964 7962 ] final   23.53 input  175.53 | X-H torsion
[ 8008 7997 7996 7995 ] final  -47.40 input   59.86 | X-H torsion
[ 10167 10162 10161 10158 ] final -153.99 input  -65.29 | X-H torsion
[ 10718 10713 10712 10709 ] final -143.39 input   66.30 | X-H torsion
[ 10763 10752 10751 10750 ] final  -99.53 input  -60.55 | X-H torsion
[ 11005 11000 10999 10996 ] final  156.45 input  -57.11 | X-H torsion

> <Gold.Protein.ActiveResidues>
 VAL166  LYS551  ARG553  GLY616  TRP617  ASP618  TYR619  PRO620  LYS621  CYS622 
 ASP623  PHE694  ASN695  SER759  ASP760  ASP761  ALA762  ILE779  LEU786  VAL792 
 PHE793  MET794  SER795  GLU796  ALA797  LYS798  CYS799  TRP800  GLU811  SER814 

> <Gold.Protein.RotatedAtoms>
  151.2607  133.4303  159.2615 H   0  0  0  0  0  0  0  0  0  0  0  0  # atno 6907 bound_to 6896
  151.0533  134.9688  159.8233 H   0  0  0  0  0  0  0  0  0  0  0  0  # atno 6908 bound_to 6896
  152.5386  134.2560  159.8970 H   0  0  0  0  0  0  0  0  0  0  0  0  # atno 6909 bound_to 6896
  146.1980  139.7732  142.8783 H   0  0  0  0  0  0  0  0  0  0  0  0  # atno 7974 bound_to 7965
  154.4016  140.1347  156.4169 H   0  0  0  0  0  0  0  0  0  0  0  0  # atno 8008 bound_to 7997
  155.7680  140.3484  155.5212 H   0  0  0  0  0  0  0  0  0  0  0  0  # atno 8009 bound_to 7997
  155.8794  140.0985  157.1486 H   0  0  0  0  0  0  0  0  0  0  0  0  # atno 8010 bound_to 7997
  139.7050  143.9201  152.2445 H   0  0  0  0  0  0  0  0  0  0  0  0  # atno 10167 bound_to 10162
  156.3573  130.7720  151.1882 H   0  0  0  0  0  0  0  0  0  0  0  0  # atno 10718 bound_to 10713
  154.7506  135.4968  153.9282 H   0  0  0  0  0  0  0  0  0  0  0  0  # atno 10763 bound_to 10752
  153.1139  135.6716  153.9460 H   0  0  0  0  0  0  0  0  0  0  0  0  # atno 10764 bound_to 10752
  153.9212  135.3088  155.3426 H   0  0  0  0  0  0  0  0  0  0  0  0  # atno 10765 bound_to 10752
  140.1676  134.8566  157.2651 H   0  0  0  0  0  0  0  0  0  0  0  0  # atno 11005 bound_to 11000
  145.3580  141.0320  143.3301 LP  0  0  0  0  0  0  0  0  0  0  0  0  # atno 17320 bound_to 7965
  144.8621  139.5161  143.6807 LP  0  0  0  0  0  0  0  0  0  0  0  0  # atno 17321 bound_to 7965
  139.9054  144.6888  150.8620 LP  0  0  0  0  0  0  0  0  0  0  0  0  # atno 17342 bound_to 10162
  140.7719  143.3483  151.2067 LP  0  0  0  0  0  0  0  0  0  0  0  0  # atno 17343 bound_to 10162
  157.7469  131.0410  150.4626 LP  0  0  0  0  0  0  0  0  0  0  0  0  # atno 17370 bound_to 10713
  156.4831  130.4078  149.6450 LP  0  0  0  0  0  0  0  0  0  0  0  0  # atno 17371 bound_to 10713
  140.2415  134.3790  155.7478 LP  0  0  0  0  0  0  0  0  0  0  0  0  # atno 17394 bound_to 11000
  141.2215  133.7268  156.8797 LP  0  0  0  0  0  0  0  0  0  0  0  0  # atno 17395 bound_to 11000

$$$$
