AV-unprocessed.smi:1045|AV-procd|sdf|4544|dock2
  -GOLD-   22720 2573D 1   1.00000     0.00000
 Structure written by MMmdl.
 42 43  0  0  0  0  0  0  0  0  1 V2000
  142.5432  137.4663  153.1397 C   0  0  0  0  0  0  0  0  0  0  0  0
  143.2689  136.2651  152.9465 O   0  0  0  0  0  0  0  0  0  0  0  0
  144.6316  136.3860  153.3204 C   0  0  0  0  0  0  0  0  0  0  0  0
  145.4326  136.9821  152.1489 C   0  0  2  0  0  0  0  0  0  0  0  0
  145.5604  135.9965  150.9784 C   0  0  0  0  0  0  0  0  0  0  0  0
  146.7694  137.3686  152.5919 N   0  0  0  0  0  0  0  0  0  0  0  0
  147.0463  138.3455  153.4677 C   0  0  0  0  0  0  0  0  0  0  0  0
  146.1833  139.0278  154.0190 O   0  0  0  0  0  0  0  0  0  0  0  0
  148.3712  138.4542  153.6653 N   0  0  0  0  0  0  0  0  0  0  0  0
  149.0784  139.3745  154.4859 C   0  0  0  0  0  0  0  0  0  0  0  0
  148.7731  140.7512  154.5963 C   0  0  0  0  0  0  0  0  0  0  0  0
  149.5670  141.5614  155.4306 C   0  0  0  0  0  0  0  0  0  0  0  0
  150.6530  140.9809  156.1275 C   0  0  0  0  0  0  0  0  0  0  0  0
  151.4686  141.7567  156.9753 N   0  0  0  0  0  0  0  0  0  0  0  0
  151.1771  143.1556  157.2481 C   0  0  0  0  0  0  0  0  0  0  0  0
  152.1985  143.5632  158.3084 C   0  0  0  0  0  0  0  0  0  0  0  0
  152.4005  142.2754  159.1066 C   0  0  0  0  0  0  0  0  0  0  0  0
  152.2217  141.1600  158.0699 C   0  0  0  0  0  0  0  0  0  0  0  0
  150.9454  139.6634  156.0170 N   0  0  0  0  0  0  0  0  0  0  0  0
  150.1825  138.8912  155.2158 C   0  0  0  0  0  0  0  0  0  0  0  0
  141.5055  137.3189  152.8408 H   0  0  0  0  0  0  0  0  0  0  0  0
  142.9548  138.2775  152.5380 H   0  0  0  0  0  0  0  0  0  0  0  0
  142.5518  137.7679  154.1879 H   0  0  0  0  0  0  0  0  0  0  0  0
  144.7062  137.0323  154.1965 H   0  0  0  0  0  0  0  0  0  0  0  0
  145.0360  135.4113  153.5994 H   0  0  0  0  0  0  0  0  0  0  0  0
  144.9125  137.8703  151.7851 H   0  0  0  0  0  0  0  0  0  0  0  0
  144.5809  135.7162  150.5899 H   0  0  0  0  0  0  0  0  0  0  0  0
  146.0712  135.0821  151.2820 H   0  0  0  0  0  0  0  0  0  0  0  0
  146.1239  136.4362  150.1547 H   0  0  0  0  0  0  0  0  0  0  0  0
  147.5426  136.8549  152.1954 H   0  0  0  0  0  0  0  0  0  0  0  0
  148.9446  137.7674  153.1979 H   0  0  0  0  0  0  0  0  0  0  0  0
  147.9597  141.2065  154.0537 H   0  0  0  0  0  0  0  0  0  0  0  0
  149.3308  142.6108  155.5251 H   0  0  0  0  0  0  0  0  0  0  0  0
  151.2614  143.7683  156.3500 H   0  0  0  0  0  0  0  0  0  0  0  0
  150.1621  143.2469  157.6367 H   0  0  0  0  0  0  0  0  0  0  0  0
  153.1356  143.8500  157.8290 H   0  0  0  0  0  0  0  0  0  0  0  0
  151.8627  144.3994  158.9222 H   0  0  0  0  0  0  0  0  0  0  0  0
  153.3664  142.2338  159.6104 H   0  0  0  0  0  0  0  0  0  0  0  0
  151.6227  142.1947  159.8671 H   0  0  0  0  0  0  0  0  0  0  0  0
  151.7074  140.3032  158.5066 H   0  0  0  0  0  0  0  0  0  0  0  0
  153.1878  140.8249  157.6914 H   0  0  0  0  0  0  0  0  0  0  0  0
  150.4637  137.8498  155.1592 H   0  0  0  0  0  0  0  0  0  0  0  0
  1  2  1  0  0  0  0
  1 21  1  0  0  0  0
  1 22  1  0  0  0  0
  1 23  1  0  0  0  0
  2  3  1  0  0  0  0
  3  4  1  0  0  0  0
  3 24  1  0  0  0  0
  3 25  1  0  0  0  0
  4  5  1  0  0  0  0
  4  6  1  0  0  0  0
  4 26  1  0  0  0  0
  5 27  1  0  0  0  0
  5 28  1  0  0  0  0
  5 29  1  0  0  0  0
  6  7  1  0  0  0  0
  6 30  1  0  0  0  0
  7  8  2  0  0  0  0
  7  9  1  0  0  0  0
  9 10  1  0  0  0  0
  9 31  1  0  0  0  0
 10 20  1  0  0  0  0
 10 11  2  0  0  0  0
 11 12  1  0  0  0  0
 11 32  1  0  0  0  0
 12 13  2  0  0  0  0
 12 33  1  0  0  0  0
 13 14  1  0  0  0  0
 13 19  1  0  0  0  0
 14 18  1  0  0  0  0
 14 15  1  0  0  0  0
 15 16  1  0  0  0  0
 15 34  1  0  0  0  0
 15 35  1  0  0  0  0
 16 17  1  0  0  0  0
 16 36  1  0  0  0  0
 16 37  1  0  0  0  0
 17 18  1  0  0  0  0
 17 38  1  0  0  0  0
 17 39  1  0  0  0  0
 18 40  1  0  0  0  0
 18 41  1  0  0  0  0
 19 20  2  0  0  0  0
 20 42  1  0  0  0  0
M  END
> <s_m_source_file>
AV-unprocessed.smi

> <i_m_source_file_index>
1045

> <i_lp_mmshare_version>
43012

> <i_f3d_flags>
0

> <s_epik_input>
W0NIM11PW0NIMl1bQ0BIXShbQ0gzXSlbTkhdQyg9TylbTkhdYzFbY0hdW2NIXWMobltjSF0xKU4yW0NIMl1bQ0gyXVtDSDJdW0NIMl0y

> <s_epik_cmdline>
J2VwaWtfcHl0aG9uJywgJy1waCcsICc3LjAnLCAnLXRuJywgJzgnLCAnLW1hJywgJzIwMCcsICctbWV0YWxfYmluZGluZycsICctaW1hZScsICc8aW5maWxlLm1hZT4nLCAnLW9tYWUnLCAnPG91dGZpbGUubWFlPic=

> <r_lp_tautomer_probability>
1

> <r_epik_Ionization_Penalty>
0.10064

> <r_epik_Ionization_Penalty_Charging>
0

> <r_epik_Ionization_Penalty_Neutral>
0.10064

> <r_epik_State_Penalty>
0.0900987

> <r_epik_Charging_Adjusted_Penalty>
0.0900987

> <i_epik_Tot_Q>
0

> <i_epik_Tot_abs_Q>
0

> <r_epik_Metal_State_Penalty>
0.076945

> <b_epik_Metal_Only>
0

> <s_lp_Force_Field>
OPLS_2005

> <r_lp_Energy>
28.0744

> <b_lp_Chiralities_Consistent>
1

> <s_lp_Variant>
AV-unprocessed.smi:1045-1

> <Gold.Version>
5.8.1

> <Gold.Id.Protein>
6NUR|6NUR_protein|mol2

> <Gold.PLP.Fitness>
38.9489

> <Gold.PLP.PLP>
-34.3590

> <Gold.PLP.part.hbond>
-2.4624

> <Gold.PLP.part.metal>
0.0000

> <Gold.PLP.part.buried>
-3.6061

> <Gold.PLP.part.nonpolar>
-29.4199

> <Gold.PLP.part.repulsive>
0.3597

> <Gold.PLP.ligand.clash>
0.0000

> <Gold.PLP.ligand.torsion>
0.7010

> <Gold.PLP.Chemscore.Hbond>
1.9280

> <Gold.PLP.Chemscore.CHOScore>
0.0000

> <Gold.PLP.Chemscore.Metal>
0.0000

> <Gold.Chemscore.Hbonds>
donor molecule, donor type, donor heavy atom, donor atom, acceptor molecule, acceptor atom, score
      L1  H     6    30       P1  7948  1.00
      L1  H     9    31       P1  7948  0.93

> <Gold.PLP.Chemscore.Internal.Correction>
0.2080

> <Gold.Rescore>
     Score         DG    S(hbond)    S(metal)    S(lipo)     H(rot)  DE(clash)    DE(int)     intcor
     17.57     -18.20       1.92        0.00      84.87       1.41       0.05       0.59       ----

> <Gold.Chemscore.Fitness>
17.5697

> <Gold.Chemscore.DG>
-18.2015

> <Gold.Chemscore.ZeroCoef>
-5.4800

> <Gold.Chemscore.Hbond>
1.9154

> <Gold.Chemscore.Metal>
0.0000

> <Gold.Chemscore.Lipo>
84.8734

> <Gold.Chemscore.Internal_Hbond>
0.0000

> <Gold.Chemscore.DEClash>
0.0461

> <Gold.Chemscore.DEInternal>
0.5857

> <Gold.Chemscore.Rot>
1.4086

> <Gold.Chemscore.Internal.Correction>
   9.000000E+99

> <Gold.Chemscore.Hbonds>
donor molecule, donor type, donor heavy atom, donor atom, acceptor molecule, acceptor atom, score
      L1  H     6    30       P1  7948  0.97
      L1  H     9    31       P1  7948  0.85

> <Gold.Chemscore.Hbond.Weighted>
-6.3974

> <Gold.Chemscore.Metal.Weighted>
-0.0000

> <Gold.Chemscore.Lipo.Weighted>
-9.9302

> <Gold.Chemscore.Internal_Hbond.Weighted>
0.0000

> <Gold.Chemscore.DEClash.Weighted>
0.0461

> <Gold.Chemscore.DEInternal.Weighted>
0.5857

> <Gold.Chemscore.Rot.Weighted>
3.6060

> <Gold.Chemscore.Internal.Correction.Weighted>
   9.000000E+99

> <Gold.Protein.RotatedTorsions>
[ 6907 6896 6895 6894 ] final -101.87 input  -60.11 | X-H torsion
[ 7974 7965 7964 7962 ] final  124.65 input  175.53 | X-H torsion
[ 8008 7997 7996 7995 ] final   92.36 input   59.86 | X-H torsion
[ 10167 10162 10161 10158 ] final   79.33 input  -65.29 | X-H torsion
[ 10718 10713 10712 10709 ] final   -7.23 input   66.30 | X-H torsion
[ 10763 10752 10751 10750 ] final   82.33 input  -60.55 | X-H torsion
[ 11005 11000 10999 10996 ] final  -13.44 input  -57.11 | X-H torsion

> <Gold.Protein.ActiveResidues>
 VAL166  LYS551  ARG553  GLY616  TRP617  ASP618  TYR619  PRO620  LYS621  CYS622 
 ASP623  PHE694  ASN695  SER759  ASP760  ASP761  ALA762  ILE779  LEU786  VAL792 
 PHE793  MET794  SER795  GLU796  ALA797  LYS798  CYS799  TRP800  GLU811  SER814 

> <Gold.Protein.RotatedAtoms>
  150.7172  134.0668  159.3850 H   0  0  0  0  0  0  0  0  0  0  0  0  # atno 6907 bound_to 6896
  151.8649  135.0508  160.0482 H   0  0  0  0  0  0  0  0  0  0  0  0  # atno 6908 bound_to 6896
  152.2688  133.5328  159.5463 H   0  0  0  0  0  0  0  0  0  0  0  0  # atno 6909 bound_to 6896
  145.0820  139.3650  143.4904 H   0  0  0  0  0  0  0  0  0  0  0  0  # atno 7974 bound_to 7965
  156.0344  140.3326  155.7175 H   0  0  0  0  0  0  0  0  0  0  0  0  # atno 8008 bound_to 7997
  155.5837  140.0639  157.2794 H   0  0  0  0  0  0  0  0  0  0  0  0  # atno 8009 bound_to 7997
  154.4366  140.1839  156.0991 H   0  0  0  0  0  0  0  0  0  0  0  0  # atno 8010 bound_to 7997
  139.9615  144.5958  150.8068 H   0  0  0  0  0  0  0  0  0  0  0  0  # atno 10167 bound_to 10162
  156.7203  130.5149  149.5870 H   0  0  0  0  0  0  0  0  0  0  0  0  # atno 10718 bound_to 10713
  153.1193  135.4732  154.9169 H   0  0  0  0  0  0  0  0  0  0  0  0  # atno 10763 bound_to 10752
  154.7560  135.3118  154.8471 H   0  0  0  0  0  0  0  0  0  0  0  0  # atno 10764 bound_to 10752
  153.9040  135.6872  153.4807 H   0  0  0  0  0  0  0  0  0  0  0  0  # atno 10765 bound_to 10752
  140.7762  133.8399  155.9250 H   0  0  0  0  0  0  0  0  0  0  0  0  # atno 11005 bound_to 11000
  146.3531  140.0615  142.8629 LP  0  0  0  0  0  0  0  0  0  0  0  0  # atno 17320 bound_to 7965
  145.1167  140.9438  143.4625 LP  0  0  0  0  0  0  0  0  0  0  0  0  # atno 17321 bound_to 7965
  140.7551  143.3041  151.3007 LP  0  0  0  0  0  0  0  0  0  0  0  0  # atno 17342 bound_to 10162
  139.6550  144.0292  152.2653 LP  0  0  0  0  0  0  0  0  0  0  0  0  # atno 17343 bound_to 10162
  156.1599  130.6367  151.0705 LP  0  0  0  0  0  0  0  0  0  0  0  0  # atno 17370 bound_to 10713
  157.6900  131.0813  150.7133 LP  0  0  0  0  0  0  0  0  0  0  0  0  # atno 17371 bound_to 10713
  140.9527  134.1758  157.4715 LP  0  0  0  0  0  0  0  0  0  0  0  0  # atno 17394 bound_to 11000
  139.8749  134.9915  156.5552 LP  0  0  0  0  0  0  0  0  0  0  0  0  # atno 17395 bound_to 11000

$$$$
