AV-unprocessed.smi:1824|AV-procd|sdf|7399|dock3
  -GOLD-   22720 9 73D 1   1.00000     0.00000
 Structure written by MMmdl.
 45 47  0  0  0  0  0  0  0  0  2 V2000
  147.1259  136.0407  155.9955 C   0  0  0  0  0  0  0  0  0  0  0  0
  147.5930  137.0002  154.8954 C   0  0  2  0  0  0  0  0  0  0  0  0
  149.0898  137.3367  155.0202 C   0  0  0  0  0  0  0  0  0  0  0  0
  149.4832  138.3316  153.9960 N   0  3  2  0  0  0  0  0  0  0  0  0
  150.9429  138.6060  153.9970 C   0  0  0  0  0  0  0  0  0  0  0  0
  151.3450  139.6624  155.0452 C   0  0  2  0  0  0  0  0  0  0  0  0
  152.7465  139.8514  154.9871 O   0  0  0  0  0  0  0  0  0  0  0  0
  150.9423  139.2334  156.4694 C   0  0  0  0  0  0  0  0  0  0  0  0
  150.9461  140.3413  157.4086 N   0  0  0  0  0  0  0  0  0  0  0  0
  150.0818  141.3739  157.4465 C   0  0  0  0  0  0  0  0  0  0  0  0
  150.2652  142.2878  158.3950 N   0  0  0  0  0  0  0  0  0  0  0  0
  151.3776  141.7904  159.0520 C   0  0  0  0  0  0  0  0  0  0  0  0
  152.0872  142.2943  160.1655 C   0  0  0  0  0  0  0  0  0  0  0  0
  153.2095  141.6047  160.6702 C   0  0  0  0  0  0  0  0  0  0  0  0
  153.8773  142.1009  161.7387 F   0  0  0  0  0  0  0  0  0  0  0  0
  153.6391  140.4029  160.0689 C   0  0  0  0  0  0  0  0  0  0  0  0
  154.7173  139.7466  160.5592 F   0  0  0  0  0  0  0  0  0  0  0  0
  152.9485  139.8818  158.9579 C   0  0  0  0  0  0  0  0  0  0  0  0
  151.8284  140.5724  158.4589 C   0  0  0  0  0  0  0  0  0  0  0  0
  148.6478  139.5518  154.1169 C   0  0  0  0  0  0  0  0  0  0  0  0
  147.1478  139.2054  154.0442 C   0  0  1  0  0  0  0  0  0  0  0  0
  146.6702  138.8379  152.6280 C   0  0  0  0  0  0  0  0  0  0  0  0
  146.8273  138.1976  155.0034 O   0  0  0  0  0  0  0  0  0  0  0  0
  147.6722  135.0979  155.9539 H   0  0  0  0  0  0  0  0  0  0  0  0
  146.0648  135.8137  155.8891 H   0  0  0  0  0  0  0  0  0  0  0  0
  147.2757  136.4712  156.9862 H   0  0  0  0  0  0  0  0  0  0  0  0
  147.4029  136.5266  153.9320 H   0  0  0  0  0  0  0  0  0  0  0  0
  149.3116  137.7293  156.0141 H   0  0  0  0  0  0  0  0  0  0  0  0
  149.6784  136.4268  154.8959 H   0  0  0  0  0  0  0  0  0  0  0  0
  151.4830  137.6730  154.1651 H   0  0  0  0  0  0  0  0  0  0  0  0
  151.2518  138.9610  153.0126 H   0  0  0  0  0  0  0  0  0  0  0  0
  150.8665  140.6162  154.8250 H   0  0  0  0  0  0  0  0  0  0  0  0
  153.0382  139.6937  154.1017 H   0  0  0  0  0  0  0  0  0  0  0  0
  149.9420  138.7985  156.4616 H   0  0  0  0  0  0  0  0  0  0  0  0
  151.6138  138.4581  156.8407 H   0  0  0  0  0  0  0  0  0  0  0  0
  149.2723  141.4602  156.7363 H   0  0  0  0  0  0  0  0  0  0  0  0
  151.7681  143.2136  160.6338 H   0  0  0  0  0  0  0  0  0  0  0  0
  153.2773  138.9629  158.4969 H   0  0  0  0  0  0  0  0  0  0  0  0
  148.8632  140.0366  155.0705 H   0  0  0  0  0  0  0  0  0  0  0  0
  148.8940  140.2725  153.3378 H   0  0  0  0  0  0  0  0  0  0  0  0
  146.5888  140.0929  154.3429 H   0  0  0  0  0  0  0  0  0  0  0  0
  146.8098  139.6756  151.9441 H   0  0  0  0  0  0  0  0  0  0  0  0
  145.6088  138.5884  152.6287 H   0  0  0  0  0  0  0  0  0  0  0  0
  147.2135  137.9894  152.2131 H   0  0  0  0  0  0  0  0  0  0  0  0
  149.2737  137.9142  153.1000 H   0  0  0  0  0  0  0  0  0  0  0  0
  1  2  1  0  0  0  0
  1 24  1  0  0  0  0
  1 25  1  0  0  0  0
  1 26  1  0  0  0  0
  2 23  1  0  0  0  0
  2  3  1  0  0  0  0
  2 27  1  0  0  0  0
  3  4  1  0  0  0  0
  3 28  1  0  0  0  0
  3 29  1  0  0  0  0
  4  5  1  0  0  0  0
  4 20  1  0  0  0  0
  4 45  1  0  0  0  0
  5  6  1  0  0  0  0
  5 30  1  0  0  0  0
  5 31  1  0  0  0  0
  6  7  1  0  0  0  0
  6  8  1  0  0  0  0
  6 32  1  0  0  0  0
  7 33  1  0  0  0  0
  8  9  1  0  0  0  0
  8 34  1  0  0  0  0
  8 35  1  0  0  0  0
  9 19  1  0  0  0  0
  9 10  1  0  0  0  0
 10 11  2  0  0  0  0
 10 36  1  0  0  0  0
 11 12  1  0  0  0  0
 12 19  2  0  0  0  0
 12 13  1  0  0  0  0
 13 14  2  0  0  0  0
 13 37  1  0  0  0  0
 14 15  1  0  0  0  0
 14 16  1  0  0  0  0
 16 17  1  0  0  0  0
 16 18  2  0  0  0  0
 18 19  1  0  0  0  0
 18 38  1  0  0  0  0
 20 21  1  0  0  0  0
 20 39  1  0  0  0  0
 20 40  1  0  0  0  0
 21 22  1  0  0  0  0
 21 23  1  0  0  0  0
 21 41  1  0  0  0  0
 22 42  1  0  0  0  0
 22 43  1  0  0  0  0
 22 44  1  0  0  0  0
M  CHG  1   4   1
M  END
> <s_m_source_file>
AV-unprocessed.smi

> <i_m_source_file_index>
1824

> <i_lp_mmshare_version>
43012

> <i_f3d_flags>
0

> <s_epik_input>
W0NIM11bQ0BASF0xW0NIMl1OKFtDSDJdW0NASF0oTzEpW0NIM10pW0NIMl1bQ0BIXShbT0hdKVtDSDJdbihbY0hdbjIpYyhjMjMpW2NIXWMoRiljKEYpW2NIXTM=

> <s_epik_cmdline>
J2VwaWtfcHl0aG9uJywgJy1waCcsICc3LjAnLCAnLXRuJywgJzgnLCAnLW1hJywgJzIwMCcsICctbWV0YWxfYmluZGluZycsICctaW1hZScsICc8aW5maWxlLm1hZT4nLCAnLW9tYWUnLCAnPG91dGZpbGUubWFlPic=

> <r_epik_Ionization_Penalty>
0.61967

> <r_epik_Ionization_Penalty_Charging>
0.608065

> <r_epik_Ionization_Penalty_Neutral>
0.0116057

> <r_epik_State_Penalty>
0.664205

> <r_epik_Charging_Adjusted_Penalty>
1.27227

> <i_epik_Tot_Q>
1

> <i_epik_Tot_abs_Q>
1

> <r_epik_Metal_State_Penalty>
0.654947

> <b_epik_Metal_Only>
0

> <s_lp_Force_Field>
OPLS_2005

> <r_lp_Energy>
23.0723

> <b_lp_Chiralities_Consistent>
1

> <s_lp_Variant>
AV-unprocessed.smi:1824-7

> <Gold.Version>
5.8.1

> <Gold.Id.Protein>
6NUR|6NUR_protein|mol2

> <Gold.PLP.Fitness>
47.6197

> <Gold.PLP.PLP>
-39.4439

> <Gold.PLP.part.hbond>
-2.4904

> <Gold.PLP.part.metal>
0.0000

> <Gold.PLP.part.buried>
-4.3137

> <Gold.PLP.part.nonpolar>
-32.6927

> <Gold.PLP.part.repulsive>
0.1928

> <Gold.PLP.ligand.clash>
0.0000

> <Gold.PLP.ligand.torsion>
0.4318

> <Gold.PLP.Chemscore.Hbond>
3.0000

> <Gold.PLP.Chemscore.CHOScore>
0.0000

> <Gold.PLP.Chemscore.Metal>
0.0000

> <Gold.Chemscore.Hbonds>
donor molecule, donor type, donor heavy atom, donor atom, acceptor molecule, acceptor atom, score
      L1  H     4    45       P1  7948  1.76
      P1  H  7997  8008       L1     7  0.89

> <Gold.PLP.Chemscore.Internal.Correction>
0.0394

> <Gold.Rescore>
     Score         DG    S(hbond)    S(metal)    S(lipo)     H(rot)  DE(clash)    DE(int)     intcor
     14.70     -15.44       1.61        0.00      90.08       2.33       0.31       0.43       ----

> <Gold.Chemscore.Fitness>
14.7038

> <Gold.Chemscore.DG>
-15.4435

> <Gold.Chemscore.ZeroCoef>
-5.4800

> <Gold.Chemscore.Hbond>
1.6096

> <Gold.Chemscore.Metal>
0.0000

> <Gold.Chemscore.Lipo>
90.0835

> <Gold.Chemscore.Internal_Hbond>
0.0000

> <Gold.Chemscore.DEClash>
0.3060

> <Gold.Chemscore.DEInternal>
0.4337

> <Gold.Chemscore.Rot>
2.3251

> <Gold.Chemscore.Internal.Correction>
   9.000000E+99

> <Gold.Chemscore.Hbonds>
donor molecule, donor type, donor heavy atom, donor atom, acceptor molecule, acceptor atom, score
      L1  H     4    45       P1  7948  0.80
      P1  H  7997  8008       L1     7  0.64

> <Gold.Chemscore.Hbond.Weighted>
-5.3760

> <Gold.Chemscore.Metal.Weighted>
-0.0000

> <Gold.Chemscore.Lipo.Weighted>
-10.5398

> <Gold.Chemscore.Internal_Hbond.Weighted>
0.0000

> <Gold.Chemscore.DEClash.Weighted>
0.3060

> <Gold.Chemscore.DEInternal.Weighted>
0.4337

> <Gold.Chemscore.Rot.Weighted>
5.9523

> <Gold.Chemscore.Internal.Correction.Weighted>
   9.000000E+99

> <Gold.Protein.RotatedTorsions>
[ 6907 6896 6895 6894 ] final -175.84 input  -60.11 | X-H torsion
[ 7974 7965 7964 7962 ] final  125.88 input  175.53 | X-H torsion
[ 8008 7997 7996 7995 ] final  -39.57 input   59.86 | X-H torsion
[ 10167 10162 10161 10158 ] final   44.62 input  -65.29 | X-H torsion
[ 10718 10713 10712 10709 ] final  -72.91 input   66.30 | X-H torsion
[ 10763 10752 10751 10750 ] final   -8.13 input  -60.55 | X-H torsion
[ 11005 11000 10999 10996 ] final -165.99 input  -57.11 | X-H torsion

> <Gold.Protein.ActiveResidues>
 VAL166  LYS551  ARG553  GLY616  TRP617  ASP618  TYR619  PRO620  LYS621  CYS622 
 ASP623  PHE694  ASN695  SER759  ASP760  ASP761  ALA762  ILE779  LEU786  VAL792 
 PHE793  MET794  SER795  GLU796  ALA797  LYS798  CYS799  TRP800  GLU811  SER814 

> <Gold.Protein.RotatedAtoms>
  151.5951  133.3362  159.3035 H   0  0  0  0  0  0  0  0  0  0  0  0  # atno 6907 bound_to 6896
  150.8239  134.7463  159.6807 H   0  0  0  0  0  0  0  0  0  0  0  0  # atno 6908 bound_to 6896
  152.4330  134.5747  159.9982 H   0  0  0  0  0  0  0  0  0  0  0  0  # atno 6909 bound_to 6896
  145.0680  139.3752  143.4972 H   0  0  0  0  0  0  0  0  0  0  0  0  # atno 7974 bound_to 7965
  154.4021  140.1548  156.2885 H   0  0  0  0  0  0  0  0  0  0  0  0  # atno 8008 bound_to 7997
  155.8806  140.3444  155.5863 H   0  0  0  0  0  0  0  0  0  0  0  0  # atno 8009 bound_to 7997
  155.7671  140.0825  157.2117 H   0  0  0  0  0  0  0  0  0  0  0  0  # atno 8010 bound_to 7997
  140.3325  144.2571  150.6166 H   0  0  0  0  0  0  0  0  0  0  0  0  # atno 10167 bound_to 10162
  156.0301  130.4382  150.2663 H   0  0  0  0  0  0  0  0  0  0  0  0  # atno 10718 bound_to 10713
  153.4361  135.7013  153.6199 H   0  0  0  0  0  0  0  0  0  0  0  0  # atno 10763 bound_to 10752
  153.4593  135.3740  155.2329 H   0  0  0  0  0  0  0  0  0  0  0  0  # atno 10764 bound_to 10752
  154.8726  135.4016  154.3752 H   0  0  0  0  0  0  0  0  0  0  0  0  # atno 10765 bound_to 10752
  140.5696  134.5251  157.5159 H   0  0  0  0  0  0  0  0  0  0  0  0  # atno 11005 bound_to 11000
  146.3527  140.0411  142.8643 LP  0  0  0  0  0  0  0  0  0  0  0  0  # atno 17320 bound_to 7965
  145.1327  140.9527  143.4535 LP  0  0  0  0  0  0  0  0  0  0  0  0  # atno 17321 bound_to 7965
  140.5384  143.2228  151.8125 LP  0  0  0  0  0  0  0  0  0  0  0  0  # atno 17342 bound_to 10162
  139.4854  144.4631  151.9516 LP  0  0  0  0  0  0  0  0  0  0  0  0  # atno 17343 bound_to 10162
  157.0765  131.0131  151.3172 LP  0  0  0  0  0  0  0  0  0  0  0  0  # atno 17370 bound_to 10713
  157.4960  130.7851  149.7555 LP  0  0  0  0  0  0  0  0  0  0  0  0  # atno 17371 bound_to 10713
  139.9368  134.7860  156.0781 LP  0  0  0  0  0  0  0  0  0  0  0  0  # atno 17394 bound_to 11000
  141.1064  133.6658  156.2875 LP  0  0  0  0  0  0  0  0  0  0  0  0  # atno 17395 bound_to 11000

$$$$
