AV-unprocessed.smi:1561|AV-procd|sdf|6283|dock5
  -GOLD-   22720 6483D 1   1.00000     0.00000
 Structure written by MMmdl.
 33 34  0  0  0  0  0  0  0  0  1 V2000
  151.8858  145.5784  159.8416 C   0  0  0  0  0  0  0  0  0  0  0  0
  152.4250  144.3025  159.1627 C   0  0  2  0  0  0  0  0  0  0  0  0
  151.4304  143.6967  158.1608 C   0  0  0  0  0  0  0  0  0  0  0  0
  151.2292  144.2339  157.0708 O   0  0  0  0  0  0  0  0  0  0  0  0
  150.7964  142.5820  158.5591 N   0  0  0  0  0  0  0  0  0  0  0  0
  149.7430  141.8967  157.8183 C   0  0  0  0  0  0  0  0  0  0  0  0
  150.0946  141.7740  156.3236 C   0  0  2  0  0  0  0  0  0  0  0  0
  148.8975  141.4791  155.4287 C   0  0  0  0  0  0  0  0  0  0  0  0
  149.4590  140.5699  154.3297 C   0  0  0  0  0  0  0  0  0  0  0  0
  150.8561  140.4845  154.5764 O   0  0  0  0  0  0  0  0  0  0  0  0
  151.0551  140.6390  155.9705 C   0  0  0  0  0  0  0  0  0  0  0  0
  152.8353  143.2894  160.1291 N   0  0  0  0  0  0  0  0  0  0  0  0
  152.7064  143.3276  161.5029 C   0  0  0  0  0  0  0  0  0  0  0  0
  153.2728  142.1895  162.0013 C   0  0  0  0  0  0  0  0  0  0  0  0
  153.7429  141.5113  160.8431 C   0  0  0  0  0  0  0  0  0  0  0  0
  153.4885  142.1740  159.7270 N   0  0  0  0  0  0  0  0  0  0  0  0
  151.6358  146.3400  159.1023 H   0  0  0  0  0  0  0  0  0  0  0  0
  152.6325  146.0066  160.5108 H   0  0  0  0  0  0  0  0  0  0  0  0
  150.9882  145.3840  160.4303 H   0  0  0  0  0  0  0  0  0  0  0  0
  153.3162  144.5906  158.6027 H   0  0  0  0  0  0  0  0  0  0  0  0
  151.0285  142.2068  159.4672 H   0  0  0  0  0  0  0  0  0  0  0  0
  149.5372  140.9145  158.2475 H   0  0  0  0  0  0  0  0  0  0  0  0
  148.8261  142.4759  157.9305 H   0  0  0  0  0  0  0  0  0  0  0  0
  150.5447  142.7089  155.9856 H   0  0  0  0  0  0  0  0  0  0  0  0
  148.1076  140.9591  155.9725 H   0  0  0  0  0  0  0  0  0  0  0  0
  148.4722  142.3973  155.0225 H   0  0  0  0  0  0  0  0  0  0  0  0
  149.0201  139.5734  154.3960 H   0  0  0  0  0  0  0  0  0  0  0  0
  149.2679  140.9592  153.3294 H   0  0  0  0  0  0  0  0  0  0  0  0
  152.0941  140.8761  156.2016 H   0  0  0  0  0  0  0  0  0  0  0  0
  150.7877  139.7144  156.4851 H   0  0  0  0  0  0  0  0  0  0  0  0
  152.2287  144.1545  162.0074 H   0  0  0  0  0  0  0  0  0  0  0  0
  153.3463  141.8903  163.0363 H   0  0  0  0  0  0  0  0  0  0  0  0
  154.2623  140.5664  160.7808 H   0  0  0  0  0  0  0  0  0  0  0  0
  1  2  1  0  0  0  0
  1 17  1  0  0  0  0
  1 18  1  0  0  0  0
  1 19  1  0  0  0  0
  2  3  1  0  0  0  0
  2 12  1  0  0  0  0
  2 20  1  0  0  0  0
  3  4  2  0  0  0  0
  3  5  1  0  0  0  0
  5  6  1  0  0  0  0
  5 21  1  0  0  0  0
  6  7  1  0  0  0  0
  6 22  1  0  0  0  0
  6 23  1  0  0  0  0
  7 11  1  0  0  0  0
  7  8  1  0  0  0  0
  7 24  1  0  0  0  0
  8  9  1  0  0  0  0
  8 25  1  0  0  0  0
  8 26  1  0  0  0  0
  9 10  1  0  0  0  0
  9 27  1  0  0  0  0
  9 28  1  0  0  0  0
 10 11  1  0  0  0  0
 11 29  1  0  0  0  0
 11 30  1  0  0  0  0
 12 16  1  0  0  0  0
 12 13  1  0  0  0  0
 13 14  2  0  0  0  0
 13 31  1  0  0  0  0
 14 15  1  0  0  0  0
 14 32  1  0  0  0  0
 15 16  2  0  0  0  0
 15 33  1  0  0  0  0
M  END
> <s_m_source_file>
AV-unprocessed.smi

> <i_m_source_file_index>
1561

> <i_lp_mmshare_version>
43012

> <i_f3d_flags>
0

> <s_epik_input>
bjFbY0hdW2NIXVtjSF1uMVtDQEhdKFtDSDNdKUMoPU8pW05IXVtDSDJdW0NAQEhdMltDSDJdW0NIMl1PW0NIMl0y

> <s_epik_cmdline>
J2VwaWtfcHl0aG9uJywgJy1waCcsICc3LjAnLCAnLXRuJywgJzgnLCAnLW1hJywgJzIwMCcsICctbWV0YWxfYmluZGluZycsICctaW1hZScsICc8aW5maWxlLm1hZT4nLCAnLW9tYWUnLCAnPG91dGZpbGUubWFlPic=

> <r_lp_tautomer_probability>
1

> <r_epik_Ionization_Penalty>
3.82077e-05

> <r_epik_Ionization_Penalty_Charging>
0

> <r_epik_Ionization_Penalty_Neutral>
3.82077e-05

> <r_epik_State_Penalty>
-0

> <r_epik_Charging_Adjusted_Penalty>
0

> <i_epik_Tot_Q>
0

> <i_epik_Tot_abs_Q>
0

> <r_epik_Metal_State_Penalty>
-0

> <b_epik_Metal_Only>
0

> <s_lp_Force_Field>
OPLS_2005

> <r_lp_Energy>
22.2594

> <b_lp_Chiralities_Consistent>
1

> <s_lp_Variant>
AV-unprocessed.smi:1561-1

> <Gold.Version>
5.8.1

> <Gold.Id.Protein>
6NUR|6NUR_protein|mol2

> <Gold.PLP.Fitness>
42.9628

> <Gold.PLP.PLP>
-41.3983

> <Gold.PLP.part.hbond>
-1.0000

> <Gold.PLP.part.metal>
0.0000

> <Gold.PLP.part.buried>
-5.2653

> <Gold.PLP.part.nonpolar>
-37.2833

> <Gold.PLP.part.repulsive>
1.9877

> <Gold.PLP.ligand.clash>
0.0000

> <Gold.PLP.ligand.torsion>
0.7738

> <Gold.PLP.Chemscore.Hbond>
1.0000

> <Gold.PLP.Chemscore.CHOScore>
0.0000

> <Gold.PLP.Chemscore.Metal>
0.0000

> <Gold.Chemscore.Hbonds>
donor molecule, donor type, donor heavy atom, donor atom, acceptor molecule, acceptor atom, score
      P1  H  7989  7998       L1    10  0.63

> <Gold.PLP.Chemscore.Internal.Correction>
0.1121

> <Gold.Rescore>
     Score         DG    S(hbond)    S(metal)    S(lipo)     H(rot)  DE(clash)    DE(int)     intcor
     11.95     -15.07       0.92        0.00      91.08       1.61       0.61       2.51       ----

> <Gold.Chemscore.Fitness>
11.9492

> <Gold.Chemscore.DG>
-15.0734

> <Gold.Chemscore.ZeroCoef>
-5.4800

> <Gold.Chemscore.Hbond>
0.9153

> <Gold.Chemscore.Metal>
0.0000

> <Gold.Chemscore.Lipo>
91.0798

> <Gold.Chemscore.Internal_Hbond>
0.0000

> <Gold.Chemscore.DEClash>
0.6108

> <Gold.Chemscore.DEInternal>
2.5135

> <Gold.Chemscore.Rot>
1.6094

> <Gold.Chemscore.Internal.Correction>
   9.000000E+99

> <Gold.Chemscore.Hbonds>
donor molecule, donor type, donor heavy atom, donor atom, acceptor molecule, acceptor atom, score
      P1  H  7989  7998       L1    10  0.53

> <Gold.Chemscore.Hbond.Weighted>
-3.0572

> <Gold.Chemscore.Metal.Weighted>
-0.0000

> <Gold.Chemscore.Lipo.Weighted>
-10.6563

> <Gold.Chemscore.Internal_Hbond.Weighted>
0.0000

> <Gold.Chemscore.DEClash.Weighted>
0.6108

> <Gold.Chemscore.DEInternal.Weighted>
2.5135

> <Gold.Chemscore.Rot.Weighted>
4.1201

> <Gold.Chemscore.Internal.Correction.Weighted>
   9.000000E+99

> <Gold.Protein.RotatedTorsions>
[ 6907 6896 6895 6894 ] final  123.18 input  -60.11 | X-H torsion
[ 7974 7965 7964 7962 ] final -175.30 input  175.53 | X-H torsion
[ 8008 7997 7996 7995 ] final -168.55 input   59.86 | X-H torsion
[ 10167 10162 10161 10158 ] final -123.60 input  -65.29 | X-H torsion
[ 10718 10713 10712 10709 ] final   28.66 input   66.30 | X-H torsion
[ 10763 10752 10751 10750 ] final  139.48 input  -60.55 | X-H torsion
[ 11005 11000 10999 10996 ] final   84.82 input  -57.11 | X-H torsion

> <Gold.Protein.ActiveResidues>
 VAL166  LYS551  ARG553  GLY616  TRP617  ASP618  TYR619  PRO620  LYS621  CYS622 
 ASP623  PHE694  ASN695  SER759  ASP760  ASP761  ALA762  ILE779  LEU786  VAL792 
 PHE793  MET794  SER795  GLU796  ALA797  LYS798  CYS799  TRP800  GLU811  SER814 

> <Gold.Protein.RotatedAtoms>
  152.4183  133.7074  159.6458 H   0  0  0  0  0  0  0  0  0  0  0  0  # atno 6907 bound_to 6896
  150.8059  133.8500  159.3211 H   0  0  0  0  0  0  0  0  0  0  0  0  # atno 6908 bound_to 6896
  151.6224  135.1033  160.0156 H   0  0  0  0  0  0  0  0  0  0  0  0  # atno 6909 bound_to 6896
  144.7128  140.1342  143.6396 H   0  0  0  0  0  0  0  0  0  0  0  0  # atno 7974 bound_to 7965
  155.8930  140.1028  157.1405 H   0  0  0  0  0  0  0  0  0  0  0  0  # atno 8008 bound_to 7997
  154.4017  140.1307  156.4403 H   0  0  0  0  0  0  0  0  0  0  0  0  # atno 8009 bound_to 7997
  155.7512  140.3465  155.5153 H   0  0  0  0  0  0  0  0  0  0  0  0  # atno 8010 bound_to 7997
  140.0018  143.5533  152.2300 H   0  0  0  0  0  0  0  0  0  0  0  0  # atno 10167 bound_to 10162
  157.2364  130.7048  149.6338 H   0  0  0  0  0  0  0  0  0  0  0  0  # atno 10718 bound_to 10713
  153.9068  135.3015  155.3448 H   0  0  0  0  0  0  0  0  0  0  0  0  # atno 10763 bound_to 10752
  154.7643  135.4918  153.9527 H   0  0  0  0  0  0  0  0  0  0  0  0  # atno 10764 bound_to 10752
  153.1214  135.6783  153.9430 H   0  0  0  0  0  0  0  0  0  0  0  0  # atno 10765 bound_to 10752
  139.8989  134.8243  156.2498 H   0  0  0  0  0  0  0  0  0  0  0  0  # atno 11005 bound_to 11000
  145.9260  139.2575  143.1353 LP  0  0  0  0  0  0  0  0  0  0  0  0  # atno 17320 bound_to 7965
  145.9572  140.8864  143.0229 LP  0  0  0  0  0  0  0  0  0  0  0  0  # atno 17321 bound_to 7965
  139.6266  144.7638  151.2624 LP  0  0  0  0  0  0  0  0  0  0  0  0  # atno 17342 bound_to 10162
  140.7416  143.6552  150.8213 LP  0  0  0  0  0  0  0  0  0  0  0  0  # atno 17343 bound_to 10162
  155.9672  130.4472  150.5571 LP  0  0  0  0  0  0  0  0  0  0  0  0  # atno 17370 bound_to 10713
  157.3424  131.0719  151.1777 LP  0  0  0  0  0  0  0  0  0  0  0  0  # atno 17371 bound_to 10713
  141.0231  133.7030  156.1302 LP  0  0  0  0  0  0  0  0  0  0  0  0  # atno 17394 bound_to 11000
  140.7204  134.4364  157.5575 LP  0  0  0  0  0  0  0  0  0  0  0  0  # atno 17395 bound_to 11000

$$$$
