AV-unprocessed.smi:24|AV-procd|sdf|177|dock8
  -GOLD-   2262015433D 1   1.00000     0.00000
 Structure written by MMmdl.
 61 65  0  0  0  0  0  0  0  0  1 V2000
  152.5995  140.7981  158.5147 C   0  0  0  0  0  0  0  0  0  0  0  0
  152.5066  140.2023  157.2291 O   0  0  0  0  0  0  0  0  0  0  0  0
  151.3295  140.3530  156.5278 C   0  0  0  0  0  0  0  0  0  0  0  0
  151.1850  139.5957  155.3479 C   0  0  0  0  0  0  0  0  0  0  0  0
  150.0154  139.6868  154.5703 C   0  0  0  0  0  0  0  0  0  0  0  0
  148.9667  140.5490  154.9586 C   0  0  0  0  0  0  0  0  0  0  0  0
  147.6821  140.6622  154.1384 C   0  0  2  0  0  0  0  0  0  0  0  0
  147.3370  142.1176  153.8113 C   0  0  0  0  0  0  0  0  0  0  0  0
  145.9730  142.2442  154.4022 C   0  0  0  0  0  0  0  0  0  0  0  0
  145.2180  143.5157  154.3521 C   0  0  0  0  0  0  0  0  0  0  0  0
  145.3001  144.3271  153.1973 C   0  0  0  0  0  0  0  0  0  0  0  0
  144.5860  145.5404  153.1510 C   0  0  0  0  0  0  0  0  0  0  0  0
  143.7978  145.9400  154.2484 C   0  0  0  0  0  0  0  0  0  0  0  0
  143.7195  145.1280  155.3973 C   0  0  0  0  0  0  0  0  0  0  0  0
  144.4283  143.9119  155.4552 C   0  0  0  0  0  0  0  0  0  0  0  0
  145.5413  141.1658  154.9434 N   0  0  0  0  0  0  0  0  0  0  0  0
  146.4693  140.1846  154.8163 N   0  0  0  0  0  0  0  0  0  0  0  0
  146.2443  138.9021  155.1788 C   0  0  0  0  0  0  0  0  0  0  0  0
  145.2185  138.5634  155.7719 O   0  0  0  0  0  0  0  0  0  0  0  0
  147.3188  137.8482  154.8370 C   0  0  0  0  0  0  0  0  0  0  0  0
  146.7563  136.5566  154.3849 N   0  0  0  0  0  0  0  0  0  0  0  0
  147.0183  135.3997  155.1588 C   0  0  0  0  0  0  0  0  0  0  0  0
  147.7080  135.4546  156.1783 O   0  0  0  0  0  0  0  0  0  0  0  0
  146.4185  134.1663  154.6661 C   0  0  0  0  0  0  0  0  0  0  0  0
  146.5667  133.0285  155.3654 F   0  0  0  0  0  0  0  0  0  0  0  0
  145.6985  134.1507  153.5259 C   0  0  0  0  0  0  0  0  0  0  0  0
  145.4978  135.2768  152.7441 N   0  0  0  0  0  0  0  0  0  0  0  0
  144.6272  135.2662  151.4960 C   0  0  1  0  0  0  0  0  0  0  0  0
  144.9950  134.1796  150.4774 C   0  0  0  0  0  0  0  0  0  0  0  0
  144.0300  133.0447  150.8107 C   0  0  0  0  0  0  0  0  0  0  0  0
  143.1666  133.5874  151.9549 C   0  0  0  0  0  0  0  0  0  0  0  0
  143.3149  134.9985  151.8748 O   0  0  0  0  0  0  0  0  0  0  0  0
  145.9989  136.5212  153.1896 C   0  0  0  0  0  0  0  0  0  0  0  0
  145.7865  137.5515  152.5465 O   0  0  0  0  0  0  0  0  0  0  0  0
  149.1017  141.3035  156.1415 C   0  0  0  0  0  0  0  0  0  0  0  0
  150.2716  141.2106  156.9204 C   0  0  0  0  0  0  0  0  0  0  0  0
  153.5848  140.5953  158.9344 H   0  0  0  0  0  0  0  0  0  0  0  0
  151.8578  140.3851  159.1996 H   0  0  0  0  0  0  0  0  0  0  0  0
  152.4804  141.8810  158.4622 H   0  0  0  0  0  0  0  0  0  0  0  0
  151.9802  138.9350  155.0353 H   0  0  0  0  0  0  0  0  0  0  0  0
  149.9309  139.0890  153.6747 H   0  0  0  0  0  0  0  0  0  0  0  0
  147.8007  140.0988  153.2107 H   0  0  0  0  0  0  0  0  0  0  0  0
  148.0290  142.8235  154.2732 H   0  0  0  0  0  0  0  0  0  0  0  0
  147.3230  142.2930  152.7350 H   0  0  0  0  0  0  0  0  0  0  0  0
  145.8993  144.0380  152.3459 H   0  0  0  0  0  0  0  0  0  0  0  0
  144.6436  146.1660  152.2725 H   0  0  0  0  0  0  0  0  0  0  0  0
  143.2522  146.8715  154.2092 H   0  0  0  0  0  0  0  0  0  0  0  0
  143.1147  145.4395  156.2362 H   0  0  0  0  0  0  0  0  0  0  0  0
  144.3529  143.3081  156.3473 H   0  0  0  0  0  0  0  0  0  0  0  0
  147.9835  138.2549  154.0728 H   0  0  0  0  0  0  0  0  0  0  0  0
  147.9640  137.7158  155.7069 H   0  0  0  0  0  0  0  0  0  0  0  0
  145.2620  133.2076  153.2381 H   0  0  0  0  0  0  0  0  0  0  0  0
  144.7260  136.2637  151.0648 H   0  0  0  0  0  0  0  0  0  0  0  0
  144.7765  134.5624  149.4800 H   0  0  0  0  0  0  0  0  0  0  0  0
  146.0518  133.9153  150.5035 H   0  0  0  0  0  0  0  0  0  0  0  0
  143.4140  132.8110  149.9419 H   0  0  0  0  0  0  0  0  0  0  0  0
  144.5503  132.1327  151.1040 H   0  0  0  0  0  0  0  0  0  0  0  0
  142.1209  133.2934  151.8645 H   0  0  0  0  0  0  0  0  0  0  0  0
  143.5315  133.2340  152.9201 H   0  0  0  0  0  0  0  0  0  0  0  0
  148.3050  141.9611  156.4570 H   0  0  0  0  0  0  0  0  0  0  0  0
  150.3324  141.8088  157.8165 H   0  0  0  0  0  0  0  0  0  0  0  0
  1  2  1  0  0  0  0
  1 37  1  0  0  0  0
  1 38  1  0  0  0  0
  1 39  1  0  0  0  0
  2  3  1  0  0  0  0
  3 36  1  0  0  0  0
  3  4  2  0  0  0  0
  4  5  1  0  0  0  0
  4 40  1  0  0  0  0
  5  6  2  0  0  0  0
  5 41  1  0  0  0  0
  6  7  1  0  0  0  0
  6 35  1  0  0  0  0
  7 17  1  0  0  0  0
  7  8  1  0  0  0  0
  7 42  1  0  0  0  0
  8  9  1  0  0  0  0
  8 43  1  0  0  0  0
  8 44  1  0  0  0  0
  9 10  1  0  0  0  0
  9 16  2  0  0  0  0
 10 15  1  0  0  0  0
 10 11  2  0  0  0  0
 11 12  1  0  0  0  0
 11 45  1  0  0  0  0
 12 13  2  0  0  0  0
 12 46  1  0  0  0  0
 13 14  1  0  0  0  0
 13 47  1  0  0  0  0
 14 15  2  0  0  0  0
 14 48  1  0  0  0  0
 15 49  1  0  0  0  0
 16 17  1  0  0  0  0
 17 18  1  0  0  0  0
 18 19  2  0  0  0  0
 18 20  1  0  0  0  0
 20 21  1  0  0  0  0
 20 50  1  0  0  0  0
 20 51  1  0  0  0  0
 21 33  1  0  0  0  0
 21 22  1  0  0  0  0
 22 23  2  0  0  0  0
 22 24  1  0  0  0  0
 24 25  1  0  0  0  0
 24 26  2  0  0  0  0
 26 27  1  0  0  0  0
 26 52  1  0  0  0  0
 27 28  1  0  0  0  0
 27 33  1  0  0  0  0
 28 32  1  0  0  0  0
 28 29  1  0  0  0  0
 28 53  1  0  0  0  0
 29 30  1  0  0  0  0
 29 54  1  0  0  0  0
 29 55  1  0  0  0  0
 30 31  1  0  0  0  0
 30 56  1  0  0  0  0
 30 57  1  0  0  0  0
 31 32  1  0  0  0  0
 31 58  1  0  0  0  0
 31 59  1  0  0  0  0
 33 34  2  0  0  0  0
 35 36  2  0  0  0  0
 35 60  1  0  0  0  0
 36 61  1  0  0  0  0
M  END
> <s_m_source_file>
AV-unprocessed.smi

> <i_m_source_file_index>
24

> <i_lp_mmshare_version>
43012

> <i_f3d_flags>
0

> <s_epik_input>
W0NIM11PYzFbY0hdW2NIXWMoW2NIXVtjSF0xKVtDQEBIXTJbQ0gyXUMoYzNbY0hdW2NIXVtjSF1bY0hdW2NIXTMpPU5OMkMoPU8pW0NIMl1uNGMoPU8pYyhGKVtjSF1uKGM0PU8pW0NAQEhdNVtDSDJdW0NIMl1bQ0gyXU81

> <s_epik_cmdline>
J2VwaWtfcHl0aG9uJywgJy1waCcsICc3LjAnLCAnLXRuJywgJzgnLCAnLW1hJywgJzIwMCcsICctbWV0YWxfYmluZGluZycsICctaW1hZScsICc8aW5maWxlLm1hZT4nLCAnLW9tYWUnLCAnPG91dGZpbGUubWFlPic=

> <r_lp_tautomer_probability>
1

> <r_epik_Ionization_Penalty>
1.46326e-08

> <r_epik_Ionization_Penalty_Charging>
4.53232e-09

> <r_epik_Ionization_Penalty_Neutral>
1.01002e-08

> <r_epik_State_Penalty>
-0

> <r_epik_Charging_Adjusted_Penalty>
4.53232e-09

> <i_epik_Tot_Q>
0

> <i_epik_Tot_abs_Q>
0

> <r_epik_Metal_State_Penalty>
-0

> <b_epik_Metal_Only>
0

> <s_epik_Chemistry_Notes>
This compound has an imine and may undergo hydrolysis. This compound contains an acetal/aminal-like group ( X-CH(R)-Y where X, Y are N, S, or O) that may be acid/base labile, releasing an aldehyde.

> <s_lp_Force_Field>
OPLS_2005

> <r_lp_Energy>
47.9394

> <b_lp_Chiralities_Consistent>
1

> <s_lp_Variant>
AV-unprocessed.smi:24-3

> <Gold.Version>
5.8.1

> <Gold.Id.Protein>
6NUR|6NUR_protein|mol2

> <Gold.PLP.Fitness>
53.0483

> <Gold.PLP.PLP>
-52.2359

> <Gold.PLP.part.hbond>
-1.0000

> <Gold.PLP.part.metal>
0.0000

> <Gold.PLP.part.buried>
-5.4821

> <Gold.PLP.part.nonpolar>
-46.8353

> <Gold.PLP.part.repulsive>
0.6562

> <Gold.PLP.ligand.clash>
0.0000

> <Gold.PLP.ligand.torsion>
1.1961

> <Gold.PLP.Chemscore.Hbond>
1.0000

> <Gold.PLP.Chemscore.CHOScore>
0.0000

> <Gold.PLP.Chemscore.Metal>
0.0000

> <Gold.Chemscore.Hbonds>
donor molecule, donor type, donor heavy atom, donor atom, acceptor molecule, acceptor atom, score
      P1  H  7997  8010       L1     2  1.00

> <Gold.PLP.Chemscore.Internal.Correction>
0.2045

> <Gold.Rescore>
     Score         DG    S(hbond)    S(metal)    S(lipo)     H(rot)  DE(clash)    DE(int)     intcor
     13.99     -17.53       0.74        0.00     125.03       1.98       0.35       3.20       ----

> <Gold.Chemscore.Fitness>
13.9932

> <Gold.Chemscore.DG>
-17.5343

> <Gold.Chemscore.ZeroCoef>
-5.4800

> <Gold.Chemscore.Hbond>
0.7431

> <Gold.Chemscore.Metal>
0.0000

> <Gold.Chemscore.Lipo>
125.0294

> <Gold.Chemscore.Internal_Hbond>
0.0000

> <Gold.Chemscore.DEClash>
0.3457

> <Gold.Chemscore.DEInternal>
3.1955

> <Gold.Chemscore.Rot>
1.9750

> <Gold.Chemscore.Internal.Correction>
   9.000000E+99

> <Gold.Chemscore.Hbonds>
donor molecule, donor type, donor heavy atom, donor atom, acceptor molecule, acceptor atom, score
      P1  H  7997  8010       L1     2  0.24

> <Gold.Chemscore.Hbond.Weighted>
-2.4819

> <Gold.Chemscore.Metal.Weighted>
-0.0000

> <Gold.Chemscore.Lipo.Weighted>
-14.6284

> <Gold.Chemscore.Internal_Hbond.Weighted>
0.0000

> <Gold.Chemscore.DEClash.Weighted>
0.3457

> <Gold.Chemscore.DEInternal.Weighted>
3.1955

> <Gold.Chemscore.Rot.Weighted>
5.0561

> <Gold.Chemscore.Internal.Correction.Weighted>
   9.000000E+99

> <Gold.Protein.RotatedTorsions>
[ 6907 6896 6895 6894 ] final  123.52 input  -60.11 | X-H torsion
[ 7974 7965 7964 7962 ] final  -26.13 input  175.53 | X-H torsion
[ 8008 7997 7996 7995 ] final   52.23 input   59.86 | X-H torsion
[ 10167 10162 10161 10158 ] final   80.69 input  -65.29 | X-H torsion
[ 10718 10713 10712 10709 ] final  175.53 input   66.30 | X-H torsion
[ 10763 10752 10751 10750 ] final  -18.64 input  -60.55 | X-H torsion
[ 11005 11000 10999 10996 ] final -102.80 input  -57.11 | X-H torsion

> <Gold.Protein.ActiveResidues>
 VAL166  LYS551  ARG553  GLY616  TRP617  ASP618  TYR619  PRO620  LYS621  CYS622 
 ASP623  PHE694  ASN695  SER759  ASP760  ASP761  ALA762  ILE779  LEU786  VAL792 
 PHE793  MET794  SER795  GLU796  ALA797  LYS798  CYS799  TRP800  GLU811  SER814 

> <Gold.Protein.RotatedAtoms>
  152.4155  133.7031  159.6434 H   0  0  0  0  0  0  0  0  0  0  0  0  # atno 6907 bound_to 6896
  150.8032  133.8548  159.3224 H   0  0  0  0  0  0  0  0  0  0  0  0  # atno 6908 bound_to 6896
  151.6279  135.1028  160.0167 H   0  0  0  0  0  0  0  0  0  0  0  0  # atno 6909 bound_to 6896
  146.1446  140.4978  142.8637 H   0  0  0  0  0  0  0  0  0  0  0  0  # atno 7974 bound_to 7965
  155.4484  140.3457  155.4298 H   0  0  0  0  0  0  0  0  0  0  0  0  # atno 8008 bound_to 7997
  156.1236  140.1494  156.9199 H   0  0  0  0  0  0  0  0  0  0  0  0  # atno 8009 bound_to 7997
  154.4841  140.0860  156.7426 H   0  0  0  0  0  0  0  0  0  0  0  0  # atno 8010 bound_to 7997
  139.9471  144.6051  150.8196 H   0  0  0  0  0  0  0  0  0  0  0  0  # atno 10167 bound_to 10162
  156.9334  130.9978  151.2982 H   0  0  0  0  0  0  0  0  0  0  0  0  # atno 10718 bound_to 10713
  153.5924  135.7002  153.5418 H   0  0  0  0  0  0  0  0  0  0  0  0  # atno 10763 bound_to 10752
  153.3167  135.4085  155.1382 H   0  0  0  0  0  0  0  0  0  0  0  0  # atno 10764 bound_to 10752
  154.8598  135.3685  154.5456 H   0  0  0  0  0  0  0  0  0  0  0  0  # atno 10765 bound_to 10752
  141.1174  133.8587  157.1405 H   0  0  0  0  0  0  0  0  0  0  0  0  # atno 11005 bound_to 11000
  144.7831  140.5881  143.6592 LP  0  0  0  0  0  0  0  0  0  0  0  0  # atno 17320 bound_to 7965
  145.4968  139.1485  143.3679 LP  0  0  0  0  0  0  0  0  0  0  0  0  # atno 17321 bound_to 7965
  140.7594  143.3128  151.2804 LP  0  0  0  0  0  0  0  0  0  0  0  0  # atno 17342 bound_to 10162
  139.6658  144.0108  152.2722 LP  0  0  0  0  0  0  0  0  0  0  0  0  # atno 17343 bound_to 10162
  157.5832  130.8391  149.8552 LP  0  0  0  0  0  0  0  0  0  0  0  0  # atno 17370 bound_to 10713
  156.0437  130.3733  150.1372 LP  0  0  0  0  0  0  0  0  0  0  0  0  # atno 17371 bound_to 10713
  140.0105  134.9990  157.0385 LP  0  0  0  0  0  0  0  0  0  0  0  0  # atno 17394 bound_to 11000
  140.4607  134.1487  155.7191 LP  0  0  0  0  0  0  0  0  0  0  0  0  # atno 17395 bound_to 11000

$$$$
