AV-unprocessed.smi:3181|AV-procd|sdf|12142|dock7
  -GOLD-   2272017583D 1   1.00000     0.00000
 Structure written by MMmdl.
 42 43  0  0  0  0  0  0  0  0  2 V2000
  149.1305  141.3318  154.9857 C   0  0  0  0  0  0  0  0  0  0  0  0
  150.1657  141.2361  156.1189 C   0  0  1  0  0  0  0  0  0  0  0  0
  151.4583  140.5149  155.6783 C   0  0  0  0  0  0  0  0  0  0  0  0
  151.2187  139.1684  155.1919 N   0  0  0  0  0  0  0  0  0  0  0  0
  152.0730  138.1973  154.8651 C   0  0  0  0  0  0  0  0  0  0  0  0
  151.4841  137.0805  154.4615 N   0  0  0  0  0  0  0  0  0  0  0  0
  150.1758  137.4560  154.5798 C   0  0  0  0  0  0  0  0  0  0  0  0
  149.9620  138.6973  155.0174 N   0  0  0  0  0  0  0  0  0  0  0  0
  150.4850  142.5956  156.6110 N   0  3  0  0  0  0  0  0  0  0  0  0
  150.8108  142.7114  158.0512 C   0  0  1  0  0  0  0  0  0  0  0  0
  151.9811  141.7941  158.4523 C   0  0  0  0  0  0  0  0  0  0  0  0
  152.3399  141.9707  159.9345 C   0  0  0  0  0  0  0  0  0  0  0  0
  152.6759  143.4348  160.2838 C   0  0  2  0  0  0  0  0  0  0  0  0
  153.0370  143.5468  161.7760 C   0  0  0  0  0  0  0  0  0  0  0  0
  151.5117  144.3737  159.8717 C   0  0  1  0  0  0  0  0  0  0  0  0
  151.8149  145.8591  160.1391 C   0  0  0  0  0  0  0  0  0  0  0  0
  151.1524  144.1736  158.3849 C   0  0  0  0  0  0  0  0  0  0  0  0
  148.8084  140.3450  154.6527 H   0  0  0  0  0  0  0  0  0  0  0  0
  149.5346  141.8596  154.1211 H   0  0  0  0  0  0  0  0  0  0  0  0
  148.2387  141.8664  155.3145 H   0  0  0  0  0  0  0  0  0  0  0  0
  149.7046  140.6651  156.9264 H   0  0  0  0  0  0  0  0  0  0  0  0
  151.9526  141.0804  154.8871 H   0  0  0  0  0  0  0  0  0  0  0  0
  152.1685  140.4534  156.5033 H   0  0  0  0  0  0  0  0  0  0  0  0
  153.1461  138.3088  154.9197 H   0  0  0  0  0  0  0  0  0  0  0  0
  149.3571  136.7949  154.3370 H   0  0  0  0  0  0  0  0  0  0  0  0
  151.2452  142.9764  156.0659 H   0  0  0  0  0  0  0  0  0  0  0  0
  149.9236  142.4332  158.6229 H   0  0  0  0  0  0  0  0  0  0  0  0
  151.7273  140.7490  158.2741 H   0  0  0  0  0  0  0  0  0  0  0  0
  152.8546  142.0117  157.8360 H   0  0  0  0  0  0  0  0  0  0  0  0
  151.5070  141.6277  160.5501 H   0  0  0  0  0  0  0  0  0  0  0  0
  153.1857  141.3265  160.1786 H   0  0  0  0  0  0  0  0  0  0  0  0
  153.5602  143.7178  159.7105 H   0  0  0  0  0  0  0  0  0  0  0  0
  152.1742  143.3413  162.4102 H   0  0  0  0  0  0  0  0  0  0  0  0
  153.4118  144.5382  162.0292 H   0  0  0  0  0  0  0  0  0  0  0  0
  153.8202  142.8366  162.0432 H   0  0  0  0  0  0  0  0  0  0  0  0
  150.6344  144.1072  160.4634 H   0  0  0  0  0  0  0  0  0  0  0  0
  152.7293  146.1748  159.6355 H   0  0  0  0  0  0  0  0  0  0  0  0
  151.9295  146.0646  161.2030 H   0  0  0  0  0  0  0  0  0  0  0  0
  151.0042  146.4948  159.7818 H   0  0  0  0  0  0  0  0  0  0  0  0
  151.9854  144.5057  157.7631 H   0  0  0  0  0  0  0  0  0  0  0  0
  150.3054  144.8107  158.1261 H   0  0  0  0  0  0  0  0  0  0  0  0
  149.6668  143.1655  156.4503 H   0  0  0  0  0  0  0  0  0  0  0  0
  1  2  1  0  0  0  0
  1 18  1  0  0  0  0
  1 19  1  0  0  0  0
  1 20  1  0  0  0  0
  2  3  1  0  0  0  0
  2  9  1  0  0  0  0
  2 21  1  0  0  0  0
  3  4  1  0  0  0  0
  3 22  1  0  0  0  0
  3 23  1  0  0  0  0
  4  8  1  0  0  0  0
  4  5  1  0  0  0  0
  5  6  2  0  0  0  0
  5 24  1  0  0  0  0
  6  7  1  0  0  0  0
  7  8  2  0  0  0  0
  7 25  1  0  0  0  0
  9 10  1  0  0  0  0
  9 26  1  0  0  0  0
  9 42  1  0  0  0  0
 10 17  1  0  0  0  0
 10 11  1  0  0  0  0
 10 27  1  0  0  0  0
 11 12  1  0  0  0  0
 11 28  1  0  0  0  0
 11 29  1  0  0  0  0
 12 13  1  0  0  0  0
 12 30  1  0  0  0  0
 12 31  1  0  0  0  0
 13 14  1  0  0  0  0
 13 15  1  0  0  0  0
 13 32  1  0  0  0  0
 14 33  1  0  0  0  0
 14 34  1  0  0  0  0
 14 35  1  0  0  0  0
 15 16  1  0  0  0  0
 15 17  1  0  0  0  0
 15 36  1  0  0  0  0
 16 37  1  0  0  0  0
 16 38  1  0  0  0  0
 16 39  1  0  0  0  0
 17 40  1  0  0  0  0
 17 41  1  0  0  0  0
M  CHG  1   9   1
M  END
> <s_m_source_file>
AV-unprocessed.smi

> <i_m_source_file_index>
3181

> <i_lp_mmshare_version>
43012

> <i_f3d_flags>
0

> <s_epik_input>
bjFbY0hdbltjSF1uMVtDSDJdW0NAQEhdKFtDSDNdKVtOSF1bQ0BASF0yW0NIMl1bQ0gyXVtDQEBIXShbQ0gzXSlbQ0BASF0oW0NIM10pW0NIMl0y

> <s_epik_cmdline>
J2VwaWtfcHl0aG9uJywgJy1waCcsICc3LjAnLCAnLXRuJywgJzgnLCAnLW1hJywgJzIwMCcsICctbWV0YWxfYmluZGluZycsICctaW1hZScsICc8aW5maWxlLm1hZT4nLCAnLW9tYWUnLCAnPG91dGZpbGUubWFlPic=

> <r_lp_tautomer_probability>
1

> <r_epik_Ionization_Penalty>
0.000617007

> <r_epik_Ionization_Penalty_Charging>
0.000616215

> <r_epik_Ionization_Penalty_Neutral>
7.92544e-07

> <r_epik_State_Penalty>
0.000388807

> <r_epik_Charging_Adjusted_Penalty>
0.00100502

> <i_epik_Tot_Q>
1

> <i_epik_Tot_abs_Q>
1

> <r_epik_Metal_State_Penalty>
-0

> <b_epik_Metal_Only>
0

> <s_lp_Force_Field>
OPLS_2005

> <r_lp_Energy>
19.8676

> <b_lp_Chiralities_Consistent>
1

> <s_lp_Variant>
AV-unprocessed.smi:3181-8

> <Gold.Version>
5.8.1

> <Gold.Id.Protein>
6NUR|6NUR_protein|mol2

> <Gold.PLP.Fitness>
54.8743

> <Gold.PLP.PLP>
-43.7620

> <Gold.PLP.part.hbond>
-2.0000

> <Gold.PLP.part.metal>
0.0000

> <Gold.PLP.part.buried>
-2.1054

> <Gold.PLP.part.nonpolar>
-39.1168

> <Gold.PLP.part.repulsive>
0.3773

> <Gold.PLP.ligand.clash>
0.0000

> <Gold.PLP.ligand.torsion>
0.4449

> <Gold.PLP.Chemscore.Hbond>
3.0000

> <Gold.PLP.Chemscore.CHOScore>
0.9861

> <Gold.PLP.Chemscore.Metal>
0.0000

> <Gold.Chemscore.Hbonds>
donor molecule, donor type, donor heavy atom, donor atom, acceptor molecule, acceptor atom, score
      L1  H     9    42       P1  8028  1.95
      P1  H 10752 10763       L1     6  0.96
      L1  C     7    25       P1  7948  0.71

> <Gold.PLP.Chemscore.Internal.Correction>
0.0436

> <Gold.Rescore>
     Score         DG    S(hbond)    S(metal)    S(lipo)     H(rot)  DE(clash)    DE(int)     intcor
     16.56     -18.80       1.94        0.00     104.50       2.11       1.38       0.86       ----

> <Gold.Chemscore.Fitness>
16.5614

> <Gold.Chemscore.DG>
-18.8020

> <Gold.Chemscore.ZeroCoef>
-5.4800

> <Gold.Chemscore.Hbond>
1.9447

> <Gold.Chemscore.Metal>
0.0000

> <Gold.Chemscore.Lipo>
104.5035

> <Gold.Chemscore.Internal_Hbond>
0.0000

> <Gold.Chemscore.DEClash>
1.3794

> <Gold.Chemscore.DEInternal>
0.8612

> <Gold.Chemscore.Rot>
2.1095

> <Gold.Chemscore.Internal.Correction>
   9.000000E+99

> <Gold.Chemscore.Hbonds>
donor molecule, donor type, donor heavy atom, donor atom, acceptor molecule, acceptor atom, score
      L1  H     9    42       P1  8028  0.93
      P1  H 10752 10763       L1     6  0.50

> <Gold.Chemscore.Hbond.Weighted>
-6.4954

> <Gold.Chemscore.Metal.Weighted>
-0.0000

> <Gold.Chemscore.Lipo.Weighted>
-12.2269

> <Gold.Chemscore.Internal_Hbond.Weighted>
0.0000

> <Gold.Chemscore.DEClash.Weighted>
1.3794

> <Gold.Chemscore.DEInternal.Weighted>
0.8612

> <Gold.Chemscore.Rot.Weighted>
5.4003

> <Gold.Chemscore.Internal.Correction.Weighted>
   9.000000E+99

> <Gold.Protein.RotatedTorsions>
[ 6907 6896 6895 6894 ] final  143.04 input  -60.11 | X-H torsion
[ 7974 7965 7964 7962 ] final  -62.79 input  175.53 | X-H torsion
[ 8008 7997 7996 7995 ] final -176.63 input   59.86 | X-H torsion
[ 10167 10162 10161 10158 ] final -176.90 input  -65.29 | X-H torsion
[ 10718 10713 10712 10709 ] final   -2.36 input   66.30 | X-H torsion
[ 10763 10752 10751 10750 ] final   52.58 input  -60.55 | X-H torsion
[ 11005 11000 10999 10996 ] final   -4.62 input  -57.11 | X-H torsion

> <Gold.Protein.ActiveResidues>
 VAL166  LYS551  ARG553  GLY616  TRP617  ASP618  TYR619  PRO620  LYS621  CYS622 
 ASP623  PHE694  ASN695  SER759  ASP760  ASP761  ALA762  ILE779  LEU786  VAL792 
 PHE793  MET794  SER795  GLU796  ALA797  LYS798  CYS799  TRP800  GLU811  SER814 

> <Gold.Protein.RotatedAtoms>
  152.2113  133.4913  159.5111 H   0  0  0  0  0  0  0  0  0  0  0  0  # atno 6907 bound_to 6896
  150.6991  134.1464  159.4133 H   0  0  0  0  0  0  0  0  0  0  0  0  # atno 6908 bound_to 6896
  151.9383  135.0225  160.0585 H   0  0  0  0  0  0  0  0  0  0  0  0  # atno 6909 bound_to 6896
  145.7870  140.8731  143.0301 H   0  0  0  0  0  0  0  0  0  0  0  0  # atno 7974 bound_to 7965
  155.9972  140.1213  157.0582 H   0  0  0  0  0  0  0  0  0  0  0  0  # atno 8008 bound_to 7997
  154.4230  140.1114  156.5715 H   0  0  0  0  0  0  0  0  0  0  0  0  # atno 8009 bound_to 7997
  155.6262  140.3472  155.4670 H   0  0  0  0  0  0  0  0  0  0  0  0  # atno 8010 bound_to 7997
  139.5507  144.2118  152.1071 H   0  0  0  0  0  0  0  0  0  0  0  0  # atno 10167 bound_to 10162
  156.7920  130.5364  149.5734 H   0  0  0  0  0  0  0  0  0  0  0  0  # atno 10718 bound_to 10713
  152.9789  135.5808  154.4601 H   0  0  0  0  0  0  0  0  0  0  0  0  # atno 10763 bound_to 10752
  154.4178  135.2771  155.1997 H   0  0  0  0  0  0  0  0  0  0  0  0  # atno 10764 bound_to 10752
  154.3759  135.6157  153.5818 H   0  0  0  0  0  0  0  0  0  0  0  0  # atno 10765 bound_to 10752
  140.6822  133.9143  155.8563 H   0  0  0  0  0  0  0  0  0  0  0  0  # atno 11005 bound_to 11000
  144.6787  140.0069  143.7484 LP  0  0  0  0  0  0  0  0  0  0  0  0  # atno 17320 bound_to 7965
  146.0016  139.3096  143.0924 LP  0  0  0  0  0  0  0  0  0  0  0  0  # atno 17321 bound_to 7965
  140.1613  144.5023  150.6631 LP  0  0  0  0  0  0  0  0  0  0  0  0  # atno 17342 bound_to 10162
  140.6768  143.2308  151.5487 LP  0  0  0  0  0  0  0  0  0  0  0  0  # atno 17343 bound_to 10162
  156.1153  130.6070  151.0111 LP  0  0  0  0  0  0  0  0  0  0  0  0  # atno 17370 bound_to 10713
  157.6596  131.0883  150.7869 LP  0  0  0  0  0  0  0  0  0  0  0  0  # atno 17371 bound_to 10713
  141.0308  134.0758  157.4016 LP  0  0  0  0  0  0  0  0  0  0  0  0  # atno 17394 bound_to 11000
  139.8948  135.0138  156.6970 LP  0  0  0  0  0  0  0  0  0  0  0  0  # atno 17395 bound_to 11000

$$$$
