AV-unprocessed.smi:1037|AV-procd|sdf|4520|dock7
  -GOLD-   22720 2533D 1   1.00000     0.00000
 Structure written by MMmdl.
 29 29  0  0  0  0  0  0  0  0  1 V2000
  145.8611  140.9626  154.3236 N   0  0  0  0  0  0  0  0  0  0  0  0
  146.5653  142.0129  154.7513 C   0  0  0  0  0  0  0  0  0  0  0  0
  146.7049  143.0269  154.0691 O   0  0  0  0  0  0  0  0  0  0  0  0
  147.1767  141.9048  156.1543 C   0  0  0  0  0  0  0  0  0  0  0  0
  148.6353  141.9850  156.1489 N   0  0  0  0  0  0  0  0  0  0  0  0
  149.4678  140.9428  156.2972 C   0  0  0  0  0  0  0  0  0  0  0  0
  149.0777  139.7908  156.4932 O   0  0  0  0  0  0  0  0  0  0  0  0
  150.9679  141.2615  156.2316 C   0  0  0  0  0  0  0  0  0  0  0  0
  151.4857  141.8510  157.4781 N   0  0  0  0  0  0  0  0  0  0  0  0
  151.0049  143.1252  157.8290 C   0  0  0  0  0  0  0  0  0  0  0  0
  151.4072  143.7482  158.9448 C   0  0  0  0  0  0  0  0  0  0  0  0
  152.3597  143.0772  159.7953 C   0  0  0  0  0  0  0  0  0  0  0  0
  152.8382  141.8500  159.4857 C   0  0  0  0  0  0  0  0  0  0  0  0
  153.8444  141.1243  160.3760 C   0  0  0  0  0  0  0  0  0  0  0  0
  153.4873  139.8508  160.5472 F   0  0  0  0  0  0  0  0  0  0  0  0
  155.0584  141.1464  159.8246 F   0  0  0  0  0  0  0  0  0  0  0  0
  153.9345  141.6875  161.5819 F   0  0  0  0  0  0  0  0  0  0  0  0
  152.3865  141.1711  158.2538 C   0  0  0  0  0  0  0  0  0  0  0  0
  152.7921  140.0535  157.9300 O   0  0  0  0  0  0  0  0  0  0  0  0
  145.4432  140.9815  153.4046 H   0  0  0  0  0  0  0  0  0  0  0  0
  145.7532  140.1517  154.9153 H   0  0  0  0  0  0  0  0  0  0  0  0
  146.7919  142.7229  156.7633 H   0  0  0  0  0  0  0  0  0  0  0  0
  146.8542  140.9786  156.6333 H   0  0  0  0  0  0  0  0  0  0  0  0
  149.0396  142.8966  155.9917 H   0  0  0  0  0  0  0  0  0  0  0  0
  151.5263  140.3561  155.9858 H   0  0  0  0  0  0  0  0  0  0  0  0
  151.1337  141.9343  155.3892 H   0  0  0  0  0  0  0  0  0  0  0  0
  150.2892  143.5546  157.1432 H   0  0  0  0  0  0  0  0  0  0  0  0
  151.0250  144.7249  159.2031 H   0  0  0  0  0  0  0  0  0  0  0  0
  152.6859  143.5780  160.6945 H   0  0  0  0  0  0  0  0  0  0  0  0
  1  2  1  0  0  0  0
  1 20  1  0  0  0  0
  1 21  1  0  0  0  0
  2  3  2  0  0  0  0
  2  4  1  0  0  0  0
  4  5  1  0  0  0  0
  4 22  1  0  0  0  0
  4 23  1  0  0  0  0
  5  6  1  0  0  0  0
  5 24  1  0  0  0  0
  6  7  2  0  0  0  0
  6  8  1  0  0  0  0
  8  9  1  0  0  0  0
  8 25  1  0  0  0  0
  8 26  1  0  0  0  0
  9 18  1  0  0  0  0
  9 10  1  0  0  0  0
 10 11  2  0  0  0  0
 10 27  1  0  0  0  0
 11 12  1  0  0  0  0
 11 28  1  0  0  0  0
 12 13  2  0  0  0  0
 12 29  1  0  0  0  0
 13 14  1  0  0  0  0
 13 18  1  0  0  0  0
 14 15  1  0  0  0  0
 14 16  1  0  0  0  0
 14 17  1  0  0  0  0
 18 19  2  0  0  0  0
M  END
> <s_m_source_file>
AV-unprocessed.smi

> <i_m_source_file_index>
1037

> <i_lp_mmshare_version>
43012

> <i_f3d_flags>
0

> <s_epik_input>
W05IMl1DKD1PKVtDSDJdW05IXUMoPU8pW0NIMl1uMVtjSF1bY0hdW2NIXWMoQyhGKShGKUYpYzE9Tw==

> <s_epik_cmdline>
J2VwaWtfcHl0aG9uJywgJy1waCcsICc3LjAnLCAnLXRuJywgJzgnLCAnLW1hJywgJzIwMCcsICctbWV0YWxfYmluZGluZycsICctaW1hZScsICc8aW5maWxlLm1hZT4nLCAnLW9tYWUnLCAnPG91dGZpbGUubWFlPic=

> <r_lp_tautomer_probability>
1

> <r_epik_Ionization_Penalty>
9.73018e-08

> <r_epik_Ionization_Penalty_Charging>
1.58095e-09

> <r_epik_Ionization_Penalty_Neutral>
9.57208e-08

> <r_epik_State_Penalty>
-0

> <r_epik_Charging_Adjusted_Penalty>
1.58095e-09

> <i_epik_Tot_Q>
0

> <i_epik_Tot_abs_Q>
0

> <r_epik_Metal_State_Penalty>
-0

> <b_epik_Metal_Only>
0

> <s_lp_Force_Field>
OPLS_2005

> <r_lp_Energy>
7.91729

> <b_lp_Chiralities_Consistent>
1

> <s_lp_Variant>
AV-unprocessed.smi:1037-1

> <Gold.Version>
5.8.1

> <Gold.Id.Protein>
6NUR|6NUR_protein|mol2

> <Gold.PLP.Fitness>
46.6003

> <Gold.PLP.PLP>
-36.6877

> <Gold.PLP.part.hbond>
-3.3781

> <Gold.PLP.part.metal>
0.0000

> <Gold.PLP.part.buried>
-4.5470

> <Gold.PLP.part.nonpolar>
-29.2867

> <Gold.PLP.part.repulsive>
0.2634

> <Gold.PLP.ligand.clash>
0.0000

> <Gold.PLP.ligand.torsion>
0.9270

> <Gold.PLP.Chemscore.Hbond>
2.8089

> <Gold.PLP.Chemscore.CHOScore>
1.0000

> <Gold.PLP.Chemscore.Metal>
0.0000

> <Gold.Chemscore.Hbonds>
donor molecule, donor type, donor heavy atom, donor atom, acceptor molecule, acceptor atom, score
      L1  H     1    20       P1 10175  0.78
      L1  H     5    24       P1  8028  1.00
      P1  H  7997  8010       L1    19  0.99
      L1  C    10    27       P1  8028  1.00

> <Gold.PLP.Chemscore.Internal.Correction>
0.3399

> <Gold.Rescore>
     Score         DG    S(hbond)    S(metal)    S(lipo)     H(rot)  DE(clash)    DE(int)     intcor
     12.40     -15.24       2.87        0.00      61.55       2.74       0.40       2.45       ----

> <Gold.Chemscore.Fitness>
12.3953

> <Gold.Chemscore.DG>
-15.2449

> <Gold.Chemscore.ZeroCoef>
-5.4800

> <Gold.Chemscore.Hbond>
2.8704

> <Gold.Chemscore.Metal>
0.0000

> <Gold.Chemscore.Lipo>
61.5479

> <Gold.Chemscore.Internal_Hbond>
0.0000

> <Gold.Chemscore.DEClash>
0.3954

> <Gold.Chemscore.DEInternal>
2.4542

> <Gold.Chemscore.Rot>
2.7435

> <Gold.Chemscore.Internal.Correction>
   9.000000E+99

> <Gold.Chemscore.Hbonds>
donor molecule, donor type, donor heavy atom, donor atom, acceptor molecule, acceptor atom, score
      L1  H     1    20       P1 10175  0.44
      L1  H     5    24       P1  8028  0.95
      P1  H  7997  8010       L1    19  0.79

> <Gold.Chemscore.Hbond.Weighted>
-9.5872

> <Gold.Chemscore.Metal.Weighted>
-0.0000

> <Gold.Chemscore.Lipo.Weighted>
-7.2011

> <Gold.Chemscore.Internal_Hbond.Weighted>
0.0000

> <Gold.Chemscore.DEClash.Weighted>
0.3954

> <Gold.Chemscore.DEInternal.Weighted>
2.4542

> <Gold.Chemscore.Rot.Weighted>
7.0234

> <Gold.Chemscore.Internal.Correction.Weighted>
   9.000000E+99

> <Gold.Protein.RotatedTorsions>
[ 6907 6896 6895 6894 ] final  -58.71 input  -60.11 | X-H torsion
[ 7974 7965 7964 7962 ] final   69.42 input  175.53 | X-H torsion
[ 8008 7997 7996 7995 ] final   55.06 input   59.86 | X-H torsion
[ 10167 10162 10161 10158 ] final  108.63 input  -65.29 | X-H torsion
[ 10718 10713 10712 10709 ] final  -88.73 input   66.30 | X-H torsion
[ 10763 10752 10751 10750 ] final  165.05 input  -60.55 | X-H torsion
[ 11005 11000 10999 10996 ] final  178.73 input  -57.11 | X-H torsion

> <Gold.Protein.ActiveResidues>
 VAL166  LYS551  ARG553  GLY616  TRP617  ASP618  TYR619  PRO620  LYS621  CYS622 
 ASP623  PHE694  ASN695  SER759  ASP760  ASP761  ALA762  ILE779  LEU786  VAL792 
 PHE793  MET794  SER795  GLU796  ALA797  LYS798  CYS799  TRP800  GLU811  SER814 

> <Gold.Protein.RotatedAtoms>
  150.7986  134.7063  159.6578 H   0  0  0  0  0  0  0  0  0  0  0  0  # atno 6907 bound_to 6896
  152.4100  134.6137  160.0042 H   0  0  0  0  0  0  0  0  0  0  0  0  # atno 6908 bound_to 6896
  151.6382  133.3290  159.3160 H   0  0  0  0  0  0  0  0  0  0  0  0  # atno 6909 bound_to 6896
  145.7906  139.2932  143.1212 H   0  0  0  0  0  0  0  0  0  0  0  0  # atno 7974 bound_to 7965
  155.4950  140.3472  155.4361 H   0  0  0  0  0  0  0  0  0  0  0  0  # atno 8008 bound_to 7997
  156.0952  140.1421  156.9568 H   0  0  0  0  0  0  0  0  0  0  0  0  # atno 8009 bound_to 7997
  154.4659  140.0918  156.6996 H   0  0  0  0  0  0  0  0  0  0  0  0  # atno 8010 bound_to 7997
  139.6831  144.7116  151.1481 H   0  0  0  0  0  0  0  0  0  0  0  0  # atno 10167 bound_to 10162
  155.9983  130.4846  150.5064 H   0  0  0  0  0  0  0  0  0  0  0  0  # atno 10718 bound_to 10713
  154.3182  135.2756  155.2532 H   0  0  0  0  0  0  0  0  0  0  0  0  # atno 10763 bound_to 10752
  154.4898  135.5836  153.6454 H   0  0  0  0  0  0  0  0  0  0  0  0  # atno 10764 bound_to 10752
  152.9880  135.6131  154.3365 H   0  0  0  0  0  0  0  0  0  0  0  0  # atno 10765 bound_to 10752
  140.3984  134.6800  157.4547 H   0  0  0  0  0  0  0  0  0  0  0  0  # atno 11005 bound_to 11000
  145.9981  140.8544  143.0032 LP  0  0  0  0  0  0  0  0  0  0  0  0  # atno 17320 bound_to 7965
  144.6782  140.2312  143.7355 LP  0  0  0  0  0  0  0  0  0  0  0  0  # atno 17321 bound_to 7965
  140.7658  143.5670  150.9037 LP  0  0  0  0  0  0  0  0  0  0  0  0  # atno 17342 bound_to 10162
  139.9343  143.6456  152.3069 LP  0  0  0  0  0  0  0  0  0  0  0  0  # atno 17343 bound_to 10162
  157.3042  131.0651  151.2046 LP  0  0  0  0  0  0  0  0  0  0  0  0  # atno 17370 bound_to 10713
  157.3015  130.6845  149.6166 LP  0  0  0  0  0  0  0  0  0  0  0  0  # atno 17371 bound_to 10713
  140.0355  134.6344  155.9050 LP  0  0  0  0  0  0  0  0  0  0  0  0  # atno 17394 bound_to 11000
  141.1866  133.6557  156.5245 LP  0  0  0  0  0  0  0  0  0  0  0  0  # atno 17395 bound_to 11000

$$$$
