AV-unprocessed.smi:2068|AV-procd|sdf|8427|dock5
  -GOLD-   2272011123D 1   1.00000     0.00000
 Structure written by MMmdl.
 33 34  0  0  0  0  0  0  0  0  1 V2000
  145.1026  137.8627  152.0970 N   0  0  0  0  0  0  0  0  0  0  0  0
  146.3593  138.3138  152.0511 C   0  0  0  0  0  0  0  0  0  0  0  0
  146.8882  138.6805  151.0036 O   0  0  0  0  0  0  0  0  0  0  0  0
  147.1327  138.3661  153.3701 C   0  0  0  0  0  0  0  0  0  0  0  0
  147.4224  139.7892  153.7502 C   0  0  0  0  0  0  0  0  0  0  0  0
  146.6556  140.8928  153.4629 C   0  0  0  0  0  0  0  0  0  0  0  0
  147.3568  142.3597  154.0919 S   0  0  0  0  0  0  0  0  0  0  0  0
  148.6831  141.4041  154.7342 C   0  0  0  0  0  0  0  0  0  0  0  0
  149.7531  141.9936  155.4568 N   0  0  0  0  0  0  0  0  0  0  0  0
  150.9496  141.4572  155.7619 C   0  0  0  0  0  0  0  0  0  0  0  0
  151.3185  140.3324  155.4226 O   0  0  0  0  0  0  0  0  0  0  0  0
  151.8902  142.3495  156.5807 C   0  0  0  0  0  0  0  0  0  0  0  0
  151.2569  142.8985  157.8784 C   0  0  2  0  0  0  0  0  0  0  0  0
  151.6050  144.3404  158.1617 C   0  0  0  0  0  0  0  0  0  0  0  0
  152.1162  144.5169  159.3778 C   0  0  0  0  0  0  0  0  0  0  0  0
  152.2149  143.2326  160.1528 C   0  0  0  0  0  0  0  0  0  0  0  0
  151.7377  142.1565  159.1520 C   0  0  0  0  0  0  0  0  0  0  0  0
  148.5755  140.0949  154.4811 N   0  0  0  0  0  0  0  0  0  0  0  0
  144.5597  137.8032  151.2478 H   0  0  0  0  0  0  0  0  0  0  0  0
  144.7032  137.5744  152.9787 H   0  0  0  0  0  0  0  0  0  0  0  0
  146.5482  137.8747  154.1491 H   0  0  0  0  0  0  0  0  0  0  0  0
  148.0548  137.7917  153.2711 H   0  0  0  0  0  0  0  0  0  0  0  0
  145.7243  140.9302  152.9171 H   0  0  0  0  0  0  0  0  0  0  0  0
  149.5879  142.9333  155.7866 H   0  0  0  0  0  0  0  0  0  0  0  0
  152.7767  141.7642  156.8272 H   0  0  0  0  0  0  0  0  0  0  0  0
  152.2336  143.1808  155.9624 H   0  0  0  0  0  0  0  0  0  0  0  0
  150.1697  142.8322  157.8147 H   0  0  0  0  0  0  0  0  0  0  0  0
  151.4310  145.1292  157.4444 H   0  0  0  0  0  0  0  0  0  0  0  0
  152.4220  145.4656  159.7934 H   0  0  0  0  0  0  0  0  0  0  0  0
  153.2407  143.0581  160.4784 H   0  0  0  0  0  0  0  0  0  0  0  0
  151.5719  143.2793  161.0321 H   0  0  0  0  0  0  0  0  0  0  0  0
  150.9388  141.5486  159.5781 H   0  0  0  0  0  0  0  0  0  0  0  0
  152.5618  141.4798  158.9223 H   0  0  0  0  0  0  0  0  0  0  0  0
  1  2  1  0  0  0  0
  1 19  1  0  0  0  0
  1 20  1  0  0  0  0
  2  3  2  0  0  0  0
  2  4  1  0  0  0  0
  4  5  1  0  0  0  0
  4 21  1  0  0  0  0
  4 22  1  0  0  0  0
  5 18  1  0  0  0  0
  5  6  2  0  0  0  0
  6  7  1  0  0  0  0
  6 23  1  0  0  0  0
  7  8  1  0  0  0  0
  8  9  1  0  0  0  0
  8 18  2  0  0  0  0
  9 10  1  0  0  0  0
  9 24  1  0  0  0  0
 10 11  2  0  0  0  0
 10 12  1  0  0  0  0
 12 13  1  0  0  0  0
 12 25  1  0  0  0  0
 12 26  1  0  0  0  0
 13 17  1  0  0  0  0
 13 14  1  0  0  0  0
 13 27  1  0  0  0  0
 14 15  2  0  0  0  0
 14 28  1  0  0  0  0
 15 16  1  0  0  0  0
 15 29  1  0  0  0  0
 16 17  1  0  0  0  0
 16 30  1  0  0  0  0
 16 31  1  0  0  0  0
 17 32  1  0  0  0  0
 17 33  1  0  0  0  0
M  END
> <s_m_source_file>
AV-unprocessed.smi

> <i_m_source_file_index>
2068

> <i_lp_mmshare_version>
43012

> <i_f3d_flags>
0

> <s_epik_input>
W05IMl1DKD1PKVtDSDJdYzFbY0hdc2MobjEpW05IXUMoPU8pW0NIMl1bQ0BASF0yW0NIXT1bQ0hdW0NIMl1bQ0gyXTI=

> <s_epik_cmdline>
J2VwaWtfcHl0aG9uJywgJy1waCcsICc3LjAnLCAnLXRuJywgJzgnLCAnLW1hJywgJzIwMCcsICctbWV0YWxfYmluZGluZycsICctaW1hZScsICc8aW5maWxlLm1hZT4nLCAnLW9tYWUnLCAnPG91dGZpbGUubWFlPic=

> <r_lp_tautomer_probability>
1

> <r_epik_Ionization_Penalty>
0.000253249

> <r_epik_Ionization_Penalty_Charging>
0

> <r_epik_Ionization_Penalty_Neutral>
0.000253249

> <r_epik_State_Penalty>
-0

> <r_epik_Charging_Adjusted_Penalty>
0

> <i_epik_Tot_Q>
0

> <i_epik_Tot_abs_Q>
0

> <r_epik_Metal_State_Penalty>
0.148671

> <b_epik_Metal_Only>
0

> <s_lp_Force_Field>
OPLS_2005

> <r_lp_Energy>
16.3977

> <b_lp_Chiralities_Consistent>
1

> <s_lp_Variant>
AV-unprocessed.smi:2068-1

> <Gold.Version>
5.8.1

> <Gold.Id.Protein>
6NUR|6NUR_protein|mol2

> <Gold.PLP.Fitness>
47.3008

> <Gold.PLP.PLP>
-35.6100

> <Gold.PLP.part.hbond>
-5.0000

> <Gold.PLP.part.metal>
0.0000

> <Gold.PLP.part.buried>
-4.9304

> <Gold.PLP.part.nonpolar>
-26.6309

> <Gold.PLP.part.repulsive>
0.9660

> <Gold.PLP.ligand.clash>
0.0000

> <Gold.PLP.ligand.torsion>
1.1071

> <Gold.PLP.Chemscore.Hbond>
3.6181

> <Gold.PLP.Chemscore.CHOScore>
1.0000

> <Gold.PLP.Chemscore.Metal>
0.0000

> <Gold.Chemscore.Hbonds>
donor molecule, donor type, donor heavy atom, donor atom, acceptor molecule, acceptor atom, score
      L1  H     1    19       P1 10171  0.99
      L1  H     9    24       P1  8028  1.00
      P1  H  7954  7966       L1     3  0.96
      P1  H  7989  7998       L1    11  0.62
      L1  C     6    23       P1 10175  1.00

> <Gold.PLP.Chemscore.Internal.Correction>
0.0507

> <Gold.Rescore>
     Score         DG    S(hbond)    S(metal)    S(lipo)     H(rot)  DE(clash)    DE(int)     intcor
     15.58     -20.11       2.89        0.00      90.74       2.21       2.21       2.32       ----

> <Gold.Chemscore.Fitness>
15.5821

> <Gold.Chemscore.DG>
-20.1070

> <Gold.Chemscore.ZeroCoef>
-5.4800

> <Gold.Chemscore.Hbond>
2.8912

> <Gold.Chemscore.Metal>
0.0000

> <Gold.Chemscore.Lipo>
90.7356

> <Gold.Chemscore.Internal_Hbond>
0.0000

> <Gold.Chemscore.DEClash>
2.2081

> <Gold.Chemscore.DEInternal>
2.3167

> <Gold.Chemscore.Rot>
2.2053

> <Gold.Chemscore.Internal.Correction>
   9.000000E+99

> <Gold.Chemscore.Hbonds>
donor molecule, donor type, donor heavy atom, donor atom, acceptor molecule, acceptor atom, score
      L1  H     1    19       P1 10171  0.94
      L1  H     9    24       P1  8028  0.97
      P1  H  7954  7966       L1     3  0.92
      P1  H  7989  7998       L1    11  0.05

> <Gold.Chemscore.Hbond.Weighted>
-9.6565

> <Gold.Chemscore.Metal.Weighted>
-0.0000

> <Gold.Chemscore.Lipo.Weighted>
-10.6161

> <Gold.Chemscore.Internal_Hbond.Weighted>
0.0000

> <Gold.Chemscore.DEClash.Weighted>
2.2081

> <Gold.Chemscore.DEInternal.Weighted>
2.3167

> <Gold.Chemscore.Rot.Weighted>
5.6456

> <Gold.Chemscore.Internal.Correction.Weighted>
   9.000000E+99

> <Gold.Protein.RotatedTorsions>
[ 6907 6896 6895 6894 ] final -154.11 input  -60.11 | X-H torsion
[ 7974 7965 7964 7962 ] final -114.73 input  175.53 | X-H torsion
[ 8008 7997 7996 7995 ] final  138.81 input   59.86 | X-H torsion
[ 10167 10162 10161 10158 ] final  154.48 input  -65.29 | X-H torsion
[ 10718 10713 10712 10709 ] final   74.94 input   66.30 | X-H torsion
[ 10763 10752 10751 10750 ] final  -23.89 input  -60.55 | X-H torsion
[ 11005 11000 10999 10996 ] final  -58.53 input  -57.11 | X-H torsion

> <Gold.Protein.ActiveResidues>
 VAL166  LYS551  ARG553  GLY616  TRP617  ASP618  TYR619  PRO620  LYS621  CYS622 
 ASP623  PHE694  ASN695  SER759  ASP760  ASP761  ALA762  ILE779  LEU786  VAL792 
 PHE793  MET794  SER795  GLU796  ALA797  LYS798  CYS799  TRP800  GLU811  SER814 

> <Gold.Protein.RotatedAtoms>
  151.2526  133.4342  159.2611 H   0  0  0  0  0  0  0  0  0  0  0  0  # atno 6907 bound_to 6896
  151.0603  134.9732  159.8267 H   0  0  0  0  0  0  0  0  0  0  0  0  # atno 6908 bound_to 6896
  152.5397  134.2477  159.8939 H   0  0  0  0  0  0  0  0  0  0  0  0  # atno 6909 bound_to 6896
  145.1168  140.8645  143.3837 H   0  0  0  0  0  0  0  0  0  0  0  0  # atno 7974 bound_to 7965
  156.2995  140.2384  156.4134 H   0  0  0  0  0  0  0  0  0  0  0  0  # atno 8008 bound_to 7997
  154.8420  140.0428  157.1568 H   0  0  0  0  0  0  0  0  0  0  0  0  # atno 8009 bound_to 7997
  154.9092  140.2988  155.5279 H   0  0  0  0  0  0  0  0  0  0  0  0  # atno 8010 bound_to 7997
  139.4823  144.5183  151.7916 H   0  0  0  0  0  0  0  0  0  0  0  0  # atno 10167 bound_to 10162
  157.6613  130.9702  150.1282 H   0  0  0  0  0  0  0  0  0  0  0  0  # atno 10718 bound_to 10713
  153.6751  135.6970  153.5135 H   0  0  0  0  0  0  0  0  0  0  0  0  # atno 10763 bound_to 10752
  153.2528  135.4269  155.0814 H   0  0  0  0  0  0  0  0  0  0  0  0  # atno 10764 bound_to 10752
  154.8416  135.3535  154.6294 H   0  0  0  0  0  0  0  0  0  0  0  0  # atno 10765 bound_to 10752
  141.1211  133.6612  156.4934 H   0  0  0  0  0  0  0  0  0  0  0  0  # atno 11005 bound_to 11000
  145.0785  139.2977  143.5795 LP  0  0  0  0  0  0  0  0  0  0  0  0  # atno 17320 bound_to 7965
  146.3523  140.0284  142.8652 LP  0  0  0  0  0  0  0  0  0  0  0  0  # atno 17321 bound_to 7965
  140.4694  144.1608  150.5916 LP  0  0  0  0  0  0  0  0  0  0  0  0  # atno 17342 bound_to 10162
  140.4398  143.2531  151.9487 LP  0  0  0  0  0  0  0  0  0  0  0  0  # atno 17343 bound_to 10162
  156.2136  130.3668  149.8641 LP  0  0  0  0  0  0  0  0  0  0  0  0  # atno 17370 bound_to 10713
  156.6513  130.8744  151.3531 LP  0  0  0  0  0  0  0  0  0  0  0  0  # atno 17371 bound_to 10713
  140.4505  134.6933  157.5037 LP  0  0  0  0  0  0  0  0  0  0  0  0  # atno 17394 bound_to 11000
  140.0169  134.6606  155.9296 LP  0  0  0  0  0  0  0  0  0  0  0  0  # atno 17395 bound_to 11000

$$$$
