AV-unprocessed.smi:109|AV-procd|sdf|1057|dock10
  -GOLD-   2262018123D 1   1.00000     0.00000
 Structure written by MMmdl.
 58 61  0  0  0  0  0  0  0  0  1 V2000
  152.7844  139.6103  155.8559 O   0  0  0  0  0  0  0  0  0  0  0  0
  151.6174  138.8277  155.9898 C   0  0  0  0  0  0  0  0  0  0  0  0
  150.7724  139.3473  157.1652 C   0  0  0  0  0  0  0  0  0  0  0  0
  150.5031  140.8730  157.1381 C   0  0  2  0  0  0  0  0  0  0  0  0
  150.3288  141.3163  155.7523 N   0  0  0  0  0  0  0  0  0  0  0  0
  149.1170  141.6293  155.2393 C   0  0  0  0  0  0  0  0  0  0  0  0
  148.8762  141.5797  153.9034 N   0  0  0  0  0  0  0  0  0  0  0  0
  147.6724  141.9094  153.4265 C   0  0  0  0  0  0  0  0  0  0  0  0
  146.5898  142.3073  154.0979 N   0  0  0  0  0  0  0  0  0  0  0  0
  146.8229  142.3538  155.4415 C   0  0  0  0  0  0  0  0  0  0  0  0
  148.0506  142.0311  156.0848 C   0  0  0  0  0  0  0  0  0  0  0  0
  147.9194  142.1957  157.4575 N   0  0  0  0  0  0  0  0  0  0  0  0
  146.6853  142.5954  157.6114 C   0  0  0  0  0  0  0  0  0  0  0  0
  145.9542  142.7163  156.4504 N   0  0  0  0  0  0  0  0  0  0  0  0
  144.5367  143.1665  156.3081 C   0  0  1  0  0  0  0  0  0  0  0  0
  144.4593  144.4852  156.7612 O   0  0  0  0  0  0  0  0  0  0  0  0
  143.5779  145.2337  155.9320 C   0  0  2  0  0  0  0  0  0  0  0  0
  142.1453  145.1117  156.4950 C   0  0  0  0  0  0  0  0  0  0  0  0
  141.2318  145.8375  155.6994 O   0  0  0  0  0  0  0  0  0  0  0  0
  143.8245  144.6150  154.5491 C   0  0  2  0  0  0  0  0  0  0  0  0
  142.8060  144.8550  153.5943 O   0  0  0  0  0  0  0  0  0  0  0  0
  144.0810  143.1365  154.8380 C   0  0  2  0  0  0  0  0  0  0  0  0
  142.9106  142.3549  154.6842 O   0  0  0  0  0  0  0  0  0  0  0  0
  151.6302  141.7095  157.8111 C   0  0  0  0  0  0  0  0  0  0  0  0
  151.8210  141.3805  159.3139 C   0  0  0  0  0  0  0  0  0  0  0  0
  152.9126  142.2411  159.9716 C   0  0  0  0  0  0  0  0  0  0  0  0
  152.6303  143.7377  159.7954 C   0  0  0  0  0  0  0  0  0  0  0  0
  152.4686  144.0836  158.3107 C   0  0  0  0  0  0  0  0  0  0  0  0
  151.3689  143.2305  157.6593 C   0  0  0  0  0  0  0  0  0  0  0  0
  143.9636  142.5027  156.9573 H   0  0  0  0  0  0  0  0  0  0  0  0
  143.8871  146.2796  155.9525 H   0  0  0  0  0  0  0  0  0  0  0  0
  144.7423  145.0480  154.1510 H   0  0  0  0  0  0  0  0  0  0  0  0
  144.8589  142.7333  154.1880 H   0  0  0  0  0  0  0  0  0  0  0  0
  152.5578  140.4153  155.4159 H   0  0  0  0  0  0  0  0  0  0  0  0
  151.0631  138.8718  155.0524 H   0  0  0  0  0  0  0  0  0  0  0  0
  151.9057  137.7891  156.1537 H   0  0  0  0  0  0  0  0  0  0  0  0
  149.8290  138.8054  157.1302 H   0  0  0  0  0  0  0  0  0  0  0  0
  151.2481  139.0751  158.1084 H   0  0  0  0  0  0  0  0  0  0  0  0
  149.5969  141.0592  157.7144 H   0  0  0  0  0  0  0  0  0  0  0  0
  151.1758  141.3613  155.2038 H   0  0  0  0  0  0  0  0  0  0  0  0
  147.5617  141.8479  152.3538 H   0  0  0  0  0  0  0  0  0  0  0  0
  146.2721  142.8164  158.5849 H   0  0  0  0  0  0  0  0  0  0  0  0
  141.8229  144.0742  156.5766 H   0  0  0  0  0  0  0  0  0  0  0  0
  142.1085  145.5337  157.4995 H   0  0  0  0  0  0  0  0  0  0  0  0
  140.3790  145.4385  155.7822 H   0  0  0  0  0  0  0  0  0  0  0  0
  142.7095  144.0818  153.0590 H   0  0  0  0  0  0  0  0  0  0  0  0
  142.6968  142.3236  153.7637 H   0  0  0  0  0  0  0  0  0  0  0  0
  152.5679  141.4792  157.3023 H   0  0  0  0  0  0  0  0  0  0  0  0
  150.8779  141.5202  159.8439 H   0  0  0  0  0  0  0  0  0  0  0  0
  152.1048  140.3388  159.4522 H   0  0  0  0  0  0  0  0  0  0  0  0
  152.9852  142.0004  161.0326 H   0  0  0  0  0  0  0  0  0  0  0  0
  153.8813  141.9977  159.5334 H   0  0  0  0  0  0  0  0  0  0  0  0
  151.7230  144.0072  160.3375 H   0  0  0  0  0  0  0  0  0  0  0  0
  153.4394  144.3245  160.2308 H   0  0  0  0  0  0  0  0  0  0  0  0
  152.2315  145.1422  158.2010 H   0  0  0  0  0  0  0  0  0  0  0  0
  153.4138  143.9227  157.7905 H   0  0  0  0  0  0  0  0  0  0  0  0
  151.3000  143.5091  156.6078 H   0  0  0  0  0  0  0  0  0  0  0  0
  150.4049  143.4823  158.1038 H   0  0  0  0  0  0  0  0  0  0  0  0
  1  2  1  0  0  0  0
  1 34  1  0  0  0  0
  2  3  1  0  0  0  0
  2 35  1  0  0  0  0
  2 36  1  0  0  0  0
  3  4  1  0  0  0  0
  3 37  1  0  0  0  0
  3 38  1  0  0  0  0
  4  5  1  0  0  0  0
  4 24  1  0  0  0  0
  4 39  1  0  0  0  0
  5  6  1  0  0  0  0
  5 40  1  0  0  0  0
  6 11  1  0  0  0  0
  6  7  2  0  0  0  0
  7  8  1  0  0  0  0
  8  9  2  0  0  0  0
  8 41  1  0  0  0  0
  9 10  1  0  0  0  0
 10 14  1  0  0  0  0
 10 11  2  0  0  0  0
 11 12  1  0  0  0  0
 12 13  2  0  0  0  0
 13 14  1  0  0  0  0
 13 42  1  0  0  0  0
 14 15  1  0  0  0  0
 15 30  1  0  0  0  0
 15 22  1  0  0  0  0
 15 16  1  0  0  0  0
 16 17  1  0  0  0  0
 17 31  1  0  0  0  0
 17 18  1  0  0  0  0
 17 20  1  0  0  0  0
 18 19  1  0  0  0  0
 18 43  1  0  0  0  0
 18 44  1  0  0  0  0
 19 45  1  0  0  0  0
 20 32  1  0  0  0  0
 20 21  1  0  0  0  0
 20 22  1  0  0  0  0
 21 46  1  0  0  0  0
 22 33  1  0  0  0  0
 22 23  1  0  0  0  0
 23 47  1  0  0  0  0
 24 29  1  0  0  0  0
 24 25  1  0  0  0  0
 24 48  1  0  0  0  0
 25 26  1  0  0  0  0
 25 49  1  0  0  0  0
 25 50  1  0  0  0  0
 26 27  1  0  0  0  0
 26 51  1  0  0  0  0
 26 52  1  0  0  0  0
 27 28  1  0  0  0  0
 27 53  1  0  0  0  0
 27 54  1  0  0  0  0
 28 29  1  0  0  0  0
 28 55  1  0  0  0  0
 28 56  1  0  0  0  0
 29 57  1  0  0  0  0
 29 58  1  0  0  0  0
M  END
> <s_m_source_file>
AV-unprocessed.smi

> <i_m_source_file_index>
109

> <i_lp_mmshare_version>
43012

> <i_f3d_flags>
0

> <s_epik_input>
W0NIMl0xW0NIMl1bQ0gyXVtDSDJdW0NIMl1bQ0hdMVtDQEhdKFtDSDJdW0NIMl1bT0hdKVtOSF1jKG5bY0hdbjIpYyhjMjMpbltjSF1uM1tDQEBIXTRPW0NASF0oW0NIMl1bT0hdKVtDQEBIXShbT0hdKVtDQEhdNFtPSF0=

> <s_epik_cmdline>
J2VwaWtfcHl0aG9uJywgJy1waCcsICc3LjAnLCAnLXRuJywgJzgnLCAnLW1hJywgJzIwMCcsICctbWV0YWxfYmluZGluZycsICctaW1hZScsICc8aW5maWxlLm1hZT4nLCAnLW9tYWUnLCAnPG91dGZpbGUubWFlPic=

> <r_lp_tautomer_probability>
1

> <r_epik_Ionization_Penalty>
0.000793976

> <r_epik_Ionization_Penalty_Charging>
0

> <r_epik_Ionization_Penalty_Neutral>
0.000793976

> <r_epik_State_Penalty>
-0

> <r_epik_Charging_Adjusted_Penalty>
0

> <i_epik_Tot_Q>
0

> <i_epik_Tot_abs_Q>
0

> <r_epik_Metal_State_Penalty>
-0

> <b_epik_Metal_Only>
0

> <s_epik_Chemistry_Notes>
This compound contains an acetal/aminal-like group ( X-CH(R)-Y where X, Y are N, S, or O) that may be acid/base labile, releasing an aldehyde.

> <s_lp_Force_Field>
OPLS_2005

> <r_lp_Energy>
58.5181

> <b_lp_Chiralities_Consistent>
1

> <s_lp_Variant>
AV-unprocessed.smi:109-27

> <Gold.Version>
5.8.1

> <Gold.Id.Protein>
6NUR|6NUR_protein|mol2

> <Gold.PLP.Fitness>
51.7053

> <Gold.PLP.PLP>
-42.8334

> <Gold.PLP.part.hbond>
-5.3094

> <Gold.PLP.part.metal>
0.0000

> <Gold.PLP.part.buried>
-4.4553

> <Gold.PLP.part.nonpolar>
-33.6848

> <Gold.PLP.part.repulsive>
0.6949

> <Gold.PLP.ligand.clash>
0.2198

> <Gold.PLP.ligand.torsion>
0.6044

> <Gold.PLP.Chemscore.Hbond>
3.3598

> <Gold.PLP.Chemscore.CHOScore>
0.0000

> <Gold.PLP.Chemscore.Metal>
0.0000

> <Gold.Chemscore.Hbonds>
donor molecule, donor type, donor heavy atom, donor atom, acceptor molecule, acceptor atom, score
      L1  H    21    46       P1 10174  1.00
      L1  H    23    47       P1 10174  1.00
      P1  H  7997  8009       L1     1  0.80
      P1  H  8011  8017       L1     7  0.36

> <Gold.PLP.Chemscore.Internal.Correction>
0.2211

> <Gold.Rescore>
     Score         DG    S(hbond)    S(metal)    S(lipo)     H(rot)  DE(clash)    DE(int)     intcor
      6.86     -11.11       2.43        0.00      98.53       5.47       0.79       3.46       ----

> <Gold.Chemscore.Fitness>
6.8645

> <Gold.Chemscore.DG>
-11.1145

> <Gold.Chemscore.ZeroCoef>
-5.4800

> <Gold.Chemscore.Hbond>
2.4250

> <Gold.Chemscore.Metal>
0.0000

> <Gold.Chemscore.Lipo>
98.5325

> <Gold.Chemscore.Internal_Hbond>
0.0000

> <Gold.Chemscore.DEClash>
0.7889

> <Gold.Chemscore.DEInternal>
3.4610

> <Gold.Chemscore.Rot>
5.4662

> <Gold.Chemscore.Internal.Correction>
   9.000000E+99

> <Gold.Chemscore.Hbonds>
donor molecule, donor type, donor heavy atom, donor atom, acceptor molecule, acceptor atom, score
      L1  H    21    46       P1 10174  1.00
      L1  H    23    47       P1 10174  0.34
      P1  H  7997  8009       L1     1  0.12
      P1  H  8011  8017       L1     7  0.02

> <Gold.Chemscore.Hbond.Weighted>
-8.0997

> <Gold.Chemscore.Metal.Weighted>
-0.0000

> <Gold.Chemscore.Lipo.Weighted>
-11.5283

> <Gold.Chemscore.Internal_Hbond.Weighted>
0.0000

> <Gold.Chemscore.DEClash.Weighted>
0.7889

> <Gold.Chemscore.DEInternal.Weighted>
3.4610

> <Gold.Chemscore.Rot.Weighted>
13.9935

> <Gold.Chemscore.Internal.Correction.Weighted>
   9.000000E+99

> <Gold.Protein.RotatedTorsions>
[ 6907 6896 6895 6894 ] final -143.10 input  -60.11 | X-H torsion
[ 7974 7965 7964 7962 ] final   24.34 input  175.53 | X-H torsion
[ 8008 7997 7996 7995 ] final -165.29 input   59.86 | X-H torsion
[ 10167 10162 10161 10158 ] final -176.87 input  -65.29 | X-H torsion
[ 10718 10713 10712 10709 ] final -112.23 input   66.30 | X-H torsion
[ 10763 10752 10751 10750 ] final    0.45 input  -60.55 | X-H torsion
[ 11005 11000 10999 10996 ] final  135.68 input  -57.11 | X-H torsion

> <Gold.Protein.ActiveResidues>
 VAL166  LYS551  ARG553  GLY616  TRP617  ASP618  TYR619  PRO620  LYS621  CYS622 
 ASP623  PHE694  ASN695  SER759  ASP760  ASP761  ALA762  ILE779  LEU786  VAL792 
 PHE793  MET794  SER795  GLU796  ALA797  LYS798  CYS799  TRP800  GLU811  SER814 

> <Gold.Protein.RotatedAtoms>
  151.0960  133.5280  159.2612 H   0  0  0  0  0  0  0  0  0  0  0  0  # atno 6907 bound_to 6896
  151.2129  135.0488  159.8928 H   0  0  0  0  0  0  0  0  0  0  0  0  # atno 6908 bound_to 6896
  152.5438  134.0773  159.8273 H   0  0  0  0  0  0  0  0  0  0  0  0  # atno 6909 bound_to 6896
  146.1942  139.7619  142.8809 H   0  0  0  0  0  0  0  0  0  0  0  0  # atno 7974 bound_to 7965
  155.8478  140.0958  157.1694 H   0  0  0  0  0  0  0  0  0  0  0  0  # atno 8008 bound_to 7997
  154.3984  140.1389  156.3868 H   0  0  0  0  0  0  0  0  0  0  0  0  # atno 8009 bound_to 7997
  155.7995  140.3453  155.5397 H   0  0  0  0  0  0  0  0  0  0  0  0  # atno 8010 bound_to 7997
  139.5508  144.2114  152.1073 H   0  0  0  0  0  0  0  0  0  0  0  0  # atno 10167 bound_to 10162
  156.0693  130.5909  150.8481 H   0  0  0  0  0  0  0  0  0  0  0  0  # atno 10718 bound_to 10713
  153.3206  135.6969  153.7034 H   0  0  0  0  0  0  0  0  0  0  0  0  # atno 10763 bound_to 10752
  153.5876  135.3486  155.2899 H   0  0  0  0  0  0  0  0  0  0  0  0  # atno 10764 bound_to 10752
  154.8596  135.4310  154.2369 H   0  0  0  0  0  0  0  0  0  0  0  0  # atno 10765 bound_to 10752
  139.9996  134.9484  157.0041 H   0  0  0  0  0  0  0  0  0  0  0  0  # atno 11005 bound_to 11000
  145.3696  141.0340  143.3238 LP  0  0  0  0  0  0  0  0  0  0  0  0  # atno 17320 bound_to 7965
  144.8547  139.5268  143.6840 LP  0  0  0  0  0  0  0  0  0  0  0  0  # atno 17321 bound_to 7965
  140.1609  144.5027  150.6633 LP  0  0  0  0  0  0  0  0  0  0  0  0  # atno 17342 bound_to 10162
  140.6770  143.2309  151.5481 LP  0  0  0  0  0  0  0  0  0  0  0  0  # atno 17343 bound_to 10162
  157.5755  131.0946  150.9352 LP  0  0  0  0  0  0  0  0  0  0  0  0  # atno 17370 bound_to 10713
  156.9559  130.5437  149.5284 LP  0  0  0  0  0  0  0  0  0  0  0  0  # atno 17371 bound_to 10713
  140.4754  134.1344  155.7209 LP  0  0  0  0  0  0  0  0  0  0  0  0  # atno 17394 bound_to 11000
  141.1631  133.8755  157.1791 LP  0  0  0  0  0  0  0  0  0  0  0  0  # atno 17395 bound_to 11000

$$$$
