AV-unprocessed.smi:2602|AV-procd|sdf|10184|dock5
  -GOLD-   2272014193D 1   1.00000     0.00000
 Structure written by MMmdl.
 46 47  0  0  0  0  0  0  0  0  1 V2000
  147.9012  131.7074  161.2464 C   0  0  0  0  0  0  0  0  0  0  0  0
  146.8084  132.5714  161.5456 O   0  0  0  0  0  0  0  0  0  0  0  0
  147.0680  133.8677  161.8366 C   0  0  0  0  0  0  0  0  0  0  0  0
  146.7062  134.2411  163.0650 N   0  0  0  0  0  0  0  0  0  0  0  0
  146.9405  135.5263  163.4019 C   0  0  0  0  0  0  0  0  0  0  0  0
  147.5386  136.4337  162.5042 C   0  0  0  0  0  0  0  0  0  0  0  0
  147.8883  135.9431  161.2265 C   0  0  0  0  0  0  0  0  0  0  0  0
  148.4869  136.8801  160.3437 N   0  0  0  0  0  0  0  0  0  0  0  0
  149.0606  136.6419  159.1515 C   0  0  0  0  0  0  0  0  0  0  0  0
  149.1884  135.5322  158.6338 O   0  0  0  0  0  0  0  0  0  0  0  0
  149.4791  137.7803  158.5789 N   0  0  0  0  0  0  0  0  0  0  0  0
  150.1056  137.8975  157.2614 C   0  0  0  0  0  0  0  0  0  0  0  0
  150.6652  139.3270  156.9819 C   0  0  0  0  0  0  0  0  0  0  0  0
  151.5141  139.3882  155.6668 C   0  0  0  0  0  0  0  0  0  0  0  0
  151.1340  140.1427  154.7675 O   0  0  0  0  0  0  0  0  0  0  0  0
  152.6262  138.6257  155.4817 N   0  0  0  0  0  0  0  0  0  0  0  0
  153.1103  137.7805  156.5782 C   0  0  0  0  0  0  0  0  0  0  0  0
  153.4701  138.5329  154.2860 C   0  0  0  0  0  0  0  0  0  0  0  0
  149.4602  140.3079  156.9195 C   0  0  0  0  0  0  0  0  0  0  0  0
  149.9913  141.7044  157.2577 C   0  0  0  0  0  0  0  0  0  0  0  0
  151.2521  141.4693  158.0915 C   0  0  0  0  0  0  0  0  0  0  0  0
  151.4332  139.9472  158.1764 C   0  0  0  0  0  0  0  0  0  0  0  0
  147.6424  134.6480  160.9105 N   0  0  0  0  0  0  0  0  0  0  0  0
  147.5228  130.7079  161.0328 H   0  0  0  0  0  0  0  0  0  0  0  0
  148.5900  131.6274  162.0890 H   0  0  0  0  0  0  0  0  0  0  0  0
  148.4506  132.0472  160.3670 H   0  0  0  0  0  0  0  0  0  0  0  0
  146.6487  135.8348  164.3948 H   0  0  0  0  0  0  0  0  0  0  0  0
  147.7181  137.4599  162.7893 H   0  0  0  0  0  0  0  0  0  0  0  0
  148.4617  137.8422  160.6474 H   0  0  0  0  0  0  0  0  0  0  0  0
  149.3314  138.6426  159.0827 H   0  0  0  0  0  0  0  0  0  0  0  0
  150.9244  137.1778  157.2419 H   0  0  0  0  0  0  0  0  0  0  0  0
  149.4285  137.5470  156.4864 H   0  0  0  0  0  0  0  0  0  0  0  0
  153.2908  138.3759  157.4748 H   0  0  0  0  0  0  0  0  0  0  0  0
  154.0480  137.2784  156.3355 H   0  0  0  0  0  0  0  0  0  0  0  0
  152.3781  137.0088  156.8206 H   0  0  0  0  0  0  0  0  0  0  0  0
  153.0652  138.9844  153.3870 H   0  0  0  0  0  0  0  0  0  0  0  0
  153.6552  137.4865  154.0406 H   0  0  0  0  0  0  0  0  0  0  0  0
  154.4359  139.0007  154.4783 H   0  0  0  0  0  0  0  0  0  0  0  0
  148.9242  140.2929  155.9694 H   0  0  0  0  0  0  0  0  0  0  0  0
  148.7247  140.0362  157.6783 H   0  0  0  0  0  0  0  0  0  0  0  0
  150.2443  142.2469  156.3460 H   0  0  0  0  0  0  0  0  0  0  0  0
  149.2485  142.2961  157.7938 H   0  0  0  0  0  0  0  0  0  0  0  0
  152.1106  141.9254  157.5970 H   0  0  0  0  0  0  0  0  0  0  0  0
  151.1735  141.9143  159.0839 H   0  0  0  0  0  0  0  0  0  0  0  0
  151.0033  139.5887  159.1127 H   0  0  0  0  0  0  0  0  0  0  0  0
  152.4946  139.7117  158.2126 H   0  0  0  0  0  0  0  0  0  0  0  0
  1  2  1  0  0  0  0
  1 24  1  0  0  0  0
  1 25  1  0  0  0  0
  1 26  1  0  0  0  0
  2  3  1  0  0  0  0
  3 23  1  0  0  0  0
  3  4  2  0  0  0  0
  4  5  1  0  0  0  0
  5  6  2  0  0  0  0
  5 27  1  0  0  0  0
  6  7  1  0  0  0  0
  6 28  1  0  0  0  0
  7  8  1  0  0  0  0
  7 23  2  0  0  0  0
  8  9  1  0  0  0  0
  8 29  1  0  0  0  0
  9 10  2  0  0  0  0
  9 11  1  0  0  0  0
 11 12  1  0  0  0  0
 11 30  1  0  0  0  0
 12 13  1  0  0  0  0
 12 31  1  0  0  0  0
 12 32  1  0  0  0  0
 13 22  1  0  0  0  0
 13 14  1  0  0  0  0
 13 19  1  0  0  0  0
 14 15  2  0  0  0  0
 14 16  1  0  0  0  0
 16 17  1  0  0  0  0
 16 18  1  0  0  0  0
 17 33  1  0  0  0  0
 17 34  1  0  0  0  0
 17 35  1  0  0  0  0
 18 36  1  0  0  0  0
 18 37  1  0  0  0  0
 18 38  1  0  0  0  0
 19 20  1  0  0  0  0
 19 39  1  0  0  0  0
 19 40  1  0  0  0  0
 20 21  1  0  0  0  0
 20 41  1  0  0  0  0
 20 42  1  0  0  0  0
 21 22  1  0  0  0  0
 21 43  1  0  0  0  0
 21 44  1  0  0  0  0
 22 45  1  0  0  0  0
 22 46  1  0  0  0  0
M  END
> <s_m_source_file>
AV-unprocessed.smi

> <i_m_source_file_index>
2602

> <i_lp_mmshare_version>
43012

> <i_f3d_flags>
0

> <s_epik_input>
W0NIM11PYzFuW2NIXVtjSF1jKG4xKVtOSF1DKD1PKVtOSF1bQ0gyXUMyKEMoPU8pTihbQ0gzXSlbQ0gzXSlbQ0gyXVtDSDJdW0NIMl1bQ0gyXTI=

> <s_epik_cmdline>
J2VwaWtfcHl0aG9uJywgJy1waCcsICc3LjAnLCAnLXRuJywgJzgnLCAnLW1hJywgJzIwMCcsICctbWV0YWxfYmluZGluZycsICctaW1hZScsICc8aW5maWxlLm1hZT4nLCAnLW9tYWUnLCAnPG91dGZpbGUubWFlPic=

> <r_lp_tautomer_probability>
1

> <r_epik_Ionization_Penalty>
0.00154328

> <r_epik_Ionization_Penalty_Charging>
0

> <r_epik_Ionization_Penalty_Neutral>
0.00154328

> <r_epik_State_Penalty>
-0

> <r_epik_Charging_Adjusted_Penalty>
0

> <i_epik_Tot_Q>
0

> <i_epik_Tot_abs_Q>
0

> <r_epik_Metal_State_Penalty>
-0

> <b_epik_Metal_Only>
0

> <s_lp_Force_Field>
OPLS_2005

> <r_lp_Energy>
36.1441

> <b_lp_Chiralities_Consistent>
1

> <s_lp_Variant>
AV-unprocessed.smi:2602-1

> <Gold.Version>
5.8.1

> <Gold.Id.Protein>
6NUR|6NUR_protein|mol2

> <Gold.PLP.Fitness>
40.9020

> <Gold.PLP.PLP>
-35.1891

> <Gold.PLP.part.hbond>
-2.9368

> <Gold.PLP.part.metal>
0.0000

> <Gold.PLP.part.buried>
-6.6679

> <Gold.PLP.part.nonpolar>
-27.9446

> <Gold.PLP.part.repulsive>
1.6357

> <Gold.PLP.ligand.clash>
0.0000

> <Gold.PLP.ligand.torsion>
0.2381

> <Gold.PLP.Chemscore.Hbond>
2.0000

> <Gold.PLP.Chemscore.CHOScore>
0.0000

> <Gold.PLP.Chemscore.Metal>
0.0000

> <Gold.Chemscore.Hbonds>
donor molecule, donor type, donor heavy atom, donor atom, acceptor molecule, acceptor atom, score
      P1  H  6896  6907       L1    10  0.98
      P1  H  7989  7998       L1    15  1.00

> <Gold.PLP.Chemscore.Internal.Correction>
0.1892

> <Gold.Rescore>
     Score         DG    S(hbond)    S(metal)    S(lipo)     H(rot)  DE(clash)    DE(int)     intcor
     12.86     -14.85       1.95        0.00      66.13       1.91       0.50       1.49       ----

> <Gold.Chemscore.Fitness>
12.8648

> <Gold.Chemscore.DG>
-14.8507

> <Gold.Chemscore.ZeroCoef>
-5.4800

> <Gold.Chemscore.Hbond>
1.9508

> <Gold.Chemscore.Metal>
0.0000

> <Gold.Chemscore.Lipo>
66.1326

> <Gold.Chemscore.Internal_Hbond>
0.0000

> <Gold.Chemscore.DEClash>
0.4959

> <Gold.Chemscore.DEInternal>
1.4900

> <Gold.Chemscore.Rot>
1.9072

> <Gold.Chemscore.Internal.Correction>
   9.000000E+99

> <Gold.Chemscore.Hbonds>
donor molecule, donor type, donor heavy atom, donor atom, acceptor molecule, acceptor atom, score
      P1  H  6896  6907       L1    10  0.83
      P1  H  7989  7998       L1    15  0.94

> <Gold.Chemscore.Hbond.Weighted>
-6.5155

> <Gold.Chemscore.Metal.Weighted>
-0.0000

> <Gold.Chemscore.Lipo.Weighted>
-7.7375

> <Gold.Chemscore.Internal_Hbond.Weighted>
0.0000

> <Gold.Chemscore.DEClash.Weighted>
0.4959

> <Gold.Chemscore.DEInternal.Weighted>
1.4900

> <Gold.Chemscore.Rot.Weighted>
4.8824

> <Gold.Chemscore.Internal.Correction.Weighted>
   9.000000E+99

> <Gold.Protein.RotatedTorsions>
[ 6907 6896 6895 6894 ] final  -85.89 input  -60.11 | X-H torsion
[ 7974 7965 7964 7962 ] final   38.67 input  175.53 | X-H torsion
[ 8008 7997 7996 7995 ] final -116.31 input   59.86 | X-H torsion
[ 10167 10162 10161 10158 ] final   48.46 input  -65.29 | X-H torsion
[ 10718 10713 10712 10709 ] final   37.89 input   66.30 | X-H torsion
[ 10763 10752 10751 10750 ] final  -51.04 input  -60.55 | X-H torsion
[ 11005 11000 10999 10996 ] final  -83.51 input  -57.11 | X-H torsion

> <Gold.Protein.ActiveResidues>
 VAL166  LYS551  ARG553  GLY616  TRP617  ASP618  TYR619  PRO620  LYS621  CYS622 
 ASP623  PHE694  ASN695  SER759  ASP760  ASP761  ALA762  ILE779  LEU786  VAL792 
 PHE793  MET794  SER795  GLU796  ALA797  LYS798  CYS799  TRP800  GLU811  SER814 

> <Gold.Protein.RotatedAtoms>
  150.6868  134.3135  159.4756 H   0  0  0  0  0  0  0  0  0  0  0  0  # atno 6907 bound_to 6896
  152.1019  134.9333  160.0578 H   0  0  0  0  0  0  0  0  0  0  0  0  # atno 6908 bound_to 6896
  152.0609  133.4027  159.4454 H   0  0  0  0  0  0  0  0  0  0  0  0  # atno 6909 bound_to 6896
  146.1043  139.5743  142.9393 H   0  0  0  0  0  0  0  0  0  0  0  0  # atno 7974 bound_to 7965
  155.0658  140.0393  157.2592 H   0  0  0  0  0  0  0  0  0  0  0  0  # atno 8008 bound_to 7997
  154.7022  140.2675  155.6684 H   0  0  0  0  0  0  0  0  0  0  0  0  # atno 8009 bound_to 7997
  156.2764  140.2738  156.1637 H   0  0  0  0  0  0  0  0  0  0  0  0  # atno 8010 bound_to 7997
  140.2931  144.3023  150.6236 H   0  0  0  0  0  0  0  0  0  0  0  0  # atno 10167 bound_to 10162
  157.3524  130.7605  149.6988 H   0  0  0  0  0  0  0  0  0  0  0  0  # atno 10718 bound_to 10713
  154.1202  135.6536  153.4901 H   0  0  0  0  0  0  0  0  0  0  0  0  # atno 10763 bound_to 10752
  153.0228  135.5268  154.7104 H   0  0  0  0  0  0  0  0  0  0  0  0  # atno 10764 bound_to 10752
  154.6310  135.2976  155.0187 H   0  0  0  0  0  0  0  0  0  0  0  0  # atno 10765 bound_to 10752
  141.1657  133.7298  156.8730 H   0  0  0  0  0  0  0  0  0  0  0  0  # atno 11005 bound_to 11000
  145.5791  141.0385  143.2132 LP  0  0  0  0  0  0  0  0  0  0  0  0  # atno 17320 bound_to 7965
  144.7458  139.7323  143.7293 LP  0  0  0  0  0  0  0  0  0  0  0  0  # atno 17321 bound_to 7965
  140.5715  143.2180  151.7590 LP  0  0  0  0  0  0  0  0  0  0  0  0  # atno 17342 bound_to 10162
  139.4933  144.4209  151.9978 LP  0  0  0  0  0  0  0  0  0  0  0  0  # atno 17343 bound_to 10162
  155.9723  130.4137  150.4095 LP  0  0  0  0  0  0  0  0  0  0  0  0  # atno 17370 bound_to 10713
  157.2159  131.0471  151.2573 LP  0  0  0  0  0  0  0  0  0  0  0  0  # atno 17371 bound_to 10713
  140.1768  134.9061  157.2900 LP  0  0  0  0  0  0  0  0  0  0  0  0  # atno 17394 bound_to 11000
  140.2440  134.3762  155.7469 LP  0  0  0  0  0  0  0  0  0  0  0  0  # atno 17395 bound_to 11000

$$$$
