AV-unprocessed.smi:1|AV-procd|sdf|23|dock9
  -GOLD-   2262015133D 1   1.00000     0.00000
 Structure written by MMmdl.
 56 61  0  0  0  0  0  0  0  0  2 V2000
  154.1588  140.0384  159.1861 O   0  0  0  0  0  0  0  0  0  0  0  0
  152.9959  140.4415  159.2571 C   0  0  0  0  0  0  0  0  0  0  0  0
  151.8859  139.8855  158.7094 N   0  5  0  0  0  0  0  0  0  0  0  0
  152.0068  138.9118  157.7951 C   0  0  0  0  0  0  0  0  0  0  0  0
  152.9578  138.9869  156.8292 N   0  0  0  0  0  0  0  0  0  0  0  0
  153.0663  138.0196  155.9105 C   0  0  0  0  0  0  0  0  0  0  0  0
  152.3343  136.9103  155.7674 N   0  0  0  0  0  0  0  0  0  0  0  0
  151.3703  136.8280  156.7309 C   0  0  0  0  0  0  0  0  0  0  0  0
  151.1468  137.7805  157.7664 C   0  0  0  0  0  0  0  0  0  0  0  0
  150.0868  137.3920  158.5731 N   0  0  0  0  0  0  0  0  0  0  0  0
  149.7216  136.2455  158.0038 C   0  0  0  0  0  0  0  0  0  0  0  0
  150.4130  135.8454  156.9186 N   0  0  0  0  0  0  0  0  0  0  0  0
  150.1976  134.6181  156.1034 C   0  0  2  0  0  0  0  0  0  0  0  0
  149.4737  134.9541  154.9656 O   0  0  0  0  0  0  0  0  0  0  0  0
  148.6700  133.8481  154.5599 C   0  0  2  0  0  0  0  0  0  0  0  0
  147.2558  134.3682  154.2752 C   0  0  0  0  0  0  0  0  0  0  0  0
  146.7782  133.7864  153.0732 O   0  0  0  0  0  0  0  0  0  0  0  0
  145.6924  134.2949  152.4600 C   0  0  0  0  0  0  0  0  0  0  0  0
  145.0861  135.2908  152.8603 O   0  0  0  0  0  0  0  0  0  0  0  0
  145.3017  133.5257  151.2432 C   0  0  0  0  0  0  0  0  0  0  0  0
  146.1976  132.5705  150.7088 C   0  0  0  0  0  0  0  0  0  0  0  0
  145.8553  131.8286  149.5613 C   0  0  0  0  0  0  0  0  0  0  0  0
  144.6130  132.0336  148.9336 C   0  0  0  0  0  0  0  0  0  0  0  0
  143.7133  132.9818  149.4544 C   0  0  0  0  0  0  0  0  0  0  0  0
  144.0536  133.7240  150.6021 C   0  0  0  0  0  0  0  0  0  0  0  0
  148.7244  132.8241  155.7055 C   0  0  1  0  0  0  0  0  0  0  0  0
  149.5788  131.7486  155.3531 O   0  0  0  0  0  0  0  0  0  0  0  0
  150.5684  131.4011  156.6540 S   0  0  0  0  0  0  0  0  0  0  0  0
  150.0580  130.1895  157.3133 O   0  0  0  0  0  0  0  0  0  0  0  0
  151.9662  131.5364  156.2164 O   0  0  0  0  0  0  0  0  0  0  0  0
  150.1891  132.7156  157.6120 O   0  0  0  0  0  0  0  0  0  0  0  0
  149.3649  133.5911  156.8648 C   0  0  1  0  0  0  0  0  0  0  0  0
  152.7185  141.7335  159.9775 C   0  0  0  0  0  0  0  0  0  0  0  0
  152.1663  142.8254  159.2700 C   0  0  0  0  0  0  0  0  0  0  0  0
  151.9262  144.0519  159.9197 C   0  0  0  0  0  0  0  0  0  0  0  0
  152.2460  144.2029  161.2820 C   0  0  0  0  0  0  0  0  0  0  0  0
  152.8091  143.1271  161.9936 C   0  0  0  0  0  0  0  0  0  0  0  0
  153.0483  141.8998  161.3450 C   0  0  0  0  0  0  0  0  0  0  0  0
  153.8520  138.1562  155.1825 H   0  0  0  0  0  0  0  0  0  0  0  0
  148.8984  135.6659  158.3949 H   0  0  0  0  0  0  0  0  0  0  0  0
  151.1913  134.2633  155.8258 H   0  0  0  0  0  0  0  0  0  0  0  0
  149.0969  133.4269  153.6485 H   0  0  0  0  0  0  0  0  0  0  0  0
  146.5874  134.1338  155.1049 H   0  0  0  0  0  0  0  0  0  0  0  0
  147.2768  135.4532  154.1656 H   0  0  0  0  0  0  0  0  0  0  0  0
  147.1571  132.3950  151.1740 H   0  0  0  0  0  0  0  0  0  0  0  0
  146.5470  131.1008  149.1630 H   0  0  0  0  0  0  0  0  0  0  0  0
  144.3503  131.4643  148.0541 H   0  0  0  0  0  0  0  0  0  0  0  0
  142.7593  133.1403  148.9733 H   0  0  0  0  0  0  0  0  0  0  0  0
  143.3395  134.4438  150.9748 H   0  0  0  0  0  0  0  0  0  0  0  0
  147.7459  132.4231  155.9725 H   0  0  0  0  0  0  0  0  0  0  0  0
  148.6087  134.0789  157.4805 H   0  0  0  0  0  0  0  0  0  0  0  0
  151.9182  142.7266  158.2230 H   0  0  0  0  0  0  0  0  0  0  0  0
  151.4981  144.8777  159.3710 H   0  0  0  0  0  0  0  0  0  0  0  0
  152.0633  145.1439  161.7793 H   0  0  0  0  0  0  0  0  0  0  0  0
  153.0615  143.2426  163.0373 H   0  0  0  0  0  0  0  0  0  0  0  0
  153.4919  141.0899  161.9064 H   0  0  0  0  0  0  0  0  0  0  0  0
  1  2  2  0  0  0  0
  2  3  1  0  0  0  0
  2 33  1  0  0  0  0
  3  4  1  0  0  0  0
  4  9  1  0  0  0  0
  4  5  2  0  0  0  0
  5  6  1  0  0  0  0
  6  7  2  0  0  0  0
  6 39  1  0  0  0  0
  7  8  1  0  0  0  0
  8 12  1  0  0  0  0
  8  9  2  0  0  0  0
  9 10  1  0  0  0  0
 10 11  2  0  0  0  0
 11 12  1  0  0  0  0
 11 40  1  0  0  0  0
 12 13  1  0  0  0  0
 13 32  1  0  0  0  0
 13 14  1  0  0  0  0
 13 41  1  0  0  0  0
 14 15  1  0  0  0  0
 15 16  1  0  0  0  0
 15 26  1  0  0  0  0
 15 42  1  0  0  0  0
 16 17  1  0  0  0  0
 16 43  1  0  0  0  0
 16 44  1  0  0  0  0
 17 18  1  0  0  0  0
 18 19  2  0  0  0  0
 18 20  1  0  0  0  0
 20 25  1  0  0  0  0
 20 21  2  0  0  0  0
 21 22  1  0  0  0  0
 21 45  1  0  0  0  0
 22 23  2  0  0  0  0
 22 46  1  0  0  0  0
 23 24  1  0  0  0  0
 23 47  1  0  0  0  0
 24 25  2  0  0  0  0
 24 48  1  0  0  0  0
 25 49  1  0  0  0  0
 26 32  1  0  0  0  0
 26 27  1  0  0  0  0
 26 50  1  0  0  0  0
 27 28  1  0  0  0  0
 28 29  2  0  0  0  0
 28 30  2  0  0  0  0
 28 31  1  0  0  0  0
 31 32  1  0  0  0  0
 32 51  1  0  0  0  0
 33 38  1  0  0  0  0
 33 34  2  0  0  0  0
 34 35  1  0  0  0  0
 34 52  1  0  0  0  0
 35 36  2  0  0  0  0
 35 53  1  0  0  0  0
 36 37  1  0  0  0  0
 36 54  1  0  0  0  0
 37 38  2  0  0  0  0
 37 55  1  0  0  0  0
 38 56  1  0  0  0  0
M  CHG  1   3  -1
M  END
> <s_m_source_file>
AV-unprocessed.smi

> <i_m_source_file_index>
1

> <i_lp_mmshare_version>
43012

> <i_f3d_flags>
0

> <s_epik_input>
W2NIXTFbY0hdW2NIXVtjSF1bY0hdYzFDKD1PKVtOSF1jKG5bY0hdbjIpYyhjMjMpbltjSF1uM1tDQEBIXShbQ0BIXShbQ0BIXTQ1KU9TKE81KSg9Tyk9TylPW0NASF00W0NIMl1PQyg9TyljNltjSF1bY0hdW2NIXVtjSF1bY0hdNg==

> <s_epik_cmdline>
J2VwaWtfcHl0aG9uJywgJy1waCcsICc3LjAnLCAnLXRuJywgJzgnLCAnLW1hJywgJzIwMCcsICctbWV0YWxfYmluZGluZycsICctaW1hZScsICc8aW5maWxlLm1hZT4nLCAnLW9tYWUnLCAnPG91dGZpbGUubWFlPic=

> <r_lp_tautomer_probability>
1

> <r_epik_Ionization_Penalty>
4.39121

> <r_epik_Ionization_Penalty_Charging>
3.39398

> <r_epik_Ionization_Penalty_Neutral>
0.997232

> <r_epik_State_Penalty>
3.39839

> <r_epik_Charging_Adjusted_Penalty>
6.79237

> <i_epik_Tot_Q>
-1

> <i_epik_Tot_abs_Q>
1

> <r_epik_Metal_State_Penalty>
0.497663

> <b_epik_Metal_Only>
1

> <s_epik_Chemistry_Notes>
This compound has an ester and may undergo hydrolysis at high or low pH. This compound contains an acetal/aminal-like group ( X-CH(R)-Y where X, Y are N, S, or O) that may be acid/base labile, releasing an aldehyde.

> <s_lp_Force_Field>
OPLS_2005

> <r_lp_Energy>
40.5787

> <b_lp_Chiralities_Consistent>
1

> <s_lp_Variant>
AV-unprocessed.smi:1-23

> <Gold.Version>
5.8.1

> <Gold.Id.Protein>
6NUR|6NUR_protein|mol2

> <Gold.PLP.Fitness>
58.7358

> <Gold.PLP.PLP>
-58.2496

> <Gold.PLP.part.hbond>
-4.0000

> <Gold.PLP.part.metal>
0.0000

> <Gold.PLP.part.buried>
-4.5486

> <Gold.PLP.part.nonpolar>
-51.4603

> <Gold.PLP.part.repulsive>
0.3526

> <Gold.PLP.ligand.clash>
0.0000

> <Gold.PLP.ligand.torsion>
2.7791

> <Gold.PLP.Chemscore.Hbond>
1.8160

> <Gold.PLP.Chemscore.CHOScore>
0.0000

> <Gold.PLP.Chemscore.Metal>
0.0000

> <Gold.Chemscore.Hbonds>
donor molecule, donor type, donor heavy atom, donor atom, acceptor molecule, acceptor atom, score
      P1  H  7997  8010       L1     5  1.00
      P1  H 10752 10764       L1     7  0.91

> <Gold.PLP.Chemscore.Internal.Correction>
0.5964

> <Gold.Rescore>
     Score         DG    S(hbond)    S(metal)    S(lipo)     H(rot)  DE(clash)    DE(int)     intcor
     18.24     -22.35       1.55        0.00     146.18       2.11       0.33       3.78       ----

> <Gold.Chemscore.Fitness>
18.2449

> <Gold.Chemscore.DG>
-22.3508

> <Gold.Chemscore.ZeroCoef>
-5.4800

> <Gold.Chemscore.Hbond>
1.5504

> <Gold.Chemscore.Metal>
0.0000

> <Gold.Chemscore.Lipo>
146.1812

> <Gold.Chemscore.Internal_Hbond>
0.0000

> <Gold.Chemscore.DEClash>
0.3260

> <Gold.Chemscore.DEInternal>
3.7799

> <Gold.Chemscore.Rot>
2.1136

> <Gold.Chemscore.Internal.Correction>
   9.000000E+99

> <Gold.Chemscore.Hbonds>
donor molecule, donor type, donor heavy atom, donor atom, acceptor molecule, acceptor atom, score
      P1  H  7997  8010       L1     5  0.55
      P1  H 10752 10764       L1     7  0.86

> <Gold.Chemscore.Hbond.Weighted>
-5.1783

> <Gold.Chemscore.Metal.Weighted>
-0.0000

> <Gold.Chemscore.Lipo.Weighted>
-17.1032

> <Gold.Chemscore.Internal_Hbond.Weighted>
0.0000

> <Gold.Chemscore.DEClash.Weighted>
0.3260

> <Gold.Chemscore.DEInternal.Weighted>
3.7799

> <Gold.Chemscore.Rot.Weighted>
5.4107

> <Gold.Chemscore.Internal.Correction.Weighted>
   9.000000E+99

> <Gold.Protein.RotatedTorsions>
[ 6907 6896 6895 6894 ] final  -33.58 input  -60.11 | X-H torsion
[ 7974 7965 7964 7962 ] final -172.63 input  175.53 | X-H torsion
[ 8008 7997 7996 7995 ] final   62.13 input   59.86 | X-H torsion
[ 10167 10162 10161 10158 ] final -112.74 input  -65.29 | X-H torsion
[ 10718 10713 10712 10709 ] final  -37.55 input   66.30 | X-H torsion
[ 10763 10752 10751 10750 ] final  -39.20 input  -60.55 | X-H torsion
[ 11005 11000 10999 10996 ] final  133.34 input  -57.11 | X-H torsion

> <Gold.Protein.ActiveResidues>
 VAL166  LYS551  ARG553  GLY616  TRP617  ASP618  TYR619  PRO620  LYS621  CYS622 
 ASP623  PHE694  ASN695  SER759  ASP760  ASP761  ALA762  ILE779  LEU786  VAL792 
 PHE793  MET794  SER795  GLU796  ALA797  LYS798  CYS799  TRP800  GLU811  SER814 

> <Gold.Protein.RotatedAtoms>
  151.0638  134.9754  159.8273 H   0  0  0  0  0  0  0  0  0  0  0  0  # atno 6907 bound_to 6896
  152.5399  134.2384  159.8862 H   0  0  0  0  0  0  0  0  0  0  0  0  # atno 6908 bound_to 6896
  151.2405  133.4359  159.2641 H   0  0  0  0  0  0  0  0  0  0  0  0  # atno 6909 bound_to 6896
  144.7144  140.1744  143.6364 H   0  0  0  0  0  0  0  0  0  0  0  0  # atno 7974 bound_to 7965
  155.6094  140.3495  155.4617 H   0  0  0  0  0  0  0  0  0  0  0  0  # atno 8008 bound_to 7997
  156.0166  140.1244  157.0424 H   0  0  0  0  0  0  0  0  0  0  0  0  # atno 8009 bound_to 7997
  154.4300  140.1071  156.5891 H   0  0  0  0  0  0  0  0  0  0  0  0  # atno 8010 bound_to 7997
  140.1194  143.4457  152.1701 H   0  0  0  0  0  0  0  0  0  0  0  0  # atno 10167 bound_to 10162
  156.3139  130.4256  149.8024 H   0  0  0  0  0  0  0  0  0  0  0  0  # atno 10718 bound_to 10713
  153.9254  135.6778  153.4746 H   0  0  0  0  0  0  0  0  0  0  0  0  # atno 10763 bound_to 10752
  153.1007  135.4829  154.8858 H   0  0  0  0  0  0  0  0  0  0  0  0  # atno 10764 bound_to 10752
  154.7456  135.3171  154.8607 H   0  0  0  0  0  0  0  0  0  0  0  0  # atno 10765 bound_to 10752
  139.9846  134.9537  156.9711 H   0  0  0  0  0  0  0  0  0  0  0  0  # atno 11005 bound_to 11000
  145.8914  139.2378  143.1547 LP  0  0  0  0  0  0  0  0  0  0  0  0  # atno 17320 bound_to 7965
  145.9899  140.8611  143.0071 LP  0  0  0  0  0  0  0  0  0  0  0  0  # atno 17321 bound_to 7965
  139.5577  144.7384  151.4247 LP  0  0  0  0  0  0  0  0  0  0  0  0  # atno 17342 bound_to 10162
  140.6880  143.7927  150.7214 LP  0  0  0  0  0  0  0  0  0  0  0  0  # atno 17343 bound_to 10162
  156.5357  130.8277  151.3252 LP  0  0  0  0  0  0  0  0  0  0  0  0  # atno 17370 bound_to 10713
  157.7397  130.9837  150.2331 LP  0  0  0  0  0  0  0  0  0  0  0  0  # atno 17371 bound_to 10713
  140.5029  134.1079  155.7254 LP  0  0  0  0  0  0  0  0  0  0  0  0  # atno 17394 bound_to 11000
  141.1513  133.8964  157.2091 LP  0  0  0  0  0  0  0  0  0  0  0  0  # atno 17395 bound_to 11000

$$$$
