AV-unprocessed.smi:2482|AV-procd|sdf|9779|dock2
  -GOLD-   2272013423D 1   1.00000     0.00000
 Structure written by MMmdl.
 34 35  0  0  0  0  0  0  0  0  1 V2000
  151.8843  145.4034  161.3667 C   0  0  0  0  0  0  0  0  0  0  0  0
  152.2937  143.9739  161.0646 C   0  0  0  0  0  0  0  0  0  0  0  0
  152.7847  143.2728  162.1098 N   0  0  0  0  0  0  0  0  0  0  0  0
  153.1552  141.9935  161.8980 C   0  0  0  0  0  0  0  0  0  0  0  0
  153.0620  141.3570  160.6458 C   0  0  0  0  0  0  0  0  0  0  0  0
  152.5641  142.0938  159.5445 C   0  0  0  0  0  0  0  0  0  0  0  0
  152.4077  141.5443  158.2420 N   0  0  0  0  0  0  0  0  0  0  0  0
  152.1887  140.2659  157.8813 C   0  0  0  0  0  0  0  0  0  0  0  0
  152.0747  139.3299  158.6733 O   0  0  0  0  0  0  0  0  0  0  0  0
  152.0807  140.0125  156.3705 C   0  0  2  0  0  0  0  0  0  0  0  0
  150.6751  139.5355  155.9385 C   0  0  0  0  0  0  0  0  0  0  0  0
  150.6180  139.2383  154.5127 N   0  0  0  0  0  0  0  0  0  0  0  0
  149.2942  138.7871  154.1118 C   0  0  0  0  0  0  0  0  0  0  0  0
  151.6442  138.2622  154.1734 C   0  0  0  0  0  0  0  0  0  0  0  0
  153.0421  138.7381  154.6018 C   0  0  0  0  0  0  0  0  0  0  0  0
  153.0412  139.0227  155.9972 O   0  0  0  0  0  0  0  0  0  0  0  0
  152.1583  143.4310  159.7653 C   0  0  0  0  0  0  0  0  0  0  0  0
  151.5146  144.3866  158.4716 Cl  0  0  0  0  0  0  0  0  0  0  0  0
  152.4569  146.0994  160.7534 H   0  0  0  0  0  0  0  0  0  0  0  0
  152.0568  145.6576  162.4136 H   0  0  0  0  0  0  0  0  0  0  0  0
  150.8244  145.5474  161.1553 H   0  0  0  0  0  0  0  0  0  0  0  0
  153.5312  141.4563  162.7561 H   0  0  0  0  0  0  0  0  0  0  0  0
  153.3586  140.3232  160.5608 H   0  0  0  0  0  0  0  0  0  0  0  0
  152.5635  142.1897  157.4807 H   0  0  0  0  0  0  0  0  0  0  0  0
  152.3218  140.9481  155.8624 H   0  0  0  0  0  0  0  0  0  0  0  0
  150.3980  138.6481  156.5105 H   0  0  0  0  0  0  0  0  0  0  0  0
  149.9376  140.3031  156.1772 H   0  0  0  0  0  0  0  0  0  0  0  0
  149.2583  138.6007  153.0381 H   0  0  0  0  0  0  0  0  0  0  0  0
  148.5425  139.5426  154.3425 H   0  0  0  0  0  0  0  0  0  0  0  0
  149.0190  137.8656  154.6264 H   0  0  0  0  0  0  0  0  0  0  0  0
  151.4238  137.3098  154.6580 H   0  0  0  0  0  0  0  0  0  0  0  0
  151.6372  138.0754  153.0991 H   0  0  0  0  0  0  0  0  0  0  0  0
  153.7855  137.9680  154.3953 H   0  0  0  0  0  0  0  0  0  0  0  0
  153.3367  139.6275  154.0427 H   0  0  0  0  0  0  0  0  0  0  0  0
  1  2  1  0  0  0  0
  1 19  1  0  0  0  0
  1 20  1  0  0  0  0
  1 21  1  0  0  0  0
  2 17  1  0  0  0  0
  2  3  2  0  0  0  0
  3  4  1  0  0  0  0
  4  5  2  0  0  0  0
  4 22  1  0  0  0  0
  5  6  1  0  0  0  0
  5 23  1  0  0  0  0
  6  7  1  0  0  0  0
  6 17  2  0  0  0  0
  7  8  1  0  0  0  0
  7 24  1  0  0  0  0
  8  9  2  0  0  0  0
  8 10  1  0  0  0  0
 10 16  1  0  0  0  0
 10 11  1  0  0  0  0
 10 25  1  0  0  0  0
 11 12  1  0  0  0  0
 11 26  1  0  0  0  0
 11 27  1  0  0  0  0
 12 13  1  0  0  0  0
 12 14  1  0  0  0  0
 13 28  1  0  0  0  0
 13 29  1  0  0  0  0
 13 30  1  0  0  0  0
 14 15  1  0  0  0  0
 14 31  1  0  0  0  0
 14 32  1  0  0  0  0
 15 16  1  0  0  0  0
 15 33  1  0  0  0  0
 15 34  1  0  0  0  0
 17 18  1  0  0  0  0
M  END
> <s_m_source_file>
AV-unprocessed.smi

> <i_m_source_file_index>
2482

> <i_lp_mmshare_version>
43012

> <i_f3d_flags>
0

> <s_epik_input>
W0NIM11jMW5bY0hdW2NIXWMoYzFDbClbTkhdQyg9TylbQ0BASF0yW0NIMl1OKFtDSDNdKVtDSDJdW0NIMl1PMg==

> <s_epik_cmdline>
J2VwaWtfcHl0aG9uJywgJy1waCcsICc3LjAnLCAnLXRuJywgJzgnLCAnLW1hJywgJzIwMCcsICctbWV0YWxfYmluZGluZycsICctaW1hZScsICc8aW5maWxlLm1hZT4nLCAnLW9tYWUnLCAnPG91dGZpbGUubWFlPic=

> <r_epik_Ionization_Penalty>
0.52656

> <r_epik_Ionization_Penalty_Charging>
0

> <r_epik_Ionization_Penalty_Neutral>
0.52656

> <r_epik_State_Penalty>
0.534659

> <r_epik_Charging_Adjusted_Penalty>
0.534659

> <i_epik_Tot_Q>
0

> <i_epik_Tot_abs_Q>
0

> <r_epik_Metal_State_Penalty>
0.54077

> <b_epik_Metal_Only>
0

> <s_lp_Force_Field>
OPLS_2005

> <r_lp_Energy>
25.1239

> <b_lp_Chiralities_Consistent>
1

> <s_lp_Variant>
AV-unprocessed.smi:2482-5

> <Gold.Version>
5.8.1

> <Gold.Id.Protein>
6NUR|6NUR_protein|mol2

> <Gold.PLP.Fitness>
39.2762

> <Gold.PLP.PLP>
-36.3689

> <Gold.PLP.part.hbond>
-1.4887

> <Gold.PLP.part.metal>
0.0000

> <Gold.PLP.part.buried>
0.8114

> <Gold.PLP.part.nonpolar>
-35.0713

> <Gold.PLP.part.repulsive>
0.3487

> <Gold.PLP.ligand.clash>
0.0000

> <Gold.PLP.ligand.torsion>
0.2172

> <Gold.PLP.Chemscore.Hbond>
1.1131

> <Gold.PLP.Chemscore.CHOScore>
0.0000

> <Gold.PLP.Chemscore.Metal>
0.0000

> <Gold.Chemscore.Hbonds>
donor molecule, donor type, donor heavy atom, donor atom, acceptor molecule, acceptor atom, score
      P1  H  7989  7998       L1    12  0.42
      P1  H  7997  8008       L1    16  0.70

> <Gold.PLP.Chemscore.Internal.Correction>
0.0022

> <Gold.Rescore>
     Score         DG    S(hbond)    S(metal)    S(lipo)     H(rot)  DE(clash)    DE(int)     intcor
     15.10     -17.05       0.08        0.00     118.64       1.00       0.61       1.34       ----

> <Gold.Chemscore.Fitness>
15.0998

> <Gold.Chemscore.DG>
-17.0546

> <Gold.Chemscore.ZeroCoef>
-5.4800

> <Gold.Chemscore.Hbond>
0.0760

> <Gold.Chemscore.Metal>
0.0000

> <Gold.Chemscore.Lipo>
118.6386

> <Gold.Chemscore.Internal_Hbond>
0.0000

> <Gold.Chemscore.DEClash>
0.6137

> <Gold.Chemscore.DEInternal>
1.3411

> <Gold.Chemscore.Rot>
1.0000

> <Gold.Chemscore.Internal.Correction>
   9.000000E+99

> <Gold.Chemscore.Hbonds>
donor molecule, donor type, donor heavy atom, donor atom, acceptor molecule, acceptor atom, score
      P1  H  7989  7998       L1    12  0.02
      P1  H  7997  8008       L1    16  0.02

> <Gold.Chemscore.Hbond.Weighted>
-0.2539

> <Gold.Chemscore.Metal.Weighted>
-0.0000

> <Gold.Chemscore.Lipo.Weighted>
-13.8807

> <Gold.Chemscore.Internal_Hbond.Weighted>
0.0000

> <Gold.Chemscore.DEClash.Weighted>
0.6137

> <Gold.Chemscore.DEInternal.Weighted>
1.3411

> <Gold.Chemscore.Rot.Weighted>
2.5600

> <Gold.Chemscore.Internal.Correction.Weighted>
   9.000000E+99

> <Gold.Protein.RotatedTorsions>
[ 6907 6896 6895 6894 ] final -113.24 input  -60.11 | X-H torsion
[ 7974 7965 7964 7962 ] final  -38.77 input  175.53 | X-H torsion
[ 8008 7997 7996 7995 ] final  -26.09 input   59.86 | X-H torsion
[ 10167 10162 10161 10158 ] final   51.90 input  -65.29 | X-H torsion
[ 10718 10713 10712 10709 ] final  -21.88 input   66.30 | X-H torsion
[ 10763 10752 10751 10750 ] final  146.23 input  -60.55 | X-H torsion
[ 11005 11000 10999 10996 ] final  -17.38 input  -57.11 | X-H torsion

> <Gold.Protein.ActiveResidues>
 VAL166  LYS551  ARG553  GLY616  TRP617  ASP618  TYR619  PRO620  LYS621  CYS622 
 ASP623  PHE694  ASN695  SER759  ASP760  ASP761  ALA762  ILE779  LEU786  VAL792 
 PHE793  MET794  SER795  GLU796  ALA797  LYS798  CYS799  TRP800  GLU811  SER814 

> <Gold.Protein.RotatedAtoms>
  150.7815  133.8973  159.3330 H   0  0  0  0  0  0  0  0  0  0  0  0  # atno 6907 bound_to 6896
  151.6834  135.0956  160.0230 H   0  0  0  0  0  0  0  0  0  0  0  0  # atno 6908 bound_to 6896
  152.3868  133.6584  159.6240 H   0  0  0  0  0  0  0  0  0  0  0  0  # atno 6909 bound_to 6896
  146.0456  140.6550  142.9066 H   0  0  0  0  0  0  0  0  0  0  0  0  # atno 7974 bound_to 7965
  154.4442  140.1909  156.0721 H   0  0  0  0  0  0  0  0  0  0  0  0  # atno 8008 bound_to 7997
  156.0503  140.3309  155.7316 H   0  0  0  0  0  0  0  0  0  0  0  0  # atno 8009 bound_to 7997
  155.5567  140.0600  157.2829 H   0  0  0  0  0  0  0  0  0  0  0  0  # atno 8010 bound_to 7997
  140.2570  144.3415  150.6330 H   0  0  0  0  0  0  0  0  0  0  0  0  # atno 10167 bound_to 10162
  156.5122  130.4612  149.6642 H   0  0  0  0  0  0  0  0  0  0  0  0  # atno 10718 bound_to 10713
  154.0185  135.2908  155.3384 H   0  0  0  0  0  0  0  0  0  0  0  0  # atno 10763 bound_to 10752
  154.7061  135.5169  153.8600 H   0  0  0  0  0  0  0  0  0  0  0  0  # atno 10764 bound_to 10752
  153.0692  135.6641  154.0409 H   0  0  0  0  0  0  0  0  0  0  0  0  # atno 10765 bound_to 10752
  140.8162  133.8103  155.9613 H   0  0  0  0  0  0  0  0  0  0  0  0  # atno 11005 bound_to 11000
  144.7096  140.3988  143.7091 LP  0  0  0  0  0  0  0  0  0  0  0  0  # atno 17320 bound_to 7965
  145.6811  139.1618  143.2700 LP  0  0  0  0  0  0  0  0  0  0  0  0  # atno 17321 bound_to 7965
  140.5995  143.2167  151.7099 LP  0  0  0  0  0  0  0  0  0  0  0  0  # atno 17342 bound_to 10162
  139.5028  144.3814  152.0372 LP  0  0  0  0  0  0  0  0  0  0  0  0  # atno 17343 bound_to 10162
  156.3230  130.7290  151.2206 LP  0  0  0  0  0  0  0  0  0  0  0  0  # atno 17370 bound_to 10713
  157.7449  131.0450  150.4824 LP  0  0  0  0  0  0  0  0  0  0  0  0  # atno 17371 bound_to 10713
  140.9146  134.2217  157.4964 LP  0  0  0  0  0  0  0  0  0  0  0  0  # atno 17394 bound_to 11000
  139.8711  134.9765  156.4925 LP  0  0  0  0  0  0  0  0  0  0  0  0  # atno 17395 bound_to 11000

$$$$
