AV-unprocessed.smi:2193|AV-procd|sdf|8900|dock3
  -GOLD-   2272012113D 1   1.00000     0.00000
 Structure written by MMmdl.
 41 43  0  0  0  0  0  0  0  0  2 V2000
  151.2501  140.3377  155.2350 O   0  0  0  0  0  0  0  0  0  0  0  0
  150.2410  140.6829  156.1574 C   0  0  0  0  0  0  0  0  0  0  0  0
  150.7352  141.6133  157.2149 C   0  0  0  0  0  0  0  0  0  0  0  0
  150.7165  142.9743  157.1522 N   0  3  0  0  0  0  0  0  0  0  0  0
  151.2699  143.5086  158.3164 C   0  0  0  0  0  0  0  0  0  0  0  0
  151.4646  144.8293  158.7087 C   0  0  0  0  0  0  0  0  0  0  0  0
  152.0595  145.0333  159.9710 C   0  0  0  0  0  0  0  0  0  0  0  0
  152.4357  143.9484  160.7891 C   0  0  0  0  0  0  0  0  0  0  0  0
  152.2344  142.6136  160.3801 C   0  0  0  0  0  0  0  0  0  0  0  0
  151.6461  142.4198  159.1302 C   0  0  0  0  0  0  0  0  0  0  0  0
  151.2977  141.2707  158.4095 N   0  0  0  0  0  0  0  0  0  0  0  0
  151.5671  139.9400  158.9771 C   0  0  0  0  0  0  0  0  0  0  0  0
  153.0260  139.4862  158.7705 C   0  0  2  0  0  0  0  0  0  0  0  0
  153.2893  139.3154  157.3924 O   0  0  0  0  0  0  0  0  0  0  0  0
  153.3388  138.1699  159.4964 C   0  0  0  0  0  0  0  0  0  0  0  0
  153.7922  138.4684  160.8103 O   0  0  0  0  0  0  0  0  0  0  0  0
  154.0136  137.4216  161.6790 C   0  0  0  0  0  0  0  0  0  0  0  0
  154.3665  136.1810  161.1084 C   0  0  0  0  0  0  0  0  0  0  0  0
  154.6115  135.0569  161.9204 C   0  0  0  0  0  0  0  0  0  0  0  0
  154.5045  135.1637  163.3192 C   0  0  0  0  0  0  0  0  0  0  0  0
  154.7397  134.0845  164.1025 F   0  0  0  0  0  0  0  0  0  0  0  0
  154.1521  136.3949  163.9025 C   0  0  0  0  0  0  0  0  0  0  0  0
  153.9075  137.5193  163.0899 C   0  0  0  0  0  0  0  0  0  0  0  0
  151.4421  139.4169  155.3289 H   0  0  0  0  0  0  0  0  0  0  0  0
  149.4132  141.1486  155.6223 H   0  0  0  0  0  0  0  0  0  0  0  0
  149.8531  139.7749  156.6190 H   0  0  0  0  0  0  0  0  0  0  0  0
  151.1767  145.6623  158.0839 H   0  0  0  0  0  0  0  0  0  0  0  0
  152.2302  146.0419  160.3190 H   0  0  0  0  0  0  0  0  0  0  0  0
  152.8878  144.1434  161.7510 H   0  0  0  0  0  0  0  0  0  0  0  0
  152.5235  141.7918  161.0183 H   0  0  0  0  0  0  0  0  0  0  0  0
  151.3416  139.9962  160.0426 H   0  0  0  0  0  0  0  0  0  0  0  0
  150.8642  139.2182  158.5610 H   0  0  0  0  0  0  0  0  0  0  0  0
  153.7048  140.2578  159.1355 H   0  0  0  0  0  0  0  0  0  0  0  0
  152.5037  138.9962  156.9755 H   0  0  0  0  0  0  0  0  0  0  0  0
  152.4508  137.5360  159.5265 H   0  0  0  0  0  0  0  0  0  0  0  0
  154.1212  137.6323  158.9575 H   0  0  0  0  0  0  0  0  0  0  0  0
  154.4512  136.0899  160.0355 H   0  0  0  0  0  0  0  0  0  0  0  0
  154.8814  134.1134  161.4694 H   0  0  0  0  0  0  0  0  0  0  0  0
  154.0686  136.4780  164.9762 H   0  0  0  0  0  0  0  0  0  0  0  0
  153.6390  138.4457  163.5742 H   0  0  0  0  0  0  0  0  0  0  0  0
  150.3551  143.4969  156.3645 H   0  0  0  0  0  0  0  0  0  0  0  0
  1  2  1  0  0  0  0
  1 24  1  0  0  0  0
  2  3  1  0  0  0  0
  2 25  1  0  0  0  0
  2 26  1  0  0  0  0
  3 11  1  0  0  0  0
  3  4  2  0  0  0  0
  4  5  1  0  0  0  0
  4 41  1  0  0  0  0
  5 10  2  0  0  0  0
  5  6  1  0  0  0  0
  6  7  2  0  0  0  0
  6 27  1  0  0  0  0
  7  8  1  0  0  0  0
  7 28  1  0  0  0  0
  8  9  2  0  0  0  0
  8 29  1  0  0  0  0
  9 10  1  0  0  0  0
  9 30  1  0  0  0  0
 10 11  1  0  0  0  0
 11 12  1  0  0  0  0
 12 13  1  0  0  0  0
 12 31  1  0  0  0  0
 12 32  1  0  0  0  0
 13 14  1  0  0  0  0
 13 15  1  0  0  0  0
 13 33  1  0  0  0  0
 14 34  1  0  0  0  0
 15 16  1  0  0  0  0
 15 35  1  0  0  0  0
 15 36  1  0  0  0  0
 16 17  1  0  0  0  0
 17 23  1  0  0  0  0
 17 18  2  0  0  0  0
 18 19  1  0  0  0  0
 18 37  1  0  0  0  0
 19 20  2  0  0  0  0
 19 38  1  0  0  0  0
 20 21  1  0  0  0  0
 20 22  1  0  0  0  0
 22 23  2  0  0  0  0
 22 39  1  0  0  0  0
 23 40  1  0  0  0  0
M  CHG  1   4   1
M  END
> <s_m_source_file>
AV-unprocessed.smi

> <i_m_source_file_index>
2193

> <i_lp_mmshare_version>
43012

> <i_f3d_flags>
0

> <s_epik_input>
W2NIXTFbY0hdW2NIXVtjSF1jKGMxMiluKGMobjIpW0NIMl1bT0hdKVtDSDJdW0NASF0oW09IXSlbQ0gyXU9jM1tjSF1bY0hdYyhGKVtjSF1bY0hdMw==

> <s_epik_cmdline>
J2VwaWtfcHl0aG9uJywgJy1waCcsICc3LjAnLCAnLXRuJywgJzgnLCAnLW1hJywgJzIwMCcsICctbWV0YWxfYmluZGluZycsICctaW1hZScsICc8aW5maWxlLm1hZT4nLCAnLW9tYWUnLCAnPG91dGZpbGUubWFlPic=

> <r_lp_tautomer_probability>
1

> <r_epik_Ionization_Penalty>
1.43752

> <r_epik_Ionization_Penalty_Charging>
1.43666

> <r_epik_Ionization_Penalty_Neutral>
0.000858184

> <r_epik_State_Penalty>
1.52171

> <r_epik_Charging_Adjusted_Penalty>
2.95837

> <i_epik_Tot_Q>
1

> <i_epik_Tot_abs_Q>
1

> <r_epik_Metal_State_Penalty>
5.56725

> <b_epik_Metal_Only>
0

> <s_lp_Force_Field>
OPLS_2005

> <r_lp_Energy>
17.6251

> <b_lp_Chiralities_Consistent>
1

> <s_lp_Variant>
AV-unprocessed.smi:2193-3

> <Gold.Version>
5.8.1

> <Gold.Id.Protein>
6NUR|6NUR_protein|mol2

> <Gold.PLP.Fitness>
58.6278

> <Gold.PLP.PLP>
-49.6538

> <Gold.PLP.part.hbond>
-2.8797

> <Gold.PLP.part.metal>
0.0000

> <Gold.PLP.part.buried>
-7.6432

> <Gold.PLP.part.nonpolar>
-40.2801

> <Gold.PLP.part.repulsive>
0.0132

> <Gold.PLP.ligand.clash>
0.0000

> <Gold.PLP.ligand.torsion>
1.4652

> <Gold.PLP.Chemscore.Hbond>
3.8880

> <Gold.PLP.Chemscore.CHOScore>
0.0000

> <Gold.PLP.Chemscore.Metal>
0.0000

> <Gold.Chemscore.Hbonds>
donor molecule, donor type, donor heavy atom, donor atom, acceptor molecule, acceptor atom, score
      L1  H     4    41       P1  8028  1.89
      P1  H  7989  7998       L1     1  1.00
      P1  H  7997  8009       L1    14  1.00

> <Gold.PLP.Chemscore.Internal.Correction>
0.2404

> <Gold.Rescore>
     Score         DG    S(hbond)    S(metal)    S(lipo)     H(rot)  DE(clash)    DE(int)     intcor
     19.81     -21.28       2.72        0.00     129.90       3.31       0.03       1.44       ----

> <Gold.Chemscore.Fitness>
19.8100

> <Gold.Chemscore.DG>
-21.2788

> <Gold.Chemscore.ZeroCoef>
-5.4800

> <Gold.Chemscore.Hbond>
2.7196

> <Gold.Chemscore.Metal>
0.0000

> <Gold.Chemscore.Lipo>
129.8950

> <Gold.Chemscore.Internal_Hbond>
0.0000

> <Gold.Chemscore.DEClash>
0.0270

> <Gold.Chemscore.DEInternal>
1.4417

> <Gold.Chemscore.Rot>
3.3134

> <Gold.Chemscore.Internal.Correction>
   9.000000E+99

> <Gold.Chemscore.Hbonds>
donor molecule, donor type, donor heavy atom, donor atom, acceptor molecule, acceptor atom, score
      L1  H     4    41       P1  8028  0.85
      P1  H  7989  7998       L1     1  0.71
      P1  H  7997  8009       L1    14  0.91

> <Gold.Chemscore.Hbond.Weighted>
-9.0834

> <Gold.Chemscore.Metal.Weighted>
-0.0000

> <Gold.Chemscore.Lipo.Weighted>
-15.1977

> <Gold.Chemscore.Internal_Hbond.Weighted>
0.0000

> <Gold.Chemscore.DEClash.Weighted>
0.0270

> <Gold.Chemscore.DEInternal.Weighted>
1.4417

> <Gold.Chemscore.Rot.Weighted>
8.4823

> <Gold.Chemscore.Internal.Correction.Weighted>
   9.000000E+99

> <Gold.Protein.RotatedTorsions>
[ 6907 6896 6895 6894 ] final  -93.50 input  -60.11 | X-H torsion
[ 7974 7965 7964 7962 ] final   33.99 input  175.53 | X-H torsion
[ 8008 7997 7996 7995 ] final -177.22 input   59.86 | X-H torsion
[ 10167 10162 10161 10158 ] final  -86.17 input  -65.29 | X-H torsion
[ 10718 10713 10712 10709 ] final  174.33 input   66.30 | X-H torsion
[ 10763 10752 10751 10750 ] final  -56.44 input  -60.55 | X-H torsion
[ 11005 11000 10999 10996 ] final  -34.12 input  -57.11 | X-H torsion

> <Gold.Protein.ActiveResidues>
 VAL166  LYS551  ARG553  GLY616  TRP617  ASP618  TYR619  PRO620  LYS621  CYS622 
 ASP623  PHE694  ASN695  SER759  ASP760  ASP761  ALA762  ILE779  LEU786  VAL792 
 PHE793  MET794  SER795  GLU796  ALA797  LYS798  CYS799  TRP800  GLU811  SER814 

> <Gold.Protein.RotatedAtoms>
  150.6924  134.1958  159.4302 H   0  0  0  0  0  0  0  0  0  0  0  0  # atno 6907 bound_to 6896
  151.9927  134.9968  160.0571 H   0  0  0  0  0  0  0  0  0  0  0  0  # atno 6908 bound_to 6896
  152.1652  133.4573  159.4918 H   0  0  0  0  0  0  0  0  0  0  0  0  # atno 6909 bound_to 6896
  146.1383  139.6326  142.9180 H   0  0  0  0  0  0  0  0  0  0  0  0  # atno 7974 bound_to 7965
  156.0043  140.1227  157.0516 H   0  0  0  0  0  0  0  0  0  0  0  0  # atno 8008 bound_to 7997
  154.4253  140.1100  156.5810 H   0  0  0  0  0  0  0  0  0  0  0  0  # atno 8009 bound_to 7997
  155.6169  140.3472  155.4642 H   0  0  0  0  0  0  0  0  0  0  0  0  # atno 8010 bound_to 7997
  140.3967  143.2681  151.9195 H   0  0  0  0  0  0  0  0  0  0  0  0  # atno 10167 bound_to 10162
  156.9511  131.0031  151.2948 H   0  0  0  0  0  0  0  0  0  0  0  0  # atno 10718 bound_to 10713
  154.2067  135.6401  153.5103 H   0  0  0  0  0  0  0  0  0  0  0  0  # atno 10763 bound_to 10752
  152.9999  135.5464  154.6259 H   0  0  0  0  0  0  0  0  0  0  0  0  # atno 10764 bound_to 10752
  154.5685  135.2915  155.0824 H   0  0  0  0  0  0  0  0  0  0  0  0  # atno 10765 bound_to 10752
  140.9690  133.7120  156.1493 H   0  0  0  0  0  0  0  0  0  0  0  0  # atno 11005 bound_to 11000
  145.5105  141.0435  143.2490 LP  0  0  0  0  0  0  0  0  0  0  0  0  # atno 17320 bound_to 7965
  144.7764  139.6620  143.7173 LP  0  0  0  0  0  0  0  0  0  0  0  0  # atno 17321 bound_to 7965
  139.4786  144.5674  151.8142 LP  0  0  0  0  0  0  0  0  0  0  0  0  # atno 17342 bound_to 10162
  140.4783  144.1487  150.5928 LP  0  0  0  0  0  0  0  0  0  0  0  0  # atno 17343 bound_to 10162
  157.5721  130.8318  149.8406 LP  0  0  0  0  0  0  0  0  0  0  0  0  # atno 17370 bound_to 10713
  156.0362  130.3750  150.1554 LP  0  0  0  0  0  0  0  0  0  0  0  0  # atno 17371 bound_to 10713
  140.7356  134.4206  157.5561 LP  0  0  0  0  0  0  0  0  0  0  0  0  # atno 17394 bound_to 11000
  139.8905  134.8803  156.2366 LP  0  0  0  0  0  0  0  0  0  0  0  0  # atno 17395 bound_to 11000

$$$$
