AV-unprocessed.smi:1106|AV-procd|sdf|4780|dock9
  -GOLD-   22720 3323D 1   1.00000     0.00000
 Structure written by MMmdl.
 48 49  0  0  0  0  0  0  0  0  2 V2000
  146.9524  139.1169  152.8819 C   0  0  0  0  0  0  0  0  0  0  0  0
  147.8815  139.7418  153.9331 C   0  0  0  0  0  0  0  0  0  0  0  0
  148.9362  138.8541  154.3484 N   0  0  0  0  0  0  0  0  0  0  0  0
  150.2654  139.2239  154.2801 C   0  0  0  0  0  0  0  0  0  0  0  0
  151.2731  138.4091  154.6602 C   0  0  0  0  0  0  0  0  0  0  0  0
  152.6368  138.8176  154.5868 C   0  0  0  0  0  0  0  0  0  0  0  0
  153.7449  139.1496  154.5498 N   0  0  0  0  0  0  0  0  0  0  0  0
  151.0071  137.0652  155.1689 C   0  0  0  0  0  0  0  0  0  0  0  0
  151.8866  136.2936  155.5571 O   0  0  0  0  0  0  0  0  0  0  0  0
  149.6349  136.7094  155.2010 N   0  0  0  0  0  0  0  0  0  0  0  0
  149.2935  135.3874  155.7023 C   0  0  0  0  0  0  0  0  0  0  0  0
  148.8116  134.4228  154.5967 C   0  0  1  0  0  0  0  0  0  0  0  0
  149.1343  133.1002  154.9804 O   0  0  0  0  0  0  0  0  0  0  0  0
  147.2809  134.4827  154.4244 C   0  0  0  0  0  0  0  0  0  0  0  0
  146.8744  134.4023  152.9984 N   0  3  2  0  0  0  0  0  0  0  0  0
  145.4631  134.8109  152.7701 C   0  0  0  0  0  0  0  0  0  0  0  0
  145.1325  134.8509  151.2676 C   0  0  0  0  0  0  0  0  0  0  0  0
  145.4289  133.5108  150.5695 C   0  0  2  0  0  0  0  0  0  0  0  0
  144.3952  132.4216  150.9052 C   0  0  0  0  0  0  0  0  0  0  0  0
  146.8724  133.0772  150.8844 C   0  0  0  0  0  0  0  0  0  0  0  0
  147.1651  133.0766  152.3959 C   0  0  0  0  0  0  0  0  0  0  0  0
  148.5775  137.5687  154.8174 C   0  0  0  0  0  0  0  0  0  0  0  0
  147.3963  137.2200  154.8936 O   0  0  0  0  0  0  0  0  0  0  0  0
  146.1908  139.8307  152.5683 H   0  0  0  0  0  0  0  0  0  0  0  0
  146.4392  138.2370  153.2704 H   0  0  0  0  0  0  0  0  0  0  0  0
  147.5099  138.8151  151.9948 H   0  0  0  0  0  0  0  0  0  0  0  0
  148.3759  140.6274  153.5318 H   0  0  0  0  0  0  0  0  0  0  0  0
  147.3468  140.0624  154.8292 H   0  0  0  0  0  0  0  0  0  0  0  0
  150.5108  140.2088  153.9087 H   0  0  0  0  0  0  0  0  0  0  0  0
  150.1362  134.9906  156.2710 H   0  0  0  0  0  0  0  0  0  0  0  0
  148.5179  135.5419  156.4548 H   0  0  0  0  0  0  0  0  0  0  0  0
  149.3093  134.6545  153.6552 H   0  0  0  0  0  0  0  0  0  0  0  0
  148.7099  132.4999  154.3853 H   0  0  0  0  0  0  0  0  0  0  0  0
  146.8354  133.6632  154.9915 H   0  0  0  0  0  0  0  0  0  0  0  0
  146.8785  135.3999  154.8574 H   0  0  0  0  0  0  0  0  0  0  0  0
  144.7933  134.1229  153.2877 H   0  0  0  0  0  0  0  0  0  0  0  0
  145.2821  135.7969  153.1969 H   0  0  0  0  0  0  0  0  0  0  0  0
  144.0889  135.1314  151.1209 H   0  0  0  0  0  0  0  0  0  0  0  0
  145.7247  135.6373  150.7973 H   0  0  0  0  0  0  0  0  0  0  0  0
  145.3616  133.6783  149.4936 H   0  0  0  0  0  0  0  0  0  0  0  0
  144.3886  132.1720  151.9659 H   0  0  0  0  0  0  0  0  0  0  0  0
  144.6028  131.5048  150.3527 H   0  0  0  0  0  0  0  0  0  0  0  0
  143.3885  132.7426  150.6359 H   0  0  0  0  0  0  0  0  0  0  0  0
  147.0723  132.0913  150.4631 H   0  0  0  0  0  0  0  0  0  0  0  0
  147.5647  133.7615  150.3919 H   0  0  0  0  0  0  0  0  0  0  0  0
  148.2155  132.8274  152.5512 H   0  0  0  0  0  0  0  0  0  0  0  0
  146.5815  132.3065  152.9022 H   0  0  0  0  0  0  0  0  0  0  0  0
  147.4584  135.0638  152.5063 H   0  0  0  0  0  0  0  0  0  0  0  0
  1  2  1  0  0  0  0
  1 24  1  0  0  0  0
  1 25  1  0  0  0  0
  1 26  1  0  0  0  0
  2  3  1  0  0  0  0
  2 27  1  0  0  0  0
  2 28  1  0  0  0  0
  3 22  1  0  0  0  0
  3  4  1  0  0  0  0
  4  5  2  0  0  0  0
  4 29  1  0  0  0  0
  5  6  1  0  0  0  0
  5  8  1  0  0  0  0
  6  7  3  0  0  0  0
  8  9  2  0  0  0  0
  8 10  1  0  0  0  0
 10 11  1  0  0  0  0
 10 22  1  0  0  0  0
 11 12  1  0  0  0  0
 11 30  1  0  0  0  0
 11 31  1  0  0  0  0
 12 13  1  0  0  0  0
 12 14  1  0  0  0  0
 12 32  1  0  0  0  0
 13 33  1  0  0  0  0
 14 15  1  0  0  0  0
 14 34  1  0  0  0  0
 14 35  1  0  0  0  0
 15 21  1  0  0  0  0
 15 16  1  0  0  0  0
 15 48  1  0  0  0  0
 16 17  1  0  0  0  0
 16 36  1  0  0  0  0
 16 37  1  0  0  0  0
 17 18  1  0  0  0  0
 17 38  1  0  0  0  0
 17 39  1  0  0  0  0
 18 19  1  0  0  0  0
 18 20  1  0  0  0  0
 18 40  1  0  0  0  0
 19 41  1  0  0  0  0
 19 42  1  0  0  0  0
 19 43  1  0  0  0  0
 20 21  1  0  0  0  0
 20 44  1  0  0  0  0
 20 45  1  0  0  0  0
 21 46  1  0  0  0  0
 21 47  1  0  0  0  0
 22 23  2  0  0  0  0
M  CHG  1  15   1
M  END
> <s_m_source_file>
AV-unprocessed.smi

> <i_m_source_file_index>
1106

> <i_lp_mmshare_version>
43012

> <i_f3d_flags>
0

> <s_epik_input>
W0NIM11bQ0gyXW4xW2NIXWMoQyNOKWMoPU8pbihjMT1PKVtDSDJdW0NASF0oW09IXSlbQ0gyXU4yW0NIMl1bQ0gyXVtDSF0oW0NIM10pW0NIMl1bQ0gyXTI=

> <s_epik_cmdline>
J2VwaWtfcHl0aG9uJywgJy1waCcsICc3LjAnLCAnLXRuJywgJzgnLCAnLW1hJywgJzIwMCcsICctbWV0YWxfYmluZGluZycsICctaW1hZScsICc8aW5maWxlLm1hZT4nLCAnLW9tYWUnLCAnPG91dGZpbGUubWFlPic=

> <r_epik_Ionization_Penalty>
0.00136816

> <r_epik_Ionization_Penalty_Charging>
0.00136813

> <r_epik_Ionization_Penalty_Neutral>
3.19882e-08

> <r_epik_State_Penalty>
0.000910892

> <r_epik_Charging_Adjusted_Penalty>
0.00227902

> <i_epik_Tot_Q>
1

> <i_epik_Tot_abs_Q>
1

> <r_epik_Metal_State_Penalty>
-0

> <b_epik_Metal_Only>
0

> <s_lp_Force_Field>
OPLS_2005

> <r_lp_Energy>
30.5318

> <b_lp_Chiralities_Consistent>
1

> <s_lp_Variant>
AV-unprocessed.smi:1106-4

> <Gold.Version>
5.8.1

> <Gold.Id.Protein>
6NUR|6NUR_protein|mol2

> <Gold.PLP.Fitness>
48.5964

> <Gold.PLP.PLP>
-38.8952

> <Gold.PLP.part.hbond>
-2.9867

> <Gold.PLP.part.metal>
0.0000

> <Gold.PLP.part.buried>
-4.2796

> <Gold.PLP.part.nonpolar>
-31.5800

> <Gold.PLP.part.repulsive>
0.1330

> <Gold.PLP.ligand.clash>
0.0000

> <Gold.PLP.ligand.torsion>
1.1707

> <Gold.PLP.Chemscore.Hbond>
4.0000

> <Gold.PLP.Chemscore.CHOScore>
0.0000

> <Gold.PLP.Chemscore.Metal>
0.0000

> <Gold.Chemscore.Hbonds>
donor molecule, donor type, donor heavy atom, donor atom, acceptor molecule, acceptor atom, score
      L1  H    15    48       P1  7948  2.00
      P1  H  7997  8009       L1     7  1.00
      P1  H 10752 10763       L1     9  1.00
      L1  C     4    29       P1  7957  0.05

> <Gold.PLP.Chemscore.Internal.Correction>
0.0425

> <Gold.Rescore>
     Score         DG    S(hbond)    S(metal)    S(lipo)     H(rot)  DE(clash)    DE(int)     intcor
     14.16     -18.13       2.95        0.00      78.25       2.48       0.22       3.74       ----

> <Gold.Chemscore.Fitness>
14.1637

> <Gold.Chemscore.DG>
-18.1305

> <Gold.Chemscore.ZeroCoef>
-5.4800

> <Gold.Chemscore.Hbond>
2.9503

> <Gold.Chemscore.Metal>
0.0000

> <Gold.Chemscore.Lipo>
78.2479

> <Gold.Chemscore.Internal_Hbond>
0.0000

> <Gold.Chemscore.DEClash>
0.2218

> <Gold.Chemscore.DEInternal>
3.7450

> <Gold.Chemscore.Rot>
2.4838

> <Gold.Chemscore.Internal.Correction>
   9.000000E+99

> <Gold.Chemscore.Hbonds>
donor molecule, donor type, donor heavy atom, donor atom, acceptor molecule, acceptor atom, score
      L1  H    15    48       P1  7948  0.97
      P1  H  7997  8009       L1     7  0.99
      P1  H 10752 10763       L1     9  0.94

> <Gold.Chemscore.Hbond.Weighted>
-9.8539

> <Gold.Chemscore.Metal.Weighted>
-0.0000

> <Gold.Chemscore.Lipo.Weighted>
-9.1550

> <Gold.Chemscore.Internal_Hbond.Weighted>
0.0000

> <Gold.Chemscore.DEClash.Weighted>
0.2218

> <Gold.Chemscore.DEInternal.Weighted>
3.7450

> <Gold.Chemscore.Rot.Weighted>
6.3585

> <Gold.Chemscore.Internal.Correction.Weighted>
   9.000000E+99

> <Gold.Protein.RotatedTorsions>
[ 6907 6896 6895 6894 ] final  136.08 input  -60.11 | X-H torsion
[ 7974 7965 7964 7962 ] final  117.83 input  175.53 | X-H torsion
[ 8008 7997 7996 7995 ] final -116.84 input   59.86 | X-H torsion
[ 10167 10162 10161 10158 ] final  -46.33 input  -65.29 | X-H torsion
[ 10718 10713 10712 10709 ] final  169.62 input   66.30 | X-H torsion
[ 10763 10752 10751 10750 ] final   57.73 input  -60.55 | X-H torsion
[ 11005 11000 10999 10996 ] final -116.65 input  -57.11 | X-H torsion

> <Gold.Protein.ActiveResidues>
 VAL166  LYS551  ARG553  GLY616  TRP617  ASP618  TYR619  PRO620  LYS621  CYS622 
 ASP623  PHE694  ASN695  SER759  ASP760  ASP761  ALA762  ILE779  LEU786  VAL792 
 PHE793  MET794  SER795  GLU796  ALA797  LYS798  CYS799  TRP800  GLU811  SER814 

> <Gold.Protein.RotatedAtoms>
  152.2933  133.5582  159.5571 H   0  0  0  0  0  0  0  0  0  0  0  0  # atno 6907 bound_to 6896
  150.7245  134.0397  159.3770 H   0  0  0  0  0  0  0  0  0  0  0  0  # atno 6908 bound_to 6896
  151.8302  135.0624  160.0486 H   0  0  0  0  0  0  0  0  0  0  0  0  # atno 6909 bound_to 6896
  145.1626  139.3146  143.4509 H   0  0  0  0  0  0  0  0  0  0  0  0  # atno 7974 bound_to 7965
  155.0743  140.0393  157.2618 H   0  0  0  0  0  0  0  0  0  0  0  0  # atno 8008 bound_to 7997
  154.6958  140.2663  155.6743 H   0  0  0  0  0  0  0  0  0  0  0  0  # atno 8009 bound_to 7997
  156.2744  140.2750  156.1551 H   0  0  0  0  0  0  0  0  0  0  0  0  # atno 8010 bound_to 7997
  140.6821  143.2836  151.3768 H   0  0  0  0  0  0  0  0  0  0  0  0  # atno 10167 bound_to 10162
  157.0201  131.0229  151.2777 H   0  0  0  0  0  0  0  0  0  0  0  0  # atno 10718 bound_to 10713
  152.9856  135.5631  154.5438 H   0  0  0  0  0  0  0  0  0  0  0  0  # atno 10763 bound_to 10752
  154.4888  135.2792  155.1515 H   0  0  0  0  0  0  0  0  0  0  0  0  # atno 10764 bound_to 10752
  154.2993  135.6310  153.5471 H   0  0  0  0  0  0  0  0  0  0  0  0  # atno 10765 bound_to 10752
  141.0408  133.9839  157.2998 H   0  0  0  0  0  0  0  0  0  0  0  0  # atno 11005 bound_to 11000
  146.3480  140.1742  142.8589 LP  0  0  0  0  0  0  0  0  0  0  0  0  # atno 17320 bound_to 7965
  145.0315  140.8875  143.5106 LP  0  0  0  0  0  0  0  0  0  0  0  0  # atno 17321 bound_to 7965
  139.6152  144.1017  152.2338 LP  0  0  0  0  0  0  0  0  0  0  0  0  # atno 17342 bound_to 10162
  140.0444  144.5982  150.7385 LP  0  0  0  0  0  0  0  0  0  0  0  0  # atno 17343 bound_to 10162
  157.5256  130.8026  149.7858 LP  0  0  0  0  0  0  0  0  0  0  0  0  # atno 17370 bound_to 10713
  156.0105  130.3835  150.2280 LP  0  0  0  0  0  0  0  0  0  0  0  0  # atno 17371 bound_to 10713
  139.9274  135.0201  156.8282 LP  0  0  0  0  0  0  0  0  0  0  0  0  # atno 17394 bound_to 11000
  140.6238  133.9969  155.7630 LP  0  0  0  0  0  0  0  0  0  0  0  0  # atno 17395 bound_to 11000

$$$$
