AV-unprocessed.smi:2032|AV-procd|sdf|8254|dock7
  -GOLD-   2272010523D 1   1.00000     0.00000
 Structure written by MMmdl.
 42 43  0  0  0  0  0  0  0  0  3 V2000
  148.9421  141.5758  154.8390 C   0  0  0  0  0  0  0  0  0  0  0  0
  149.4536  140.1422  155.0184 C   0  0  1  0  0  0  0  0  0  0  0  0
  148.8108  139.1683  154.0068 C   0  0  0  0  0  0  0  0  0  0  0  0
  149.3692  137.7957  154.1515 N   0  3  2  0  0  0  0  0  0  0  0  0
  148.9025  137.0322  155.3600 C   0  0  1  0  0  0  0  0  0  0  0  0
  147.3813  137.2021  155.5924 C   0  0  0  0  0  0  0  0  0  0  0  0
  149.2570  135.5210  155.2687 C   0  0  0  0  0  0  0  0  0  0  0  0
  148.6158  134.8532  154.1395 N   0  0  0  0  0  0  0  0  0  0  0  0
  147.6518  133.9254  154.2276 C   0  0  0  0  0  0  0  0  0  0  0  0
  147.2539  133.5568  155.3355 O   0  0  0  0  0  0  0  0  0  0  0  0
  147.2042  133.4906  153.0290 N   0  5  0  0  0  0  0  0  0  0  0  0
  146.1717  134.1097  152.4339 C   0  0  0  0  0  0  0  0  0  0  0  0
  145.3259  133.4867  151.6055 N   0  0  0  0  0  0  0  0  0  0  0  0
  144.3300  134.3229  151.0975 C   0  0  0  0  0  0  0  0  0  0  0  0
  144.4248  135.6146  151.5432 C   0  0  0  0  0  0  0  0  0  0  0  0
  145.7765  135.8209  152.6201 S   0  0  0  0  0  0  0  0  0  0  0  0
  150.8451  137.8883  153.9775 C   0  0  0  0  0  0  0  0  0  0  0  0
  151.4683  138.8720  154.9910 C   0  0  1  0  0  0  0  0  0  0  0  0
  152.9785  139.0299  154.7818 C   0  0  0  0  0  0  0  0  0  0  0  0
  150.8647  140.1514  154.8203 O   0  0  0  0  0  0  0  0  0  0  0  0
  147.8649  141.6305  154.9975 H   0  0  0  0  0  0  0  0  0  0  0  0
  149.1526  141.9492  153.8363 H   0  0  0  0  0  0  0  0  0  0  0  0
  149.4166  142.2508  155.5518 H   0  0  0  0  0  0  0  0  0  0  0  0
  149.2355  139.8287  156.0402 H   0  0  0  0  0  0  0  0  0  0  0  0
  147.7249  139.1863  154.0724 H   0  0  0  0  0  0  0  0  0  0  0  0
  149.0300  139.5140  152.9954 H   0  0  0  0  0  0  0  0  0  0  0  0
  149.4053  137.4394  156.2361 H   0  0  0  0  0  0  0  0  0  0  0  0
  147.0180  136.5771  156.4078 H   0  0  0  0  0  0  0  0  0  0  0  0
  146.8123  136.9370  154.7009 H   0  0  0  0  0  0  0  0  0  0  0  0
  147.1176  138.2196  155.8777 H   0  0  0  0  0  0  0  0  0  0  0  0
  150.3356  135.3961  155.1697 H   0  0  0  0  0  0  0  0  0  0  0  0
  148.9615  134.9694  156.1591 H   0  0  0  0  0  0  0  0  0  0  0  0
  148.9170  135.1229  153.2142 H   0  0  0  0  0  0  0  0  0  0  0  0
  143.5936  133.9139  150.4219 H   0  0  0  0  0  0  0  0  0  0  0  0
  143.7879  136.4530  151.3047 H   0  0  0  0  0  0  0  0  0  0  0  0
  151.3365  136.9194  154.0129 H   0  0  0  0  0  0  0  0  0  0  0  0
  151.0397  138.2541  152.9681 H   0  0  0  0  0  0  0  0  0  0  0  0
  151.3020  138.5258  156.0118 H   0  0  0  0  0  0  0  0  0  0  0  0
  153.4935  138.0774  154.9091 H   0  0  0  0  0  0  0  0  0  0  0  0
  153.4002  139.7331  155.5002 H   0  0  0  0  0  0  0  0  0  0  0  0
  153.2028  139.4009  153.7811 H   0  0  0  0  0  0  0  0  0  0  0  0
  149.0258  137.2686  153.3614 H   0  0  0  0  0  0  0  0  0  0  0  0
  1  2  1  0  0  0  0
  1 21  1  0  0  0  0
  1 22  1  0  0  0  0
  1 23  1  0  0  0  0
  2 20  1  0  0  0  0
  2  3  1  0  0  0  0
  2 24  1  0  0  0  0
  3  4  1  0  0  0  0
  3 25  1  0  0  0  0
  3 26  1  0  0  0  0
  4  5  1  0  0  0  0
  4 17  1  0  0  0  0
  4 42  1  0  0  0  0
  5  6  1  0  0  0  0
  5  7  1  0  0  0  0
  5 27  1  0  0  0  0
  6 28  1  0  0  0  0
  6 29  1  0  0  0  0
  6 30  1  0  0  0  0
  7  8  1  0  0  0  0
  7 31  1  0  0  0  0
  7 32  1  0  0  0  0
  8  9  1  0  0  0  0
  8 33  1  0  0  0  0
  9 10  2  0  0  0  0
  9 11  1  0  0  0  0
 11 12  1  0  0  0  0
 12 16  1  0  0  0  0
 12 13  2  0  0  0  0
 13 14  1  0  0  0  0
 14 15  2  0  0  0  0
 14 34  1  0  0  0  0
 15 16  1  0  0  0  0
 15 35  1  0  0  0  0
 17 18  1  0  0  0  0
 17 36  1  0  0  0  0
 17 37  1  0  0  0  0
 18 19  1  0  0  0  0
 18 20  1  0  0  0  0
 18 38  1  0  0  0  0
 19 39  1  0  0  0  0
 19 40  1  0  0  0  0
 19 41  1  0  0  0  0
M  CHG  1   4   1
M  CHG  1  11  -1
M  END
> <s_m_source_file>
AV-unprocessed.smi

> <i_m_source_file_index>
2032

> <i_lp_mmshare_version>
43012

> <i_f3d_flags>
0

> <s_epik_input>
W0NIM11bQ0BASF0xW0NIMl1OKFtDSDJdW0NASF0oTzEpW0NIM10pW0NASF0oW0NIM10pW0NIMl1bTkhdQyg9TylbTkhdYzJuW2NIXVtjSF1zMg==

> <s_epik_cmdline>
J2VwaWtfcHl0aG9uJywgJy1waCcsICc3LjAnLCAnLXRuJywgJzgnLCAnLW1hJywgJzIwMCcsICctbWV0YWxfYmluZGluZycsICctaW1hZScsICc8aW5maWxlLm1hZT4nLCAnLW9tYWUnLCAnPG91dGZpbGUubWFlPic=

> <r_lp_tautomer_probability>
0.999

> <r_epik_Ionization_Penalty>
6.71699

> <r_epik_Ionization_Penalty_Charging>
5.88592

> <r_epik_Ionization_Penalty_Neutral>
0.831074

> <r_epik_State_Penalty>
6.08365

> <r_epik_Charging_Adjusted_Penalty>
11.9696

> <i_epik_Tot_Q>
0

> <i_epik_Tot_abs_Q>
2

> <r_epik_Metal_State_Penalty>
2.0947

> <b_epik_Metal_Only>
1

> <s_lp_Force_Field>
OPLS_2005

> <r_lp_Energy>
10.9106

> <b_lp_Chiralities_Consistent>
1

> <s_lp_Variant>
AV-unprocessed.smi:2032-24

> <Gold.Version>
5.8.1

> <Gold.Id.Protein>
6NUR|6NUR_protein|mol2

> <Gold.PLP.Fitness>
43.8184

> <Gold.PLP.PLP>
-27.9325

> <Gold.PLP.part.hbond>
-3.0000

> <Gold.PLP.part.metal>
0.0000

> <Gold.PLP.part.buried>
-1.5003

> <Gold.PLP.part.nonpolar>
-24.2214

> <Gold.PLP.part.repulsive>
0.3098

> <Gold.PLP.ligand.clash>
0.0000

> <Gold.PLP.ligand.torsion>
1.1136

> <Gold.PLP.Chemscore.Hbond>
4.0000

> <Gold.PLP.Chemscore.CHOScore>
2.0000

> <Gold.PLP.Chemscore.Metal>
0.0000

> <Gold.Chemscore.Hbonds>
donor molecule, donor type, donor heavy atom, donor atom, acceptor molecule, acceptor atom, score
      L1  H     4    42       P1  7948  2.00
      L1  H     8    33       P1  7948  1.00
      P1  H  7989  7998       L1    20  1.00
      L1  C    14    34       P1 10186  0.39
      L1  C    15    35       P1 10171  0.84

> <Gold.PLP.Chemscore.Internal.Correction>
0.1132

> <Gold.Rescore>
     Score         DG    S(hbond)    S(metal)    S(lipo)     H(rot)  DE(clash)    DE(int)     intcor
     16.78     -18.09       2.75        0.00      63.84       1.58       0.13       1.19       ----

> <Gold.Chemscore.Fitness>
16.7757

> <Gold.Chemscore.DG>
-18.0947

> <Gold.Chemscore.ZeroCoef>
-5.4800

> <Gold.Chemscore.Hbond>
2.7510

> <Gold.Chemscore.Metal>
0.0000

> <Gold.Chemscore.Lipo>
63.8377

> <Gold.Chemscore.Internal_Hbond>
0.0000

> <Gold.Chemscore.DEClash>
0.1267

> <Gold.Chemscore.DEInternal>
1.1924

> <Gold.Chemscore.Rot>
1.5791

> <Gold.Chemscore.Internal.Correction>
   9.000000E+99

> <Gold.Chemscore.Hbonds>
donor molecule, donor type, donor heavy atom, donor atom, acceptor molecule, acceptor atom, score
      L1  H     4    42       P1  7948  1.00
      L1  H     8    33       P1  7948  0.39
      P1  H  7989  7998       L1    20  0.60

> <Gold.Chemscore.Hbond.Weighted>
-9.1882

> <Gold.Chemscore.Metal.Weighted>
-0.0000

> <Gold.Chemscore.Lipo.Weighted>
-7.4690

> <Gold.Chemscore.Internal_Hbond.Weighted>
0.0000

> <Gold.Chemscore.DEClash.Weighted>
0.1267

> <Gold.Chemscore.DEInternal.Weighted>
1.1924

> <Gold.Chemscore.Rot.Weighted>
4.0425

> <Gold.Chemscore.Internal.Correction.Weighted>
   9.000000E+99

> <Gold.Protein.RotatedTorsions>
[ 6907 6896 6895 6894 ] final   80.08 input  -60.11 | X-H torsion
[ 7974 7965 7964 7962 ] final  157.83 input  175.53 | X-H torsion
[ 8008 7997 7996 7995 ] final  140.09 input   59.86 | X-H torsion
[ 10167 10162 10161 10158 ] final   24.42 input  -65.29 | X-H torsion
[ 10718 10713 10712 10709 ] final   56.12 input   66.30 | X-H torsion
[ 10763 10752 10751 10750 ] final  -17.78 input  -60.55 | X-H torsion
[ 11005 11000 10999 10996 ] final  131.59 input  -57.11 | X-H torsion

> <Gold.Protein.ActiveResidues>
 VAL166  LYS551  ARG553  GLY616  TRP617  ASP618  TYR619  PRO620  LYS621  CYS622 
 ASP623  PHE694  ASN695  SER759  ASP760  ASP761  ALA762  ILE779  LEU786  VAL792 
 PHE793  MET794  SER795  GLU796  ALA797  LYS798  CYS799  TRP800  GLU811  SER814 

> <Gold.Protein.RotatedAtoms>
  152.5222  134.3413  159.9217 H   0  0  0  0  0  0  0  0  0  0  0  0  # atno 6907 bound_to 6896
  151.3363  133.3974  159.2675 H   0  0  0  0  0  0  0  0  0  0  0  0  # atno 6908 bound_to 6896
  150.9839  134.9207  159.7918 H   0  0  0  0  0  0  0  0  0  0  0  0  # atno 6909 bound_to 6896
  144.7881  139.7394  143.6233 H   0  0  0  0  0  0  0  0  0  0  0  0  # atno 7974 bound_to 7965
  156.2983  140.2350  156.4344 H   0  0  0  0  0  0  0  0  0  0  0  0  # atno 8008 bound_to 7997
  154.8242  140.0436  157.1452 H   0  0  0  0  0  0  0  0  0  0  0  0  # atno 8009 bound_to 7997
  154.9281  140.3013  155.5185 H   0  0  0  0  0  0  0  0  0  0  0  0  # atno 8010 bound_to 7997
  140.5190  144.0035  150.6407 H   0  0  0  0  0  0  0  0  0  0  0  0  # atno 10167 bound_to 10162
  157.5403  130.8693  149.8813 H   0  0  0  0  0  0  0  0  0  0  0  0  # atno 10718 bound_to 10713
  153.5791  135.7005  153.5471 H   0  0  0  0  0  0  0  0  0  0  0  0  # atno 10763 bound_to 10752
  153.3277  135.4056  155.1469 H   0  0  0  0  0  0  0  0  0  0  0  0  # atno 10764 bound_to 10752
  154.8620  135.3711  154.5317 H   0  0  0  0  0  0  0  0  0  0  0  0  # atno 10765 bound_to 10752
  139.9739  134.9569  156.9460 H   0  0  0  0  0  0  0  0  0  0  0  0  # atno 11005 bound_to 11000
  146.2121  139.5485  142.9674 LP  0  0  0  0  0  0  0  0  0  0  0  0  # atno 17320 bound_to 7965
  145.5868  141.0375  143.2092 LP  0  0  0  0  0  0  0  0  0  0  0  0  # atno 17321 bound_to 7965
  140.3378  143.3038  152.0620 LP  0  0  0  0  0  0  0  0  0  0  0  0  # atno 17342 bound_to 10162
  139.4917  144.6464  151.6770 LP  0  0  0  0  0  0  0  0  0  0  0  0  # atno 17343 bound_to 10162
  156.0492  130.3721  150.1243 LP  0  0  0  0  0  0  0  0  0  0  0  0  # atno 17370 bound_to 10713
  156.9423  130.9748  151.3514 LP  0  0  0  0  0  0  0  0  0  0  0  0  # atno 17371 bound_to 10713
  140.5235  134.0884  155.7298 LP  0  0  0  0  0  0  0  0  0  0  0  0  # atno 17394 bound_to 11000
  141.1418  133.9125  157.2309 LP  0  0  0  0  0  0  0  0  0  0  0  0  # atno 17395 bound_to 11000

$$$$
