AV-unprocessed.smi:1826|AV-procd|sdf|7417|dock4
  -GOLD-   22720 9 93D 1   1.00000     0.00000
 Structure written by MMmdl.
 40 42  0  0  0  0  0  0  0  0  2 V2000
  150.7527  140.1336  153.9262 O   0  0  0  0  0  0  0  0  0  0  0  0
  149.8347  140.8404  154.7305 C   0  0  0  0  0  0  0  0  0  0  0  0
  150.4737  141.4121  155.9527 C   0  0  0  0  0  0  0  0  0  0  0  0
  150.6328  142.7382  156.2245 N   0  3  0  0  0  0  0  0  0  0  0  0
  151.2661  142.8951  157.4583 C   0  0  0  0  0  0  0  0  0  0  0  0
  151.6399  144.0417  158.1524 C   0  0  0  0  0  0  0  0  0  0  0  0
  152.2732  143.8489  159.3980 C   0  0  0  0  0  0  0  0  0  0  0  0
  152.5116  142.5561  159.9086 C   0  0  0  0  0  0  0  0  0  0  0  0
  152.1276  141.4010  159.1960 C   0  0  0  0  0  0  0  0  0  0  0  0
  151.5030  141.6012  157.9654 C   0  0  0  0  0  0  0  0  0  0  0  0
  150.9989  140.7191  157.0042 N   0  0  0  0  0  0  0  0  0  0  0  0
  151.0935  139.2702  157.2403 C   0  0  0  0  0  0  0  0  0  0  0  0
  152.5467  138.7551  157.2564 C   0  0  2  0  0  0  0  0  0  0  0  0
  152.7242  137.7856  156.2413 O   0  0  0  0  0  0  0  0  0  0  0  0
  152.9278  138.2276  158.6305 C   0  0  0  0  0  0  0  0  0  0  0  0
  154.2461  137.7912  158.8780 C   0  0  0  0  0  0  0  0  0  0  0  0
  154.6084  137.3101  160.1511 C   0  0  0  0  0  0  0  0  0  0  0  0
  153.6588  137.2645  161.1945 C   0  0  0  0  0  0  0  0  0  0  0  0
  154.0489  136.7343  162.5665 C   0  0  0  0  0  0  0  0  0  0  0  0
  154.3139  135.4284  162.5157 F   0  0  0  0  0  0  0  0  0  0  0  0
  155.1364  137.3765  162.9910 F   0  0  0  0  0  0  0  0  0  0  0  0
  153.0662  136.9256  163.4474 F   0  0  0  0  0  0  0  0  0  0  0  0
  152.3391  137.6988  160.9447 C   0  0  0  0  0  0  0  0  0  0  0  0
  151.9764  138.1807  159.6722 C   0  0  0  0  0  0  0  0  0  0  0  0
  150.4109  140.0905  153.0459 H   0  0  0  0  0  0  0  0  0  0  0  0
  149.3870  141.6426  154.1437 H   0  0  0  0  0  0  0  0  0  0  0  0
  149.0270  140.1688  155.0228 H   0  0  0  0  0  0  0  0  0  0  0  0
  151.4581  145.0330  157.7636 H   0  0  0  0  0  0  0  0  0  0  0  0
  152.5824  144.7097  159.9732 H   0  0  0  0  0  0  0  0  0  0  0  0
  152.9991  142.4480  160.8667 H   0  0  0  0  0  0  0  0  0  0  0  0
  152.3145  140.4150  159.5949 H   0  0  0  0  0  0  0  0  0  0  0  0
  150.5892  139.0420  158.1802 H   0  0  0  0  0  0  0  0  0  0  0  0
  150.5211  138.7689  156.4590 H   0  0  0  0  0  0  0  0  0  0  0  0
  153.2173  139.5798  157.0124 H   0  0  0  0  0  0  0  0  0  0  0  0
  153.4660  138.0385  155.7130 H   0  0  0  0  0  0  0  0  0  0  0  0
  154.9868  137.8230  158.0923 H   0  0  0  0  0  0  0  0  0  0  0  0
  155.6206  136.9742  160.3224 H   0  0  0  0  0  0  0  0  0  0  0  0
  151.5969  137.6638  161.7287 H   0  0  0  0  0  0  0  0  0  0  0  0
  150.9640  138.5157  159.4991 H   0  0  0  0  0  0  0  0  0  0  0  0
  150.3263  143.4801  155.6085 H   0  0  0  0  0  0  0  0  0  0  0  0
  1  2  1  0  0  0  0
  1 25  1  0  0  0  0
  2  3  1  0  0  0  0
  2 26  1  0  0  0  0
  2 27  1  0  0  0  0
  3 11  1  0  0  0  0
  3  4  2  0  0  0  0
  4  5  1  0  0  0  0
  4 40  1  0  0  0  0
  5 10  2  0  0  0  0
  5  6  1  0  0  0  0
  6  7  2  0  0  0  0
  6 28  1  0  0  0  0
  7  8  1  0  0  0  0
  7 29  1  0  0  0  0
  8  9  2  0  0  0  0
  8 30  1  0  0  0  0
  9 10  1  0  0  0  0
  9 31  1  0  0  0  0
 10 11  1  0  0  0  0
 11 12  1  0  0  0  0
 12 13  1  0  0  0  0
 12 32  1  0  0  0  0
 12 33  1  0  0  0  0
 13 14  1  0  0  0  0
 13 15  1  0  0  0  0
 13 34  1  0  0  0  0
 14 35  1  0  0  0  0
 15 24  1  0  0  0  0
 15 16  2  0  0  0  0
 16 17  1  0  0  0  0
 16 36  1  0  0  0  0
 17 18  2  0  0  0  0
 17 37  1  0  0  0  0
 18 19  1  0  0  0  0
 18 23  1  0  0  0  0
 19 20  1  0  0  0  0
 19 21  1  0  0  0  0
 19 22  1  0  0  0  0
 23 24  2  0  0  0  0
 23 38  1  0  0  0  0
 24 39  1  0  0  0  0
M  CHG  1   4   1
M  END
> <s_m_source_file>
AV-unprocessed.smi

> <i_m_source_file_index>
1826

> <i_lp_mmshare_version>
43012

> <i_f3d_flags>
0

> <s_epik_input>
W2NIXTFbY0hdW2NIXVtjSF1jKGMxMiluKGMobjIpW0NIMl1bT0hdKVtDSDJdW0NASF0oW09IXSljM1tjSF1bY0hdYyhDKEYpKEYpRilbY0hdW2NIXTM=

> <s_epik_cmdline>
J2VwaWtfcHl0aG9uJywgJy1waCcsICc3LjAnLCAnLXRuJywgJzgnLCAnLW1hJywgJzIwMCcsICctbWV0YWxfYmluZGluZycsICctaW1hZScsICc8aW5maWxlLm1hZT4nLCAnLW9tYWUnLCAnPG91dGZpbGUubWFlPic=

> <r_epik_Ionization_Penalty>
1.35643

> <r_epik_Ionization_Penalty_Charging>
1.35557

> <r_epik_Ionization_Penalty_Neutral>
0.000856405

> <r_epik_State_Penalty>
1.43401

> <r_epik_Charging_Adjusted_Penalty>
2.78958

> <i_epik_Tot_Q>
1

> <i_epik_Tot_abs_Q>
1

> <r_epik_Metal_State_Penalty>
5.47166

> <b_epik_Metal_Only>
0

> <s_lp_Force_Field>
OPLS_2005

> <r_lp_Energy>
15.9337

> <b_lp_Chiralities_Consistent>
1

> <s_lp_Variant>
AV-unprocessed.smi:1826-3

> <Gold.Version>
5.8.1

> <Gold.Id.Protein>
6NUR|6NUR_protein|mol2

> <Gold.PLP.Fitness>
54.7829

> <Gold.PLP.PLP>
-45.4799

> <Gold.PLP.part.hbond>
-3.0000

> <Gold.PLP.part.metal>
0.0000

> <Gold.PLP.part.buried>
-6.9141

> <Gold.PLP.part.nonpolar>
-36.8580

> <Gold.PLP.part.repulsive>
0.1030

> <Gold.PLP.ligand.clash>
1.1411

> <Gold.PLP.ligand.torsion>
1.0133

> <Gold.PLP.Chemscore.Hbond>
3.6880

> <Gold.PLP.Chemscore.CHOScore>
0.0000

> <Gold.PLP.Chemscore.Metal>
0.0000

> <Gold.Chemscore.Hbonds>
donor molecule, donor type, donor heavy atom, donor atom, acceptor molecule, acceptor atom, score
      L1  H     1    25       P1  7957  0.98
      L1  H     4    40       P1  8028  1.38
      P1  H  7989  7998       L1     1  0.06

> <Gold.PLP.Chemscore.Internal.Correction>
1.4068

> <Gold.Rescore>
     Score         DG    S(hbond)    S(metal)    S(lipo)     H(rot)  DE(clash)    DE(int)     intcor
     16.52     -17.43       1.98        0.00     110.89       2.98       0.00       0.91       ----

> <Gold.Chemscore.Fitness>
16.5193

> <Gold.Chemscore.DG>
-17.4268

> <Gold.Chemscore.ZeroCoef>
-5.4800

> <Gold.Chemscore.Hbond>
1.9782

> <Gold.Chemscore.Metal>
0.0000

> <Gold.Chemscore.Lipo>
110.8880

> <Gold.Chemscore.Internal_Hbond>
0.0000

> <Gold.Chemscore.DEClash>
0.0000

> <Gold.Chemscore.DEInternal>
0.9075

> <Gold.Chemscore.Rot>
2.9822

> <Gold.Chemscore.Internal.Correction>
   9.000000E+99

> <Gold.Chemscore.Hbonds>
donor molecule, donor type, donor heavy atom, donor atom, acceptor molecule, acceptor atom, score
      L1  H     1    25       P1  7957  0.92
      L1  H     4    40       P1  8028  0.70

> <Gold.Chemscore.Hbond.Weighted>
-6.6072

> <Gold.Chemscore.Metal.Weighted>
-0.0000

> <Gold.Chemscore.Lipo.Weighted>
-12.9739

> <Gold.Chemscore.Internal_Hbond.Weighted>
0.0000

> <Gold.Chemscore.DEClash.Weighted>
0.0000

> <Gold.Chemscore.DEInternal.Weighted>
0.9075

> <Gold.Chemscore.Rot.Weighted>
7.6343

> <Gold.Chemscore.Internal.Correction.Weighted>
   9.000000E+99

> <Gold.Protein.RotatedTorsions>
[ 6907 6896 6895 6894 ] final  151.63 input  -60.11 | X-H torsion
[ 7974 7965 7964 7962 ] final -105.84 input  175.53 | X-H torsion
[ 8008 7997 7996 7995 ] final  153.77 input   59.86 | X-H torsion
[ 10167 10162 10161 10158 ] final  161.18 input  -65.29 | X-H torsion
[ 10718 10713 10712 10709 ] final   40.85 input   66.30 | X-H torsion
[ 10763 10752 10751 10750 ] final -175.68 input  -60.55 | X-H torsion
[ 11005 11000 10999 10996 ] final  -64.40 input  -57.11 | X-H torsion

> <Gold.Protein.ActiveResidues>
 VAL166  LYS551  ARG553  GLY616  TRP617  ASP618  TYR619  PRO620  LYS621  CYS622 
 ASP623  PHE694  ASN695  SER759  ASP760  ASP761  ALA762  ILE779  LEU786  VAL792 
 PHE793  MET794  SER795  GLU796  ALA797  LYS798  CYS799  TRP800  GLU811  SER814 

> <Gold.Protein.RotatedAtoms>
  152.0979  133.4234  159.4573 H   0  0  0  0  0  0  0  0  0  0  0  0  # atno 6907 bound_to 6896
  150.6863  134.2795  159.4630 H   0  0  0  0  0  0  0  0  0  0  0  0  # atno 6908 bound_to 6896
  152.0652  134.9568  160.0625 H   0  0  0  0  0  0  0  0  0  0  0  0  # atno 6909 bound_to 6896
  145.2254  140.9150  143.3235 H   0  0  0  0  0  0  0  0  0  0  0  0  # atno 7974 bound_to 7965
  156.2565  140.1984  156.6542 H   0  0  0  0  0  0  0  0  0  0  0  0  # atno 8008 bound_to 7997
  154.6513  140.0571  156.9984 H   0  0  0  0  0  0  0  0  0  0  0  0  # atno 8009 bound_to 7997
  155.1413  140.3243  155.4454 H   0  0  0  0  0  0  0  0  0  0  0  0  # atno 8010 bound_to 7997
  139.4847  144.4562  151.8766 H   0  0  0  0  0  0  0  0  0  0  0  0  # atno 10167 bound_to 10162
  157.3869  130.7784  149.7238 H   0  0  0  0  0  0  0  0  0  0  0  0  # atno 10718 bound_to 10713
  154.5815  135.2836  155.0728 H   0  0  0  0  0  0  0  0  0  0  0  0  # atno 10763 bound_to 10752
  154.2062  135.6416  153.5105 H   0  0  0  0  0  0  0  0  0  0  0  0  # atno 10764 bound_to 10752
  153.0090  135.5481  154.6470 H   0  0  0  0  0  0  0  0  0  0  0  0  # atno 10765 bound_to 10752
  141.1423  133.6665  156.5827 H   0  0  0  0  0  0  0  0  0  0  0  0  # atno 11005 bound_to 11000
  144.9726  139.3864  143.6301 LP  0  0  0  0  0  0  0  0  0  0  0  0  # atno 17320 bound_to 7965
  146.3366  139.8831  142.8821 LP  0  0  0  0  0  0  0  0  0  0  0  0  # atno 17321 bound_to 7965
  140.4021  144.2479  150.5892 LP  0  0  0  0  0  0  0  0  0  0  0  0  # atno 17342 bound_to 10162
  140.5047  143.2307  151.8626 LP  0  0  0  0  0  0  0  0  0  0  0  0  # atno 17343 bound_to 10162
  155.9789  130.4046  150.3621 LP  0  0  0  0  0  0  0  0  0  0  0  0  # atno 17370 bound_to 10713
  157.1733  131.0374  151.2785 LP  0  0  0  0  0  0  0  0  0  0  0  0  # atno 17371 bound_to 10713
  140.3825  134.7511  157.4670 LP  0  0  0  0  0  0  0  0  0  0  0  0  # atno 17394 bound_to 11000
  140.0627  134.5973  155.8731 LP  0  0  0  0  0  0  0  0  0  0  0  0  # atno 17395 bound_to 11000

$$$$
