AV-unprocessed.smi:2840|AV-procd|sdf|10933|dock2
  -GOLD-   2272015383D 1   1.00000     0.00000
 Structure written by MMmdl.
 36 37  0  0  0  0  0  0  0  0  1 V2000
  153.9886  140.7969  160.4720 C   0  0  0  0  0  0  0  0  0  0  0  0
  153.5815  142.2801  160.4503 C   0  0  2  0  0  0  0  0  0  0  0  0
  152.5530  142.6022  161.5543 C   0  0  0  0  0  0  0  0  0  0  0  0
  152.1961  144.0969  161.5745 C   0  0  0  0  0  0  0  0  0  0  0  0
  151.6881  144.5690  160.2043 C   0  0  0  0  0  0  0  0  0  0  0  0
  152.7045  144.2513  159.0936 C   0  0  0  0  0  0  0  0  0  0  0  0
  153.0859  142.7572  159.0606 C   0  0  2  0  0  0  0  0  0  0  0  0
  151.9483  141.9675  158.5833 N   0  0  0  0  0  0  0  0  0  0  0  0
  151.2333  142.2005  157.4723 C   0  0  0  0  0  0  0  0  0  0  0  0
  151.4757  143.1144  156.6835 O   0  0  0  0  0  0  0  0  0  0  0  0
  150.2338  141.3100  157.3464 N   0  0  0  0  0  0  0  0  0  0  0  0
  149.2438  141.2377  156.3303 C   0  0  0  0  0  0  0  0  0  0  0  0
  147.9482  140.8967  156.7806 C   0  0  0  0  0  0  0  0  0  0  0  0
  146.8931  140.8054  155.8520 C   0  0  0  0  0  0  0  0  0  0  0  0
  147.1616  141.0561  154.4946 C   0  0  0  0  0  0  0  0  0  0  0  0
  148.4796  141.3867  154.1295 C   0  0  0  0  0  0  0  0  0  0  0  0
  149.4920  141.4757  155.0179 N   0  0  0  0  0  0  0  0  0  0  0  0
  153.1313  140.1403  160.3233 H   0  0  0  0  0  0  0  0  0  0  0  0
  154.4435  140.5312  161.4265 H   0  0  0  0  0  0  0  0  0  0  0  0
  154.7160  140.5792  159.6895 H   0  0  0  0  0  0  0  0  0  0  0  0
  154.4832  142.8512  160.6771 H   0  0  0  0  0  0  0  0  0  0  0  0
  151.6478  142.0123  161.4042 H   0  0  0  0  0  0  0  0  0  0  0  0
  152.9495  142.3117  162.5278 H   0  0  0  0  0  0  0  0  0  0  0  0
  151.4402  144.2880  162.3367 H   0  0  0  0  0  0  0  0  0  0  0  0
  153.0746  144.6779  161.8578 H   0  0  0  0  0  0  0  0  0  0  0  0
  150.7341  144.0896  159.9825 H   0  0  0  0  0  0  0  0  0  0  0  0
  151.4929  145.6414  160.2315 H   0  0  0  0  0  0  0  0  0  0  0  0
  152.3093  144.5621  158.1256 H   0  0  0  0  0  0  0  0  0  0  0  0
  153.6042  144.8459  159.2566 H   0  0  0  0  0  0  0  0  0  0  0  0
  153.9123  142.6547  158.3552 H   0  0  0  0  0  0  0  0  0  0  0  0
  151.6753  141.1860  159.1608 H   0  0  0  0  0  0  0  0  0  0  0  0
  150.1604  140.6137  158.0731 H   0  0  0  0  0  0  0  0  0  0  0  0
  147.7593  140.7078  157.8274 H   0  0  0  0  0  0  0  0  0  0  0  0
  145.8955  140.5485  156.1765 H   0  0  0  0  0  0  0  0  0  0  0  0
  146.3789  140.9963  153.7531 H   0  0  0  0  0  0  0  0  0  0  0  0
  148.7278  141.5857  153.0974 H   0  0  0  0  0  0  0  0  0  0  0  0
  1  2  1  0  0  0  0
  1 18  1  0  0  0  0
  1 19  1  0  0  0  0
  1 20  1  0  0  0  0
  2  7  1  0  0  0  0
  2  3  1  0  0  0  0
  2 21  1  0  0  0  0
  3  4  1  0  0  0  0
  3 22  1  0  0  0  0
  3 23  1  0  0  0  0
  4  5  1  0  0  0  0
  4 24  1  0  0  0  0
  4 25  1  0  0  0  0
  5  6  1  0  0  0  0
  5 26  1  0  0  0  0
  5 27  1  0  0  0  0
  6  7  1  0  0  0  0
  6 28  1  0  0  0  0
  6 29  1  0  0  0  0
  7  8  1  0  0  0  0
  7 30  1  0  0  0  0
  8  9  1  0  0  0  0
  8 31  1  0  0  0  0
  9 10  2  0  0  0  0
  9 11  1  0  0  0  0
 11 12  1  0  0  0  0
 11 32  1  0  0  0  0
 12 17  1  0  0  0  0
 12 13  2  0  0  0  0
 13 14  1  0  0  0  0
 13 33  1  0  0  0  0
 14 15  2  0  0  0  0
 14 34  1  0  0  0  0
 15 16  1  0  0  0  0
 15 35  1  0  0  0  0
 16 17  2  0  0  0  0
 16 36  1  0  0  0  0
M  END
> <s_m_source_file>
AV-unprocessed.smi

> <i_m_source_file_index>
2840

> <i_lp_mmshare_version>
43012

> <i_f3d_flags>
0

> <s_epik_input>
W0NIM11bQ0BASF0xW0NIMl1bQ0gyXVtDSDJdW0NIMl1bQ0BIXTFbTkhdQyg9TylbTkhdYzJbY0hdW2NIXVtjSF1bY0hdbjI=

> <s_epik_cmdline>
J2VwaWtfcHl0aG9uJywgJy1waCcsICc3LjAnLCAnLXRuJywgJzgnLCAnLW1hJywgJzIwMCcsICctbWV0YWxfYmluZGluZycsICctaW1hZScsICc8aW5maWxlLm1hZT4nLCAnLW9tYWUnLCAnPG91dGZpbGUubWFlPic=

> <r_lp_tautomer_probability>
1

> <r_epik_Ionization_Penalty>
5.29956e-05

> <r_epik_Ionization_Penalty_Charging>
0

> <r_epik_Ionization_Penalty_Neutral>
5.29956e-05

> <r_epik_State_Penalty>
-0

> <r_epik_Charging_Adjusted_Penalty>
0

> <i_epik_Tot_Q>
0

> <i_epik_Tot_abs_Q>
0

> <r_epik_Metal_State_Penalty>
-0

> <b_epik_Metal_Only>
0

> <s_lp_Force_Field>
OPLS_2005

> <r_lp_Energy>
11.7155

> <b_lp_Chiralities_Consistent>
1

> <s_lp_Variant>
AV-unprocessed.smi:2840-3

> <Gold.Version>
5.8.1

> <Gold.Id.Protein>
6NUR|6NUR_protein|mol2

> <Gold.PLP.Fitness>
37.5239

> <Gold.PLP.PLP>
-35.2482

> <Gold.PLP.part.hbond>
-0.2453

> <Gold.PLP.part.metal>
0.0000

> <Gold.PLP.part.buried>
-2.8033

> <Gold.PLP.part.nonpolar>
-31.6142

> <Gold.PLP.part.repulsive>
0.3737

> <Gold.PLP.ligand.clash>
0.0000

> <Gold.PLP.ligand.torsion>
0.3586

> <Gold.PLP.Chemscore.Hbond>
0.0000

> <Gold.PLP.Chemscore.CHOScore>
0.9953

> <Gold.PLP.Chemscore.Metal>
0.0000

> <Gold.Chemscore.Hbonds>
donor molecule, donor type, donor heavy atom, donor atom, acceptor molecule, acceptor atom, score
      L1  C    16    36       P1  7957  0.79

> <Gold.PLP.Chemscore.Internal.Correction>
0.0070

> <Gold.Rescore>
     Score         DG    S(hbond)    S(metal)    S(lipo)     H(rot)  DE(clash)    DE(int)     intcor
     11.21     -14.67       0.03        0.00      99.61       1.00       1.24       2.22       ----

> <Gold.Chemscore.Fitness>
11.2125

> <Gold.Chemscore.DG>
-14.6707

> <Gold.Chemscore.ZeroCoef>
-5.4800

> <Gold.Chemscore.Hbond>
0.0287

> <Gold.Chemscore.Metal>
0.0000

> <Gold.Chemscore.Lipo>
99.6149

> <Gold.Chemscore.Internal_Hbond>
0.0000

> <Gold.Chemscore.DEClash>
1.2412

> <Gold.Chemscore.DEInternal>
2.2170

> <Gold.Chemscore.Rot>
1.0000

> <Gold.Chemscore.Internal.Correction>
   9.000000E+99

> <Gold.Chemscore.Hbond.Weighted>
-0.0957

> <Gold.Chemscore.Metal.Weighted>
-0.0000

> <Gold.Chemscore.Lipo.Weighted>
-11.6549

> <Gold.Chemscore.Internal_Hbond.Weighted>
0.0000

> <Gold.Chemscore.DEClash.Weighted>
1.2412

> <Gold.Chemscore.DEInternal.Weighted>
2.2170

> <Gold.Chemscore.Rot.Weighted>
2.5600

> <Gold.Chemscore.Internal.Correction.Weighted>
   9.000000E+99

> <Gold.Protein.RotatedTorsions>
[ 6907 6896 6895 6894 ] final  102.94 input  -60.11 | X-H torsion
[ 7974 7965 7964 7962 ] final  -97.08 input  175.53 | X-H torsion
[ 8008 7997 7996 7995 ] final  -74.90 input   59.86 | X-H torsion
[ 10167 10162 10161 10158 ] final  -34.97 input  -65.29 | X-H torsion
[ 10718 10713 10712 10709 ] final   -7.57 input   66.30 | X-H torsion
[ 10763 10752 10751 10750 ] final  123.58 input  -60.55 | X-H torsion
[ 11005 11000 10999 10996 ] final  -90.37 input  -57.11 | X-H torsion

> <Gold.Protein.ActiveResidues>
 VAL166  LYS551  ARG553  GLY616  TRP617  ASP618  TYR619  PRO620  LYS621  CYS622 
 ASP623  PHE694  ASN695  SER759  ASP760  ASP761  ALA762  ILE779  LEU786  VAL792 
 PHE793  MET794  SER795  GLU796  ALA797  LYS798  CYS799  TRP800  GLU811  SER814 

> <Gold.Protein.RotatedAtoms>
  152.5310  133.9900  159.7846 H   0  0  0  0  0  0  0  0  0  0  0  0  # atno 6907 bound_to 6896
  151.0138  133.5932  159.2686 H   0  0  0  0  0  0  0  0  0  0  0  0  # atno 6908 bound_to 6896
  151.2997  135.0772  159.9287 H   0  0  0  0  0  0  0  0  0  0  0  0  # atno 6909 bound_to 6896
  145.3384  140.9455  143.2622 H   0  0  0  0  0  0  0  0  0  0  0  0  # atno 7974 bound_to 7965
  154.5370  140.0753  156.8445 H   0  0  0  0  0  0  0  0  0  0  0  0  # atno 8008 bound_to 7997
  155.3257  140.3399  155.4222 H   0  0  0  0  0  0  0  0  0  0  0  0  # atno 8009 bound_to 7997
  156.1838  140.1661  156.8210 H   0  0  0  0  0  0  0  0  0  0  0  0  # atno 8010 bound_to 7997
  140.7175  143.3510  151.2156 H   0  0  0  0  0  0  0  0  0  0  0  0  # atno 10167 bound_to 10162
  156.7152  130.5134  149.5882 H   0  0  0  0  0  0  0  0  0  0  0  0  # atno 10718 bound_to 10713
  153.6477  135.3368  155.3090 H   0  0  0  0  0  0  0  0  0  0  0  0  # atno 10763 bound_to 10752
  154.8545  135.4333  154.1937 H   0  0  0  0  0  0  0  0  0  0  0  0  # atno 10764 bound_to 10752
  153.2872  135.7014  153.7403 H   0  0  0  0  0  0  0  0  0  0  0  0  # atno 10765 bound_to 10752
  141.1567  133.7688  156.9727 H   0  0  0  0  0  0  0  0  0  0  0  0  # atno 11005 bound_to 11000
  144.8809  139.4905  143.6723 LP  0  0  0  0  0  0  0  0  0  0  0  0  # atno 17320 bound_to 7965
  146.3017  139.7449  142.9086 LP  0  0  0  0  0  0  0  0  0  0  0  0  # atno 17321 bound_to 7965
  139.7040  143.9485  152.2918 LP  0  0  0  0  0  0  0  0  0  0  0  0  # atno 17342 bound_to 10162
  139.9188  144.6812  150.8484 LP  0  0  0  0  0  0  0  0  0  0  0  0  # atno 17343 bound_to 10162
  156.1633  130.6388  151.0746 LP  0  0  0  0  0  0  0  0  0  0  0  0  # atno 17370 bound_to 10713
  157.6920  131.0807  150.7080 LP  0  0  0  0  0  0  0  0  0  0  0  0  # atno 17371 bound_to 10713
  140.1118  134.9472  157.2077 LP  0  0  0  0  0  0  0  0  0  0  0  0  # atno 17394 bound_to 11000
  140.3184  134.2944  155.7251 LP  0  0  0  0  0  0  0  0  0  0  0  0  # atno 17395 bound_to 11000

$$$$
