AV-unprocessed.smi:2083|AV-procd|sdf|8494|dock8
  -GOLD-   2272011203D 1   1.00000     0.00000
 Structure written by MMmdl.
 45 46  0  0  0  0  0  0  0  0  2 V2000
  146.6738  129.9607  152.7285 C   0  0  0  0  0  0  0  0  0  0  0  0
  147.5190  131.0594  153.2756 C   0  0  0  0  0  0  0  0  0  0  0  0
  147.6983  132.3647  152.9119 C   0  0  0  0  0  0  0  0  0  0  0  0
  148.6410  132.8353  153.8641 C   0  0  0  0  0  0  0  0  0  0  0  0
  149.0968  134.1784  153.8366 N   0  0  0  0  0  0  0  0  0  0  0  0
  149.9121  134.7821  154.7181 C   0  0  0  0  0  0  0  0  0  0  0  0
  150.4207  134.2420  155.7010 O   0  0  0  0  0  0  0  0  0  0  0  0
  150.1106  136.0703  154.4031 N   0  0  0  0  0  0  0  0  0  0  0  0
  150.9388  136.9905  155.1769 C   0  0  0  0  0  0  0  0  0  0  0  0
  150.9852  138.4179  154.5722 C   0  0  2  0  0  0  0  0  0  0  0  0
  152.2443  139.1678  155.0702 C   0  0  0  0  0  0  0  0  0  0  0  0
  149.6933  139.1253  154.8529 N   0  3  1  0  0  0  0  0  0  0  0  0
  149.2370  139.1287  156.2732 C   0  0  0  0  0  0  0  0  0  0  0  0
  147.8351  139.7455  156.4128 C   0  0  0  0  0  0  0  0  0  0  0  0
  147.7802  141.1579  155.8186 C   0  0  0  0  0  0  0  0  0  0  0  0
  148.2984  141.1679  154.3710 C   0  0  2  0  0  0  0  0  0  0  0  0
  147.3049  140.5475  153.3732 C   0  0  0  0  0  0  0  0  0  0  0  0
  149.6901  140.5095  154.2960 C   0  0  0  0  0  0  0  0  0  0  0  0
  149.0064  131.9014  154.7292 N   0  0  0  0  0  0  0  0  0  0  0  0
  148.2895  130.7584  154.3561 O   0  0  0  0  0  0  0  0  0  0  0  0
  145.9217  130.3522  152.0435 H   0  0  0  0  0  0  0  0  0  0  0  0
  146.1570  129.4326  153.5303 H   0  0  0  0  0  0  0  0  0  0  0  0
  147.2839  129.2391  152.1850 H   0  0  0  0  0  0  0  0  0  0  0  0
  147.2274  132.8940  152.0967 H   0  0  0  0  0  0  0  0  0  0  0  0
  148.7563  134.7403  153.0703 H   0  0  0  0  0  0  0  0  0  0  0  0
  149.6594  136.4395  153.5785 H   0  0  0  0  0  0  0  0  0  0  0  0
  150.5778  136.9959  156.2052 H   0  0  0  0  0  0  0  0  0  0  0  0
  151.9473  136.5778  155.2192 H   0  0  0  0  0  0  0  0  0  0  0  0
  151.0846  138.3421  153.4880 H   0  0  0  0  0  0  0  0  0  0  0  0
  153.1547  138.6112  154.8483 H   0  0  0  0  0  0  0  0  0  0  0  0
  152.2167  139.3263  156.1487 H   0  0  0  0  0  0  0  0  0  0  0  0
  152.3631  140.1354  154.5823 H   0  0  0  0  0  0  0  0  0  0  0  0
  149.1754  138.1147  156.6664 H   0  0  0  0  0  0  0  0  0  0  0  0
  149.9549  139.6736  156.8882 H   0  0  0  0  0  0  0  0  0  0  0  0
  147.1026  139.1064  155.9186 H   0  0  0  0  0  0  0  0  0  0  0  0
  147.5484  139.7771  157.4644 H   0  0  0  0  0  0  0  0  0  0  0  0
  146.7641  141.5511  155.8659 H   0  0  0  0  0  0  0  0  0  0  0  0
  148.3943  141.8246  156.4256 H   0  0  0  0  0  0  0  0  0  0  0  0
  148.4154  142.2120  154.0774 H   0  0  0  0  0  0  0  0  0  0  0  0
  147.1361  139.4886  153.5690 H   0  0  0  0  0  0  0  0  0  0  0  0
  147.6718  140.6377  152.3505 H   0  0  0  0  0  0  0  0  0  0  0  0
  146.3392  141.0516  153.4191 H   0  0  0  0  0  0  0  0  0  0  0  0
  150.4083  141.1137  154.8533 H   0  0  0  0  0  0  0  0  0  0  0  0
  150.0305  140.5180  153.2614 H   0  0  0  0  0  0  0  0  0  0  0  0
  148.9869  138.6094  154.3480 H   0  0  0  0  0  0  0  0  0  0  0  0
  1  2  1  0  0  0  0
  1 21  1  0  0  0  0
  1 22  1  0  0  0  0
  1 23  1  0  0  0  0
  2 20  1  0  0  0  0
  2  3  2  0  0  0  0
  3  4  1  0  0  0  0
  3 24  1  0  0  0  0
  4  5  1  0  0  0  0
  4 19  2  0  0  0  0
  5  6  1  0  0  0  0
  5 25  1  0  0  0  0
  6  7  2  0  0  0  0
  6  8  1  0  0  0  0
  8  9  1  0  0  0  0
  8 26  1  0  0  0  0
  9 10  1  0  0  0  0
  9 27  1  0  0  0  0
  9 28  1  0  0  0  0
 10 11  1  0  0  0  0
 10 12  1  0  0  0  0
 10 29  1  0  0  0  0
 11 30  1  0  0  0  0
 11 31  1  0  0  0  0
 11 32  1  0  0  0  0
 12 18  1  0  0  0  0
 12 13  1  0  0  0  0
 12 45  1  0  0  0  0
 13 14  1  0  0  0  0
 13 33  1  0  0  0  0
 13 34  1  0  0  0  0
 14 15  1  0  0  0  0
 14 35  1  0  0  0  0
 14 36  1  0  0  0  0
 15 16  1  0  0  0  0
 15 37  1  0  0  0  0
 15 38  1  0  0  0  0
 16 17  1  0  0  0  0
 16 18  1  0  0  0  0
 16 39  1  0  0  0  0
 17 40  1  0  0  0  0
 17 41  1  0  0  0  0
 17 42  1  0  0  0  0
 18 43  1  0  0  0  0
 18 44  1  0  0  0  0
 19 20  1  0  0  0  0
M  CHG  1  12   1
M  END
> <s_m_source_file>
AV-unprocessed.smi

> <i_m_source_file_index>
2083

> <i_lp_mmshare_version>
43012

> <i_f3d_flags>
0

> <s_epik_input>
W0NIM11jMVtjSF1jKG5vMSlbTkhdQyg9TylbTkhdW0NIMl1bQ0BIXShbQ0gzXSlOMltDSDJdW0NIMl1bQ0gyXVtDQEBIXShbQ0gzXSlbQ0gyXTI=

> <s_epik_cmdline>
J2VwaWtfcHl0aG9uJywgJy1waCcsICc3LjAnLCAnLXRuJywgJzgnLCAnLW1hJywgJzIwMCcsICctbWV0YWxfYmluZGluZycsICctaW1hZScsICc8aW5maWxlLm1hZT4nLCAnLW9tYWUnLCAnPG91dGZpbGUubWFlPic=

> <r_epik_Ionization_Penalty>
0.00216453

> <r_epik_Ionization_Penalty_Charging>
0.00212879

> <r_epik_Ionization_Penalty_Neutral>
3.57418e-05

> <r_epik_State_Penalty>
0.00146033

> <r_epik_Charging_Adjusted_Penalty>
0.00358912

> <i_epik_Tot_Q>
1

> <i_epik_Tot_abs_Q>
1

> <r_epik_Metal_State_Penalty>
0.0215827

> <b_epik_Metal_Only>
0

> <s_lp_Force_Field>
OPLS_2005

> <r_lp_Energy>
21.862

> <b_lp_Chiralities_Consistent>
1

> <s_lp_Variant>
AV-unprocessed.smi:2083-5

> <Gold.Version>
5.8.1

> <Gold.Id.Protein>
6NUR|6NUR_protein|mol2

> <Gold.PLP.Fitness>
36.9866

> <Gold.PLP.PLP>
-31.4224

> <Gold.PLP.part.hbond>
-2.7468

> <Gold.PLP.part.metal>
0.0000

> <Gold.PLP.part.buried>
-1.5732

> <Gold.PLP.part.nonpolar>
-27.3023

> <Gold.PLP.part.repulsive>
0.2348

> <Gold.PLP.ligand.clash>
0.0000

> <Gold.PLP.ligand.torsion>
0.2351

> <Gold.PLP.Chemscore.Hbond>
1.9920

> <Gold.PLP.Chemscore.CHOScore>
0.0000

> <Gold.PLP.Chemscore.Metal>
0.0000

> <Gold.Chemscore.Hbonds>
donor molecule, donor type, donor heavy atom, donor atom, acceptor molecule, acceptor atom, score
      L1  H     5    25       P1  7948  0.95
      L1  H     8    26       P1  7948  1.00

> <Gold.PLP.Chemscore.Internal.Correction>
0.0584

> <Gold.Rescore>
     Score         DG    S(hbond)    S(metal)    S(lipo)     H(rot)  DE(clash)    DE(int)     intcor
     12.18     -13.64       1.31        0.00      66.12       1.55       0.05       1.42       ----

> <Gold.Chemscore.Fitness>
12.1758

> <Gold.Chemscore.DG>
-13.6398

> <Gold.Chemscore.ZeroCoef>
-5.4800

> <Gold.Chemscore.Hbond>
1.3129

> <Gold.Chemscore.Metal>
0.0000

> <Gold.Chemscore.Lipo>
66.1196

> <Gold.Chemscore.Internal_Hbond>
0.0000

> <Gold.Chemscore.DEClash>
0.0458

> <Gold.Chemscore.DEInternal>
1.4182

> <Gold.Chemscore.Rot>
1.5474

> <Gold.Chemscore.Internal.Correction>
   9.000000E+99

> <Gold.Chemscore.Hbonds>
donor molecule, donor type, donor heavy atom, donor atom, acceptor molecule, acceptor atom, score
      L1  H     5    25       P1  7948  0.20
      L1  H     8    26       P1  7948  0.48

> <Gold.Chemscore.Hbond.Weighted>
-4.3850

> <Gold.Chemscore.Metal.Weighted>
-0.0000

> <Gold.Chemscore.Lipo.Weighted>
-7.7360

> <Gold.Chemscore.Internal_Hbond.Weighted>
0.0000

> <Gold.Chemscore.DEClash.Weighted>
0.0458

> <Gold.Chemscore.DEInternal.Weighted>
1.4182

> <Gold.Chemscore.Rot.Weighted>
3.9612

> <Gold.Chemscore.Internal.Correction.Weighted>
   9.000000E+99

> <Gold.Protein.RotatedTorsions>
[ 6907 6896 6895 6894 ] final -154.24 input  -60.11 | X-H torsion
[ 7974 7965 7964 7962 ] final  126.38 input  175.53 | X-H torsion
[ 8008 7997 7996 7995 ] final -119.56 input   59.86 | X-H torsion
[ 10167 10162 10161 10158 ] final   81.85 input  -65.29 | X-H torsion
[ 10718 10713 10712 10709 ] final   28.74 input   66.30 | X-H torsion
[ 10763 10752 10751 10750 ] final  100.08 input  -60.55 | X-H torsion
[ 11005 11000 10999 10996 ] final -106.79 input  -57.11 | X-H torsion

> <Gold.Protein.ActiveResidues>
 VAL166  LYS551  ARG553  GLY616  TRP617  ASP618  TYR619  PRO620  LYS621  CYS622 
 ASP623  PHE694  ASN695  SER759  ASP760  ASP761  ALA762  ILE779  LEU786  VAL792 
 PHE793  MET794  SER795  GLU796  ALA797  LYS798  CYS799  TRP800  GLU811  SER814 

> <Gold.Protein.RotatedAtoms>
  151.2546  133.4333  159.2612 H   0  0  0  0  0  0  0  0  0  0  0  0  # atno 6907 bound_to 6896
  151.0586  134.9722  159.8259 H   0  0  0  0  0  0  0  0  0  0  0  0  # atno 6908 bound_to 6896
  152.5394  134.2497  159.8946 H   0  0  0  0  0  0  0  0  0  0  0  0  # atno 6909 bound_to 6896
  145.0624  139.3795  143.4999 H   0  0  0  0  0  0  0  0  0  0  0  0  # atno 7974 bound_to 7965
  155.1177  140.0398  157.2741 H   0  0  0  0  0  0  0  0  0  0  0  0  # atno 8008 bound_to 7997
  154.6637  140.2597  155.7055 H   0  0  0  0  0  0  0  0  0  0  0  0  # atno 8009 bound_to 7997
  156.2630  140.2811  156.1120 H   0  0  0  0  0  0  0  0  0  0  0  0  # atno 8010 bound_to 7997
  139.9350  144.6127  150.8308 H   0  0  0  0  0  0  0  0  0  0  0  0  # atno 10167 bound_to 10162
  157.2374  130.7053  149.6342 H   0  0  0  0  0  0  0  0  0  0  0  0  # atno 10718 bound_to 10713
  153.3094  135.4091  155.1322 H   0  0  0  0  0  0  0  0  0  0  0  0  # atno 10763 bound_to 10752
  154.8572  135.3561  154.5744 H   0  0  0  0  0  0  0  0  0  0  0  0  # atno 10764 bound_to 10752
  153.6172  135.7066  153.5383 H   0  0  0  0  0  0  0  0  0  0  0  0  # atno 10765 bound_to 10752
  141.0987  133.8924  157.1898 H   0  0  0  0  0  0  0  0  0  0  0  0  # atno 11005 bound_to 11000
  146.3525  140.0328  142.8649 LP  0  0  0  0  0  0  0  0  0  0  0  0  # atno 17320 bound_to 7965
  145.1393  140.9562  143.4498 LP  0  0  0  0  0  0  0  0  0  0  0  0  # atno 17321 bound_to 7965
  140.7627  143.3204  151.2634 LP  0  0  0  0  0  0  0  0  0  0  0  0  # atno 17342 bound_to 10162
  139.6751  143.9952  152.2776 LP  0  0  0  0  0  0  0  0  0  0  0  0  # atno 17343 bound_to 10162
  155.9672  130.4469  150.5559 LP  0  0  0  0  0  0  0  0  0  0  0  0  # atno 17370 bound_to 10713
  157.3414  131.0717  151.1785 LP  0  0  0  0  0  0  0  0  0  0  0  0  # atno 17371 bound_to 10713
  139.9831  135.0091  156.9798 LP  0  0  0  0  0  0  0  0  0  0  0  0  # atno 17394 bound_to 11000
  140.5076  134.1034  155.7263 LP  0  0  0  0  0  0  0  0  0  0  0  0  # atno 17395 bound_to 11000

$$$$
