AV-unprocessed.smi:99|AV-procd|sdf|881|dock5
  -GOLD-   2262017353D 1   1.00000     0.00000
 Structure written by MMmdl.
 52 55  0  0  0  0  0  0  0  0  2 V2000
  144.2918  135.5592  158.3498 O   0  0  0  0  0  0  0  0  0  0  0  0
  145.4543  135.9538  158.4567 C   0  0  0  0  0  0  0  0  0  0  0  0
  146.1709  136.4556  157.4330 O   0  0  0  0  0  0  0  0  0  0  0  0
  145.6096  136.5491  156.1338 C   0  0  0  0  0  0  0  0  0  0  0  0
  146.6191  137.2425  155.2103 C   0  0  2  0  0  0  0  0  0  0  0  0
  147.3576  138.2170  155.9393 O   0  0  0  0  0  0  0  0  0  0  0  0
  147.8456  139.2008  155.0679 C   0  0  1  0  0  0  0  0  0  0  0  0
  149.3577  139.1038  154.9966 N   0  0  0  0  0  0  0  0  0  0  0  0
  150.0026  137.8796  154.9272 C   0  0  0  0  0  0  0  0  0  0  0  0
  151.3474  137.7979  154.8622 C   0  0  0  0  0  0  0  0  0  0  0  0
  152.1418  139.0231  154.8654 C   0  0  0  0  0  0  0  0  0  0  0  0
  153.3670  138.9379  154.8115 O   0  0  0  0  0  0  0  0  0  0  0  0
  151.4826  140.2160  154.9277 N   0  5  0  0  0  0  0  0  0  0  0  0
  150.1216  140.3021  154.9891 C   0  0  0  0  0  0  0  0  0  0  0  0
  149.5143  141.3725  155.0340 O   0  0  0  0  0  0  0  0  0  0  0  0
  147.1564  138.9883  153.6977 C   0  0  1  0  0  0  0  0  0  0  0  0
  148.0013  138.3595  152.7446 O   0  0  0  0  0  0  0  0  0  0  0  0
  145.9992  138.0849  154.0968 C   0  0  1  0  0  0  0  0  0  0  0  0
  145.4941  137.3384  152.9923 O   0  0  0  0  0  0  0  0  0  0  0  0
  144.3303  136.6575  153.0778 C   0  0  0  0  0  0  0  0  0  0  0  0
  143.3872  136.9952  153.7958 O   0  0  0  0  0  0  0  0  0  0  0  0
  144.3232  135.4219  152.2443 C   0  0  0  0  0  0  0  0  0  0  0  0
  143.2772  134.4838  152.4062 C   0  0  0  0  0  0  0  0  0  0  0  0
  143.2588  133.2940  151.6531 C   0  0  0  0  0  0  0  0  0  0  0  0
  144.2835  133.0302  150.7261 C   0  0  0  0  0  0  0  0  0  0  0  0
  145.3263  133.9585  150.5517 C   0  0  0  0  0  0  0  0  0  0  0  0
  145.3484  135.1476  151.3061 C   0  0  0  0  0  0  0  0  0  0  0  0
  146.2309  135.9027  159.7291 C   0  0  0  0  0  0  0  0  0  0  0  0
  145.6414  135.3301  160.8800 C   0  0  0  0  0  0  0  0  0  0  0  0
  146.3609  135.2460  162.0879 C   0  0  0  0  0  0  0  0  0  0  0  0
  147.6784  135.7346  162.1601 C   0  0  0  0  0  0  0  0  0  0  0  0
  148.2747  136.3106  161.0237 C   0  0  0  0  0  0  0  0  0  0  0  0
  147.5560  136.3969  159.8158 C   0  0  0  0  0  0  0  0  0  0  0  0
  145.3570  135.5645  155.7371 H   0  0  0  0  0  0  0  0  0  0  0  0
  144.6877  137.1286  156.1909 H   0  0  0  0  0  0  0  0  0  0  0  0
  147.3187  136.5143  154.7961 H   0  0  0  0  0  0  0  0  0  0  0  0
  147.6277  140.1710  155.5175 H   0  0  0  0  0  0  0  0  0  0  0  0
  149.4336  136.9629  154.9212 H   0  0  0  0  0  0  0  0  0  0  0  0
  151.8339  136.8351  154.8076 H   0  0  0  0  0  0  0  0  0  0  0  0
  146.8131  139.9423  153.2969 H   0  0  0  0  0  0  0  0  0  0  0  0
  148.3954  139.0290  152.2071 H   0  0  0  0  0  0  0  0  0  0  0  0
  145.2250  138.7192  154.5313 H   0  0  0  0  0  0  0  0  0  0  0  0
  142.4840  134.6609  153.1182 H   0  0  0  0  0  0  0  0  0  0  0  0
  142.4587  132.5816  151.7899 H   0  0  0  0  0  0  0  0  0  0  0  0
  144.2700  132.1170  150.1498 H   0  0  0  0  0  0  0  0  0  0  0  0
  146.1131  133.7574  149.8399 H   0  0  0  0  0  0  0  0  0  0  0  0
  146.1651  135.8374  151.1512 H   0  0  0  0  0  0  0  0  0  0  0  0
  144.6332  134.9429  160.8469 H   0  0  0  0  0  0  0  0  0  0  0  0
  145.9015  134.8032  162.9594 H   0  0  0  0  0  0  0  0  0  0  0  0
  148.2312  135.6667  163.0855 H   0  0  0  0  0  0  0  0  0  0  0  0
  149.2875  136.6818  161.0754 H   0  0  0  0  0  0  0  0  0  0  0  0
  148.0476  136.8378  158.9609 H   0  0  0  0  0  0  0  0  0  0  0  0
  1  2  2  0  0  0  0
  2  3  1  0  0  0  0
  2 28  1  0  0  0  0
  3  4  1  0  0  0  0
  4  5  1  0  0  0  0
  4 34  1  0  0  0  0
  4 35  1  0  0  0  0
  5 18  1  0  0  0  0
  5  6  1  0  0  0  0
  5 36  1  0  0  0  0
  6  7  1  0  0  0  0
  7  8  1  0  0  0  0
  7 16  1  0  0  0  0
  7 37  1  0  0  0  0
  8 14  1  0  0  0  0
  8  9  1  0  0  0  0
  9 10  2  0  0  0  0
  9 38  1  0  0  0  0
 10 11  1  0  0  0  0
 10 39  1  0  0  0  0
 11 12  2  0  0  0  0
 11 13  1  0  0  0  0
 13 14  1  0  0  0  0
 14 15  2  0  0  0  0
 16 17  1  0  0  0  0
 16 18  1  0  0  0  0
 16 40  1  0  0  0  0
 17 41  1  0  0  0  0
 18 19  1  0  0  0  0
 18 42  1  0  0  0  0
 19 20  1  0  0  0  0
 20 21  2  0  0  0  0
 20 22  1  0  0  0  0
 22 27  1  0  0  0  0
 22 23  2  0  0  0  0
 23 24  1  0  0  0  0
 23 43  1  0  0  0  0
 24 25  2  0  0  0  0
 24 44  1  0  0  0  0
 25 26  1  0  0  0  0
 25 45  1  0  0  0  0
 26 27  2  0  0  0  0
 26 46  1  0  0  0  0
 27 47  1  0  0  0  0
 28 33  1  0  0  0  0
 28 29  2  0  0  0  0
 29 30  1  0  0  0  0
 29 48  1  0  0  0  0
 30 31  2  0  0  0  0
 30 49  1  0  0  0  0
 31 32  1  0  0  0  0
 31 50  1  0  0  0  0
 32 33  2  0  0  0  0
 32 51  1  0  0  0  0
 33 52  1  0  0  0  0
M  CHG  1  13  -1
M  END
> <s_m_source_file>
AV-unprocessed.smi

> <i_m_source_file_index>
99

> <i_lp_mmshare_version>
43012

> <i_f3d_flags>
0

> <s_epik_input>
W2NIXTFbY0hdW2NIXVtjSF1bY0hdYzFDKD1PKU9bQ0gyXVtDQEBIXTJPW0NAQEhdKG4zW2NIXVtjSF1jKD1PKVtuSF1jMz1PKVtDQEBIXShbT0hdKVtDQEhdMk9DKD1PKWM0W2NIXVtjSF1bY0hdW2NIXVtjSF00

> <s_epik_cmdline>
J2VwaWtfcHl0aG9uJywgJy1waCcsICc3LjAnLCAnLXRuJywgJzgnLCAnLW1hJywgJzIwMCcsICctbWV0YWxfYmluZGluZycsICctaW1hZScsICc8aW5maWxlLm1hZT4nLCAnLW9tYWUnLCAnPG91dGZpbGUubWFlPic=

> <r_lp_tautomer_probability>
1

> <r_epik_Ionization_Penalty>
2.89159

> <r_epik_Ionization_Penalty_Charging>
2.1077e-08

> <r_epik_Ionization_Penalty_Neutral>
2.89159

> <r_epik_State_Penalty>
2.88671

> <r_epik_Charging_Adjusted_Penalty>
2.88671

> <i_epik_Tot_Q>
-1

> <i_epik_Tot_abs_Q>
1

> <r_epik_Metal_State_Penalty>
0.0727308

> <b_epik_Metal_Only>
1

> <s_epik_Chemistry_Notes>
This compound has an ester and may undergo hydrolysis at high or low pH. This compound contains an acetal/aminal-like group ( X-CH(R)-Y where X, Y are N, S, or O) that may be acid/base labile, releasing an aldehyde.

> <s_lp_Force_Field>
OPLS_2005

> <r_lp_Energy>
51.3472

> <b_lp_Chiralities_Consistent>
1

> <s_lp_Variant>
AV-unprocessed.smi:99-17

> <Gold.Version>
5.8.1

> <Gold.Id.Protein>
6NUR|6NUR_protein|mol2

> <Gold.PLP.Fitness>
51.6798

> <Gold.PLP.PLP>
-45.3690

> <Gold.PLP.part.hbond>
-3.8326

> <Gold.PLP.part.metal>
0.0000

> <Gold.PLP.part.buried>
-6.9661

> <Gold.PLP.part.nonpolar>
-34.3174

> <Gold.PLP.part.repulsive>
0.4917

> <Gold.PLP.ligand.clash>
0.0062

> <Gold.PLP.ligand.torsion>
1.3792

> <Gold.PLP.Chemscore.Hbond>
2.9000

> <Gold.PLP.Chemscore.CHOScore>
0.0000

> <Gold.PLP.Chemscore.Metal>
0.0000

> <Gold.Chemscore.Hbonds>
donor molecule, donor type, donor heavy atom, donor atom, acceptor molecule, acceptor atom, score
      L1  H    17    41       P1  7957  1.00
      P1  H  7989  7998       L1    13  0.85
      P1  H  7997  8008       L1    12  1.00

> <Gold.PLP.Chemscore.Internal.Correction>
0.3754

> <Gold.Rescore>
     Score         DG    S(hbond)    S(metal)    S(lipo)     H(rot)  DE(clash)    DE(int)     intcor
     13.47     -15.02       2.17        0.00      88.15       3.13       0.04       1.51       ----

> <Gold.Chemscore.Fitness>
13.4689

> <Gold.Chemscore.DG>
-15.0177

> <Gold.Chemscore.ZeroCoef>
-5.4800

> <Gold.Chemscore.Hbond>
2.1702

> <Gold.Chemscore.Metal>
0.0000

> <Gold.Chemscore.Lipo>
88.1515

> <Gold.Chemscore.Internal_Hbond>
0.0000

> <Gold.Chemscore.DEClash>
0.0408

> <Gold.Chemscore.DEInternal>
1.5079

> <Gold.Chemscore.Rot>
3.1346

> <Gold.Chemscore.Internal.Correction>
   9.000000E+99

> <Gold.Chemscore.Hbonds>
donor molecule, donor type, donor heavy atom, donor atom, acceptor molecule, acceptor atom, score
      L1  H    17    41       P1  7957  0.99
      P1  H  7989  7998       L1    13  0.08
      P1  H  7997  8008       L1    12  0.93

> <Gold.Chemscore.Hbond.Weighted>
-7.2485

> <Gold.Chemscore.Metal.Weighted>
-0.0000

> <Gold.Chemscore.Lipo.Weighted>
-10.3137

> <Gold.Chemscore.Internal_Hbond.Weighted>
0.0000

> <Gold.Chemscore.DEClash.Weighted>
0.0408

> <Gold.Chemscore.DEInternal.Weighted>
1.5079

> <Gold.Chemscore.Rot.Weighted>
8.0246

> <Gold.Chemscore.Internal.Correction.Weighted>
   9.000000E+99

> <Gold.Protein.RotatedTorsions>
[ 6907 6896 6895 6894 ] final    6.31 input  -60.11 | X-H torsion
[ 7974 7965 7964 7962 ] final   63.78 input  175.53 | X-H torsion
[ 8008 7997 7996 7995 ] final  -16.26 input   59.86 | X-H torsion
[ 10167 10162 10161 10158 ] final  169.37 input  -65.29 | X-H torsion
[ 10718 10713 10712 10709 ] final  -71.00 input   66.30 | X-H torsion
[ 10763 10752 10751 10750 ] final  105.09 input  -60.55 | X-H torsion
[ 11005 11000 10999 10996 ] final  -50.71 input  -57.11 | X-H torsion

> <Gold.Protein.ActiveResidues>
 VAL166  LYS551  ARG553  GLY616  TRP617  ASP618  TYR619  PRO620  LYS621  CYS622 
 ASP623  PHE694  ASN695  SER759  ASP760  ASP761  ALA762  ILE779  LEU786  VAL792 
 PHE793  MET794  SER795  GLU796  ALA797  LYS798  CYS799  TRP800  GLU811  SER814 

> <Gold.Protein.RotatedAtoms>
  151.6717  135.0975  160.0198 H   0  0  0  0  0  0  0  0  0  0  0  0  # atno 6907 bound_to 6896
  152.3888  133.6645  159.6229 H   0  0  0  0  0  0  0  0  0  0  0  0  # atno 6908 bound_to 6896
  150.7808  133.8907  159.3353 H   0  0  0  0  0  0  0  0  0  0  0  0  # atno 6909 bound_to 6896
  145.8579  139.3296  143.0836 H   0  0  0  0  0  0  0  0  0  0  0  0  # atno 7974 bound_to 7965
  154.5067  140.2174  155.9237 H   0  0  0  0  0  0  0  0  0  0  0  0  # atno 8008 bound_to 7997
  156.1502  140.3163  155.8602 H   0  0  0  0  0  0  0  0  0  0  0  0  # atno 8009 bound_to 7997
  155.3953  140.0481  157.3030 H   0  0  0  0  0  0  0  0  0  0  0  0  # atno 8010 bound_to 7997
  139.4990  144.3713  151.9721 H   0  0  0  0  0  0  0  0  0  0  0  0  # atno 10167 bound_to 10162
  156.0382  130.4342  150.2379 H   0  0  0  0  0  0  0  0  0  0  0  0  # atno 10718 bound_to 10713
  153.3746  135.3921  155.1813 H   0  0  0  0  0  0  0  0  0  0  0  0  # atno 10763 bound_to 10752
  154.8699  135.3711  154.4934 H   0  0  0  0  0  0  0  0  0  0  0  0  # atno 10764 bound_to 10752
  153.5405  135.7084  153.5700 H   0  0  0  0  0  0  0  0  0  0  0  0  # atno 10765 bound_to 10752
  141.0831  133.6648  156.3771 H   0  0  0  0  0  0  0  0  0  0  0  0  # atno 11005 bound_to 11000
  145.9282  140.9067  143.0370 LP  0  0  0  0  0  0  0  0  0  0  0  0  # atno 17320 bound_to 7965
  144.6727  140.1382  143.7439 LP  0  0  0  0  0  0  0  0  0  0  0  0  # atno 17321 bound_to 7965
  140.3149  144.3495  150.6024 LP  0  0  0  0  0  0  0  0  0  0  0  0  # atno 17342 bound_to 10162
  140.5769  143.2176  151.7499 LP  0  0  0  0  0  0  0  0  0  0  0  0  # atno 17343 bound_to 10162
  157.0477  131.0053  151.3264 LP  0  0  0  0  0  0  0  0  0  0  0  0  # atno 17370 bound_to 10713
  157.5163  130.7970  149.7760 LP  0  0  0  0  0  0  0  0  0  0  0  0  # atno 17371 bound_to 10713
  140.5424  134.6107  157.5384 LP  0  0  0  0  0  0  0  0  0  0  0  0  # atno 17394 bound_to 11000
  139.9646  134.7394  156.0164 LP  0  0  0  0  0  0  0  0  0  0  0  0  # atno 17395 bound_to 11000

$$$$
