AV-unprocessed.smi:1901|AV-procd|sdf|7718|dock3
  -GOLD-   22720 9463D 1   1.00000     0.00000
 Structure written by MMmdl.
 27 28  0  0  0  0  0  0  0  0  2 V2000
  149.0653  138.3282  159.1079 O   0  0  0  0  0  0  0  0  0  0  0  0
  149.6035  137.2193  159.1309 C   0  0  0  0  0  0  0  0  0  0  0  0
  150.7842  137.0503  158.5207 N   0  0  0  0  0  0  0  0  0  0  0  0
  151.5208  138.0886  157.8103 C   0  0  0  0  0  0  0  0  0  0  0  0
  150.9125  138.3432  156.4213 C   0  0  2  0  0  0  0  0  0  0  0  0
  151.2543  137.2985  155.3770 C   0  0  0  0  0  0  0  0  0  0  0  0
  150.9555  138.0422  154.0787 C   0  0  0  0  0  0  0  0  0  0  0  0
  151.2176  139.4171  154.3464 O   0  0  0  0  0  0  0  0  0  0  0  0
  151.4245  139.6130  155.7424 C   0  0  0  0  0  0  0  0  0  0  0  0
  149.1405  136.0871  159.7199 N   0  5  0  0  0  0  0  0  0  0  0  0
  148.1819  136.0359  160.6714 C   0  0  0  0  0  0  0  0  0  0  0  0
  147.5754  137.0784  161.2632 N   0  0  0  0  0  0  0  0  0  0  0  0
  146.6190  136.7169  162.2121 C   0  0  0  0  0  0  0  0  0  0  0  0
  146.4849  135.3626  162.3542 C   0  0  0  0  0  0  0  0  0  0  0  0
  147.5640  134.5030  161.2945 S   0  0  0  0  0  0  0  0  0  0  0  0
  151.2008  136.1316  158.5555 H   0  0  0  0  0  0  0  0  0  0  0  0
  151.4999  139.0081  158.3970 H   0  0  0  0  0  0  0  0  0  0  0  0
  152.5667  137.7915  157.7176 H   0  0  0  0  0  0  0  0  0  0  0  0
  149.8263  138.4095  156.5072 H   0  0  0  0  0  0  0  0  0  0  0  0
  152.3139  137.0429  155.4273 H   0  0  0  0  0  0  0  0  0  0  0  0
  150.6764  136.3797  155.4809 H   0  0  0  0  0  0  0  0  0  0  0  0
  151.5530  137.6774  153.2430 H   0  0  0  0  0  0  0  0  0  0  0  0
  149.9028  137.9364  153.8144 H   0  0  0  0  0  0  0  0  0  0  0  0
  150.9174  140.5101  156.0982 H   0  0  0  0  0  0  0  0  0  0  0  0
  152.4942  139.7392  155.9149 H   0  0  0  0  0  0  0  0  0  0  0  0
  146.0806  137.4905  162.7389 H   0  0  0  0  0  0  0  0  0  0  0  0
  145.8227  134.8206  163.0121 H   0  0  0  0  0  0  0  0  0  0  0  0
  1  2  2  0  0  0  0
  2  3  1  0  0  0  0
  2 10  1  0  0  0  0
  3  4  1  0  0  0  0
  3 16  1  0  0  0  0
  4  5  1  0  0  0  0
  4 17  1  0  0  0  0
  4 18  1  0  0  0  0
  5  9  1  0  0  0  0
  5  6  1  0  0  0  0
  5 19  1  0  0  0  0
  6  7  1  0  0  0  0
  6 20  1  0  0  0  0
  6 21  1  0  0  0  0
  7  8  1  0  0  0  0
  7 22  1  0  0  0  0
  7 23  1  0  0  0  0
  8  9  1  0  0  0  0
  9 24  1  0  0  0  0
  9 25  1  0  0  0  0
 10 11  1  0  0  0  0
 11 15  1  0  0  0  0
 11 12  2  0  0  0  0
 12 13  1  0  0  0  0
 13 14  2  0  0  0  0
 13 26  1  0  0  0  0
 14 15  1  0  0  0  0
 14 27  1  0  0  0  0
M  CHG  1  10  -1
M  END
> <s_m_source_file>
AV-unprocessed.smi

> <i_m_source_file_index>
1901

> <i_lp_mmshare_version>
43012

> <i_f3d_flags>
0

> <s_epik_input>
czFbY0hdW2NIXW5jMVtOSF1DKD1PKVtOSF1bQ0gyXVtDQEBIXTJbQ0gyXVtDSDJdT1tDSDJdMg==

> <s_epik_cmdline>
J2VwaWtfcHl0aG9uJywgJy1waCcsICc3LjAnLCAnLXRuJywgJzgnLCAnLW1hJywgJzIwMCcsICctbWV0YWxfYmluZGluZycsICctaW1hZScsICc8aW5maWxlLm1hZT4nLCAnLW9tYWUnLCAnPG91dGZpbGUubWFlPic=

> <r_lp_tautomer_probability>
0.999

> <r_epik_Ionization_Penalty>
8.4411

> <r_epik_Ionization_Penalty_Charging>
6.72681

> <r_epik_Ionization_Penalty_Neutral>
1.71429

> <r_epik_State_Penalty>
6.72698

> <r_epik_Charging_Adjusted_Penalty>
13.4538

> <i_epik_Tot_Q>
-1

> <i_epik_Tot_abs_Q>
1

> <r_epik_Metal_State_Penalty>
2.64812

> <b_epik_Metal_Only>
1

> <s_lp_Force_Field>
OPLS_2005

> <r_lp_Energy>
18.4833

> <b_lp_Chiralities_Consistent>
1

> <s_lp_Variant>
AV-unprocessed.smi:1901-3

> <Gold.Version>
5.8.1

> <Gold.Id.Protein>
6NUR|6NUR_protein|mol2

> <Gold.PLP.Fitness>
40.2611

> <Gold.PLP.PLP>
-26.3673

> <Gold.PLP.part.hbond>
-6.0000

> <Gold.PLP.part.metal>
0.0000

> <Gold.PLP.part.buried>
-2.3177

> <Gold.PLP.part.nonpolar>
-18.7619

> <Gold.PLP.part.repulsive>
0.2590

> <Gold.PLP.ligand.clash>
0.0000

> <Gold.PLP.ligand.torsion>
0.3043

> <Gold.PLP.Chemscore.Hbond>
4.8320

> <Gold.PLP.Chemscore.CHOScore>
0.0000

> <Gold.PLP.Chemscore.Metal>
0.0000

> <Gold.Chemscore.Hbonds>
donor molecule, donor type, donor heavy atom, donor atom, acceptor molecule, acceptor atom, score
      P1  H  6896  6908       L1    10  1.72
      P1  H  6931  6943       L1    12  0.98
      P1  H  6934  6947       L1    12  0.91
      P1  H  7989  7998       L1     8  1.00

> <Gold.PLP.Chemscore.Internal.Correction>
0.0064

> <Gold.Rescore>
     Score         DG    S(hbond)    S(metal)    S(lipo)     H(rot)  DE(clash)    DE(int)     intcor
     15.50     -17.51       2.70        0.00      54.16       1.30       0.51       1.50       ----

> <Gold.Chemscore.Fitness>
15.5029

> <Gold.Chemscore.DG>
-17.5079

> <Gold.Chemscore.ZeroCoef>
-5.4800

> <Gold.Chemscore.Hbond>
2.7003

> <Gold.Chemscore.Metal>
0.0000

> <Gold.Chemscore.Lipo>
54.1606

> <Gold.Chemscore.Internal_Hbond>
0.0000

> <Gold.Chemscore.DEClash>
0.5086

> <Gold.Chemscore.DEInternal>
1.4964

> <Gold.Chemscore.Rot>
1.3000

> <Gold.Chemscore.Internal.Correction>
   9.000000E+99

> <Gold.Chemscore.Hbonds>
donor molecule, donor type, donor heavy atom, donor atom, acceptor molecule, acceptor atom, score
      P1  H  6896  6908       L1    10  0.29
      P1  H  6931  6943       L1    12  0.47
      P1  H  6934  6947       L1    12  0.34
      P1  H  7989  7998       L1     8  0.74

> <Gold.Chemscore.Hbond.Weighted>
-9.0191

> <Gold.Chemscore.Metal.Weighted>
-0.0000

> <Gold.Chemscore.Lipo.Weighted>
-6.3368

> <Gold.Chemscore.Internal_Hbond.Weighted>
0.0000

> <Gold.Chemscore.DEClash.Weighted>
0.5086

> <Gold.Chemscore.DEInternal.Weighted>
1.4964

> <Gold.Chemscore.Rot.Weighted>
3.3280

> <Gold.Chemscore.Internal.Correction.Weighted>
   9.000000E+99

> <Gold.Protein.RotatedTorsions>
[ 6907 6896 6895 6894 ] final -168.17 input  -60.11 | X-H torsion
[ 7974 7965 7964 7962 ] final   21.37 input  175.53 | X-H torsion
[ 8008 7997 7996 7995 ] final   74.66 input   59.86 | X-H torsion
[ 10167 10162 10161 10158 ] final  -35.68 input  -65.29 | X-H torsion
[ 10718 10713 10712 10709 ] final  -91.36 input   66.30 | X-H torsion
[ 10763 10752 10751 10750 ] final   26.81 input  -60.55 | X-H torsion
[ 11005 11000 10999 10996 ] final  -91.23 input  -57.11 | X-H torsion

> <Gold.Protein.ActiveResidues>
 VAL166  LYS551  ARG553  GLY616  TRP617  ASP618  TYR619  PRO620  LYS621  CYS622 
 ASP623  PHE694  ASN695  SER759  ASP760  ASP761  ALA762  ILE779  LEU786  VAL792 
 PHE793  MET794  SER795  GLU796  ALA797  LYS798  CYS799  TRP800  GLU811  SER814 

> <Gold.Protein.RotatedAtoms>
  151.4713  133.3568  159.2823 H   0  0  0  0  0  0  0  0  0  0  0  0  # atno 6907 bound_to 6896
  150.8959  134.8369  159.7337 H   0  0  0  0  0  0  0  0  0  0  0  0  # atno 6908 bound_to 6896
  152.4851  134.4628  159.9662 H   0  0  0  0  0  0  0  0  0  0  0  0  # atno 6909 bound_to 6896
  146.2074  139.8036  142.8715 H   0  0  0  0  0  0  0  0  0  0  0  0  # atno 7974 bound_to 7965
  155.8016  140.3476  155.5406 H   0  0  0  0  0  0  0  0  0  0  0  0  # atno 8008 bound_to 7997
  155.8532  140.0959  157.1682 H   0  0  0  0  0  0  0  0  0  0  0  0  # atno 8009 bound_to 7997
  154.4008  140.1372  156.3857 H   0  0  0  0  0  0  0  0  0  0  0  0  # atno 8010 bound_to 7997
  140.7160  143.3460  151.2254 H   0  0  0  0  0  0  0  0  0  0  0  0  # atno 10167 bound_to 10162
  155.9993  130.4945  150.5462 H   0  0  0  0  0  0  0  0  0  0  0  0  # atno 10718 bound_to 10713
  153.0597  135.6551  154.0492 H   0  0  0  0  0  0  0  0  0  0  0  0  # atno 10763 bound_to 10752
  154.0162  135.2924  155.3388 H   0  0  0  0  0  0  0  0  0  0  0  0  # atno 10764 bound_to 10752
  154.6930  135.5275  153.8486 H   0  0  0  0  0  0  0  0  0  0  0  0  # atno 10765 bound_to 10752
  141.1549  133.7742  156.9849 H   0  0  0  0  0  0  0  0  0  0  0  0  # atno 11005 bound_to 11000
  145.3270  141.0257  143.3468 LP  0  0  0  0  0  0  0  0  0  0  0  0  # atno 17320 bound_to 7965
  144.8826  139.4883  143.6716 LP  0  0  0  0  0  0  0  0  0  0  0  0  # atno 17321 bound_to 7965
  139.6980  143.9580  152.2892 LP  0  0  0  0  0  0  0  0  0  0  0  0  # atno 17342 bound_to 10162
  139.9264  144.6768  150.8408 LP  0  0  0  0  0  0  0  0  0  0  0  0  # atno 17343 bound_to 10162
  157.3392  131.0713  151.1801 LP  0  0  0  0  0  0  0  0  0  0  0  0  # atno 17370 bound_to 10713
  157.2656  130.6679  149.5995 LP  0  0  0  0  0  0  0  0  0  0  0  0  # atno 17371 bound_to 10713
  140.1041  134.9517  157.1967 LP  0  0  0  0  0  0  0  0  0  0  0  0  # atno 17394 bound_to 11000
  140.3280  134.2842  155.7233 LP  0  0  0  0  0  0  0  0  0  0  0  0  # atno 17395 bound_to 11000

$$$$
