AV-unprocessed.smi:2062|AV-procd|sdf|8403|dock9
  -GOLD-   2272011 93D 1   1.00000     0.00000
 Structure written by MMmdl.
 42 43  0  0  0  0  0  0  0  0  3 V2000
  150.7969  144.6268  159.9078 C   0  0  0  0  0  0  0  0  0  0  0  0
  151.5252  143.6681  158.9543 C   0  0  0  0  0  0  0  0  0  0  0  0
  152.1147  144.4428  157.7635 C   0  0  0  0  0  0  0  0  0  0  0  0
  150.5799  142.5359  158.4964 C   0  0  0  0  0  0  0  0  0  0  0  0
  151.2256  141.5819  157.5540 N   0  3  2  0  0  0  0  0  0  0  0  0
  151.0102  141.9218  156.1265 C   0  0  0  0  0  0  0  0  0  0  0  0
  149.6076  141.4958  155.6603 C   0  0  0  0  0  0  0  0  0  0  0  0
  149.4459  140.1037  155.8915 O   0  0  0  0  0  0  0  0  0  0  0  0
  149.5156  139.7640  157.2730 C   0  0  1  0  0  0  0  0  0  0  0  0
  149.2443  138.2574  157.4303 C   0  0  0  0  0  0  0  0  0  0  0  0
  148.8628  137.9220  158.7980 N   0  0  0  0  0  0  0  0  0  0  0  0
  148.9109  136.7028  159.3525 C   0  0  0  0  0  0  0  0  0  0  0  0
  149.3354  135.7453  158.7015 O   0  0  0  0  0  0  0  0  0  0  0  0
  148.4593  136.6690  160.6261 N   0  5  0  0  0  0  0  0  0  0  0  0
  147.8114  135.5834  161.0793 C   0  0  0  0  0  0  0  0  0  0  0  0
  147.5858  134.5002  160.3264 N   0  0  0  0  0  0  0  0  0  0  0  0
  146.8917  133.4924  160.9983 C   0  0  0  0  0  0  0  0  0  0  0  0
  146.5728  133.8196  162.2897 C   0  0  0  0  0  0  0  0  0  0  0  0
  147.1399  135.4124  162.7033 S   0  0  0  0  0  0  0  0  0  0  0  0
  150.9158  140.1492  157.8002 C   0  0  0  0  0  0  0  0  0  0  0  0
  149.9553  145.1148  159.4147 H   0  0  0  0  0  0  0  0  0  0  0  0
  151.4673  145.4072  160.2692 H   0  0  0  0  0  0  0  0  0  0  0  0
  150.4112  144.0980  160.7799 H   0  0  0  0  0  0  0  0  0  0  0  0
  152.3537  143.2386  159.5168 H   0  0  0  0  0  0  0  0  0  0  0  0
  151.3303  144.9012  157.1602 H   0  0  0  0  0  0  0  0  0  0  0  0
  152.6992  143.7928  157.1121 H   0  0  0  0  0  0  0  0  0  0  0  0
  152.7776  145.2387  158.1041 H   0  0  0  0  0  0  0  0  0  0  0  0
  150.1838  141.9988  159.3582 H   0  0  0  0  0  0  0  0  0  0  0  0
  149.7178  142.9944  158.0102 H   0  0  0  0  0  0  0  0  0  0  0  0
  151.1727  142.9857  155.9513 H   0  0  0  0  0  0  0  0  0  0  0  0
  151.7596  141.3969  155.5326 H   0  0  0  0  0  0  0  0  0  0  0  0
  148.8267  142.0606  156.1718 H   0  0  0  0  0  0  0  0  0  0  0  0
  149.4923  141.6896  154.5938 H   0  0  0  0  0  0  0  0  0  0  0  0
  148.7463  140.3110  157.8203 H   0  0  0  0  0  0  0  0  0  0  0  0
  148.4885  137.9205  156.7186 H   0  0  0  0  0  0  0  0  0  0  0  0
  150.1509  137.6963  157.2029 H   0  0  0  0  0  0  0  0  0  0  0  0
  148.5160  138.6753  159.3735 H   0  0  0  0  0  0  0  0  0  0  0  0
  146.6654  132.5735  160.4785 H   0  0  0  0  0  0  0  0  0  0  0  0
  146.0419  133.2262  163.0184 H   0  0  0  0  0  0  0  0  0  0  0  0
  151.6692  139.5516  157.2852 H   0  0  0  0  0  0  0  0  0  0  0  0
  151.0090  139.9031  158.8570 H   0  0  0  0  0  0  0  0  0  0  0  0
  152.2169  141.6924  157.7132 H   0  0  0  0  0  0  0  0  0  0  0  0
  1  2  1  0  0  0  0
  1 21  1  0  0  0  0
  1 22  1  0  0  0  0
  1 23  1  0  0  0  0
  2  3  1  0  0  0  0
  2  4  1  0  0  0  0
  2 24  1  0  0  0  0
  3 25  1  0  0  0  0
  3 26  1  0  0  0  0
  3 27  1  0  0  0  0
  4  5  1  0  0  0  0
  4 28  1  0  0  0  0
  4 29  1  0  0  0  0
  5 20  1  0  0  0  0
  5  6  1  0  0  0  0
  5 42  1  0  0  0  0
  6  7  1  0  0  0  0
  6 30  1  0  0  0  0
  6 31  1  0  0  0  0
  7  8  1  0  0  0  0
  7 32  1  0  0  0  0
  7 33  1  0  0  0  0
  8  9  1  0  0  0  0
  9 10  1  0  0  0  0
  9 20  1  0  0  0  0
  9 34  1  0  0  0  0
 10 11  1  0  0  0  0
 10 35  1  0  0  0  0
 10 36  1  0  0  0  0
 11 12  1  0  0  0  0
 11 37  1  0  0  0  0
 12 13  2  0  0  0  0
 12 14  1  0  0  0  0
 14 15  1  0  0  0  0
 15 19  1  0  0  0  0
 15 16  2  0  0  0  0
 16 17  1  0  0  0  0
 17 18  2  0  0  0  0
 17 38  1  0  0  0  0
 18 19  1  0  0  0  0
 18 39  1  0  0  0  0
 20 40  1  0  0  0  0
 20 41  1  0  0  0  0
M  CHG  1   5   1
M  CHG  1  14  -1
M  END
> <s_m_source_file>
AV-unprocessed.smi

> <i_m_source_file_index>
2062

> <i_lp_mmshare_version>
43012

> <i_f3d_flags>
0

> <s_epik_input>
W0NIM11bQ0hdKFtDSDNdKVtDSDJdTjFbQ0gyXVtDSDJdT1tDQEhdKFtDSDJdMSlbQ0gyXVtOSF1DKD1PKVtOSF1jMm5bY0hdW2NIXXMy

> <s_epik_cmdline>
J2VwaWtfcHl0aG9uJywgJy1waCcsICc3LjAnLCAnLXRuJywgJzgnLCAnLW1hJywgJzIwMCcsICctbWV0YWxfYmluZGluZycsICctaW1hZScsICc8aW5maWxlLm1hZT4nLCAnLW9tYWUnLCAnPG91dGZpbGUubWFlPic=

> <r_lp_tautomer_probability>
0.999

> <r_epik_Ionization_Penalty>
6.35835

> <r_epik_Ionization_Penalty_Charging>
5.49938

> <r_epik_Ionization_Penalty_Neutral>
0.858963

> <r_epik_State_Penalty>
5.49328

> <r_epik_Charging_Adjusted_Penalty>
10.9927

> <i_epik_Tot_Q>
0

> <i_epik_Tot_abs_Q>
2

> <r_epik_Metal_State_Penalty>
1.51523

> <b_epik_Metal_Only>
1

> <s_lp_Force_Field>
OPLS_2005

> <r_lp_Energy>
10.4353

> <b_lp_Chiralities_Consistent>
1

> <s_lp_Variant>
AV-unprocessed.smi:2062-8

> <Gold.Version>
5.8.1

> <Gold.Id.Protein>
6NUR|6NUR_protein|mol2

> <Gold.PLP.Fitness>
45.3284

> <Gold.PLP.PLP>
-38.3108

> <Gold.PLP.part.hbond>
-2.0000

> <Gold.PLP.part.metal>
0.0000

> <Gold.PLP.part.buried>
-6.7354

> <Gold.PLP.part.nonpolar>
-30.3056

> <Gold.PLP.part.repulsive>
0.2996

> <Gold.PLP.ligand.clash>
0.0000

> <Gold.PLP.ligand.torsion>
1.0602

> <Gold.PLP.Chemscore.Hbond>
3.0000

> <Gold.PLP.Chemscore.CHOScore>
0.0000

> <Gold.PLP.Chemscore.Metal>
0.0000

> <Gold.Chemscore.Hbonds>
donor molecule, donor type, donor heavy atom, donor atom, acceptor molecule, acceptor atom, score
      P1  H  6896  6909       L1    13  1.00
      P1  H  6931  6943       L1    14  1.59

> <Gold.PLP.Chemscore.Internal.Correction>
0.1380

> <Gold.Rescore>
     Score         DG    S(hbond)    S(metal)    S(lipo)     H(rot)  DE(clash)    DE(int)     intcor
     15.74     -18.32       1.91        0.00      92.93       1.72       0.03       2.56       ----

> <Gold.Chemscore.Fitness>
15.7352

> <Gold.Chemscore.DG>
-18.3247

> <Gold.Chemscore.ZeroCoef>
-5.4800

> <Gold.Chemscore.Hbond>
1.9083

> <Gold.Chemscore.Metal>
0.0000

> <Gold.Chemscore.Lipo>
92.9290

> <Gold.Chemscore.Internal_Hbond>
0.0000

> <Gold.Chemscore.DEClash>
0.0280

> <Gold.Chemscore.DEInternal>
2.5616

> <Gold.Chemscore.Rot>
1.7194

> <Gold.Chemscore.Internal.Correction>
   9.000000E+99

> <Gold.Chemscore.Hbonds>
donor molecule, donor type, donor heavy atom, donor atom, acceptor molecule, acceptor atom, score
      P1  H  6896  6909       L1    13  0.95
      P1  H  6931  6943       L1    14  0.70

> <Gold.Chemscore.Hbond.Weighted>
-6.3737

> <Gold.Chemscore.Metal.Weighted>
-0.0000

> <Gold.Chemscore.Lipo.Weighted>
-10.8727

> <Gold.Chemscore.Internal_Hbond.Weighted>
0.0000

> <Gold.Chemscore.DEClash.Weighted>
0.0280

> <Gold.Chemscore.DEInternal.Weighted>
2.5616

> <Gold.Chemscore.Rot.Weighted>
4.4017

> <Gold.Chemscore.Internal.Correction.Weighted>
   9.000000E+99

> <Gold.Protein.RotatedTorsions>
[ 6907 6896 6895 6894 ] final   44.91 input  -60.11 | X-H torsion
[ 7974 7965 7964 7962 ] final  117.56 input  175.53 | X-H torsion
[ 8008 7997 7996 7995 ] final  165.82 input   59.86 | X-H torsion
[ 10167 10162 10161 10158 ] final  -27.86 input  -65.29 | X-H torsion
[ 10718 10713 10712 10709 ] final -174.90 input   66.30 | X-H torsion
[ 10763 10752 10751 10750 ] final  -83.02 input  -60.55 | X-H torsion
[ 11005 11000 10999 10996 ] final -105.90 input  -57.11 | X-H torsion

> <Gold.Protein.ActiveResidues>
 VAL166  LYS551  ARG553  GLY616  TRP617  ASP618  TYR619  PRO620  LYS621  CYS622 
 ASP623  PHE694  ASN695  SER759  ASP760  ASP761  ALA762  ILE779  LEU786  VAL792 
 PHE793  MET794  SER795  GLU796  ALA797  LYS798  CYS799  TRP800  GLU811  SER814 

> <Gold.Protein.RotatedAtoms>
  152.2382  134.8255  160.0463 H   0  0  0  0  0  0  0  0  0  0  0  0  # atno 6907 bound_to 6896
  151.8979  133.3526  159.3829 H   0  0  0  0  0  0  0  0  0  0  0  0  # atno 6908 bound_to 6896
  150.7045  134.4783  159.5502 H   0  0  0  0  0  0  0  0  0  0  0  0  # atno 6909 bound_to 6896
  145.1659  139.3128  143.4493 H   0  0  0  0  0  0  0  0  0  0  0  0  # atno 7974 bound_to 7965
  156.1769  140.1660  156.8346 H   0  0  0  0  0  0  0  0  0  0  0  0  # atno 8008 bound_to 7997
  154.5317  140.0755  156.8389 H   0  0  0  0  0  0  0  0  0  0  0  0  # atno 8009 bound_to 7997
  155.3394  140.3384  155.4241 H   0  0  0  0  0  0  0  0  0  0  0  0  # atno 8010 bound_to 7997
  140.7274  143.4057  151.1189 H   0  0  0  0  0  0  0  0  0  0  0  0  # atno 10167 bound_to 10162
  156.7919  130.9521  151.3120 H   0  0  0  0  0  0  0  0  0  0  0  0  # atno 10718 bound_to 10713
  154.5828  135.5570  153.7202 H   0  0  0  0  0  0  0  0  0  0  0  0  # atno 10763 bound_to 10752
  153.0087  135.6324  154.1959 H   0  0  0  0  0  0  0  0  0  0  0  0  # atno 10764 bound_to 10752
  154.1899  135.2883  155.3005 H   0  0  0  0  0  0  0  0  0  0  0  0  # atno 10765 bound_to 10752
  141.1031  133.8847  157.1790 H   0  0  0  0  0  0  0  0  0  0  0  0  # atno 11005 bound_to 11000
  146.3476  140.1787  142.8589 LP  0  0  0  0  0  0  0  0  0  0  0  0  # atno 17320 bound_to 7965
  145.0283  140.8850  143.5125 LP  0  0  0  0  0  0  0  0  0  0  0  0  # atno 17321 bound_to 7965
  139.7684  143.8531  152.3115 LP  0  0  0  0  0  0  0  0  0  0  0  0  # atno 17342 bound_to 10162
  139.8441  144.7196  150.9295 LP  0  0  0  0  0  0  0  0  0  0  0  0  # atno 17343 bound_to 10162
  157.6596  130.8954  149.9802 LP  0  0  0  0  0  0  0  0  0  0  0  0  # atno 17370 bound_to 10713
  156.1154  130.3648  149.9978 LP  0  0  0  0  0  0  0  0  0  0  0  0  # atno 17371 bound_to 10713
  139.9890  135.0071  156.9931 LP  0  0  0  0  0  0  0  0  0  0  0  0  # atno 17394 bound_to 11000
  140.4971  134.1134  155.7243 LP  0  0  0  0  0  0  0  0  0  0  0  0  # atno 17395 bound_to 11000

$$$$
