AV-unprocessed.smi:1157|AV-procd|sdf|4906|dock2
  -GOLD-   22720 3483D 1   1.00000     0.00000
 Structure written by MMmdl.
 54 56  0  0  0  0  0  0  0  0  1 V2000
  149.7161  132.1810  155.2558 C   0  0  0  0  0  0  0  0  0  0  0  0
  149.1431  133.6148  155.1168 C   0  0  0  0  0  0  0  0  0  0  0  0
  148.9635  134.1778  156.5473 C   0  0  0  0  0  0  0  0  0  0  0  0
  150.2506  134.4596  154.4245 C   0  0  0  0  0  0  0  0  0  0  0  0
  149.9845  135.8922  154.5092 N   0  0  0  0  0  0  0  0  0  0  0  0
  150.6288  136.7387  155.3213 C   0  0  0  0  0  0  0  0  0  0  0  0
  151.5304  136.3916  156.0841 O   0  0  0  0  0  0  0  0  0  0  0  0
  150.1465  137.9873  155.2024 N   0  0  0  0  0  0  0  0  0  0  0  0
  150.5645  139.1624  155.8825 C   0  0  0  0  0  0  0  0  0  0  0  0
  149.7325  140.2799  156.1243 C   0  0  0  0  0  0  0  0  0  0  0  0
  150.2574  141.3819  156.8263 C   0  0  0  0  0  0  0  0  0  0  0  0
  151.5992  141.3400  157.2737 C   0  0  0  0  0  0  0  0  0  0  0  0
  152.1609  142.4220  157.9800 N   0  0  0  0  0  0  0  0  0  0  0  0
  151.5940  143.7599  157.9094 C   0  0  0  0  0  0  0  0  0  0  0  0
  152.4005  144.5748  158.9192 C   0  0  0  0  0  0  0  0  0  0  0  0
  152.7427  143.5478  159.9985 C   0  0  0  0  0  0  0  0  0  0  0  0
  152.8826  142.2283  159.2303 C   0  0  0  0  0  0  0  0  0  0  0  0
  152.3873  140.2596  157.0592 N   0  0  0  0  0  0  0  0  0  0  0  0
  151.8793  139.2056  156.3869 C   0  0  0  0  0  0  0  0  0  0  0  0
  147.8795  133.6126  154.3268 N   0  0  0  0  0  0  0  0  0  0  0  0
  148.0157  133.1296  152.9475 C   0  0  0  0  0  0  0  0  0  0  0  0
  146.6580  133.0350  152.2313 C   0  0  0  0  0  0  0  0  0  0  0  0
  146.0159  134.3040  152.2536 O   0  0  0  0  0  0  0  0  0  0  0  0
  145.8102  134.7846  153.5765 C   0  0  0  0  0  0  0  0  0  0  0  0
  147.1602  134.8917  154.3061 C   0  0  0  0  0  0  0  0  0  0  0  0
  150.7200  132.1910  155.6820 H   0  0  0  0  0  0  0  0  0  0  0  0
  149.7783  131.6758  154.2913 H   0  0  0  0  0  0  0  0  0  0  0  0
  149.1143  131.5575  155.9169 H   0  0  0  0  0  0  0  0  0  0  0  0
  149.9051  134.1542  157.0972 H   0  0  0  0  0  0  0  0  0  0  0  0
  148.2461  133.6011  157.1308 H   0  0  0  0  0  0  0  0  0  0  0  0
  148.6299  135.2154  156.5429 H   0  0  0  0  0  0  0  0  0  0  0  0
  151.2322  134.2546  154.8530 H   0  0  0  0  0  0  0  0  0  0  0  0
  150.3334  134.1782  153.3729 H   0  0  0  0  0  0  0  0  0  0  0  0
  149.2506  136.2538  153.9176 H   0  0  0  0  0  0  0  0  0  0  0  0
  149.3448  138.0981  154.5987 H   0  0  0  0  0  0  0  0  0  0  0  0
  148.7034  140.3088  155.8019 H   0  0  0  0  0  0  0  0  0  0  0  0
  149.6230  142.2341  157.0192 H   0  0  0  0  0  0  0  0  0  0  0  0
  151.6671  144.1767  156.9043 H   0  0  0  0  0  0  0  0  0  0  0  0
  150.5417  143.7258  158.1951 H   0  0  0  0  0  0  0  0  0  0  0  0
  153.3172  144.9383  158.4528 H   0  0  0  0  0  0  0  0  0  0  0  0
  151.8527  145.4350  159.3045 H   0  0  0  0  0  0  0  0  0  0  0  0
  153.6393  143.8057  160.5626 H   0  0  0  0  0  0  0  0  0  0  0  0
  151.9139  143.4730  160.7037 H   0  0  0  0  0  0  0  0  0  0  0  0
  152.4845  141.3960  159.8120 H   0  0  0  0  0  0  0  0  0  0  0  0
  153.9290  142.0210  159.0043 H   0  0  0  0  0  0  0  0  0  0  0  0
  152.5499  138.3710  156.2429 H   0  0  0  0  0  0  0  0  0  0  0  0
  148.6668  133.7932  152.3783 H   0  0  0  0  0  0  0  0  0  0  0  0
  148.4718  132.1416  152.9234 H   0  0  0  0  0  0  0  0  0  0  0  0
  146.7971  132.7248  151.1956 H   0  0  0  0  0  0  0  0  0  0  0  0
  146.0216  132.2872  152.7071 H   0  0  0  0  0  0  0  0  0  0  0  0
  145.3270  135.7606  153.5293 H   0  0  0  0  0  0  0  0  0  0  0  0
  145.1332  134.1174  154.1126 H   0  0  0  0  0  0  0  0  0  0  0  0
  146.9613  135.2426  155.3171 H   0  0  0  0  0  0  0  0  0  0  0  0
  147.7638  135.6565  153.8173 H   0  0  0  0  0  0  0  0  0  0  0  0
  1  2  1  0  0  0  0
  1 26  1  0  0  0  0
  1 27  1  0  0  0  0
  1 28  1  0  0  0  0
  2  3  1  0  0  0  0
  2  4  1  0  0  0  0
  2 20  1  0  0  0  0
  3 29  1  0  0  0  0
  3 30  1  0  0  0  0
  3 31  1  0  0  0  0
  4  5  1  0  0  0  0
  4 32  1  0  0  0  0
  4 33  1  0  0  0  0
  5  6  1  0  0  0  0
  5 34  1  0  0  0  0
  6  7  2  0  0  0  0
  6  8  1  0  0  0  0
  8  9  1  0  0  0  0
  8 35  1  0  0  0  0
  9 19  1  0  0  0  0
  9 10  2  0  0  0  0
 10 11  1  0  0  0  0
 10 36  1  0  0  0  0
 11 12  2  0  0  0  0
 11 37  1  0  0  0  0
 12 13  1  0  0  0  0
 12 18  1  0  0  0  0
 13 17  1  0  0  0  0
 13 14  1  0  0  0  0
 14 15  1  0  0  0  0
 14 38  1  0  0  0  0
 14 39  1  0  0  0  0
 15 16  1  0  0  0  0
 15 40  1  0  0  0  0
 15 41  1  0  0  0  0
 16 17  1  0  0  0  0
 16 42  1  0  0  0  0
 16 43  1  0  0  0  0
 17 44  1  0  0  0  0
 17 45  1  0  0  0  0
 18 19  2  0  0  0  0
 19 46  1  0  0  0  0
 20 25  1  0  0  0  0
 20 21  1  0  0  0  0
 21 22  1  0  0  0  0
 21 47  1  0  0  0  0
 21 48  1  0  0  0  0
 22 23  1  0  0  0  0
 22 49  1  0  0  0  0
 22 50  1  0  0  0  0
 23 24  1  0  0  0  0
 24 25  1  0  0  0  0
 24 51  1  0  0  0  0
 24 52  1  0  0  0  0
 25 53  1  0  0  0  0
 25 54  1  0  0  0  0
M  END
> <s_m_source_file>
AV-unprocessed.smi

> <i_m_source_file_index>
1157

> <i_lp_mmshare_version>
43012

> <i_f3d_flags>
0

> <s_epik_input>
W0NIMl0xW0NIMl1PW0NIMl1bQ0gyXU4xQyhbQ0gzXSkoW0NIM10pW0NIMl1bTkhdQyg9TylbTkhdYzJbY0hdW2NIXWMobltjSF0yKU4zW0NIMl1bQ0gyXVtDSDJdW0NIMl0z

> <s_epik_cmdline>
J2VwaWtfcHl0aG9uJywgJy1waCcsICc3LjAnLCAnLXRuJywgJzgnLCAnLW1hJywgJzIwMCcsICctbWV0YWxfYmluZGluZycsICctaW1hZScsICc8aW5maWxlLm1hZT4nLCAnLW9tYWUnLCAnPG91dGZpbGUubWFlPic=

> <r_lp_tautomer_probability>
1

> <r_epik_Ionization_Penalty>
0.366523

> <r_epik_Ionization_Penalty_Charging>
0

> <r_epik_Ionization_Penalty_Neutral>
0.366523

> <r_epik_State_Penalty>
0.351681

> <r_epik_Charging_Adjusted_Penalty>
0.351681

> <i_epik_Tot_Q>
0

> <i_epik_Tot_abs_Q>
0

> <r_epik_Metal_State_Penalty>
0.334658

> <b_epik_Metal_Only>
0

> <s_lp_Force_Field>
OPLS_2005

> <r_lp_Energy>
67.3279

> <b_lp_Chiralities_Consistent>
1

> <s_lp_Variant>
AV-unprocessed.smi:1157-1

> <Gold.Version>
5.8.1

> <Gold.Id.Protein>
6NUR|6NUR_protein|mol2

> <Gold.PLP.Fitness>
45.8129

> <Gold.PLP.PLP>
-38.9588

> <Gold.PLP.part.hbond>
-3.6409

> <Gold.PLP.part.metal>
0.0000

> <Gold.PLP.part.buried>
-3.9495

> <Gold.PLP.part.nonpolar>
-31.5540

> <Gold.PLP.part.repulsive>
0.3452

> <Gold.PLP.ligand.clash>
0.0000

> <Gold.PLP.ligand.torsion>
0.9133

> <Gold.PLP.Chemscore.Hbond>
2.8073

> <Gold.PLP.Chemscore.CHOScore>
0.0000

> <Gold.PLP.Chemscore.Metal>
0.0000

> <Gold.Chemscore.Hbonds>
donor molecule, donor type, donor heavy atom, donor atom, acceptor molecule, acceptor atom, score
      L1  H     5    34       P1  7948  0.59
      P1  H  7997  8009       L1    18  1.00
      P1  H 10752 10765       L1     7  0.80

> <Gold.PLP.Chemscore.Internal.Correction>
0.2591

> <Gold.Rescore>
     Score         DG    S(hbond)    S(metal)    S(lipo)     H(rot)  DE(clash)    DE(int)     intcor
     17.42     -21.05       2.32        0.00      97.01       1.38       0.31       3.32       ----

> <Gold.Chemscore.Fitness>
17.4210

> <Gold.Chemscore.DG>
-21.0532

> <Gold.Chemscore.ZeroCoef>
-5.4800

> <Gold.Chemscore.Hbond>
2.3229

> <Gold.Chemscore.Metal>
0.0000

> <Gold.Chemscore.Lipo>
97.0114

> <Gold.Chemscore.Internal_Hbond>
0.0000

> <Gold.Chemscore.DEClash>
0.3119

> <Gold.Chemscore.DEInternal>
3.3203

> <Gold.Chemscore.Rot>
1.3812

> <Gold.Chemscore.Internal.Correction>
   9.000000E+99

> <Gold.Chemscore.Hbonds>
donor molecule, donor type, donor heavy atom, donor atom, acceptor molecule, acceptor atom, score
      L1  H     5    34       P1  7948  0.51
      P1  H  7997  8009       L1    18  0.31
      P1  H 10752 10765       L1     7  0.58

> <Gold.Chemscore.Hbond.Weighted>
-7.7586

> <Gold.Chemscore.Metal.Weighted>
-0.0000

> <Gold.Chemscore.Lipo.Weighted>
-11.3503

> <Gold.Chemscore.Internal_Hbond.Weighted>
0.0000

> <Gold.Chemscore.DEClash.Weighted>
0.3119

> <Gold.Chemscore.DEInternal.Weighted>
3.3203

> <Gold.Chemscore.Rot.Weighted>
3.5358

> <Gold.Chemscore.Internal.Correction.Weighted>
   9.000000E+99

> <Gold.Protein.RotatedTorsions>
[ 6907 6896 6895 6894 ] final   97.12 input  -60.11 | X-H torsion
[ 7974 7965 7964 7962 ] final  120.97 input  175.53 | X-H torsion
[ 8008 7997 7996 7995 ] final -179.00 input   59.86 | X-H torsion
[ 10167 10162 10161 10158 ] final  141.19 input  -65.29 | X-H torsion
[ 10718 10713 10712 10709 ] final -141.17 input   66.30 | X-H torsion
[ 10763 10752 10751 10750 ] final -153.64 input  -60.55 | X-H torsion
[ 11005 11000 10999 10996 ] final  -24.87 input  -57.11 | X-H torsion

> <Gold.Protein.ActiveResidues>
 VAL166  LYS551  ARG553  GLY616  TRP617  ASP618  TYR619  PRO620  LYS621  CYS622 
 ASP623  PHE694  ASN695  SER759  ASP760  ASP761  ALA762  ILE779  LEU786  VAL792 
 PHE793  MET794  SER795  GLU796  ALA797  LYS798  CYS799  TRP800  GLU811  SER814 

> <Gold.Protein.RotatedAtoms>
  152.5427  134.0782  159.8223 H   0  0  0  0  0  0  0  0  0  0  0  0  # atno 6907 bound_to 6896
  151.0888  133.5325  159.2623 H   0  0  0  0  0  0  0  0  0  0  0  0  # atno 6908 bound_to 6896
  151.2124  135.0495  159.8971 H   0  0  0  0  0  0  0  0  0  0  0  0  # atno 6909 bound_to 6896
  145.1248  139.3365  143.4695 H   0  0  0  0  0  0  0  0  0  0  0  0  # atno 7974 bound_to 7965
  156.0254  140.1270  157.0314 H   0  0  0  0  0  0  0  0  0  0  0  0  # atno 8008 bound_to 7997
  154.4328  140.1060  156.6093 H   0  0  0  0  0  0  0  0  0  0  0  0  # atno 8009 bound_to 7997
  155.5885  140.3469  155.4562 H   0  0  0  0  0  0  0  0  0  0  0  0  # atno 8010 bound_to 7997
  139.5027  144.6187  151.6103 H   0  0  0  0  0  0  0  0  0  0  0  0  # atno 10167 bound_to 10162
  156.3309  130.7585  151.1703 H   0  0  0  0  0  0  0  0  0  0  0  0  # atno 10718 bound_to 10713
  154.7913  135.3208  154.7769 H   0  0  0  0  0  0  0  0  0  0  0  0  # atno 10763 bound_to 10752
  153.8458  135.6867  153.4802 H   0  0  0  0  0  0  0  0  0  0  0  0  # atno 10764 bound_to 10752
  153.1585  135.4670  154.9679 H   0  0  0  0  0  0  0  0  0  0  0  0  # atno 10765 bound_to 10752
  140.8885  133.7604  156.0391 H   0  0  0  0  0  0  0  0  0  0  0  0  # atno 11005 bound_to 11000
  146.3518  140.1222  142.8600 LP  0  0  0  0  0  0  0  0  0  0  0  0  # atno 17320 bound_to 7965
  145.0700  140.9149  143.4887 LP  0  0  0  0  0  0  0  0  0  0  0  0  # atno 17321 bound_to 7965
  140.5882  143.9826  150.6308 LP  0  0  0  0  0  0  0  0  0  0  0  0  # atno 17342 bound_to 10162
  140.2998  143.3268  152.0983 LP  0  0  0  0  0  0  0  0  0  0  0  0  # atno 17343 bound_to 10162
  157.7430  131.0481  150.4980 LP  0  0  0  0  0  0  0  0  0  0  0  0  # atno 17370 bound_to 10713
  156.5146  130.4147  149.6283 LP  0  0  0  0  0  0  0  0  0  0  0  0  # atno 17371 bound_to 10713
  140.8375  134.3105  157.5326 LP  0  0  0  0  0  0  0  0  0  0  0  0  # atno 17394 bound_to 11000
  139.8727  134.9398  156.3751 LP  0  0  0  0  0  0  0  0  0  0  0  0  # atno 17395 bound_to 11000

$$$$
