AV-unprocessed.smi:2254|AV-procd|sdf|9123|dock10
  -GOLD-   2272012323D 1   1.00000     0.00000
 Structure written by MMmdl.
 41 42  0  0  0  0  0  0  0  0  1 V2000
  153.2258  141.1529  159.8905 C   0  0  0  0  0  0  0  0  0  0  0  0
  152.5760  140.7535  158.5774 C   0  0  0  0  0  0  0  0  0  0  0  0
  153.0724  139.5871  157.9879 N   0  0  0  0  0  0  0  0  0  0  0  0
  152.5879  139.1774  156.8614 C   0  0  0  0  0  0  0  0  0  0  0  0
  151.5654  139.8770  156.2009 N   0  0  0  0  0  0  0  0  0  0  0  0
  151.1068  139.3090  154.9235 C   0  0  0  0  0  0  0  0  0  0  0  0
  151.5654  137.8430  154.7436 C   0  0  2  0  0  0  0  0  0  0  0  0
  151.2848  137.4340  153.4201 O   0  0  0  0  0  0  0  0  0  0  0  0
  150.8261  136.8824  155.6870 C   0  0  0  0  0  0  0  0  0  0  0  0
  150.9991  135.5616  155.2024 O   0  0  0  0  0  0  0  0  0  0  0  0
  150.6991  134.5666  156.1666 C   0  0  0  0  0  0  0  0  0  0  0  0
  150.3978  133.2231  155.5280 C   0  0  0  0  0  0  0  0  0  0  0  0
  149.4147  133.1079  154.5206 C   0  0  0  0  0  0  0  0  0  0  0  0
  149.1324  131.8535  153.9459 C   0  0  0  0  0  0  0  0  0  0  0  0
  149.8260  130.7070  154.3794 C   0  0  0  0  0  0  0  0  0  0  0  0
  149.4788  129.1700  153.6761 Cl  0  0  0  0  0  0  0  0  0  0  0  0
  150.8009  130.8155  155.3900 C   0  0  0  0  0  0  0  0  0  0  0  0
  151.0838  132.0702  155.9647 C   0  0  0  0  0  0  0  0  0  0  0  0
  151.0084  141.0110  156.7167 C   0  0  0  0  0  0  0  0  0  0  0  0
  150.0915  141.6010  156.1417 O   0  0  0  0  0  0  0  0  0  0  0  0
  151.5757  141.4698  157.9950 C   0  0  0  0  0  0  0  0  0  0  0  0
  150.9973  142.7481  158.5890 C   0  0  0  0  0  0  0  0  0  0  0  0
  152.4887  141.1635  160.6936 H   0  0  0  0  0  0  0  0  0  0  0  0
  153.6702  142.1454  159.8107 H   0  0  0  0  0  0  0  0  0  0  0  0
  154.0162  140.4555  160.1710 H   0  0  0  0  0  0  0  0  0  0  0  0
  152.9369  138.2722  156.3615 H   0  0  0  0  0  0  0  0  0  0  0  0
  150.0165  139.3605  154.9037 H   0  0  0  0  0  0  0  0  0  0  0  0
  151.4073  139.9184  154.0682 H   0  0  0  0  0  0  0  0  0  0  0  0
  152.6380  137.7394  154.9135 H   0  0  0  0  0  0  0  0  0  0  0  0
  151.2006  136.4929  153.4074 H   0  0  0  0  0  0  0  0  0  0  0  0
  151.2051  136.9724  156.7066 H   0  0  0  0  0  0  0  0  0  0  0  0
  149.7612  137.1203  155.7077 H   0  0  0  0  0  0  0  0  0  0  0  0
  151.5418  134.4564  156.8513 H   0  0  0  0  0  0  0  0  0  0  0  0
  149.8337  134.8693  156.7579 H   0  0  0  0  0  0  0  0  0  0  0  0
  148.8724  133.9787  154.1824 H   0  0  0  0  0  0  0  0  0  0  0  0
  148.3816  131.7729  153.1736 H   0  0  0  0  0  0  0  0  0  0  0  0
  151.3318  129.9372  155.7266 H   0  0  0  0  0  0  0  0  0  0  0  0
  151.8305  132.1447  156.7417 H   0  0  0  0  0  0  0  0  0  0  0  0
  151.1697  143.5866  157.9134 H   0  0  0  0  0  0  0  0  0  0  0  0
  151.4291  143.0081  159.5540 H   0  0  0  0  0  0  0  0  0  0  0  0
  149.9210  142.6443  158.7304 H   0  0  0  0  0  0  0  0  0  0  0  0
  1  2  1  0  0  0  0
  1 23  1  0  0  0  0
  1 24  1  0  0  0  0
  1 25  1  0  0  0  0
  2 21  2  0  0  0  0
  2  3  1  0  0  0  0
  3  4  2  0  0  0  0
  4  5  1  0  0  0  0
  4 26  1  0  0  0  0
  5  6  1  0  0  0  0
  5 19  1  0  0  0  0
  6  7  1  0  0  0  0
  6 27  1  0  0  0  0
  6 28  1  0  0  0  0
  7  8  1  0  0  0  0
  7  9  1  0  0  0  0
  7 29  1  0  0  0  0
  8 30  1  0  0  0  0
  9 10  1  0  0  0  0
  9 31  1  0  0  0  0
  9 32  1  0  0  0  0
 10 11  1  0  0  0  0
 11 12  1  0  0  0  0
 11 33  1  0  0  0  0
 11 34  1  0  0  0  0
 12 18  1  0  0  0  0
 12 13  2  0  0  0  0
 13 14  1  0  0  0  0
 13 35  1  0  0  0  0
 14 15  2  0  0  0  0
 14 36  1  0  0  0  0
 15 16  1  0  0  0  0
 15 17  1  0  0  0  0
 17 18  2  0  0  0  0
 17 37  1  0  0  0  0
 18 38  1  0  0  0  0
 19 20  2  0  0  0  0
 19 21  1  0  0  0  0
 21 22  1  0  0  0  0
 22 39  1  0  0  0  0
 22 40  1  0  0  0  0
 22 41  1  0  0  0  0
M  END
> <s_m_source_file>
AV-unprocessed.smi

> <i_m_source_file_index>
2254

> <i_lp_mmshare_version>
43012

> <i_f3d_flags>
0

> <s_epik_input>
W0NIM11jMW5bY0hdbihjKD1PKWMxW0NIM10pW0NIMl1bQ0BIXShbT0hdKVtDSDJdT1tDSDJdYzJbY0hdW2NIXWMoQ2wpW2NIXVtjSF0y

> <s_epik_cmdline>
J2VwaWtfcHl0aG9uJywgJy1waCcsICc3LjAnLCAnLXRuJywgJzgnLCAnLW1hJywgJzIwMCcsICctbWV0YWxfYmluZGluZycsICctaW1hZScsICc8aW5maWxlLm1hZT4nLCAnLW9tYWUnLCAnPG91dGZpbGUubWFlPic=

> <r_lp_tautomer_probability>
1

> <r_epik_Ionization_Penalty>
5.36e-05

> <r_epik_Ionization_Penalty_Charging>
1.17753e-07

> <r_epik_Ionization_Penalty_Neutral>
5.34822e-05

> <r_epik_State_Penalty>
-0

> <r_epik_Charging_Adjusted_Penalty>
1.17753e-07

> <i_epik_Tot_Q>
0

> <i_epik_Tot_abs_Q>
0

> <r_epik_Metal_State_Penalty>
-0

> <b_epik_Metal_Only>
0

> <s_lp_Force_Field>
OPLS_2005

> <r_lp_Energy>
20.9698

> <b_lp_Chiralities_Consistent>
1

> <s_lp_Variant>
AV-unprocessed.smi:2254-1

> <Gold.Version>
5.8.1

> <Gold.Id.Protein>
6NUR|6NUR_protein|mol2

> <Gold.PLP.Fitness>
42.7762

> <Gold.PLP.PLP>
-40.3319

> <Gold.PLP.part.hbond>
-3.5681

> <Gold.PLP.part.metal>
0.0000

> <Gold.PLP.part.buried>
-0.6469

> <Gold.PLP.part.nonpolar>
-35.0642

> <Gold.PLP.part.repulsive>
0.2161

> <Gold.PLP.ligand.clash>
1.6608

> <Gold.PLP.ligand.torsion>
0.6237

> <Gold.PLP.Chemscore.Hbond>
1.7600

> <Gold.PLP.Chemscore.CHOScore>
0.0000

> <Gold.PLP.Chemscore.Metal>
0.0000

> <Gold.Chemscore.Hbonds>
donor molecule, donor type, donor heavy atom, donor atom, acceptor molecule, acceptor atom, score
      L1  H     8    30       P1  7949  0.13
      P1  H  7997  8009       L1     3  0.55
      P1  H 10752 10764       L1    10  0.98

> <Gold.PLP.Chemscore.Internal.Correction>
0.0726

> <Gold.Rescore>
     Score         DG    S(hbond)    S(metal)    S(lipo)     H(rot)  DE(clash)    DE(int)     intcor
     11.54     -12.15       0.66        0.00      93.27       2.52       0.08       0.54       ----

> <Gold.Chemscore.Fitness>
11.5374

> <Gold.Chemscore.DG>
-12.1505

> <Gold.Chemscore.ZeroCoef>
-5.4800

> <Gold.Chemscore.Hbond>
0.6586

> <Gold.Chemscore.Metal>
0.0000

> <Gold.Chemscore.Lipo>
93.2656

> <Gold.Chemscore.Internal_Hbond>
0.0000

> <Gold.Chemscore.DEClash>
0.0776

> <Gold.Chemscore.DEInternal>
0.5355

> <Gold.Chemscore.Rot>
2.5162

> <Gold.Chemscore.Internal.Correction>
   9.000000E+99

> <Gold.Chemscore.Hbonds>
donor molecule, donor type, donor heavy atom, donor atom, acceptor molecule, acceptor atom, score
      L1  H     8    30       P1  7949  0.07
      P1  H  7997  8009       L1     3  0.02
      P1  H 10752 10764       L1    10  0.32

> <Gold.Chemscore.Hbond.Weighted>
-2.1998

> <Gold.Chemscore.Metal.Weighted>
-0.0000

> <Gold.Chemscore.Lipo.Weighted>
-10.9121

> <Gold.Chemscore.Internal_Hbond.Weighted>
0.0000

> <Gold.Chemscore.DEClash.Weighted>
0.0776

> <Gold.Chemscore.DEInternal.Weighted>
0.5355

> <Gold.Chemscore.Rot.Weighted>
6.4414

> <Gold.Chemscore.Internal.Correction.Weighted>
   9.000000E+99

> <Gold.Protein.RotatedTorsions>
[ 6907 6896 6895 6894 ] final  -36.46 input  -60.11 | X-H torsion
[ 7974 7965 7964 7962 ] final   -5.86 input  175.53 | X-H torsion
[ 8008 7997 7996 7995 ] final  141.66 input   59.86 | X-H torsion
[ 10167 10162 10161 10158 ] final  -16.48 input  -65.29 | X-H torsion
[ 10718 10713 10712 10709 ] final  -72.11 input   66.30 | X-H torsion
[ 10763 10752 10751 10750 ] final  -66.36 input  -60.55 | X-H torsion
[ 11005 11000 10999 10996 ] final -140.23 input  -57.11 | X-H torsion

> <Gold.Protein.ActiveResidues>
 VAL166  LYS551  ARG553  GLY616  TRP617  ASP618  TYR619  PRO620  LYS621  CYS622 
 ASP623  PHE694  ASN695  SER759  ASP760  ASP761  ALA762  ILE779  LEU786  VAL792 
 PHE793  MET794  SER795  GLU796  ALA797  LYS798  CYS799  TRP800  GLU811  SER814 

> <Gold.Protein.RotatedAtoms>
  151.0269  134.9510  159.8089 H   0  0  0  0  0  0  0  0  0  0  0  0  # atno 6907 bound_to 6896
  152.5337  134.2831  159.9025 H   0  0  0  0  0  0  0  0  0  0  0  0  # atno 6908 bound_to 6896
  151.2839  133.4154  159.2663 H   0  0  0  0  0  0  0  0  0  0  0  0  # atno 6909 bound_to 6896
  146.2344  140.2083  142.8335 H   0  0  0  0  0  0  0  0  0  0  0  0  # atno 7974 bound_to 7965
  156.2962  140.2309  156.4601 H   0  0  0  0  0  0  0  0  0  0  0  0  # atno 8008 bound_to 7997
  154.8026  140.0447  157.1305 H   0  0  0  0  0  0  0  0  0  0  0  0  # atno 8009 bound_to 7997
  154.9516  140.3042  155.5076 H   0  0  0  0  0  0  0  0  0  0  0  0  # atno 8010 bound_to 7997
  140.7234  143.5112  150.9747 H   0  0  0  0  0  0  0  0  0  0  0  0  # atno 10167 bound_to 10162
  156.0334  130.4365  150.2544 H   0  0  0  0  0  0  0  0  0  0  0  0  # atno 10718 bound_to 10713
  154.3587  135.6121  153.5679 H   0  0  0  0  0  0  0  0  0  0  0  0  # atno 10763 bound_to 10752
  152.9794  135.5810  154.4658 H   0  0  0  0  0  0  0  0  0  0  0  0  # atno 10764 bound_to 10752
  154.4392  135.2850  155.1836 H   0  0  0  0  0  0  0  0  0  0  0  0  # atno 10765 bound_to 10752
  140.8443  134.2364  157.4794 H   0  0  0  0  0  0  0  0  0  0  0  0  # atno 11005 bound_to 11000
  144.9727  140.8384  143.5446 LP  0  0  0  0  0  0  0  0  0  0  0  0  # atno 17320 bound_to 7965
  145.2067  139.2225  143.5164 LP  0  0  0  0  0  0  0  0  0  0  0  0  # atno 17321 bound_to 7965
  139.8826  143.7053  152.3155 LP  0  0  0  0  0  0  0  0  0  0  0  0  # atno 17342 bound_to 10162
  139.7341  144.7575  151.0756 LP  0  0  0  0  0  0  0  0  0  0  0  0  # atno 17343 bound_to 10162
  157.0645  131.0099  151.3211 LP  0  0  0  0  0  0  0  0  0  0  0  0  # atno 17370 bound_to 10713
  157.5046  130.7901  149.7640 LP  0  0  0  0  0  0  0  0  0  0  0  0  # atno 17371 bound_to 10713
  139.8703  134.9651  156.4517 LP  0  0  0  0  0  0  0  0  0  0  0  0  # atno 17394 bound_to 11000
  140.8861  133.7882  155.9520 LP  0  0  0  0  0  0  0  0  0  0  0  0  # atno 17395 bound_to 11000

$$$$
