AV-unprocessed.smi:2059|AV-procd|sdf|8350|dock10
  -GOLD-   2272011 23D 1   1.00000     0.00000
 Structure written by MMmdl.
 29 30  0  0  0  0  0  0  0  0  2 V2000
  146.2487  132.9786  162.5013 C   0  0  0  0  0  0  0  0  0  0  0  0
  146.5415  134.3409  161.9719 C   0  0  0  0  0  0  0  0  0  0  0  0
  147.6236  134.8746  161.3316 C   0  0  0  0  0  0  0  0  0  0  0  0
  147.2368  136.2240  161.1081 C   0  0  0  0  0  0  0  0  0  0  0  0
  147.9770  137.1631  160.4929 N   0  5  0  0  0  0  0  0  0  0  0  0
  148.9023  136.8665  159.5419 C   0  0  0  0  0  0  0  0  0  0  0  0
  149.3017  135.7236  159.3223 O   0  0  0  0  0  0  0  0  0  0  0  0
  149.3988  137.8816  158.8087 N   0  0  0  0  0  0  0  0  0  0  0  0
  150.4023  137.7732  157.7549 C   0  0  2  0  0  0  0  0  0  0  0  0
  151.3628  138.9760  157.7879 C   0  0  0  0  0  0  0  0  0  0  0  0
  152.1556  139.0097  156.4757 C   0  0  0  0  0  0  0  0  0  0  0  0
  151.0456  138.3103  155.1951 S   0  0  0  0  0  0  0  0  0  0  0  0
  150.4891  139.3994  154.3779 O   0  0  0  0  0  0  0  0  0  0  0  0
  151.7105  137.1583  154.5674 O   0  0  0  0  0  0  0  0  0  0  0  0
  149.7614  137.7176  156.3589 C   0  0  0  0  0  0  0  0  0  0  0  0
  146.0228  136.4840  161.5643 N   0  0  0  0  0  0  0  0  0  0  0  0
  145.5721  135.2829  162.1247 O   0  0  0  0  0  0  0  0  0  0  0  0
  146.0757  132.2782  161.6842 H   0  0  0  0  0  0  0  0  0  0  0  0
  145.3614  132.9848  163.1348 H   0  0  0  0  0  0  0  0  0  0  0  0
  147.0840  132.6068  163.0946 H   0  0  0  0  0  0  0  0  0  0  0  0
  148.5457  134.3804  161.0648 H   0  0  0  0  0  0  0  0  0  0  0  0
  149.0479  138.8073  159.0067 H   0  0  0  0  0  0  0  0  0  0  0  0
  150.9945  136.8688  157.9063 H   0  0  0  0  0  0  0  0  0  0  0  0
  150.7811  139.8959  157.8664 H   0  0  0  0  0  0  0  0  0  0  0  0
  152.0238  138.9437  158.6546 H   0  0  0  0  0  0  0  0  0  0  0  0
  152.4714  140.0143  156.1947 H   0  0  0  0  0  0  0  0  0  0  0  0
  153.0369  138.3713  156.5412 H   0  0  0  0  0  0  0  0  0  0  0  0
  149.4331  136.7157  156.0815 H   0  0  0  0  0  0  0  0  0  0  0  0
  148.9088  138.3940  156.2895 H   0  0  0  0  0  0  0  0  0  0  0  0
  1  2  1  0  0  0  0
  1 18  1  0  0  0  0
  1 19  1  0  0  0  0
  1 20  1  0  0  0  0
  2 17  1  0  0  0  0
  2  3  2  0  0  0  0
  3  4  1  0  0  0  0
  3 21  1  0  0  0  0
  4  5  1  0  0  0  0
  4 16  2  0  0  0  0
  5  6  1  0  0  0  0
  6  7  2  0  0  0  0
  6  8  1  0  0  0  0
  8  9  1  0  0  0  0
  8 22  1  0  0  0  0
  9 15  1  0  0  0  0
  9 10  1  0  0  0  0
  9 23  1  0  0  0  0
 10 11  1  0  0  0  0
 10 24  1  0  0  0  0
 10 25  1  0  0  0  0
 11 12  1  0  0  0  0
 11 26  1  0  0  0  0
 11 27  1  0  0  0  0
 12 13  2  0  0  0  0
 12 14  2  0  0  0  0
 12 15  1  0  0  0  0
 15 28  1  0  0  0  0
 15 29  1  0  0  0  0
 16 17  1  0  0  0  0
M  CHG  1   5  -1
M  END
> <s_m_source_file>
AV-unprocessed.smi

> <i_m_source_file_index>
2059

> <i_lp_mmshare_version>
43012

> <i_f3d_flags>
0

> <s_epik_input>
W0NIM11jMVtjSF1jKG5vMSlbTkhdQyg9TylbTkhdW0NAQEhdKFtDSDJdMilbQ0gyXVtDSDJdUzIoPU8pPU8=

> <s_epik_cmdline>
J2VwaWtfcHl0aG9uJywgJy1waCcsICc3LjAnLCAnLXRuJywgJzgnLCAnLW1hJywgJzIwMCcsICctbWV0YWxfYmluZGluZycsICctaW1hZScsICc8aW5maWxlLm1hZT4nLCAnLW9tYWUnLCAnPG91dGZpbGUubWFlPic=

> <r_lp_tautomer_probability>
1

> <r_epik_Ionization_Penalty>
6.15571

> <r_epik_Ionization_Penalty_Charging>
6.1556

> <r_epik_Ionization_Penalty_Neutral>
0.000110918

> <r_epik_State_Penalty>
6.15558

> <r_epik_Charging_Adjusted_Penalty>
12.3112

> <i_epik_Tot_Q>
-1

> <i_epik_Tot_abs_Q>
1

> <r_epik_Metal_State_Penalty>
2.1059

> <b_epik_Metal_Only>
1

> <s_lp_Force_Field>
OPLS_2005

> <r_lp_Energy>
-1.67492

> <b_lp_Chiralities_Consistent>
1

> <s_lp_Variant>
AV-unprocessed.smi:2059-3

> <Gold.Version>
5.8.1

> <Gold.Id.Protein>
6NUR|6NUR_protein|mol2

> <Gold.PLP.Fitness>
39.7689

> <Gold.PLP.PLP>
-22.6173

> <Gold.PLP.part.hbond>
-5.0000

> <Gold.PLP.part.metal>
0.0000

> <Gold.PLP.part.buried>
-5.1872

> <Gold.PLP.part.nonpolar>
-14.3500

> <Gold.PLP.part.repulsive>
0.4704

> <Gold.PLP.ligand.clash>
0.0000

> <Gold.PLP.ligand.torsion>
0.5324

> <Gold.PLP.Chemscore.Hbond>
6.0720

> <Gold.PLP.Chemscore.CHOScore>
0.0000

> <Gold.PLP.Chemscore.Metal>
0.0000

> <Gold.Chemscore.Hbonds>
donor molecule, donor type, donor heavy atom, donor atom, acceptor molecule, acceptor atom, score
      P1  H  6896  6907       L1     7  1.00
      P1  H  6931  6943       L1     5  1.40
      P1  H  6934  6947       L1     5  1.45
      P1  H  7989  7998       L1    13  0.94
      P1  H 10752 10765       L1    14  1.00

> <Gold.PLP.Chemscore.Internal.Correction>
0.0005

> <Gold.Rescore>
     Score         DG    S(hbond)    S(metal)    S(lipo)     H(rot)  DE(clash)    DE(int)     intcor
     17.31     -19.31       3.58        0.00      37.87       1.00       0.00       2.00       ----

> <Gold.Chemscore.Fitness>
17.3126

> <Gold.Chemscore.DG>
-19.3109

> <Gold.Chemscore.ZeroCoef>
-5.4800

> <Gold.Chemscore.Hbond>
3.5808

> <Gold.Chemscore.Metal>
0.0000

> <Gold.Chemscore.Lipo>
37.8722

> <Gold.Chemscore.Internal_Hbond>
0.0000

> <Gold.Chemscore.DEClash>
0.0000

> <Gold.Chemscore.DEInternal>
1.9983

> <Gold.Chemscore.Rot>
1.0000

> <Gold.Chemscore.Internal.Correction>
   9.000000E+99

> <Gold.Chemscore.Hbonds>
donor molecule, donor type, donor heavy atom, donor atom, acceptor molecule, acceptor atom, score
      P1  H  6896  6907       L1     7  0.96
      P1  H  6931  6943       L1     5  0.22
      P1  H  6934  6947       L1     5  0.48
      P1  H  7989  7998       L1    13  0.90
      P1  H 10752 10765       L1    14  0.97

> <Gold.Chemscore.Hbond.Weighted>
-11.9598

> <Gold.Chemscore.Metal.Weighted>
-0.0000

> <Gold.Chemscore.Lipo.Weighted>
-4.4310

> <Gold.Chemscore.Internal_Hbond.Weighted>
0.0000

> <Gold.Chemscore.DEClash.Weighted>
0.0000

> <Gold.Chemscore.DEInternal.Weighted>
1.9983

> <Gold.Chemscore.Rot.Weighted>
2.5600

> <Gold.Chemscore.Internal.Correction.Weighted>
   9.000000E+99

> <Gold.Protein.RotatedTorsions>
[ 6907 6896 6895 6894 ] final  -78.01 input  -60.11 | X-H torsion
[ 7974 7965 7964 7962 ] final -142.14 input  175.53 | X-H torsion
[ 8008 7997 7996 7995 ] final  -63.48 input   59.86 | X-H torsion
[ 10167 10162 10161 10158 ] final -123.00 input  -65.29 | X-H torsion
[ 10718 10713 10712 10709 ] final -130.24 input   66.30 | X-H torsion
[ 10763 10752 10751 10750 ] final  171.48 input  -60.55 | X-H torsion
[ 11005 11000 10999 10996 ] final   65.98 input  -57.11 | X-H torsion

> <Gold.Protein.ActiveResidues>
 VAL166  LYS551  ARG553  GLY616  TRP617  ASP618  TYR619  PRO620  LYS621  CYS622 
 ASP623  PHE694  ASN695  SER759  ASP760  ASP761  ALA762  ILE779  LEU786  VAL792 
 PHE793  MET794  SER795  GLU796  ALA797  LYS798  CYS799  TRP800  GLU811  SER814 

> <Gold.Protein.RotatedAtoms>
  150.6984  134.4337  159.5259 H   0  0  0  0  0  0  0  0  0  0  0  0  # atno 6907 bound_to 6896
  152.2059  134.8543  160.0512 H   0  0  0  0  0  0  0  0  0  0  0  0  # atno 6908 bound_to 6896
  151.9446  133.3613  159.4014 H   0  0  0  0  0  0  0  0  0  0  0  0  # atno 6909 bound_to 6896
  144.8466  140.5994  143.5417 H   0  0  0  0  0  0  0  0  0  0  0  0  # atno 7974 bound_to 7965
  154.4557  140.0974  156.6749 H   0  0  0  0  0  0  0  0  0  0  0  0  # atno 8008 bound_to 7997
  155.5147  140.3477  155.4377 H   0  0  0  0  0  0  0  0  0  0  0  0  # atno 8009 bound_to 7997
  156.0771  140.1364  156.9746 H   0  0  0  0  0  0  0  0  0  0  0  0  # atno 8010 bound_to 7997
  140.0082  143.5469  152.2274 H   0  0  0  0  0  0  0  0  0  0  0  0  # atno 10167 bound_to 10162
  156.2125  130.6927  151.0665 H   0  0  0  0  0  0  0  0  0  0  0  0  # atno 10718 bound_to 10713
  154.4124  135.2756  155.2028 H   0  0  0  0  0  0  0  0  0  0  0  0  # atno 10763 bound_to 10752
  154.4008  135.6045  153.5899 H   0  0  0  0  0  0  0  0  0  0  0  0  # atno 10764 bound_to 10752
  152.9831  135.5926  154.4408 H   0  0  0  0  0  0  0  0  0  0  0  0  # atno 10765 bound_to 10752
  139.9860  134.6667  156.0175 H   0  0  0  0  0  0  0  0  0  0  0  0  # atno 11005 bound_to 11000
  145.4585  139.1515  143.3879 LP  0  0  0  0  0  0  0  0  0  0  0  0  # atno 17320 bound_to 7965
  146.2749  140.4714  142.8799 LP  0  0  0  0  0  0  0  0  0  0  0  0  # atno 17321 bound_to 7965
  139.6223  144.7631  151.2713 LP  0  0  0  0  0  0  0  0  0  0  0  0  # atno 17342 bound_to 10162
  140.7392  143.6625  150.8151 LP  0  0  0  0  0  0  0  0  0  0  0  0  # atno 17343 bound_to 10162
  157.7046  131.0762  150.6710 LP  0  0  0  0  0  0  0  0  0  0  0  0  # atno 17370 bound_to 10713
  156.6770  130.4556  149.5639 LP  0  0  0  0  0  0  0  0  0  0  0  0  # atno 17371 bound_to 10713
  141.1525  133.6546  156.4057 LP  0  0  0  0  0  0  0  0  0  0  0  0  # atno 17394 bound_to 11000
  140.5002  134.6493  157.5245 LP  0  0  0  0  0  0  0  0  0  0  0  0  # atno 17395 bound_to 11000

$$$$
