AV-unprocessed.smi:2032|AV-procd|sdf|8257|dock8
  -GOLD-   2272010533D 1   1.00000     0.00000
 Structure written by MMmdl.
 42 43  0  0  0  0  0  0  0  0  3 V2000
  149.1174  141.1316  154.3702 C   0  0  0  0  0  0  0  0  0  0  0  0
  149.6920  139.7351  154.1066 C   0  0  2  0  0  0  0  0  0  0  0  0
  148.8407  138.6266  154.7525 C   0  0  0  0  0  0  0  0  0  0  0  0
  149.4470  137.2799  154.5554 N   0  3  2  0  0  0  0  0  0  0  0  0
  148.6345  136.1667  155.1528 C   0  0  1  0  0  0  0  0  0  0  0  0
  148.8424  136.0710  156.6851 C   0  0  0  0  0  0  0  0  0  0  0  0
  147.1235  136.2975  154.8256 C   0  0  0  0  0  0  0  0  0  0  0  0
  146.8404  136.0536  153.4159 N   0  0  0  0  0  0  0  0  0  0  0  0
  145.9448  135.1751  152.9480 C   0  0  0  0  0  0  0  0  0  0  0  0
  145.2822  134.4960  153.7355 O   0  0  0  0  0  0  0  0  0  0  0  0
  145.8732  135.1420  151.5985 N   0  5  0  0  0  0  0  0  0  0  0  0
  145.1837  134.1663  150.9854 C   0  0  0  0  0  0  0  0  0  0  0  0
  145.7263  133.3558  150.0697 N   0  0  0  0  0  0  0  0  0  0  0  0
  144.8276  132.4196  149.5548 C   0  0  0  0  0  0  0  0  0  0  0  0
  143.5692  132.5253  150.0848 C   0  0  0  0  0  0  0  0  0  0  0  0
  143.4744  133.8118  151.2532 S   0  0  0  0  0  0  0  0  0  0  0  0
  150.8678  137.3039  155.0048 C   0  0  0  0  0  0  0  0  0  0  0  0
  151.6524  138.4607  154.3578 C   0  0  2  0  0  0  0  0  0  0  0  0
  153.0899  138.5484  154.8834 C   0  0  0  0  0  0  0  0  0  0  0  0
  151.0032  139.6892  154.6487 O   0  0  0  0  0  0  0  0  0  0  0  0
  148.1104  141.2261  153.9632 H   0  0  0  0  0  0  0  0  0  0  0  0
  149.7353  141.9009  153.9066 H   0  0  0  0  0  0  0  0  0  0  0  0
  149.0682  141.3440  155.4385 H   0  0  0  0  0  0  0  0  0  0  0  0
  149.7401  139.5809  153.0269 H   0  0  0  0  0  0  0  0  0  0  0  0
  148.7213  138.8168  155.8205 H   0  0  0  0  0  0  0  0  0  0  0  0
  147.8514  138.6781  154.3022 H   0  0  0  0  0  0  0  0  0  0  0  0
  148.9855  135.2327  154.7106 H   0  0  0  0  0  0  0  0  0  0  0  0
  148.1993  135.3205  157.1438 H   0  0  0  0  0  0  0  0  0  0  0  0
  148.6289  137.0227  157.1725 H   0  0  0  0  0  0  0  0  0  0  0  0
  149.8556  135.7722  156.9491 H   0  0  0  0  0  0  0  0  0  0  0  0
  146.5456  135.6063  155.4416 H   0  0  0  0  0  0  0  0  0  0  0  0
  146.7565  137.3029  155.0275 H   0  0  0  0  0  0  0  0  0  0  0  0
  147.3625  136.5905  152.7390 H   0  0  0  0  0  0  0  0  0  0  0  0
  145.1698  131.7155  148.8109 H   0  0  0  0  0  0  0  0  0  0  0  0
  142.6967  131.9307  149.8604 H   0  0  0  0  0  0  0  0  0  0  0  0
  150.9027  137.3833  156.0926 H   0  0  0  0  0  0  0  0  0  0  0  0
  151.3786  136.3838  154.7273 H   0  0  0  0  0  0  0  0  0  0  0  0
  151.6896  138.3191  153.2760 H   0  0  0  0  0  0  0  0  0  0  0  0
  153.6419  137.6316  154.6745 H   0  0  0  0  0  0  0  0  0  0  0  0
  153.1075  138.7113  155.9613 H   0  0  0  0  0  0  0  0  0  0  0  0
  153.6270  139.3730  154.4138 H   0  0  0  0  0  0  0  0  0  0  0  0
  149.4673  137.1155  153.5590 H   0  0  0  0  0  0  0  0  0  0  0  0
  1  2  1  0  0  0  0
  1 21  1  0  0  0  0
  1 22  1  0  0  0  0
  1 23  1  0  0  0  0
  2 20  1  0  0  0  0
  2  3  1  0  0  0  0
  2 24  1  0  0  0  0
  3  4  1  0  0  0  0
  3 25  1  0  0  0  0
  3 26  1  0  0  0  0
  4  5  1  0  0  0  0
  4 17  1  0  0  0  0
  4 42  1  0  0  0  0
  5  6  1  0  0  0  0
  5  7  1  0  0  0  0
  5 27  1  0  0  0  0
  6 28  1  0  0  0  0
  6 29  1  0  0  0  0
  6 30  1  0  0  0  0
  7  8  1  0  0  0  0
  7 31  1  0  0  0  0
  7 32  1  0  0  0  0
  8  9  1  0  0  0  0
  8 33  1  0  0  0  0
  9 10  2  0  0  0  0
  9 11  1  0  0  0  0
 11 12  1  0  0  0  0
 12 16  1  0  0  0  0
 12 13  2  0  0  0  0
 13 14  1  0  0  0  0
 14 15  2  0  0  0  0
 14 34  1  0  0  0  0
 15 16  1  0  0  0  0
 15 35  1  0  0  0  0
 17 18  1  0  0  0  0
 17 36  1  0  0  0  0
 17 37  1  0  0  0  0
 18 19  1  0  0  0  0
 18 20  1  0  0  0  0
 18 38  1  0  0  0  0
 19 39  1  0  0  0  0
 19 40  1  0  0  0  0
 19 41  1  0  0  0  0
M  CHG  1   4   1
M  CHG  1  11  -1
M  END
> <s_m_source_file>
AV-unprocessed.smi

> <i_m_source_file_index>
2032

> <i_lp_mmshare_version>
43012

> <i_f3d_flags>
0

> <s_epik_input>
W0NIM11bQ0BASF0xW0NIMl1OKFtDSDJdW0NASF0oTzEpW0NIM10pW0NASF0oW0NIM10pW0NIMl1bTkhdQyg9TylbTkhdYzJuW2NIXVtjSF1zMg==

> <s_epik_cmdline>
J2VwaWtfcHl0aG9uJywgJy1waCcsICc3LjAnLCAnLXRuJywgJzgnLCAnLW1hJywgJzIwMCcsICctbWV0YWxfYmluZGluZycsICctaW1hZScsICc8aW5maWxlLm1hZT4nLCAnLW9tYWUnLCAnPG91dGZpbGUubWFlPic=

> <r_lp_tautomer_probability>
0.999

> <r_epik_Ionization_Penalty>
6.71699

> <r_epik_Ionization_Penalty_Charging>
5.88592

> <r_epik_Ionization_Penalty_Neutral>
0.831074

> <r_epik_State_Penalty>
6.08365

> <r_epik_Charging_Adjusted_Penalty>
11.9696

> <i_epik_Tot_Q>
0

> <i_epik_Tot_abs_Q>
2

> <r_epik_Metal_State_Penalty>
2.0947

> <b_epik_Metal_Only>
1

> <s_lp_Force_Field>
OPLS_2005

> <r_lp_Energy>
10.3148

> <b_lp_Chiralities_Consistent>
1

> <s_lp_Variant>
AV-unprocessed.smi:2032-27

> <Gold.Version>
5.8.1

> <Gold.Id.Protein>
6NUR|6NUR_protein|mol2

> <Gold.PLP.Fitness>
45.0082

> <Gold.PLP.PLP>
-32.6281

> <Gold.PLP.part.hbond>
-3.0000

> <Gold.PLP.part.metal>
0.0000

> <Gold.PLP.part.buried>
-4.9402

> <Gold.PLP.part.nonpolar>
-25.7290

> <Gold.PLP.part.repulsive>
0.7790

> <Gold.PLP.ligand.clash>
0.0000

> <Gold.PLP.ligand.torsion>
0.8364

> <Gold.PLP.Chemscore.Hbond>
3.6540

> <Gold.PLP.Chemscore.CHOScore>
1.0000

> <Gold.PLP.Chemscore.Metal>
0.0000

> <Gold.Chemscore.Hbonds>
donor molecule, donor type, donor heavy atom, donor atom, acceptor molecule, acceptor atom, score
      L1  H     4    42       P1  7948  2.00
      L1  H     8    33       P1  7948  0.62
      P1  H  7989  7998       L1    20  0.70
      L1  C    15    35       P1 10952  1.00

> <Gold.PLP.Chemscore.Internal.Correction>
0.0909

> <Gold.Rescore>
     Score         DG    S(hbond)    S(metal)    S(lipo)     H(rot)  DE(clash)    DE(int)     intcor
     15.96     -16.96       1.97        0.00      76.47       1.58       0.29       0.71       ----

> <Gold.Chemscore.Fitness>
15.9615

> <Gold.Chemscore.DG>
-16.9624

> <Gold.Chemscore.ZeroCoef>
-5.4800

> <Gold.Chemscore.Hbond>
1.9696

> <Gold.Chemscore.Metal>
0.0000

> <Gold.Chemscore.Lipo>
76.4651

> <Gold.Chemscore.Internal_Hbond>
0.0000

> <Gold.Chemscore.DEClash>
0.2864

> <Gold.Chemscore.DEInternal>
0.7144

> <Gold.Chemscore.Rot>
1.5791

> <Gold.Chemscore.Internal.Correction>
   9.000000E+99

> <Gold.Chemscore.Hbonds>
donor molecule, donor type, donor heavy atom, donor atom, acceptor molecule, acceptor atom, score
      L1  H     4    42       P1  7948  0.89
      L1  H     8    33       P1  7948  0.62
      P1  H  7989  7998       L1    20  0.04

> <Gold.Chemscore.Hbond.Weighted>
-6.5784

> <Gold.Chemscore.Metal.Weighted>
-0.0000

> <Gold.Chemscore.Lipo.Weighted>
-8.9464

> <Gold.Chemscore.Internal_Hbond.Weighted>
0.0000

> <Gold.Chemscore.DEClash.Weighted>
0.2864

> <Gold.Chemscore.DEInternal.Weighted>
0.7144

> <Gold.Chemscore.Rot.Weighted>
4.0425

> <Gold.Chemscore.Internal.Correction.Weighted>
   9.000000E+99

> <Gold.Protein.RotatedTorsions>
[ 6907 6896 6895 6894 ] final  156.91 input  -60.11 | X-H torsion
[ 7974 7965 7964 7962 ] final    5.83 input  175.53 | X-H torsion
[ 8008 7997 7996 7995 ] final   63.76 input   59.86 | X-H torsion
[ 10167 10162 10161 10158 ] final  149.73 input  -65.29 | X-H torsion
[ 10718 10713 10712 10709 ] final  150.61 input   66.30 | X-H torsion
[ 10763 10752 10751 10750 ] final -114.10 input  -60.55 | X-H torsion
[ 11005 11000 10999 10996 ] final -144.70 input  -57.11 | X-H torsion

> <Gold.Protein.ActiveResidues>
 VAL166  LYS551  ARG553  GLY616  TRP617  ASP618  TYR619  PRO620  LYS621  CYS622 
 ASP623  PHE694  ASN695  SER759  ASP760  ASP761  ALA762  ILE779  LEU786  VAL792 
 PHE793  MET794  SER795  GLU796  ALA797  LYS798  CYS799  TRP800  GLU811  SER814 

> <Gold.Protein.RotatedAtoms>
  152.0228  133.3905  159.4264 H   0  0  0  0  0  0  0  0  0  0  0  0  # atno 6907 bound_to 6896
  150.6889  134.3607  159.4958 H   0  0  0  0  0  0  0  0  0  0  0  0  # atno 6908 bound_to 6896
  152.1383  134.9082  160.0606 H   0  0  0  0  0  0  0  0  0  0  0  0  # atno 6909 bound_to 6896
  146.2438  140.0325  142.8388 H   0  0  0  0  0  0  0  0  0  0  0  0  # atno 7974 bound_to 7965
  155.6353  140.3496  155.4696 H   0  0  0  0  0  0  0  0  0  0  0  0  # atno 8008 bound_to 7997
  155.9970  140.1205  157.0608 H   0  0  0  0  0  0  0  0  0  0  0  0  # atno 8009 bound_to 7997
  154.4236  140.1108  156.5630 H   0  0  0  0  0  0  0  0  0  0  0  0  # atno 8010 bound_to 7997
  139.4858  144.5578  151.7285 H   0  0  0  0  0  0  0  0  0  0  0  0  # atno 10167 bound_to 10162
  157.2812  131.0836  151.1530 H   0  0  0  0  0  0  0  0  0  0  0  0  # atno 10718 bound_to 10713
  154.8425  135.4430  154.1453 H   0  0  0  0  0  0  0  0  0  0  0  0  # atno 10763 bound_to 10752
  153.2628  135.6938  153.7567 H   0  0  0  0  0  0  0  0  0  0  0  0  # atno 10764 bound_to 10752
  153.6837  135.3399  155.3160 H   0  0  0  0  0  0  0  0  0  0  0  0  # atno 10765 bound_to 10752
  140.7997  134.2871  157.4983 H   0  0  0  0  0  0  0  0  0  0  0  0  # atno 11005 bound_to 11000
  145.1142  140.9423  143.4639 LP  0  0  0  0  0  0  0  0  0  0  0  0  # atno 17320 bound_to 7965
  145.0546  139.3154  143.5911 LP  0  0  0  0  0  0  0  0  0  0  0  0  # atno 17321 bound_to 7965
  140.5143  144.0977  150.6004 LP  0  0  0  0  0  0  0  0  0  0  0  0  # atno 17342 bound_to 10162
  140.3913  143.2751  152.0057 LP  0  0  0  0  0  0  0  0  0  0  0  0  # atno 17343 bound_to 10162
  157.2963  130.6821  149.6140 LP  0  0  0  0  0  0  0  0  0  0  0  0  # atno 17370 bound_to 10713
  155.9664  130.4405  150.5304 LP  0  0  0  0  0  0  0  0  0  0  0  0  # atno 17371 bound_to 10713
  139.8723  134.9422  156.3820 LP  0  0  0  0  0  0  0  0  0  0  0  0  # atno 17394 bound_to 11000
  140.9307  133.7581  156.0020 LP  0  0  0  0  0  0  0  0  0  0  0  0  # atno 17395 bound_to 11000

$$$$
