AV-unprocessed.smi:1809|AV-procd|sdf|7311|dock2
  -GOLD-   22720 8563D 1   1.00000     0.00000
 Structure written by MMmdl.
 40 42  0  0  0  0  0  0  0  0  2 V2000
  150.8588  142.1656  156.4882 C   0  0  0  0  0  0  0  0  0  0  0  0
  150.4344  141.0210  155.6332 C   0  0  0  0  0  0  0  0  0  0  0  0
  151.3022  140.1344  155.1305 N   0  0  0  0  0  0  0  0  0  0  0  0
  150.6752  139.1573  154.3699 N   0  0  0  0  0  0  0  0  0  0  0  0
  149.3482  139.3371  154.3207 C   0  0  0  0  0  0  0  0  0  0  0  0
  148.4623  138.4791  153.6164 N   0  0  0  0  0  0  0  0  0  0  0  0
  147.1483  138.2862  153.8272 C   0  0  0  0  0  0  0  0  0  0  0  0
  146.4801  138.8304  154.7065 O   0  0  0  0  0  0  0  0  0  0  0  0
  146.6373  137.4105  152.9495 N   0  0  0  0  0  0  0  0  0  0  0  0
  145.2558  136.9370  152.9381 C   0  0  0  0  0  0  0  0  0  0  0  0
  145.1164  135.5203  152.3495 C   0  0  2  0  0  0  0  0  0  0  0  0
  143.9705  134.6974  152.9779 C   0  0  0  0  0  0  0  0  0  0  0  0
  143.9748  133.2898  152.5162 N   0  3  1  0  0  0  0  0  0  0  0  0
  143.3646  133.0280  151.1941 C   0  0  0  0  0  0  0  0  0  0  0  0
  144.1041  131.8130  150.6112 C   0  0  0  0  0  0  0  0  0  0  0  0
  145.1046  131.3858  151.6908 C   0  0  0  0  0  0  0  0  0  0  0  0
  145.3021  132.6425  152.5396 C   0  0  1  0  0  0  0  0  0  0  0  0
  146.3904  133.5729  151.9606 C   0  0  0  0  0  0  0  0  0  0  0  0
  146.3422  134.8416  152.5970 O   0  0  0  0  0  0  0  0  0  0  0  0
  148.7512  140.7252  155.2142 S   0  0  0  0  0  0  0  0  0  0  0  0
  151.8506  142.5118  156.1958 H   0  0  0  0  0  0  0  0  0  0  0  0
  150.8881  141.8579  157.5335 H   0  0  0  0  0  0  0  0  0  0  0  0
  150.1575  142.9940  156.3856 H   0  0  0  0  0  0  0  0  0  0  0  0
  148.8817  137.9432  152.8710 H   0  0  0  0  0  0  0  0  0  0  0  0
  147.2579  137.0142  152.2585 H   0  0  0  0  0  0  0  0  0  0  0  0
  144.9109  136.9303  153.9724 H   0  0  0  0  0  0  0  0  0  0  0  0
  144.6069  137.6377  152.4096 H   0  0  0  0  0  0  0  0  0  0  0  0
  144.9691  135.6079  151.2717 H   0  0  0  0  0  0  0  0  0  0  0  0
  144.0855  134.6917  154.0626 H   0  0  0  0  0  0  0  0  0  0  0  0
  142.9973  135.1419  152.7684 H   0  0  0  0  0  0  0  0  0  0  0  0
  142.2973  132.8380  151.3107 H   0  0  0  0  0  0  0  0  0  0  0  0
  143.4779  133.8869  150.5313 H   0  0  0  0  0  0  0  0  0  0  0  0
  143.4229  131.0030  150.3487 H   0  0  0  0  0  0  0  0  0  0  0  0
  144.6326  132.1029  149.7023 H   0  0  0  0  0  0  0  0  0  0  0  0
  144.6614  130.6001  152.3040 H   0  0  0  0  0  0  0  0  0  0  0  0
  146.0351  130.9947  151.2774 H   0  0  0  0  0  0  0  0  0  0  0  0
  145.5609  132.3853  153.5676 H   0  0  0  0  0  0  0  0  0  0  0  0
  147.3765  133.1364  152.1213 H   0  0  0  0  0  0  0  0  0  0  0  0
  146.2781  133.7003  150.8826 H   0  0  0  0  0  0  0  0  0  0  0  0
  143.4051  132.7711  153.1697 H   0  0  0  0  0  0  0  0  0  0  0  0
  1  2  1  0  0  0  0
  1 21  1  0  0  0  0
  1 22  1  0  0  0  0
  1 23  1  0  0  0  0
  2 20  1  0  0  0  0
  2  3  2  0  0  0  0
  3  4  1  0  0  0  0
  4  5  2  0  0  0  0
  5  6  1  0  0  0  0
  5 20  1  0  0  0  0
  6  7  1  0  0  0  0
  6 24  1  0  0  0  0
  7  8  2  0  0  0  0
  7  9  1  0  0  0  0
  9 10  1  0  0  0  0
  9 25  1  0  0  0  0
 10 11  1  0  0  0  0
 10 26  1  0  0  0  0
 10 27  1  0  0  0  0
 11 19  1  0  0  0  0
 11 12  1  0  0  0  0
 11 28  1  0  0  0  0
 12 13  1  0  0  0  0
 12 29  1  0  0  0  0
 12 30  1  0  0  0  0
 13 17  1  0  0  0  0
 13 14  1  0  0  0  0
 13 40  1  0  0  0  0
 14 15  1  0  0  0  0
 14 31  1  0  0  0  0
 14 32  1  0  0  0  0
 15 16  1  0  0  0  0
 15 33  1  0  0  0  0
 15 34  1  0  0  0  0
 16 17  1  0  0  0  0
 16 35  1  0  0  0  0
 16 36  1  0  0  0  0
 17 18  1  0  0  0  0
 17 37  1  0  0  0  0
 18 19  1  0  0  0  0
 18 38  1  0  0  0  0
 18 39  1  0  0  0  0
M  CHG  1  13   1
M  END
> <s_m_source_file>
AV-unprocessed.smi

> <i_m_source_file_index>
1809

> <i_lp_mmshare_version>
43012

> <i_f3d_flags>
0

> <s_epik_input>
W0NIM11jMW5uYyhzMSlbTkhdQyg9TylbTkhdW0NIMl1bQ0BIXShbQ0gyXTIpT1tDSDJdW0NAQEhdKE4yMylbQ0gyXVtDSDJdW0NIMl0z

> <s_epik_cmdline>
J2VwaWtfcHl0aG9uJywgJy1waCcsICc3LjAnLCAnLXRuJywgJzgnLCAnLW1hJywgJzIwMCcsICctbWV0YWxfYmluZGluZycsICctaW1hZScsICc8aW5maWxlLm1hZT4nLCAnLW9tYWUnLCAnPG91dGZpbGUubWFlPic=

> <r_lp_tautomer_probability>
1

> <r_epik_Ionization_Penalty>
0.112474

> <r_epik_Ionization_Penalty_Charging>
0.108916

> <r_epik_Ionization_Penalty_Neutral>
0.00355844

> <r_epik_State_Penalty>
0.0565397

> <r_epik_Charging_Adjusted_Penalty>
0.165456

> <i_epik_Tot_Q>
1

> <i_epik_Tot_abs_Q>
1

> <r_epik_Metal_State_Penalty>
0.422831

> <b_epik_Metal_Only>
0

> <s_lp_Force_Field>
OPLS_2005

> <r_lp_Energy>
35.5904

> <b_lp_Chiralities_Consistent>
1

> <s_lp_Variant>
AV-unprocessed.smi:1809-3

> <Gold.Version>
5.8.1

> <Gold.Id.Protein>
6NUR|6NUR_protein|mol2

> <Gold.PLP.Fitness>
42.6558

> <Gold.PLP.PLP>
-31.5733

> <Gold.PLP.part.hbond>
-5.5425

> <Gold.PLP.part.metal>
0.0000

> <Gold.PLP.part.buried>
-5.8228

> <Gold.PLP.part.nonpolar>
-22.5399

> <Gold.PLP.part.repulsive>
1.1402

> <Gold.PLP.ligand.clash>
0.0000

> <Gold.PLP.ligand.torsion>
0.7116

> <Gold.PLP.Chemscore.Hbond>
4.1680

> <Gold.PLP.Chemscore.CHOScore>
0.0000

> <Gold.PLP.Chemscore.Metal>
0.0000

> <Gold.Chemscore.Hbonds>
donor molecule, donor type, donor heavy atom, donor atom, acceptor molecule, acceptor atom, score
      L1  H     6    24       P1  7948  0.99
      L1  H     9    25       P1  7948  0.99
      L1  H    13    40       P1 10957  2.00
      P1  H  7989  7998       L1     3  0.15

> <Gold.PLP.Chemscore.Internal.Correction>
0.0017

> <Gold.Rescore>
     Score         DG    S(hbond)    S(metal)    S(lipo)     H(rot)  DE(clash)    DE(int)     intcor
     17.28     -18.97       2.81        0.00      64.28       1.34       0.06       1.63       ----

> <Gold.Chemscore.Fitness>
17.2825

> <Gold.Chemscore.DG>
-18.9717

> <Gold.Chemscore.ZeroCoef>
-5.4800

> <Gold.Chemscore.Hbond>
2.8142

> <Gold.Chemscore.Metal>
0.0000

> <Gold.Chemscore.Lipo>
64.2763

> <Gold.Chemscore.Internal_Hbond>
0.0000

> <Gold.Chemscore.DEClash>
0.0609

> <Gold.Chemscore.DEInternal>
1.6282

> <Gold.Chemscore.Rot>
1.3391

> <Gold.Chemscore.Internal.Correction>
   9.000000E+99

> <Gold.Chemscore.Hbonds>
donor molecule, donor type, donor heavy atom, donor atom, acceptor molecule, acceptor atom, score
      L1  H     6    24       P1  7948  0.92
      L1  H     9    25       P1  7948  0.93
      L1  H    13    40       P1 10957  0.37

> <Gold.Chemscore.Hbond.Weighted>
-9.3994

> <Gold.Chemscore.Metal.Weighted>
-0.0000

> <Gold.Chemscore.Lipo.Weighted>
-7.5203

> <Gold.Chemscore.Internal_Hbond.Weighted>
0.0000

> <Gold.Chemscore.DEClash.Weighted>
0.0609

> <Gold.Chemscore.DEInternal.Weighted>
1.6282

> <Gold.Chemscore.Rot.Weighted>
3.4281

> <Gold.Chemscore.Internal.Correction.Weighted>
   9.000000E+99

> <Gold.Protein.RotatedTorsions>
[ 6907 6896 6895 6894 ] final   83.88 input  -60.11 | X-H torsion
[ 7974 7965 7964 7962 ] final -155.89 input  175.53 | X-H torsion
[ 8008 7997 7996 7995 ] final   14.49 input   59.86 | X-H torsion
[ 10167 10162 10161 10158 ] final  -19.01 input  -65.29 | X-H torsion
[ 10718 10713 10712 10709 ] final  109.74 input   66.30 | X-H torsion
[ 10763 10752 10751 10750 ] final  132.87 input  -60.55 | X-H torsion
[ 11005 11000 10999 10996 ] final   19.95 input  -57.11 | X-H torsion

> <Gold.Protein.ActiveResidues>
 VAL166  LYS551  ARG553  GLY616  TRP617  ASP618  TYR619  PRO620  LYS621  CYS622 
 ASP623  PHE694  ASN695  SER759  ASP760  ASP761  ALA762  ILE779  LEU786  VAL792 
 PHE793  MET794  SER795  GLU796  ALA797  LYS798  CYS799  TRP800  GLU811  SER814 

> <Gold.Protein.RotatedAtoms>
  152.5338  134.2827  159.9013 H   0  0  0  0  0  0  0  0  0  0  0  0  # atno 6907 bound_to 6896
  151.2780  133.4216  159.2633 H   0  0  0  0  0  0  0  0  0  0  0  0  # atno 6908 bound_to 6896
  151.0308  134.9553  159.8167 H   0  0  0  0  0  0  0  0  0  0  0  0  # atno 6909 bound_to 6896
  144.7618  140.4186  143.5970 H   0  0  0  0  0  0  0  0  0  0  0  0  # atno 7974 bound_to 7965
  154.8492  140.2927  155.5609 H   0  0  0  0  0  0  0  0  0  0  0  0  # atno 8008 bound_to 7997
  156.3015  140.2499  156.3380 H   0  0  0  0  0  0  0  0  0  0  0  0  # atno 8009 bound_to 7997
  154.9040  140.0390  157.1898 H   0  0  0  0  0  0  0  0  0  0  0  0  # atno 8010 bound_to 7997
  140.7264  143.4860  151.0054 H   0  0  0  0  0  0  0  0  0  0  0  0  # atno 10167 bound_to 10162
  157.6527  131.0919  150.6498 H   0  0  0  0  0  0  0  0  0  0  0  0  # atno 10718 bound_to 10713
  153.7977  135.3146  155.3386 H   0  0  0  0  0  0  0  0  0  0  0  0  # atno 10763 bound_to 10752
  154.8101  135.4673  154.0497 H   0  0  0  0  0  0  0  0  0  0  0  0  # atno 10764 bound_to 10752
  153.1835  135.6897  153.8534 H   0  0  0  0  0  0  0  0  0  0  0  0  # atno 10765 bound_to 10752
  140.4081  134.1648  155.7666 H   0  0  0  0  0  0  0  0  0  0  0  0  # atno 11005 bound_to 11000
  145.6594  139.1578  143.2817 LP  0  0  0  0  0  0  0  0  0  0  0  0  # atno 17320 bound_to 7965
  146.1689  140.6676  142.9242 LP  0  0  0  0  0  0  0  0  0  0  0  0  # atno 17321 bound_to 7965
  139.8562  143.7374  152.3176 LP  0  0  0  0  0  0  0  0  0  0  0  0  # atno 17342 bound_to 10162
  139.7573  144.7517  151.0416 LP  0  0  0  0  0  0  0  0  0  0  0  0  # atno 17343 bound_to 10162
  156.6808  130.4566  149.5628 LP  0  0  0  0  0  0  0  0  0  0  0  0  # atno 17370 bound_to 10713
  156.1930  130.6572  151.1083 LP  0  0  0  0  0  0  0  0  0  0  0  0  # atno 17371 bound_to 10713
  141.1832  133.8370  157.1184 LP  0  0  0  0  0  0  0  0  0  0  0  0  # atno 17394 bound_to 11000
  140.0288  134.9911  157.0738 LP  0  0  0  0  0  0  0  0  0  0  0  0  # atno 17395 bound_to 11000

$$$$
