AV-unprocessed.smi:1076|AV-procd|sdf|4700|dock1
  -GOLD-   22720 3223D 1   1.00000     0.00000
 Structure written by MMmdl.
 44 45  0  0  0  0  0  0  0  0  1 V2000
  150.6164  142.3213  157.7950 C   0  0  0  0  0  0  0  0  0  0  0  0
  150.2602  141.3920  156.6707 C   0  0  0  0  0  0  0  0  0  0  0  0
  149.0882  141.4109  155.8623 C   0  0  0  0  0  0  0  0  0  0  0  0
  149.0782  140.4546  154.9482 N   0  0  0  0  0  0  0  0  0  0  0  0
  150.2362  139.7887  155.1443 N   0  0  0  0  0  0  0  0  0  0  0  0
  150.5718  138.6559  154.2987 C   0  0  0  0  0  0  0  0  0  0  0  0
  150.9852  137.4083  155.1060 C   0  0  1  0  0  0  0  0  0  0  0  0
  150.3416  137.4223  156.5041 C   0  0  0  0  0  0  0  0  0  0  0  0
  150.5671  136.2154  154.3769 N   0  0  0  0  0  0  0  0  0  0  0  0
  150.9319  134.9910  155.0807 C   0  0  0  0  0  0  0  0  0  0  0  0
  149.7391  134.0162  155.1690 C   0  0  0  0  0  0  0  0  0  0  0  0
  150.0629  132.5486  154.8224 C   0  0  0  0  0  0  0  0  0  0  0  0
  150.8058  131.9070  155.5675 O   0  0  0  0  0  0  0  0  0  0  0  0
  149.5253  132.0035  153.7042 N   0  0  0  0  0  0  0  0  0  0  0  0
  148.6477  132.7464  152.7945 C   0  0  0  0  0  0  0  0  0  0  0  0
  147.2489  132.1067  152.8324 C   0  0  0  0  0  0  0  0  0  0  0  0
  147.3430  130.7331  152.4642 O   0  0  0  0  0  0  0  0  0  0  0  0
  148.2066  129.9862  153.3170 C   0  0  0  0  0  0  0  0  0  0  0  0
  149.6196  130.5976  153.2953 C   0  0  0  0  0  0  0  0  0  0  0  0
  150.9718  140.3370  156.1736 C   0  0  0  0  0  0  0  0  0  0  0  0
  149.7882  142.4447  158.4927 H   0  0  0  0  0  0  0  0  0  0  0  0
  150.8774  143.3135  157.4269 H   0  0  0  0  0  0  0  0  0  0  0  0
  151.4682  141.9567  158.3694 H   0  0  0  0  0  0  0  0  0  0  0  0
  148.2498  142.0901  155.9114 H   0  0  0  0  0  0  0  0  0  0  0  0
  149.7004  138.4309  153.6823 H   0  0  0  0  0  0  0  0  0  0  0  0
  151.3670  138.9524  153.6129 H   0  0  0  0  0  0  0  0  0  0  0  0
  152.0713  137.4099  155.2110 H   0  0  0  0  0  0  0  0  0  0  0  0
  150.6064  138.3322  157.0430 H   0  0  0  0  0  0  0  0  0  0  0  0
  150.6703  136.5832  157.1163 H   0  0  0  0  0  0  0  0  0  0  0  0
  149.2535  137.3817  156.4402 H   0  0  0  0  0  0  0  0  0  0  0  0
  151.0145  136.2100  153.4713 H   0  0  0  0  0  0  0  0  0  0  0  0
  151.7546  134.5101  154.5505 H   0  0  0  0  0  0  0  0  0  0  0  0
  151.2920  135.2166  156.0842 H   0  0  0  0  0  0  0  0  0  0  0  0
  149.3304  134.0644  156.1792 H   0  0  0  0  0  0  0  0  0  0  0  0
  148.9558  134.3587  154.4919 H   0  0  0  0  0  0  0  0  0  0  0  0
  148.5749  133.8061  153.0417 H   0  0  0  0  0  0  0  0  0  0  0  0
  149.0549  132.7007  151.7835 H   0  0  0  0  0  0  0  0  0  0  0  0
  146.8057  132.1986  153.8253 H   0  0  0  0  0  0  0  0  0  0  0  0
  146.5820  132.6145  152.1359 H   0  0  0  0  0  0  0  0  0  0  0  0
  147.8056  129.9705  154.3316 H   0  0  0  0  0  0  0  0  0  0  0  0
  148.2367  128.9534  152.9694 H   0  0  0  0  0  0  0  0  0  0  0  0
  150.0349  130.5453  152.2880 H   0  0  0  0  0  0  0  0  0  0  0  0
  150.2772  129.9973  153.9212 H   0  0  0  0  0  0  0  0  0  0  0  0
  151.9309  139.9340  156.4647 H   0  0  0  0  0  0  0  0  0  0  0  0
  1  2  1  0  0  0  0
  1 21  1  0  0  0  0
  1 22  1  0  0  0  0
  1 23  1  0  0  0  0
  2 20  2  0  0  0  0
  2  3  1  0  0  0  0
  3  4  2  0  0  0  0
  3 24  1  0  0  0  0
  4  5  1  0  0  0  0
  5  6  1  0  0  0  0
  5 20  1  0  0  0  0
  6  7  1  0  0  0  0
  6 25  1  0  0  0  0
  6 26  1  0  0  0  0
  7  8  1  0  0  0  0
  7  9  1  0  0  0  0
  7 27  1  0  0  0  0
  8 28  1  0  0  0  0
  8 29  1  0  0  0  0
  8 30  1  0  0  0  0
  9 10  1  0  0  0  0
  9 31  1  0  0  0  0
 10 11  1  0  0  0  0
 10 32  1  0  0  0  0
 10 33  1  0  0  0  0
 11 12  1  0  0  0  0
 11 34  1  0  0  0  0
 11 35  1  0  0  0  0
 12 13  2  0  0  0  0
 12 14  1  0  0  0  0
 14 19  1  0  0  0  0
 14 15  1  0  0  0  0
 15 16  1  0  0  0  0
 15 36  1  0  0  0  0
 15 37  1  0  0  0  0
 16 17  1  0  0  0  0
 16 38  1  0  0  0  0
 16 39  1  0  0  0  0
 17 18  1  0  0  0  0
 18 19  1  0  0  0  0
 18 40  1  0  0  0  0
 18 41  1  0  0  0  0
 19 42  1  0  0  0  0
 19 43  1  0  0  0  0
 20 44  1  0  0  0  0
M  END
> <s_m_source_file>
AV-unprocessed.smi

> <i_m_source_file_index>
1076

> <i_lp_mmshare_version>
43012

> <i_f3d_flags>
0

> <s_epik_input>
W0NIM11jMVtjSF1ubihbY0hdMSlbQ0gyXVtDQEhdKFtDSDNdKVtOSF1bQ0gyXVtDSDJdQyg9TylOMltDSDJdW0NIMl1PW0NIMl1bQ0gyXTI=

> <s_epik_cmdline>
J2VwaWtfcHl0aG9uJywgJy1waCcsICc3LjAnLCAnLXRuJywgJzgnLCAnLW1hJywgJzIwMCcsICctbWV0YWxfYmluZGluZycsICctaW1hZScsICc8aW5maWxlLm1hZT4nLCAnLW9tYWUnLCAnPG91dGZpbGUubWFlPic=

> <r_lp_tautomer_probability>
1

> <r_epik_Ionization_Penalty>
2.55707

> <r_epik_Ionization_Penalty_Charging>
0

> <r_epik_Ionization_Penalty_Neutral>
2.55707

> <r_epik_State_Penalty>
2.726

> <r_epik_Charging_Adjusted_Penalty>
2.726

> <i_epik_Tot_Q>
0

> <i_epik_Tot_abs_Q>
0

> <r_epik_Metal_State_Penalty>
2.72594

> <b_epik_Metal_Only>
0

> <s_lp_Force_Field>
OPLS_2005

> <r_lp_Energy>
22.7086

> <b_lp_Chiralities_Consistent>
1

> <s_lp_Variant>
AV-unprocessed.smi:1076-4

> <Gold.Version>
5.8.1

> <Gold.Id.Protein>
6NUR|6NUR_protein|mol2

> <Gold.PLP.Fitness>
41.7338

> <Gold.PLP.PLP>
-38.1803

> <Gold.PLP.part.hbond>
-3.0000

> <Gold.PLP.part.metal>
0.0000

> <Gold.PLP.part.buried>
-1.7720

> <Gold.PLP.part.nonpolar>
-32.5569

> <Gold.PLP.part.repulsive>
0.5011

> <Gold.PLP.ligand.clash>
0.0000

> <Gold.PLP.ligand.torsion>
1.2383

> <Gold.PLP.Chemscore.Hbond>
0.9600

> <Gold.PLP.Chemscore.CHOScore>
1.0000

> <Gold.PLP.Chemscore.Metal>
0.0000

> <Gold.Chemscore.Hbonds>
donor molecule, donor type, donor heavy atom, donor atom, acceptor molecule, acceptor atom, score
      L1  H     9    31       P1  7949  0.95
      L1  C     3    24       P1  8028  0.40

> <Gold.PLP.Chemscore.Internal.Correction>
0.1501

> <Gold.Rescore>
     Score         DG    S(hbond)    S(metal)    S(lipo)     H(rot)  DE(clash)    DE(int)     intcor
      9.47     -12.00       0.57        0.00      81.15       1.91       0.11       2.41       ----

> <Gold.Chemscore.Fitness>
9.4736

> <Gold.Chemscore.DG>
-11.9980

> <Gold.Chemscore.ZeroCoef>
-5.4800

> <Gold.Chemscore.Hbond>
0.5727

> <Gold.Chemscore.Metal>
0.0000

> <Gold.Chemscore.Lipo>
81.1478

> <Gold.Chemscore.Internal_Hbond>
0.0000

> <Gold.Chemscore.DEClash>
0.1146

> <Gold.Chemscore.DEInternal>
2.4099

> <Gold.Chemscore.Rot>
1.9098

> <Gold.Chemscore.Internal.Correction>
   9.000000E+99

> <Gold.Chemscore.Hbonds>
donor molecule, donor type, donor heavy atom, donor atom, acceptor molecule, acceptor atom, score
      L1  H     9    31       P1  7949  0.21

> <Gold.Chemscore.Hbond.Weighted>
-1.9128

> <Gold.Chemscore.Metal.Weighted>
-0.0000

> <Gold.Chemscore.Lipo.Weighted>
-9.4943

> <Gold.Chemscore.Internal_Hbond.Weighted>
0.0000

> <Gold.Chemscore.DEClash.Weighted>
0.1146

> <Gold.Chemscore.DEInternal.Weighted>
2.4099

> <Gold.Chemscore.Rot.Weighted>
4.8891

> <Gold.Chemscore.Internal.Correction.Weighted>
   9.000000E+99

> <Gold.Protein.RotatedTorsions>
[ 6907 6896 6895 6894 ] final  -24.01 input  -60.11 | X-H torsion
[ 7974 7965 7964 7962 ] final -144.26 input  175.53 | X-H torsion
[ 8008 7997 7996 7995 ] final    6.02 input   59.86 | X-H torsion
[ 10167 10162 10161 10158 ] final  -35.06 input  -65.29 | X-H torsion
[ 10718 10713 10712 10709 ] final   -5.24 input   66.30 | X-H torsion
[ 10763 10752 10751 10750 ] final -122.71 input  -60.55 | X-H torsion
[ 11005 11000 10999 10996 ] final -165.46 input  -57.11 | X-H torsion

> <Gold.Protein.ActiveResidues>
 VAL166  LYS551  ARG553  GLY616  TRP617  ASP618  TYR619  PRO620  LYS621  CYS622 
 ASP623  PHE694  ASN695  SER759  ASP760  ASP761  ALA762  ILE779  LEU786  VAL792 
 PHE793  MET794  SER795  GLU796  ALA797  LYS798  CYS799  TRP800  GLU811  SER814 

> <Gold.Protein.RotatedAtoms>
  151.1956  135.0421  159.8850 H   0  0  0  0  0  0  0  0  0  0  0  0  # atno 6907 bound_to 6896
  152.5436  134.0907  159.8285 H   0  0  0  0  0  0  0  0  0  0  0  0  # atno 6908 bound_to 6896
  151.1041  133.5174  159.2640 H   0  0  0  0  0  0  0  0  0  0  0  0  # atno 6909 bound_to 6896
  144.8310  140.5732  143.5515 H   0  0  0  0  0  0  0  0  0  0  0  0  # atno 7974 bound_to 7965
  154.7357  140.2739  155.6417 H   0  0  0  0  0  0  0  0  0  0  0  0  # atno 8008 bound_to 7997
  156.2861  140.2707  156.1995 H   0  0  0  0  0  0  0  0  0  0  0  0  # atno 8009 bound_to 7997
  155.0323  140.0371  157.2468 H   0  0  0  0  0  0  0  0  0  0  0  0  # atno 8010 bound_to 7997
  140.7173  143.3504  151.2168 H   0  0  0  0  0  0  0  0  0  0  0  0  # atno 10167 bound_to 10162
  156.7495  130.5235  149.5807 H   0  0  0  0  0  0  0  0  0  0  0  0  # atno 10718 bound_to 10713
  154.8694  135.4123  154.2825 H   0  0  0  0  0  0  0  0  0  0  0  0  # atno 10763 bound_to 10752
  153.3715  135.7008  153.6639 H   0  0  0  0  0  0  0  0  0  0  0  0  # atno 10764 bound_to 10752
  153.5499  135.3631  155.2727 H   0  0  0  0  0  0  0  0  0  0  0  0  # atno 10765 bound_to 10752
  140.5754  134.5195  157.5169 H   0  0  0  0  0  0  0  0  0  0  0  0  # atno 11005 bound_to 11000
  145.4896  139.1489  143.3717 LP  0  0  0  0  0  0  0  0  0  0  0  0  # atno 17320 bound_to 7965
  146.2613  140.5033  142.8852 LP  0  0  0  0  0  0  0  0  0  0  0  0  # atno 17321 bound_to 7965
  139.7033  143.9497  152.2915 LP  0  0  0  0  0  0  0  0  0  0  0  0  # atno 17342 bound_to 10162
  139.9197  144.6807  150.8474 LP  0  0  0  0  0  0  0  0  0  0  0  0  # atno 17343 bound_to 10162
  156.1411  130.6245  151.0468 LP  0  0  0  0  0  0  0  0  0  0  0  0  # atno 17370 bound_to 10713
  157.6783  131.0844  150.7436 LP  0  0  0  0  0  0  0  0  0  0  0  0  # atno 17371 bound_to 10713
  139.9342  134.7907  156.0848 LP  0  0  0  0  0  0  0  0  0  0  0  0  # atno 17394 bound_to 11000
  141.1030  133.6670  156.2797 LP  0  0  0  0  0  0  0  0  0  0  0  0  # atno 17395 bound_to 11000

$$$$
