AV-unprocessed.smi:102|AV-procd|sdf|960|dock1
  -GOLD-   2262017503D 1   1.00000     0.00000
 Structure written by MMmdl.
 44 45  0  0  0  0  0  0  0  0  1 V2000
  150.9608  141.6318  156.6383 C   0  0  0  0  0  0  0  0  0  0  0  0
  151.0470  140.3664  155.7955 C   0  0  0  0  0  0  0  0  0  0  0  0
  150.6731  140.3491  154.6224 O   0  0  0  0  0  0  0  0  0  0  0  0
  151.5612  139.3283  156.4801 O   0  0  0  0  0  0  0  0  0  0  0  0
  151.9088  138.1254  155.8083 C   0  0  0  0  0  0  0  0  0  0  0  0
  150.6563  137.4241  155.2477 C   0  0  1  0  0  0  0  0  0  0  0  0
  150.9606  136.0757  154.9052 O   0  0  0  0  0  0  0  0  0  0  0  0
  150.7859  135.2457  156.0133 C   0  0  2  0  0  0  0  0  0  0  0  0
  150.1001  133.9769  155.5553 N   0  0  0  0  0  0  0  0  0  0  0  0
  149.3691  133.9438  154.3752 C   0  0  0  0  0  0  0  0  0  0  0  0
  148.7236  132.8363  153.9400 C   0  0  0  0  0  0  0  0  0  0  0  0
  148.0327  132.8806  152.7881 F   0  0  0  0  0  0  0  0  0  0  0  0
  148.7663  131.5982  154.7124 C   0  0  0  0  0  0  0  0  0  0  0  0
  148.2178  130.5437  154.3991 O   0  0  0  0  0  0  0  0  0  0  0  0
  149.5031  131.6821  155.8977 N   0  0  0  0  0  0  0  0  0  0  0  0
  150.1685  132.8185  156.3606 C   0  0  0  0  0  0  0  0  0  0  0  0
  150.7689  132.7848  157.4337 O   0  0  0  0  0  0  0  0  0  0  0  0
  149.9643  136.0234  157.0615 C   0  0  2  0  0  0  0  0  0  0  0  0
  148.8550  135.2847  157.5686 O   0  0  0  0  0  0  0  0  0  0  0  0
  148.4296  135.4811  158.8258 C   0  0  0  0  0  0  0  0  0  0  0  0
  147.0897  134.8096  159.0944 C   0  0  0  0  0  0  0  0  0  0  0  0
  149.0131  136.1272  159.6958 O   0  0  0  0  0  0  0  0  0  0  0  0
  149.5530  137.2811  156.3012 C   0  0  2  0  0  0  0  0  0  0  0  0
  148.2970  137.0986  155.6528 O   0  0  0  0  0  0  0  0  0  0  0  0
  147.8338  138.0161  154.7881 C   0  0  0  0  0  0  0  0  0  0  0  0
  146.4658  137.6462  154.2312 C   0  0  0  0  0  0  0  0  0  0  0  0
  148.4109  139.0487  154.4479 O   0  0  0  0  0  0  0  0  0  0  0  0
  149.5528  130.8517  156.4698 H   0  0  0  0  0  0  0  0  0  0  0  0
  151.9171  141.8334  157.1209 H   0  0  0  0  0  0  0  0  0  0  0  0
  150.1989  141.5205  157.4098 H   0  0  0  0  0  0  0  0  0  0  0  0
  150.7004  142.4888  156.0167 H   0  0  0  0  0  0  0  0  0  0  0  0
  152.6557  138.2984  155.0320 H   0  0  0  0  0  0  0  0  0  0  0  0
  152.3792  137.4747  156.5457 H   0  0  0  0  0  0  0  0  0  0  0  0
  150.3027  137.9682  154.3710 H   0  0  0  0  0  0  0  0  0  0  0  0
  151.7742  134.9629  156.3791 H   0  0  0  0  0  0  0  0  0  0  0  0
  149.2993  134.8350  153.7694 H   0  0  0  0  0  0  0  0  0  0  0  0
  150.6524  136.2883  157.8660 H   0  0  0  0  0  0  0  0  0  0  0  0
  147.0771  133.8028  158.6765 H   0  0  0  0  0  0  0  0  0  0  0  0
  146.2827  135.3844  158.6398 H   0  0  0  0  0  0  0  0  0  0  0  0
  146.9048  134.7406  160.1667 H   0  0  0  0  0  0  0  0  0  0  0  0
  149.5092  138.1386  156.9748 H   0  0  0  0  0  0  0  0  0  0  0  0
  145.7383  137.5638  155.0389 H   0  0  0  0  0  0  0  0  0  0  0  0
  146.5152  136.6901  153.7096 H   0  0  0  0  0  0  0  0  0  0  0  0
  146.1194  138.4054  153.5297 H   0  0  0  0  0  0  0  0  0  0  0  0
  1  2  1  0  0  0  0
  1 29  1  0  0  0  0
  1 30  1  0  0  0  0
  1 31  1  0  0  0  0
  2  3  2  0  0  0  0
  2  4  1  0  0  0  0
  4  5  1  0  0  0  0
  5  6  1  0  0  0  0
  5 32  1  0  0  0  0
  5 33  1  0  0  0  0
  6 23  1  0  0  0  0
  6  7  1  0  0  0  0
  6 34  1  0  0  0  0
  7  8  1  0  0  0  0
  8  9  1  0  0  0  0
  8 18  1  0  0  0  0
  8 35  1  0  0  0  0
  9 16  1  0  0  0  0
  9 10  1  0  0  0  0
 10 11  2  0  0  0  0
 10 36  1  0  0  0  0
 11 12  1  0  0  0  0
 11 13  1  0  0  0  0
 13 14  2  0  0  0  0
 13 15  1  0  0  0  0
 15 28  1  0  0  0  0
 15 16  1  0  0  0  0
 16 17  2  0  0  0  0
 18 19  1  0  0  0  0
 18 23  1  0  0  0  0
 18 37  1  0  0  0  0
 19 20  1  0  0  0  0
 20 21  1  0  0  0  0
 20 22  2  0  0  0  0
 21 38  1  0  0  0  0
 21 39  1  0  0  0  0
 21 40  1  0  0  0  0
 23 24  1  0  0  0  0
 23 41  1  0  0  0  0
 24 25  1  0  0  0  0
 25 26  1  0  0  0  0
 25 27  2  0  0  0  0
 26 42  1  0  0  0  0
 26 43  1  0  0  0  0
 26 44  1  0  0  0  0
M  END
> <s_m_source_file>
AV-unprocessed.smi

> <i_m_source_file_index>
102

> <i_lp_mmshare_version>
43012

> <i_f3d_flags>
0

> <s_epik_input>
W0NIM11DKD1PKU9bQ0gyXVtDQEBIXTFPW0NASF0oW0NAQEhdKE9DKD1PKVtDSDNdKVtDQEhdMU9DKD1PKVtDSDNdKW4yW2NIXWMoRiljKD1PKVtuSF1jMj1P

> <s_epik_cmdline>
J2VwaWtfcHl0aG9uJywgJy1waCcsICc3LjAnLCAnLXRuJywgJzgnLCAnLW1hJywgJzIwMCcsICctbWV0YWxfYmluZGluZycsICctaW1hZScsICc8aW5maWxlLm1hZT4nLCAnLW9tYWUnLCAnPG91dGZpbGUubWFlPic=

> <r_lp_tautomer_probability>
0.999537

> <r_epik_Ionization_Penalty>
0.058267

> <r_epik_Ionization_Penalty_Charging>
0.058267

> <r_epik_Ionization_Penalty_Neutral>
6.57791e-16

> <r_epik_State_Penalty>
0.0503774

> <r_epik_Charging_Adjusted_Penalty>
0.108644

> <i_epik_Tot_Q>
0

> <i_epik_Tot_abs_Q>
0

> <r_epik_Metal_State_Penalty>
2.6644

> <b_epik_Metal_Only>
0

> <s_epik_Chemistry_Notes>
This compound has an ester and may undergo hydrolysis at high or low pH. This compound contains an acetal/aminal-like group ( X-CH(R)-Y where X, Y are N, S, or O) that may be acid/base labile, releasing an aldehyde.

> <s_lp_Force_Field>
OPLS_2005

> <r_lp_Energy>
13.3238

> <b_lp_Chiralities_Consistent>
1

> <s_lp_Variant>
AV-unprocessed.smi:102-16

> <Gold.Version>
5.8.1

> <Gold.Id.Protein>
6NUR|6NUR_protein|mol2

> <Gold.PLP.Fitness>
44.5229

> <Gold.PLP.PLP>
-32.4238

> <Gold.PLP.part.hbond>
-4.0000

> <Gold.PLP.part.metal>
0.0000

> <Gold.PLP.part.buried>
-6.7426

> <Gold.PLP.part.nonpolar>
-24.6299

> <Gold.PLP.part.repulsive>
0.4817

> <Gold.PLP.ligand.clash>
0.0000

> <Gold.PLP.ligand.torsion>
1.3274

> <Gold.PLP.Chemscore.Hbond>
3.9329

> <Gold.PLP.Chemscore.CHOScore>
0.8007

> <Gold.PLP.Chemscore.Metal>
0.0000

> <Gold.Chemscore.Hbonds>
donor molecule, donor type, donor heavy atom, donor atom, acceptor molecule, acceptor atom, score
      P1  H  6896  6907       L1    22  0.44
      P1  H  6896  6909       L1    17  1.00
      P1  H  7989  7998       L1     3  1.00
      P1  H 10752 10765       L1     7  0.84
      L1  C    10    36       P1  7948  0.83

> <Gold.PLP.Chemscore.Internal.Correction>
0.5530

> <Gold.Rescore>
     Score         DG    S(hbond)    S(metal)    S(lipo)     H(rot)  DE(clash)    DE(int)     intcor
      5.88      -9.97       3.10        0.00      38.59       4.05       0.23       3.85       ----

> <Gold.Chemscore.Fitness>
5.8834

> <Gold.Chemscore.DG>
-9.9667

> <Gold.Chemscore.ZeroCoef>
-5.4800

> <Gold.Chemscore.Hbond>
3.0971

> <Gold.Chemscore.Metal>
0.0000

> <Gold.Chemscore.Lipo>
38.5933

> <Gold.Chemscore.Internal_Hbond>
0.0000

> <Gold.Chemscore.DEClash>
0.2334

> <Gold.Chemscore.DEInternal>
3.8499

> <Gold.Chemscore.Rot>
4.0520

> <Gold.Chemscore.Internal.Correction>
   9.000000E+99

> <Gold.Chemscore.Hbonds>
donor molecule, donor type, donor heavy atom, donor atom, acceptor molecule, acceptor atom, score
      P1  H  6896  6907       L1    22  0.11
      P1  H  6896  6909       L1    17  0.97
      P1  H  7989  7998       L1     3  0.94
      P1  H 10752 10765       L1     7  0.27

> <Gold.Chemscore.Hbond.Weighted>
-10.3445

> <Gold.Chemscore.Metal.Weighted>
-0.0000

> <Gold.Chemscore.Lipo.Weighted>
-4.5154

> <Gold.Chemscore.Internal_Hbond.Weighted>
0.0000

> <Gold.Chemscore.DEClash.Weighted>
0.2334

> <Gold.Chemscore.DEInternal.Weighted>
3.8499

> <Gold.Chemscore.Rot.Weighted>
10.3732

> <Gold.Chemscore.Internal.Correction.Weighted>
   9.000000E+99

> <Gold.Protein.RotatedTorsions>
[ 6907 6896 6895 6894 ] final  -38.49 input  -60.11 | X-H torsion
[ 7974 7965 7964 7962 ] final  128.81 input  175.53 | X-H torsion
[ 8008 7997 7996 7995 ] final   57.91 input   59.86 | X-H torsion
[ 10167 10162 10161 10158 ] final -175.22 input  -65.29 | X-H torsion
[ 10718 10713 10712 10709 ] final -163.63 input   66.30 | X-H torsion
[ 10763 10752 10751 10750 ] final  164.13 input  -60.55 | X-H torsion
[ 11005 11000 10999 10996 ] final  150.57 input  -57.11 | X-H torsion

> <Gold.Protein.ActiveResidues>
 VAL166  LYS551  ARG553  GLY616  TRP617  ASP618  TYR619  PRO620  LYS621  CYS622 
 ASP623  PHE694  ASN695  SER759  ASP760  ASP761  ALA762  ILE779  LEU786  VAL792 
 PHE793  MET794  SER795  GLU796  ALA797  LYS798  CYS799  TRP800  GLU811  SER814 

> <Gold.Protein.RotatedAtoms>
  151.0018  134.9328  159.7957 H   0  0  0  0  0  0  0  0  0  0  0  0  # atno 6907 bound_to 6896
  152.5280  134.3144  159.9135 H   0  0  0  0  0  0  0  0  0  0  0  0  # atno 6908 bound_to 6896
  151.3150  133.4022  159.2684 H   0  0  0  0  0  0  0  0  0  0  0  0  # atno 6909 bound_to 6896
  145.0355  139.4008  143.5128 H   0  0  0  0  0  0  0  0  0  0  0  0  # atno 7974 bound_to 7965
  155.5414  140.3484  155.4447 H   0  0  0  0  0  0  0  0  0  0  0  0  # atno 8008 bound_to 7997
  156.0649  140.1349  156.9924 H   0  0  0  0  0  0  0  0  0  0  0  0  # atno 8009 bound_to 7997
  154.4498  140.0978  156.6556 H   0  0  0  0  0  0  0  0  0  0  0  0  # atno 8010 bound_to 7997
  139.5592  144.1911  152.1211 H   0  0  0  0  0  0  0  0  0  0  0  0  # atno 10167 bound_to 10162
  156.6275  130.8916  151.2970 H   0  0  0  0  0  0  0  0  0  0  0  0  # atno 10718 bound_to 10713
  154.3042  135.2758  155.2596 H   0  0  0  0  0  0  0  0  0  0  0  0  # atno 10763 bound_to 10752
  154.5020  135.5805  153.6541 H   0  0  0  0  0  0  0  0  0  0  0  0  # atno 10764 bound_to 10752
  152.9896  135.6160  154.3215 H   0  0  0  0  0  0  0  0  0  0  0  0  # atno 10765 bound_to 10752
  140.1143  134.8904  157.1981 H   0  0  0  0  0  0  0  0  0  0  0  0  # atno 11005 bound_to 11000
  146.3503  139.9928  142.8684 LP  0  0  0  0  0  0  0  0  0  0  0  0  # atno 17320 bound_to 7965
  145.1715  140.9723  143.4319 LP  0  0  0  0  0  0  0  0  0  0  0  0  # atno 17321 bound_to 7965
  140.1422  144.5192  150.6737 LP  0  0  0  0  0  0  0  0  0  0  0  0  # atno 17342 bound_to 10162
  140.6870  143.2355  151.5234 LP  0  0  0  0  0  0  0  0  0  0  0  0  # atno 17343 bound_to 10162
  157.7210  130.9558  150.1438 LP  0  0  0  0  0  0  0  0  0  0  0  0  # atno 17370 bound_to 10713
  156.2262  130.3678  149.8498 LP  0  0  0  0  0  0  0  0  0  0  0  0  # atno 17371 bound_to 10713
  140.3050  134.3089  155.7280 LP  0  0  0  0  0  0  0  0  0  0  0  0  # atno 17394 bound_to 11000
  141.2137  133.7615  156.9695 LP  0  0  0  0  0  0  0  0  0  0  0  0  # atno 17395 bound_to 11000

$$$$
