AV-unprocessed.smi:2528|AV-procd|sdf|9951|dock8
  -GOLD-   2272013593D 1   1.00000     0.00000
 Structure written by MMmdl.
 44 46  0  0  0  0  0  0  0  0  2 V2000
  143.0830  138.7685  156.6646 O   0  0  0  0  0  0  0  0  0  0  0  0
  143.4081  139.2215  155.5669 C   0  0  0  0  0  0  0  0  0  0  0  0
  144.5468  139.8978  155.3564 N   0  0  0  0  0  0  0  0  0  0  0  0
  145.5601  140.1696  156.3707 C   0  0  0  0  0  0  0  0  0  0  0  0
  146.7463  140.9596  155.7897 C   0  0  1  0  0  0  0  0  0  0  0  0
  147.8196  141.2472  156.8552 C   0  0  0  0  0  0  0  0  0  0  0  0
  148.9742  141.9576  156.2521 N   0  3  1  0  0  0  0  0  0  0  0  0
  150.0282  142.3326  157.2305 C   0  0  0  0  0  0  0  0  0  0  0  0
  150.8812  141.1242  157.6612 C   0  0  0  0  0  0  0  0  0  0  0  0
  151.4707  140.4023  156.4421 C   0  0  0  0  0  0  0  0  0  0  0  0
  150.3568  140.0181  155.4579 C   0  0  0  0  0  0  0  0  0  0  0  0
  149.5184  141.2523  155.0587 C   0  0  1  0  0  0  0  0  0  0  0  0
  148.3797  140.9069  154.0789 C   0  0  0  0  0  0  0  0  0  0  0  0
  147.3490  140.1946  154.7509 O   0  0  0  0  0  0  0  0  0  0  0  0
  142.6958  139.1021  154.4330 N   0  0  0  0  0  0  0  0  0  0  0  0
  141.4473  138.4507  154.2460 C   0  0  0  0  0  0  0  0  0  0  0  0
  140.7172  138.8715  153.1115 C   0  0  0  0  0  0  0  0  0  0  0  0
  139.4666  138.2852  152.8360 C   0  0  0  0  0  0  0  0  0  0  0  0
  138.9763  137.2945  153.7052 C   0  0  0  0  0  0  0  0  0  0  0  0
  139.7647  136.9357  154.8139 C   0  0  0  0  0  0  0  0  0  0  0  0
  140.9647  137.4943  155.0785 N   0  0  0  0  0  0  0  0  0  0  0  0
  144.7320  140.2392  154.4246 H   0  0  0  0  0  0  0  0  0  0  0  0
  145.0822  140.7529  157.1581 H   0  0  0  0  0  0  0  0  0  0  0  0
  145.9021  139.2449  156.8390 H   0  0  0  0  0  0  0  0  0  0  0  0
  146.3756  141.9028  155.3831 H   0  0  0  0  0  0  0  0  0  0  0  0
  147.3958  141.8609  157.6507 H   0  0  0  0  0  0  0  0  0  0  0  0
  148.1439  140.3139  157.3157 H   0  0  0  0  0  0  0  0  0  0  0  0
  150.6717  143.0817  156.7673 H   0  0  0  0  0  0  0  0  0  0  0  0
  149.5767  142.8118  158.1002 H   0  0  0  0  0  0  0  0  0  0  0  0
  151.6860  141.4563  158.3178 H   0  0  0  0  0  0  0  0  0  0  0  0
  150.2803  140.4285  158.2472 H   0  0  0  0  0  0  0  0  0  0  0  0
  152.1925  141.0518  155.9450 H   0  0  0  0  0  0  0  0  0  0  0  0
  152.0179  139.5138  156.7583 H   0  0  0  0  0  0  0  0  0  0  0  0
  150.7981  139.5655  154.5693 H   0  0  0  0  0  0  0  0  0  0  0  0
  149.7202  139.2525  155.9029 H   0  0  0  0  0  0  0  0  0  0  0  0
  150.1863  141.9495  154.5507 H   0  0  0  0  0  0  0  0  0  0  0  0
  147.9678  141.8133  153.6321 H   0  0  0  0  0  0  0  0  0  0  0  0
  148.7556  140.2980  153.2564 H   0  0  0  0  0  0  0  0  0  0  0  0
  143.0965  139.5156  153.6043 H   0  0  0  0  0  0  0  0  0  0  0  0
  141.1084  139.6343  152.4541 H   0  0  0  0  0  0  0  0  0  0  0  0
  138.8943  138.5913  151.9728 H   0  0  0  0  0  0  0  0  0  0  0  0
  138.0214  136.8225  153.5275 H   0  0  0  0  0  0  0  0  0  0  0  0
  139.4234  136.1808  155.5067 H   0  0  0  0  0  0  0  0  0  0  0  0
  148.5951  142.8283  155.9079 H   0  0  0  0  0  0  0  0  0  0  0  0
  1  2  2  0  0  0  0
  2  3  1  0  0  0  0
  2 15  1  0  0  0  0
  3  4  1  0  0  0  0
  3 22  1  0  0  0  0
  4  5  1  0  0  0  0
  4 23  1  0  0  0  0
  4 24  1  0  0  0  0
  5 14  1  0  0  0  0
  5  6  1  0  0  0  0
  5 25  1  0  0  0  0
  6  7  1  0  0  0  0
  6 26  1  0  0  0  0
  6 27  1  0  0  0  0
  7 12  1  0  0  0  0
  7  8  1  0  0  0  0
  7 44  1  0  0  0  0
  8  9  1  0  0  0  0
  8 28  1  0  0  0  0
  8 29  1  0  0  0  0
  9 10  1  0  0  0  0
  9 30  1  0  0  0  0
  9 31  1  0  0  0  0
 10 11  1  0  0  0  0
 10 32  1  0  0  0  0
 10 33  1  0  0  0  0
 11 12  1  0  0  0  0
 11 34  1  0  0  0  0
 11 35  1  0  0  0  0
 12 13  1  0  0  0  0
 12 36  1  0  0  0  0
 13 14  1  0  0  0  0
 13 37  1  0  0  0  0
 13 38  1  0  0  0  0
 15 16  1  0  0  0  0
 15 39  1  0  0  0  0
 16 21  1  0  0  0  0
 16 17  2  0  0  0  0
 17 18  1  0  0  0  0
 17 40  1  0  0  0  0
 18 19  2  0  0  0  0
 18 41  1  0  0  0  0
 19 20  1  0  0  0  0
 19 42  1  0  0  0  0
 20 21  2  0  0  0  0
 20 43  1  0  0  0  0
M  CHG  1   7   1
M  END
> <s_m_source_file>
AV-unprocessed.smi

> <i_m_source_file_index>
2528

> <i_lp_mmshare_version>
43012

> <i_f3d_flags>
0

> <s_epik_input>
bjFbY0hdW2NIXVtjSF1bY0hdYzFbTkhdQyg9TylbTkhdW0NIMl1bQ0BIXShbQ0gyXTIpT1tDSDJdW0NAQEhdKE4yMylbQ0gyXVtDSDJdW0NIMl1bQ0gyXTM=

> <s_epik_cmdline>
J2VwaWtfcHl0aG9uJywgJy1waCcsICc3LjAnLCAnLXRuJywgJzgnLCAnLW1hJywgJzIwMCcsICctbWV0YWxfYmluZGluZycsICctaW1hZScsICc8aW5maWxlLm1hZT4nLCAnLW9tYWUnLCAnPG91dGZpbGUubWFlPic=

> <r_epik_Ionization_Penalty>
0.0932337

> <r_epik_Ionization_Penalty_Charging>
0.0931942

> <r_epik_Ionization_Penalty_Neutral>
3.9565e-05

> <r_epik_State_Penalty>
0.0834605

> <r_epik_Charging_Adjusted_Penalty>
0.176655

> <i_epik_Tot_Q>
1

> <i_epik_Tot_abs_Q>
1

> <r_epik_Metal_State_Penalty>
0.0834607

> <b_epik_Metal_Only>
0

> <s_lp_Force_Field>
OPLS_2005

> <r_lp_Energy>
26.7775

> <b_lp_Chiralities_Consistent>
1

> <s_lp_Variant>
AV-unprocessed.smi:2528-4

> <Gold.Version>
5.8.1

> <Gold.Id.Protein>
6NUR|6NUR_protein|mol2

> <Gold.PLP.Fitness>
42.2292

> <Gold.PLP.PLP>
-29.4801

> <Gold.PLP.part.hbond>
-2.9182

> <Gold.PLP.part.metal>
0.0000

> <Gold.PLP.part.buried>
0.4725

> <Gold.PLP.part.nonpolar>
-27.4462

> <Gold.PLP.part.repulsive>
0.1671

> <Gold.PLP.ligand.clash>
0.0000

> <Gold.PLP.ligand.torsion>
0.1013

> <Gold.PLP.Chemscore.Hbond>
3.3170

> <Gold.PLP.Chemscore.CHOScore>
1.0000

> <Gold.PLP.Chemscore.Metal>
0.0000

> <Gold.Chemscore.Hbonds>
donor molecule, donor type, donor heavy atom, donor atom, acceptor molecule, acceptor atom, score
      L1  H     3    22       P1 10175  0.41
      L1  H     7    44       P1  8028  1.89
      L1  H    15    39       P1 10175  1.00
      L1  C    20    43       P1 11000  1.00

> <Gold.PLP.Chemscore.Internal.Correction>
0.0006

> <Gold.Rescore>
     Score         DG    S(hbond)    S(metal)    S(lipo)     H(rot)  DE(clash)    DE(int)     intcor
     15.70     -17.03       1.97        0.00      70.54       1.29       0.01       1.32       ----

> <Gold.Chemscore.Fitness>
15.7040

> <Gold.Chemscore.DG>
-17.0298

> <Gold.Chemscore.ZeroCoef>
-5.4800

> <Gold.Chemscore.Hbond>
1.9733

> <Gold.Chemscore.Metal>
0.0000

> <Gold.Chemscore.Lipo>
70.5441

> <Gold.Chemscore.Internal_Hbond>
0.0000

> <Gold.Chemscore.DEClash>
0.0050

> <Gold.Chemscore.DEInternal>
1.3208

> <Gold.Chemscore.Rot>
1.2870

> <Gold.Chemscore.Internal.Correction>
   9.000000E+99

> <Gold.Chemscore.Hbonds>
donor molecule, donor type, donor heavy atom, donor atom, acceptor molecule, acceptor atom, score
      L1  H     3    22       P1 10175  0.42
      L1  H     7    44       P1  8028  0.90
      L1  H    15    39       P1 10175  0.94

> <Gold.Chemscore.Hbond.Weighted>
-6.5910

> <Gold.Chemscore.Metal.Weighted>
-0.0000

> <Gold.Chemscore.Lipo.Weighted>
-8.2537

> <Gold.Chemscore.Internal_Hbond.Weighted>
0.0000

> <Gold.Chemscore.DEClash.Weighted>
0.0050

> <Gold.Chemscore.DEInternal.Weighted>
1.3208

> <Gold.Chemscore.Rot.Weighted>
3.2948

> <Gold.Chemscore.Internal.Correction.Weighted>
   9.000000E+99

> <Gold.Protein.RotatedTorsions>
[ 6907 6896 6895 6894 ] final  174.74 input  -60.11 | X-H torsion
[ 7974 7965 7964 7962 ] final  -21.98 input  175.53 | X-H torsion
[ 8008 7997 7996 7995 ] final -149.65 input   59.86 | X-H torsion
[ 10167 10162 10161 10158 ] final -138.36 input  -65.29 | X-H torsion
[ 10718 10713 10712 10709 ] final   21.01 input   66.30 | X-H torsion
[ 10763 10752 10751 10750 ] final -129.87 input  -60.55 | X-H torsion
[ 11005 11000 10999 10996 ] final -119.60 input  -57.11 | X-H torsion

> <Gold.Protein.ActiveResidues>
 VAL166  LYS551  ARG553  GLY616  TRP617  ASP618  TYR619  PRO620  LYS621  CYS622 
 ASP623  PHE694  ASN695  SER759  ASP760  ASP761  ALA762  ILE779  LEU786  VAL792 
 PHE793  MET794  SER795  GLU796  ALA797  LYS798  CYS799  TRP800  GLU811  SER814 

> <Gold.Protein.RotatedAtoms>
  151.7475  133.3325  159.3382 H   0  0  0  0  0  0  0  0  0  0  0  0  # atno 6907 bound_to 6896
  150.7548  134.6222  159.6151 H   0  0  0  0  0  0  0  0  0  0  0  0  # atno 6908 bound_to 6896
  152.3490  134.7033  160.0293 H   0  0  0  0  0  0  0  0  0  0  0  0  # atno 6909 bound_to 6896
  146.1702  140.4416  142.8535 H   0  0  0  0  0  0  0  0  0  0  0  0  # atno 7974 bound_to 7965
  155.6111  140.0672  157.2706 H   0  0  0  0  0  0  0  0  0  0  0  0  # atno 8008 bound_to 7997
  154.4253  140.1801  156.1321 H   0  0  0  0  0  0  0  0  0  0  0  0  # atno 8009 bound_to 7997
  156.0084  140.3329  155.6919 H   0  0  0  0  0  0  0  0  0  0  0  0  # atno 8010 bound_to 7997
  139.8486  143.7228  152.2659 H   0  0  0  0  0  0  0  0  0  0  0  0  # atno 10167 bound_to 10162
  157.1325  130.6597  149.5956 H   0  0  0  0  0  0  0  0  0  0  0  0  # atno 10718 bound_to 10713
  154.8757  135.3881  154.3991 H   0  0  0  0  0  0  0  0  0  0  0  0  # atno 10763 bound_to 10752
  153.4718  135.7030  153.5994 H   0  0  0  0  0  0  0  0  0  0  0  0  # atno 10764 bound_to 10752
  153.4448  135.3847  155.2217 H   0  0  0  0  0  0  0  0  0  0  0  0  # atno 10765 bound_to 10752
  141.0204  134.0133  157.3290 H   0  0  0  0  0  0  0  0  0  0  0  0  # atno 11005 bound_to 11000
  144.8151  140.6454  143.6389 LP  0  0  0  0  0  0  0  0  0  0  0  0  # atno 17320 bound_to 7965
  145.4361  139.1542  143.3996 LP  0  0  0  0  0  0  0  0  0  0  0  0  # atno 17321 bound_to 7965
  139.7487  144.7540  151.0539 LP  0  0  0  0  0  0  0  0  0  0  0  0  # atno 17342 bound_to 10162
  140.7790  143.4885  150.9924 LP  0  0  0  0  0  0  0  0  0  0  0  0  # atno 17343 bound_to 10162
  155.9805  130.4806  150.6776 LP  0  0  0  0  0  0  0  0  0  0  0  0  # atno 17370 bound_to 10713
  157.4380  131.0857  151.0972 LP  0  0  0  0  0  0  0  0  0  0  0  0  # atno 17371 bound_to 10713
  139.9142  135.0194  156.7816 LP  0  0  0  0  0  0  0  0  0  0  0  0  # atno 17394 bound_to 11000
  140.6583  133.9669  155.7791 LP  0  0  0  0  0  0  0  0  0  0  0  0  # atno 17395 bound_to 11000

$$$$
