AV-unprocessed.smi:215|AV-procd|sdf|1652|dock6
  -GOLD-   2262020 33D 1   1.00000     0.00000
 Structure written by MMmdl.
 59 62  0  0  0  0  0  0  0  0  2 V2000
  146.3382  140.6287  157.2414 C   0  0  0  0  0  0  0  0  0  0  0  0
  147.2360  140.4089  156.0035 C   0  0  2  0  0  0  0  0  0  0  0  0
  147.9825  141.6818  155.5281 C   0  0  1  0  0  0  0  0  0  0  0  0
  149.3292  141.9109  156.1372 N   0  3  2  0  0  0  0  0  0  0  0  0
  150.4086  141.0340  155.6220 C   0  0  0  0  0  0  0  0  0  0  0  0
  149.2977  141.9121  157.6256 C   0  0  0  0  0  0  0  0  0  0  0  0
  150.4871  142.6811  158.2236 C   0  0  0  0  0  0  0  0  0  0  0  0
  150.3640  144.0590  157.9402 O   0  0  0  0  0  0  0  0  0  0  0  0
  148.0916  141.4412  154.0143 C   0  0  0  0  0  0  0  0  0  0  0  0
  146.8179  140.6876  153.6513 C   0  0  0  0  0  0  0  0  0  0  0  0
  146.4152  139.9950  154.8641 N   0  0  0  0  0  0  0  0  0  0  0  0
  145.9136  138.7360  154.7512 C   0  0  0  0  0  0  0  0  0  0  0  0
  145.4616  138.0932  155.8605 N   0  0  0  0  0  0  0  0  0  0  0  0
  144.9660  136.8558  155.7733 C   0  0  0  0  0  0  0  0  0  0  0  0
  144.8303  136.0870  154.6923 N   0  0  0  0  0  0  0  0  0  0  0  0
  145.2765  136.7242  153.5722 C   0  0  0  0  0  0  0  0  0  0  0  0
  145.8256  138.0369  153.5119 C   0  0  0  0  0  0  0  0  0  0  0  0
  146.1474  138.3499  152.1963 N   0  0  0  0  0  0  0  0  0  0  0  0
  145.8099  137.2856  151.5204 C   0  0  0  0  0  0  0  0  0  0  0  0
  145.2923  136.2529  152.2703 N   0  0  0  0  0  0  0  0  0  0  0  0
  144.8153  134.9851  151.7935 C   0  0  0  0  0  0  0  0  0  0  0  0
  145.5548  133.6734  152.0738 C   0  0  0  0  0  0  0  0  0  0  0  0
  145.0740  133.1277  150.7083 C   0  0  0  0  0  0  0  0  0  0  0  0
  146.1303  132.3186  149.9350 C   0  0  0  0  0  0  0  0  0  0  0  0
  146.4931  131.1369  150.6189 O   0  0  0  0  0  0  0  0  0  0  0  0
  143.7666  132.3107  150.7878 C   0  0  0  0  0  0  0  0  0  0  0  0
  143.0790  132.2784  149.5542 O   0  0  0  0  0  0  0  0  0  0  0  0
  144.9323  134.6173  150.3157 C   0  0  0  0  0  0  0  0  0  0  0  0
  147.9679  139.6252  156.2041 H   0  0  0  0  0  0  0  0  0  0  0  0
  147.3489  142.5529  155.7067 H   0  0  0  0  0  0  0  0  0  0  0  0
  146.8973  140.9296  158.1239 H   0  0  0  0  0  0  0  0  0  0  0  0
  145.8015  139.7191  157.5102 H   0  0  0  0  0  0  0  0  0  0  0  0
  145.5913  141.4000  157.0505 H   0  0  0  0  0  0  0  0  0  0  0  0
  150.1656  139.9823  155.7778 H   0  0  0  0  0  0  0  0  0  0  0  0
  151.3535  141.2328  156.1265 H   0  0  0  0  0  0  0  0  0  0  0  0
  150.5868  141.2051  154.5609 H   0  0  0  0  0  0  0  0  0  0  0  0
  148.3783  142.3537  158.0086 H   0  0  0  0  0  0  0  0  0  0  0  0
  149.2952  140.8829  157.9879 H   0  0  0  0  0  0  0  0  0  0  0  0
  150.5062  142.5558  159.3065 H   0  0  0  0  0  0  0  0  0  0  0  0
  151.4413  142.3148  157.8457 H   0  0  0  0  0  0  0  0  0  0  0  0
  149.9443  144.1599  157.0991 H   0  0  0  0  0  0  0  0  0  0  0  0
  148.1981  142.3559  153.4310 H   0  0  0  0  0  0  0  0  0  0  0  0
  148.9538  140.8079  153.7995 H   0  0  0  0  0  0  0  0  0  0  0  0
  146.0266  141.3822  153.3675 H   0  0  0  0  0  0  0  0  0  0  0  0
  146.9916  140.0086  152.8153 H   0  0  0  0  0  0  0  0  0  0  0  0
  144.6316  136.4185  156.7025 H   0  0  0  0  0  0  0  0  0  0  0  0
  145.9272  137.2319  150.4483 H   0  0  0  0  0  0  0  0  0  0  0  0
  143.7785  134.8998  152.1236 H   0  0  0  0  0  0  0  0  0  0  0  0
  146.6379  133.7925  152.1270 H   0  0  0  0  0  0  0  0  0  0  0  0
  145.1849  133.1259  152.9414 H   0  0  0  0  0  0  0  0  0  0  0  0
  145.7525  132.0226  148.9561 H   0  0  0  0  0  0  0  0  0  0  0  0
  147.0276  132.9100  149.7506 H   0  0  0  0  0  0  0  0  0  0  0  0
  147.1331  130.6732  150.1011 H   0  0  0  0  0  0  0  0  0  0  0  0
  143.9621  131.2860  151.1053 H   0  0  0  0  0  0  0  0  0  0  0  0
  143.0850  132.7286  151.5288 H   0  0  0  0  0  0  0  0  0  0  0  0
  142.5284  133.0440  149.4963 H   0  0  0  0  0  0  0  0  0  0  0  0
  144.0511  134.8590  149.7207 H   0  0  0  0  0  0  0  0  0  0  0  0
  145.8355  135.0221  149.8550 H   0  0  0  0  0  0  0  0  0  0  0  0
  149.5845  142.8509  155.8679 H   0  0  0  0  0  0  0  0  0  0  0  0
  1  2  1  0  0  0  0
  1 31  1  0  0  0  0
  1 32  1  0  0  0  0
  1 33  1  0  0  0  0
  2 29  1  0  0  0  0
  2 11  1  0  0  0  0
  2  3  1  0  0  0  0
  3 30  1  0  0  0  0
  3  4  1  0  0  0  0
  3  9  1  0  0  0  0
  4  5  1  0  0  0  0
  4  6  1  0  0  0  0
  4 59  1  0  0  0  0
  5 34  1  0  0  0  0
  5 35  1  0  0  0  0
  5 36  1  0  0  0  0
  6  7  1  0  0  0  0
  6 37  1  0  0  0  0
  6 38  1  0  0  0  0
  7  8  1  0  0  0  0
  7 39  1  0  0  0  0
  7 40  1  0  0  0  0
  8 41  1  0  0  0  0
  9 10  1  0  0  0  0
  9 42  1  0  0  0  0
  9 43  1  0  0  0  0
 10 11  1  0  0  0  0
 10 44  1  0  0  0  0
 10 45  1  0  0  0  0
 11 12  1  0  0  0  0
 12 17  1  0  0  0  0
 12 13  2  0  0  0  0
 13 14  1  0  0  0  0
 14 15  2  0  0  0  0
 14 46  1  0  0  0  0
 15 16  1  0  0  0  0
 16 20  1  0  0  0  0
 16 17  2  0  0  0  0
 17 18  1  0  0  0  0
 18 19  2  0  0  0  0
 19 20  1  0  0  0  0
 19 47  1  0  0  0  0
 20 21  1  0  0  0  0
 21 28  1  0  0  0  0
 21 22  1  0  0  0  0
 21 48  1  0  0  0  0
 22 23  1  0  0  0  0
 22 49  1  0  0  0  0
 22 50  1  0  0  0  0
 23 24  1  0  0  0  0
 23 26  1  0  0  0  0
 23 28  1  0  0  0  0
 24 25  1  0  0  0  0
 24 51  1  0  0  0  0
 24 52  1  0  0  0  0
 25 53  1  0  0  0  0
 26 27  1  0  0  0  0
 26 54  1  0  0  0  0
 26 55  1  0  0  0  0
 27 56  1  0  0  0  0
 28 57  1  0  0  0  0
 28 58  1  0  0  0  0
M  CHG  1   4   1
M  END
> <s_m_source_file>
AV-unprocessed.smi

> <i_m_source_file_index>
215

> <i_lp_mmshare_version>
43012

> <i_f3d_flags>
0

> <s_epik_input>
W09IXVtDSDJdW0NIMl1OKFtDSDNdKVtDQEBIXShbQ0BIXTFbQ0gzXSlbQ0gyXVtDSDJdTjFjKG5bY0hdbjIpYyhjMjMpbltjSF1uM1tDSF0oW0NIMl00KVtDSDJdQzQoW0NIMl1bT0hdKVtDSDJdW09IXQ==

> <s_epik_cmdline>
J2VwaWtfcHl0aG9uJywgJy1waCcsICc3LjAnLCAnLXRuJywgJzgnLCAnLW1hJywgJzIwMCcsICctbWV0YWxfYmluZGluZycsICctaW1hZScsICc8aW5maWxlLm1hZT4nLCAnLW9tYWUnLCAnPG91dGZpbGUubWFlPic=

> <r_lp_tautomer_probability>
1

> <r_epik_Ionization_Penalty>
0.0036237

> <r_epik_Ionization_Penalty_Charging>
0.0032725

> <r_epik_Ionization_Penalty_Neutral>
0.000351196

> <r_epik_State_Penalty>
-0

> <r_epik_Charging_Adjusted_Penalty>
0.0032725

> <i_epik_Tot_Q>
1

> <i_epik_Tot_abs_Q>
1

> <r_epik_Metal_State_Penalty>
-0

> <b_epik_Metal_Only>
0

> <s_lp_Force_Field>
OPLS_2005

> <r_lp_Energy>
64.69

> <b_lp_Chiralities_Consistent>
1

> <s_lp_Variant>
AV-unprocessed.smi:215-3

> <Gold.Version>
5.8.1

> <Gold.Id.Protein>
6NUR|6NUR_protein|mol2

> <Gold.PLP.Fitness>
52.7859

> <Gold.PLP.PLP>
-38.8479

> <Gold.PLP.part.hbond>
-5.6770

> <Gold.PLP.part.metal>
0.0000

> <Gold.PLP.part.buried>
-3.9116

> <Gold.PLP.part.nonpolar>
-31.2054

> <Gold.PLP.part.repulsive>
0.4183

> <Gold.PLP.ligand.clash>
0.0000

> <Gold.PLP.ligand.torsion>
1.0248

> <Gold.PLP.Chemscore.Hbond>
4.6452

> <Gold.PLP.Chemscore.CHOScore>
0.3856

> <Gold.PLP.Chemscore.Metal>
0.0000

> <Gold.Chemscore.Hbonds>
donor molecule, donor type, donor heavy atom, donor atom, acceptor molecule, acceptor atom, score
      L1  H     4    59       P1  8028  1.76
      L1  H     8    41       P1  8028  1.00
      L1  H    25    53       P1 10747  0.53
      L1  H    27    56       P1 10186  0.96
      P1  H 10785 10796       L1    27  0.36
      L1  C    19    47       P1 10171  0.37

> <Gold.PLP.Chemscore.Internal.Correction>
0.8949

> <Gold.Rescore>
     Score         DG    S(hbond)    S(metal)    S(lipo)     H(rot)  DE(clash)    DE(int)     intcor
     11.35     -15.77       3.65        0.00      81.73       4.48       1.14       3.29       ----

> <Gold.Chemscore.Fitness>
11.3450

> <Gold.Chemscore.DG>
-15.7750

> <Gold.Chemscore.ZeroCoef>
-5.4800

> <Gold.Chemscore.Hbond>
3.6522

> <Gold.Chemscore.Metal>
0.0000

> <Gold.Chemscore.Lipo>
81.7260

> <Gold.Chemscore.Internal_Hbond>
0.0000

> <Gold.Chemscore.DEClash>
1.1408

> <Gold.Chemscore.DEInternal>
3.2891

> <Gold.Chemscore.Rot>
4.4787

> <Gold.Chemscore.Internal.Correction>
   9.000000E+99

> <Gold.Chemscore.Hbonds>
donor molecule, donor type, donor heavy atom, donor atom, acceptor molecule, acceptor atom, score
      L1  H     4    59       P1  8028  0.82
      L1  H     8    41       P1  8028  0.78
      L1  H    25    53       P1 10747  0.52
      L1  H    27    56       P1 10186  0.90
      P1  H 10785 10796       L1    27  0.23

> <Gold.Chemscore.Hbond.Weighted>
-12.1985

> <Gold.Chemscore.Metal.Weighted>
-0.0000

> <Gold.Chemscore.Lipo.Weighted>
-9.5619

> <Gold.Chemscore.Internal_Hbond.Weighted>
0.0000

> <Gold.Chemscore.DEClash.Weighted>
1.1408

> <Gold.Chemscore.DEInternal.Weighted>
3.2891

> <Gold.Chemscore.Rot.Weighted>
11.4655

> <Gold.Chemscore.Internal.Correction.Weighted>
   9.000000E+99

> <Gold.Protein.RotatedTorsions>
[ 6907 6896 6895 6894 ] final  102.01 input  -60.11 | X-H torsion
[ 7974 7965 7964 7962 ] final  100.00 input  175.53 | X-H torsion
[ 8008 7997 7996 7995 ] final  -86.14 input   59.86 | X-H torsion
[ 10167 10162 10161 10158 ] final -159.18 input  -65.29 | X-H torsion
[ 10718 10713 10712 10709 ] final   96.43 input   66.30 | X-H torsion
[ 10763 10752 10751 10750 ] final   -3.92 input  -60.55 | X-H torsion
[ 11005 11000 10999 10996 ] final   17.10 input  -57.11 | X-H torsion

> <Gold.Protein.ActiveResidues>
 VAL166  LYS551  ARG553  GLY616  TRP617  ASP618  TYR619  PRO620  LYS621  CYS622 
 ASP623  PHE694  ASN695  SER759  ASP760  ASP761  ALA762  ILE779  LEU786  VAL792 
 PHE793  MET794  SER795  GLU796  ALA797  LYS798  CYS799  TRP800  GLU811  SER814 

> <Gold.Protein.RotatedAtoms>
  152.5335  134.0040  159.7907 H   0  0  0  0  0  0  0  0  0  0  0  0  # atno 6907 bound_to 6896
  151.0253  133.5831  159.2674 H   0  0  0  0  0  0  0  0  0  0  0  0  # atno 6908 bound_to 6896
  151.2855  135.0733  159.9239 H   0  0  0  0  0  0  0  0  0  0  0  0  # atno 6909 bound_to 6896
  145.3914  139.2362  143.3350 H   0  0  0  0  0  0  0  0  0  0  0  0  # atno 7974 bound_to 7965
  154.6485  140.0582  156.9928 H   0  0  0  0  0  0  0  0  0  0  0  0  # atno 8008 bound_to 7997
  155.1407  140.3265  155.4434 H   0  0  0  0  0  0  0  0  0  0  0  0  # atno 8009 bound_to 7997
  156.2565  140.1964  156.6523 H   0  0  0  0  0  0  0  0  0  0  0  0  # atno 8010 bound_to 7997
  139.6634  143.9871  152.2240 H   0  0  0  0  0  0  0  0  0  0  0  0  # atno 10167 bound_to 10162
  157.6927  131.0578  150.4490 H   0  0  0  0  0  0  0  0  0  0  0  0  # atno 10718 bound_to 10713
  153.3778  135.6997  153.6588 H   0  0  0  0  0  0  0  0  0  0  0  0  # atno 10763 bound_to 10752
  153.5212  135.3611  155.2633 H   0  0  0  0  0  0  0  0  0  0  0  0  # atno 10764 bound_to 10752
  154.8689  135.4158  154.3070 H   0  0  0  0  0  0  0  0  0  0  0  0  # atno 10765 bound_to 10752
  140.4397  134.1334  155.7689 H   0  0  0  0  0  0  0  0  0  0  0  0  # atno 11005 bound_to 11000
  146.2796  140.4597  142.8782 LP  0  0  0  0  0  0  0  0  0  0  0  0  # atno 17320 bound_to 7965
  144.8438  140.6897  143.6212 LP  0  0  0  0  0  0  0  0  0  0  0  0  # atno 17321 bound_to 7965
  139.9617  144.6553  150.8073 LP  0  0  0  0  0  0  0  0  0  0  0  0  # atno 17342 bound_to 10162
  140.7589  143.3118  151.2826 LP  0  0  0  0  0  0  0  0  0  0  0  0  # atno 17343 bound_to 10162
  156.4843  130.4081  149.6443 LP  0  0  0  0  0  0  0  0  0  0  0  0  # atno 17370 bound_to 10713
  156.3477  130.7416  151.2371 LP  0  0  0  0  0  0  0  0  0  0  0  0  # atno 17371 bound_to 10713
  141.1711  133.8607  157.1568 LP  0  0  0  0  0  0  0  0  0  0  0  0  # atno 17394 bound_to 11000
  140.0078  135.0001  157.0330 LP  0  0  0  0  0  0  0  0  0  0  0  0  # atno 17395 bound_to 11000

$$$$
