AV-unprocessed.smi:1879|AV-procd|sdf|7632|dock6
  -GOLD-   22720 9353D 1   1.00000     0.00000
 Structure written by MMmdl.
 46 48  0  0  0  0  0  0  0  0  1 V2000
  151.2750  141.0889  157.3268 O   0  0  0  0  0  0  0  0  0  0  0  0
  150.7414  142.1115  156.8959 C   0  0  0  0  0  0  0  0  0  0  0  0
  149.8643  142.1574  155.8793 N   0  0  0  0  0  0  0  0  0  0  0  0
  149.3597  141.0723  155.1084 C   0  0  0  0  0  0  0  0  0  0  0  0
  150.0082  139.8132  155.0963 C   0  0  0  0  0  0  0  0  0  0  0  0
  149.5175  138.7917  154.2652 C   0  0  0  0  0  0  0  0  0  0  0  0
  148.4014  139.0702  153.4593 C   0  0  0  0  0  0  0  0  0  0  0  0
  147.7812  140.2668  153.4486 N   0  0  0  0  0  0  0  0  0  0  0  0
  148.2330  141.2583  154.2559 C   0  0  0  0  0  0  0  0  0  0  0  0
  147.5310  142.4855  154.2109 N   0  0  0  0  0  0  0  0  0  0  0  0
  146.7667  142.8586  153.0253 C   0  0  0  0  0  0  0  0  0  0  0  0
  145.8690  144.0062  153.4783 C   0  0  0  0  0  0  0  0  0  0  0  0
  145.5323  143.6088  154.9120 C   0  0  0  0  0  0  0  0  0  0  0  0
  146.8055  142.9122  155.4042 C   0  0  0  0  0  0  0  0  0  0  0  0
  150.9539  143.3320  157.4079 N   0  0  0  0  0  0  0  0  0  0  0  0
  151.8401  143.6334  158.5281 C   0  0  2  0  0  0  0  0  0  0  0  0
  151.7310  142.5456  159.6154 C   0  0  0  0  0  0  0  0  0  0  0  0
  152.6104  142.8755  160.8344 C   0  0  0  0  0  0  0  0  0  0  0  0
  152.3131  144.2731  161.4102 C   0  0  2  0  0  0  0  0  0  0  0  0
  151.0446  144.2804  162.0347 O   0  0  0  0  0  0  0  0  0  0  0  0
  152.3715  145.3600  160.3201 C   0  0  0  0  0  0  0  0  0  0  0  0
  151.4908  145.0168  159.1060 C   0  0  0  0  0  0  0  0  0  0  0  0
  149.4303  143.0518  155.7034 H   0  0  0  0  0  0  0  0  0  0  0  0
  150.8875  139.6224  155.6925 H   0  0  0  0  0  0  0  0  0  0  0  0
  149.9944  137.8232  154.2366 H   0  0  0  0  0  0  0  0  0  0  0  0
  147.9991  138.3149  152.8006 H   0  0  0  0  0  0  0  0  0  0  0  0
  147.4221  143.1554  152.2062 H   0  0  0  0  0  0  0  0  0  0  0  0
  146.1473  142.0270  152.6865 H   0  0  0  0  0  0  0  0  0  0  0  0
  146.4281  144.9431  153.4718 H   0  0  0  0  0  0  0  0  0  0  0  0
  144.9872  144.1305  152.8494 H   0  0  0  0  0  0  0  0  0  0  0  0
  145.2460  144.4572  155.5341 H   0  0  0  0  0  0  0  0  0  0  0  0
  144.7039  142.8994  154.9099 H   0  0  0  0  0  0  0  0  0  0  0  0
  146.5724  142.0769  156.0660 H   0  0  0  0  0  0  0  0  0  0  0  0
  147.4241  143.6194  155.9567 H   0  0  0  0  0  0  0  0  0  0  0  0
  150.4670  144.1127  156.9925 H   0  0  0  0  0  0  0  0  0  0  0  0
  152.8699  143.6689  158.1669 H   0  0  0  0  0  0  0  0  0  0  0  0
  150.6923  142.4423  159.9326 H   0  0  0  0  0  0  0  0  0  0  0  0
  152.0247  141.5768  159.2096 H   0  0  0  0  0  0  0  0  0  0  0  0
  152.4843  142.1138  161.6046 H   0  0  0  0  0  0  0  0  0  0  0  0
  153.6579  142.8315  160.5338 H   0  0  0  0  0  0  0  0  0  0  0  0
  153.0477  144.5032  162.1826 H   0  0  0  0  0  0  0  0  0  0  0  0
  151.1654  144.4398  162.9582 H   0  0  0  0  0  0  0  0  0  0  0  0
  152.0811  146.3268  160.7325 H   0  0  0  0  0  0  0  0  0  0  0  0
  153.4038  145.4713  159.9857 H   0  0  0  0  0  0  0  0  0  0  0  0
  151.6133  145.7828  158.3392 H   0  0  0  0  0  0  0  0  0  0  0  0
  150.4403  145.0414  159.3996 H   0  0  0  0  0  0  0  0  0  0  0  0
  1  2  2  0  0  0  0
  2  3  1  0  0  0  0
  2 15  1  0  0  0  0
  3  4  1  0  0  0  0
  3 23  1  0  0  0  0
  4  9  1  0  0  0  0
  4  5  2  0  0  0  0
  5  6  1  0  0  0  0
  5 24  1  0  0  0  0
  6  7  2  0  0  0  0
  6 25  1  0  0  0  0
  7  8  1  0  0  0  0
  7 26  1  0  0  0  0
  8  9  2  0  0  0  0
  9 10  1  0  0  0  0
 10 14  1  0  0  0  0
 10 11  1  0  0  0  0
 11 12  1  0  0  0  0
 11 27  1  0  0  0  0
 11 28  1  0  0  0  0
 12 13  1  0  0  0  0
 12 29  1  0  0  0  0
 12 30  1  0  0  0  0
 13 14  1  0  0  0  0
 13 31  1  0  0  0  0
 13 32  1  0  0  0  0
 14 33  1  0  0  0  0
 14 34  1  0  0  0  0
 15 16  1  0  0  0  0
 15 35  1  0  0  0  0
 16 22  1  0  0  0  0
 16 17  1  0  0  0  0
 16 36  1  0  0  0  0
 17 18  1  0  0  0  0
 17 37  1  0  0  0  0
 17 38  1  0  0  0  0
 18 19  1  0  0  0  0
 18 39  1  0  0  0  0
 18 40  1  0  0  0  0
 19 20  1  0  0  0  0
 19 21  1  0  0  0  0
 19 41  1  0  0  0  0
 20 42  1  0  0  0  0
 21 22  1  0  0  0  0
 21 43  1  0  0  0  0
 21 44  1  0  0  0  0
 22 45  1  0  0  0  0
 22 46  1  0  0  0  0
M  END
> <s_m_source_file>
AV-unprocessed.smi

> <i_m_source_file_index>
1879

> <i_lp_mmshare_version>
43012

> <i_f3d_flags>
0

> <s_epik_input>
W0NIMl0xW0NIMl1bQ0BIXShbT0hdKVtDSDJdW0NIMl1bQ0BIXTFbTkhdQyg9TylbTkhdYzJbY0hdW2NIXVtjSF1uYzJOM1tDSDJdW0NIMl1bQ0gyXVtDSDJdMw==

> <s_epik_cmdline>
J2VwaWtfcHl0aG9uJywgJy1waCcsICc3LjAnLCAnLXRuJywgJzgnLCAnLW1hJywgJzIwMCcsICctbWV0YWxfYmluZGluZycsICctaW1hZScsICc8aW5maWxlLm1hZT4nLCAnLW9tYWUnLCAnPG91dGZpbGUubWFlPic=

> <r_lp_tautomer_probability>
1

> <r_epik_Ionization_Penalty>
0.104121

> <r_epik_Ionization_Penalty_Charging>
0

> <r_epik_Ionization_Penalty_Neutral>
0.104121

> <r_epik_State_Penalty>
0.0934704

> <r_epik_Charging_Adjusted_Penalty>
0.0934704

> <i_epik_Tot_Q>
0

> <i_epik_Tot_abs_Q>
0

> <r_epik_Metal_State_Penalty>
0.0794466

> <b_epik_Metal_Only>
0

> <s_lp_Force_Field>
OPLS_2005

> <r_lp_Energy>
39.1778

> <b_lp_Chiralities_Consistent>
1

> <s_lp_Variant>
AV-unprocessed.smi:1879-2

> <Gold.Version>
5.8.1

> <Gold.Id.Protein>
6NUR|6NUR_protein|mol2

> <Gold.PLP.Fitness>
55.1154

> <Gold.PLP.PLP>
-47.3919

> <Gold.PLP.part.hbond>
-4.5536

> <Gold.PLP.part.metal>
0.0000

> <Gold.PLP.part.buried>
-5.2680

> <Gold.PLP.part.nonpolar>
-38.2081

> <Gold.PLP.part.repulsive>
0.5670

> <Gold.PLP.ligand.clash>
0.0000

> <Gold.PLP.ligand.torsion>
0.6989

> <Gold.PLP.Chemscore.Hbond>
1.9280

> <Gold.PLP.Chemscore.CHOScore>
1.0000

> <Gold.PLP.Chemscore.Metal>
0.0000

> <Gold.Chemscore.Hbonds>
donor molecule, donor type, donor heavy atom, donor atom, acceptor molecule, acceptor atom, score
      L1  H     3    23       P1  8028  1.00
      L1  H    15    35       P1  8028  0.71
      L1  C     7    26       P1  7948  1.00

> <Gold.PLP.Chemscore.Internal.Correction>
0.3373

> <Gold.Rescore>
     Score         DG    S(hbond)    S(metal)    S(lipo)     H(rot)  DE(clash)    DE(int)     intcor
     13.06     -21.41       1.89        0.00     118.85       1.67       4.31       4.05       ----

> <Gold.Chemscore.Fitness>
13.0561

> <Gold.Chemscore.DG>
-21.4102

> <Gold.Chemscore.ZeroCoef>
-5.4800

> <Gold.Chemscore.Hbond>
1.8879

> <Gold.Chemscore.Metal>
0.0000

> <Gold.Chemscore.Lipo>
118.8524

> <Gold.Chemscore.Internal_Hbond>
0.0000

> <Gold.Chemscore.DEClash>
4.3079

> <Gold.Chemscore.DEInternal>
4.0461

> <Gold.Chemscore.Rot>
1.6723

> <Gold.Chemscore.Internal.Correction>
   9.000000E+99

> <Gold.Chemscore.Hbonds>
donor molecule, donor type, donor heavy atom, donor atom, acceptor molecule, acceptor atom, score
      L1  H     3    23       P1  8028  1.00
      L1  H    15    35       P1  8028  0.66

> <Gold.Chemscore.Hbond.Weighted>
-6.3057

> <Gold.Chemscore.Metal.Weighted>
-0.0000

> <Gold.Chemscore.Lipo.Weighted>
-13.9057

> <Gold.Chemscore.Internal_Hbond.Weighted>
0.0000

> <Gold.Chemscore.DEClash.Weighted>
4.3079

> <Gold.Chemscore.DEInternal.Weighted>
4.0461

> <Gold.Chemscore.Rot.Weighted>
4.2812

> <Gold.Chemscore.Internal.Correction.Weighted>
   9.000000E+99

> <Gold.Protein.RotatedTorsions>
[ 6907 6896 6895 6894 ] final  -20.67 input  -60.11 | X-H torsion
[ 7974 7965 7964 7962 ] final  108.29 input  175.53 | X-H torsion
[ 8008 7997 7996 7995 ] final   98.41 input   59.86 | X-H torsion
[ 10167 10162 10161 10158 ] final  -43.74 input  -65.29 | X-H torsion
[ 10718 10713 10712 10709 ] final  112.64 input   66.30 | X-H torsion
[ 10763 10752 10751 10750 ] final  -91.68 input  -60.55 | X-H torsion
[ 11005 11000 10999 10996 ] final -136.45 input  -57.11 | X-H torsion

> <Gold.Protein.ActiveResidues>
 VAL166  LYS551  ARG553  GLY616  TRP617  ASP618  TYR619  PRO620  LYS621  CYS622 
 ASP623  PHE694  ASN695  SER759  ASP760  ASP761  ALA762  ILE779  LEU786  VAL792 
 PHE793  MET794  SER795  GLU796  ALA797  LYS798  CYS799  TRP800  GLU811  SER814 

> <Gold.Protein.RotatedAtoms>
  151.2446  135.0601  159.9038 H   0  0  0  0  0  0  0  0  0  0  0  0  # atno 6907 bound_to 6896
  152.5388  134.0397  159.8072 H   0  0  0  0  0  0  0  0  0  0  0  0  # atno 6908 bound_to 6896
  151.0596  133.5506  159.2667 H   0  0  0  0  0  0  0  0  0  0  0  0  # atno 6909 bound_to 6896
  145.2826  139.2627  143.3907 H   0  0  0  0  0  0  0  0  0  0  0  0  # atno 7974 bound_to 7965
  156.1002  140.3244  155.7931 H   0  0  0  0  0  0  0  0  0  0  0  0  # atno 8008 bound_to 7997
  155.4850  140.0557  157.2979 H   0  0  0  0  0  0  0  0  0  0  0  0  # atno 8009 bound_to 7997
  154.4692  140.2003  156.0054 H   0  0  0  0  0  0  0  0  0  0  0  0  # atno 8010 bound_to 7997
  140.6923  143.2967  151.3395 H   0  0  0  0  0  0  0  0  0  0  0  0  # atno 10167 bound_to 10162
  157.6381  131.0971  150.6925 H   0  0  0  0  0  0  0  0  0  0  0  0  # atno 10718 bound_to 10713
  154.6785  135.5259  153.8231 H   0  0  0  0  0  0  0  0  0  0  0  0  # atno 10763 bound_to 10752
  153.0548  135.6546  154.0613 H   0  0  0  0  0  0  0  0  0  0  0  0  # atno 10764 bound_to 10752
  154.0503  135.2970  155.3321 H   0  0  0  0  0  0  0  0  0  0  0  0  # atno 10765 bound_to 10752
  140.8804  134.1939  157.4594 H   0  0  0  0  0  0  0  0  0  0  0  0  # atno 11005 bound_to 11000
  146.3211  140.3297  142.8639 LP  0  0  0  0  0  0  0  0  0  0  0  0  # atno 17320 bound_to 7965
  144.9240  140.7900  143.5730 LP  0  0  0  0  0  0  0  0  0  0  0  0  # atno 17321 bound_to 7965
  139.6339  144.0669  152.2499 LP  0  0  0  0  0  0  0  0  0  0  0  0  # atno 17342 bound_to 10162
  140.0152  144.6194  150.7613 LP  0  0  0  0  0  0  0  0  0  0  0  0  # atno 17343 bound_to 10162
  156.7253  130.4693  149.5512 LP  0  0  0  0  0  0  0  0  0  0  0  0  # atno 17370 bound_to 10713
  156.1638  130.6391  151.0752 LP  0  0  0  0  0  0  0  0  0  0  0  0  # atno 17371 bound_to 10713
  139.8719  134.9815  156.5117 LP  0  0  0  0  0  0  0  0  0  0  0  0  # atno 17394 bound_to 11000
  140.8468  133.8163  155.9129 LP  0  0  0  0  0  0  0  0  0  0  0  0  # atno 17395 bound_to 11000

$$$$
