AV-unprocessed.smi:2459|AV-procd|sdf|9712|dock5
  -GOLD-   2272013353D 1   1.00000     0.00000
 Structure written by MMmdl.
 47 48  0  0  0  0  0  0  0  0  2 V2000
  149.1085  131.9993  153.8211 C   0  0  0  0  0  0  0  0  0  0  0  0
  149.2595  133.0540  154.7690 O   0  0  0  0  0  0  0  0  0  0  0  0
  149.9741  132.7877  155.9826 C   0  0  0  0  0  0  0  0  0  0  0  0
  149.0532  131.8386  156.7740 C   0  0  0  0  0  0  0  0  0  0  0  0
  151.2987  132.0499  155.6641 C   0  0  0  0  0  0  0  0  0  0  0  0
  150.1665  134.1025  156.7819 C   0  0  0  0  0  0  0  0  0  0  0  0
  149.7345  134.1689  157.9326 O   0  0  0  0  0  0  0  0  0  0  0  0
  150.8002  135.1170  156.1608 N   0  0  0  0  0  0  0  0  0  0  0  0
  151.0883  136.4253  156.6364 C   0  0  0  0  0  0  0  0  0  0  0  0
  150.8442  136.8635  157.9595 C   0  0  0  0  0  0  0  0  0  0  0  0
  151.1307  138.1348  158.3112 N   0  3  0  0  0  0  0  0  0  0  0  0
  151.6481  139.0552  157.4615 C   0  0  0  0  0  0  0  0  0  0  0  0
  151.8820  140.3591  157.9374 N   0  0  0  0  0  0  0  0  0  0  0  0
  150.6746  141.1813  157.9859 C   0  0  0  0  0  0  0  0  0  0  0  0
  151.0283  142.6640  158.1933 C   0  0  0  0  0  0  0  0  0  0  0  0
  151.9178  142.8498  159.4329 C   0  0  0  0  0  0  0  0  0  0  0  0
  153.1568  141.9451  159.3384 C   0  0  0  0  0  0  0  0  0  0  0  0
  152.7504  140.4794  159.1085 C   0  0  0  0  0  0  0  0  0  0  0  0
  151.9116  138.6726  156.1206 C   0  0  0  0  0  0  0  0  0  0  0  0
  152.5107  139.6389  155.1122 C   0  0  0  0  0  0  0  0  0  0  0  0
  151.6213  137.3511  155.7154 C   0  0  0  0  0  0  0  0  0  0  0  0
  148.5442  132.3728  152.9667 H   0  0  0  0  0  0  0  0  0  0  0  0
  148.5511  131.1578  154.2310 H   0  0  0  0  0  0  0  0  0  0  0  0
  150.0634  131.6366  153.4404 H   0  0  0  0  0  0  0  0  0  0  0  0
  149.4853  131.5764  157.7406 H   0  0  0  0  0  0  0  0  0  0  0  0
  148.8858  130.9095  156.2279 H   0  0  0  0  0  0  0  0  0  0  0  0
  148.0734  132.2815  156.9580 H   0  0  0  0  0  0  0  0  0  0  0  0
  151.7941  131.7155  156.5767 H   0  0  0  0  0  0  0  0  0  0  0  0
  152.0088  132.6711  155.1183 H   0  0  0  0  0  0  0  0  0  0  0  0
  151.1125  131.1643  155.0558 H   0  0  0  0  0  0  0  0  0  0  0  0
  151.1534  134.9059  155.2387 H   0  0  0  0  0  0  0  0  0  0  0  0
  150.4186  136.2639  158.7496 H   0  0  0  0  0  0  0  0  0  0  0  0
  150.0913  141.0686  157.0724 H   0  0  0  0  0  0  0  0  0  0  0  0
  150.0440  140.8324  158.8049 H   0  0  0  0  0  0  0  0  0  0  0  0
  151.5473  143.0419  157.3113 H   0  0  0  0  0  0  0  0  0  0  0  0
  150.1176  143.2550  158.2939 H   0  0  0  0  0  0  0  0  0  0  0  0
  152.2180  143.8937  159.5291 H   0  0  0  0  0  0  0  0  0  0  0  0
  151.3511  142.6033  160.3317 H   0  0  0  0  0  0  0  0  0  0  0  0
  153.7924  142.2809  158.5178 H   0  0  0  0  0  0  0  0  0  0  0  0
  153.7533  142.0299  160.2470 H   0  0  0  0  0  0  0  0  0  0  0  0
  152.2294  140.1008  159.9891 H   0  0  0  0  0  0  0  0  0  0  0  0
  153.6424  139.8665  158.9724 H   0  0  0  0  0  0  0  0  0  0  0  0
  153.0334  139.0999  154.3215 H   0  0  0  0  0  0  0  0  0  0  0  0
  153.2303  140.3097  155.5822 H   0  0  0  0  0  0  0  0  0  0  0  0
  151.7278  140.2392  154.6492 H   0  0  0  0  0  0  0  0  0  0  0  0
  151.8130  137.0461  154.6965 H   0  0  0  0  0  0  0  0  0  0  0  0
  150.9365  138.4206  159.2711 H   0  0  0  0  0  0  0  0  0  0  0  0
  1  2  1  0  0  0  0
  1 22  1  0  0  0  0
  1 23  1  0  0  0  0
  1 24  1  0  0  0  0
  2  3  1  0  0  0  0
  3  4  1  0  0  0  0
  3  5  1  0  0  0  0
  3  6  1  0  0  0  0
  4 25  1  0  0  0  0
  4 26  1  0  0  0  0
  4 27  1  0  0  0  0
  5 28  1  0  0  0  0
  5 29  1  0  0  0  0
  5 30  1  0  0  0  0
  6  7  2  0  0  0  0
  6  8  1  0  0  0  0
  8  9  1  0  0  0  0
  8 31  1  0  0  0  0
  9 21  1  0  0  0  0
  9 10  2  0  0  0  0
 10 11  1  0  0  0  0
 10 32  1  0  0  0  0
 11 12  2  0  0  0  0
 11 47  1  0  0  0  0
 12 13  1  0  0  0  0
 12 19  1  0  0  0  0
 13 18  1  0  0  0  0
 13 14  1  0  0  0  0
 14 15  1  0  0  0  0
 14 33  1  0  0  0  0
 14 34  1  0  0  0  0
 15 16  1  0  0  0  0
 15 35  1  0  0  0  0
 15 36  1  0  0  0  0
 16 17  1  0  0  0  0
 16 37  1  0  0  0  0
 16 38  1  0  0  0  0
 17 18  1  0  0  0  0
 17 39  1  0  0  0  0
 17 40  1  0  0  0  0
 18 41  1  0  0  0  0
 18 42  1  0  0  0  0
 19 20  1  0  0  0  0
 19 21  2  0  0  0  0
 20 43  1  0  0  0  0
 20 44  1  0  0  0  0
 20 45  1  0  0  0  0
 21 46  1  0  0  0  0
M  CHG  1  11   1
M  END
> <s_m_source_file>
AV-unprocessed.smi

> <i_m_source_file_index>
2459

> <i_lp_mmshare_version>
43012

> <i_f3d_flags>
0

> <s_epik_input>
W0NIM11PQyhbQ0gzXSkoW0NIM10pQyg9TylbTkhdYzFbY0hdbmMoYyhbQ0gzXSlbY0hdMSlOMltDSDJdW0NIMl1bQ0gyXVtDSDJdW0NIMl0y

> <s_epik_cmdline>
J2VwaWtfcHl0aG9uJywgJy1waCcsICc3LjAnLCAnLXRuJywgJzgnLCAnLW1hJywgJzIwMCcsICctbWV0YWxfYmluZGluZycsICctaW1hZScsICc8aW5maWxlLm1hZT4nLCAnLW9tYWUnLCAnPG91dGZpbGUubWFlPic=

> <r_lp_tautomer_probability>
0.999994

> <r_epik_Ionization_Penalty>
1.22605

> <r_epik_Ionization_Penalty_Charging>
1.22604

> <r_epik_Ionization_Penalty_Neutral>
3.07462e-06

> <r_epik_State_Penalty>
0.10642

> <r_epik_Charging_Adjusted_Penalty>
1.33246

> <i_epik_Tot_Q>
1

> <i_epik_Tot_abs_Q>
1

> <r_epik_Metal_State_Penalty>
0.12082

> <b_epik_Metal_Only>
0

> <s_lp_Force_Field>
OPLS_2005

> <r_lp_Energy>
38.0416

> <b_lp_Chiralities_Consistent>
1

> <s_lp_Variant>
AV-unprocessed.smi:2459-1

> <Gold.Version>
5.8.1

> <Gold.Id.Protein>
6NUR|6NUR_protein|mol2

> <Gold.PLP.Fitness>
30.5615

> <Gold.PLP.PLP>
-28.2678

> <Gold.PLP.part.hbond>
-1.0000

> <Gold.PLP.part.metal>
0.0000

> <Gold.PLP.part.buried>
-2.4525

> <Gold.PLP.part.nonpolar>
-24.8149

> <Gold.PLP.part.repulsive>
0.2627

> <Gold.PLP.ligand.clash>
0.0000

> <Gold.PLP.ligand.torsion>
0.5051

> <Gold.PLP.Chemscore.Hbond>
1.0000

> <Gold.PLP.Chemscore.CHOScore>
0.0000

> <Gold.PLP.Chemscore.Metal>
0.0000

> <Gold.Chemscore.Hbonds>
donor molecule, donor type, donor heavy atom, donor atom, acceptor molecule, acceptor atom, score
      P1  H  6896  6908       L1     7  1.00

> <Gold.PLP.Chemscore.Internal.Correction>
0.3039

> <Gold.Rescore>
     Score         DG    S(hbond)    S(metal)    S(lipo)     H(rot)  DE(clash)    DE(int)     intcor
     13.86     -15.49       0.98        0.00      87.04       1.34       0.09       1.54       ----

> <Gold.Chemscore.Fitness>
13.8602

> <Gold.Chemscore.DG>
-15.4930

> <Gold.Chemscore.ZeroCoef>
-5.4800

> <Gold.Chemscore.Hbond>
0.9774

> <Gold.Chemscore.Metal>
0.0000

> <Gold.Chemscore.Lipo>
87.0352

> <Gold.Chemscore.Internal_Hbond>
0.0000

> <Gold.Chemscore.DEClash>
0.0932

> <Gold.Chemscore.DEInternal>
1.5397

> <Gold.Chemscore.Rot>
1.3416

> <Gold.Chemscore.Internal.Correction>
   9.000000E+99

> <Gold.Chemscore.Hbonds>
donor molecule, donor type, donor heavy atom, donor atom, acceptor molecule, acceptor atom, score
      P1  H  6896  6908       L1     7  0.93

> <Gold.Chemscore.Hbond.Weighted>
-3.2645

> <Gold.Chemscore.Metal.Weighted>
-0.0000

> <Gold.Chemscore.Lipo.Weighted>
-10.1831

> <Gold.Chemscore.Internal_Hbond.Weighted>
0.0000

> <Gold.Chemscore.DEClash.Weighted>
0.0932

> <Gold.Chemscore.DEInternal.Weighted>
1.5397

> <Gold.Chemscore.Rot.Weighted>
3.4346

> <Gold.Chemscore.Internal.Correction.Weighted>
   9.000000E+99

> <Gold.Protein.RotatedTorsions>
[ 6907 6896 6895 6894 ] final  121.15 input  -60.11 | X-H torsion
[ 7974 7965 7964 7962 ] final  101.71 input  175.53 | X-H torsion
[ 8008 7997 7996 7995 ] final  123.19 input   59.86 | X-H torsion
[ 10167 10162 10161 10158 ] final -134.96 input  -65.29 | X-H torsion
[ 10718 10713 10712 10709 ] final   62.97 input   66.30 | X-H torsion
[ 10763 10752 10751 10750 ] final -108.24 input  -60.55 | X-H torsion
[ 11005 11000 10999 10996 ] final    5.79 input  -57.11 | X-H torsion

> <Gold.Protein.ActiveResidues>
 VAL166  LYS551  ARG553  GLY616  TRP617  ASP618  TYR619  PRO620  LYS621  CYS622 
 ASP623  PHE694  ASN695  SER759  ASP760  ASP761  ALA762  ILE779  LEU786  VAL792 
 PHE793  MET794  SER795  GLU796  ALA797  LYS798  CYS799  TRP800  GLU811  SER814 

> <Gold.Protein.RotatedAtoms>
  152.4344  133.7334  159.6599 H   0  0  0  0  0  0  0  0  0  0  0  0  # atno 6907 bound_to 6896
  150.8226  133.8216  159.3138 H   0  0  0  0  0  0  0  0  0  0  0  0  # atno 6908 bound_to 6896
  151.5894  135.1056  160.0087 H   0  0  0  0  0  0  0  0  0  0  0  0  # atno 6909 bound_to 6896
  145.3688  139.2402  143.3466 H   0  0  0  0  0  0  0  0  0  0  0  0  # atno 7974 bound_to 7965
  156.2756  140.2768  156.1587 H   0  0  0  0  0  0  0  0  0  0  0  0  # atno 8008 bound_to 7997
  155.0776  140.0387  157.2646 H   0  0  0  0  0  0  0  0  0  0  0  0  # atno 8009 bound_to 7997
  154.6990  140.2645  155.6744 H   0  0  0  0  0  0  0  0  0  0  0  0  # atno 8010 bound_to 7997
  139.8828  143.6818  152.2624 H   0  0  0  0  0  0  0  0  0  0  0  0  # atno 10167 bound_to 10162
  157.5939  130.9080  149.9656 H   0  0  0  0  0  0  0  0  0  0  0  0  # atno 10718 bound_to 10713
  154.8123  135.4645  154.0550 H   0  0  0  0  0  0  0  0  0  0  0  0  # atno 10763 bound_to 10752
  153.1971  135.6863  153.8285 H   0  0  0  0  0  0  0  0  0  0  0  0  # atno 10764 bound_to 10752
  153.7783  135.3260  155.3339 H   0  0  0  0  0  0  0  0  0  0  0  0  # atno 10765 bound_to 10752
  140.5668  134.0140  155.7993 H   0  0  0  0  0  0  0  0  0  0  0  0  # atno 11005 bound_to 11000
  146.2895  140.4335  142.8745 LP  0  0  0  0  0  0  0  0  0  0  0  0  # atno 17320 bound_to 7965
  144.8592  140.7114  143.6118 LP  0  0  0  0  0  0  0  0  0  0  0  0  # atno 17321 bound_to 7965
  139.7181  144.7608  151.1001 LP  0  0  0  0  0  0  0  0  0  0  0  0  # atno 17342 bound_to 10162
  140.7741  143.5243  150.9498 LP  0  0  0  0  0  0  0  0  0  0  0  0  # atno 17343 bound_to 10162
  156.0998  130.3656  150.0240 LP  0  0  0  0  0  0  0  0  0  0  0  0  # atno 17370 bound_to 10713
  156.8357  130.9408  151.3635 LP  0  0  0  0  0  0  0  0  0  0  0  0  # atno 17371 bound_to 10713
  141.1081  133.9661  157.2961 LP  0  0  0  0  0  0  0  0  0  0  0  0  # atno 17394 bound_to 11000
  139.9381  135.0194  156.8621 LP  0  0  0  0  0  0  0  0  0  0  0  0  # atno 17395 bound_to 11000

$$$$
