AV-unprocessed.smi:3316|AV-procd|sdf|12756|dock1
  -GOLD-   2272019 93D 1   1.00000     0.00000
 Structure written by MMmdl.
 41 43  0  0  0  0  0  0  0  0  2 V2000
  148.5664  140.9100  153.7078 C   0  0  0  0  0  0  0  0  0  0  0  0
  149.4786  140.8639  154.9436 C   0  0  1  0  0  0  0  0  0  0  0  0
  148.6781  141.0738  156.2440 C   0  0  0  0  0  0  0  0  0  0  0  0
  149.1733  142.2394  157.0049 N   0  3  0  0  0  0  0  0  0  0  0  0
  150.5401  142.0773  157.5377 C   0  0  0  0  0  0  0  0  0  0  0  0
  150.7503  142.9222  158.8164 C   0  0  1  0  0  0  0  0  0  0  0  0
  152.0842  142.6146  159.5739 C   0  0  0  0  0  0  0  0  0  0  0  0
  152.7785  143.9938  159.6436 C   0  0  2  0  0  0  0  0  0  0  0  0
  151.9397  144.8973  160.5217 C   0  0  0  0  0  0  0  0  0  0  0  0
  150.8172  145.1675  159.8539 C   0  0  0  0  0  0  0  0  0  0  0  0
  150.8961  144.4403  158.5273 C   0  0  1  0  0  0  0  0  0  0  0  0
  152.4035  144.5372  158.2621 C   0  0  0  0  0  0  0  0  0  0  0  0
  150.2972  139.5783  154.9769 C   0  0  0  0  0  0  0  0  0  0  0  0
  149.7143  138.3470  154.6091 C   0  0  0  0  0  0  0  0  0  0  0  0
  150.5120  137.1853  154.6442 C   0  0  0  0  0  0  0  0  0  0  0  0
  151.8117  137.1894  155.0091 N   0  0  0  0  0  0  0  0  0  0  0  0
  152.3650  138.3688  155.3625 C   0  0  0  0  0  0  0  0  0  0  0  0
  151.6554  139.5864  155.3631 C   0  0  0  0  0  0  0  0  0  0  0  0
  149.1469  140.8174  152.7894 H   0  0  0  0  0  0  0  0  0  0  0  0
  148.0214  141.8532  153.6569 H   0  0  0  0  0  0  0  0  0  0  0  0
  147.8319  140.1043  153.7193 H   0  0  0  0  0  0  0  0  0  0  0  0
  150.1766  141.6978  154.8524 H   0  0  0  0  0  0  0  0  0  0  0  0
  147.6243  141.2315  156.0106 H   0  0  0  0  0  0  0  0  0  0  0  0
  148.7326  140.1827  156.8707 H   0  0  0  0  0  0  0  0  0  0  0  0
  149.1655  143.0443  156.3941 H   0  0  0  0  0  0  0  0  0  0  0  0
  150.7185  141.0181  157.7240 H   0  0  0  0  0  0  0  0  0  0  0  0
  151.2501  142.3744  156.7647 H   0  0  0  0  0  0  0  0  0  0  0  0
  149.9063  142.7722  159.4933 H   0  0  0  0  0  0  0  0  0  0  0  0
  151.9044  142.2011  160.5673 H   0  0  0  0  0  0  0  0  0  0  0  0
  152.7145  141.9055  159.0367 H   0  0  0  0  0  0  0  0  0  0  0  0
  153.8442  143.9895  159.8739 H   0  0  0  0  0  0  0  0  0  0  0  0
  152.2137  145.2204  161.5153 H   0  0  0  0  0  0  0  0  0  0  0  0
  149.9753  145.7573  160.1855 H   0  0  0  0  0  0  0  0  0  0  0  0
  150.2528  144.8549  157.7506 H   0  0  0  0  0  0  0  0  0  0  0  0
  152.7429  145.5627  158.1013 H   0  0  0  0  0  0  0  0  0  0  0  0
  152.7518  143.9181  157.4333 H   0  0  0  0  0  0  0  0  0  0  0  0
  148.6790  138.2856  154.3072 H   0  0  0  0  0  0  0  0  0  0  0  0
  150.0952  136.2280  154.3686 H   0  0  0  0  0  0  0  0  0  0  0  0
  153.4054  138.3431  155.6509 H   0  0  0  0  0  0  0  0  0  0  0  0
  152.1488  140.5016  155.6556 H   0  0  0  0  0  0  0  0  0  0  0  0
  148.5437  142.4137  157.7752 H   0  0  0  0  0  0  0  0  0  0  0  0
  1  2  1  0  0  0  0
  1 19  1  0  0  0  0
  1 20  1  0  0  0  0
  1 21  1  0  0  0  0
  2  3  1  0  0  0  0
  2 13  1  0  0  0  0
  2 22  1  0  0  0  0
  3  4  1  0  0  0  0
  3 23  1  0  0  0  0
  3 24  1  0  0  0  0
  4  5  1  0  0  0  0
  4 25  1  0  0  0  0
  4 41  1  0  0  0  0
  5  6  1  0  0  0  0
  5 26  1  0  0  0  0
  5 27  1  0  0  0  0
  6 11  1  0  0  0  0
  6  7  1  0  0  0  0
  6 28  1  0  0  0  0
  7  8  1  0  0  0  0
  7 29  1  0  0  0  0
  7 30  1  0  0  0  0
  8 12  1  0  0  0  0
  8  9  1  0  0  0  0
  8 31  1  0  0  0  0
  9 10  2  0  0  0  0
  9 32  1  0  0  0  0
 10 11  1  0  0  0  0
 10 33  1  0  0  0  0
 11 12  1  0  0  0  0
 11 34  1  0  0  0  0
 12 35  1  0  0  0  0
 12 36  1  0  0  0  0
 13 18  1  0  0  0  0
 13 14  2  0  0  0  0
 14 15  1  0  0  0  0
 14 37  1  0  0  0  0
 15 16  2  0  0  0  0
 15 38  1  0  0  0  0
 16 17  1  0  0  0  0
 17 18  2  0  0  0  0
 17 39  1  0  0  0  0
 18 40  1  0  0  0  0
M  CHG  1   4   1
M  END
> <s_m_source_file>
AV-unprocessed.smi

> <i_m_source_file_index>
3316

> <i_lp_mmshare_version>
43012

> <i_f3d_flags>
0

> <s_epik_input>
W2NIXTFbY0hdbltjSF1bY0hdYzFbQ0BIXShbQ0gzXSlbQ0gyXVtOSF1bQ0gyXVtDQEhdKFtDSDJdW0NASF0yMylbQ0BIXShbQ0gyXTMpW0NIXT1bQ0hdMg==

> <s_epik_cmdline>
J2VwaWtfcHl0aG9uJywgJy1waCcsICc3LjAnLCAnLXRuJywgJzgnLCAnLW1hJywgJzIwMCcsICctbWV0YWxfYmluZGluZycsICctaW1hZScsICc8aW5maWxlLm1hZT4nLCAnLW9tYWUnLCAnPG91dGZpbGUubWFlPic=

> <r_lp_tautomer_probability>
1

> <r_epik_Ionization_Penalty>
0.00280406

> <r_epik_Ionization_Penalty_Charging>
0.000446589

> <r_epik_Ionization_Penalty_Neutral>
0.00235747

> <r_epik_State_Penalty>
-0

> <r_epik_Charging_Adjusted_Penalty>
0.000446589

> <i_epik_Tot_Q>
1

> <i_epik_Tot_abs_Q>
1

> <r_epik_Metal_State_Penalty>
-0

> <b_epik_Metal_Only>
0

> <s_lp_Force_Field>
OPLS_2005

> <r_lp_Energy>
68.8741

> <b_lp_Chiralities_Consistent>
1

> <s_lp_Variant>
AV-unprocessed.smi:3316-4

> <Gold.Version>
5.8.1

> <Gold.Id.Protein>
6NUR|6NUR_protein|mol2

> <Gold.PLP.Fitness>
53.4048

> <Gold.PLP.PLP>
-45.4361

> <Gold.PLP.part.hbond>
-2.0000

> <Gold.PLP.part.metal>
0.0000

> <Gold.PLP.part.buried>
1.2115

> <Gold.PLP.part.nonpolar>
-44.1838

> <Gold.PLP.part.repulsive>
0.1258

> <Gold.PLP.ligand.clash>
0.0000

> <Gold.PLP.ligand.torsion>
1.6069

> <Gold.PLP.Chemscore.Hbond>
2.9675

> <Gold.PLP.Chemscore.CHOScore>
0.7121

> <Gold.PLP.Chemscore.Metal>
0.0000

> <Gold.Chemscore.Hbonds>
donor molecule, donor type, donor heavy atom, donor atom, acceptor molecule, acceptor atom, score
      L1  H     4    25       P1  8028  2.00
      P1  H 10752 10763       L1    16  0.91
      L1  C    15    38       P1  7948  0.35

> <Gold.PLP.Chemscore.Internal.Correction>
0.1438

> <Gold.Rescore>
     Score         DG    S(hbond)    S(metal)    S(lipo)     H(rot)  DE(clash)    DE(int)     intcor
     22.40     -25.19       1.90        0.00     144.20       1.36       1.56       1.23       ----

> <Gold.Chemscore.Fitness>
22.3996

> <Gold.Chemscore.DG>
-25.1916

> <Gold.Chemscore.ZeroCoef>
-5.4800

> <Gold.Chemscore.Hbond>
1.8958

> <Gold.Chemscore.Metal>
0.0000

> <Gold.Chemscore.Lipo>
144.2025

> <Gold.Chemscore.Internal_Hbond>
0.0000

> <Gold.Chemscore.DEClash>
1.5643

> <Gold.Chemscore.DEInternal>
1.2277

> <Gold.Chemscore.Rot>
1.3640

> <Gold.Chemscore.Internal.Correction>
   9.000000E+99

> <Gold.Chemscore.Hbonds>
donor molecule, donor type, donor heavy atom, donor atom, acceptor molecule, acceptor atom, score
      L1  H     4    25       P1  8028  1.00
      P1  H 10752 10763       L1    16  0.79

> <Gold.Chemscore.Hbond.Weighted>
-6.3318

> <Gold.Chemscore.Metal.Weighted>
-0.0000

> <Gold.Chemscore.Lipo.Weighted>
-16.8717

> <Gold.Chemscore.Internal_Hbond.Weighted>
0.0000

> <Gold.Chemscore.DEClash.Weighted>
1.5643

> <Gold.Chemscore.DEInternal.Weighted>
1.2277

> <Gold.Chemscore.Rot.Weighted>
3.4919

> <Gold.Chemscore.Internal.Correction.Weighted>
   9.000000E+99

> <Gold.Protein.RotatedTorsions>
[ 6907 6896 6895 6894 ] final  -21.00 input  -60.11 | X-H torsion
[ 7974 7965 7964 7962 ] final   66.95 input  175.53 | X-H torsion
[ 8008 7997 7996 7995 ] final -152.25 input   59.86 | X-H torsion
[ 10167 10162 10161 10158 ] final   66.97 input  -65.29 | X-H torsion
[ 10718 10713 10712 10709 ] final   -6.14 input   66.30 | X-H torsion
[ 10763 10752 10751 10750 ] final   42.94 input  -60.55 | X-H torsion
[ 11005 11000 10999 10996 ] final   -2.37 input  -57.11 | X-H torsion

> <Gold.Protein.ActiveResidues>
 VAL166  LYS551  ARG553  GLY616  TRP617  ASP618  TYR619  PRO620  LYS621  CYS622 
 ASP623  PHE694  ASN695  SER759  ASP760  ASP761  ALA762  ILE779  LEU786  VAL792 
 PHE793  MET794  SER795  GLU796  ALA797  LYS798  CYS799  TRP800  GLU811  SER814 

> <Gold.Protein.RotatedAtoms>
  151.2398  135.0585  159.9020 H   0  0  0  0  0  0  0  0  0  0  0  0  # atno 6907 bound_to 6896
  152.5394  134.0446  159.8093 H   0  0  0  0  0  0  0  0  0  0  0  0  # atno 6908 bound_to 6896
  151.0638  133.5473  159.2663 H   0  0  0  0  0  0  0  0  0  0  0  0  # atno 6909 bound_to 6896
  145.8205  139.3082  143.1046 H   0  0  0  0  0  0  0  0  0  0  0  0  # atno 7974 bound_to 7965
  155.6522  140.0713  157.2583 H   0  0  0  0  0  0  0  0  0  0  0  0  # atno 8008 bound_to 7997
  154.4160  140.1731  156.1737 H   0  0  0  0  0  0  0  0  0  0  0  0  # atno 8009 bound_to 7997
  155.9767  140.3357  155.6628 H   0  0  0  0  0  0  0  0  0  0  0  0  # atno 8010 bound_to 7997
  140.0946  144.4957  150.7076 H   0  0  0  0  0  0  0  0  0  0  0  0  # atno 10167 bound_to 10162
  156.7363  130.5195  149.5834 H   0  0  0  0  0  0  0  0  0  0  0  0  # atno 10718 bound_to 10713
  152.9871  135.6116  154.3031 H   0  0  0  0  0  0  0  0  0  0  0  0  # atno 10763 bound_to 10752
  154.2750  135.2778  155.2723 H   0  0  0  0  0  0  0  0  0  0  0  0  # atno 10764 bound_to 10752
  154.5088  135.5846  153.6645 H   0  0  0  0  0  0  0  0  0  0  0  0  # atno 10765 bound_to 10752
  140.6576  133.9349  155.8416 H   0  0  0  0  0  0  0  0  0  0  0  0  # atno 11005 bound_to 11000
  145.9680  140.8783  143.0177 LP  0  0  0  0  0  0  0  0  0  0  0  0  # atno 17320 bound_to 7965
  144.6748  140.1906  143.7397 LP  0  0  0  0  0  0  0  0  0  0  0  0  # atno 17321 bound_to 7965
  140.7010  143.2435  151.4864 LP  0  0  0  0  0  0  0  0  0  0  0  0  # atno 17342 bound_to 10162
  139.5705  144.1940  152.1829 LP  0  0  0  0  0  0  0  0  0  0  0  0  # atno 17343 bound_to 10162
  156.1495  130.6300  151.0576 LP  0  0  0  0  0  0  0  0  0  0  0  0  # atno 17370 bound_to 10713
  157.6838  131.0831  150.7299 LP  0  0  0  0  0  0  0  0  0  0  0  0  # atno 17371 bound_to 10713
  141.0490  134.0512  157.3808 LP  0  0  0  0  0  0  0  0  0  0  0  0  # atno 17394 bound_to 11000
  139.9024  135.0169  156.7331 LP  0  0  0  0  0  0  0  0  0  0  0  0  # atno 17395 bound_to 11000

$$$$
