AV-unprocessed.smi:3289|AV-procd|sdf|12607|dock3
  -GOLD-   2272018533D 1   1.00000     0.00000
 Structure written by MMmdl.
 40 41  0  0  0  0  0  0  0  0  2 V2000
  146.7562  138.9092  151.6875 C   0  0  0  0  0  0  0  0  0  0  0  0
  147.3425  139.0326  153.1024 C   0  0  0  0  0  0  0  0  0  0  0  0
  146.8327  137.9123  154.0210 C   0  0  0  0  0  0  0  0  0  0  0  0
  147.0803  140.3887  153.6995 C   0  0  0  0  0  0  0  0  0  0  0  0
  145.8737  140.9609  153.8008 N   0  3  0  0  0  0  0  0  0  0  0  0
  145.9663  142.1747  154.4232 C   0  0  0  0  0  0  0  0  0  0  0  0
  147.2890  142.3507  154.7298 C   0  0  0  0  0  0  0  0  0  0  0  0
  147.9522  141.2357  154.2815 N   0  0  0  0  0  0  0  0  0  0  0  0
  149.3970  140.9886  154.4127 C   0  0  0  0  0  0  0  0  0  0  0  0
  149.8508  140.9930  155.8752 C   0  0  0  0  0  0  0  0  0  0  0  0
  150.1241  139.9344  156.4416 O   0  0  0  0  0  0  0  0  0  0  0  0
  149.9434  142.1937  156.4663 N   0  0  0  0  0  0  0  0  0  0  0  0
  150.3935  142.4234  157.8347 C   0  0  0  0  0  0  0  0  0  0  0  0
  151.6578  143.3011  157.8825 C   0  0  2  0  0  0  0  0  0  0  0  0
  152.5184  143.0357  159.1256 C   0  0  0  0  0  0  0  0  0  0  0  0
  152.1717  144.1867  160.0446 C   0  0  0  0  0  0  0  0  0  0  0  0
  151.9441  145.3095  159.0449 C   0  0  0  0  0  0  0  0  0  0  0  0
  151.2742  144.6750  157.9652 O   0  0  0  0  0  0  0  0  0  0  0  0
  147.1581  139.6790  151.0277 H   0  0  0  0  0  0  0  0  0  0  0  0
  145.6701  139.0063  151.6919 H   0  0  0  0  0  0  0  0  0  0  0  0
  146.9980  137.9413  151.2473 H   0  0  0  0  0  0  0  0  0  0  0  0
  148.4228  138.9303  153.0142 H   0  0  0  0  0  0  0  0  0  0  0  0
  147.2948  137.9667  155.0069 H   0  0  0  0  0  0  0  0  0  0  0  0
  147.0623  136.9303  153.6063 H   0  0  0  0  0  0  0  0  0  0  0  0
  145.7524  137.9704  154.1576 H   0  0  0  0  0  0  0  0  0  0  0  0
  145.1060  142.8032  154.6011 H   0  0  0  0  0  0  0  0  0  0  0  0
  147.7951  143.1646  155.2290 H   0  0  0  0  0  0  0  0  0  0  0  0
  149.6374  140.0471  153.9172 H   0  0  0  0  0  0  0  0  0  0  0  0
  149.9277  141.7749  153.8746 H   0  0  0  0  0  0  0  0  0  0  0  0
  149.6921  143.0104  155.9283 H   0  0  0  0  0  0  0  0  0  0  0  0
  149.5960  142.8603  158.4383 H   0  0  0  0  0  0  0  0  0  0  0  0
  150.6090  141.4483  158.2720 H   0  0  0  0  0  0  0  0  0  0  0  0
  152.2544  143.1432  156.9831 H   0  0  0  0  0  0  0  0  0  0  0  0
  152.3390  142.0615  159.5815 H   0  0  0  0  0  0  0  0  0  0  0  0
  153.5750  143.0876  158.8594 H   0  0  0  0  0  0  0  0  0  0  0  0
  151.2500  143.9731  160.5874 H   0  0  0  0  0  0  0  0  0  0  0  0
  152.9555  144.4105  160.7687 H   0  0  0  0  0  0  0  0  0  0  0  0
  151.3553  146.1297  159.4558 H   0  0  0  0  0  0  0  0  0  0  0  0
  152.8954  145.7105  158.6923 H   0  0  0  0  0  0  0  0  0  0  0  0
  145.0135  140.5473  153.4639 H   0  0  0  0  0  0  0  0  0  0  0  0
  1  2  1  0  0  0  0
  1 19  1  0  0  0  0
  1 20  1  0  0  0  0
  1 21  1  0  0  0  0
  2  3  1  0  0  0  0
  2  4  1  0  0  0  0
  2 22  1  0  0  0  0
  3 23  1  0  0  0  0
  3 24  1  0  0  0  0
  3 25  1  0  0  0  0
  4  8  1  0  0  0  0
  4  5  2  0  0  0  0
  5  6  1  0  0  0  0
  5 40  1  0  0  0  0
  6  7  2  0  0  0  0
  6 26  1  0  0  0  0
  7  8  1  0  0  0  0
  7 27  1  0  0  0  0
  8  9  1  0  0  0  0
  9 10  1  0  0  0  0
  9 28  1  0  0  0  0
  9 29  1  0  0  0  0
 10 11  2  0  0  0  0
 10 12  1  0  0  0  0
 12 13  1  0  0  0  0
 12 30  1  0  0  0  0
 13 14  1  0  0  0  0
 13 31  1  0  0  0  0
 13 32  1  0  0  0  0
 14 18  1  0  0  0  0
 14 15  1  0  0  0  0
 14 33  1  0  0  0  0
 15 16  1  0  0  0  0
 15 34  1  0  0  0  0
 15 35  1  0  0  0  0
 16 17  1  0  0  0  0
 16 36  1  0  0  0  0
 16 37  1  0  0  0  0
 17 18  1  0  0  0  0
 17 38  1  0  0  0  0
 17 39  1  0  0  0  0
M  CHG  1   5   1
M  END
> <s_m_source_file>
AV-unprocessed.smi

> <i_m_source_file_index>
3289

> <i_lp_mmshare_version>
43012

> <i_f3d_flags>
0

> <s_epik_input>
W0NIM11bQ0hdKFtDSDNdKWMxbltjSF1bY0hdbjFbQ0gyXUMoPU8pW05IXVtDSDJdW0NAQEhdMltDSDJdW0NIMl1bQ0gyXU8y

> <s_epik_cmdline>
J2VwaWtfcHl0aG9uJywgJy1waCcsICc3LjAnLCAnLXRuJywgJzgnLCAnLW1hJywgJzIwMCcsICctbWV0YWxfYmluZGluZycsICctaW1hZScsICc8aW5maWxlLm1hZT4nLCAnLW9tYWUnLCAnPG91dGZpbGUubWFlPic=

> <r_lp_tautomer_probability>
1

> <r_epik_Ionization_Penalty>
0.274547

> <r_epik_Ionization_Penalty_Charging>
0

> <r_epik_Ionization_Penalty_Neutral>
0.274547

> <r_epik_State_Penalty>
0.266843

> <r_epik_Charging_Adjusted_Penalty>
0.266843

> <i_epik_Tot_Q>
1

> <i_epik_Tot_abs_Q>
1

> <r_epik_Metal_State_Penalty>
0.55046

> <b_epik_Metal_Only>
0

> <s_lp_Force_Field>
OPLS_2005

> <r_lp_Energy>
23.0035

> <b_lp_Chiralities_Consistent>
1

> <s_lp_Variant>
AV-unprocessed.smi:3289-1

> <Gold.Version>
5.8.1

> <Gold.Id.Protein>
6NUR|6NUR_protein|mol2

> <Gold.PLP.Fitness>
49.7255

> <Gold.PLP.PLP>
-39.7004

> <Gold.PLP.part.hbond>
-2.0000

> <Gold.PLP.part.metal>
0.0000

> <Gold.PLP.part.buried>
-0.3234

> <Gold.PLP.part.nonpolar>
-38.0860

> <Gold.PLP.part.repulsive>
0.2259

> <Gold.PLP.ligand.clash>
0.0000

> <Gold.PLP.ligand.torsion>
0.7499

> <Gold.PLP.Chemscore.Hbond>
3.0000

> <Gold.PLP.Chemscore.CHOScore>
0.8113

> <Gold.PLP.Chemscore.Metal>
0.0000

> <Gold.Chemscore.Hbonds>
donor molecule, donor type, donor heavy atom, donor atom, acceptor molecule, acceptor atom, score
      L1  H     5    40       P1 10175  2.00
      L1  H    12    30       P1  8028  1.00
      L1  C     7    27       P1  8028  0.71

> <Gold.PLP.Chemscore.Internal.Correction>
0.0911

> <Gold.Rescore>
     Score         DG    S(hbond)    S(metal)    S(lipo)     H(rot)  DE(clash)    DE(int)     intcor
     17.35     -18.17       1.85        0.00      94.68       1.78       0.13       0.69       ----

> <Gold.Chemscore.Fitness>
17.3453

> <Gold.Chemscore.DG>
-18.1668

> <Gold.Chemscore.ZeroCoef>
-5.4800

> <Gold.Chemscore.Hbond>
1.8489

> <Gold.Chemscore.Metal>
0.0000

> <Gold.Chemscore.Lipo>
94.6793

> <Gold.Chemscore.Internal_Hbond>
0.0000

> <Gold.Chemscore.DEClash>
0.1342

> <Gold.Chemscore.DEInternal>
0.6873

> <Gold.Chemscore.Rot>
1.7835

> <Gold.Chemscore.Internal.Correction>
   9.000000E+99

> <Gold.Chemscore.Hbonds>
donor molecule, donor type, donor heavy atom, donor atom, acceptor molecule, acceptor atom, score
      L1  H     5    40       P1 10175  0.95
      L1  H    12    30       P1  8028  0.98

> <Gold.Chemscore.Hbond.Weighted>
-6.1752

> <Gold.Chemscore.Metal.Weighted>
-0.0000

> <Gold.Chemscore.Lipo.Weighted>
-11.0775

> <Gold.Chemscore.Internal_Hbond.Weighted>
0.0000

> <Gold.Chemscore.DEClash.Weighted>
0.1342

> <Gold.Chemscore.DEInternal.Weighted>
0.6873

> <Gold.Chemscore.Rot.Weighted>
4.5659

> <Gold.Chemscore.Internal.Correction.Weighted>
   9.000000E+99

> <Gold.Protein.RotatedTorsions>
[ 6907 6896 6895 6894 ] final  -93.68 input  -60.11 | X-H torsion
[ 7974 7965 7964 7962 ] final -113.14 input  175.53 | X-H torsion
[ 8008 7997 7996 7995 ] final -133.00 input   59.86 | X-H torsion
[ 10167 10162 10161 10158 ] final  -21.05 input  -65.29 | X-H torsion
[ 10718 10713 10712 10709 ] final  158.57 input   66.30 | X-H torsion
[ 10763 10752 10751 10750 ] final -123.58 input  -60.55 | X-H torsion
[ 11005 11000 10999 10996 ] final   38.05 input  -57.11 | X-H torsion

> <Gold.Protein.ActiveResidues>
 VAL166  LYS551  ARG553  GLY616  TRP617  ASP618  TYR619  PRO620  LYS621  CYS622 
 ASP623  PHE694  ASN695  SER759  ASP760  ASP761  ALA762  ILE779  LEU786  VAL792 
 PHE793  MET794  SER795  GLU796  ALA797  LYS798  CYS799  TRP800  GLU811  SER814 

> <Gold.Protein.RotatedAtoms>
  150.6927  134.1930  159.4292 H   0  0  0  0  0  0  0  0  0  0  0  0  # atno 6907 bound_to 6896
  151.9900  134.9982  160.0570 H   0  0  0  0  0  0  0  0  0  0  0  0  # atno 6908 bound_to 6896
  152.1676  133.4587  159.4929 H   0  0  0  0  0  0  0  0  0  0  0  0  # atno 6909 bound_to 6896
  145.1356  140.8749  143.3732 H   0  0  0  0  0  0  0  0  0  0  0  0  # atno 7974 bound_to 7965
  155.3382  140.0470  157.3044 H   0  0  0  0  0  0  0  0  0  0  0  0  # atno 8008 bound_to 7997
  154.5292  140.2251  155.8801 H   0  0  0  0  0  0  0  0  0  0  0  0  # atno 8009 bound_to 7997
  156.1770  140.3082  155.9085 H   0  0  0  0  0  0  0  0  0  0  0  0  # atno 8010 bound_to 7997
  140.7280  143.4664  151.0307 H   0  0  0  0  0  0  0  0  0  0  0  0  # atno 10167 bound_to 10162
  157.1761  131.0621  151.2157 H   0  0  0  0  0  0  0  0  0  0  0  0  # atno 10718 bound_to 10713
  154.8710  135.4093  154.2967 H   0  0  0  0  0  0  0  0  0  0  0  0  # atno 10763 bound_to 10752
  153.3833  135.7012  153.6554 H   0  0  0  0  0  0  0  0  0  0  0  0  # atno 10764 bound_to 10752
  153.5367  135.3656  155.2672 H   0  0  0  0  0  0  0  0  0  0  0  0  # atno 10765 bound_to 10752
  140.2164  134.3693  155.8025 H   0  0  0  0  0  0  0  0  0  0  0  0  # atno 11005 bound_to 11000
  145.0588  139.3122  143.5891 LP  0  0  0  0  0  0  0  0  0  0  0  0  # atno 17320 bound_to 7965
  146.3510  140.0022  142.8675 LP  0  0  0  0  0  0  0  0  0  0  0  0  # atno 17321 bound_to 7965
  139.8353  143.7636  152.3180 LP  0  0  0  0  0  0  0  0  0  0  0  0  # atno 17342 bound_to 10162
  139.7766  144.7459  151.0148 LP  0  0  0  0  0  0  0  0  0  0  0  0  # atno 17343 bound_to 10162
  157.3997  130.7327  149.6758 LP  0  0  0  0  0  0  0  0  0  0  0  0  # atno 17370 bound_to 10713
  155.9731  130.4124  150.4030 LP  0  0  0  0  0  0  0  0  0  0  0  0  # atno 17371 bound_to 10713
  141.2224  133.7170  156.8504 LP  0  0  0  0  0  0  0  0  0  0  0  0  # atno 17394 bound_to 11000
  140.1896  134.8975  157.3044 LP  0  0  0  0  0  0  0  0  0  0  0  0  # atno 17395 bound_to 11000

$$$$
