AV-unprocessed.smi:3304|AV-procd|sdf|12698|dock7
  -GOLD-   2272019 33D 1   1.00000     0.00000
 Structure written by MMmdl.
 46 47  0  0  0  0  0  0  0  0  2 V2000
  147.7508  141.5158  156.0677 C   0  0  0  0  0  0  0  0  0  0  0  0
  148.5691  140.6358  155.1785 C   0  0  0  0  0  0  0  0  0  0  0  0
  148.1933  139.6737  154.2796 C   0  0  0  0  0  0  0  0  0  0  0  0
  146.8118  139.2055  153.9127 C   0  0  0  0  0  0  0  0  0  0  0  0
  146.7059  138.8797  152.4169 C   0  0  0  0  0  0  0  0  0  0  0  0
  145.3424  138.4398  152.0648 N   0  3  0  0  0  0  0  0  0  0  0  0
  144.9788  137.1161  152.6088 C   0  0  0  0  0  0  0  0  0  0  0  0
  145.3547  135.9804  151.6392 C   0  0  2  0  0  0  0  0  0  0  0  0
  144.0971  135.3879  150.9729 C   0  0  0  0  0  0  0  0  0  0  0  0
  144.4484  134.2490  149.9993 C   0  0  0  0  0  0  0  0  0  0  0  0
  145.2701  133.1313  150.6710 C   0  0  2  0  0  0  0  0  0  0  0  0
  144.4218  132.2569  151.6111 C   0  0  0  0  0  0  0  0  0  0  0  0
  146.5111  133.7213  151.3699 C   0  0  0  0  0  0  0  0  0  0  0  0
  146.1559  134.8620  152.3397 C   0  0  0  0  0  0  0  0  0  0  0  0
  149.4299  139.2007  153.7562 C   0  0  0  0  0  0  0  0  0  0  0  0
  150.4768  139.8100  154.2827 N   0  0  0  0  0  0  0  0  0  0  0  0
  149.9499  140.6929  155.1558 N   0  0  0  0  0  0  0  0  0  0  0  0
  150.8341  141.5475  155.9246 C   0  0  0  0  0  0  0  0  0  0  0  0
  146.6856  141.3178  155.9495 H   0  0  0  0  0  0  0  0  0  0  0  0
  147.9227  142.5672  155.8364 H   0  0  0  0  0  0  0  0  0  0  0  0
  148.0068  141.3532  157.1149 H   0  0  0  0  0  0  0  0  0  0  0  0
  146.5400  138.3249  154.4958 H   0  0  0  0  0  0  0  0  0  0  0  0
  146.0734  139.9669  154.1674 H   0  0  0  0  0  0  0  0  0  0  0  0
  146.9623  139.7590  151.8244 H   0  0  0  0  0  0  0  0  0  0  0  0
  147.4156  138.0943  152.1534 H   0  0  0  0  0  0  0  0  0  0  0  0
  144.6832  139.1214  152.4129 H   0  0  0  0  0  0  0  0  0  0  0  0
  145.4665  136.9673  153.5734 H   0  0  0  0  0  0  0  0  0  0  0  0
  143.9034  137.1063  152.7913 H   0  0  0  0  0  0  0  0  0  0  0  0
  145.9766  136.4033  150.8482 H   0  0  0  0  0  0  0  0  0  0  0  0
  143.4090  135.0227  151.7361 H   0  0  0  0  0  0  0  0  0  0  0  0
  143.5615  136.1682  150.4311 H   0  0  0  0  0  0  0  0  0  0  0  0
  143.5383  133.8374  149.5614 H   0  0  0  0  0  0  0  0  0  0  0  0
  145.0220  134.6608  149.1678 H   0  0  0  0  0  0  0  0  0  0  0  0
  145.6267  132.4706  149.8796 H   0  0  0  0  0  0  0  0  0  0  0  0
  144.0138  132.8259  152.4460 H   0  0  0  0  0  0  0  0  0  0  0  0
  145.0149  131.4420  152.0269 H   0  0  0  0  0  0  0  0  0  0  0  0
  143.5833  131.8098  151.0765 H   0  0  0  0  0  0  0  0  0  0  0  0
  147.0540  132.9372  151.8989 H   0  0  0  0  0  0  0  0  0  0  0  0
  147.1973  134.1034  150.6127 H   0  0  0  0  0  0  0  0  0  0  0  0
  147.0762  135.2655  152.7628 H   0  0  0  0  0  0  0  0  0  0  0  0
  145.5849  134.4666  153.1804 H   0  0  0  0  0  0  0  0  0  0  0  0
  149.5958  138.4347  153.0131 H   0  0  0  0  0  0  0  0  0  0  0  0
  150.5924  142.5931  155.7324 H   0  0  0  0  0  0  0  0  0  0  0  0
  151.8757  141.3714  155.6517 H   0  0  0  0  0  0  0  0  0  0  0  0
  150.7088  141.3415  156.9880 H   0  0  0  0  0  0  0  0  0  0  0  0
  145.2680  138.4032  151.0581 H   0  0  0  0  0  0  0  0  0  0  0  0
  1  2  1  0  0  0  0
  1 19  1  0  0  0  0
  1 20  1  0  0  0  0
  1 21  1  0  0  0  0
  2 17  1  0  0  0  0
  2  3  2  0  0  0  0
  3  4  1  0  0  0  0
  3 15  1  0  0  0  0
  4  5  1  0  0  0  0
  4 22  1  0  0  0  0
  4 23  1  0  0  0  0
  5  6  1  0  0  0  0
  5 24  1  0  0  0  0
  5 25  1  0  0  0  0
  6  7  1  0  0  0  0
  6 26  1  0  0  0  0
  6 46  1  0  0  0  0
  7  8  1  0  0  0  0
  7 27  1  0  0  0  0
  7 28  1  0  0  0  0
  8 14  1  0  0  0  0
  8  9  1  0  0  0  0
  8 29  1  0  0  0  0
  9 10  1  0  0  0  0
  9 30  1  0  0  0  0
  9 31  1  0  0  0  0
 10 11  1  0  0  0  0
 10 32  1  0  0  0  0
 10 33  1  0  0  0  0
 11 12  1  0  0  0  0
 11 13  1  0  0  0  0
 11 34  1  0  0  0  0
 12 35  1  0  0  0  0
 12 36  1  0  0  0  0
 12 37  1  0  0  0  0
 13 14  1  0  0  0  0
 13 38  1  0  0  0  0
 13 39  1  0  0  0  0
 14 40  1  0  0  0  0
 14 41  1  0  0  0  0
 15 16  2  0  0  0  0
 15 42  1  0  0  0  0
 16 17  1  0  0  0  0
 17 18  1  0  0  0  0
 18 43  1  0  0  0  0
 18 44  1  0  0  0  0
 18 45  1  0  0  0  0
M  CHG  1   6   1
M  END
> <s_m_source_file>
AV-unprocessed.smi

> <i_m_source_file_index>
3304

> <i_lp_mmshare_version>
43012

> <i_f3d_flags>
0

> <s_epik_input>
W0NIM11uMW5bY0hdYyhjMVtDSDNdKVtDSDJdW0NIMl1bTkhdW0NIMl1bQ0BASF0yW0NIMl1bQ0gyXVtDQEBIXShbQ0gzXSlbQ0gyXVtDSDJdMg==

> <s_epik_cmdline>
J2VwaWtfcHl0aG9uJywgJy1waCcsICc3LjAnLCAnLXRuJywgJzgnLCAnLW1hJywgJzIwMCcsICctbWV0YWxfYmluZGluZycsICctaW1hZScsICc8aW5maWxlLm1hZT4nLCAnLW9tYWUnLCAnPG91dGZpbGUubWFlPic=

> <r_lp_tautomer_probability>
1

> <r_epik_Ionization_Penalty>
0.000505313

> <r_epik_Ionization_Penalty_Charging>
0.000421171

> <r_epik_Ionization_Penalty_Neutral>
8.41424e-05

> <r_epik_State_Penalty>
-0

> <r_epik_Charging_Adjusted_Penalty>
0.000421171

> <i_epik_Tot_Q>
1

> <i_epik_Tot_abs_Q>
1

> <r_epik_Metal_State_Penalty>
-0

> <b_epik_Metal_Only>
0

> <s_lp_Force_Field>
OPLS_2005

> <r_lp_Energy>
12.247

> <b_lp_Chiralities_Consistent>
1

> <s_lp_Variant>
AV-unprocessed.smi:3304-2

> <Gold.Version>
5.8.1

> <Gold.Id.Protein>
6NUR|6NUR_protein|mol2

> <Gold.PLP.Fitness>
45.5751

> <Gold.PLP.PLP>
-32.9586

> <Gold.PLP.part.hbond>
-3.0000

> <Gold.PLP.part.metal>
0.0000

> <Gold.PLP.part.buried>
-0.9333

> <Gold.PLP.part.nonpolar>
-29.8476

> <Gold.PLP.part.repulsive>
0.1571

> <Gold.PLP.ligand.clash>
0.0000

> <Gold.PLP.ligand.torsion>
1.2196

> <Gold.PLP.Chemscore.Hbond>
3.7040

> <Gold.PLP.Chemscore.CHOScore>
1.2927

> <Gold.PLP.Chemscore.Metal>
0.0000

> <Gold.Chemscore.Hbonds>
donor molecule, donor type, donor heavy atom, donor atom, acceptor molecule, acceptor atom, score
      L1  H     6    26       P1 10175  2.00
      L1  H     6    46       P1 10171  0.72
      P1  H  7989  7998       L1    16  0.95
      L1  C    15    42       P1  7948  1.00
      L1  C    15    42       P1  7957  0.29

> <Gold.PLP.Chemscore.Internal.Correction>
0.0655

> <Gold.Rescore>
     Score         DG    S(hbond)    S(metal)    S(lipo)     H(rot)  DE(clash)    DE(int)     intcor
     18.04     -21.11       2.67        0.00      88.71       1.43       1.81       1.26       ----

> <Gold.Chemscore.Fitness>
18.0351

> <Gold.Chemscore.DG>
-21.1088

> <Gold.Chemscore.ZeroCoef>
-5.4800

> <Gold.Chemscore.Hbond>
2.6703

> <Gold.Chemscore.Metal>
0.0000

> <Gold.Chemscore.Lipo>
88.7073

> <Gold.Chemscore.Internal_Hbond>
0.0000

> <Gold.Chemscore.DEClash>
1.8105

> <Gold.Chemscore.DEInternal>
1.2631

> <Gold.Chemscore.Rot>
1.4331

> <Gold.Chemscore.Internal.Correction>
   9.000000E+99

> <Gold.Chemscore.Hbonds>
donor molecule, donor type, donor heavy atom, donor atom, acceptor molecule, acceptor atom, score
      L1  H     6    26       P1 10175  0.99
      L1  H     6    46       P1 10171  0.72
      P1  H  7989  7998       L1    16  0.21

> <Gold.Chemscore.Hbond.Weighted>
-8.9188

> <Gold.Chemscore.Metal.Weighted>
-0.0000

> <Gold.Chemscore.Lipo.Weighted>
-10.3788

> <Gold.Chemscore.Internal_Hbond.Weighted>
0.0000

> <Gold.Chemscore.DEClash.Weighted>
1.8105

> <Gold.Chemscore.DEInternal.Weighted>
1.2631

> <Gold.Chemscore.Rot.Weighted>
3.6688

> <Gold.Chemscore.Internal.Correction.Weighted>
   9.000000E+99

> <Gold.Protein.RotatedTorsions>
[ 6907 6896 6895 6894 ] final -123.95 input  -60.11 | X-H torsion
[ 7974 7965 7964 7962 ] final -124.69 input  175.53 | X-H torsion
[ 8008 7997 7996 7995 ] final   72.71 input   59.86 | X-H torsion
[ 10167 10162 10161 10158 ] final   88.97 input  -65.29 | X-H torsion
[ 10718 10713 10712 10709 ] final  -30.04 input   66.30 | X-H torsion
[ 10763 10752 10751 10750 ] final  -82.67 input  -60.55 | X-H torsion
[ 11005 11000 10999 10996 ] final   71.18 input  -57.11 | X-H torsion

> <Gold.Protein.ActiveResidues>
 VAL166  LYS551  ARG553  GLY616  TRP617  ASP618  TYR619  PRO620  LYS621  CYS622 
 ASP623  PHE694  ASN695  SER759  ASP760  ASP761  ALA762  ILE779  LEU786  VAL792 
 PHE793  MET794  SER795  GLU796  ALA797  LYS798  CYS799  TRP800  GLU811  SER814 

> <Gold.Protein.RotatedAtoms>
  150.8721  133.7491  159.2957 H   0  0  0  0  0  0  0  0  0  0  0  0  # atno 6907 bound_to 6896
  151.5100  135.1063  159.9861 H   0  0  0  0  0  0  0  0  0  0  0  0  # atno 6908 bound_to 6896
  152.4702  133.7967  159.6987 H   0  0  0  0  0  0  0  0  0  0  0  0  # atno 6909 bound_to 6896
  145.0054  140.7858  143.4471 H   0  0  0  0  0  0  0  0  0  0  0  0  # atno 7974 bound_to 7965
  155.7728  140.3484  155.5256 H   0  0  0  0  0  0  0  0  0  0  0  0  # atno 8008 bound_to 7997
  155.8805  140.1001  157.1509 H   0  0  0  0  0  0  0  0  0  0  0  0  # atno 8009 bound_to 7997
  154.4024  140.1323  156.4177 H   0  0  0  0  0  0  0  0  0  0  0  0  # atno 8010 bound_to 7997
  139.8619  144.6539  150.9048 H   0  0  0  0  0  0  0  0  0  0  0  0  # atno 10167 bound_to 10162
  156.4049  130.4397  149.7295 H   0  0  0  0  0  0  0  0  0  0  0  0  # atno 10718 bound_to 10713
  154.5786  135.5583  153.7163 H   0  0  0  0  0  0  0  0  0  0  0  0  # atno 10763 bound_to 10752
  153.0073  135.6314  154.2014 H   0  0  0  0  0  0  0  0  0  0  0  0  # atno 10764 bound_to 10752
  154.1955  135.2880  155.2988 H   0  0  0  0  0  0  0  0  0  0  0  0  # atno 10765 bound_to 10752
  139.9557  134.7148  156.0758 H   0  0  0  0  0  0  0  0  0  0  0  0  # atno 11005 bound_to 11000
  145.2096  139.2211  143.5150 LP  0  0  0  0  0  0  0  0  0  0  0  0  # atno 17320 bound_to 7965
  146.3460  140.1931  142.8589 LP  0  0  0  0  0  0  0  0  0  0  0  0  # atno 17321 bound_to 7965
  140.7774  143.3737  151.1603 LP  0  0  0  0  0  0  0  0  0  0  0  0  # atno 17342 bound_to 10162
  139.7365  143.8990  152.3036 LP  0  0  0  0  0  0  0  0  0  0  0  0  # atno 17343 bound_to 10162
  156.4297  130.7809  151.2828 LP  0  0  0  0  0  0  0  0  0  0  0  0  # atno 17370 bound_to 10713
  157.7505  131.0158  150.3518 LP  0  0  0  0  0  0  0  0  0  0  0  0  # atno 17371 bound_to 10713
  141.1228  133.6608  156.3259 LP  0  0  0  0  0  0  0  0  0  0  0  0  # atno 17394 bound_to 11000
  140.5614  134.5930  157.5434 LP  0  0  0  0  0  0  0  0  0  0  0  0  # atno 17395 bound_to 11000

$$$$
