AV-unprocessed.smi:40|AV-procd|sdf|368|dock1
  -GOLD-   2262016203D 1   1.00000     0.00000
 Structure written by MMmdl.
 47 48  0  0  0  0  0  0  0  0  1 V2000
  148.7166  126.2251  150.7416 C   0  0  0  0  0  0  0  0  0  0  0  0
  147.9020  126.9568  151.8165 C   0  0  0  0  0  0  0  0  0  0  0  0
  147.0774  128.1358  151.2742 C   0  0  0  0  0  0  0  0  0  0  0  0
  146.4109  128.9830  152.3729 C   0  0  0  0  0  0  0  0  0  0  0  0
  146.0787  130.4088  151.9128 C   0  0  0  0  0  0  0  0  0  0  0  0
  146.0105  131.2681  153.0386 O   0  0  0  0  0  0  0  0  0  0  0  0
  146.5890  132.4817  153.0060 C   0  0  0  0  0  0  0  0  0  0  0  0
  147.2626  132.8967  152.0631 O   0  0  0  0  0  0  0  0  0  0  0  0
  146.3538  133.2233  154.2348 N   0  0  0  0  0  0  0  0  0  0  0  0
  146.7668  134.4673  154.5832 C   0  0  0  0  0  0  0  0  0  0  0  0
  145.9347  135.4875  154.7261 N   0  0  0  0  0  0  0  0  0  0  0  0
  146.3271  136.7554  155.0598 C   0  0  0  0  0  0  0  0  0  0  0  0
  145.5025  137.6616  155.1722 O   0  0  0  0  0  0  0  0  0  0  0  0
  147.7096  136.9772  155.2587 N   0  0  0  0  0  0  0  0  0  0  0  0
  148.1691  138.3750  155.6196 C   0  0  1  0  0  0  0  0  0  0  0  0
  149.5439  138.3606  155.8819 O   0  0  0  0  0  0  0  0  0  0  0  0
  150.2412  139.1057  154.8883 C   0  0  2  0  0  0  0  0  0  0  0  0
  151.5491  139.6571  155.4667 C   0  0  0  0  0  0  0  0  0  0  0  0
  149.2310  140.1779  154.4869 C   0  0  1  0  0  0  0  0  0  0  0  0
  149.5275  140.7759  153.2391 O   0  0  0  0  0  0  0  0  0  0  0  0
  147.9145  139.4083  154.4967 C   0  0  1  0  0  0  0  0  0  0  0  0
  147.6283  138.8206  153.2357 O   0  0  0  0  0  0  0  0  0  0  0  0
  148.6022  135.9284  155.0923 C   0  0  0  0  0  0  0  0  0  0  0  0
  148.1866  134.6870  154.7608 C   0  0  0  0  0  0  0  0  0  0  0  0
  149.0710  133.6870  154.6026 F   0  0  0  0  0  0  0  0  0  0  0  0
  147.6686  138.6273  156.5558 H   0  0  0  0  0  0  0  0  0  0  0  0
  150.4508  138.4532  154.0394 H   0  0  0  0  0  0  0  0  0  0  0  0
  149.1959  140.9534  155.2536 H   0  0  0  0  0  0  0  0  0  0  0  0
  147.0772  140.0495  154.7738 H   0  0  0  0  0  0  0  0  0  0  0  0
  149.3255  125.4386  151.1881 H   0  0  0  0  0  0  0  0  0  0  0  0
  149.3887  126.9096  150.2233 H   0  0  0  0  0  0  0  0  0  0  0  0
  148.0724  125.7571  149.9978 H   0  0  0  0  0  0  0  0  0  0  0  0
  147.2475  126.2512  152.3296 H   0  0  0  0  0  0  0  0  0  0  0  0
  148.5911  127.3331  152.5734 H   0  0  0  0  0  0  0  0  0  0  0  0
  147.7408  128.7745  150.6895 H   0  0  0  0  0  0  0  0  0  0  0  0
  146.3226  127.7677  150.5782 H   0  0  0  0  0  0  0  0  0  0  0  0
  145.4871  128.5034  152.6951 H   0  0  0  0  0  0  0  0  0  0  0  0
  147.0568  129.0258  153.2508 H   0  0  0  0  0  0  0  0  0  0  0  0
  146.8347  130.7689  151.2139 H   0  0  0  0  0  0  0  0  0  0  0  0
  145.1206  130.4141  151.3915 H   0  0  0  0  0  0  0  0  0  0  0  0
  145.7634  132.7410  154.8968 H   0  0  0  0  0  0  0  0  0  0  0  0
  152.0836  140.2528  154.7266 H   0  0  0  0  0  0  0  0  0  0  0  0
  152.2067  138.8463  155.7803 H   0  0  0  0  0  0  0  0  0  0  0  0
  151.3625  140.2902  156.3348 H   0  0  0  0  0  0  0  0  0  0  0  0
  149.3018  140.1656  152.5535 H   0  0  0  0  0  0  0  0  0  0  0  0
  148.2605  139.1375  152.6092 H   0  0  0  0  0  0  0  0  0  0  0  0
  149.6622  136.0850  155.2210 H   0  0  0  0  0  0  0  0  0  0  0  0
  1  2  1  0  0  0  0
  1 30  1  0  0  0  0
  1 31  1  0  0  0  0
  1 32  1  0  0  0  0
  2  3  1  0  0  0  0
  2 33  1  0  0  0  0
  2 34  1  0  0  0  0
  3  4  1  0  0  0  0
  3 35  1  0  0  0  0
  3 36  1  0  0  0  0
  4  5  1  0  0  0  0
  4 37  1  0  0  0  0
  4 38  1  0  0  0  0
  5  6  1  0  0  0  0
  5 39  1  0  0  0  0
  5 40  1  0  0  0  0
  6  7  1  0  0  0  0
  7  8  2  0  0  0  0
  7  9  1  0  0  0  0
  9 10  1  0  0  0  0
  9 41  1  0  0  0  0
 10 24  1  0  0  0  0
 10 11  2  0  0  0  0
 11 12  1  0  0  0  0
 12 13  2  0  0  0  0
 12 14  1  0  0  0  0
 14 15  1  0  0  0  0
 14 23  1  0  0  0  0
 15 26  1  0  0  0  0
 15 21  1  0  0  0  0
 15 16  1  0  0  0  0
 16 17  1  0  0  0  0
 17 27  1  0  0  0  0
 17 18  1  0  0  0  0
 17 19  1  0  0  0  0
 18 42  1  0  0  0  0
 18 43  1  0  0  0  0
 18 44  1  0  0  0  0
 19 28  1  0  0  0  0
 19 20  1  0  0  0  0
 19 21  1  0  0  0  0
 20 45  1  0  0  0  0
 21 29  1  0  0  0  0
 21 22  1  0  0  0  0
 22 46  1  0  0  0  0
 23 24  2  0  0  0  0
 23 47  1  0  0  0  0
 24 25  1  0  0  0  0
M  END
> <s_m_source_file>
AV-unprocessed.smi

> <i_m_source_file_index>
40

> <i_lp_mmshare_version>
43012

> <i_f3d_flags>
0

> <s_epik_input>
W0NIM11bQ0gyXVtDSDJdW0NIMl1bQ0gyXU9DKD1PKVtOSF1jMW5jKD1PKW4oW2NIXWMxRilbQ0BASF0yT1tDQEhdKFtDSDNdKVtDQEBIXShbT0hdKVtDQEhdMltPSF0=

> <s_epik_cmdline>
J2VwaWtfcHl0aG9uJywgJy1waCcsICc3LjAnLCAnLXRuJywgJzgnLCAnLW1hJywgJzIwMCcsICctbWV0YWxfYmluZGluZycsICctaW1hZScsICc8aW5maWxlLm1hZT4nLCAnLW9tYWUnLCAnPG91dGZpbGUubWFlPic=

> <r_lp_tautomer_probability>
1

> <r_epik_Ionization_Penalty>
2.29506e-06

> <r_epik_Ionization_Penalty_Charging>
8.26867e-09

> <r_epik_Ionization_Penalty_Neutral>
2.2868e-06

> <r_epik_State_Penalty>
-0

> <r_epik_Charging_Adjusted_Penalty>
8.26867e-09

> <i_epik_Tot_Q>
0

> <i_epik_Tot_abs_Q>
0

> <r_epik_Metal_State_Penalty>
-0

> <b_epik_Metal_Only>
0

> <s_epik_Chemistry_Notes>
This compound has an ester and may undergo hydrolysis at high or low pH. This compound contains an acetal/aminal-like group ( X-CH(R)-Y where X, Y are N, S, or O) that may be acid/base labile, releasing an aldehyde.

> <s_lp_Force_Field>
OPLS_2005

> <r_lp_Energy>
42.3286

> <b_lp_Chiralities_Consistent>
1

> <s_lp_Variant>
AV-unprocessed.smi:40-2

> <Gold.Version>
5.8.1

> <Gold.Id.Protein>
6NUR|6NUR_protein|mol2

> <Gold.PLP.Fitness>
42.7717

> <Gold.PLP.PLP>
-36.0099

> <Gold.PLP.part.hbond>
-3.6059

> <Gold.PLP.part.metal>
0.0000

> <Gold.PLP.part.buried>
-3.4543

> <Gold.PLP.part.nonpolar>
-29.4715

> <Gold.PLP.part.repulsive>
0.6573

> <Gold.PLP.ligand.clash>
0.0000

> <Gold.PLP.ligand.torsion>
1.2918

> <Gold.PLP.Chemscore.Hbond>
2.9097

> <Gold.PLP.Chemscore.CHOScore>
0.0000

> <Gold.PLP.Chemscore.Metal>
0.0000

> <Gold.Chemscore.Hbonds>
donor molecule, donor type, donor heavy atom, donor atom, acceptor molecule, acceptor atom, score
      L1  H    20    45       P1  7957  0.53
      L1  H    22    46       P1  7957  0.67
      P1  H  7989  7998       L1    20  0.21
      P1  H  8011  8017       L1    20  1.00

> <Gold.PLP.Chemscore.Internal.Correction>
0.6162

> <Gold.Rescore>
     Score         DG    S(hbond)    S(metal)    S(lipo)     H(rot)  DE(clash)    DE(int)     intcor
     10.71     -12.35       2.02        0.00      81.82       3.70       0.28       1.36       ----

> <Gold.Chemscore.Fitness>
10.7097

> <Gold.Chemscore.DG>
-12.3516

> <Gold.Chemscore.ZeroCoef>
-5.4800

> <Gold.Chemscore.Hbond>
2.0238

> <Gold.Chemscore.Metal>
0.0000

> <Gold.Chemscore.Lipo>
81.8203

> <Gold.Chemscore.Internal_Hbond>
0.0000

> <Gold.Chemscore.DEClash>
0.2833

> <Gold.Chemscore.DEInternal>
1.3587

> <Gold.Chemscore.Rot>
3.6957

> <Gold.Chemscore.Internal.Correction>
   9.000000E+99

> <Gold.Chemscore.Hbonds>
donor molecule, donor type, donor heavy atom, donor atom, acceptor molecule, acceptor atom, score
      L1  H    20    45       P1  7957  0.52
      L1  H    22    46       P1  7957  0.67
      P1  H  7989  7998       L1    20  0.04
      P1  H  8011  8017       L1    20  0.45

> <Gold.Chemscore.Hbond.Weighted>
-6.7596

> <Gold.Chemscore.Metal.Weighted>
-0.0000

> <Gold.Chemscore.Lipo.Weighted>
-9.5730

> <Gold.Chemscore.Internal_Hbond.Weighted>
0.0000

> <Gold.Chemscore.DEClash.Weighted>
0.2833

> <Gold.Chemscore.DEInternal.Weighted>
1.3587

> <Gold.Chemscore.Rot.Weighted>
9.4610

> <Gold.Chemscore.Internal.Correction.Weighted>
   9.000000E+99

> <Gold.Protein.RotatedTorsions>
[ 6907 6896 6895 6894 ] final   33.13 input  -60.11 | X-H torsion
[ 7974 7965 7964 7962 ] final   30.22 input  175.53 | X-H torsion
[ 8008 7997 7996 7995 ] final -127.44 input   59.86 | X-H torsion
[ 10167 10162 10161 10158 ] final -134.44 input  -65.29 | X-H torsion
[ 10718 10713 10712 10709 ] final  104.17 input   66.30 | X-H torsion
[ 10763 10752 10751 10750 ] final -144.04 input  -60.55 | X-H torsion
[ 11005 11000 10999 10996 ] final   17.53 input  -57.11 | X-H torsion

> <Gold.Protein.ActiveResidues>
 VAL166  LYS551  ARG553  GLY616  TRP617  ASP618  TYR619  PRO620  LYS621  CYS622 
 ASP623  PHE694  ASN695  SER759  ASP760  ASP761  ALA762  ILE779  LEU786  VAL792 
 PHE793  MET794  SER795  GLU796  ALA797  LYS798  CYS799  TRP800  GLU811  SER814 

> <Gold.Protein.RotatedAtoms>
  152.0842  134.9451  160.0572 H   0  0  0  0  0  0  0  0  0  0  0  0  # atno 6907 bound_to 6896
  152.0727  133.4109  159.4474 H   0  0  0  0  0  0  0  0  0  0  0  0  # atno 6908 bound_to 6896
  150.6836  134.2993  159.4743 H   0  0  0  0  0  0  0  0  0  0  0  0  # atno 6909 bound_to 6896
  146.1625  139.6818  142.9024 H   0  0  0  0  0  0  0  0  0  0  0  0  # atno 7974 bound_to 7965
  155.2463  140.0430  157.2981 H   0  0  0  0  0  0  0  0  0  0  0  0  # atno 8008 bound_to 7997
  154.5797  140.2397  155.8041 H   0  0  0  0  0  0  0  0  0  0  0  0  # atno 8009 bound_to 7997
  156.2184  140.2977  155.9901 H   0  0  0  0  0  0  0  0  0  0  0  0  # atno 8010 bound_to 7997
  139.8880  143.6757  152.2617 H   0  0  0  0  0  0  0  0  0  0  0  0  # atno 10167 bound_to 10162
  157.6749  131.0797  150.5666 H   0  0  0  0  0  0  0  0  0  0  0  0  # atno 10718 bound_to 10713
  154.8445  135.3451  154.6282 H   0  0  0  0  0  0  0  0  0  0  0  0  # atno 10763 bound_to 10752
  153.6892  135.6976  153.5099 H   0  0  0  0  0  0  0  0  0  0  0  0  # atno 10764 bound_to 10752
  153.2608  135.4323  155.0847 H   0  0  0  0  0  0  0  0  0  0  0  0  # atno 10765 bound_to 10752
  140.4349  134.1381  155.7684 H   0  0  0  0  0  0  0  0  0  0  0  0  # atno 11005 bound_to 11000
  145.4552  141.0430  143.2782 LP  0  0  0  0  0  0  0  0  0  0  0  0  # atno 17320 bound_to 7965
  144.8046  139.6075  143.7056 LP  0  0  0  0  0  0  0  0  0  0  0  0  # atno 17321 bound_to 7965
  139.7135  144.7616  151.1073 LP  0  0  0  0  0  0  0  0  0  0  0  0  # atno 17342 bound_to 10162
  140.7732  143.5300  150.9435 LP  0  0  0  0  0  0  0  0  0  0  0  0  # atno 17343 bound_to 10162
  156.5968  130.4344  149.5913 LP  0  0  0  0  0  0  0  0  0  0  0  0  # atno 17370 bound_to 10713
  156.2538  130.6923  151.1669 LP  0  0  0  0  0  0  0  0  0  0  0  0  # atno 17371 bound_to 10713
  141.1730  133.8571  157.1511 LP  0  0  0  0  0  0  0  0  0  0  0  0  # atno 17394 bound_to 11000
  140.0109  134.9988  157.0392 LP  0  0  0  0  0  0  0  0  0  0  0  0  # atno 17395 bound_to 11000

$$$$
