AV-unprocessed.smi:783|AV-procd|sdf|3716|dock1
  -GOLD-   22720 1143D 1   1.00000     0.00000
 Structure written by MMmdl.
 45 46  0  0  0  0  0  0  0  0  1 V2000
  147.3862  135.0572  158.4208 C   0  0  0  0  0  0  0  0  0  0  0  0
  147.6829  136.2988  159.2866 C   0  0  2  0  0  0  0  0  0  0  0  0
  149.0613  136.9085  158.9888 C   0  0  0  0  0  0  0  0  0  0  0  0
  150.0270  136.6569  159.7099 O   0  0  0  0  0  0  0  0  0  0  0  0
  149.1357  137.7052  157.9105 N   0  0  0  0  0  0  0  0  0  0  0  0
  150.3419  138.3642  157.4086 C   0  0  0  0  0  0  0  0  0  0  0  0
  150.0755  139.8224  156.9224 C   0  0  0  0  0  0  0  0  0  0  0  0
  148.9918  139.8855  155.7932 C   0  0  0  0  0  0  0  0  0  0  0  0
  147.9455  140.4952  156.0288 O   0  0  0  0  0  0  0  0  0  0  0  0
  149.1606  139.2771  154.5873 N   0  0  0  0  0  0  0  0  0  0  0  0
  148.2116  139.2033  153.4718 C   0  0  0  0  0  0  0  0  0  0  0  0
  150.4308  138.6069  154.2905 C   0  0  0  0  0  0  0  0  0  0  0  0
  149.6512  140.6680  158.1568 C   0  0  0  0  0  0  0  0  0  0  0  0
  149.9809  142.1308  157.8428 C   0  0  0  0  0  0  0  0  0  0  0  0
  151.0981  142.0812  156.7986 C   0  0  0  0  0  0  0  0  0  0  0  0
  151.3559  140.5946  156.5161 C   0  0  0  0  0  0  0  0  0  0  0  0
  147.5466  136.0278  160.7133 N   0  0  0  0  0  0  0  0  0  0  0  0
  147.2997  134.8151  161.3251 C   0  0  0  0  0  0  0  0  0  0  0  0
  147.2124  135.0421  162.6688 C   0  0  0  0  0  0  0  0  0  0  0  0
  147.4078  136.4461  162.7871 C   0  0  0  0  0  0  0  0  0  0  0  0
  147.5986  137.0338  161.6176 N   0  0  0  0  0  0  0  0  0  0  0  0
  147.4402  135.2990  157.3588 H   0  0  0  0  0  0  0  0  0  0  0  0
  146.3836  134.6770  158.6180 H   0  0  0  0  0  0  0  0  0  0  0  0
  148.0896  134.2448  158.6095 H   0  0  0  0  0  0  0  0  0  0  0  0
  146.9330  137.0497  159.0318 H   0  0  0  0  0  0  0  0  0  0  0  0
  148.2896  137.8535  157.3800 H   0  0  0  0  0  0  0  0  0  0  0  0
  151.0525  138.3822  158.2353 H   0  0  0  0  0  0  0  0  0  0  0  0
  150.8284  137.7478  156.6566 H   0  0  0  0  0  0  0  0  0  0  0  0
  147.1933  139.4981  153.6996 H   0  0  0  0  0  0  0  0  0  0  0  0
  148.1523  138.1801  153.0989 H   0  0  0  0  0  0  0  0  0  0  0  0
  148.5570  139.8321  152.6510 H   0  0  0  0  0  0  0  0  0  0  0  0
  150.5782  137.7534  154.9536 H   0  0  0  0  0  0  0  0  0  0  0  0
  151.2702  139.2920  154.4207 H   0  0  0  0  0  0  0  0  0  0  0  0
  150.4773  138.2380  153.2650 H   0  0  0  0  0  0  0  0  0  0  0  0
  148.6078  140.5367  158.4472 H   0  0  0  0  0  0  0  0  0  0  0  0
  150.2396  140.3710  159.0264 H   0  0  0  0  0  0  0  0  0  0  0  0
  149.1082  142.6386  157.4304 H   0  0  0  0  0  0  0  0  0  0  0  0
  150.2810  142.6744  158.7393 H   0  0  0  0  0  0  0  0  0  0  0  0
  150.7734  142.5882  155.8891 H   0  0  0  0  0  0  0  0  0  0  0  0
  152.0033  142.5811  157.1446 H   0  0  0  0  0  0  0  0  0  0  0  0
  152.1953  140.2558  157.1250 H   0  0  0  0  0  0  0  0  0  0  0  0
  151.6569  140.4719  155.4781 H   0  0  0  0  0  0  0  0  0  0  0  0
  147.2078  133.9000  160.7588 H   0  0  0  0  0  0  0  0  0  0  0  0
  147.0311  134.3168  163.4481 H   0  0  0  0  0  0  0  0  0  0  0  0
  147.4122  137.0523  163.6812 H   0  0  0  0  0  0  0  0  0  0  0  0
  1  2  1  0  0  0  0
  1 22  1  0  0  0  0
  1 23  1  0  0  0  0
  1 24  1  0  0  0  0
  2  3  1  0  0  0  0
  2 17  1  0  0  0  0
  2 25  1  0  0  0  0
  3  4  2  0  0  0  0
  3  5  1  0  0  0  0
  5  6  1  0  0  0  0
  5 26  1  0  0  0  0
  6  7  1  0  0  0  0
  6 27  1  0  0  0  0
  6 28  1  0  0  0  0
  7 16  1  0  0  0  0
  7  8  1  0  0  0  0
  7 13  1  0  0  0  0
  8  9  2  0  0  0  0
  8 10  1  0  0  0  0
 10 11  1  0  0  0  0
 10 12  1  0  0  0  0
 11 29  1  0  0  0  0
 11 30  1  0  0  0  0
 11 31  1  0  0  0  0
 12 32  1  0  0  0  0
 12 33  1  0  0  0  0
 12 34  1  0  0  0  0
 13 14  1  0  0  0  0
 13 35  1  0  0  0  0
 13 36  1  0  0  0  0
 14 15  1  0  0  0  0
 14 37  1  0  0  0  0
 14 38  1  0  0  0  0
 15 16  1  0  0  0  0
 15 39  1  0  0  0  0
 15 40  1  0  0  0  0
 16 41  1  0  0  0  0
 16 42  1  0  0  0  0
 17 21  1  0  0  0  0
 17 18  1  0  0  0  0
 18 19  2  0  0  0  0
 18 43  1  0  0  0  0
 19 20  1  0  0  0  0
 19 44  1  0  0  0  0
 20 21  2  0  0  0  0
 20 45  1  0  0  0  0
M  END
> <s_m_source_file>
AV-unprocessed.smi

> <i_m_source_file_index>
783

> <i_lp_mmshare_version>
43012

> <i_f3d_flags>
0

> <s_epik_input>
bjFbY0hdW2NIXVtjSF1uMVtDQEhdKFtDSDNdKUMoPU8pW05IXVtDSDJdQzIoQyg9TylOKFtDSDNdKVtDSDNdKVtDSDJdW0NIMl1bQ0gyXVtDSDJdMg==

> <s_epik_cmdline>
J2VwaWtfcHl0aG9uJywgJy1waCcsICc3LjAnLCAnLXRuJywgJzgnLCAnLW1hJywgJzIwMCcsICctbWV0YWxfYmluZGluZycsICctaW1hZScsICc8aW5maWxlLm1hZT4nLCAnLW9tYWUnLCAnPG91dGZpbGUubWFlPic=

> <r_lp_tautomer_probability>
1

> <r_epik_Ionization_Penalty>
3.31274e-05

> <r_epik_Ionization_Penalty_Charging>
0

> <r_epik_Ionization_Penalty_Neutral>
3.31274e-05

> <r_epik_State_Penalty>
-0

> <r_epik_Charging_Adjusted_Penalty>
0

> <i_epik_Tot_Q>
0

> <i_epik_Tot_abs_Q>
0

> <r_epik_Metal_State_Penalty>
-0

> <b_epik_Metal_Only>
0

> <s_lp_Force_Field>
OPLS_2005

> <r_lp_Energy>
39.8422

> <b_lp_Chiralities_Consistent>
1

> <s_lp_Variant>
AV-unprocessed.smi:783-1

> <Gold.Version>
5.8.1

> <Gold.Id.Protein>
6NUR|6NUR_protein|mol2

> <Gold.PLP.Fitness>
42.3013

> <Gold.PLP.PLP>
-35.8376

> <Gold.PLP.part.hbond>
-3.3650

> <Gold.PLP.part.metal>
0.0000

> <Gold.PLP.part.buried>
-2.6065

> <Gold.PLP.part.nonpolar>
-30.1717

> <Gold.PLP.part.repulsive>
0.1356

> <Gold.PLP.ligand.clash>
0.0000

> <Gold.PLP.ligand.torsion>
0.9408

> <Gold.PLP.Chemscore.Hbond>
2.6777

> <Gold.PLP.Chemscore.CHOScore>
0.0000

> <Gold.PLP.Chemscore.Metal>
0.0000

> <Gold.Chemscore.Hbonds>
donor molecule, donor type, donor heavy atom, donor atom, acceptor molecule, acceptor atom, score
      P1  H  6896  6909       L1     4  1.00
      P1  H  6931  6943       L1    21  1.00
      P1  H  6934  6947       L1    21  0.59

> <Gold.PLP.Chemscore.Internal.Correction>
0.3124

> <Gold.Rescore>
     Score         DG    S(hbond)    S(metal)    S(lipo)     H(rot)  DE(clash)    DE(int)     intcor
     15.74     -16.79       2.06        0.00      78.34       1.84       0.06       0.99       ----

> <Gold.Chemscore.Fitness>
15.7414

> <Gold.Chemscore.DG>
-16.7916

> <Gold.Chemscore.ZeroCoef>
-5.4800

> <Gold.Chemscore.Hbond>
2.0566

> <Gold.Chemscore.Metal>
0.0000

> <Gold.Chemscore.Lipo>
78.3389

> <Gold.Chemscore.Internal_Hbond>
0.0000

> <Gold.Chemscore.DEClash>
0.0588

> <Gold.Chemscore.DEInternal>
0.9915

> <Gold.Chemscore.Rot>
1.8449

> <Gold.Chemscore.Internal.Correction>
   9.000000E+99

> <Gold.Chemscore.Hbonds>
donor molecule, donor type, donor heavy atom, donor atom, acceptor molecule, acceptor atom, score
      P1  H  6896  6909       L1     4  1.00
      P1  H  6931  6943       L1    21  0.48
      P1  H  6934  6947       L1    21  0.56

> <Gold.Chemscore.Hbond.Weighted>
-6.8689

> <Gold.Chemscore.Metal.Weighted>
-0.0000

> <Gold.Chemscore.Lipo.Weighted>
-9.1657

> <Gold.Chemscore.Internal_Hbond.Weighted>
0.0000

> <Gold.Chemscore.DEClash.Weighted>
0.0588

> <Gold.Chemscore.DEInternal.Weighted>
0.9915

> <Gold.Chemscore.Rot.Weighted>
4.7229

> <Gold.Chemscore.Internal.Correction.Weighted>
   9.000000E+99

> <Gold.Protein.RotatedTorsions>
[ 6907 6896 6895 6894 ] final   88.89 input  -60.11 | X-H torsion
[ 7974 7965 7964 7962 ] final  -95.94 input  175.53 | X-H torsion
[ 8008 7997 7996 7995 ] final -121.64 input   59.86 | X-H torsion
[ 10167 10162 10161 10158 ] final -112.41 input  -65.29 | X-H torsion
[ 10718 10713 10712 10709 ] final   30.34 input   66.30 | X-H torsion
[ 10763 10752 10751 10750 ] final  100.82 input  -60.55 | X-H torsion
[ 11005 11000 10999 10996 ] final    5.54 input  -57.11 | X-H torsion

> <Gold.Protein.ActiveResidues>
 VAL166  LYS551  ARG553  GLY616  TRP617  ASP618  TYR619  PRO620  LYS621  CYS622 
 ASP623  PHE694  ASN695  SER759  ASP760  ASP761  ALA762  ILE779  LEU786  VAL792 
 PHE793  MET794  SER795  GLU796  ALA797  LYS798  CYS799  TRP800  GLU811  SER814 

> <Gold.Protein.RotatedAtoms>
  152.5430  134.2051  159.8727 H   0  0  0  0  0  0  0  0  0  0  0  0  # atno 6907 bound_to 6896
  151.2037  133.4589  159.2604 H   0  0  0  0  0  0  0  0  0  0  0  0  # atno 6908 bound_to 6896
  151.0964  134.9959  159.8483 H   0  0  0  0  0  0  0  0  0  0  0  0  # atno 6909 bound_to 6896
  145.3534  140.9480  143.2541 H   0  0  0  0  0  0  0  0  0  0  0  0  # atno 7974 bound_to 7965
  155.1513  140.0404  157.2821 H   0  0  0  0  0  0  0  0  0  0  0  0  # atno 8008 bound_to 7997
  154.6402  140.2545  155.7304 H   0  0  0  0  0  0  0  0  0  0  0  0  # atno 8009 bound_to 7997
  156.2529  140.2857  156.0792 H   0  0  0  0  0  0  0  0  0  0  0  0  # atno 8010 bound_to 7997
  140.1230  143.4427  152.1678 H   0  0  0  0  0  0  0  0  0  0  0  0  # atno 10167 bound_to 10162
  157.2583  130.7149  149.6441 H   0  0  0  0  0  0  0  0  0  0  0  0  # atno 10718 bound_to 10713
  153.3187  135.4066  155.1398 H   0  0  0  0  0  0  0  0  0  0  0  0  # atno 10763 bound_to 10752
  154.8595  135.3582  154.5625 H   0  0  0  0  0  0  0  0  0  0  0  0  # atno 10764 bound_to 10752
  153.6057  135.7069  153.5425 H   0  0  0  0  0  0  0  0  0  0  0  0  # atno 10765 bound_to 10752
  140.5695  134.0116  155.8003 H   0  0  0  0  0  0  0  0  0  0  0  0  # atno 11005 bound_to 11000
  144.8700  139.5051  143.6772 LP  0  0  0  0  0  0  0  0  0  0  0  0  # atno 17320 bound_to 7965
  146.2958  139.7274  142.9127 LP  0  0  0  0  0  0  0  0  0  0  0  0  # atno 17321 bound_to 7965
  139.5559  144.7372  151.4296 LP  0  0  0  0  0  0  0  0  0  0  0  0  # atno 17342 bound_to 10162
  140.6861  143.7970  150.7188 LP  0  0  0  0  0  0  0  0  0  0  0  0  # atno 17343 bound_to 10162
  155.9664  130.4405  150.5304 LP  0  0  0  0  0  0  0  0  0  0  0  0  # atno 17370 bound_to 10713
  157.3203  131.0680  151.1937 LP  0  0  0  0  0  0  0  0  0  0  0  0  # atno 17371 bound_to 10713
  141.1065  133.9685  157.2988 LP  0  0  0  0  0  0  0  0  0  0  0  0  # atno 17394 bound_to 11000
  139.9368  135.0195  156.8583 LP  0  0  0  0  0  0  0  0  0  0  0  0  # atno 17395 bound_to 11000

$$$$
