AV-unprocessed.smi:1465|AV-procd|sdf|5951|dock7
  -GOLD-   22720 6 33D 1   1.00000     0.00000
 Structure written by MMmdl.
 54 55  0  0  0  0  0  0  0  0  2 V2000
  153.7122  140.2425  160.1209 C   0  0  0  0  0  0  0  0  0  0  0  0
  153.7436  139.0397  159.3737 O   0  0  0  0  0  0  0  0  0  0  0  0
  152.8966  139.0815  158.2369 C   0  0  0  0  0  0  0  0  0  0  0  0
  153.1832  137.8660  157.3405 C   0  0  0  0  0  0  0  0  0  0  0  0
  152.1581  137.6999  156.3001 N   0  0  0  0  0  0  0  0  0  0  0  0
  151.4159  136.5031  156.3210 C   0  0  0  0  0  0  0  0  0  0  0  0
  150.4522  136.2350  155.4179 C   0  0  0  0  0  0  0  0  0  0  0  0
  149.7275  134.9640  155.4880 C   0  0  0  0  0  0  0  0  0  0  0  0
  149.8280  134.1524  156.4095 O   0  0  0  0  0  0  0  0  0  0  0  0
  148.9221  134.7417  154.4346 N   0  0  0  0  0  0  0  0  0  0  0  0
  148.0938  133.5561  154.2365 C   0  0  2  0  0  0  0  0  0  0  0  0
  148.9625  132.2868  154.1784 C   0  0  0  0  0  0  0  0  0  0  0  0
  148.1132  131.0439  153.8646 C   0  0  0  0  0  0  0  0  0  0  0  0
  147.3544  131.2171  152.5975 N   0  3  1  0  0  0  0  0  0  0  0  0
  146.6165  129.9957  152.1832 C   0  0  0  0  0  0  0  0  0  0  0  0
  147.4713  128.7134  152.2791 C   0  0  0  0  0  0  0  0  0  0  0  0
  147.6325  128.0291  150.9112 C   0  0  0  0  0  0  0  0  0  0  0  0
  146.8663  127.7360  153.2977 C   0  0  0  0  0  0  0  0  0  0  0  0
  146.4789  132.4165  152.6473 C   0  0  0  0  0  0  0  0  0  0  0  0
  147.2945  133.6891  152.9308 C   0  0  0  0  0  0  0  0  0  0  0  0
  150.1942  137.2429  154.3999 C   0  0  0  0  0  0  0  0  0  0  0  0
  150.9080  138.3856  154.3704 C   0  0  0  0  0  0  0  0  0  0  0  0
  151.9616  138.6636  155.3510 C   0  0  0  0  0  0  0  0  0  0  0  0
  152.6261  139.6996  155.3187 O   0  0  0  0  0  0  0  0  0  0  0  0
  154.3772  140.1565  160.9803 H   0  0  0  0  0  0  0  0  0  0  0  0
  152.7079  140.4513  160.4920 H   0  0  0  0  0  0  0  0  0  0  0  0
  154.0467  141.0889  159.5198 H   0  0  0  0  0  0  0  0  0  0  0  0
  151.8549  139.0561  158.5603 H   0  0  0  0  0  0  0  0  0  0  0  0
  153.0413  140.0115  157.6847 H   0  0  0  0  0  0  0  0  0  0  0  0
  154.1733  137.9645  156.8930 H   0  0  0  0  0  0  0  0  0  0  0  0
  153.2431  136.9667  157.9557 H   0  0  0  0  0  0  0  0  0  0  0  0
  151.6948  135.8226  157.1138 H   0  0  0  0  0  0  0  0  0  0  0  0
  148.8859  135.4495  153.7155 H   0  0  0  0  0  0  0  0  0  0  0  0
  147.3858  133.4686  155.0633 H   0  0  0  0  0  0  0  0  0  0  0  0
  149.7340  132.3994  153.4151 H   0  0  0  0  0  0  0  0  0  0  0  0
  149.4840  132.1430  155.1255 H   0  0  0  0  0  0  0  0  0  0  0  0
  148.7698  130.1772  153.7994 H   0  0  0  0  0  0  0  0  0  0  0  0
  147.4183  130.8508  154.6834 H   0  0  0  0  0  0  0  0  0  0  0  0
  145.7111  129.9027  152.7852 H   0  0  0  0  0  0  0  0  0  0  0  0
  146.2812  130.1015  151.1502 H   0  0  0  0  0  0  0  0  0  0  0  0
  148.4653  128.9706  152.6439 H   0  0  0  0  0  0  0  0  0  0  0  0
  146.6660  127.7435  150.4941 H   0  0  0  0  0  0  0  0  0  0  0  0
  148.2368  127.1253  150.9945 H   0  0  0  0  0  0  0  0  0  0  0  0
  148.1263  128.6828  150.1919 H   0  0  0  0  0  0  0  0  0  0  0  0
  145.8657  127.4202  153.0002 H   0  0  0  0  0  0  0  0  0  0  0  0
  146.7913  128.1919  154.2853 H   0  0  0  0  0  0  0  0  0  0  0  0
  147.4804  126.8404  153.3969 H   0  0  0  0  0  0  0  0  0  0  0  0
  145.9586  132.5332  151.6957 H   0  0  0  0  0  0  0  0  0  0  0  0
  145.7137  132.2795  153.4133 H   0  0  0  0  0  0  0  0  0  0  0  0
  146.6267  134.5497  152.9869 H   0  0  0  0  0  0  0  0  0  0  0  0
  147.9723  133.8772  152.0964 H   0  0  0  0  0  0  0  0  0  0  0  0
  149.4321  137.1014  153.6478 H   0  0  0  0  0  0  0  0  0  0  0  0
  150.6993  139.1187  153.6047 H   0  0  0  0  0  0  0  0  0  0  0  0
  148.0314  131.3969  151.8699 H   0  0  0  0  0  0  0  0  0  0  0  0
  1  2  1  0  0  0  0
  1 25  1  0  0  0  0
  1 26  1  0  0  0  0
  1 27  1  0  0  0  0
  2  3  1  0  0  0  0
  3  4  1  0  0  0  0
  3 28  1  0  0  0  0
  3 29  1  0  0  0  0
  4  5  1  0  0  0  0
  4 30  1  0  0  0  0
  4 31  1  0  0  0  0
  5 23  1  0  0  0  0
  5  6  1  0  0  0  0
  6  7  2  0  0  0  0
  6 32  1  0  0  0  0
  7  8  1  0  0  0  0
  7 21  1  0  0  0  0
  8  9  2  0  0  0  0
  8 10  1  0  0  0  0
 10 11  1  0  0  0  0
 10 33  1  0  0  0  0
 11 20  1  0  0  0  0
 11 12  1  0  0  0  0
 11 34  1  0  0  0  0
 12 13  1  0  0  0  0
 12 35  1  0  0  0  0
 12 36  1  0  0  0  0
 13 14  1  0  0  0  0
 13 37  1  0  0  0  0
 13 38  1  0  0  0  0
 14 15  1  0  0  0  0
 14 19  1  0  0  0  0
 14 54  1  0  0  0  0
 15 16  1  0  0  0  0
 15 39  1  0  0  0  0
 15 40  1  0  0  0  0
 16 17  1  0  0  0  0
 16 18  1  0  0  0  0
 16 41  1  0  0  0  0
 17 42  1  0  0  0  0
 17 43  1  0  0  0  0
 17 44  1  0  0  0  0
 18 45  1  0  0  0  0
 18 46  1  0  0  0  0
 18 47  1  0  0  0  0
 19 20  1  0  0  0  0
 19 48  1  0  0  0  0
 19 49  1  0  0  0  0
 20 50  1  0  0  0  0
 20 51  1  0  0  0  0
 21 22  2  0  0  0  0
 21 52  1  0  0  0  0
 22 23  1  0  0  0  0
 22 53  1  0  0  0  0
 23 24  2  0  0  0  0
M  CHG  1  14   1
M  END
> <s_m_source_file>
AV-unprocessed.smi

> <i_m_source_file_index>
1465

> <i_lp_mmshare_version>
43012

> <i_f3d_flags>
0

> <s_epik_input>
W0NIM11PW0NIMl1bQ0gyXW4xW2NIXWMoW2NIXVtjSF1jMT1PKUMoPU8pW05IXVtDSF0yW0NIMl1bQ0gyXU4oW0NIMl1bQ0gyXTIpW0NIMl1bQ0hdKFtDSDNdKVtDSDNd

> <s_epik_cmdline>
J2VwaWtfcHl0aG9uJywgJy1waCcsICc3LjAnLCAnLXRuJywgJzgnLCAnLW1hJywgJzIwMCcsICctbWV0YWxfYmluZGluZycsICctaW1hZScsICc8aW5maWxlLm1hZT4nLCAnLW9tYWUnLCAnPG91dGZpbGUubWFlPic=

> <r_lp_tautomer_probability>
1

> <r_epik_Ionization_Penalty>
0.00386091

> <r_epik_Ionization_Penalty_Charging>
0.0038603

> <r_epik_Ionization_Penalty_Neutral>
6.13806e-07

> <r_epik_State_Penalty>
0.00275716

> <r_epik_Charging_Adjusted_Penalty>
0.00661746

> <i_epik_Tot_Q>
1

> <i_epik_Tot_abs_Q>
1

> <r_epik_Metal_State_Penalty>
-0

> <b_epik_Metal_Only>
0

> <s_lp_Force_Field>
OPLS_2005

> <r_lp_Energy>
35.0866

> <b_lp_Chiralities_Consistent>
1

> <s_lp_Variant>
AV-unprocessed.smi:1465-1

> <Gold.Version>
5.8.1

> <Gold.Id.Protein>
6NUR|6NUR_protein|mol2

> <Gold.PLP.Fitness>
46.1029

> <Gold.PLP.PLP>
-38.0043

> <Gold.PLP.part.hbond>
-4.0000

> <Gold.PLP.part.metal>
0.0000

> <Gold.PLP.part.buried>
-1.2525

> <Gold.PLP.part.nonpolar>
-32.7726

> <Gold.PLP.part.repulsive>
0.0047

> <Gold.PLP.ligand.clash>
0.0000

> <Gold.PLP.ligand.torsion>
0.9028

> <Gold.PLP.Chemscore.Hbond>
3.2535

> <Gold.PLP.Chemscore.CHOScore>
0.0000

> <Gold.PLP.Chemscore.Metal>
0.0000

> <Gold.Chemscore.Hbonds>
donor molecule, donor type, donor heavy atom, donor atom, acceptor molecule, acceptor atom, score
      L1  H    10    33       P1  7948  1.00
      L1  H    14    54       P1 10747  1.00
      P1  H  7989  7998       L1    24  0.12
      P1  H  7997  8009       L1    24  1.00

> <Gold.PLP.Chemscore.Internal.Correction>
0.1438

> <Gold.Rescore>
     Score         DG    S(hbond)    S(metal)    S(lipo)     H(rot)  DE(clash)    DE(int)     intcor
     19.20     -21.46       2.68        0.00      98.91       1.78       0.26       2.00       ----

> <Gold.Chemscore.Fitness>
19.1964

> <Gold.Chemscore.DG>
-21.4573

> <Gold.Chemscore.ZeroCoef>
-5.4800

> <Gold.Chemscore.Hbond>
2.6807

> <Gold.Chemscore.Metal>
0.0000

> <Gold.Chemscore.Lipo>
98.9111

> <Gold.Chemscore.Internal_Hbond>
0.0000

> <Gold.Chemscore.DEClash>
0.2581

> <Gold.Chemscore.DEInternal>
2.0028

> <Gold.Chemscore.Rot>
1.7769

> <Gold.Chemscore.Internal.Correction>
   9.000000E+99

> <Gold.Chemscore.Hbonds>
donor molecule, donor type, donor heavy atom, donor atom, acceptor molecule, acceptor atom, score
      L1  H    10    33       P1  7948  0.82
      L1  H    14    54       P1 10747  0.95
      P1  H  7989  7998       L1    24  0.05
      P1  H  7997  8009       L1    24  0.98

> <Gold.Chemscore.Hbond.Weighted>
-8.9537

> <Gold.Chemscore.Metal.Weighted>
-0.0000

> <Gold.Chemscore.Lipo.Weighted>
-11.5726

> <Gold.Chemscore.Internal_Hbond.Weighted>
0.0000

> <Gold.Chemscore.DEClash.Weighted>
0.2581

> <Gold.Chemscore.DEInternal.Weighted>
2.0028

> <Gold.Chemscore.Rot.Weighted>
4.5490

> <Gold.Chemscore.Internal.Correction.Weighted>
   9.000000E+99

> <Gold.Protein.RotatedTorsions>
[ 6907 6896 6895 6894 ] final  -86.14 input  -60.11 | X-H torsion
[ 7974 7965 7964 7962 ] final -179.91 input  175.53 | X-H torsion
[ 8008 7997 7996 7995 ] final -153.84 input   59.86 | X-H torsion
[ 10167 10162 10161 10158 ] final -172.08 input  -65.29 | X-H torsion
[ 10718 10713 10712 10709 ] final    2.07 input   66.30 | X-H torsion
[ 10763 10752 10751 10750 ] final   50.67 input  -60.55 | X-H torsion
[ 11005 11000 10999 10996 ] final -159.33 input  -57.11 | X-H torsion

> <Gold.Protein.ActiveResidues>
 VAL166  LYS551  ARG553  GLY616  TRP617  ASP618  TYR619  PRO620  LYS621  CYS622 
 ASP623  PHE694  ASN695  SER759  ASP760  ASP761  ALA762  ILE779  LEU786  VAL792 
 PHE793  MET794  SER795  GLU796  ALA797  LYS798  CYS799  TRP800  GLU811  SER814 

> <Gold.Protein.RotatedAtoms>
  150.6868  134.3097  159.4740 H   0  0  0  0  0  0  0  0  0  0  0  0  # atno 6907 bound_to 6896
  152.0984  134.9356  160.0579 H   0  0  0  0  0  0  0  0  0  0  0  0  # atno 6908 bound_to 6896
  152.0645  133.4043  159.4469 H   0  0  0  0  0  0  0  0  0  0  0  0  # atno 6909 bound_to 6896
  144.7140  140.0646  143.6431 H   0  0  0  0  0  0  0  0  0  0  0  0  # atno 7974 bound_to 7965
  155.6771  140.0740  157.2498 H   0  0  0  0  0  0  0  0  0  0  0  0  # atno 8008 bound_to 7997
  154.4112  140.1688  156.1994 H   0  0  0  0  0  0  0  0  0  0  0  0  # atno 8009 bound_to 7997
  155.9567  140.3373  155.6457 H   0  0  0  0  0  0  0  0  0  0  0  0  # atno 8010 bound_to 7997
  139.5765  144.1520  152.1457 H   0  0  0  0  0  0  0  0  0  0  0  0  # atno 10167 bound_to 10162
  156.8575  130.5575  149.5665 H   0  0  0  0  0  0  0  0  0  0  0  0  # atno 10718 bound_to 10713
  152.9784  135.5871  154.4290 H   0  0  0  0  0  0  0  0  0  0  0  0  # atno 10763 bound_to 10752
  154.3906  135.2768  155.2159 H   0  0  0  0  0  0  0  0  0  0  0  0  # atno 10764 bound_to 10752
  154.4033  135.6098  153.5964 H   0  0  0  0  0  0  0  0  0  0  0  0  # atno 10765 bound_to 10752
  140.6438  134.4523  157.5234 H   0  0  0  0  0  0  0  0  0  0  0  0  # atno 11005 bound_to 11000
  145.9835  139.2959  143.1028 LP  0  0  0  0  0  0  0  0  0  0  0  0  # atno 17320 bound_to 7965
  145.8984  140.9259  143.0516 LP  0  0  0  0  0  0  0  0  0  0  0  0  # atno 17321 bound_to 7965
  140.1064  144.5495  150.6954 LP  0  0  0  0  0  0  0  0  0  0  0  0  # atno 17342 bound_to 10162
  140.7047  143.2459  151.4761 LP  0  0  0  0  0  0  0  0  0  0  0  0  # atno 17343 bound_to 10162
  156.0794  130.5808  150.9535 LP  0  0  0  0  0  0  0  0  0  0  0  0  # atno 17370 bound_to 10713
  157.6269  131.0925  150.8517 LP  0  0  0  0  0  0  0  0  0  0  0  0  # atno 17371 bound_to 10713
  139.9070  134.8426  156.1667 LP  0  0  0  0  0  0  0  0  0  0  0  0  # atno 17394 bound_to 11000
  141.0587  133.6852  156.1911 LP  0  0  0  0  0  0  0  0  0  0  0  0  # atno 17395 bound_to 11000

$$$$
