AV-unprocessed.smi:2736|AV-procd|sdf|10546|dock9
  -GOLD-   2272014593D 1   1.00000     0.00000
 Structure written by MMmdl.
 38 40  0  0  0  0  0  0  0  0  1 V2000
  147.8875  135.2000  159.5357 C   0  0  0  0  0  0  0  0  0  0  0  0
  148.7993  135.5107  158.4188 N   0  0  0  0  0  0  0  0  0  0  0  0
  149.2865  136.7872  158.3150 C   0  0  0  0  0  0  0  0  0  0  0  0
  149.0186  137.7062  159.0897 O   0  0  0  0  0  0  0  0  0  0  0  0
  150.1814  136.9906  157.1699 C   0  0  0  0  0  0  0  0  0  0  0  0
  150.4920  136.0052  156.2917 C   0  0  0  0  0  0  0  0  0  0  0  0
  151.3497  136.4660  155.2989 N   0  0  0  0  0  0  0  0  0  0  0  0
  151.5135  137.7437  155.6418 C   0  0  0  0  0  0  0  0  0  0  0  0
  150.8500  138.1394  156.7468 N   0  0  0  0  0  0  0  0  0  0  0  0
  150.8649  139.4790  157.3154 C   0  0  0  0  0  0  0  0  0  0  0  0
  151.9538  139.6546  158.3931 C   0  0  1  0  0  0  0  0  0  0  0  0
  153.2035  139.2095  157.8990 O   0  0  0  0  0  0  0  0  0  0  0  0
  151.9973  141.0936  158.9023 C   0  0  0  0  0  0  0  0  0  0  0  0
  151.1504  142.0706  158.3286 C   0  0  0  0  0  0  0  0  0  0  0  0
  151.1753  143.4012  158.7878 C   0  0  0  0  0  0  0  0  0  0  0  0
  152.0434  143.7686  159.8312 C   0  0  0  0  0  0  0  0  0  0  0  0
  152.8812  142.8027  160.4182 C   0  0  0  0  0  0  0  0  0  0  0  0
  152.8600  141.4688  159.9635 C   0  0  0  0  0  0  0  0  0  0  0  0
  153.8950  140.3198  160.7379 Cl  0  0  0  0  0  0  0  0  0  0  0  0
  149.9279  134.7187  156.4917 N   0  0  0  0  0  0  0  0  0  0  0  0
  150.2485  133.6440  155.5480 C   0  0  0  0  0  0  0  0  0  0  0  0
  149.0830  134.4750  157.5454 C   0  0  0  0  0  0  0  0  0  0  0  0
  148.5897  133.3542  157.7019 O   0  0  0  0  0  0  0  0  0  0  0  0
  147.7626  136.0036  160.2621 H   0  0  0  0  0  0  0  0  0  0  0  0
  148.2463  134.3368  160.0988 H   0  0  0  0  0  0  0  0  0  0  0  0
  146.8935  134.9616  159.1539 H   0  0  0  0  0  0  0  0  0  0  0  0
  152.1347  138.4163  155.0686 H   0  0  0  0  0  0  0  0  0  0  0  0
  150.9759  140.2158  156.5209 H   0  0  0  0  0  0  0  0  0  0  0  0
  149.8828  139.6628  157.7532 H   0  0  0  0  0  0  0  0  0  0  0  0
  151.7307  138.9934  159.2299 H   0  0  0  0  0  0  0  0  0  0  0  0
  153.0519  138.4889  157.3065 H   0  0  0  0  0  0  0  0  0  0  0  0
  150.4708  141.8064  157.5316 H   0  0  0  0  0  0  0  0  0  0  0  0
  150.5263  144.1394  158.3399 H   0  0  0  0  0  0  0  0  0  0  0  0
  152.0633  144.7889  160.1849 H   0  0  0  0  0  0  0  0  0  0  0  0
  153.5411  143.0871  161.2246 H   0  0  0  0  0  0  0  0  0  0  0  0
  150.6870  132.7920  156.0692 H   0  0  0  0  0  0  0  0  0  0  0  0
  150.9591  133.9526  154.7816 H   0  0  0  0  0  0  0  0  0  0  0  0
  149.3465  133.3043  155.0369 H   0  0  0  0  0  0  0  0  0  0  0  0
  1  2  1  0  0  0  0
  1 24  1  0  0  0  0
  1 25  1  0  0  0  0
  1 26  1  0  0  0  0
  2 22  1  0  0  0  0
  2  3  1  0  0  0  0
  3  4  2  0  0  0  0
  3  5  1  0  0  0  0
  5  9  1  0  0  0  0
  5  6  2  0  0  0  0
  6  7  1  0  0  0  0
  6 20  1  0  0  0  0
  7  8  2  0  0  0  0
  8  9  1  0  0  0  0
  8 27  1  0  0  0  0
  9 10  1  0  0  0  0
 10 11  1  0  0  0  0
 10 28  1  0  0  0  0
 10 29  1  0  0  0  0
 11 12  1  0  0  0  0
 11 13  1  0  0  0  0
 11 30  1  0  0  0  0
 12 31  1  0  0  0  0
 13 18  1  0  0  0  0
 13 14  2  0  0  0  0
 14 15  1  0  0  0  0
 14 32  1  0  0  0  0
 15 16  2  0  0  0  0
 15 33  1  0  0  0  0
 16 17  1  0  0  0  0
 16 34  1  0  0  0  0
 17 18  2  0  0  0  0
 17 35  1  0  0  0  0
 18 19  1  0  0  0  0
 20 21  1  0  0  0  0
 20 22  1  0  0  0  0
 21 36  1  0  0  0  0
 21 37  1  0  0  0  0
 21 38  1  0  0  0  0
 22 23  2  0  0  0  0
M  END
> <s_m_source_file>
AV-unprocessed.smi

> <i_m_source_file_index>
2736

> <i_lp_mmshare_version>
43012

> <i_f3d_flags>
0

> <s_epik_input>
Tz1jMW4oW0NIM10pYyg9TyluKFtDSDNdKWMoYzEyKW5bY0hdbjJbQ0gyXVtDQEhdKFtPSF0pYzNbY0hdW2NIXVtjSF1bY0hdYzNDbA==

> <s_epik_cmdline>
J2VwaWtfcHl0aG9uJywgJy1waCcsICc3LjAnLCAnLXRuJywgJzgnLCAnLW1hJywgJzIwMCcsICctbWV0YWxfYmluZGluZycsICctaW1hZScsICc8aW5maWxlLm1hZT4nLCAnLW9tYWUnLCAnPG91dGZpbGUubWFlPic=

> <r_lp_tautomer_probability>
1

> <r_epik_Ionization_Penalty>
1.63404e-06

> <r_epik_Ionization_Penalty_Charging>
3.74189e-09

> <r_epik_Ionization_Penalty_Neutral>
1.63029e-06

> <r_epik_State_Penalty>
-0

> <r_epik_Charging_Adjusted_Penalty>
3.74189e-09

> <i_epik_Tot_Q>
0

> <i_epik_Tot_abs_Q>
0

> <r_epik_Metal_State_Penalty>
-0

> <b_epik_Metal_Only>
0

> <s_lp_Force_Field>
OPLS_2005

> <r_lp_Energy>
36.7388

> <b_lp_Chiralities_Consistent>
1

> <s_lp_Variant>
AV-unprocessed.smi:2736-2

> <Gold.Version>
5.8.1

> <Gold.Id.Protein>
6NUR|6NUR_protein|mol2

> <Gold.PLP.Fitness>
41.5144

> <Gold.PLP.PLP>
-36.3050

> <Gold.PLP.part.hbond>
-3.6041

> <Gold.PLP.part.metal>
0.0000

> <Gold.PLP.part.buried>
-5.2989

> <Gold.PLP.part.nonpolar>
-28.6697

> <Gold.PLP.part.repulsive>
0.0723

> <Gold.PLP.ligand.clash>
0.0000

> <Gold.PLP.ligand.torsion>
0.4100

> <Gold.PLP.Chemscore.Hbond>
2.0000

> <Gold.PLP.Chemscore.CHOScore>
0.0000

> <Gold.PLP.Chemscore.Metal>
0.0000

> <Gold.Chemscore.Hbonds>
donor molecule, donor type, donor heavy atom, donor atom, acceptor molecule, acceptor atom, score
      P1  H  7997  8008       L1    12  0.96
      P1  H 10752 10764       L1     7  1.00

> <Gold.PLP.Chemscore.Internal.Correction>
0.0295

> <Gold.Rescore>
     Score         DG    S(hbond)    S(metal)    S(lipo)     H(rot)  DE(clash)    DE(int)     intcor
     16.25     -16.73       1.68        0.00      95.31       2.15       0.04       0.44       ----

> <Gold.Chemscore.Fitness>
16.2511

> <Gold.Chemscore.DG>
-16.7284

> <Gold.Chemscore.ZeroCoef>
-5.4800

> <Gold.Chemscore.Hbond>
1.6750

> <Gold.Chemscore.Metal>
0.0000

> <Gold.Chemscore.Lipo>
95.3095

> <Gold.Chemscore.Internal_Hbond>
0.0000

> <Gold.Chemscore.DEClash>
0.0376

> <Gold.Chemscore.DEInternal>
0.4397

> <Gold.Chemscore.Rot>
2.1474

> <Gold.Chemscore.Internal.Correction>
   9.000000E+99

> <Gold.Chemscore.Hbonds>
donor molecule, donor type, donor heavy atom, donor atom, acceptor molecule, acceptor atom, score
      P1  H  7997  8008       L1    12  0.36
      P1  H 10752 10764       L1     7  0.90

> <Gold.Chemscore.Hbond.Weighted>
-5.5946

> <Gold.Chemscore.Metal.Weighted>
-0.0000

> <Gold.Chemscore.Lipo.Weighted>
-11.1512

> <Gold.Chemscore.Internal_Hbond.Weighted>
0.0000

> <Gold.Chemscore.DEClash.Weighted>
0.0376

> <Gold.Chemscore.DEInternal.Weighted>
0.4397

> <Gold.Chemscore.Rot.Weighted>
5.4974

> <Gold.Chemscore.Internal.Correction.Weighted>
   9.000000E+99

> <Gold.Protein.RotatedTorsions>
[ 6907 6896 6895 6894 ] final  -29.77 input  -60.11 | X-H torsion
[ 7974 7965 7964 7962 ] final  -19.38 input  175.53 | X-H torsion
[ 8008 7997 7996 7995 ] final -104.07 input   59.86 | X-H torsion
[ 10167 10162 10161 10158 ] final  -40.91 input  -65.29 | X-H torsion
[ 10718 10713 10712 10709 ] final  -28.33 input   66.30 | X-H torsion
[ 10763 10752 10751 10750 ] final  -56.61 input  -60.55 | X-H torsion
[ 11005 11000 10999 10996 ] final -155.66 input  -57.11 | X-H torsion

> <Gold.Protein.ActiveResidues>
 VAL166  LYS551  ARG553  GLY616  TRP617  ASP618  TYR619  PRO620  LYS621  CYS622 
 ASP623  PHE694  ASN695  SER759  ASP760  ASP761  ALA762  ILE779  LEU786  VAL792 
 PHE793  MET794  SER795  GLU796  ALA797  LYS798  CYS799  TRP800  GLU811  SER814 

> <Gold.Protein.RotatedAtoms>
  151.1147  135.0046  159.8510 H   0  0  0  0  0  0  0  0  0  0  0  0  # atno 6907 bound_to 6896
  152.5445  134.1794  159.8639 H   0  0  0  0  0  0  0  0  0  0  0  0  # atno 6908 bound_to 6896
  151.1847  133.4659  159.2627 H   0  0  0  0  0  0  0  0  0  0  0  0  # atno 6909 bound_to 6896
  146.1844  140.4053  142.8482 H   0  0  0  0  0  0  0  0  0  0  0  0  # atno 7974 bound_to 7965
  154.8800  140.0419  157.1777 H   0  0  0  0  0  0  0  0  0  0  0  0  # atno 8008 bound_to 7997
  154.8649  140.2949  155.5496 H   0  0  0  0  0  0  0  0  0  0  0  0  # atno 8009 bound_to 7997
  156.2999  140.2440  156.3628 H   0  0  0  0  0  0  0  0  0  0  0  0  # atno 8010 bound_to 7997
  140.7019  143.3125  151.2991 H   0  0  0  0  0  0  0  0  0  0  0  0  # atno 10167 bound_to 10162
  156.4267  130.4437  149.7146 H   0  0  0  0  0  0  0  0  0  0  0  0  # atno 10718 bound_to 10713
  154.2094  135.6397  153.5111 H   0  0  0  0  0  0  0  0  0  0  0  0  # atno 10763 bound_to 10752
  152.9993  135.5470  154.6231 H   0  0  0  0  0  0  0  0  0  0  0  0  # atno 10764 bound_to 10752
  154.5664  135.2913  155.0843 H   0  0  0  0  0  0  0  0  0  0  0  0  # atno 10765 bound_to 10752
  140.6841  134.4113  157.5224 H   0  0  0  0  0  0  0  0  0  0  0  0  # atno 11005 bound_to 11000
  144.8372  140.6800  143.6253 LP  0  0  0  0  0  0  0  0  0  0  0  0  # atno 17320 bound_to 7965
  145.3981  139.1603  143.4192 LP  0  0  0  0  0  0  0  0  0  0  0  0  # atno 17321 bound_to 7965
  139.6553  144.0287  152.2655 LP  0  0  0  0  0  0  0  0  0  0  0  0  # atno 17342 bound_to 10162
  139.9837  144.6410  150.7877 LP  0  0  0  0  0  0  0  0  0  0  0  0  # atno 17343 bound_to 10162
  156.4065  130.7701  151.2712 LP  0  0  0  0  0  0  0  0  0  0  0  0  # atno 17370 bound_to 10713
  157.7508  131.0224  150.3790 LP  0  0  0  0  0  0  0  0  0  0  0  0  # atno 17371 bound_to 10713
  139.8943  134.8710  156.2184 LP  0  0  0  0  0  0  0  0  0  0  0  0  # atno 17394 bound_to 11000
  141.0294  133.6997  156.1404 LP  0  0  0  0  0  0  0  0  0  0  0  0  # atno 17395 bound_to 11000

$$$$
