AV-unprocessed.smi:164|AV-procd|sdf|1385|dock8
  -GOLD-   2262019113D 1   1.00000     0.00000
 Structure written by MMmdl.
 53 55  0  0  0  0  0  0  0  0  1 V2000
  152.2835  144.1537  158.5553 C   0  0  0  0  0  0  0  0  0  0  0  0
  152.1105  142.6999  158.1501 C   0  0  0  0  0  0  0  0  0  0  0  0
  152.4825  141.6885  159.0594 C   0  0  0  0  0  0  0  0  0  0  0  0
  152.3408  140.3330  158.7141 C   0  0  0  0  0  0  0  0  0  0  0  0
  151.8141  139.9735  157.4585 C   0  0  0  0  0  0  0  0  0  0  0  0
  151.6708  138.5065  157.0969 C   0  0  0  0  0  0  0  0  0  0  0  0
  151.4213  140.9803  156.5471 C   0  0  0  0  0  0  0  0  0  0  0  0
  150.8993  140.6194  155.3323 O   0  0  0  0  0  0  0  0  0  0  0  0
  149.5058  140.3410  155.3733 C   0  0  0  0  0  0  0  0  0  0  0  0
  148.7042  141.6423  155.2143 C   0  0  1  0  0  0  0  0  0  0  0  0
  148.8264  142.0571  153.8688 O   0  0  0  0  0  0  0  0  0  0  0  0
  147.2170  141.4824  155.6005 C   0  0  0  0  0  0  0  0  0  0  0  0
  146.6398  142.6897  156.1674 N   0  0  0  0  0  0  0  0  0  0  0  0
  145.6601  143.3756  155.4091 C   0  0  0  0  0  0  0  0  0  0  0  0
  145.2887  142.9783  154.3035 O   0  0  0  0  0  0  0  0  0  0  0  0
  145.1458  144.5864  156.0394 C   0  0  0  0  0  0  0  0  0  0  0  0
  144.1963  145.3061  155.4179 F   0  0  0  0  0  0  0  0  0  0  0  0
  145.6079  145.0002  157.2393 C   0  0  0  0  0  0  0  0  0  0  0  0
  146.5895  144.3233  157.9455 N   0  0  0  0  0  0  0  0  0  0  0  0
  147.0990  144.8118  159.2857 C   0  0  1  0  0  0  0  0  0  0  0  0
  146.5438  146.2145  159.6000 C   0  0  0  0  0  0  0  0  0  0  0  0
  145.9515  146.0396  160.9845 C   0  0  0  0  0  0  0  0  0  0  0  0
  145.5614  144.5693  160.9780 C   0  0  0  0  0  0  0  0  0  0  0  0
  146.6544  143.9601  160.3032 O   0  0  0  0  0  0  0  0  0  0  0  0
  147.1319  143.1309  157.4186 C   0  0  0  0  0  0  0  0  0  0  0  0
  148.0097  142.5141  158.0277 O   0  0  0  0  0  0  0  0  0  0  0  0
  151.5866  142.3482  156.8811 C   0  0  0  0  0  0  0  0  0  0  0  0
  151.2022  143.4323  155.8827 C   0  0  0  0  0  0  0  0  0  0  0  0
  152.5581  144.2428  159.6066 H   0  0  0  0  0  0  0  0  0  0  0  0
  151.3571  144.7089  158.4063 H   0  0  0  0  0  0  0  0  0  0  0  0
  153.0693  144.6221  157.9621 H   0  0  0  0  0  0  0  0  0  0  0  0
  152.8849  141.9480  160.0278 H   0  0  0  0  0  0  0  0  0  0  0  0
  152.6376  139.5702  159.4190 H   0  0  0  0  0  0  0  0  0  0  0  0
  152.0105  138.3254  156.0766 H   0  0  0  0  0  0  0  0  0  0  0  0
  150.6283  138.1975  157.1729 H   0  0  0  0  0  0  0  0  0  0  0  0
  152.2612  137.8763  157.7627 H   0  0  0  0  0  0  0  0  0  0  0  0
  149.2570  139.6701  154.5499 H   0  0  0  0  0  0  0  0  0  0  0  0
  149.2288  139.8240  156.2937 H   0  0  0  0  0  0  0  0  0  0  0  0
  149.1773  142.4039  155.8356 H   0  0  0  0  0  0  0  0  0  0  0  0
  149.1915  142.9288  153.8550 H   0  0  0  0  0  0  0  0  0  0  0  0
  146.5988  141.1541  154.7631 H   0  0  0  0  0  0  0  0  0  0  0  0
  147.0882  140.6985  156.3493 H   0  0  0  0  0  0  0  0  0  0  0  0
  145.1795  145.9030  157.6463 H   0  0  0  0  0  0  0  0  0  0  0  0
  148.1876  144.7647  159.2213 H   0  0  0  0  0  0  0  0  0  0  0  0
  147.3339  146.9651  159.5628 H   0  0  0  0  0  0  0  0  0  0  0  0
  145.7649  146.4831  158.8844 H   0  0  0  0  0  0  0  0  0  0  0  0
  146.7128  146.2205  161.7444 H   0  0  0  0  0  0  0  0  0  0  0  0
  145.1088  146.7043  161.1765 H   0  0  0  0  0  0  0  0  0  0  0  0
  145.4301  144.1618  161.9805 H   0  0  0  0  0  0  0  0  0  0  0  0
  144.6376  144.4153  160.4186 H   0  0  0  0  0  0  0  0  0  0  0  0
  151.0670  143.0378  154.8759 H   0  0  0  0  0  0  0  0  0  0  0  0
  151.9754  144.1978  155.8220 H   0  0  0  0  0  0  0  0  0  0  0  0
  150.2696  143.9081  156.1863 H   0  0  0  0  0  0  0  0  0  0  0  0
  1  2  1  0  0  0  0
  1 29  1  0  0  0  0
  1 30  1  0  0  0  0
  1 31  1  0  0  0  0
  2 27  1  0  0  0  0
  2  3  2  0  0  0  0
  3  4  1  0  0  0  0
  3 32  1  0  0  0  0
  4  5  2  0  0  0  0
  4 33  1  0  0  0  0
  5  6  1  0  0  0  0
  5  7  1  0  0  0  0
  6 34  1  0  0  0  0
  6 35  1  0  0  0  0
  6 36  1  0  0  0  0
  7  8  1  0  0  0  0
  7 27  2  0  0  0  0
  8  9  1  0  0  0  0
  9 10  1  0  0  0  0
  9 37  1  0  0  0  0
  9 38  1  0  0  0  0
 10 11  1  0  0  0  0
 10 12  1  0  0  0  0
 10 39  1  0  0  0  0
 11 40  1  0  0  0  0
 12 13  1  0  0  0  0
 12 41  1  0  0  0  0
 12 42  1  0  0  0  0
 13 25  1  0  0  0  0
 13 14  1  0  0  0  0
 14 15  2  0  0  0  0
 14 16  1  0  0  0  0
 16 17  1  0  0  0  0
 16 18  2  0  0  0  0
 18 19  1  0  0  0  0
 18 43  1  0  0  0  0
 19 20  1  0  0  0  0
 19 25  1  0  0  0  0
 20 24  1  0  0  0  0
 20 21  1  0  0  0  0
 20 44  1  0  0  0  0
 21 22  1  0  0  0  0
 21 45  1  0  0  0  0
 21 46  1  0  0  0  0
 22 23  1  0  0  0  0
 22 47  1  0  0  0  0
 22 48  1  0  0  0  0
 23 24  1  0  0  0  0
 23 49  1  0  0  0  0
 23 50  1  0  0  0  0
 25 26  2  0  0  0  0
 27 28  1  0  0  0  0
 28 51  1  0  0  0  0
 28 52  1  0  0  0  0
 28 53  1  0  0  0  0
M  END
> <s_m_source_file>
AV-unprocessed.smi

> <i_m_source_file_index>
164

> <i_lp_mmshare_version>
43012

> <i_f3d_flags>
0

> <s_epik_input>
W0NIM11jMVtjSF1bY0hdYyhbQ0gzXSljKGMxW0NIM10pT1tDSDJdW0NASF0oW09IXSlbQ0gyXW4yYyg9TyljKEYpW2NIXW4oYzI9TylbQ0BASF0zW0NIMl1bQ0gyXVtDSDJdTzM=

> <s_epik_cmdline>
J2VwaWtfcHl0aG9uJywgJy1waCcsICc3LjAnLCAnLXRuJywgJzgnLCAnLW1hJywgJzIwMCcsICctbWV0YWxfYmluZGluZycsICctaW1hZScsICc8aW5maWxlLm1hZT4nLCAnLW9tYWUnLCAnPG91dGZpbGUubWFlPic=

> <r_lp_tautomer_probability>
1

> <r_epik_Ionization_Penalty>
1.45842e-07

> <r_epik_Ionization_Penalty_Charging>
2.86622e-08

> <r_epik_Ionization_Penalty_Neutral>
1.1718e-07

> <r_epik_State_Penalty>
-0

> <r_epik_Charging_Adjusted_Penalty>
2.86622e-08

> <i_epik_Tot_Q>
0

> <i_epik_Tot_abs_Q>
0

> <r_epik_Metal_State_Penalty>
-0

> <b_epik_Metal_Only>
0

> <s_epik_Chemistry_Notes>
This compound contains an acetal/aminal-like group ( X-CH(R)-Y where X, Y are N, S, or O) that may be acid/base labile, releasing an aldehyde.

> <s_lp_Force_Field>
OPLS_2005

> <r_lp_Energy>
46.8287

> <b_lp_Chiralities_Consistent>
1

> <s_lp_Variant>
AV-unprocessed.smi:164-4

> <Gold.Version>
5.8.1

> <Gold.Id.Protein>
6NUR|6NUR_protein|mol2

> <Gold.PLP.Fitness>
50.0653

> <Gold.PLP.PLP>
-43.6407

> <Gold.PLP.part.hbond>
-5.2746

> <Gold.PLP.part.metal>
0.0000

> <Gold.PLP.part.buried>
-4.6072

> <Gold.PLP.part.nonpolar>
-33.8549

> <Gold.PLP.part.repulsive>
0.3178

> <Gold.PLP.ligand.clash>
0.0000

> <Gold.PLP.ligand.torsion>
1.2033

> <Gold.PLP.Chemscore.Hbond>
2.9127

> <Gold.PLP.Chemscore.CHOScore>
0.0000

> <Gold.PLP.Chemscore.Metal>
0.0000

> <Gold.Chemscore.Hbonds>
donor molecule, donor type, donor heavy atom, donor atom, acceptor molecule, acceptor atom, score
      P1  H  7989  7998       L1     8  0.91

> <Gold.PLP.Chemscore.Internal.Correction>
0.0931

> <Gold.Rescore>
     Score         DG    S(hbond)    S(metal)    S(lipo)     H(rot)  DE(clash)    DE(int)     intcor
     15.38     -19.46       2.36        0.00     111.93       2.73       2.11       1.97       ----

> <Gold.Chemscore.Fitness>
15.3774

> <Gold.Chemscore.DG>
-19.4601

> <Gold.Chemscore.ZeroCoef>
-5.4800

> <Gold.Chemscore.Hbond>
2.3583

> <Gold.Chemscore.Metal>
0.0000

> <Gold.Chemscore.Lipo>
111.9305

> <Gold.Chemscore.Internal_Hbond>
0.0000

> <Gold.Chemscore.DEClash>
2.1122

> <Gold.Chemscore.DEInternal>
1.9705

> <Gold.Chemscore.Rot>
2.7315

> <Gold.Chemscore.Internal.Correction>
   9.000000E+99

> <Gold.Chemscore.Hbonds>
donor molecule, donor type, donor heavy atom, donor atom, acceptor molecule, acceptor atom, score
      P1  H  7989  7998       L1     8  0.78

> <Gold.Chemscore.Hbond.Weighted>
-7.8768

> <Gold.Chemscore.Metal.Weighted>
-0.0000

> <Gold.Chemscore.Lipo.Weighted>
-13.0959

> <Gold.Chemscore.Internal_Hbond.Weighted>
0.0000

> <Gold.Chemscore.DEClash.Weighted>
2.1122

> <Gold.Chemscore.DEInternal.Weighted>
1.9705

> <Gold.Chemscore.Rot.Weighted>
6.9925

> <Gold.Chemscore.Internal.Correction.Weighted>
   9.000000E+99

> <Gold.Protein.RotatedTorsions>
[ 6907 6896 6895 6894 ] final  -21.52 input  -60.11 | X-H torsion
[ 7974 7965 7964 7962 ] final  179.82 input  175.53 | X-H torsion
[ 8008 7997 7996 7995 ] final  157.93 input   59.86 | X-H torsion
[ 10167 10162 10161 10158 ] final  -44.48 input  -65.29 | X-H torsion
[ 10718 10713 10712 10709 ] final  117.06 input   66.30 | X-H torsion
[ 10763 10752 10751 10750 ] final -147.65 input  -60.55 | X-H torsion
[ 11005 11000 10999 10996 ] final  -63.35 input  -57.11 | X-H torsion

> <Gold.Protein.ActiveResidues>
 VAL166  LYS551  ARG553  GLY616  TRP617  ASP618  TYR619  PRO620  LYS621  CYS622 
 ASP623  PHE694  ASN695  SER759  ASP760  ASP761  ALA762  ILE779  LEU786  VAL792 
 PHE793  MET794  SER795  GLU796  ALA797  LYS798  CYS799  TRP800  GLU811  SER814 

> <Gold.Protein.RotatedAtoms>
  151.2322  135.0558  159.8991 H   0  0  0  0  0  0  0  0  0  0  0  0  # atno 6907 bound_to 6896
  152.5403  134.0525  159.8126 H   0  0  0  0  0  0  0  0  0  0  0  0  # atno 6908 bound_to 6896
  151.0706  133.5420  159.2659 H   0  0  0  0  0  0  0  0  0  0  0  0  # atno 6909 bound_to 6896
  144.7142  140.0606  143.6432 H   0  0  0  0  0  0  0  0  0  0  0  0  # atno 7974 bound_to 7965
  156.2334  140.1872  156.7183 H   0  0  0  0  0  0  0  0  0  0  0  0  # atno 8008 bound_to 7997
  154.6063  140.0628  156.9462 H   0  0  0  0  0  0  0  0  0  0  0  0  # atno 8009 bound_to 7997
  155.2091  140.3298  155.4334 H   0  0  0  0  0  0  0  0  0  0  0  0  # atno 8010 bound_to 7997
  140.6895  143.2928  151.3501 H   0  0  0  0  0  0  0  0  0  0  0  0  # atno 10167 bound_to 10162
  157.6120  131.1033  150.7562 H   0  0  0  0  0  0  0  0  0  0  0  0  # atno 10718 bound_to 10713
  154.8275  135.3355  154.6851 H   0  0  0  0  0  0  0  0  0  0  0  0  # atno 10763 bound_to 10752
  153.7475  135.6941  153.4957 H   0  0  0  0  0  0  0  0  0  0  0  0  # atno 10764 bound_to 10752
  153.2200  135.4452  155.0429 H   0  0  0  0  0  0  0  0  0  0  0  0  # atno 10765 bound_to 10752
  141.1390  133.6651  156.5666 H   0  0  0  0  0  0  0  0  0  0  0  0  # atno 11005 bound_to 11000
  145.9867  139.2983  143.1009 LP  0  0  0  0  0  0  0  0  0  0  0  0  # atno 17320 bound_to 7965
  145.8949  140.9280  143.0533 LP  0  0  0  0  0  0  0  0  0  0  0  0  # atno 17321 bound_to 7965
  139.6284  144.0768  152.2455 LP  0  0  0  0  0  0  0  0  0  0  0  0  # atno 17342 bound_to 10162
  140.0235  144.6135  150.7547 LP  0  0  0  0  0  0  0  0  0  0  0  0  # atno 17343 bound_to 10162
  156.7937  130.4898  149.5380 LP  0  0  0  0  0  0  0  0  0  0  0  0  # atno 17370 bound_to 10713
  156.1227  130.6122  151.0218 LP  0  0  0  0  0  0  0  0  0  0  0  0  # atno 17371 bound_to 10713
  140.3946  134.7410  157.4742 LP  0  0  0  0  0  0  0  0  0  0  0  0  # atno 17394 bound_to 11000
  140.0541  134.6089  155.8826 LP  0  0  0  0  0  0  0  0  0  0  0  0  # atno 17395 bound_to 11000

$$$$
