AV-unprocessed.smi:2246|AV-procd|sdf|9085|dock2
  -GOLD-   2272012283D 1   1.00000     0.00000
 Structure written by MMmdl.
 28 29  0  0  0  0  0  0  0  0  2 V2000
  153.8086  139.4934  158.5321 O   0  0  0  0  0  0  0  0  0  0  0  0
  154.0116  140.0069  159.6318 C   0  0  0  0  0  0  0  0  0  0  0  0
  155.1791  139.6000  160.5292 C   0  0  2  0  0  0  0  0  0  0  0  0
  155.0532  138.1834  160.9513 N   0  0  0  0  0  0  0  0  0  0  0  0
  154.6604  137.8974  162.2769 C   0  0  0  0  0  0  0  0  0  0  0  0
  154.4852  136.6394  162.7233 C   0  0  0  0  0  0  0  0  0  0  0  0
  154.0009  136.3328  164.3532 Cl  0  0  0  0  0  0  0  0  0  0  0  0
  154.7060  135.5431  161.7851 C   0  0  0  0  0  0  0  0  0  0  0  0
  154.5748  134.3803  162.1646 O   0  0  0  0  0  0  0  0  0  0  0  0
  155.0510  135.8664  160.5053 N   0  5  0  0  0  0  0  0  0  0  0  0
  155.2122  137.1523  160.0648 C   0  0  0  0  0  0  0  0  0  0  0  0
  155.5007  137.4040  158.8948 O   0  0  0  0  0  0  0  0  0  0  0  0
  155.0654  140.5971  161.7036 C   0  0  0  0  0  0  0  0  0  0  0  0
  153.7693  141.3906  161.4904 C   0  0  0  0  0  0  0  0  0  0  0  0
  153.2790  140.9788  160.1872 N   0  0  0  0  0  0  0  0  0  0  0  0
  152.0895  141.6036  159.6112 C   0  0  0  0  0  0  0  0  0  0  0  0
  152.1916  143.1399  159.5730 C   0  0  0  0  0  0  0  0  0  0  0  0
  151.2886  143.6115  158.7142 F   0  0  0  0  0  0  0  0  0  0  0  0
  151.9521  143.6726  160.7710 F   0  0  0  0  0  0  0  0  0  0  0  0
  153.4032  143.5144  159.1619 F   0  0  0  0  0  0  0  0  0  0  0  0
  156.1065  139.8047  159.9926 H   0  0  0  0  0  0  0  0  0  0  0  0
  154.4975  138.7578  162.9080 H   0  0  0  0  0  0  0  0  0  0  0  0
  155.0933  140.1217  162.6846 H   0  0  0  0  0  0  0  0  0  0  0  0
  155.9152  141.2805  161.6765 H   0  0  0  0  0  0  0  0  0  0  0  0
  153.0309  141.1474  162.2552 H   0  0  0  0  0  0  0  0  0  0  0  0
  153.9492  142.4659  161.5194 H   0  0  0  0  0  0  0  0  0  0  0  0
  151.9436  141.2222  158.5996 H   0  0  0  0  0  0  0  0  0  0  0  0
  151.2077  141.3016  160.1785 H   0  0  0  0  0  0  0  0  0  0  0  0
  1  2  2  0  0  0  0
  2 15  1  0  0  0  0
  2  3  1  0  0  0  0
  3  4  1  0  0  0  0
  3 13  1  0  0  0  0
  3 21  1  0  0  0  0
  4 11  1  0  0  0  0
  4  5  1  0  0  0  0
  5  6  2  0  0  0  0
  5 22  1  0  0  0  0
  6  7  1  0  0  0  0
  6  8  1  0  0  0  0
  8  9  2  0  0  0  0
  8 10  1  0  0  0  0
 10 11  1  0  0  0  0
 11 12  2  0  0  0  0
 13 14  1  0  0  0  0
 13 23  1  0  0  0  0
 13 24  1  0  0  0  0
 14 15  1  0  0  0  0
 14 25  1  0  0  0  0
 14 26  1  0  0  0  0
 15 16  1  0  0  0  0
 16 17  1  0  0  0  0
 16 27  1  0  0  0  0
 16 28  1  0  0  0  0
 17 18  1  0  0  0  0
 17 19  1  0  0  0  0
 17 20  1  0  0  0  0
M  CHG  1  10  -1
M  END
> <s_m_source_file>
AV-unprocessed.smi

> <i_m_source_file_index>
2246

> <i_lp_mmshare_version>
43012

> <i_f3d_flags>
0

> <s_epik_input>
RkMoRikoRilbQ0gyXU4xW0NIMl1bQ0gyXVtDQEBIXShDMT1PKW4yW2NIXWMoQ2wpYyg9TylbbkhdYzI9Tw==

> <s_epik_cmdline>
J2VwaWtfcHl0aG9uJywgJy1waCcsICc3LjAnLCAnLXRuJywgJzgnLCAnLW1hJywgJzIwMCcsICctbWV0YWxfYmluZGluZycsICctaW1hZScsICc8aW5maWxlLm1hZT4nLCAnLW9tYWUnLCAnPG91dGZpbGUubWFlPic=

> <r_epik_Ionization_Penalty>
1.33611

> <r_epik_Ionization_Penalty_Charging>
6.88308e-09

> <r_epik_Ionization_Penalty_Neutral>
1.33611

> <r_epik_State_Penalty>
1.41295

> <r_epik_Charging_Adjusted_Penalty>
1.41295

> <i_epik_Tot_Q>
-1

> <i_epik_Tot_abs_Q>
1

> <r_epik_Metal_State_Penalty>
0.00581136

> <b_epik_Metal_Only>
0

> <s_lp_Force_Field>
OPLS_2005

> <r_lp_Energy>
31.0989

> <b_lp_Chiralities_Consistent>
1

> <s_lp_Variant>
AV-unprocessed.smi:2246-4

> <Gold.Version>
5.8.1

> <Gold.Id.Protein>
6NUR|6NUR_protein|mol2

> <Gold.PLP.Fitness>
41.3405

> <Gold.PLP.PLP>
-39.0932

> <Gold.PLP.part.hbond>
-1.0000

> <Gold.PLP.part.metal>
0.0000

> <Gold.PLP.part.buried>
-2.1415

> <Gold.PLP.part.nonpolar>
-35.0032

> <Gold.PLP.part.repulsive>
0.0000

> <Gold.PLP.ligand.clash>
0.0000

> <Gold.PLP.ligand.torsion>
0.4481

> <Gold.PLP.Chemscore.Hbond>
1.0000

> <Gold.PLP.Chemscore.CHOScore>
0.0000

> <Gold.PLP.Chemscore.Metal>
0.0000

> <Gold.Chemscore.Hbonds>
donor molecule, donor type, donor heavy atom, donor atom, acceptor molecule, acceptor atom, score
      P1  H  7997  8008       L1     1  1.00

> <Gold.PLP.Chemscore.Internal.Correction>
0.1435

> <Gold.Rescore>
     Score         DG    S(hbond)    S(metal)    S(lipo)     H(rot)  DE(clash)    DE(int)     intcor
     11.04     -13.17       1.00        0.00      68.83       1.45       0.12       2.01       ----

> <Gold.Chemscore.Fitness>
11.0409

> <Gold.Chemscore.DG>
-13.1669

> <Gold.Chemscore.ZeroCoef>
-5.4800

> <Gold.Chemscore.Hbond>
0.9998

> <Gold.Chemscore.Metal>
0.0000

> <Gold.Chemscore.Lipo>
68.8341

> <Gold.Chemscore.Internal_Hbond>
0.0000

> <Gold.Chemscore.DEClash>
0.1200

> <Gold.Chemscore.DEInternal>
2.0061

> <Gold.Chemscore.Rot>
1.4476

> <Gold.Chemscore.Internal.Correction>
   9.000000E+99

> <Gold.Chemscore.Hbonds>
donor molecule, donor type, donor heavy atom, donor atom, acceptor molecule, acceptor atom, score
      P1  H  7997  8008       L1     1  0.84

> <Gold.Chemscore.Hbond.Weighted>
-3.3392

> <Gold.Chemscore.Metal.Weighted>
-0.0000

> <Gold.Chemscore.Lipo.Weighted>
-8.0536

> <Gold.Chemscore.Internal_Hbond.Weighted>
0.0000

> <Gold.Chemscore.DEClash.Weighted>
0.1200

> <Gold.Chemscore.DEInternal.Weighted>
2.0061

> <Gold.Chemscore.Rot.Weighted>
3.7059

> <Gold.Chemscore.Internal.Correction.Weighted>
   9.000000E+99

> <Gold.Protein.RotatedTorsions>
[ 6907 6896 6895 6894 ] final -176.29 input  -60.11 | X-H torsion
[ 7974 7965 7964 7962 ] final  -47.86 input  175.53 | X-H torsion
[ 8008 7997 7996 7995 ] final -114.23 input   59.86 | X-H torsion
[ 10167 10162 10161 10158 ] final -117.11 input  -65.29 | X-H torsion
[ 10718 10713 10712 10709 ] final  -77.23 input   66.30 | X-H torsion
[ 10763 10752 10751 10750 ] final   65.33 input  -60.55 | X-H torsion
[ 11005 11000 10999 10996 ] final   79.19 input  -57.11 | X-H torsion

> <Gold.Protein.ActiveResidues>
 VAL166  LYS551  ARG553  GLY616  TRP617  ASP618  TYR619  PRO620  LYS621  CYS622 
 ASP623  PHE694  ASN695  SER759  ASP760  ASP761  ALA762  ILE779  LEU786  VAL792 
 PHE793  MET794  SER795  GLU796  ALA797  LYS798  CYS799  TRP800  GLU811  SER814 

> <Gold.Protein.RotatedAtoms>
  151.6024  133.3355  159.3049 H   0  0  0  0  0  0  0  0  0  0  0  0  # atno 6907 bound_to 6896
  150.8200  134.7406  159.6775 H   0  0  0  0  0  0  0  0  0  0  0  0  # atno 6908 bound_to 6896
  152.4294  134.5812  160.0000 H   0  0  0  0  0  0  0  0  0  0  0  0  # atno 6909 bound_to 6896
  145.9572  140.7515  142.9475 H   0  0  0  0  0  0  0  0  0  0  0  0  # atno 7974 bound_to 7965
  155.0330  140.0393  157.2481 H   0  0  0  0  0  0  0  0  0  0  0  0  # atno 8008 bound_to 7997
  154.7280  140.2725  155.6458 H   0  0  0  0  0  0  0  0  0  0  0  0  # atno 8009 bound_to 7997
  156.2834  140.2689  156.1972 H   0  0  0  0  0  0  0  0  0  0  0  0  # atno 8010 bound_to 7997
  140.0719  143.4869  152.1975 H   0  0  0  0  0  0  0  0  0  0  0  0  # atno 10167 bound_to 10162
  156.0151  130.4486  150.3313 H   0  0  0  0  0  0  0  0  0  0  0  0  # atno 10718 bound_to 10713
  153.0092  135.5361  154.6649 H   0  0  0  0  0  0  0  0  0  0  0  0  # atno 10763 bound_to 10752
  154.5849  135.2853  155.0697 H   0  0  0  0  0  0  0  0  0  0  0  0  # atno 10764 bound_to 10752
  154.1813  135.6516  153.5087 H   0  0  0  0  0  0  0  0  0  0  0  0  # atno 10765 bound_to 10752
  139.9182  134.7823  156.1746 H   0  0  0  0  0  0  0  0  0  0  0  0  # atno 11005 bound_to 11000
  144.6807  140.2531  143.7329 LP  0  0  0  0  0  0  0  0  0  0  0  0  # atno 17320 bound_to 7965
  145.8090  139.1995  143.2004 LP  0  0  0  0  0  0  0  0  0  0  0  0  # atno 17321 bound_to 7965
  139.5831  144.7519  151.3589 LP  0  0  0  0  0  0  0  0  0  0  0  0  # atno 17342 bound_to 10162
  140.7121  143.7362  150.7587 LP  0  0  0  0  0  0  0  0  0  0  0  0  # atno 17343 bound_to 10162
  157.1411  131.0297  151.2927 LP  0  0  0  0  0  0  0  0  0  0  0  0  # atno 17370 bound_to 10713
  157.4471  130.7577  149.7119 LP  0  0  0  0  0  0  0  0  0  0  0  0  # atno 17371 bound_to 10713
  141.0679  133.6810  156.2082 LP  0  0  0  0  0  0  0  0  0  0  0  0  # atno 17394 bound_to 11000
  140.6554  134.5023  157.5580 LP  0  0  0  0  0  0  0  0  0  0  0  0  # atno 17395 bound_to 11000

$$$$
