AV-unprocessed.smi:2439|AV-procd|sdf|9609|dock1
  -GOLD-   2272013243D 1   1.00000     0.00000
 Structure written by MMmdl.
 41 43  0  0  0  0  0  0  0  0  2 V2000
  152.6235  137.3533  154.5895 N   0  0  0  0  0  0  0  0  0  0  0  0
  151.9312  138.2350  154.8757 C   0  0  0  0  0  0  0  0  0  0  0  0
  151.0574  139.3447  155.2369 C   0  0  0  0  0  0  0  0  0  0  0  0
  151.6261  140.5107  155.7911 C   0  0  0  0  0  0  0  0  0  0  0  0
  150.7857  141.5823  156.1440 C   0  0  0  0  0  0  0  0  0  0  0  0
  149.4029  141.4446  155.9264 C   0  0  0  0  0  0  0  0  0  0  0  0
  148.8455  140.3353  155.3971 N   0  0  0  0  0  0  0  0  0  0  0  0
  149.6489  139.2980  155.0556 C   0  0  0  0  0  0  0  0  0  0  0  0
  149.0375  138.1559  154.5086 N   0  0  0  0  0  0  0  0  0  0  0  0
  147.8711  138.2679  153.6444 C   0  0  0  0  0  0  0  0  0  0  0  0
  146.6435  137.5647  154.2560 C   0  0  2  0  0  0  0  0  0  0  0  0
  146.7922  136.0325  154.3090 C   0  0  0  0  0  0  0  0  0  0  0  0
  146.7024  135.4348  152.9559 N   0  3  1  0  0  0  0  0  0  0  0  0
  146.8853  133.9611  152.9815 C   0  0  0  0  0  0  0  0  0  0  0  0
  146.8755  133.3747  151.5612 C   0  0  0  0  0  0  0  0  0  0  0  0
  145.5847  133.7540  150.8249 C   0  0  0  0  0  0  0  0  0  0  0  0
  145.4067  135.2778  150.8320 C   0  0  0  0  0  0  0  0  0  0  0  0
  145.4485  135.8434  152.2663 C   0  0  2  0  0  0  0  0  0  0  0  0
  145.3267  137.3792  152.2578 C   0  0  0  0  0  0  0  0  0  0  0  0
  145.4295  137.8956  153.5807 O   0  0  0  0  0  0  0  0  0  0  0  0
  152.6927  140.5881  155.9475 H   0  0  0  0  0  0  0  0  0  0  0  0
  151.1917  142.4874  156.5713 H   0  0  0  0  0  0  0  0  0  0  0  0
  148.7258  142.2452  156.1847 H   0  0  0  0  0  0  0  0  0  0  0  0
  149.3316  137.2384  154.8130 H   0  0  0  0  0  0  0  0  0  0  0  0
  147.6590  139.3167  153.4378 H   0  0  0  0  0  0  0  0  0  0  0  0
  148.1121  137.8058  152.6863 H   0  0  0  0  0  0  0  0  0  0  0  0
  146.5383  137.9211  155.2815 H   0  0  0  0  0  0  0  0  0  0  0  0
  147.7425  135.7639  154.7723 H   0  0  0  0  0  0  0  0  0  0  0  0
  146.0053  135.6118  154.9371 H   0  0  0  0  0  0  0  0  0  0  0  0
  147.8307  133.7192  153.4688 H   0  0  0  0  0  0  0  0  0  0  0  0
  146.0946  133.5047  153.5792 H   0  0  0  0  0  0  0  0  0  0  0  0
  147.7387  133.7425  151.0049 H   0  0  0  0  0  0  0  0  0  0  0  0
  146.9742  132.2896  151.6049 H   0  0  0  0  0  0  0  0  0  0  0  0
  145.6119  133.3821  149.8002 H   0  0  0  0  0  0  0  0  0  0  0  0
  144.7298  133.2794  151.3084 H   0  0  0  0  0  0  0  0  0  0  0  0
  146.1935  135.7357  150.2304 H   0  0  0  0  0  0  0  0  0  0  0  0
  144.4620  135.5391  150.3538 H   0  0  0  0  0  0  0  0  0  0  0  0
  144.6064  135.4348  152.8280 H   0  0  0  0  0  0  0  0  0  0  0  0
  146.0776  137.8324  151.6102 H   0  0  0  0  0  0  0  0  0  0  0  0
  144.3582  137.6726  151.8521 H   0  0  0  0  0  0  0  0  0  0  0  0
  147.4681  135.8140  152.4172 H   0  0  0  0  0  0  0  0  0  0  0  0
  1  2  3  0  0  0  0
  2  3  1  0  0  0  0
  3  8  1  0  0  0  0
  3  4  2  0  0  0  0
  4  5  1  0  0  0  0
  4 21  1  0  0  0  0
  5  6  2  0  0  0  0
  5 22  1  0  0  0  0
  6  7  1  0  0  0  0
  6 23  1  0  0  0  0
  7  8  2  0  0  0  0
  8  9  1  0  0  0  0
  9 10  1  0  0  0  0
  9 24  1  0  0  0  0
 10 11  1  0  0  0  0
 10 25  1  0  0  0  0
 10 26  1  0  0  0  0
 11 20  1  0  0  0  0
 11 12  1  0  0  0  0
 11 27  1  0  0  0  0
 12 13  1  0  0  0  0
 12 28  1  0  0  0  0
 12 29  1  0  0  0  0
 13 18  1  0  0  0  0
 13 14  1  0  0  0  0
 13 41  1  0  0  0  0
 14 15  1  0  0  0  0
 14 30  1  0  0  0  0
 14 31  1  0  0  0  0
 15 16  1  0  0  0  0
 15 32  1  0  0  0  0
 15 33  1  0  0  0  0
 16 17  1  0  0  0  0
 16 34  1  0  0  0  0
 16 35  1  0  0  0  0
 17 18  1  0  0  0  0
 17 36  1  0  0  0  0
 17 37  1  0  0  0  0
 18 19  1  0  0  0  0
 18 38  1  0  0  0  0
 19 20  1  0  0  0  0
 19 39  1  0  0  0  0
 19 40  1  0  0  0  0
M  CHG  1  13   1
M  END
> <s_m_source_file>
AV-unprocessed.smi

> <i_m_source_file_index>
2439

> <i_lp_mmshare_version>
43012

> <i_f3d_flags>
0

> <s_epik_input>
TiNDYzFbY0hdW2NIXVtjSF1uYzFbTkhdW0NIMl1bQ0BIXShbQ0gyXTIpT1tDSDJdW0NAQEhdKE4yMylbQ0gyXVtDSDJdW0NIMl1bQ0gyXTM=

> <s_epik_cmdline>
J2VwaWtfcHl0aG9uJywgJy1waCcsICc3LjAnLCAnLXRuJywgJzgnLCAnLW1hJywgJzIwMCcsICctbWV0YWxfYmluZGluZycsICctaW1hZScsICc8aW5maWxlLm1hZT4nLCAnLW9tYWUnLCAnPG91dGZpbGUubWFlPic=

> <r_epik_Ionization_Penalty>
0.0803594

> <r_epik_Ionization_Penalty_Charging>
0.0803403

> <r_epik_Ionization_Penalty_Neutral>
1.90988e-05

> <r_epik_State_Penalty>
0.0711481

> <r_epik_Charging_Adjusted_Penalty>
0.151488

> <i_epik_Tot_Q>
1

> <i_epik_Tot_abs_Q>
1

> <r_epik_Metal_State_Penalty>
0.0711482

> <b_epik_Metal_Only>
0

> <s_lp_Force_Field>
OPLS_2005

> <r_lp_Energy>
31.556

> <b_lp_Chiralities_Consistent>
1

> <s_lp_Variant>
AV-unprocessed.smi:2439-7

> <Gold.Version>
5.8.1

> <Gold.Id.Protein>
6NUR|6NUR_protein|mol2

> <Gold.PLP.Fitness>
38.2099

> <Gold.PLP.PLP>
-28.2791

> <Gold.PLP.part.hbond>
-2.0586

> <Gold.PLP.part.metal>
0.0000

> <Gold.PLP.part.buried>
-0.4755

> <Gold.PLP.part.nonpolar>
-26.3634

> <Gold.PLP.part.repulsive>
0.3297

> <Gold.PLP.ligand.clash>
0.0000

> <Gold.PLP.ligand.torsion>
0.3033

> <Gold.PLP.Chemscore.Hbond>
2.5120

> <Gold.PLP.Chemscore.CHOScore>
0.9975

> <Gold.PLP.Chemscore.Metal>
0.0000

> <Gold.Chemscore.Hbonds>
donor molecule, donor type, donor heavy atom, donor atom, acceptor molecule, acceptor atom, score
      L1  H    13    41       P1  7948  2.00
      P1  H 10752 10765       L1     1  0.51
      L1  C     6    23       P1  8028  1.00

> <Gold.PLP.Chemscore.Internal.Correction>
0.0090

> <Gold.Rescore>
     Score         DG    S(hbond)    S(metal)    S(lipo)     H(rot)  DE(clash)    DE(int)     intcor
     14.94     -15.37       1.69        0.00      64.09       1.27       0.10       0.33       ----

> <Gold.Chemscore.Fitness>
14.9362

> <Gold.Chemscore.DG>
-15.3677

> <Gold.Chemscore.ZeroCoef>
-5.4800

> <Gold.Chemscore.Hbond>
1.6856

> <Gold.Chemscore.Metal>
0.0000

> <Gold.Chemscore.Lipo>
64.0888

> <Gold.Chemscore.Internal_Hbond>
0.0000

> <Gold.Chemscore.DEClash>
0.1036

> <Gold.Chemscore.DEInternal>
0.3279

> <Gold.Chemscore.Rot>
1.2659

> <Gold.Chemscore.Internal.Correction>
   9.000000E+99

> <Gold.Chemscore.Hbonds>
donor molecule, donor type, donor heavy atom, donor atom, acceptor molecule, acceptor atom, score
      L1  H    13    41       P1  7948  0.99
      P1  H 10752 10765       L1     1  0.50

> <Gold.Chemscore.Hbond.Weighted>
-5.6300

> <Gold.Chemscore.Metal.Weighted>
-0.0000

> <Gold.Chemscore.Lipo.Weighted>
-7.4984

> <Gold.Chemscore.Internal_Hbond.Weighted>
0.0000

> <Gold.Chemscore.DEClash.Weighted>
0.1036

> <Gold.Chemscore.DEInternal.Weighted>
0.3279

> <Gold.Chemscore.Rot.Weighted>
3.2408

> <Gold.Chemscore.Internal.Correction.Weighted>
   9.000000E+99

> <Gold.Protein.RotatedTorsions>
[ 6907 6896 6895 6894 ] final   68.38 input  -60.11 | X-H torsion
[ 7974 7965 7964 7962 ] final  116.82 input  175.53 | X-H torsion
[ 8008 7997 7996 7995 ] final    6.20 input   59.86 | X-H torsion
[ 10167 10162 10161 10158 ] final  136.11 input  -65.29 | X-H torsion
[ 10718 10713 10712 10709 ] final  -64.13 input   66.30 | X-H torsion
[ 10763 10752 10751 10750 ] final  149.05 input  -60.55 | X-H torsion
[ 11005 11000 10999 10996 ] final  -14.85 input  -57.11 | X-H torsion

> <Gold.Protein.ActiveResidues>
 VAL166  LYS551  ARG553  GLY616  TRP617  ASP618  TYR619  PRO620  LYS621  CYS622 
 ASP623  PHE694  ASN695  SER759  ASP760  ASP761  ALA762  ILE779  LEU786  VAL792 
 PHE793  MET794  SER795  GLU796  ALA797  LYS798  CYS799  TRP800  GLU811  SER814 

> <Gold.Protein.RotatedAtoms>
  152.4616  134.5171  159.9771 H   0  0  0  0  0  0  0  0  0  0  0  0  # atno 6907 bound_to 6896
  151.5219  133.3459  159.2910 H   0  0  0  0  0  0  0  0  0  0  0  0  # atno 6908 bound_to 6896
  150.8581  134.7955  159.7124 H   0  0  0  0  0  0  0  0  0  0  0  0  # atno 6909 bound_to 6896
  145.1750  139.3081  143.4448 H   0  0  0  0  0  0  0  0  0  0  0  0  # atno 7974 bound_to 7965
  154.7380  140.2743  155.6398 H   0  0  0  0  0  0  0  0  0  0  0  0  # atno 8008 bound_to 7997
  156.2866  140.2702  156.2025 H   0  0  0  0  0  0  0  0  0  0  0  0  # atno 8009 bound_to 7997
  155.0295  140.0371  157.2458 H   0  0  0  0  0  0  0  0  0  0  0  0  # atno 8010 bound_to 7997
  139.5192  144.6481  151.5380 H   0  0  0  0  0  0  0  0  0  0  0  0  # atno 10167 bound_to 10162
  156.0748  130.4229  150.1377 H   0  0  0  0  0  0  0  0  0  0  0  0  # atno 10718 bound_to 10713
  154.0649  135.2871  155.3318 H   0  0  0  0  0  0  0  0  0  0  0  0  # atno 10763 bound_to 10752
  154.6784  135.5272  153.8234 H   0  0  0  0  0  0  0  0  0  0  0  0  # atno 10764 bound_to 10752
  153.0508  135.6575  154.0834 H   0  0  0  0  0  0  0  0  0  0  0  0  # atno 10765 bound_to 10752
  140.7906  133.8291  155.9376 H   0  0  0  0  0  0  0  0  0  0  0  0  # atno 11005 bound_to 11000
  146.3462  140.1909  142.8589 LP  0  0  0  0  0  0  0  0  0  0  0  0  # atno 17320 bound_to 7965
  145.0194  140.8781  143.5176 LP  0  0  0  0  0  0  0  0  0  0  0  0  # atno 17321 bound_to 7965
  140.6275  143.9140  150.6577 LP  0  0  0  0  0  0  0  0  0  0  0  0  # atno 17342 bound_to 10162
  140.2434  143.3647  152.1468 LP  0  0  0  0  0  0  0  0  0  0  0  0  # atno 17343 bound_to 10162
  156.9420  130.9747  151.3514 LP  0  0  0  0  0  0  0  0  0  0  0  0  # atno 17370 bound_to 10713
  157.5837  130.8394  149.8559 LP  0  0  0  0  0  0  0  0  0  0  0  0  # atno 17371 bound_to 10713
  140.9393  134.1921  157.4809 LP  0  0  0  0  0  0  0  0  0  0  0  0  # atno 17394 bound_to 11000
  139.8731  134.9865  156.5328 LP  0  0  0  0  0  0  0  0  0  0  0  0  # atno 17395 bound_to 11000

$$$$
