AV-unprocessed.smi:52|AV-procd|sdf|511|dock1
  -GOLD-   2262016383D 1   1.00000     0.00000
 Structure written by MMmdl.
 26 27  0  0  0  0  0  0  0  0  2 V2000
  151.2700  136.6925  158.4670 O   0  0  0  0  0  0  0  0  0  0  0  0
  151.8670  136.7759  157.3708 C   0  0  0  0  0  0  0  0  0  0  0  0
  152.7051  135.9204  157.0098 O   0  5  0  0  0  0  0  0  0  0  0  0
  151.5716  137.9232  156.4736 C   0  0  0  0  0  0  0  0  0  0  0  0
  152.0890  138.1408  155.2217 C   0  0  0  0  0  0  0  0  0  0  0  0
  151.5732  139.3037  154.7168 O   0  0  0  0  0  0  0  0  0  0  0  0
  150.7484  139.7580  155.6991 C   0  0  0  0  0  0  0  0  0  0  0  0
  150.0104  141.0395  155.4918 C   0  0  0  0  0  0  0  0  0  0  0  0
  149.0919  140.9936  154.3591 N   0  0  0  0  0  0  0  0  0  0  0  0
  148.0363  141.9920  154.4180 C   0  0  0  0  0  0  0  0  0  0  0  0
  146.9184  141.5004  153.4879 C   0  0  0  0  0  0  0  0  0  0  0  0
  147.2480  140.0158  153.2609 C   0  0  2  0  0  0  0  0  0  0  0  0
  146.1382  139.1689  153.4719 O   0  0  0  0  0  0  0  0  0  0  0  0
  148.3731  139.7409  154.2592 C   0  0  0  0  0  0  0  0  0  0  0  0
  150.7093  138.9712  156.7719 N   0  0  0  0  0  0  0  0  0  0  0  0
  147.6186  139.8743  152.2448 H   0  0  0  0  0  0  0  0  0  0  0  0
  152.7846  137.6021  154.5956 H   0  0  0  0  0  0  0  0  0  0  0  0
  149.4547  141.2553  156.4048 H   0  0  0  0  0  0  0  0  0  0  0  0
  150.7322  141.8477  155.3657 H   0  0  0  0  0  0  0  0  0  0  0  0
  147.6466  142.0617  155.4351 H   0  0  0  0  0  0  0  0  0  0  0  0
  148.4040  142.9797  154.1382 H   0  0  0  0  0  0  0  0  0  0  0  0
  145.9420  141.6483  153.9512 H   0  0  0  0  0  0  0  0  0  0  0  0
  146.9249  142.0423  152.5415 H   0  0  0  0  0  0  0  0  0  0  0  0
  145.3708  139.5851  153.1102 H   0  0  0  0  0  0  0  0  0  0  0  0
  149.0228  138.9251  153.9407 H   0  0  0  0  0  0  0  0  0  0  0  0
  147.9525  139.4760  155.2314 H   0  0  0  0  0  0  0  0  0  0  0  0
  1  2  2  0  0  0  0
  2  3  1  0  0  0  0
  2  4  1  0  0  0  0
  4 15  1  0  0  0  0
  4  5  2  0  0  0  0
  5  6  1  0  0  0  0
  5 17  1  0  0  0  0
  6  7  1  0  0  0  0
  7  8  1  0  0  0  0
  7 15  2  0  0  0  0
  8  9  1  0  0  0  0
  8 18  1  0  0  0  0
  8 19  1  0  0  0  0
  9 14  1  0  0  0  0
  9 10  1  0  0  0  0
 10 11  1  0  0  0  0
 10 20  1  0  0  0  0
 10 21  1  0  0  0  0
 11 12  1  0  0  0  0
 11 22  1  0  0  0  0
 11 23  1  0  0  0  0
 12 16  1  0  0  0  0
 12 13  1  0  0  0  0
 12 14  1  0  0  0  0
 13 24  1  0  0  0  0
 14 25  1  0  0  0  0
 14 26  1  0  0  0  0
M  CHG  1   3  -1
M  END
> <s_m_source_file>
AV-unprocessed.smi

> <i_m_source_file_index>
52

> <i_lp_mmshare_version>
43012

> <i_f3d_flags>
0

> <s_epik_input>
Tz1DKFtPSF0pYzFbY0hdb2MobjEpW0NIMl1OMltDSDJdW0NIMl1bQ0BIXShbT0hdKVtDSDJdMg==

> <s_epik_cmdline>
J2VwaWtfcHl0aG9uJywgJy1waCcsICc3LjAnLCAnLXRuJywgJzgnLCAnLW1hJywgJzIwMCcsICctbWV0YWxfYmluZGluZycsICctaW1hZScsICc8aW5maWxlLm1hZT4nLCAnLW9tYWUnLCAnPG91dGZpbGUubWFlPic=

> <r_epik_Ionization_Penalty>
1.6537

> <r_epik_Ionization_Penalty_Charging>
0.000221913

> <r_epik_Ionization_Penalty_Neutral>
1.65348

> <r_epik_State_Penalty>
1.75577

> <r_epik_Charging_Adjusted_Penalty>
1.75599

> <i_epik_Tot_Q>
-1

> <i_epik_Tot_abs_Q>
1

> <r_epik_Metal_State_Penalty>
1.75577

> <b_epik_Metal_Only>
0

> <s_lp_Force_Field>
OPLS_2005

> <r_lp_Energy>
35.4981

> <b_lp_Chiralities_Consistent>
1

> <s_lp_Variant>
AV-unprocessed.smi:52-5

> <Gold.Version>
5.8.1

> <Gold.Id.Protein>
6NUR|6NUR_protein|mol2

> <Gold.PLP.Fitness>
37.6510

> <Gold.PLP.PLP>
-22.0438

> <Gold.PLP.part.hbond>
-4.0000

> <Gold.PLP.part.metal>
0.0000

> <Gold.PLP.part.buried>
-3.2498

> <Gold.PLP.part.nonpolar>
-16.1196

> <Gold.PLP.part.repulsive>
0.2087

> <Gold.PLP.ligand.clash>
0.0000

> <Gold.PLP.ligand.torsion>
0.2004

> <Gold.PLP.Chemscore.Hbond>
5.3338

> <Gold.PLP.Chemscore.CHOScore>
0.0000

> <Gold.PLP.Chemscore.Metal>
0.0000

> <Gold.Chemscore.Hbonds>
donor molecule, donor type, donor heavy atom, donor atom, acceptor molecule, acceptor atom, score
      L1  H    13    24       P1 10175  1.00
      P1  H  6896  6908       L1     1  1.17
      P1  H  7989  7998       L1     6  1.00
      P1  H 10752 10764       L1     3  2.00

> <Gold.PLP.Chemscore.Internal.Correction>
0.0067

> <Gold.Rescore>
     Score         DG    S(hbond)    S(metal)    S(lipo)     H(rot)  DE(clash)    DE(int)     intcor
     17.28     -17.40       3.59        0.00      42.18       1.95       0.03       0.09       ----

> <Gold.Chemscore.Fitness>
17.2833

> <Gold.Chemscore.DG>
-17.3982

> <Gold.Chemscore.ZeroCoef>
-5.4800

> <Gold.Chemscore.Hbond>
3.5852

> <Gold.Chemscore.Metal>
0.0000

> <Gold.Chemscore.Lipo>
42.1773

> <Gold.Chemscore.Internal_Hbond>
0.0000

> <Gold.Chemscore.DEClash>
0.0270

> <Gold.Chemscore.DEInternal>
0.0879

> <Gold.Chemscore.Rot>
1.9497

> <Gold.Chemscore.Internal.Correction>
   9.000000E+99

> <Gold.Chemscore.Hbonds>
donor molecule, donor type, donor heavy atom, donor atom, acceptor molecule, acceptor atom, score
      L1  H    13    24       P1 10175  0.95
      P1  H  6896  6908       L1     1  0.57
      P1  H  7989  7998       L1     6  0.34
      P1  H 10752 10764       L1     3  0.99

> <Gold.Chemscore.Hbond.Weighted>
-11.9747

> <Gold.Chemscore.Metal.Weighted>
-0.0000

> <Gold.Chemscore.Lipo.Weighted>
-4.9347

> <Gold.Chemscore.Internal_Hbond.Weighted>
0.0000

> <Gold.Chemscore.DEClash.Weighted>
0.0270

> <Gold.Chemscore.DEInternal.Weighted>
0.0879

> <Gold.Chemscore.Rot.Weighted>
4.9912

> <Gold.Chemscore.Internal.Correction.Weighted>
   9.000000E+99

> <Gold.Protein.RotatedTorsions>
[ 6907 6896 6895 6894 ] final -149.20 input  -60.11 | X-H torsion
[ 7974 7965 7964 7962 ] final    8.74 input  175.53 | X-H torsion
[ 8008 7997 7996 7995 ] final  -44.54 input   59.86 | X-H torsion
[ 10167 10162 10161 10158 ] final  -31.65 input  -65.29 | X-H torsion
[ 10718 10713 10712 10709 ] final   42.33 input   66.30 | X-H torsion
[ 10763 10752 10751 10750 ] final   -4.14 input  -60.55 | X-H torsion
[ 11005 11000 10999 10996 ] final -116.84 input  -57.11 | X-H torsion

> <Gold.Protein.ActiveResidues>
 VAL166  LYS551  ARG553  GLY616  TRP617  ASP618  TYR619  PRO620  LYS621  CYS622 
 ASP623  PHE694  ASN695  SER759  ASP760  ASP761  ALA762  ILE779  LEU786  VAL792 
 PHE793  MET794  SER795  GLU796  ALA797  LYS798  CYS799  TRP800  GLU811  SER814 

> <Gold.Protein.RotatedAtoms>
  151.1807  133.4727  159.2593 H   0  0  0  0  0  0  0  0  0  0  0  0  # atno 6907 bound_to 6896
  151.1262  135.0106  159.8571 H   0  0  0  0  0  0  0  0  0  0  0  0  # atno 6908 bound_to 6896
  152.5458  134.1714  159.8651 H   0  0  0  0  0  0  0  0  0  0  0  0  # atno 6909 bound_to 6896
  146.2412  139.9888  142.8428 H   0  0  0  0  0  0  0  0  0  0  0  0  # atno 7974 bound_to 7965
  154.3998  140.1419  156.3701 H   0  0  0  0  0  0  0  0  0  0  0  0  # atno 8008 bound_to 7997
  155.8101  140.3473  155.5432 H   0  0  0  0  0  0  0  0  0  0  0  0  # atno 8009 bound_to 7997
  155.8395  140.0924  157.1733 H   0  0  0  0  0  0  0  0  0  0  0  0  # atno 8010 bound_to 7997
  140.7233  143.3755  151.1698 H   0  0  0  0  0  0  0  0  0  0  0  0  # atno 10167 bound_to 10162
  157.4037  130.7874  149.7370 H   0  0  0  0  0  0  0  0  0  0  0  0  # atno 10718 bound_to 10713
  153.3809  135.6998  153.6566 H   0  0  0  0  0  0  0  0  0  0  0  0  # atno 10763 bound_to 10752
  153.5178  135.3618  155.2618 H   0  0  0  0  0  0  0  0  0  0  0  0  # atno 10764 bound_to 10752
  154.8692  135.4150  154.3106 H   0  0  0  0  0  0  0  0  0  0  0  0  # atno 10765 bound_to 10752
  141.0395  133.9858  157.3017 H   0  0  0  0  0  0  0  0  0  0  0  0  # atno 11005 bound_to 11000
  145.1522  140.9629  143.4426 LP  0  0  0  0  0  0  0  0  0  0  0  0  # atno 17320 bound_to 7965
  145.0194  139.3438  143.6080 LP  0  0  0  0  0  0  0  0  0  0  0  0  # atno 17321 bound_to 7965
  139.7334  143.9037  152.3027 LP  0  0  0  0  0  0  0  0  0  0  0  0  # atno 17342 bound_to 10162
  139.8833  144.7005  150.8852 LP  0  0  0  0  0  0  0  0  0  0  0  0  # atno 17343 bound_to 10162
  155.9830  130.4004  150.3385 LP  0  0  0  0  0  0  0  0  0  0  0  0  # atno 17370 bound_to 10713
  157.1516  131.0322  151.2882 LP  0  0  0  0  0  0  0  0  0  0  0  0  # atno 17371 bound_to 10713
  139.9265  135.0201  156.8252 LP  0  0  0  0  0  0  0  0  0  0  0  0  # atno 17394 bound_to 11000
  140.6261  133.9949  155.7640 LP  0  0  0  0  0  0  0  0  0  0  0  0  # atno 17395 bound_to 11000

$$$$
