AV-unprocessed.smi:1570|AV-procd|sdf|6321|dock9
  -GOLD-   22720 6533D 1   1.00000     0.00000
 Structure written by MMmdl.
 52 54  0  0  0  0  0  0  0  0  2 V2000
  152.4035  144.1692  157.2379 C   0  0  0  0  0  0  0  0  0  0  0  0
  152.0768  143.3841  158.5148 C   0  0  0  0  0  0  0  0  0  0  0  0
  152.3053  141.9535  158.3278 N   0  0  0  0  0  0  0  0  0  0  0  0
  151.7614  141.1687  157.3688 C   0  0  0  0  0  0  0  0  0  0  0  0
  150.9663  141.5294  156.5008 O   0  0  0  0  0  0  0  0  0  0  0  0
  152.2587  139.9176  157.5156 N   0  0  0  0  0  0  0  0  0  0  0  0
  151.9412  138.7571  156.6845 C   0  0  0  0  0  0  0  0  0  0  0  0
  151.7547  139.1466  155.2040 C   0  0  1  0  0  0  0  0  0  0  0  0
  153.0067  139.5624  154.6941 O   0  0  0  0  0  0  0  0  0  0  0  0
  151.2776  137.9515  154.3549 C   0  0  0  0  0  0  0  0  0  0  0  0
  149.7985  137.9043  154.2361 N   0  3  1  0  0  0  0  0  0  0  0  0
  149.1369  137.4668  155.4874 C   0  0  0  0  0  0  0  0  0  0  0  0
  147.6109  137.3565  155.2985 C   0  0  2  0  0  0  0  0  0  0  0  0
  147.1820  136.1335  154.4682 C   0  0  0  0  0  0  0  0  0  0  0  0
  147.0887  138.5769  154.7726 O   0  0  0  0  0  0  0  0  0  0  0  0
  147.6864  139.0103  153.5530 C   0  0  1  0  0  0  0  0  0  0  0  0
  147.0175  140.3264  153.1406 C   0  0  0  0  0  0  0  0  0  0  0  0
  149.2025  139.1747  153.7576 C   0  0  0  0  0  0  0  0  0  0  0  0
  153.1575  139.9046  158.5924 C   0  0  0  0  0  0  0  0  0  0  0  0
  153.9406  138.8704  159.1351 C   0  0  0  0  0  0  0  0  0  0  0  0
  154.7651  139.1941  160.2382 C   0  0  0  0  0  0  0  0  0  0  0  0
  154.7929  140.5118  160.7638 C   0  0  0  0  0  0  0  0  0  0  0  0
  153.9975  141.5347  160.1967 C   0  0  0  0  0  0  0  0  0  0  0  0
  153.1861  141.1860  159.1030 C   0  0  0  0  0  0  0  0  0  0  0  0
  152.2292  145.2355  157.3832 H   0  0  0  0  0  0  0  0  0  0  0  0
  151.7829  143.8418  156.4034 H   0  0  0  0  0  0  0  0  0  0  0  0
  153.4476  144.0398  156.9510 H   0  0  0  0  0  0  0  0  0  0  0  0
  152.6856  143.7467  159.3435 H   0  0  0  0  0  0  0  0  0  0  0  0
  151.0392  143.5605  158.8024 H   0  0  0  0  0  0  0  0  0  0  0  0
  152.6883  137.9707  156.7962 H   0  0  0  0  0  0  0  0  0  0  0  0
  151.0129  138.3325  157.0706 H   0  0  0  0  0  0  0  0  0  0  0  0
  151.0466  139.9703  155.1213 H   0  0  0  0  0  0  0  0  0  0  0  0
  153.0252  139.3981  153.7633 H   0  0  0  0  0  0  0  0  0  0  0  0
  151.7336  138.0195  153.3655 H   0  0  0  0  0  0  0  0  0  0  0  0
  151.6266  137.0101  154.7824 H   0  0  0  0  0  0  0  0  0  0  0  0
  149.5405  136.5067  155.8122 H   0  0  0  0  0  0  0  0  0  0  0  0
  149.3594  138.1864  156.2770 H   0  0  0  0  0  0  0  0  0  0  0  0
  147.1630  137.2382  156.2858 H   0  0  0  0  0  0  0  0  0  0  0  0
  147.4753  135.2081  154.9645 H   0  0  0  0  0  0  0  0  0  0  0  0
  147.6339  136.1255  153.4766 H   0  0  0  0  0  0  0  0  0  0  0  0
  146.0993  136.1096  154.3431 H   0  0  0  0  0  0  0  0  0  0  0  0
  147.4993  138.2764  152.7687 H   0  0  0  0  0  0  0  0  0  0  0  0
  147.4292  140.6995  152.2024 H   0  0  0  0  0  0  0  0  0  0  0  0
  147.1604  141.0971  153.8987 H   0  0  0  0  0  0  0  0  0  0  0  0
  145.9445  140.1913  153.0018 H   0  0  0  0  0  0  0  0  0  0  0  0
  149.4014  139.9663  154.4825 H   0  0  0  0  0  0  0  0  0  0  0  0
  149.6621  139.4830  152.8191 H   0  0  0  0  0  0  0  0  0  0  0  0
  153.9213  137.8695  158.7308 H   0  0  0  0  0  0  0  0  0  0  0  0
  155.3828  138.4290  160.6850 H   0  0  0  0  0  0  0  0  0  0  0  0
  155.4307  140.7372  161.6058 H   0  0  0  0  0  0  0  0  0  0  0  0
  154.0176  142.5405  160.5898 H   0  0  0  0  0  0  0  0  0  0  0  0
  149.5923  137.1973  153.5441 H   0  0  0  0  0  0  0  0  0  0  0  0
  1  2  1  0  0  0  0
  1 25  1  0  0  0  0
  1 26  1  0  0  0  0
  1 27  1  0  0  0  0
  2  3  1  0  0  0  0
  2 28  1  0  0  0  0
  2 29  1  0  0  0  0
  3 24  1  0  0  0  0
  3  4  1  0  0  0  0
  4  5  2  0  0  0  0
  4  6  1  0  0  0  0
  6  7  1  0  0  0  0
  6 19  1  0  0  0  0
  7  8  1  0  0  0  0
  7 30  1  0  0  0  0
  7 31  1  0  0  0  0
  8  9  1  0  0  0  0
  8 10  1  0  0  0  0
  8 32  1  0  0  0  0
  9 33  1  0  0  0  0
 10 11  1  0  0  0  0
 10 34  1  0  0  0  0
 10 35  1  0  0  0  0
 11 18  1  0  0  0  0
 11 12  1  0  0  0  0
 11 52  1  0  0  0  0
 12 13  1  0  0  0  0
 12 36  1  0  0  0  0
 12 37  1  0  0  0  0
 13 14  1  0  0  0  0
 13 15  1  0  0  0  0
 13 38  1  0  0  0  0
 14 39  1  0  0  0  0
 14 40  1  0  0  0  0
 14 41  1  0  0  0  0
 15 16  1  0  0  0  0
 16 17  1  0  0  0  0
 16 18  1  0  0  0  0
 16 42  1  0  0  0  0
 17 43  1  0  0  0  0
 17 44  1  0  0  0  0
 17 45  1  0  0  0  0
 18 46  1  0  0  0  0
 18 47  1  0  0  0  0
 19 24  2  0  0  0  0
 19 20  1  0  0  0  0
 20 21  2  0  0  0  0
 20 48  1  0  0  0  0
 21 22  1  0  0  0  0
 21 49  1  0  0  0  0
 22 23  2  0  0  0  0
 22 50  1  0  0  0  0
 23 24  1  0  0  0  0
 23 51  1  0  0  0  0
M  CHG  1  11   1
M  END
> <s_m_source_file>
AV-unprocessed.smi

> <i_m_source_file_index>
1570

> <i_lp_mmshare_version>
43012

> <i_f3d_flags>
0

> <s_epik_input>
W2NIXTFbY0hdW2NIXVtjSF1jKGMxMiluKFtDSDJdW0NIM10pYyg9TyluMltDSDJdW0NASF0oW09IXSlbQ0gyXU4zW0NIMl1bQ0BASF0oW0NIM10pT1tDQEBIXShbQ0gzXSlbQ0gyXTM=

> <s_epik_cmdline>
J2VwaWtfcHl0aG9uJywgJy1waCcsICc3LjAnLCAnLXRuJywgJzgnLCAnLW1hJywgJzIwMCcsICctbWV0YWxfYmluZGluZycsICctaW1hZScsICc8aW5maWxlLm1hZT4nLCAnLW9tYWUnLCAnPG91dGZpbGUubWFlPic=

> <r_epik_Ionization_Penalty>
0.706332

> <r_epik_Ionization_Penalty_Charging>
0.706318

> <r_epik_Ionization_Penalty_Neutral>
1.42224e-05

> <r_epik_State_Penalty>
0.729493

> <r_epik_Charging_Adjusted_Penalty>
1.43581

> <i_epik_Tot_Q>
1

> <i_epik_Tot_abs_Q>
1

> <r_epik_Metal_State_Penalty>
0.729493

> <b_epik_Metal_Only>
0

> <s_lp_Force_Field>
OPLS_2005

> <r_lp_Energy>
54.8336

> <b_lp_Chiralities_Consistent>
1

> <s_lp_Variant>
AV-unprocessed.smi:1570-10

> <Gold.Version>
5.8.1

> <Gold.Id.Protein>
6NUR|6NUR_protein|mol2

> <Gold.PLP.Fitness>
48.3572

> <Gold.PLP.PLP>
-41.1787

> <Gold.PLP.part.hbond>
-3.0000

> <Gold.PLP.part.metal>
0.0000

> <Gold.PLP.part.buried>
-2.2009

> <Gold.PLP.part.nonpolar>
-36.9943

> <Gold.PLP.part.repulsive>
0.1758

> <Gold.PLP.ligand.clash>
0.0000

> <Gold.PLP.ligand.torsion>
0.8439

> <Gold.PLP.Chemscore.Hbond>
2.9175

> <Gold.PLP.Chemscore.CHOScore>
0.0000

> <Gold.PLP.Chemscore.Metal>
0.0000

> <Gold.Chemscore.Hbonds>
donor molecule, donor type, donor heavy atom, donor atom, acceptor molecule, acceptor atom, score
      L1  H    11    52       P1  7948  2.00
      P1  H  7997  8010       L1     9  0.77

> <Gold.PLP.Chemscore.Internal.Correction>
0.1139

> <Gold.Rescore>
     Score         DG    S(hbond)    S(metal)    S(lipo)     H(rot)  DE(clash)    DE(int)     intcor
     16.21     -18.59       1.75        0.00     108.73       2.13       0.34       2.04       ----

> <Gold.Chemscore.Fitness>
16.2115

> <Gold.Chemscore.DG>
-18.5912

> <Gold.Chemscore.ZeroCoef>
-5.4800

> <Gold.Chemscore.Hbond>
1.7496

> <Gold.Chemscore.Metal>
0.0000

> <Gold.Chemscore.Lipo>
108.7282

> <Gold.Chemscore.Internal_Hbond>
0.0000

> <Gold.Chemscore.DEClash>
0.3428

> <Gold.Chemscore.DEInternal>
2.0369

> <Gold.Chemscore.Rot>
2.1303

> <Gold.Chemscore.Internal.Correction>
   9.000000E+99

> <Gold.Chemscore.Hbonds>
donor molecule, donor type, donor heavy atom, donor atom, acceptor molecule, acceptor atom, score
      L1  H    11    52       P1  7948  0.78
      P1  H  7997  8010       L1     9  0.65

> <Gold.Chemscore.Hbond.Weighted>
-5.8435

> <Gold.Chemscore.Metal.Weighted>
-0.0000

> <Gold.Chemscore.Lipo.Weighted>
-12.7212

> <Gold.Chemscore.Internal_Hbond.Weighted>
0.0000

> <Gold.Chemscore.DEClash.Weighted>
0.3428

> <Gold.Chemscore.DEInternal.Weighted>
2.0369

> <Gold.Chemscore.Rot.Weighted>
5.4535

> <Gold.Chemscore.Internal.Correction.Weighted>
   9.000000E+99

> <Gold.Protein.RotatedTorsions>
[ 6907 6896 6895 6894 ] final -100.54 input  -60.11 | X-H torsion
[ 7974 7965 7964 7962 ] final -148.65 input  175.53 | X-H torsion
[ 8008 7997 7996 7995 ] final   84.41 input   59.86 | X-H torsion
[ 10167 10162 10161 10158 ] final -169.14 input  -65.29 | X-H torsion
[ 10718 10713 10712 10709 ] final -132.15 input   66.30 | X-H torsion
[ 10763 10752 10751 10750 ] final  -80.98 input  -60.55 | X-H torsion
[ 11005 11000 10999 10996 ] final -178.68 input  -57.11 | X-H torsion

> <Gold.Protein.ActiveResidues>
 VAL166  LYS551  ARG553  GLY616  TRP617  ASP618  TYR619  PRO620  LYS621  CYS622 
 ASP623  PHE694  ASN695  SER759  ASP760  ASP761  ALA762  ILE779  LEU786  VAL792 
 PHE793  MET794  SER795  GLU796  ALA797  LYS798  CYS799  TRP800  GLU811  SER814 

> <Gold.Protein.RotatedAtoms>
  150.7120  134.0872  159.3918 H   0  0  0  0  0  0  0  0  0  0  0  0  # atno 6907 bound_to 6896
  151.8857  135.0434  160.0502 H   0  0  0  0  0  0  0  0  0  0  0  0  # atno 6908 bound_to 6896
  152.2532  133.5197  159.5374 H   0  0  0  0  0  0  0  0  0  0  0  0  # atno 6909 bound_to 6896
  144.8016  140.5168  143.5703 H   0  0  0  0  0  0  0  0  0  0  0  0  # atno 7974 bound_to 7965
  155.9367  140.3411  155.6294 H   0  0  0  0  0  0  0  0  0  0  0  0  # atno 8008 bound_to 7997
  155.7090  140.0769  157.2397 H   0  0  0  0  0  0  0  0  0  0  0  0  # atno 8009 bound_to 7997
  154.4095  140.1626  156.2262 H   0  0  0  0  0  0  0  0  0  0  0  0  # atno 8010 bound_to 7997
  139.5941  144.1149  152.1669 H   0  0  0  0  0  0  0  0  0  0  0  0  # atno 10167 bound_to 10162
  156.2316  130.7041  151.0864 H   0  0  0  0  0  0  0  0  0  0  0  0  # atno 10718 bound_to 10713
  154.5579  135.5642  153.6981 H   0  0  0  0  0  0  0  0  0  0  0  0  # atno 10763 bound_to 10752
  153.0009  135.6267  154.2284 H   0  0  0  0  0  0  0  0  0  0  0  0  # atno 10764 bound_to 10752
  154.2221  135.2869  155.2901 H   0  0  0  0  0  0  0  0  0  0  0  0  # atno 10765 bound_to 10752
  140.4270  134.6553  157.4693 H   0  0  0  0  0  0  0  0  0  0  0  0  # atno 11005 bound_to 11000
  145.5539  139.1477  143.3379 LP  0  0  0  0  0  0  0  0  0  0  0  0  # atno 17320 bound_to 7965
  146.2298  140.5677  142.8980 LP  0  0  0  0  0  0  0  0  0  0  0  0  # atno 17321 bound_to 7965
  140.0730  144.5763  150.7177 LP  0  0  0  0  0  0  0  0  0  0  0  0  # atno 17342 bound_to 10162
  140.7198  143.2578  151.4317 LP  0  0  0  0  0  0  0  0  0  0  0  0  # atno 17343 bound_to 10162
  157.7136  131.0722  150.6412 LP  0  0  0  0  0  0  0  0  0  0  0  0  # atno 17370 bound_to 10713
  156.6480  130.4477  149.5729 LP  0  0  0  0  0  0  0  0  0  0  0  0  # atno 17371 bound_to 10713
  140.0160  134.6618  155.9309 LP  0  0  0  0  0  0  0  0  0  0  0  0  # atno 17394 bound_to 11000
  141.1761  133.6540  156.4834 LP  0  0  0  0  0  0  0  0  0  0  0  0  # atno 17395 bound_to 11000

$$$$
