AV-unprocessed.smi:2098|AV-procd|sdf|8568|dock1
  -GOLD-   2272011293D 1   1.00000     0.00000
 Structure written by MMmdl.
 37 39  0  0  0  0  0  0  0  0  2 V2000
  152.6340  139.8716  155.4155 O   0  0  0  0  0  0  0  0  0  0  0  0
  151.5187  140.5657  155.9387 C   0  0  1  0  0  0  0  0  0  0  0  0
  150.2496  139.7566  155.6354 C   0  0  0  0  0  0  0  0  0  0  0  0
  149.1606  140.3260  156.3502 O   0  0  0  0  0  0  0  0  0  0  0  0
  148.2812  141.1351  155.6636 C   0  0  0  0  0  0  0  0  0  0  0  0
  147.3072  141.8134  156.4257 C   0  0  0  0  0  0  0  0  0  0  0  0
  146.3659  142.6577  155.8058 C   0  0  0  0  0  0  0  0  0  0  0  0
  146.3916  142.8344  154.4104 C   0  0  0  0  0  0  0  0  0  0  0  0
  145.4867  143.6448  153.8123 F   0  0  0  0  0  0  0  0  0  0  0  0
  147.3599  142.1671  153.6378 C   0  0  0  0  0  0  0  0  0  0  0  0
  148.3006  141.3215  154.2576 C   0  0  0  0  0  0  0  0  0  0  0  0
  151.7183  140.8056  157.4491 C   0  0  0  0  0  0  0  0  0  0  0  0
  151.1362  142.0740  157.9058 N   0  0  0  0  0  0  0  0  0  0  0  0
  150.1638  142.8441  157.3466 C   0  0  0  0  0  0  0  0  0  0  0  0
  149.9759  143.9220  158.1580 N   0  3  0  0  0  0  0  0  0  0  0  0
  150.8429  143.8403  159.2502 C   0  0  0  0  0  0  0  0  0  0  0  0
  151.0246  144.6905  160.3366 C   0  0  0  0  0  0  0  0  0  0  0  0
  151.9998  144.3094  161.2820 C   0  0  0  0  0  0  0  0  0  0  0  0
  152.7503  143.1255  161.1277 C   0  0  0  0  0  0  0  0  0  0  0  0
  152.5587  142.2715  160.0216 C   0  0  0  0  0  0  0  0  0  0  0  0
  151.5921  142.6553  159.0929 C   0  0  0  0  0  0  0  0  0  0  0  0
  152.7392  140.1128  154.5079 H   0  0  0  0  0  0  0  0  0  0  0  0
  151.4581  141.5222  155.4184 H   0  0  0  0  0  0  0  0  0  0  0  0
  150.0387  139.7922  154.5651 H   0  0  0  0  0  0  0  0  0  0  0  0
  150.3947  138.7124  155.9182 H   0  0  0  0  0  0  0  0  0  0  0  0
  147.2798  141.6829  157.4977 H   0  0  0  0  0  0  0  0  0  0  0  0
  145.6240  143.1692  156.4014 H   0  0  0  0  0  0  0  0  0  0  0  0
  147.3821  142.3030  152.5666 H   0  0  0  0  0  0  0  0  0  0  0  0
  149.0280  140.8282  153.6312 H   0  0  0  0  0  0  0  0  0  0  0  0
  151.2795  139.9984  158.0368 H   0  0  0  0  0  0  0  0  0  0  0  0
  152.7811  140.8243  157.6949 H   0  0  0  0  0  0  0  0  0  0  0  0
  149.6346  142.6363  156.4280 H   0  0  0  0  0  0  0  0  0  0  0  0
  150.4513  145.5979  160.4576 H   0  0  0  0  0  0  0  0  0  0  0  0
  152.1755  144.9378  162.1430 H   0  0  0  0  0  0  0  0  0  0  0  0
  153.4882  142.8665  161.8731 H   0  0  0  0  0  0  0  0  0  0  0  0
  153.1370  141.3658  159.9119 H   0  0  0  0  0  0  0  0  0  0  0  0
  149.3041  144.6570  157.9776 H   0  0  0  0  0  0  0  0  0  0  0  0
  1  2  1  0  0  0  0
  1 22  1  0  0  0  0
  2  3  1  0  0  0  0
  2 12  1  0  0  0  0
  2 23  1  0  0  0  0
  3  4  1  0  0  0  0
  3 24  1  0  0  0  0
  3 25  1  0  0  0  0
  4  5  1  0  0  0  0
  5 11  1  0  0  0  0
  5  6  2  0  0  0  0
  6  7  1  0  0  0  0
  6 26  1  0  0  0  0
  7  8  2  0  0  0  0
  7 27  1  0  0  0  0
  8  9  1  0  0  0  0
  8 10  1  0  0  0  0
 10 11  2  0  0  0  0
 10 28  1  0  0  0  0
 11 29  1  0  0  0  0
 12 13  1  0  0  0  0
 12 30  1  0  0  0  0
 12 31  1  0  0  0  0
 13 21  1  0  0  0  0
 13 14  1  0  0  0  0
 14 15  2  0  0  0  0
 14 32  1  0  0  0  0
 15 16  1  0  0  0  0
 15 37  1  0  0  0  0
 16 21  2  0  0  0  0
 16 17  1  0  0  0  0
 17 18  2  0  0  0  0
 17 33  1  0  0  0  0
 18 19  1  0  0  0  0
 18 34  1  0  0  0  0
 19 20  2  0  0  0  0
 19 35  1  0  0  0  0
 20 21  1  0  0  0  0
 20 36  1  0  0  0  0
M  CHG  1  15   1
M  END
> <s_m_source_file>
AV-unprocessed.smi

> <i_m_source_file_index>
2098

> <i_lp_mmshare_version>
43012

> <i_f3d_flags>
0

> <s_epik_input>
W2NIXTFbY0hdW2NIXVtjSF1jKGMxMiluKFtjSF1uMilbQ0gyXVtDQEhdKFtPSF0pW0NIMl1PYzNbY0hdW2NIXWMoRilbY0hdW2NIXTM=

> <s_epik_cmdline>
J2VwaWtfcHl0aG9uJywgJy1waCcsICc3LjAnLCAnLXRuJywgJzgnLCAnLW1hJywgJzIwMCcsICctbWV0YWxfYmluZGluZycsICctaW1hZScsICc8aW5maWxlLm1hZT4nLCAnLW9tYWUnLCAnPG91dGZpbGUubWFlPic=

> <r_lp_tautomer_probability>
1

> <r_epik_Ionization_Penalty>
1.3832

> <r_epik_Ionization_Penalty_Charging>
1.38319

> <r_epik_Ionization_Penalty_Neutral>
2.3993e-06

> <r_epik_State_Penalty>
1.46389

> <r_epik_Charging_Adjusted_Penalty>
2.84709

> <i_epik_Tot_Q>
1

> <i_epik_Tot_abs_Q>
1

> <r_epik_Metal_State_Penalty>
5.50438

> <b_epik_Metal_Only>
0

> <s_lp_Force_Field>
OPLS_2005

> <r_lp_Energy>
18.1934

> <b_lp_Chiralities_Consistent>
1

> <s_lp_Variant>
AV-unprocessed.smi:2098-4

> <Gold.Version>
5.8.1

> <Gold.Id.Protein>
6NUR|6NUR_protein|mol2

> <Gold.PLP.Fitness>
51.5329

> <Gold.PLP.PLP>
-44.6221

> <Gold.PLP.part.hbond>
-3.7975

> <Gold.PLP.part.metal>
0.0000

> <Gold.PLP.part.buried>
-3.3500

> <Gold.PLP.part.nonpolar>
-38.7275

> <Gold.PLP.part.repulsive>
0.0739

> <Gold.PLP.ligand.clash>
0.0000

> <Gold.PLP.ligand.torsion>
1.1413

> <Gold.PLP.Chemscore.Hbond>
2.5000

> <Gold.PLP.Chemscore.CHOScore>
0.5004

> <Gold.PLP.Chemscore.Metal>
0.0000

> <Gold.Chemscore.Hbonds>
donor molecule, donor type, donor heavy atom, donor atom, acceptor molecule, acceptor atom, score
      L1  H    15    37       P1  8029  1.40
      P1  H  7997  8009       L1     1  1.00
      L1  C    14    32       P1  8028  0.50

> <Gold.PLP.Chemscore.Internal.Correction>
0.1921

> <Gold.Rescore>
     Score         DG    S(hbond)    S(metal)    S(lipo)     H(rot)  DE(clash)    DE(int)     intcor
     12.82     -15.29       0.86        0.00     113.19       2.46       0.13       2.34       ----

> <Gold.Chemscore.Fitness>
12.8225

> <Gold.Chemscore.DG>
-15.2867

> <Gold.Chemscore.ZeroCoef>
-5.4800

> <Gold.Chemscore.Hbond>
0.8553

> <Gold.Chemscore.Metal>
0.0000

> <Gold.Chemscore.Lipo>
113.1914

> <Gold.Chemscore.Internal_Hbond>
0.0000

> <Gold.Chemscore.DEClash>
0.1284

> <Gold.Chemscore.DEInternal>
2.3358

> <Gold.Chemscore.Rot>
2.4584

> <Gold.Chemscore.Internal.Correction>
   9.000000E+99

> <Gold.Chemscore.Hbonds>
donor molecule, donor type, donor heavy atom, donor atom, acceptor molecule, acceptor atom, score
      L1  H    15    37       P1  8029  0.07
      P1  H  7997  8009       L1     1  0.57

> <Gold.Chemscore.Hbond.Weighted>
-2.8569

> <Gold.Chemscore.Metal.Weighted>
-0.0000

> <Gold.Chemscore.Lipo.Weighted>
-13.2434

> <Gold.Chemscore.Internal_Hbond.Weighted>
0.0000

> <Gold.Chemscore.DEClash.Weighted>
0.1284

> <Gold.Chemscore.DEInternal.Weighted>
2.3358

> <Gold.Chemscore.Rot.Weighted>
6.2936

> <Gold.Chemscore.Internal.Correction.Weighted>
   9.000000E+99

> <Gold.Protein.RotatedTorsions>
[ 6907 6896 6895 6894 ] final   83.02 input  -60.11 | X-H torsion
[ 7974 7965 7964 7962 ] final -142.98 input  175.53 | X-H torsion
[ 8008 7997 7996 7995 ] final -160.68 input   59.86 | X-H torsion
[ 10167 10162 10161 10158 ] final   45.85 input  -65.29 | X-H torsion
[ 10718 10713 10712 10709 ] final  -51.18 input   66.30 | X-H torsion
[ 10763 10752 10751 10750 ] final  -87.52 input  -60.55 | X-H torsion
[ 11005 11000 10999 10996 ] final  152.94 input  -57.11 | X-H torsion

> <Gold.Protein.ActiveResidues>
 VAL166  LYS551  ARG553  GLY616  TRP617  ASP618  TYR619  PRO620  LYS621  CYS622 
 ASP623  PHE694  ASN695  SER759  ASP760  ASP761  ALA762  ILE779  LEU786  VAL792 
 PHE793  MET794  SER795  GLU796  ALA797  LYS798  CYS799  TRP800  GLU811  SER814 

> <Gold.Protein.RotatedAtoms>
  152.5316  134.2959  159.9060 H   0  0  0  0  0  0  0  0  0  0  0  0  # atno 6907 bound_to 6896
  151.2910  133.4159  159.2641 H   0  0  0  0  0  0  0  0  0  0  0  0  # atno 6908 bound_to 6896
  151.0200  134.9478  159.8111 H   0  0  0  0  0  0  0  0  0  0  0  0  # atno 6909 bound_to 6896
  144.8403  140.5891  143.5457 H   0  0  0  0  0  0  0  0  0  0  0  0  # atno 7974 bound_to 7965
  155.7811  140.0865  157.2059 H   0  0  0  0  0  0  0  0  0  0  0  0  # atno 8008 bound_to 7997
  154.3990  140.1507  156.3110 H   0  0  0  0  0  0  0  0  0  0  0  0  # atno 8009 bound_to 7997
  155.8653  140.3428  155.5786 H   0  0  0  0  0  0  0  0  0  0  0  0  # atno 8010 bound_to 7997
  140.3199  144.2718  150.6184 H   0  0  0  0  0  0  0  0  0  0  0  0  # atno 10167 bound_to 10162
  156.1734  130.4149  149.9614 H   0  0  0  0  0  0  0  0  0  0  0  0  # atno 10718 bound_to 10713
  154.6345  135.5410  153.7718 H   0  0  0  0  0  0  0  0  0  0  0  0  # atno 10763 bound_to 10752
  153.0301  135.6444  154.1252 H   0  0  0  0  0  0  0  0  0  0  0  0  # atno 10764 bound_to 10752
  154.1180  135.2922  155.3195 H   0  0  0  0  0  0  0  0  0  0  0  0  # atno 10765 bound_to 10752
  140.1352  134.8775  157.2258 H   0  0  0  0  0  0  0  0  0  0  0  0  # atno 11005 bound_to 11000
  145.4708  139.1503  143.3815 LP  0  0  0  0  0  0  0  0  0  0  0  0  # atno 17320 bound_to 7965
  146.2696  140.4841  142.8820 LP  0  0  0  0  0  0  0  0  0  0  0  0  # atno 17321 bound_to 7965
  140.5493  143.2209  151.7954 LP  0  0  0  0  0  0  0  0  0  0  0  0  # atno 17342 bound_to 10162
  139.4876  144.4498  151.9668 LP  0  0  0  0  0  0  0  0  0  0  0  0  # atno 17343 bound_to 10162
  156.7407  130.9078  151.3632 LP  0  0  0  0  0  0  0  0  0  0  0  0  # atno 17370 bound_to 10713
  157.6818  130.9147  150.0287 LP  0  0  0  0  0  0  0  0  0  0  0  0  # atno 17371 bound_to 10713
  140.2791  134.3371  155.7349 LP  0  0  0  0  0  0  0  0  0  0  0  0  # atno 17394 bound_to 11000
  141.2177  133.7468  156.9337 LP  0  0  0  0  0  0  0  0  0  0  0  0  # atno 17395 bound_to 11000

$$$$
