AV-unprocessed.smi:716|AV-procd|sdf|3489|dock10
  -GOLD-   22720 0483D 1   1.00000     0.00000
 Structure written by MMmdl.
 48 50  0  0  0  0  0  0  0  0  1 V2000
  142.6340  142.4107  155.6335 C   0  0  0  0  0  0  0  0  0  0  0  0
  143.3640  141.7432  156.8009 C   0  0  0  0  0  0  0  0  0  0  0  0
  144.4768  141.0254  156.2938 O   0  0  0  0  0  0  0  0  0  0  0  0
  145.3843  141.8438  155.5666 C   0  0  1  0  0  0  0  0  0  0  0  0
  146.1079  142.8454  156.4769 C   0  0  0  0  0  0  0  0  0  0  0  0
  147.1545  141.7515  156.6998 C   0  0  2  0  0  0  0  0  0  0  0  0
  148.5109  142.2814  156.7608 N   0  0  0  0  0  0  0  0  0  0  0  0
  149.6168  141.5263  156.8234 C   0  0  0  0  0  0  0  0  0  0  0  0
  149.5922  140.2998  156.9297 O   0  0  0  0  0  0  0  0  0  0  0  0
  150.9524  142.2752  156.7452 C   0  0  0  0  0  0  0  0  0  0  0  0
  151.6827  142.2067  158.0177 N   0  0  0  0  0  0  0  0  0  0  0  0
  151.5159  143.3292  158.8137 N   0  0  0  0  0  0  0  0  0  0  0  0
  152.1367  143.4469  159.9408 C   0  0  0  0  0  0  0  0  0  0  0  0
  151.9125  144.7050  160.7266 C   0  0  0  0  0  0  0  0  0  0  0  0
  153.0083  142.3783  160.3902 C   0  0  0  0  0  0  0  0  0  0  0  0
  153.1660  141.2833  159.6158 C   0  0  0  0  0  0  0  0  0  0  0  0
  152.4835  141.1449  158.3307 C   0  0  0  0  0  0  0  0  0  0  0  0
  152.6225  140.1674  157.5961 O   0  0  0  0  0  0  0  0  0  0  0  0
  146.7531  141.1576  155.3245 C   0  0  0  0  0  0  0  0  0  0  0  0
  147.4984  141.6016  154.0580 C   0  0  0  0  0  0  0  0  0  0  0  0
  147.0887  140.6399  152.9396 C   0  0  0  0  0  0  0  0  0  0  0  0
  146.6104  139.3673  153.6461 C   0  0  0  0  0  0  0  0  0  0  0  0
  146.7717  139.6408  155.1437 C   0  0  0  0  0  0  0  0  0  0  0  0
  141.7716  142.9768  155.9858 H   0  0  0  0  0  0  0  0  0  0  0  0
  142.2779  141.6682  154.9188 H   0  0  0  0  0  0  0  0  0  0  0  0
  143.2919  143.0992  155.1025 H   0  0  0  0  0  0  0  0  0  0  0  0
  143.7004  142.4997  157.5114 H   0  0  0  0  0  0  0  0  0  0  0  0
  142.6836  141.0743  157.3293 H   0  0  0  0  0  0  0  0  0  0  0  0
  144.9494  142.2783  154.6646 H   0  0  0  0  0  0  0  0  0  0  0  0
  146.4873  143.7122  155.9322 H   0  0  0  0  0  0  0  0  0  0  0  0
  145.5649  143.1416  157.3745 H   0  0  0  0  0  0  0  0  0  0  0  0
  146.8895  141.0979  157.5343 H   0  0  0  0  0  0  0  0  0  0  0  0
  148.6179  143.2830  156.6894 H   0  0  0  0  0  0  0  0  0  0  0  0
  151.5712  141.8498  155.9524 H   0  0  0  0  0  0  0  0  0  0  0  0
  150.7596  143.3052  156.4414 H   0  0  0  0  0  0  0  0  0  0  0  0
  152.5710  144.7514  161.5943 H   0  0  0  0  0  0  0  0  0  0  0  0
  150.8836  144.7602  161.0833 H   0  0  0  0  0  0  0  0  0  0  0  0
  152.1066  145.5863  160.1141 H   0  0  0  0  0  0  0  0  0  0  0  0
  153.5219  142.4650  161.3364 H   0  0  0  0  0  0  0  0  0  0  0  0
  153.8153  140.4885  159.9516 H   0  0  0  0  0  0  0  0  0  0  0  0
  147.2906  142.6370  153.7863 H   0  0  0  0  0  0  0  0  0  0  0  0
  148.5771  141.5246  154.1987 H   0  0  0  0  0  0  0  0  0  0  0  0
  146.2742  141.0664  152.3530 H   0  0  0  0  0  0  0  0  0  0  0  0
  147.9178  140.4444  152.2585 H   0  0  0  0  0  0  0  0  0  0  0  0
  145.5615  139.1854  153.4087 H   0  0  0  0  0  0  0  0  0  0  0  0
  147.1759  138.4878  153.3369 H   0  0  0  0  0  0  0  0  0  0  0  0
  147.7301  139.2422  155.4783 H   0  0  0  0  0  0  0  0  0  0  0  0
  146.0066  139.1285  155.7267 H   0  0  0  0  0  0  0  0  0  0  0  0
  1  2  1  0  0  0  0
  1 24  1  0  0  0  0
  1 25  1  0  0  0  0
  1 26  1  0  0  0  0
  2  3  1  0  0  0  0
  2 27  1  0  0  0  0
  2 28  1  0  0  0  0
  3  4  1  0  0  0  0
  4 19  1  0  0  0  0
  4  5  1  0  0  0  0
  4 29  1  0  0  0  0
  5  6  1  0  0  0  0
  5 30  1  0  0  0  0
  5 31  1  0  0  0  0
  6  7  1  0  0  0  0
  6 19  1  0  0  0  0
  6 32  1  0  0  0  0
  7  8  1  0  0  0  0
  7 33  1  0  0  0  0
  8  9  2  0  0  0  0
  8 10  1  0  0  0  0
 10 11  1  0  0  0  0
 10 34  1  0  0  0  0
 10 35  1  0  0  0  0
 11 17  1  0  0  0  0
 11 12  1  0  0  0  0
 12 13  2  0  0  0  0
 13 14  1  0  0  0  0
 13 15  1  0  0  0  0
 14 36  1  0  0  0  0
 14 37  1  0  0  0  0
 14 38  1  0  0  0  0
 15 16  2  0  0  0  0
 15 39  1  0  0  0  0
 16 17  1  0  0  0  0
 16 40  1  0  0  0  0
 17 18  2  0  0  0  0
 19 23  1  0  0  0  0
 19 20  1  0  0  0  0
 20 21  1  0  0  0  0
 20 41  1  0  0  0  0
 20 42  1  0  0  0  0
 21 22  1  0  0  0  0
 21 43  1  0  0  0  0
 21 44  1  0  0  0  0
 22 23  1  0  0  0  0
 22 45  1  0  0  0  0
 22 46  1  0  0  0  0
 23 47  1  0  0  0  0
 23 48  1  0  0  0  0
M  END
> <s_m_source_file>
AV-unprocessed.smi

> <i_m_source_file_index>
716

> <i_lp_mmshare_version>
43012

> <i_f3d_flags>
0

> <s_epik_input>
W0NIMl0xW0NIMl1bQ0gyXVtDSDJdQzEyW0NASF0oT1tDSDJdW0NIM10pW0NIMl1bQ0BIXTJbTkhdQyg9TylbQ0gyXW4zbmMoW0NIM10pW2NIXVtjSF1jMz1P

> <s_epik_cmdline>
J2VwaWtfcHl0aG9uJywgJy1waCcsICc3LjAnLCAnLXRuJywgJzgnLCAnLW1hJywgJzIwMCcsICctbWV0YWxfYmluZGluZycsICctaW1hZScsICc8aW5maWxlLm1hZT4nLCAnLW9tYWUnLCAnPG91dGZpbGUubWFlPic=

> <r_lp_tautomer_probability>
1

> <r_epik_Ionization_Penalty>
4.75561e-08

> <r_epik_Ionization_Penalty_Charging>
2.86617e-08

> <r_epik_Ionization_Penalty_Neutral>
1.88944e-08

> <r_epik_State_Penalty>
-0

> <r_epik_Charging_Adjusted_Penalty>
2.86617e-08

> <i_epik_Tot_Q>
0

> <i_epik_Tot_abs_Q>
0

> <r_epik_Metal_State_Penalty>
-0

> <b_epik_Metal_Only>
0

> <s_lp_Force_Field>
OPLS_2005

> <r_lp_Energy>
50.6956

> <b_lp_Chiralities_Consistent>
1

> <s_lp_Variant>
AV-unprocessed.smi:716-4

> <Gold.Version>
5.8.1

> <Gold.Id.Protein>
6NUR|6NUR_protein|mol2

> <Gold.PLP.Fitness>
42.1353

> <Gold.PLP.PLP>
-36.9255

> <Gold.PLP.part.hbond>
-2.0000

> <Gold.PLP.part.metal>
0.0000

> <Gold.PLP.part.buried>
-5.4969

> <Gold.PLP.part.nonpolar>
-29.9382

> <Gold.PLP.part.repulsive>
0.1350

> <Gold.PLP.ligand.clash>
0.0000

> <Gold.PLP.ligand.torsion>
0.5756

> <Gold.PLP.Chemscore.Hbond>
2.0000

> <Gold.PLP.Chemscore.CHOScore>
0.0000

> <Gold.PLP.Chemscore.Metal>
0.0000

> <Gold.Chemscore.Hbonds>
donor molecule, donor type, donor heavy atom, donor atom, acceptor molecule, acceptor atom, score
      L1  H     7    33       P1  8028  0.99
      P1  H  7997  8010       L1    18  1.00

> <Gold.PLP.Chemscore.Internal.Correction>
0.3610

> <Gold.Rescore>
     Score         DG    S(hbond)    S(metal)    S(lipo)     H(rot)  DE(clash)    DE(int)     intcor
     16.22     -16.87       1.73        0.00      85.91       1.73       0.07       0.58       ----

> <Gold.Chemscore.Fitness>
16.2207

> <Gold.Chemscore.DG>
-16.8724

> <Gold.Chemscore.ZeroCoef>
-5.4800

> <Gold.Chemscore.Hbond>
1.7312

> <Gold.Chemscore.Metal>
0.0000

> <Gold.Chemscore.Lipo>
85.9085

> <Gold.Chemscore.Internal_Hbond>
0.0000

> <Gold.Chemscore.DEClash>
0.0668

> <Gold.Chemscore.DEInternal>
0.5849

> <Gold.Chemscore.Rot>
1.7348

> <Gold.Chemscore.Internal.Correction>
   9.000000E+99

> <Gold.Chemscore.Hbonds>
donor molecule, donor type, donor heavy atom, donor atom, acceptor molecule, acceptor atom, score
      L1  H     7    33       P1  8028  0.61
      P1  H  7997  8010       L1    18  0.80

> <Gold.Chemscore.Hbond.Weighted>
-5.7822

> <Gold.Chemscore.Metal.Weighted>
-0.0000

> <Gold.Chemscore.Lipo.Weighted>
-10.0513

> <Gold.Chemscore.Internal_Hbond.Weighted>
0.0000

> <Gold.Chemscore.DEClash.Weighted>
0.0668

> <Gold.Chemscore.DEInternal.Weighted>
0.5849

> <Gold.Chemscore.Rot.Weighted>
4.4411

> <Gold.Chemscore.Internal.Correction.Weighted>
   9.000000E+99

> <Gold.Protein.RotatedTorsions>
[ 6907 6896 6895 6894 ] final  -47.69 input  -60.11 | X-H torsion
[ 7974 7965 7964 7962 ] final    5.02 input  175.53 | X-H torsion
[ 8008 7997 7996 7995 ] final   54.33 input   59.86 | X-H torsion
[ 10167 10162 10161 10158 ] final  173.79 input  -65.29 | X-H torsion
[ 10718 10713 10712 10709 ] final   82.91 input   66.30 | X-H torsion
[ 10763 10752 10751 10750 ] final  176.94 input  -60.55 | X-H torsion
[ 11005 11000 10999 10996 ] final   69.96 input  -57.11 | X-H torsion

> <Gold.Protein.ActiveResidues>
 VAL166  LYS551  ARG553  GLY616  TRP617  ASP618  TYR619  PRO620  LYS621  CYS622 
 ASP623  PHE694  ASN695  SER759  ASP760  ASP761  ALA762  ILE779  LEU786  VAL792 
 PHE793  MET794  SER795  GLU796  ALA797  LYS798  CYS799  TRP800  GLU811  SER814 

> <Gold.Protein.RotatedAtoms>
  150.8981  134.8391  159.7340 H   0  0  0  0  0  0  0  0  0  0  0  0  # atno 6907 bound_to 6896
  152.4877  134.4544  159.9595 H   0  0  0  0  0  0  0  0  0  0  0  0  # atno 6908 bound_to 6896
  151.4599  133.3556  159.2843 H   0  0  0  0  0  0  0  0  0  0  0  0  # atno 6909 bound_to 6896
  146.2442  140.0446  142.8379 H   0  0  0  0  0  0  0  0  0  0  0  0  # atno 7974 bound_to 7965
  155.4829  140.3469  155.4342 H   0  0  0  0  0  0  0  0  0  0  0  0  # atno 8008 bound_to 7997
  156.1027  140.1440  156.9474 H   0  0  0  0  0  0  0  0  0  0  0  0  # atno 8009 bound_to 7997
  154.4704  140.0902  156.7109 H   0  0  0  0  0  0  0  0  0  0  0  0  # atno 8010 bound_to 7997
  139.5120  144.3221  152.0192 H   0  0  0  0  0  0  0  0  0  0  0  0  # atno 10167 bound_to 10162
  157.6867  131.0068  150.2444 H   0  0  0  0  0  0  0  0  0  0  0  0  # atno 10718 bound_to 10713
  154.4879  135.2777  155.1520 H   0  0  0  0  0  0  0  0  0  0  0  0  # atno 10763 bound_to 10752
  154.3204  135.6211  153.5509 H   0  0  0  0  0  0  0  0  0  0  0  0  # atno 10764 bound_to 10752
  152.9884  135.5741  154.5293 H   0  0  0  0  0  0  0  0  0  0  0  0  # atno 10765 bound_to 10752
  139.9624  134.7038  156.0617 H   0  0  0  0  0  0  0  0  0  0  0  0  # atno 11005 bound_to 11000
  145.1038  140.9362  143.4697 LP  0  0  0  0  0  0  0  0  0  0  0  0  # atno 17320 bound_to 7965
  145.0645  139.3079  143.5863 LP  0  0  0  0  0  0  0  0  0  0  0  0  # atno 17321 bound_to 7965
  140.2663  144.4013  150.6167 LP  0  0  0  0  0  0  0  0  0  0  0  0  # atno 17342 bound_to 10162
  140.6121  143.2170  151.6865 LP  0  0  0  0  0  0  0  0  0  0  0  0  # atno 17343 bound_to 10162
  156.3053  130.3764  149.7712 LP  0  0  0  0  0  0  0  0  0  0  0  0  # atno 17370 bound_to 10713
  156.5330  130.8266  151.3243 LP  0  0  0  0  0  0  0  0  0  0  0  0  # atno 17371 bound_to 10713
  141.1302  133.6588  156.3444 LP  0  0  0  0  0  0  0  0  0  0  0  0  # atno 17394 bound_to 11000
  140.5471  134.6064  157.5397 LP  0  0  0  0  0  0  0  0  0  0  0  0  # atno 17395 bound_to 11000

$$$$
