AV-unprocessed.smi:679|AV-procd|sdf|3321|dock4
  -GOLD-   22720 0283D 1   1.00000     0.00000
 Structure written by MMmdl.
 41 43  0  0  0  0  0  0  0  0  1 V2000
  153.4017  142.3004  161.3935 C   0  0  0  0  0  0  0  0  0  0  0  0
  153.6840  141.3763  160.2070 C   0  0  0  0  0  0  0  0  0  0  0  0
  152.9805  141.8590  159.0757 O   0  0  0  0  0  0  0  0  0  0  0  0
  151.5751  141.8882  159.2685 C   0  0  2  0  0  0  0  0  0  0  0  0
  150.7810  140.9863  158.3184 C   0  0  0  0  0  0  0  0  0  0  0  0
  149.7413  142.1085  158.2970 C   0  0  2  0  0  0  0  0  0  0  0  0
  149.1303  142.2794  156.9855 N   0  0  0  0  0  0  0  0  0  0  0  0
  148.1548  141.5008  156.4956 C   0  0  0  0  0  0  0  0  0  0  0  0
  147.7403  140.4906  157.0631 O   0  0  0  0  0  0  0  0  0  0  0  0
  147.5256  141.9528  155.1790 C   0  0  0  0  0  0  0  0  0  0  0  0
  147.0319  140.8073  154.4377 N   0  0  0  0  0  0  0  0  0  0  0  0
  147.2924  140.3874  153.1977 C   0  0  0  0  0  0  0  0  0  0  0  0
  146.6501  139.2637  152.9176 N   0  0  0  0  0  0  0  0  0  0  0  0
  145.9539  138.9992  154.0855 N   0  0  0  0  0  0  0  0  0  0  0  0
  146.1766  139.9115  154.9912 N   0  0  0  0  0  0  0  0  0  0  0  0
  150.8867  143.1077  158.6062 C   0  0  0  0  0  0  0  0  0  0  0  0
  150.5823  144.3010  159.5064 C   0  0  0  0  0  0  0  0  0  0  0  0
  151.7358  145.2996  159.3511 C   0  0  0  0  0  0  0  0  0  0  0  0
  152.4651  144.9080  158.0619 C   0  0  0  0  0  0  0  0  0  0  0  0
  151.6270  143.7879  157.4457 C   0  0  0  0  0  0  0  0  0  0  0  0
  153.9249  141.9589  162.2868 H   0  0  0  0  0  0  0  0  0  0  0  0
  152.3357  142.3301  161.6204 H   0  0  0  0  0  0  0  0  0  0  0  0
  153.7283  143.3189  161.1822 H   0  0  0  0  0  0  0  0  0  0  0  0
  154.7555  141.3481  160.0048 H   0  0  0  0  0  0  0  0  0  0  0  0
  153.3645  140.3600  160.4422 H   0  0  0  0  0  0  0  0  0  0  0  0
  151.2810  141.7624  160.3134 H   0  0  0  0  0  0  0  0  0  0  0  0
  151.2801  140.8263  157.3606 H   0  0  0  0  0  0  0  0  0  0  0  0
  150.4364  140.0505  158.7589 H   0  0  0  0  0  0  0  0  0  0  0  0
  149.0272  142.0166  159.1192 H   0  0  0  0  0  0  0  0  0  0  0  0
  149.4109  143.0886  156.4503 H   0  0  0  0  0  0  0  0  0  0  0  0
  146.7065  142.6483  155.3688 H   0  0  0  0  0  0  0  0  0  0  0  0
  148.2629  142.4758  154.5688 H   0  0  0  0  0  0  0  0  0  0  0  0
  147.9541  140.8950  152.5111 H   0  0  0  0  0  0  0  0  0  0  0  0
  149.6513  144.7737  159.1913 H   0  0  0  0  0  0  0  0  0  0  0  0
  150.4475  144.0118  160.5491 H   0  0  0  0  0  0  0  0  0  0  0  0
  151.3627  146.3234  159.3081 H   0  0  0  0  0  0  0  0  0  0  0  0
  152.4178  145.2345  160.1997 H   0  0  0  0  0  0  0  0  0  0  0  0
  152.5837  145.7500  157.3794 H   0  0  0  0  0  0  0  0  0  0  0  0
  153.4619  144.5363  158.3027 H   0  0  0  0  0  0  0  0  0  0  0  0
  152.2427  143.0980  156.8674 H   0  0  0  0  0  0  0  0  0  0  0  0
  150.9191  144.2359  156.7479 H   0  0  0  0  0  0  0  0  0  0  0  0
  1  2  1  0  0  0  0
  1 21  1  0  0  0  0
  1 22  1  0  0  0  0
  1 23  1  0  0  0  0
  2  3  1  0  0  0  0
  2 24  1  0  0  0  0
  2 25  1  0  0  0  0
  3  4  1  0  0  0  0
  4 16  1  0  0  0  0
  4  5  1  0  0  0  0
  4 26  1  0  0  0  0
  5  6  1  0  0  0  0
  5 27  1  0  0  0  0
  5 28  1  0  0  0  0
  6  7  1  0  0  0  0
  6 16  1  0  0  0  0
  6 29  1  0  0  0  0
  7  8  1  0  0  0  0
  7 30  1  0  0  0  0
  8  9  2  0  0  0  0
  8 10  1  0  0  0  0
 10 11  1  0  0  0  0
 10 31  1  0  0  0  0
 10 32  1  0  0  0  0
 11 15  1  0  0  0  0
 11 12  1  0  0  0  0
 12 13  2  0  0  0  0
 12 33  1  0  0  0  0
 13 14  1  0  0  0  0
 14 15  2  0  0  0  0
 16 20  1  0  0  0  0
 16 17  1  0  0  0  0
 17 18  1  0  0  0  0
 17 34  1  0  0  0  0
 17 35  1  0  0  0  0
 18 19  1  0  0  0  0
 18 36  1  0  0  0  0
 18 37  1  0  0  0  0
 19 20  1  0  0  0  0
 19 38  1  0  0  0  0
 19 39  1  0  0  0  0
 20 40  1  0  0  0  0
 20 41  1  0  0  0  0
M  END
> <s_m_source_file>
AV-unprocessed.smi

> <i_m_source_file_index>
679

> <i_lp_mmshare_version>
43012

> <i_f3d_flags>
0

> <s_epik_input>
W0NIMl0xW0NIMl1bQ0gyXVtDSDJdQzEyW0NASF0oT1tDSDJdW0NIM10pW0NIMl1bQ0BIXTJbTkhdQyg9TylbQ0gyXW4zW2NIXW5ubjM=

> <s_epik_cmdline>
J2VwaWtfcHl0aG9uJywgJy1waCcsICc3LjAnLCAnLXRuJywgJzgnLCAnLW1hJywgJzIwMCcsICctbWV0YWxfYmluZGluZycsICctaW1hZScsICc8aW5maWxlLm1hZT4nLCAnLW9tYWUnLCAnPG91dGZpbGUubWFlPic=

> <r_lp_tautomer_probability>
1

> <r_epik_Ionization_Penalty>
7.96741e-07

> <r_epik_Ionization_Penalty_Charging>
0

> <r_epik_Ionization_Penalty_Neutral>
7.96741e-07

> <r_epik_State_Penalty>
-0

> <r_epik_Charging_Adjusted_Penalty>
0

> <i_epik_Tot_Q>
0

> <i_epik_Tot_abs_Q>
0

> <r_epik_Metal_State_Penalty>
-0

> <b_epik_Metal_Only>
0

> <s_lp_Force_Field>
OPLS_2005

> <r_lp_Energy>
37

> <b_lp_Chiralities_Consistent>
1

> <s_lp_Variant>
AV-unprocessed.smi:679-3

> <Gold.Version>
5.8.1

> <Gold.Id.Protein>
6NUR|6NUR_protein|mol2

> <Gold.PLP.Fitness>
40.8209

> <Gold.PLP.PLP>
-36.9431

> <Gold.PLP.part.hbond>
-1.0000

> <Gold.PLP.part.metal>
0.0000

> <Gold.PLP.part.buried>
-4.5170

> <Gold.PLP.part.nonpolar>
-31.8291

> <Gold.PLP.part.repulsive>
0.5068

> <Gold.PLP.ligand.clash>
0.0000

> <Gold.PLP.ligand.torsion>
1.1660

> <Gold.PLP.Chemscore.Hbond>
0.9440

> <Gold.PLP.Chemscore.CHOScore>
1.0000

> <Gold.PLP.Chemscore.Metal>
0.0000

> <Gold.Chemscore.Hbonds>
donor molecule, donor type, donor heavy atom, donor atom, acceptor molecule, acceptor atom, score
      L1  H     7    30       P1  8028  0.93
      L1  C    12    33       P1  7957  1.00

> <Gold.PLP.Chemscore.Internal.Correction>
0.3778

> <Gold.Rescore>
     Score         DG    S(hbond)    S(metal)    S(lipo)     H(rot)  DE(clash)    DE(int)     intcor
     11.67     -13.85       0.97        0.00      96.49       2.41       0.05       2.12       ----

> <Gold.Chemscore.Fitness>
11.6722

> <Gold.Chemscore.DG>
-13.8520

> <Gold.Chemscore.ZeroCoef>
-5.4800

> <Gold.Chemscore.Hbond>
0.9730

> <Gold.Chemscore.Metal>
0.0000

> <Gold.Chemscore.Lipo>
96.4864

> <Gold.Chemscore.Internal_Hbond>
0.0000

> <Gold.Chemscore.DEClash>
0.0550

> <Gold.Chemscore.DEInternal>
2.1248

> <Gold.Chemscore.Rot>
2.4089

> <Gold.Chemscore.Internal.Correction>
   9.000000E+99

> <Gold.Chemscore.Hbonds>
donor molecule, donor type, donor heavy atom, donor atom, acceptor molecule, acceptor atom, score
      L1  H     7    30       P1  8028  0.91

> <Gold.Chemscore.Hbond.Weighted>
-3.2499

> <Gold.Chemscore.Metal.Weighted>
-0.0000

> <Gold.Chemscore.Lipo.Weighted>
-11.2889

> <Gold.Chemscore.Internal_Hbond.Weighted>
0.0000

> <Gold.Chemscore.DEClash.Weighted>
0.0550

> <Gold.Chemscore.DEInternal.Weighted>
2.1248

> <Gold.Chemscore.Rot.Weighted>
6.1668

> <Gold.Chemscore.Internal.Correction.Weighted>
   9.000000E+99

> <Gold.Protein.RotatedTorsions>
[ 6907 6896 6895 6894 ] final   37.19 input  -60.11 | X-H torsion
[ 7974 7965 7964 7962 ] final   94.60 input  175.53 | X-H torsion
[ 8008 7997 7996 7995 ] final   63.13 input   59.86 | X-H torsion
[ 10167 10162 10161 10158 ] final -144.16 input  -65.29 | X-H torsion
[ 10718 10713 10712 10709 ] final -134.51 input   66.30 | X-H torsion
[ 10763 10752 10751 10750 ] final   64.69 input  -60.55 | X-H torsion
[ 11005 11000 10999 10996 ] final   53.78 input  -57.11 | X-H torsion

> <Gold.Protein.ActiveResidues>
 VAL166  LYS551  ARG553  GLY616  TRP617  ASP618  TYR619  PRO620  LYS621  CYS622 
 ASP623  PHE694  ASN695  SER759  ASP760  ASP761  ALA762  ILE779  LEU786  VAL792 
 PHE793  MET794  SER795  GLU796  ALA797  LYS798  CYS799  TRP800  GLU811  SER814 

> <Gold.Protein.RotatedAtoms>
  152.1399  134.9071  160.0554 H   0  0  0  0  0  0  0  0  0  0  0  0  # atno 6907 bound_to 6896
  152.0143  133.3868  159.4240 H   0  0  0  0  0  0  0  0  0  0  0  0  # atno 6908 bound_to 6896
  150.6864  134.3618  159.4997 H   0  0  0  0  0  0  0  0  0  0  0  0  # atno 6909 bound_to 6896
  145.4634  139.2285  143.2975 H   0  0  0  0  0  0  0  0  0  0  0  0  # atno 7974 bound_to 7965
  155.6254  140.3496  155.4665 H   0  0  0  0  0  0  0  0  0  0  0  0  # atno 8008 bound_to 7997
  156.0046  140.1220  157.0538 H   0  0  0  0  0  0  0  0  0  0  0  0  # atno 8009 bound_to 7997
  154.4260  140.1094  156.5730 H   0  0  0  0  0  0  0  0  0  0  0  0  # atno 8010 bound_to 7997
  139.7925  143.7946  152.2651 H   0  0  0  0  0  0  0  0  0  0  0  0  # atno 10167 bound_to 10162
  156.2562  130.7182  151.1100 H   0  0  0  0  0  0  0  0  0  0  0  0  # atno 10718 bound_to 10713
  153.0066  135.5384  154.6550 H   0  0  0  0  0  0  0  0  0  0  0  0  # atno 10763 bound_to 10752
  154.5773  135.2847  155.0770 H   0  0  0  0  0  0  0  0  0  0  0  0  # atno 10764 bound_to 10752
  154.1913  135.6499  153.5113 H   0  0  0  0  0  0  0  0  0  0  0  0  # atno 10765 bound_to 10752
  140.0739  134.5431  155.9017 H   0  0  0  0  0  0  0  0  0  0  0  0  # atno 11005 bound_to 11000
  146.2438  140.5405  142.8922 LP  0  0  0  0  0  0  0  0  0  0  0  0  # atno 17320 bound_to 7965
  144.7989  140.6175  143.6491 LP  0  0  0  0  0  0  0  0  0  0  0  0  # atno 17321 bound_to 7965
  139.8042  144.7362  150.9784 LP  0  0  0  0  0  0  0  0  0  0  0  0  # atno 17342 bound_to 10162
  140.7820  143.4315  151.0687 LP  0  0  0  0  0  0  0  0  0  0  0  0  # atno 17343 bound_to 10162
  157.7233  131.0667  150.6041 LP  0  0  0  0  0  0  0  0  0  0  0  0  # atno 17370 bound_to 10713
  156.6125  130.4384  149.5853 LP  0  0  0  0  0  0  0  0  0  0  0  0  # atno 17371 bound_to 10713
  141.2022  133.6623  156.5994 LP  0  0  0  0  0  0  0  0  0  0  0  0  # atno 17394 bound_to 11000
  140.3586  134.7707  157.4518 LP  0  0  0  0  0  0  0  0  0  0  0  0  # atno 17395 bound_to 11000

$$$$
