AV-unprocessed.smi:1734|AV-procd|sdf|6981|dock5
  -GOLD-   22720 8193D 1   1.00000     0.00000
 Structure written by MMmdl.
 50 52  0  0  0  0  0  0  0  0  1 V2000
  147.5559  133.1534  152.3726 C   0  0  0  0  0  0  0  0  0  0  0  0
  146.2139  133.1955  151.6594 C   0  0  0  0  0  0  0  0  0  0  0  0
  145.5578  131.9846  151.3519 C   0  0  0  0  0  0  0  0  0  0  0  0
  144.3177  132.0248  150.6923 C   0  0  0  0  0  0  0  0  0  0  0  0
  143.7830  133.2824  150.3650 C   0  0  0  0  0  0  0  0  0  0  0  0
  144.4028  134.4444  150.6551 N   0  0  0  0  0  0  0  0  0  0  0  0
  145.6001  134.4236  151.2931 C   0  0  0  0  0  0  0  0  0  0  0  0
  146.3111  135.6097  151.6313 N   0  0  0  0  0  0  0  0  0  0  0  0
  145.8256  136.8457  151.8433 C   0  0  0  0  0  0  0  0  0  0  0  0
  144.6377  137.1644  151.7859 O   0  0  0  0  0  0  0  0  0  0  0  0
  146.8119  137.7078  152.1290 N   0  0  0  0  0  0  0  0  0  0  0  0
  146.6450  139.1319  152.4075 C   0  0  0  0  0  0  0  0  0  0  0  0
  147.1817  139.5075  153.8148 C   0  0  1  0  0  0  0  0  0  0  0  0
  148.7409  139.5761  153.8597 C   0  0  2  0  0  0  0  0  0  0  0  0
  149.4645  138.3699  154.4662 C   0  0  0  0  0  0  0  0  0  0  0  0
  150.3887  138.9849  155.5153 C   0  0  0  0  0  0  0  0  0  0  0  0
  150.6227  140.2982  155.0359 O   0  0  0  0  0  0  0  0  0  0  0  0
  149.3830  140.7906  154.5525 C   0  0  0  0  0  0  0  0  0  0  0  0
  146.4809  140.6333  154.4669 N   0  0  0  0  0  0  0  0  0  0  0  0
  146.7063  141.9164  153.8039 C   0  0  0  0  0  0  0  0  0  0  0  0
  145.8495  143.0350  154.4180 C   0  0  0  0  0  0  0  0  0  0  0  0
  146.1316  143.1323  155.8098 O   0  0  0  0  0  0  0  0  0  0  0  0
  145.8707  141.9185  156.5061 C   0  0  0  0  0  0  0  0  0  0  0  0
  146.7060  140.7742  155.9043 C   0  0  0  0  0  0  0  0  0  0  0  0
  147.8641  132.1279  152.5789 H   0  0  0  0  0  0  0  0  0  0  0  0
  147.5000  133.6839  153.3237 H   0  0  0  0  0  0  0  0  0  0  0  0
  148.3283  133.6191  151.7597 H   0  0  0  0  0  0  0  0  0  0  0  0
  145.9973  131.0341  151.6174 H   0  0  0  0  0  0  0  0  0  0  0  0
  143.7901  131.1158  150.4435 H   0  0  0  0  0  0  0  0  0  0  0  0
  142.8328  133.3585  149.8574 H   0  0  0  0  0  0  0  0  0  0  0  0
  147.3100  135.5008  151.7229 H   0  0  0  0  0  0  0  0  0  0  0  0
  147.7565  137.3529  152.1538 H   0  0  0  0  0  0  0  0  0  0  0  0
  147.1269  139.7435  151.6439 H   0  0  0  0  0  0  0  0  0  0  0  0
  145.5784  139.3355  152.3277 H   0  0  0  0  0  0  0  0  0  0  0  0
  146.9560  138.6417  154.4395 H   0  0  0  0  0  0  0  0  0  0  0  0
  149.0770  139.6257  152.8227 H   0  0  0  0  0  0  0  0  0  0  0  0
  148.8109  137.6157  154.9030 H   0  0  0  0  0  0  0  0  0  0  0  0
  150.0560  137.8721  153.6967 H   0  0  0  0  0  0  0  0  0  0  0  0
  149.8934  139.0357  156.4860 H   0  0  0  0  0  0  0  0  0  0  0  0
  151.3183  138.4283  155.6354 H   0  0  0  0  0  0  0  0  0  0  0  0
  149.5445  141.6211  153.8655 H   0  0  0  0  0  0  0  0  0  0  0  0
  148.7945  141.1695  155.3852 H   0  0  0  0  0  0  0  0  0  0  0  0
  147.7540  142.2058  153.8815 H   0  0  0  0  0  0  0  0  0  0  0  0
  146.4796  141.8320  152.7405 H   0  0  0  0  0  0  0  0  0  0  0  0
  146.0725  143.9894  153.9407 H   0  0  0  0  0  0  0  0  0  0  0  0
  144.7871  142.8392  154.2648 H   0  0  0  0  0  0  0  0  0  0  0  0
  146.1156  142.0516  157.5598 H   0  0  0  0  0  0  0  0  0  0  0  0
  144.8062  141.6851  156.4527 H   0  0  0  0  0  0  0  0  0  0  0  0
  146.4301  139.8605  156.4233 H   0  0  0  0  0  0  0  0  0  0  0  0
  147.7623  140.9557  156.1047 H   0  0  0  0  0  0  0  0  0  0  0  0
  1  2  1  0  0  0  0
  1 25  1  0  0  0  0
  1 26  1  0  0  0  0
  1 27  1  0  0  0  0
  2  7  1  0  0  0  0
  2  3  2  0  0  0  0
  3  4  1  0  0  0  0
  3 28  1  0  0  0  0
  4  5  2  0  0  0  0
  4 29  1  0  0  0  0
  5  6  1  0  0  0  0
  5 30  1  0  0  0  0
  6  7  2  0  0  0  0
  7  8  1  0  0  0  0
  8  9  1  0  0  0  0
  8 31  1  0  0  0  0
  9 10  2  0  0  0  0
  9 11  1  0  0  0  0
 11 12  1  0  0  0  0
 11 32  1  0  0  0  0
 12 13  1  0  0  0  0
 12 33  1  0  0  0  0
 12 34  1  0  0  0  0
 13 14  1  0  0  0  0
 13 19  1  0  0  0  0
 13 35  1  0  0  0  0
 14 18  1  0  0  0  0
 14 15  1  0  0  0  0
 14 36  1  0  0  0  0
 15 16  1  0  0  0  0
 15 37  1  0  0  0  0
 15 38  1  0  0  0  0
 16 17  1  0  0  0  0
 16 39  1  0  0  0  0
 16 40  1  0  0  0  0
 17 18  1  0  0  0  0
 18 41  1  0  0  0  0
 18 42  1  0  0  0  0
 19 24  1  0  0  0  0
 19 20  1  0  0  0  0
 20 21  1  0  0  0  0
 20 43  1  0  0  0  0
 20 44  1  0  0  0  0
 21 22  1  0  0  0  0
 21 45  1  0  0  0  0
 21 46  1  0  0  0  0
 22 23  1  0  0  0  0
 23 24  1  0  0  0  0
 23 47  1  0  0  0  0
 23 48  1  0  0  0  0
 24 49  1  0  0  0  0
 24 50  1  0  0  0  0
M  END
> <s_m_source_file>
AV-unprocessed.smi

> <i_m_source_file_index>
1734

> <i_lp_mmshare_version>
43012

> <i_f3d_flags>
0

> <s_epik_input>
W0NIM11jMVtjSF1bY0hdW2NIXW5jMVtOSF1DKD1PKVtOSF1bQ0gyXVtDQEhdKFtDQEBIXTJbQ0gyXVtDSDJdT1tDSDJdMilOM1tDSDJdW0NIMl1PW0NIMl1bQ0gyXTM=

> <s_epik_cmdline>
J2VwaWtfcHl0aG9uJywgJy1waCcsICc3LjAnLCAnLXRuJywgJzgnLCAnLW1hJywgJzIwMCcsICctbWV0YWxfYmluZGluZycsICctaW1hZScsICc8aW5maWxlLm1hZT4nLCAnLW9tYWUnLCAnPG91dGZpbGUubWFlPic=

> <r_epik_Ionization_Penalty>
0.125073

> <r_epik_Ionization_Penalty_Charging>
0

> <r_epik_Ionization_Penalty_Neutral>
0.125073

> <r_epik_State_Penalty>
0.114484

> <r_epik_Charging_Adjusted_Penalty>
0.114484

> <i_epik_Tot_Q>
0

> <i_epik_Tot_abs_Q>
0

> <r_epik_Metal_State_Penalty>
0.114483

> <b_epik_Metal_Only>
0

> <s_lp_Force_Field>
OPLS_2005

> <r_lp_Energy>
56.6734

> <b_lp_Chiralities_Consistent>
1

> <s_lp_Variant>
AV-unprocessed.smi:1734-2

> <Gold.Version>
5.8.1

> <Gold.Id.Protein>
6NUR|6NUR_protein|mol2

> <Gold.PLP.Fitness>
46.7163

> <Gold.PLP.PLP>
-38.1219

> <Gold.PLP.part.hbond>
-3.0000

> <Gold.PLP.part.metal>
0.0000

> <Gold.PLP.part.buried>
-3.5923

> <Gold.PLP.part.nonpolar>
-34.2214

> <Gold.PLP.part.repulsive>
1.6252

> <Gold.PLP.ligand.clash>
0.0751

> <Gold.PLP.ligand.torsion>
1.8491

> <Gold.PLP.Chemscore.Hbond>
3.0000

> <Gold.PLP.Chemscore.CHOScore>
1.0000

> <Gold.PLP.Chemscore.Metal>
0.0000

> <Gold.Chemscore.Hbonds>
donor molecule, donor type, donor heavy atom, donor atom, acceptor molecule, acceptor atom, score
      L1  H     8    31       P1  7948  1.00
      L1  H    11    32       P1  7948  1.00
      P1  H  7989  7998       L1    17  0.75
      L1  C     5    30       P1 10186  1.00

> <Gold.PLP.Chemscore.Internal.Correction>
0.3678

> <Gold.Rescore>
     Score         DG    S(hbond)    S(metal)    S(lipo)     H(rot)  DE(clash)    DE(int)     intcor
     15.84     -20.64       2.72        0.00      87.92       1.65       0.43       4.37       ----

> <Gold.Chemscore.Fitness>
15.8369

> <Gold.Chemscore.DG>
-20.6385

> <Gold.Chemscore.ZeroCoef>
-5.4800

> <Gold.Chemscore.Hbond>
2.7219

> <Gold.Chemscore.Metal>
0.0000

> <Gold.Chemscore.Lipo>
87.9172

> <Gold.Chemscore.Internal_Hbond>
0.0000

> <Gold.Chemscore.DEClash>
0.4332

> <Gold.Chemscore.DEInternal>
4.3685

> <Gold.Chemscore.Rot>
1.6480

> <Gold.Chemscore.Internal.Correction>
   9.000000E+99

> <Gold.Chemscore.Hbonds>
donor molecule, donor type, donor heavy atom, donor atom, acceptor molecule, acceptor atom, score
      L1  H     8    31       P1  7948  0.95
      L1  H    11    32       P1  7948  0.98
      P1  H  7989  7998       L1    17  0.09

> <Gold.Chemscore.Hbond.Weighted>
-9.0911

> <Gold.Chemscore.Metal.Weighted>
-0.0000

> <Gold.Chemscore.Lipo.Weighted>
-10.2863

> <Gold.Chemscore.Internal_Hbond.Weighted>
0.0000

> <Gold.Chemscore.DEClash.Weighted>
0.4332

> <Gold.Chemscore.DEInternal.Weighted>
4.3685

> <Gold.Chemscore.Rot.Weighted>
4.2188

> <Gold.Chemscore.Internal.Correction.Weighted>
   9.000000E+99

> <Gold.Protein.RotatedTorsions>
[ 6907 6896 6895 6894 ] final  111.12 input  -60.11 | X-H torsion
[ 7974 7965 7964 7962 ] final  -92.62 input  175.53 | X-H torsion
[ 8008 7997 7996 7995 ] final   -2.19 input   59.86 | X-H torsion
[ 10167 10162 10161 10158 ] final  -46.13 input  -65.29 | X-H torsion
[ 10718 10713 10712 10709 ] final  125.31 input   66.30 | X-H torsion
[ 10763 10752 10751 10750 ] final  -10.78 input  -60.55 | X-H torsion
[ 11005 11000 10999 10996 ] final   79.44 input  -57.11 | X-H torsion

> <Gold.Protein.ActiveResidues>
 VAL166  LYS551  ARG553  GLY616  TRP617  ASP618  TYR619  PRO620  LYS621  CYS622 
 ASP623  PHE694  ASN695  SER759  ASP760  ASP761  ALA762  ILE779  LEU786  VAL792 
 PHE793  MET794  SER795  GLU796  ALA797  LYS798  CYS799  TRP800  GLU811  SER814 

> <Gold.Protein.RotatedAtoms>
  152.4986  133.8703  159.7294 H   0  0  0  0  0  0  0  0  0  0  0  0  # atno 6907 bound_to 6896
  150.9192  133.6893  159.2843 H   0  0  0  0  0  0  0  0  0  0  0  0  # atno 6908 bound_to 6896
  151.4276  135.1010  159.9685 H   0  0  0  0  0  0  0  0  0  0  0  0  # atno 6909 bound_to 6896
  145.3974  140.9534  143.2306 H   0  0  0  0  0  0  0  0  0  0  0  0  # atno 7974 bound_to 7965
  154.6385  140.2540  155.7350 H   0  0  0  0  0  0  0  0  0  0  0  0  # atno 8008 bound_to 7997
  156.2516  140.2892  156.0688 H   0  0  0  0  0  0  0  0  0  0  0  0  # atno 8009 bound_to 7997
  155.1634  140.0385  157.2837 H   0  0  0  0  0  0  0  0  0  0  0  0  # atno 8010 bound_to 7997
  140.6830  143.2845  151.3739 H   0  0  0  0  0  0  0  0  0  0  0  0  # atno 10167 bound_to 10162
  157.5514  131.1094  150.8696 H   0  0  0  0  0  0  0  0  0  0  0  0  # atno 10718 bound_to 10713
  153.4742  135.7017  153.5975 H   0  0  0  0  0  0  0  0  0  0  0  0  # atno 10763 bound_to 10752
  153.4216  135.3824  155.2115 H   0  0  0  0  0  0  0  0  0  0  0  0  # atno 10764 bound_to 10752
  154.8724  135.3929  154.4184 H   0  0  0  0  0  0  0  0  0  0  0  0  # atno 10765 bound_to 10752
  139.9173  134.7842  156.1779 H   0  0  0  0  0  0  0  0  0  0  0  0  # atno 11005 bound_to 11000
  144.8397  139.5491  143.6906 LP  0  0  0  0  0  0  0  0  0  0  0  0  # atno 17320 bound_to 7965
  146.2768  139.6774  142.9257 LP  0  0  0  0  0  0  0  0  0  0  0  0  # atno 17321 bound_to 7965
  139.6166  144.0991  152.2351 LP  0  0  0  0  0  0  0  0  0  0  0  0  # atno 17342 bound_to 10162
  140.0422  144.5999  150.7402 LP  0  0  0  0  0  0  0  0  0  0  0  0  # atno 17343 bound_to 10162
  156.9219  130.5318  149.5279 LP  0  0  0  0  0  0  0  0  0  0  0  0  # atno 17370 bound_to 10713
  156.0580  130.5638  150.9132 LP  0  0  0  0  0  0  0  0  0  0  0  0  # atno 17371 bound_to 10713
  141.0660  133.6819  156.2046 LP  0  0  0  0  0  0  0  0  0  0  0  0  # atno 17394 bound_to 11000
  140.6584  134.4994  157.5582 LP  0  0  0  0  0  0  0  0  0  0  0  0  # atno 17395 bound_to 11000

$$$$
