AV-unprocessed.smi:3294|AV-procd|sdf|12634|dock2
  -GOLD-   2272018573D 1   1.00000     0.00000
 Structure written by MMmdl.
 38 40  0  0  0  0  0  0  0  0  2 V2000
  147.5781  139.6672  153.6244 C   0  0  0  0  0  0  0  0  0  0  0  0
  148.9947  139.4483  154.1122 C   0  0  0  0  0  0  0  0  0  0  0  0
  149.5812  140.2542  155.1115 C   0  0  0  0  0  0  0  0  0  0  0  0
  150.9143  139.9968  155.5210 C   0  0  0  0  0  0  0  0  0  0  0  0
  151.5863  140.7375  156.5310 N   0  0  0  0  0  0  0  0  0  0  0  0
  151.0554  141.3759  157.5881 C   0  0  0  0  0  0  0  0  0  0  0  0
  149.8526  141.4496  157.8377 O   0  0  0  0  0  0  0  0  0  0  0  0
  152.0101  141.9492  158.3372 N   0  0  0  0  0  0  0  0  0  0  0  0
  151.8116  142.7368  159.5531 C   0  0  0  0  0  0  0  0  0  0  0  0
  151.1964  144.1068  159.3060 C   0  0  0  0  0  0  0  0  0  0  0  0
  152.0321  145.2644  158.8140 C   0  0  0  0  0  0  0  0  0  0  0  0
  151.4851  145.2699  160.2240 C   0  0  0  0  0  0  0  0  0  0  0  0
  153.0565  142.8495  160.4208 C   0  0  0  0  0  0  0  0  0  0  0  0
  153.7301  141.6214  160.9841 C   0  0  0  0  0  0  0  0  0  0  0  0
  153.0040  142.5764  161.9051 C   0  0  0  0  0  0  0  0  0  0  0  0
  151.6058  138.9169  154.9295 C   0  0  0  0  0  0  0  0  0  0  0  0
  150.9701  138.1458  153.9356 C   0  0  0  0  0  0  0  0  0  0  0  0
  149.7047  138.4367  153.5657 N   0  3  0  0  0  0  0  0  0  0  0  0
  147.1496  140.5728  154.0548 H   0  0  0  0  0  0  0  0  0  0  0  0
  146.9462  138.8243  153.9053 H   0  0  0  0  0  0  0  0  0  0  0  0
  147.5591  139.7658  152.5387 H   0  0  0  0  0  0  0  0  0  0  0  0
  148.9971  141.0459  155.5558 H   0  0  0  0  0  0  0  0  0  0  0  0
  152.5820  140.8435  156.4030 H   0  0  0  0  0  0  0  0  0  0  0  0
  152.9679  141.8325  158.0403 H   0  0  0  0  0  0  0  0  0  0  0  0
  151.0811  142.1656  160.1277 H   0  0  0  0  0  0  0  0  0  0  0  0
  150.1859  144.0655  158.9038 H   0  0  0  0  0  0  0  0  0  0  0  0
  153.1021  145.1079  158.6943 H   0  0  0  0  0  0  0  0  0  0  0  0
  151.5764  145.9408  158.0937 H   0  0  0  0  0  0  0  0  0  0  0  0
  150.6650  145.9503  160.4438 H   0  0  0  0  0  0  0  0  0  0  0  0
  152.1920  145.1129  161.0363 H   0  0  0  0  0  0  0  0  0  0  0  0
  153.7234  143.6568  160.1237 H   0  0  0  0  0  0  0  0  0  0  0  0
  153.2656  140.6556  160.7953 H   0  0  0  0  0  0  0  0  0  0  0  0
  154.8176  141.6175  161.0174 H   0  0  0  0  0  0  0  0  0  0  0  0
  153.6074  143.2093  162.5527 H   0  0  0  0  0  0  0  0  0  0  0  0
  152.0606  142.2396  162.3302 H   0  0  0  0  0  0  0  0  0  0  0  0
  152.6178  138.6828  155.2272 H   0  0  0  0  0  0  0  0  0  0  0  0
  151.4314  137.3097  153.4308 H   0  0  0  0  0  0  0  0  0  0  0  0
  149.2628  137.8647  152.8454 H   0  0  0  0  0  0  0  0  0  0  0  0
  1  2  1  0  0  0  0
  1 19  1  0  0  0  0
  1 20  1  0  0  0  0
  1 21  1  0  0  0  0
  2 18  1  0  0  0  0
  2  3  2  0  0  0  0
  3  4  1  0  0  0  0
  3 22  1  0  0  0  0
  4  5  1  0  0  0  0
  4 16  2  0  0  0  0
  5  6  1  0  0  0  0
  5 23  1  0  0  0  0
  6  7  2  0  0  0  0
  6  8  1  0  0  0  0
  8  9  1  0  0  0  0
  8 24  1  0  0  0  0
  9 10  1  0  0  0  0
  9 13  1  0  0  0  0
  9 25  1  0  0  0  0
 10 12  1  0  0  0  0
 10 11  1  0  0  0  0
 10 26  1  0  0  0  0
 11 12  1  0  0  0  0
 11 27  1  0  0  0  0
 11 28  1  0  0  0  0
 12 29  1  0  0  0  0
 12 30  1  0  0  0  0
 13 15  1  0  0  0  0
 13 14  1  0  0  0  0
 13 31  1  0  0  0  0
 14 15  1  0  0  0  0
 14 32  1  0  0  0  0
 14 33  1  0  0  0  0
 15 34  1  0  0  0  0
 15 35  1  0  0  0  0
 16 17  1  0  0  0  0
 16 36  1  0  0  0  0
 17 18  2  0  0  0  0
 17 37  1  0  0  0  0
 18 38  1  0  0  0  0
M  CHG  1  18   1
M  END
> <s_m_source_file>
AV-unprocessed.smi

> <i_m_source_file_index>
3294

> <i_lp_mmshare_version>
43012

> <i_f3d_flags>
0

> <s_epik_input>
W0NIM11jMVtjSF1jKFtjSF1bY0hdbjEpW05IXUMoPU8pW05IXVtDSF0oW0NIXTJbQ0gyXVtDSDJdMilbQ0hdM1tDSDJdW0NIMl0z

> <s_epik_cmdline>
J2VwaWtfcHl0aG9uJywgJy1waCcsICc3LjAnLCAnLXRuJywgJzgnLCAnLW1hJywgJzIwMCcsICctbWV0YWxfYmluZGluZycsICctaW1hZScsICc8aW5maWxlLm1hZT4nLCAnLW9tYWUnLCAnPG91dGZpbGUubWFlPic=

> <r_epik_Ionization_Penalty>
0.432398

> <r_epik_Ionization_Penalty_Charging>
0.432376

> <r_epik_Ionization_Penalty_Neutral>
2.18467e-05

> <r_epik_State_Penalty>
0.433859

> <r_epik_Charging_Adjusted_Penalty>
0.866235

> <i_epik_Tot_Q>
1

> <i_epik_Tot_abs_Q>
1

> <r_epik_Metal_State_Penalty>
0.667026

> <b_epik_Metal_Only>
0

> <s_lp_Force_Field>
OPLS_2005

> <r_lp_Energy>
34.1615

> <b_lp_Chiralities_Consistent>
1

> <s_lp_Variant>
AV-unprocessed.smi:3294-2

> <Gold.Version>
5.8.1

> <Gold.Id.Protein>
6NUR|6NUR_protein|mol2

> <Gold.PLP.Fitness>
51.4264

> <Gold.PLP.PLP>
-46.4061

> <Gold.PLP.part.hbond>
-2.0000

> <Gold.PLP.part.metal>
0.0000

> <Gold.PLP.part.buried>
-3.6252

> <Gold.PLP.part.nonpolar>
-40.4541

> <Gold.PLP.part.repulsive>
0.3447

> <Gold.PLP.ligand.clash>
0.0000

> <Gold.PLP.ligand.torsion>
1.5748

> <Gold.PLP.Chemscore.Hbond>
2.0000

> <Gold.PLP.Chemscore.CHOScore>
0.0000

> <Gold.PLP.Chemscore.Metal>
0.0000

> <Gold.Chemscore.Hbonds>
donor molecule, donor type, donor heavy atom, donor atom, acceptor molecule, acceptor atom, score
      L1  H    18    38       P1  7948  2.00

> <Gold.PLP.Chemscore.Internal.Correction>
2.1699

> <Gold.Rescore>
     Score         DG    S(hbond)    S(metal)    S(lipo)     H(rot)  DE(clash)    DE(int)     intcor
     17.10     -19.86       0.97        0.00     123.93       1.31       0.03       2.73       ----

> <Gold.Chemscore.Fitness>
17.1009

> <Gold.Chemscore.DG>
-19.8584

> <Gold.Chemscore.ZeroCoef>
-5.4800

> <Gold.Chemscore.Hbond>
0.9684

> <Gold.Chemscore.Metal>
0.0000

> <Gold.Chemscore.Lipo>
123.9340

> <Gold.Chemscore.Internal_Hbond>
0.0000

> <Gold.Chemscore.DEClash>
0.0308

> <Gold.Chemscore.DEInternal>
2.7268

> <Gold.Chemscore.Rot>
1.3111

> <Gold.Chemscore.Internal.Correction>
   9.000000E+99

> <Gold.Chemscore.Hbonds>
donor molecule, donor type, donor heavy atom, donor atom, acceptor molecule, acceptor atom, score
      L1  H    18    38       P1  7948  0.93

> <Gold.Chemscore.Hbond.Weighted>
-3.2346

> <Gold.Chemscore.Metal.Weighted>
-0.0000

> <Gold.Chemscore.Lipo.Weighted>
-14.5003

> <Gold.Chemscore.Internal_Hbond.Weighted>
0.0000

> <Gold.Chemscore.DEClash.Weighted>
0.0308

> <Gold.Chemscore.DEInternal.Weighted>
2.7268

> <Gold.Chemscore.Rot.Weighted>
3.3564

> <Gold.Chemscore.Internal.Correction.Weighted>
   9.000000E+99

> <Gold.Protein.RotatedTorsions>
[ 6907 6896 6895 6894 ] final   68.64 input  -60.11 | X-H torsion
[ 7974 7965 7964 7962 ] final -168.36 input  175.53 | X-H torsion
[ 8008 7997 7996 7995 ] final  -36.13 input   59.86 | X-H torsion
[ 10167 10162 10161 10158 ] final  146.65 input  -65.29 | X-H torsion
[ 10718 10713 10712 10709 ] final    1.50 input   66.30 | X-H torsion
[ 10763 10752 10751 10750 ] final -108.28 input  -60.55 | X-H torsion
[ 11005 11000 10999 10996 ] final  138.10 input  -57.11 | X-H torsion

> <Gold.Protein.ActiveResidues>
 VAL166  LYS551  ARG553  GLY616  TRP617  ASP618  TYR619  PRO620  LYS621  CYS622 
 ASP623  PHE694  ASN695  SER759  ASP760  ASP761  ALA762  ILE779  LEU786  VAL792 
 PHE793  MET794  SER795  GLU796  ALA797  LYS798  CYS799  TRP800  GLU811  SER814 

> <Gold.Protein.RotatedAtoms>
  152.4633  134.5133  159.9760 H   0  0  0  0  0  0  0  0  0  0  0  0  # atno 6907 bound_to 6896
  151.5177  133.3466  159.2904 H   0  0  0  0  0  0  0  0  0  0  0  0  # atno 6908 bound_to 6896
  150.8606  134.7986  159.7142 H   0  0  0  0  0  0  0  0  0  0  0  0  # atno 6909 bound_to 6896
  144.7204  140.2381  143.6295 H   0  0  0  0  0  0  0  0  0  0  0  0  # atno 7974 bound_to 7965
  154.4080  140.1639  156.2324 H   0  0  0  0  0  0  0  0  0  0  0  0  # atno 8008 bound_to 7997
  155.9271  140.3417  155.6196 H   0  0  0  0  0  0  0  0  0  0  0  0  # atno 8009 bound_to 7997
  155.7152  140.0761  157.2345 H   0  0  0  0  0  0  0  0  0  0  0  0  # atno 8010 bound_to 7997
  139.4903  144.5814  151.6865 H   0  0  0  0  0  0  0  0  0  0  0  0  # atno 10167 bound_to 10162
  156.8490  130.5547  149.5671 H   0  0  0  0  0  0  0  0  0  0  0  0  # atno 10718 bound_to 10713
  154.8126  135.4643  154.0557 H   0  0  0  0  0  0  0  0  0  0  0  0  # atno 10763 bound_to 10752
  153.1976  135.6864  153.8279 H   0  0  0  0  0  0  0  0  0  0  0  0  # atno 10764 bound_to 10752
  153.7775  135.3261  155.3338 H   0  0  0  0  0  0  0  0  0  0  0  0  # atno 10765 bound_to 10752
  140.0160  134.9418  157.0376 H   0  0  0  0  0  0  0  0  0  0  0  0  # atno 11005 bound_to 11000
  145.8346  139.2101  143.1863 LP  0  0  0  0  0  0  0  0  0  0  0  0  # atno 17320 bound_to 7965
  146.0401  140.8174  142.9833 LP  0  0  0  0  0  0  0  0  0  0  0  0  # atno 17321 bound_to 7965
  140.5420  144.0563  150.6092 LP  0  0  0  0  0  0  0  0  0  0  0  0  # atno 17342 bound_to 10162
  140.3589  143.2920  152.0406 LP  0  0  0  0  0  0  0  0  0  0  0  0  # atno 17343 bound_to 10162
  156.0838  130.5842  150.9612 LP  0  0  0  0  0  0  0  0  0  0  0  0  # atno 17370 bound_to 10713
  157.6313  131.0920  150.8435 LP  0  0  0  0  0  0  0  0  0  0  0  0  # atno 17371 bound_to 10713
  140.4471  134.1621  155.7178 LP  0  0  0  0  0  0  0  0  0  0  0  0  # atno 17394 bound_to 11000
  141.1743  133.8546  157.1473 LP  0  0  0  0  0  0  0  0  0  0  0  0  # atno 17395 bound_to 11000

$$$$
