AV-unprocessed.smi:1243|AV-procd|sdf|5219|dock2
  -GOLD-   22720 4313D 1   1.00000     0.00000
 Structure written by MMmdl.
 51 52  0  0  0  0  0  0  0  0  2 V2000
  145.1985  138.0687  161.9458 C   0  0  0  0  0  0  0  0  0  0  0  0
  146.0721  137.4372  161.0162 O   0  0  0  0  0  0  0  0  0  0  0  0
  146.6015  136.2029  161.3419 C   0  0  0  0  0  0  0  0  0  0  0  0
  146.8092  135.9147  162.6512 N   0  0  0  0  0  0  0  0  0  0  0  0
  147.3236  134.7093  162.9705 C   0  0  0  0  0  0  0  0  0  0  0  0
  147.6497  133.7326  162.0120 C   0  0  0  0  0  0  0  0  0  0  0  0
  147.4348  134.0287  160.6534 C   0  0  0  0  0  0  0  0  0  0  0  0
  146.9091  135.2954  160.3013 C   0  0  0  0  0  0  0  0  0  0  0  0
  146.6345  135.6878  158.9625 N   0  0  0  0  0  0  0  0  0  0  0  0
  146.4691  134.9075  157.8817 C   0  0  0  0  0  0  0  0  0  0  0  0
  146.5471  133.6791  157.8713 O   0  0  0  0  0  0  0  0  0  0  0  0
  146.2174  135.6418  156.7885 N   0  0  0  0  0  0  0  0  0  0  0  0
  146.0184  135.1172  155.4378 C   0  0  0  0  0  0  0  0  0  0  0  0
  147.1016  135.5875  154.4200 C   0  0  0  0  0  0  0  0  0  0  0  0
  147.2340  137.1316  154.4437 C   0  0  0  0  0  0  0  0  0  0  0  0
  148.4865  135.0331  154.8384 C   0  0  0  0  0  0  0  0  0  0  0  0
  146.7725  135.1321  153.0205 N   0  3  0  0  0  0  0  0  0  0  0  0
  145.6178  135.8149  152.3686 C   0  0  0  0  0  0  0  0  0  0  0  0
  145.5237  135.4277  150.8777 C   0  0  0  0  0  0  0  0  0  0  0  0
  145.4047  133.9831  150.6853 N   0  0  0  0  0  0  0  0  0  0  0  0
  144.1052  133.4545  151.0858 C   0  0  0  0  0  0  0  0  0  0  0  0
  146.5288  133.3075  151.3319 C   0  0  0  0  0  0  0  0  0  0  0  0
  146.6398  133.6590  152.8303 C   0  0  0  0  0  0  0  0  0  0  0  0
  144.8767  139.0288  161.5424 H   0  0  0  0  0  0  0  0  0  0  0  0
  145.6994  138.2601  162.8960 H   0  0  0  0  0  0  0  0  0  0  0  0
  144.3049  137.4698  162.1259 H   0  0  0  0  0  0  0  0  0  0  0  0
  147.4732  134.5152  164.0223 H   0  0  0  0  0  0  0  0  0  0  0  0
  148.0512  132.7761  162.3123 H   0  0  0  0  0  0  0  0  0  0  0  0
  147.6616  133.2770  159.9131 H   0  0  0  0  0  0  0  0  0  0  0  0
  146.6353  136.6840  158.7982 H   0  0  0  0  0  0  0  0  0  0  0  0
  146.1749  136.6448  156.8953 H   0  0  0  0  0  0  0  0  0  0  0  0
  146.0303  134.0321  155.5330 H   0  0  0  0  0  0  0  0  0  0  0  0
  145.0170  135.3725  155.0907 H   0  0  0  0  0  0  0  0  0  0  0  0
  147.6835  137.4865  155.3717 H   0  0  0  0  0  0  0  0  0  0  0  0
  146.2684  137.6312  154.3671 H   0  0  0  0  0  0  0  0  0  0  0  0
  147.8648  137.4902  153.6293 H   0  0  0  0  0  0  0  0  0  0  0  0
  148.8474  135.4992  155.7560 H   0  0  0  0  0  0  0  0  0  0  0  0
  149.2382  135.2182  154.0698 H   0  0  0  0  0  0  0  0  0  0  0  0
  148.4633  133.9616  155.0352 H   0  0  0  0  0  0  0  0  0  0  0  0
  144.6873  135.5786  152.8834 H   0  0  0  0  0  0  0  0  0  0  0  0
  145.7273  136.8965  152.4082 H   0  0  0  0  0  0  0  0  0  0  0  0
  144.6772  135.9295  150.4074 H   0  0  0  0  0  0  0  0  0  0  0  0
  146.4159  135.7749  150.3550 H   0  0  0  0  0  0  0  0  0  0  0  0
  144.0483  132.3878  150.8663 H   0  0  0  0  0  0  0  0  0  0  0  0
  143.3096  133.9485  150.5273 H   0  0  0  0  0  0  0  0  0  0  0  0
  143.9047  133.5904  152.1479 H   0  0  0  0  0  0  0  0  0  0  0  0
  146.4307  132.2291  151.2012 H   0  0  0  0  0  0  0  0  0  0  0  0
  147.4483  133.5966  150.8208 H   0  0  0  0  0  0  0  0  0  0  0  0
  147.5107  133.1340  153.2169 H   0  0  0  0  0  0  0  0  0  0  0  0
  145.7780  133.2742  153.3746 H   0  0  0  0  0  0  0  0  0  0  0  0
  147.5768  135.3966  152.4700 H   0  0  0  0  0  0  0  0  0  0  0  0
  1  2  1  0  0  0  0
  1 24  1  0  0  0  0
  1 25  1  0  0  0  0
  1 26  1  0  0  0  0
  2  3  1  0  0  0  0
  3  8  1  0  0  0  0
  3  4  2  0  0  0  0
  4  5  1  0  0  0  0
  5  6  2  0  0  0  0
  5 27  1  0  0  0  0
  6  7  1  0  0  0  0
  6 28  1  0  0  0  0
  7  8  2  0  0  0  0
  7 29  1  0  0  0  0
  8  9  1  0  0  0  0
  9 10  1  0  0  0  0
  9 30  1  0  0  0  0
 10 11  2  0  0  0  0
 10 12  1  0  0  0  0
 12 13  1  0  0  0  0
 12 31  1  0  0  0  0
 13 14  1  0  0  0  0
 13 32  1  0  0  0  0
 13 33  1  0  0  0  0
 14 15  1  0  0  0  0
 14 16  1  0  0  0  0
 14 17  1  0  0  0  0
 15 34  1  0  0  0  0
 15 35  1  0  0  0  0
 15 36  1  0  0  0  0
 16 37  1  0  0  0  0
 16 38  1  0  0  0  0
 16 39  1  0  0  0  0
 17 23  1  0  0  0  0
 17 18  1  0  0  0  0
 17 51  1  0  0  0  0
 18 19  1  0  0  0  0
 18 40  1  0  0  0  0
 18 41  1  0  0  0  0
 19 20  1  0  0  0  0
 19 42  1  0  0  0  0
 19 43  1  0  0  0  0
 20 21  1  0  0  0  0
 20 22  1  0  0  0  0
 21 44  1  0  0  0  0
 21 45  1  0  0  0  0
 21 46  1  0  0  0  0
 22 23  1  0  0  0  0
 22 47  1  0  0  0  0
 22 48  1  0  0  0  0
 23 49  1  0  0  0  0
 23 50  1  0  0  0  0
M  CHG  1  17   1
M  END
> <s_m_source_file>
AV-unprocessed.smi

> <i_m_source_file_index>
1243

> <i_lp_mmshare_version>
43012

> <i_f3d_flags>
0

> <s_epik_input>
W0NIM11PYzFuW2NIXVtjSF1bY0hdYzFbTkhdQyg9TylbTkhdW0NIMl1DKFtDSDNdKShbQ0gzXSlOMltDSDJdW0NIMl1OKFtDSDNdKVtDSDJdW0NIMl0y

> <s_epik_cmdline>
J2VwaWtfcHl0aG9uJywgJy1waCcsICc3LjAnLCAnLXRuJywgJzgnLCAnLW1hJywgJzIwMCcsICctbWV0YWxfYmluZGluZycsICctaW1hZScsICc8aW5maWxlLm1hZT4nLCAnLW9tYWUnLCAnPG91dGZpbGUubWFlPic=

> <r_epik_Ionization_Penalty>
0.0907124

> <r_epik_Ionization_Penalty_Charging>
0.0886444

> <r_epik_Ionization_Penalty_Neutral>
0.00206798

> <r_epik_State_Penalty>
1.00524

> <r_epik_Charging_Adjusted_Penalty>
1.09388

> <i_epik_Tot_Q>
1

> <i_epik_Tot_abs_Q>
1

> <r_epik_Metal_State_Penalty>
1.00525

> <b_epik_Metal_Only>
0

> <s_lp_Force_Field>
OPLS_2005

> <r_lp_Energy>
29.8833

> <b_lp_Chiralities_Consistent>
1

> <s_lp_Variant>
AV-unprocessed.smi:1243-2

> <Gold.Version>
5.8.1

> <Gold.Id.Protein>
6NUR|6NUR_protein|mol2

> <Gold.PLP.Fitness>
35.8207

> <Gold.PLP.PLP>
-28.4695

> <Gold.PLP.part.hbond>
-2.0000

> <Gold.PLP.part.metal>
0.0000

> <Gold.PLP.part.buried>
-3.0997

> <Gold.PLP.part.nonpolar>
-22.9463

> <Gold.PLP.part.repulsive>
0.1692

> <Gold.PLP.ligand.clash>
0.0000

> <Gold.PLP.ligand.torsion>
0.5887

> <Gold.PLP.Chemscore.Hbond>
2.8000

> <Gold.PLP.Chemscore.CHOScore>
0.0000

> <Gold.PLP.Chemscore.Metal>
0.0000

> <Gold.Chemscore.Hbonds>
donor molecule, donor type, donor heavy atom, donor atom, acceptor molecule, acceptor atom, score
      L1  H    17    51       P1  7948  2.00
      P1  H  6934  6947       L1     2  0.50

> <Gold.PLP.Chemscore.Internal.Correction>
0.1287

> <Gold.Rescore>
     Score         DG    S(hbond)    S(metal)    S(lipo)     H(rot)  DE(clash)    DE(int)     intcor
     11.49     -13.24       1.28        0.00      67.52       1.72       0.00       1.75       ----

> <Gold.Chemscore.Fitness>
11.4866

> <Gold.Chemscore.DG>
-13.2420

> <Gold.Chemscore.ZeroCoef>
-5.4800

> <Gold.Chemscore.Hbond>
1.2779

> <Gold.Chemscore.Metal>
0.0000

> <Gold.Chemscore.Lipo>
67.5239

> <Gold.Chemscore.Internal_Hbond>
0.0000

> <Gold.Chemscore.DEClash>
0.0048

> <Gold.Chemscore.DEInternal>
1.7506

> <Gold.Chemscore.Rot>
1.7213

> <Gold.Chemscore.Internal.Correction>
   9.000000E+99

> <Gold.Chemscore.Hbonds>
donor molecule, donor type, donor heavy atom, donor atom, acceptor molecule, acceptor atom, score
      L1  H    17    51       P1  7948  1.00
      P1  H  6934  6947       L1     2  0.02

> <Gold.Chemscore.Hbond.Weighted>
-4.2683

> <Gold.Chemscore.Metal.Weighted>
-0.0000

> <Gold.Chemscore.Lipo.Weighted>
-7.9003

> <Gold.Chemscore.Internal_Hbond.Weighted>
0.0000

> <Gold.Chemscore.DEClash.Weighted>
0.0048

> <Gold.Chemscore.DEInternal.Weighted>
1.7506

> <Gold.Chemscore.Rot.Weighted>
4.4066

> <Gold.Chemscore.Internal.Correction.Weighted>
   9.000000E+99

> <Gold.Protein.RotatedTorsions>
[ 6907 6896 6895 6894 ] final -178.84 input  -60.11 | X-H torsion
[ 7974 7965 7964 7962 ] final -146.22 input  175.53 | X-H torsion
[ 8008 7997 7996 7995 ] final -154.42 input   59.86 | X-H torsion
[ 10167 10162 10161 10158 ] final  164.74 input  -65.29 | X-H torsion
[ 10718 10713 10712 10709 ] final  164.72 input   66.30 | X-H torsion
[ 10763 10752 10751 10750 ] final  145.17 input  -60.55 | X-H torsion
[ 11005 11000 10999 10996 ] final   25.04 input  -57.11 | X-H torsion

> <Gold.Protein.ActiveResidues>
 VAL166  LYS551  ARG553  GLY616  TRP617  ASP618  TYR619  PRO620  LYS621  CYS622 
 ASP623  PHE694  ASN695  SER759  ASP760  ASP761  ALA762  ILE779  LEU786  VAL792 
 PHE793  MET794  SER795  GLU796  ALA797  LYS798  CYS799  TRP800  GLU811  SER814 

> <Gold.Protein.RotatedAtoms>
  151.6438  133.3324  159.3135 H   0  0  0  0  0  0  0  0  0  0  0  0  # atno 6907 bound_to 6896
  150.7995  134.7082  159.6598 H   0  0  0  0  0  0  0  0  0  0  0  0  # atno 6908 bound_to 6896
  152.4085  134.6169  160.0092 H   0  0  0  0  0  0  0  0  0  0  0  0  # atno 6909 bound_to 6896
  144.8174  140.5484  143.5601 H   0  0  0  0  0  0  0  0  0  0  0  0  # atno 7974 bound_to 7965
  155.6861  140.0750  157.2466 H   0  0  0  0  0  0  0  0  0  0  0  0  # atno 8008 bound_to 7997
  154.4097  140.1673  156.2088 H   0  0  0  0  0  0  0  0  0  0  0  0  # atno 8009 bound_to 7997
  155.9492  140.3378  155.6396 H   0  0  0  0  0  0  0  0  0  0  0  0  # atno 8010 bound_to 7997
  139.4894  144.4204  151.9193 H   0  0  0  0  0  0  0  0  0  0  0  0  # atno 10167 bound_to 10162
  157.0903  131.0416  151.2540 H   0  0  0  0  0  0  0  0  0  0  0  0  # atno 10718 bound_to 10713
  154.0009  135.2923  155.3402 H   0  0  0  0  0  0  0  0  0  0  0  0  # atno 10763 bound_to 10752
  154.7160  135.5129  153.8741 H   0  0  0  0  0  0  0  0  0  0  0  0  # atno 10764 bound_to 10752
  153.0766  135.6665  154.0251 H   0  0  0  0  0  0  0  0  0  0  0  0  # atno 10765 bound_to 10752
  140.3522  134.2216  155.7679 H   0  0  0  0  0  0  0  0  0  0  0  0  # atno 11005 bound_to 11000
  145.5183  139.1477  143.3566 LP  0  0  0  0  0  0  0  0  0  0  0  0  # atno 17320 bound_to 7965
  146.2478  140.5324  142.8906 LP  0  0  0  0  0  0  0  0  0  0  0  0  # atno 17321 bound_to 7965
  140.3648  144.2928  150.5928 LP  0  0  0  0  0  0  0  0  0  0  0  0  # atno 17342 bound_to 10162
  140.5371  143.2231  151.8145 LP  0  0  0  0  0  0  0  0  0  0  0  0  # atno 17343 bound_to 10162
  157.4727  130.7718  149.7338 LP  0  0  0  0  0  0  0  0  0  0  0  0  # atno 17370 bound_to 10713
  155.9900  130.3948  150.3049 LP  0  0  0  0  0  0  0  0  0  0  0  0  # atno 17371 bound_to 10713
  141.2009  133.7977  157.0468 LP  0  0  0  0  0  0  0  0  0  0  0  0  # atno 17394 bound_to 11000
  140.0694  134.9711  157.1441 LP  0  0  0  0  0  0  0  0  0  0  0  0  # atno 17395 bound_to 11000

$$$$
