AV-unprocessed.smi:2453|AV-procd|sdf|9690|dock7
  -GOLD-   2272013333D 1   1.00000     0.00000
 Structure written by MMmdl.
 40 41  0  0  0  0  0  0  0  0  1 V2000
  146.5951  142.3917  154.1795 C   0  0  0  0  0  0  0  0  0  0  0  0
  146.4930  141.1408  155.0346 C   0  0  0  0  0  0  0  0  0  0  0  0
  145.5062  140.1724  154.7497 C   0  0  0  0  0  0  0  0  0  0  0  0
  145.3507  139.0344  155.4572 N   0  0  0  0  0  0  0  0  0  0  0  0
  146.1918  138.8168  156.4887 C   0  0  0  0  0  0  0  0  0  0  0  0
  147.2120  139.7138  156.8607 C   0  0  0  0  0  0  0  0  0  0  0  0
  147.3660  140.9148  156.1265 C   0  0  0  0  0  0  0  0  0  0  0  0
  148.3800  141.8759  156.4023 N   0  0  0  0  0  0  0  0  0  0  0  0
  149.3495  141.8376  157.3326 C   0  0  0  0  0  0  0  0  0  0  0  0
  149.4982  140.9504  158.1728 O   0  0  0  0  0  0  0  0  0  0  0  0
  150.1438  142.9145  157.2454 N   0  0  0  0  0  0  0  0  0  0  0  0
  151.2908  143.1919  158.1088 C   0  0  1  0  0  0  0  0  0  0  0  0
  150.8093  143.8621  159.4138 C   0  0  0  0  0  0  0  0  0  0  0  0
  151.9701  144.1141  160.3865 C   0  0  0  0  0  0  0  0  0  0  0  0
  152.7208  142.8122  160.6968 C   0  0  0  0  0  0  0  0  0  0  0  0
  153.2241  142.1474  159.4069 C   0  0  0  0  0  0  0  0  0  0  0  0
  152.0761  141.8874  158.4070 C   0  0  2  0  0  0  0  0  0  0  0  0
  152.5811  141.1596  157.1406 C   0  0  0  0  0  0  0  0  0  0  0  0
  153.4693  140.1078  157.4590 O   0  0  0  0  0  0  0  0  0  0  0  0
  145.8276  142.4069  153.4051 H   0  0  0  0  0  0  0  0  0  0  0  0
  147.5686  142.4394  153.6910 H   0  0  0  0  0  0  0  0  0  0  0  0
  146.4714  143.2838  154.7941 H   0  0  0  0  0  0  0  0  0  0  0  0
  144.8207  140.3115  153.9265 H   0  0  0  0  0  0  0  0  0  0  0  0
  146.0535  137.8937  157.0316 H   0  0  0  0  0  0  0  0  0  0  0  0
  147.8575  139.4561  157.6857 H   0  0  0  0  0  0  0  0  0  0  0  0
  148.3355  142.7172  155.8467 H   0  0  0  0  0  0  0  0  0  0  0  0
  149.9432  143.5949  156.5275 H   0  0  0  0  0  0  0  0  0  0  0  0
  151.9615  143.8833  157.5949 H   0  0  0  0  0  0  0  0  0  0  0  0
  150.3130  144.8075  159.1910 H   0  0  0  0  0  0  0  0  0  0  0  0
  150.0636  143.2311  159.8994 H   0  0  0  0  0  0  0  0  0  0  0  0
  152.6592  144.8407  159.9541 H   0  0  0  0  0  0  0  0  0  0  0  0
  151.5929  144.5555  161.3092 H   0  0  0  0  0  0  0  0  0  0  0  0
  153.5609  143.0173  161.3609 H   0  0  0  0  0  0  0  0  0  0  0  0
  152.0624  142.1266  161.2319 H   0  0  0  0  0  0  0  0  0  0  0  0
  153.9794  142.7863  158.9476 H   0  0  0  0  0  0  0  0  0  0  0  0
  153.7237  141.2100  159.6535 H   0  0  0  0  0  0  0  0  0  0  0  0
  151.3838  141.2019  158.8989 H   0  0  0  0  0  0  0  0  0  0  0  0
  151.7395  140.7454  156.5846 H   0  0  0  0  0  0  0  0  0  0  0  0
  153.0863  141.8523  156.4673 H   0  0  0  0  0  0  0  0  0  0  0  0
  152.9870  139.4318  157.9107 H   0  0  0  0  0  0  0  0  0  0  0  0
  1  2  1  0  0  0  0
  1 20  1  0  0  0  0
  1 21  1  0  0  0  0
  1 22  1  0  0  0  0
  2  7  1  0  0  0  0
  2  3  2  0  0  0  0
  3  4  1  0  0  0  0
  3 23  1  0  0  0  0
  4  5  2  0  0  0  0
  5  6  1  0  0  0  0
  5 24  1  0  0  0  0
  6  7  2  0  0  0  0
  6 25  1  0  0  0  0
  7  8  1  0  0  0  0
  8  9  1  0  0  0  0
  8 26  1  0  0  0  0
  9 10  2  0  0  0  0
  9 11  1  0  0  0  0
 11 12  1  0  0  0  0
 11 27  1  0  0  0  0
 12 17  1  0  0  0  0
 12 13  1  0  0  0  0
 12 28  1  0  0  0  0
 13 14  1  0  0  0  0
 13 29  1  0  0  0  0
 13 30  1  0  0  0  0
 14 15  1  0  0  0  0
 14 31  1  0  0  0  0
 14 32  1  0  0  0  0
 15 16  1  0  0  0  0
 15 33  1  0  0  0  0
 15 34  1  0  0  0  0
 16 17  1  0  0  0  0
 16 35  1  0  0  0  0
 16 36  1  0  0  0  0
 17 18  1  0  0  0  0
 17 37  1  0  0  0  0
 18 19  1  0  0  0  0
 18 38  1  0  0  0  0
 18 39  1  0  0  0  0
 19 40  1  0  0  0  0
M  END
> <s_m_source_file>
AV-unprocessed.smi

> <i_m_source_file_index>
2453

> <i_lp_mmshare_version>
43012

> <i_f3d_flags>
0

> <s_epik_input>
W0NIM11jMVtjSF1uW2NIXVtjSF1jMVtOSF1DKD1PKVtOSF1bQ0BASF0yW0NIMl1bQ0gyXVtDSDJdW0NIMl1bQ0BIXTJbQ0gyXVtPSF0=

> <s_epik_cmdline>
J2VwaWtfcHl0aG9uJywgJy1waCcsICc3LjAnLCAnLXRuJywgJzgnLCAnLW1hJywgJzIwMCcsICctbWV0YWxfYmluZGluZycsICctaW1hZScsICc8aW5maWxlLm1hZT4nLCAnLW9tYWUnLCAnPG91dGZpbGUubWFlPic=

> <r_epik_Ionization_Penalty>
0.210691

> <r_epik_Ionization_Penalty_Charging>
0

> <r_epik_Ionization_Penalty_Neutral>
0.210691

> <r_epik_State_Penalty>
0.200732

> <r_epik_Charging_Adjusted_Penalty>
0.200732

> <i_epik_Tot_Q>
0

> <i_epik_Tot_abs_Q>
0

> <r_epik_Metal_State_Penalty>
0.147519

> <b_epik_Metal_Only>
0

> <s_lp_Force_Field>
OPLS_2005

> <r_lp_Energy>
20.8004

> <b_lp_Chiralities_Consistent>
1

> <s_lp_Variant>
AV-unprocessed.smi:2453-4

> <Gold.Version>
5.8.1

> <Gold.Id.Protein>
6NUR|6NUR_protein|mol2

> <Gold.PLP.Fitness>
41.3888

> <Gold.PLP.PLP>
-30.3192

> <Gold.PLP.part.hbond>
-4.1820

> <Gold.PLP.part.metal>
0.0000

> <Gold.PLP.part.buried>
-3.7477

> <Gold.PLP.part.nonpolar>
-22.2571

> <Gold.PLP.part.repulsive>
0.0985

> <Gold.PLP.ligand.clash>
0.0000

> <Gold.PLP.ligand.torsion>
0.4014

> <Gold.PLP.Chemscore.Hbond>
2.9520

> <Gold.PLP.Chemscore.CHOScore>
1.0000

> <Gold.PLP.Chemscore.Metal>
0.0000

> <Gold.Chemscore.Hbonds>
donor molecule, donor type, donor heavy atom, donor atom, acceptor molecule, acceptor atom, score
      L1  H     8    26       P1  8028  0.86
      L1  H    11    27       P1  8028  1.00
      P1  H  7997  8009       L1    19  0.21
      L1  C     3    23       P1 10175  0.54

> <Gold.PLP.Chemscore.Internal.Correction>
0.0164

> <Gold.Rescore>
     Score         DG    S(hbond)    S(metal)    S(lipo)     H(rot)  DE(clash)    DE(int)     intcor
     15.92     -18.99       2.46        0.00      83.70       1.75       0.14       2.93       ----

> <Gold.Chemscore.Fitness>
15.9210

> <Gold.Chemscore.DG>
-18.9946

> <Gold.Chemscore.ZeroCoef>
-5.4800

> <Gold.Chemscore.Hbond>
2.4550

> <Gold.Chemscore.Metal>
0.0000

> <Gold.Chemscore.Lipo>
83.7010

> <Gold.Chemscore.Internal_Hbond>
0.0000

> <Gold.Chemscore.DEClash>
0.1439

> <Gold.Chemscore.DEInternal>
2.9297

> <Gold.Chemscore.Rot>
1.7493

> <Gold.Chemscore.Internal.Correction>
   9.000000E+99

> <Gold.Chemscore.Hbonds>
donor molecule, donor type, donor heavy atom, donor atom, acceptor molecule, acceptor atom, score
      L1  H     8    26       P1  8028  0.78
      L1  H    11    27       P1  8028  0.98
      P1  H  7997  8009       L1    19  0.20

> <Gold.Chemscore.Hbond.Weighted>
-8.1998

> <Gold.Chemscore.Metal.Weighted>
-0.0000

> <Gold.Chemscore.Lipo.Weighted>
-9.7930

> <Gold.Chemscore.Internal_Hbond.Weighted>
0.0000

> <Gold.Chemscore.DEClash.Weighted>
0.1439

> <Gold.Chemscore.DEInternal.Weighted>
2.9297

> <Gold.Chemscore.Rot.Weighted>
4.4782

> <Gold.Chemscore.Internal.Correction.Weighted>
   9.000000E+99

> <Gold.Protein.RotatedTorsions>
[ 6907 6896 6895 6894 ] final   62.15 input  -60.11 | X-H torsion
[ 7974 7965 7964 7962 ] final -128.18 input  175.53 | X-H torsion
[ 8008 7997 7996 7995 ] final  149.31 input   59.86 | X-H torsion
[ 10167 10162 10161 10158 ] final   85.65 input  -65.29 | X-H torsion
[ 10718 10713 10712 10709 ] final  -11.38 input   66.30 | X-H torsion
[ 10763 10752 10751 10750 ] final    6.44 input  -60.55 | X-H torsion
[ 11005 11000 10999 10996 ] final  -12.67 input  -57.11 | X-H torsion

> <Gold.Protein.ActiveResidues>
 VAL166  LYS551  ARG553  GLY616  TRP617  ASP618  TYR619  PRO620  LYS621  CYS622 
 ASP623  PHE694  ASN695  SER759  ASP760  ASP761  ALA762  ILE779  LEU786  VAL792 
 PHE793  MET794  SER795  GLU796  ALA797  LYS798  CYS799  TRP800  GLU811  SER814 

> <Gold.Protein.RotatedAtoms>
  152.4148  134.6061  160.0012 H   0  0  0  0  0  0  0  0  0  0  0  0  # atno 6907 bound_to 6896
  151.6228  133.3332  159.3099 H   0  0  0  0  0  0  0  0  0  0  0  0  # atno 6908 bound_to 6896
  150.8037  134.7187  159.6690 H   0  0  0  0  0  0  0  0  0  0  0  0  # atno 6909 bound_to 6896
  144.9696  140.7531  143.4679 H   0  0  0  0  0  0  0  0  0  0  0  0  # atno 7974 bound_to 7965
  156.2759  140.2105  156.5838 H   0  0  0  0  0  0  0  0  0  0  0  0  # atno 8008 bound_to 7997
  154.7037  140.0518  157.0507 H   0  0  0  0  0  0  0  0  0  0  0  0  # atno 8009 bound_to 7997
  155.0699  140.3175  155.4636 H   0  0  0  0  0  0  0  0  0  0  0  0  # atno 8010 bound_to 7997
  139.8956  144.6360  150.8692 H   0  0  0  0  0  0  0  0  0  0  0  0  # atno 10167 bound_to 10162
  156.6599  130.4979  149.6034 H   0  0  0  0  0  0  0  0  0  0  0  0  # atno 10718 bound_to 10713
  153.2477  135.6910  153.7713 H   0  0  0  0  0  0  0  0  0  0  0  0  # atno 10763 bound_to 10752
  153.6820  135.3327  155.3181 H   0  0  0  0  0  0  0  0  0  0  0  0  # atno 10764 bound_to 10752
  154.8381  135.4524  154.1422 H   0  0  0  0  0  0  0  0  0  0  0  0  # atno 10765 bound_to 10752
  140.7681  133.8460  155.9183 H   0  0  0  0  0  0  0  0  0  0  0  0  # atno 11005 bound_to 11000
  145.2578  139.2004  143.4908 LP  0  0  0  0  0  0  0  0  0  0  0  0  # atno 17320 bound_to 7965
  146.3378  140.2503  142.8598 LP  0  0  0  0  0  0  0  0  0  0  0  0  # atno 17321 bound_to 7965
  140.7717  143.3476  151.2079 LP  0  0  0  0  0  0  0  0  0  0  0  0  # atno 17342 bound_to 10162
  139.7071  143.9438  152.2931 LP  0  0  0  0  0  0  0  0  0  0  0  0  # atno 17343 bound_to 10162
  156.2019  130.6625  151.1176 LP  0  0  0  0  0  0  0  0  0  0  0  0  # atno 17370 bound_to 10713
  157.7113  131.0732  150.6490 LP  0  0  0  0  0  0  0  0  0  0  0  0  # atno 17371 bound_to 10713
  140.9599  134.1669  157.4662 LP  0  0  0  0  0  0  0  0  0  0  0  0  # atno 17394 bound_to 11000
  139.8760  134.9941  156.5676 LP  0  0  0  0  0  0  0  0  0  0  0  0  # atno 17395 bound_to 11000

$$$$
