AV-unprocessed.smi:276|AV-procd|sdf|2082|dock10
  -GOLD-   2262021353D 1   1.00000     0.00000
 Structure written by MMmdl.
 57 61  0  0  0  0  0  0  0  0  1 V2000
  153.1312  143.0747  162.9724 C   0  0  0  0  0  0  0  0  0  0  0  0
  152.6157  143.6372  161.7787 O   0  0  0  0  0  0  0  0  0  0  0  0
  152.2381  142.6501  160.8324 C   0  0  2  0  0  0  0  0  0  0  0  0
  153.4094  141.8634  160.2315 C   0  0  0  0  0  0  0  0  0  0  0  0
  152.7104  141.9543  158.8605 C   0  0  1  0  0  0  0  0  0  0  0  0
  151.8648  140.7787  158.6106 N   0  0  0  0  0  0  0  0  0  0  0  0
  152.2512  139.5452  159.2905 C   0  0  0  0  0  0  0  0  0  0  0  0
  151.5348  140.5274  157.3236 C   0  0  0  0  0  0  0  0  0  0  0  0
  152.4868  139.9491  156.5496 N   0  0  0  0  0  0  0  0  0  0  0  0
  152.2273  139.6643  155.2707 C   0  0  0  0  0  0  0  0  0  0  0  0
  151.1066  139.8785  154.5788 N   0  0  0  0  0  0  0  0  0  0  0  0
  150.1537  140.4785  155.3481 C   0  0  0  0  0  0  0  0  0  0  0  0
  150.2817  140.8370  156.7199 C   0  0  0  0  0  0  0  0  0  0  0  0
  149.1030  141.4233  157.1654 N   0  0  0  0  0  0  0  0  0  0  0  0
  148.3197  141.4003  156.1225 C   0  0  0  0  0  0  0  0  0  0  0  0
  148.8781  140.8715  154.9808 N   0  0  0  0  0  0  0  0  0  0  0  0
  148.2318  140.7253  153.6876 C   0  0  0  0  0  0  0  0  0  0  0  0
  147.0062  139.7805  153.6904 C   0  0  1  0  0  0  0  0  0  0  0  0
  146.3667  139.9886  152.4473 O   0  0  0  0  0  0  0  0  0  0  0  0
  147.3207  138.2697  153.7933 C   0  0  1  0  0  0  0  0  0  0  0  0
  148.0502  137.8139  155.0600 C   0  0  0  0  0  0  0  0  0  0  0  0
  147.6538  136.3546  155.2084 C   0  0  0  0  0  0  0  0  0  0  0  0
  146.4195  136.2182  154.3171 C   0  0  0  0  0  0  0  0  0  0  0  0
  146.1051  137.5456  153.9224 O   0  0  0  0  0  0  0  0  0  0  0  0
  151.9761  143.2034  159.4201 C   0  0  0  0  0  0  0  0  0  0  0  0
  152.4810  144.6070  159.0391 C   0  0  0  0  0  0  0  0  0  0  0  0
  151.0537  145.1199  159.2484 C   0  0  0  0  0  0  0  0  0  0  0  0
  150.5724  143.6871  159.0075 C   0  0  0  0  0  0  0  0  0  0  0  0
  153.4070  143.8714  163.6631 H   0  0  0  0  0  0  0  0  0  0  0  0
  154.0211  142.4750  162.7773 H   0  0  0  0  0  0  0  0  0  0  0  0
  152.3867  142.4466  163.4634 H   0  0  0  0  0  0  0  0  0  0  0  0
  151.4232  142.0071  161.1723 H   0  0  0  0  0  0  0  0  0  0  0  0
  154.3461  142.4230  160.2566 H   0  0  0  0  0  0  0  0  0  0  0  0
  153.5399  140.8645  160.6479 H   0  0  0  0  0  0  0  0  0  0  0  0
  153.4122  142.1786  158.0574 H   0  0  0  0  0  0  0  0  0  0  0  0
  151.9840  138.6486  158.7278 H   0  0  0  0  0  0  0  0  0  0  0  0
  151.7513  139.4841  160.2570 H   0  0  0  0  0  0  0  0  0  0  0  0
  153.3276  139.5212  159.4632 H   0  0  0  0  0  0  0  0  0  0  0  0
  153.0329  139.1977  154.7232 H   0  0  0  0  0  0  0  0  0  0  0  0
  147.3108  141.7849  156.1550 H   0  0  0  0  0  0  0  0  0  0  0  0
  147.9284  141.7240  153.3696 H   0  0  0  0  0  0  0  0  0  0  0  0
  148.9707  140.3822  152.9620 H   0  0  0  0  0  0  0  0  0  0  0  0
  146.3110  140.0698  154.4784 H   0  0  0  0  0  0  0  0  0  0  0  0
  145.5520  140.4422  152.6000 H   0  0  0  0  0  0  0  0  0  0  0  0
  147.8631  137.9229  152.9113 H   0  0  0  0  0  0  0  0  0  0  0  0
  149.1304  137.9400  154.9956 H   0  0  0  0  0  0  0  0  0  0  0  0
  147.6912  138.3738  155.9247 H   0  0  0  0  0  0  0  0  0  0  0  0
  148.4475  135.6900  154.8661 H   0  0  0  0  0  0  0  0  0  0  0  0
  147.4353  136.1114  156.2486 H   0  0  0  0  0  0  0  0  0  0  0  0
  146.6477  135.6227  153.4323 H   0  0  0  0  0  0  0  0  0  0  0  0
  145.5787  135.7551  154.8336 H   0  0  0  0  0  0  0  0  0  0  0  0
  153.2267  145.0383  159.7071 H   0  0  0  0  0  0  0  0  0  0  0  0
  152.7981  144.6686  157.9965 H   0  0  0  0  0  0  0  0  0  0  0  0
  150.8724  145.4619  160.2688 H   0  0  0  0  0  0  0  0  0  0  0  0
  150.7160  145.8470  158.5095 H   0  0  0  0  0  0  0  0  0  0  0  0
  150.3326  143.5261  157.9572 H   0  0  0  0  0  0  0  0  0  0  0  0
  149.7625  143.3608  159.6603 H   0  0  0  0  0  0  0  0  0  0  0  0
  1  2  1  0  0  0  0
  1 29  1  0  0  0  0
  1 30  1  0  0  0  0
  1 31  1  0  0  0  0
  2  3  1  0  0  0  0
  3 25  1  0  0  0  0
  3  4  1  0  0  0  0
  3 32  1  0  0  0  0
  4  5  1  0  0  0  0
  4 33  1  0  0  0  0
  4 34  1  0  0  0  0
  5  6  1  0  0  0  0
  5 25  1  0  0  0  0
  5 35  1  0  0  0  0
  6  7  1  0  0  0  0
  6  8  1  0  0  0  0
  7 36  1  0  0  0  0
  7 37  1  0  0  0  0
  7 38  1  0  0  0  0
  8 13  1  0  0  0  0
  8  9  2  0  0  0  0
  9 10  1  0  0  0  0
 10 11  2  0  0  0  0
 10 39  1  0  0  0  0
 11 12  1  0  0  0  0
 12 16  1  0  0  0  0
 12 13  2  0  0  0  0
 13 14  1  0  0  0  0
 14 15  2  0  0  0  0
 15 16  1  0  0  0  0
 15 40  1  0  0  0  0
 16 17  1  0  0  0  0
 17 18  1  0  0  0  0
 17 41  1  0  0  0  0
 17 42  1  0  0  0  0
 18 19  1  0  0  0  0
 18 20  1  0  0  0  0
 18 43  1  0  0  0  0
 19 44  1  0  0  0  0
 20 24  1  0  0  0  0
 20 21  1  0  0  0  0
 20 45  1  0  0  0  0
 21 22  1  0  0  0  0
 21 46  1  0  0  0  0
 21 47  1  0  0  0  0
 22 23  1  0  0  0  0
 22 48  1  0  0  0  0
 22 49  1  0  0  0  0
 23 24  1  0  0  0  0
 23 50  1  0  0  0  0
 23 51  1  0  0  0  0
 25 28  1  0  0  0  0
 25 26  1  0  0  0  0
 26 27  1  0  0  0  0
 26 52  1  0  0  0  0
 26 53  1  0  0  0  0
 27 28  1  0  0  0  0
 27 54  1  0  0  0  0
 27 55  1  0  0  0  0
 28 56  1  0  0  0  0
 28 57  1  0  0  0  0
M  END
> <s_m_source_file>
AV-unprocessed.smi

> <i_m_source_file_index>
276

> <i_lp_mmshare_version>
43012

> <i_f3d_flags>
0

> <s_epik_input>
W0NIMl0xW0NIMl1bQ0gyXUMxMltDQEhdKE9bQ0gzXSlbQ0gyXVtDQEhdMk4oW0NIM10pYyhuW2NIXW4zKWMoYzM0KW5bY0hdbjRbQ0gyXVtDQEhdKFtPSF0pW0NAQEhdNVtDSDJdW0NIMl1bQ0gyXU81

> <s_epik_cmdline>
J2VwaWtfcHl0aG9uJywgJy1waCcsICc3LjAnLCAnLXRuJywgJzgnLCAnLW1hJywgJzIwMCcsICctbWV0YWxfYmluZGluZycsICctaW1hZScsICc8aW5maWxlLm1hZT4nLCAnLW9tYWUnLCAnPG91dGZpbGUubWFlPic=

> <r_lp_tautomer_probability>
1

> <r_epik_Ionization_Penalty>
0.00204117

> <r_epik_Ionization_Penalty_Charging>
0

> <r_epik_Ionization_Penalty_Neutral>
0.00204117

> <r_epik_State_Penalty>
0.00127401

> <r_epik_Charging_Adjusted_Penalty>
0.00127401

> <i_epik_Tot_Q>
0

> <i_epik_Tot_abs_Q>
0

> <r_epik_Metal_State_Penalty>
-0

> <b_epik_Metal_Only>
0

> <s_lp_Force_Field>
OPLS_2005

> <r_lp_Energy>
59.2093

> <b_lp_Chiralities_Consistent>
1

> <s_lp_Variant>
AV-unprocessed.smi:276-13

> <Gold.Version>
5.8.1

> <Gold.Id.Protein>
6NUR|6NUR_protein|mol2

> <Gold.PLP.Fitness>
57.2643

> <Gold.PLP.PLP>
-50.4430

> <Gold.PLP.part.hbond>
-3.2408

> <Gold.PLP.part.metal>
0.0000

> <Gold.PLP.part.buried>
-2.6750

> <Gold.PLP.part.nonpolar>
-45.6697

> <Gold.PLP.part.repulsive>
0.4458

> <Gold.PLP.ligand.clash>
0.0000

> <Gold.PLP.ligand.torsion>
1.4349

> <Gold.PLP.Chemscore.Hbond>
2.9600

> <Gold.PLP.Chemscore.CHOScore>
0.0000

> <Gold.PLP.Chemscore.Metal>
0.0000

> <Gold.Chemscore.Hbonds>
donor molecule, donor type, donor heavy atom, donor atom, acceptor molecule, acceptor atom, score
      L1  H    19    44       P1 10175  0.99
      P1  H  7989  7998       L1    11  1.00
      P1  H  7997  8010       L1     9  1.00

> <Gold.PLP.Chemscore.Internal.Correction>
0.8110

> <Gold.Rescore>
     Score         DG    S(hbond)    S(metal)    S(lipo)     H(rot)  DE(clash)    DE(int)     intcor
     16.31     -18.21       1.82        0.00     116.16       2.72       0.21       1.69       ----

> <Gold.Chemscore.Fitness>
16.3142

> <Gold.Chemscore.DG>
-18.2081

> <Gold.Chemscore.ZeroCoef>
-5.4800

> <Gold.Chemscore.Hbond>
1.8244

> <Gold.Chemscore.Metal>
0.0000

> <Gold.Chemscore.Lipo>
116.1592

> <Gold.Chemscore.Internal_Hbond>
0.0000

> <Gold.Chemscore.DEClash>
0.2071

> <Gold.Chemscore.DEInternal>
1.6867

> <Gold.Chemscore.Rot>
2.7172

> <Gold.Chemscore.Internal.Correction>
   9.000000E+99

> <Gold.Chemscore.Hbonds>
donor molecule, donor type, donor heavy atom, donor atom, acceptor molecule, acceptor atom, score
      L1  H    19    44       P1 10175  0.61
      P1  H  7989  7998       L1    11  0.19
      P1  H  7997  8010       L1     9  0.30

> <Gold.Chemscore.Hbond.Weighted>
-6.0935

> <Gold.Chemscore.Metal.Weighted>
-0.0000

> <Gold.Chemscore.Lipo.Weighted>
-13.5906

> <Gold.Chemscore.Internal_Hbond.Weighted>
0.0000

> <Gold.Chemscore.DEClash.Weighted>
0.2071

> <Gold.Chemscore.DEInternal.Weighted>
1.6867

> <Gold.Chemscore.Rot.Weighted>
6.9560

> <Gold.Chemscore.Internal.Correction.Weighted>
   9.000000E+99

> <Gold.Protein.RotatedTorsions>
[ 6907 6896 6895 6894 ] final  -58.53 input  -60.11 | X-H torsion
[ 7974 7965 7964 7962 ] final   18.14 input  175.53 | X-H torsion
[ 8008 7997 7996 7995 ] final   66.29 input   59.86 | X-H torsion
[ 10167 10162 10161 10158 ] final -135.73 input  -65.29 | X-H torsion
[ 10718 10713 10712 10709 ] final  -58.51 input   66.30 | X-H torsion
[ 10763 10752 10751 10750 ] final  -26.89 input  -60.55 | X-H torsion
[ 11005 11000 10999 10996 ] final -164.92 input  -57.11 | X-H torsion

> <Gold.Protein.ActiveResidues>
 VAL166  LYS551  ARG553  GLY616  TRP617  ASP618  TYR619  PRO620  LYS621  CYS622 
 ASP623  PHE694  ASN695  SER759  ASP760  ASP761  ALA762  ILE779  LEU786  VAL792 
 PHE793  MET794  SER795  GLU796  ALA797  LYS798  CYS799  TRP800  GLU811  SER814 

> <Gold.Protein.RotatedAtoms>
  150.8000  134.7087  159.6590 H   0  0  0  0  0  0  0  0  0  0  0  0  # atno 6907 bound_to 6896
  152.4116  134.6111  160.0035 H   0  0  0  0  0  0  0  0  0  0  0  0  # atno 6908 bound_to 6896
  151.6352  133.3292  159.3154 H   0  0  0  0  0  0  0  0  0  0  0  0  # atno 6909 bound_to 6896
  146.2195  139.8500  142.8624 H   0  0  0  0  0  0  0  0  0  0  0  0  # atno 7974 bound_to 7965
  155.6751  140.3497  155.4833 H   0  0  0  0  0  0  0  0  0  0  0  0  # atno 8008 bound_to 7997
  155.9655  140.1145  157.0881 H   0  0  0  0  0  0  0  0  0  0  0  0  # atno 8009 bound_to 7997
  154.4153  140.1167  156.5222 H   0  0  0  0  0  0  0  0  0  0  0  0  # atno 8010 bound_to 7997
  139.8749  143.6911  152.2635 H   0  0  0  0  0  0  0  0  0  0  0  0  # atno 10167 bound_to 10162
  156.1130  130.4173  150.0587 H   0  0  0  0  0  0  0  0  0  0  0  0  # atno 10718 bound_to 10713
  153.7232  135.6943  153.5007 H   0  0  0  0  0  0  0  0  0  0  0  0  # atno 10763 bound_to 10752
  153.2189  135.4377  155.0465 H   0  0  0  0  0  0  0  0  0  0  0  0  # atno 10764 bound_to 10752
  154.8277  135.3455  154.6764 H   0  0  0  0  0  0  0  0  0  0  0  0  # atno 10765 bound_to 10752
  140.5815  134.5136  157.5179 H   0  0  0  0  0  0  0  0  0  0  0  0  # atno 11005 bound_to 11000
  145.2811  141.0139  143.3717 LP  0  0  0  0  0  0  0  0  0  0  0  0  # atno 17320 bound_to 7965
  144.9149  139.4482  143.6569 LP  0  0  0  0  0  0  0  0  0  0  0  0  # atno 17321 bound_to 7965
  139.7249  144.7595  151.0894 LP  0  0  0  0  0  0  0  0  0  0  0  0  # atno 17342 bound_to 10162
  140.7754  143.5160  150.9594 LP  0  0  0  0  0  0  0  0  0  0  0  0  # atno 17343 bound_to 10162
  156.8545  130.9470  151.3623 LP  0  0  0  0  0  0  0  0  0  0  0  0  # atno 17370 bound_to 10713
  157.6312  130.8731  149.9277 LP  0  0  0  0  0  0  0  0  0  0  0  0  # atno 17371 bound_to 10713
  139.9315  134.7955  156.0918 LP  0  0  0  0  0  0  0  0  0  0  0  0  # atno 17394 bound_to 11000
  141.0993  133.6683  156.2717 LP  0  0  0  0  0  0  0  0  0  0  0  0  # atno 17395 bound_to 11000

$$$$
