AV-unprocessed.smi:1809|AV-procd|sdf|7319|dock1
  -GOLD-   22720 8573D 1   1.00000     0.00000
 Structure written by MMmdl.
 39 41  0  0  0  0  0  0  0  0  1 V2000
  141.6188  146.1921  160.4861 C   0  0  0  0  0  0  0  0  0  0  0  0
  142.8305  145.4268  160.0761 C   0  0  0  0  0  0  0  0  0  0  0  0
  142.8874  144.0895  160.1013 N   0  0  0  0  0  0  0  0  0  0  0  0
  144.1190  143.6073  159.6810 N   0  0  0  0  0  0  0  0  0  0  0  0
  144.9581  144.5989  159.3515 C   0  0  0  0  0  0  0  0  0  0  0  0
  146.2847  144.3900  158.8899 N   0  0  0  0  0  0  0  0  0  0  0  0
  147.0071  143.2561  158.9150 C   0  0  0  0  0  0  0  0  0  0  0  0
  146.6187  142.1753  159.3582 O   0  0  0  0  0  0  0  0  0  0  0  0
  148.2266  143.4492  158.3928 N   0  0  0  0  0  0  0  0  0  0  0  0
  149.2784  142.4415  158.3039 C   0  0  0  0  0  0  0  0  0  0  0  0
  150.6481  143.0849  158.0018 C   0  0  2  0  0  0  0  0  0  0  0  0
  151.8313  142.3011  158.6190 C   0  0  0  0  0  0  0  0  0  0  0  0
  151.9180  142.5377  160.0477 N   0  0  0  0  0  0  0  0  0  0  0  0
  153.0379  141.9413  160.7386 C   0  0  0  0  0  0  0  0  0  0  0  0
  153.0914  142.6825  162.0853 C   0  0  0  0  0  0  0  0  0  0  0  0
  152.3218  143.9975  161.8313 C   0  0  0  0  0  0  0  0  0  0  0  0
  152.0387  143.9421  160.3286 C   0  0  2  0  0  0  0  0  0  0  0  0
  150.8111  144.7034  159.8126 C   0  0  0  0  0  0  0  0  0  0  0  0
  150.6896  144.4631  158.4066 O   0  0  0  0  0  0  0  0  0  0  0  0
  144.3024  146.2179  159.5254 S   0  0  0  0  0  0  0  0  0  0  0  0
  140.7640  145.5254  160.6050 H   0  0  0  0  0  0  0  0  0  0  0  0
  141.3753  146.9392  159.7306 H   0  0  0  0  0  0  0  0  0  0  0  0
  141.8024  146.6983  161.4338 H   0  0  0  0  0  0  0  0  0  0  0  0
  146.7407  145.2026  158.5027 H   0  0  0  0  0  0  0  0  0  0  0  0
  148.4555  144.3711  158.0513 H   0  0  0  0  0  0  0  0  0  0  0  0
  149.3158  141.8254  159.2034 H   0  0  0  0  0  0  0  0  0  0  0  0
  149.0096  141.7658  157.4917 H   0  0  0  0  0  0  0  0  0  0  0  0
  150.7790  143.0743  156.9191 H   0  0  0  0  0  0  0  0  0  0  0  0
  151.7299  141.2339  158.4193 H   0  0  0  0  0  0  0  0  0  0  0  0
  152.7582  142.6204  158.1403 H   0  0  0  0  0  0  0  0  0  0  0  0
  152.9122  140.8646  160.8557 H   0  0  0  0  0  0  0  0  0  0  0  0
  153.9605  142.1165  160.1825 H   0  0  0  0  0  0  0  0  0  0  0  0
  152.6016  142.1031  162.8687 H   0  0  0  0  0  0  0  0  0  0  0  0
  154.1211  142.8624  162.3952 H   0  0  0  0  0  0  0  0  0  0  0  0
  151.3915  144.0041  162.4010 H   0  0  0  0  0  0  0  0  0  0  0  0
  152.8966  144.8816  162.1086 H   0  0  0  0  0  0  0  0  0  0  0  0
  152.9187  144.3309  159.8115 H   0  0  0  0  0  0  0  0  0  0  0  0
  149.9081  144.3877  160.3349 H   0  0  0  0  0  0  0  0  0  0  0  0
  150.9219  145.7742  159.9837 H   0  0  0  0  0  0  0  0  0  0  0  0
  1  2  1  0  0  0  0
  1 21  1  0  0  0  0
  1 22  1  0  0  0  0
  1 23  1  0  0  0  0
  2 20  1  0  0  0  0
  2  3  2  0  0  0  0
  3  4  1  0  0  0  0
  4  5  2  0  0  0  0
  5  6  1  0  0  0  0
  5 20  1  0  0  0  0
  6  7  1  0  0  0  0
  6 24  1  0  0  0  0
  7  8  2  0  0  0  0
  7  9  1  0  0  0  0
  9 10  1  0  0  0  0
  9 25  1  0  0  0  0
 10 11  1  0  0  0  0
 10 26  1  0  0  0  0
 10 27  1  0  0  0  0
 11 19  1  0  0  0  0
 11 12  1  0  0  0  0
 11 28  1  0  0  0  0
 12 13  1  0  0  0  0
 12 29  1  0  0  0  0
 12 30  1  0  0  0  0
 13 17  1  0  0  0  0
 13 14  1  0  0  0  0
 14 15  1  0  0  0  0
 14 31  1  0  0  0  0
 14 32  1  0  0  0  0
 15 16  1  0  0  0  0
 15 33  1  0  0  0  0
 15 34  1  0  0  0  0
 16 17  1  0  0  0  0
 16 35  1  0  0  0  0
 16 36  1  0  0  0  0
 17 18  1  0  0  0  0
 17 37  1  0  0  0  0
 18 19  1  0  0  0  0
 18 38  1  0  0  0  0
 18 39  1  0  0  0  0
M  END
> <s_m_source_file>
AV-unprocessed.smi

> <i_m_source_file_index>
1809

> <i_lp_mmshare_version>
43012

> <i_f3d_flags>
0

> <s_epik_input>
W0NIM11jMW5uYyhzMSlbTkhdQyg9TylbTkhdW0NIMl1bQ0BIXShbQ0gyXTIpT1tDSDJdW0NAQEhdKE4yMylbQ0gyXVtDSDJdW0NIMl0z

> <s_epik_cmdline>
J2VwaWtfcHl0aG9uJywgJy1waCcsICc3LjAnLCAnLXRuJywgJzgnLCAnLW1hJywgJzIwMCcsICctbWV0YWxfYmluZGluZycsICctaW1hZScsICc8aW5maWxlLm1hZT4nLCAnLW9tYWUnLCAnPG91dGZpbGUubWFlPic=

> <r_lp_tautomer_probability>
1

> <r_epik_Ionization_Penalty>
1.05954

> <r_epik_Ionization_Penalty_Charging>
0

> <r_epik_Ionization_Penalty_Neutral>
1.05954

> <r_epik_State_Penalty>
1.4238

> <r_epik_Charging_Adjusted_Penalty>
1.4238

> <i_epik_Tot_Q>
0

> <i_epik_Tot_abs_Q>
0

> <r_epik_Metal_State_Penalty>
1.7901

> <b_epik_Metal_Only>
0

> <s_lp_Force_Field>
OPLS_2005

> <r_lp_Energy>
48.8115

> <b_lp_Chiralities_Consistent>
1

> <s_lp_Variant>
AV-unprocessed.smi:1809-11

> <Gold.Version>
5.8.1

> <Gold.Id.Protein>
6NUR|6NUR_protein|mol2

> <Gold.PLP.Fitness>
42.1880

> <Gold.PLP.PLP>
-34.6699

> <Gold.PLP.part.hbond>
-3.9260

> <Gold.PLP.part.metal>
0.0000

> <Gold.PLP.part.buried>
-5.1803

> <Gold.PLP.part.nonpolar>
-26.2708

> <Gold.PLP.part.repulsive>
0.3595

> <Gold.PLP.ligand.clash>
0.0000

> <Gold.PLP.ligand.torsion>
0.5768

> <Gold.PLP.Chemscore.Hbond>
2.8872

> <Gold.PLP.Chemscore.CHOScore>
0.0000

> <Gold.PLP.Chemscore.Metal>
0.0000

> <Gold.Chemscore.Hbonds>
donor molecule, donor type, donor heavy atom, donor atom, acceptor molecule, acceptor atom, score
      L1  H     6    24       P1  8029  1.00
      L1  H     9    25       P1  8029  0.93
      P1  H  6934  6946       L1     8  0.96

> <Gold.PLP.Chemscore.Internal.Correction>
0.0102

> <Gold.Rescore>
     Score         DG    S(hbond)    S(metal)    S(lipo)     H(rot)  DE(clash)    DE(int)     intcor
     19.57     -21.72       2.47        0.00      97.10       1.32       0.33       1.82       ----

> <Gold.Chemscore.Fitness>
19.5663

> <Gold.Chemscore.DG>
-21.7221

> <Gold.Chemscore.ZeroCoef>
-5.4800

> <Gold.Chemscore.Hbond>
2.4731

> <Gold.Chemscore.Metal>
0.0000

> <Gold.Chemscore.Lipo>
97.0960

> <Gold.Chemscore.Internal_Hbond>
0.0000

> <Gold.Chemscore.DEClash>
0.3316

> <Gold.Chemscore.DEInternal>
1.8242

> <Gold.Chemscore.Rot>
1.3196

> <Gold.Chemscore.Internal.Correction>
   9.000000E+99

> <Gold.Chemscore.Hbonds>
donor molecule, donor type, donor heavy atom, donor atom, acceptor molecule, acceptor atom, score
      L1  H     6    24       P1  8029  0.94
      L1  H     9    25       P1  8029  0.20
      P1  H  6934  6946       L1     8  0.92

> <Gold.Chemscore.Hbond.Weighted>
-8.2601

> <Gold.Chemscore.Metal.Weighted>
-0.0000

> <Gold.Chemscore.Lipo.Weighted>
-11.3602

> <Gold.Chemscore.Internal_Hbond.Weighted>
0.0000

> <Gold.Chemscore.DEClash.Weighted>
0.3316

> <Gold.Chemscore.DEInternal.Weighted>
1.8242

> <Gold.Chemscore.Rot.Weighted>
3.3783

> <Gold.Chemscore.Internal.Correction.Weighted>
   9.000000E+99

> <Gold.Protein.RotatedTorsions>
[ 6907 6896 6895 6894 ] final   -8.00 input  -60.11 | X-H torsion
[ 7974 7965 7964 7962 ] final   21.91 input  175.53 | X-H torsion
[ 8008 7997 7996 7995 ] final   95.88 input   59.86 | X-H torsion
[ 10167 10162 10161 10158 ] final  143.49 input  -65.29 | X-H torsion
[ 10718 10713 10712 10709 ] final  128.96 input   66.30 | X-H torsion
[ 10763 10752 10751 10750 ] final -174.96 input  -60.55 | X-H torsion
[ 11005 11000 10999 10996 ] final   26.57 input  -57.11 | X-H torsion

> <Gold.Protein.ActiveResidues>
 VAL166  LYS551  ARG553  GLY616  TRP617  ASP618  TYR619  PRO620  LYS621  CYS622 
 ASP623  PHE694  ASN695  SER759  ASP760  ASP761  ALA762  ILE779  LEU786  VAL792 
 PHE793  MET794  SER795  GLU796  ALA797  LYS798  CYS799  TRP800  GLU811  SER814 

> <Gold.Protein.RotatedAtoms>
  151.4406  135.1020  159.9668 H   0  0  0  0  0  0  0  0  0  0  0  0  # atno 6907 bound_to 6896
  152.4924  133.8532  159.7223 H   0  0  0  0  0  0  0  0  0  0  0  0  # atno 6908 bound_to 6896
  150.9091  133.6961  159.2887 H   0  0  0  0  0  0  0  0  0  0  0  0  # atno 6909 bound_to 6896
  146.2051  139.7960  142.8732 H   0  0  0  0  0  0  0  0  0  0  0  0  # atno 7974 bound_to 7965
  156.0737  140.3280  155.7607 H   0  0  0  0  0  0  0  0  0  0  0  0  # atno 8008 bound_to 7997
  155.5265  140.0589  157.2914 H   0  0  0  0  0  0  0  0  0  0  0  0  # atno 8009 bound_to 7997
  154.4544  140.1935  156.0441 H   0  0  0  0  0  0  0  0  0  0  0  0  # atno 8010 bound_to 7997
  139.4968  144.6037  151.6426 H   0  0  0  0  0  0  0  0  0  0  0  0  # atno 10167 bound_to 10162
  157.5198  131.1098  150.9171 H   0  0  0  0  0  0  0  0  0  0  0  0  # atno 10718 bound_to 10713
  154.5901  135.2844  155.0644 H   0  0  0  0  0  0  0  0  0  0  0  0  # atno 10763 bound_to 10752
  154.1948  135.6434  153.5074 H   0  0  0  0  0  0  0  0  0  0  0  0  # atno 10764 bound_to 10752
  153.0118  135.5455  154.6583 H   0  0  0  0  0  0  0  0  0  0  0  0  # atno 10765 bound_to 10752
  140.3356  134.2389  155.7696 H   0  0  0  0  0  0  0  0  0  0  0  0  # atno 11005 bound_to 11000
  145.3346  141.0274  143.3427 LP  0  0  0  0  0  0  0  0  0  0  0  0  # atno 17320 bound_to 7965
  144.8774  139.4951  143.6739 LP  0  0  0  0  0  0  0  0  0  0  0  0  # atno 17321 bound_to 7965
  140.5693  144.0136  150.6208 LP  0  0  0  0  0  0  0  0  0  0  0  0  # atno 17342 bound_to 10162
  140.3248  143.3114  152.0747 LP  0  0  0  0  0  0  0  0  0  0  0  0  # atno 17343 bound_to 10162
  156.9785  130.5518  149.5295 LP  0  0  0  0  0  0  0  0  0  0  0  0  # atno 17370 bound_to 10713
  156.0345  130.5434  150.8619 LP  0  0  0  0  0  0  0  0  0  0  0  0  # atno 17371 bound_to 10713
  141.2052  133.7866  157.0245 LP  0  0  0  0  0  0  0  0  0  0  0  0  # atno 17394 bound_to 11000
  140.0824  134.9640  157.1645 LP  0  0  0  0  0  0  0  0  0  0  0  0  # atno 17395 bound_to 11000

$$$$
