AV-unprocessed.smi:1797|AV-procd|sdf|7255|dock3
  -GOLD-   22720 8503D 1   1.00000     0.00000
 Structure written by MMmdl.
 30 31  0  0  0  0  0  0  0  0  1 V2000
  146.6977  142.5263  154.7172 C   0  0  0  0  0  0  0  0  0  0  0  0
  146.6507  141.0494  154.5216 C   0  0  0  0  0  0  0  0  0  0  0  0
  146.3334  140.1960  155.5023 N   0  0  0  0  0  0  0  0  0  0  0  0
  146.3577  138.8754  155.0779 N   0  0  0  0  0  0  0  0  0  0  0  0
  146.6994  138.7671  153.7857 C   0  0  0  0  0  0  0  0  0  0  0  0
  146.8008  137.5367  153.0729 N   0  0  0  0  0  0  0  0  0  0  0  0
  145.8655  136.6483  152.6732 C   0  0  0  0  0  0  0  0  0  0  0  0
  144.6731  136.8390  152.9057 O   0  0  0  0  0  0  0  0  0  0  0  0
  146.3101  135.5695  152.0076 N   0  0  0  0  0  0  0  0  0  0  0  0
  145.4745  134.5008  151.4709 C   0  0  2  0  0  0  0  0  0  0  0  0
  146.3024  133.6203  150.5267 C   0  0  0  0  0  0  0  0  0  0  0  0
  145.4551  132.4711  149.9578 C   0  0  0  0  0  0  0  0  0  0  0  0
  144.0753  132.9205  149.4542 C   0  0  0  0  0  0  0  0  0  0  0  0
  143.4423  132.1909  148.6945 O   0  0  0  0  0  0  0  0  0  0  0  0
  143.5728  134.0908  149.8852 N   0  0  0  0  0  0  0  0  0  0  0  0
  144.2613  135.0791  150.7147 C   0  0  0  0  0  0  0  0  0  0  0  0
  147.0086  140.2935  152.9747 S   0  0  0  0  0  0  0  0  0  0  0  0
  146.4550  142.7873  155.7478 H   0  0  0  0  0  0  0  0  0  0  0  0
  145.9809  143.0123  154.0554 H   0  0  0  0  0  0  0  0  0  0  0  0
  147.6957  142.9007  154.4885 H   0  0  0  0  0  0  0  0  0  0  0  0
  147.7458  137.2789  152.8283 H   0  0  0  0  0  0  0  0  0  0  0  0
  147.3059  135.4864  151.8588 H   0  0  0  0  0  0  0  0  0  0  0  0
  145.1206  133.8774  152.2946 H   0  0  0  0  0  0  0  0  0  0  0  0
  146.7000  134.2220  149.7078 H   0  0  0  0  0  0  0  0  0  0  0  0
  147.1643  133.2103  151.0545 H   0  0  0  0  0  0  0  0  0  0  0  0
  145.9938  131.9744  149.1499 H   0  0  0  0  0  0  0  0  0  0  0  0
  145.2942  131.7205  150.7324 H   0  0  0  0  0  0  0  0  0  0  0  0
  142.6501  134.3438  149.5621 H   0  0  0  0  0  0  0  0  0  0  0  0
  143.5463  135.5121  151.4148 H   0  0  0  0  0  0  0  0  0  0  0  0
  144.5827  135.8870  150.0559 H   0  0  0  0  0  0  0  0  0  0  0  0
  1  2  1  0  0  0  0
  1 18  1  0  0  0  0
  1 19  1  0  0  0  0
  1 20  1  0  0  0  0
  2 17  1  0  0  0  0
  2  3  2  0  0  0  0
  3  4  1  0  0  0  0
  4  5  2  0  0  0  0
  5  6  1  0  0  0  0
  5 17  1  0  0  0  0
  6  7  1  0  0  0  0
  6 21  1  0  0  0  0
  7  8  2  0  0  0  0
  7  9  1  0  0  0  0
  9 10  1  0  0  0  0
  9 22  1  0  0  0  0
 10 16  1  0  0  0  0
 10 11  1  0  0  0  0
 10 23  1  0  0  0  0
 11 12  1  0  0  0  0
 11 24  1  0  0  0  0
 11 25  1  0  0  0  0
 12 13  1  0  0  0  0
 12 26  1  0  0  0  0
 12 27  1  0  0  0  0
 13 14  2  0  0  0  0
 13 15  1  0  0  0  0
 15 16  1  0  0  0  0
 15 28  1  0  0  0  0
 16 29  1  0  0  0  0
 16 30  1  0  0  0  0
M  END
> <s_m_source_file>
AV-unprocessed.smi

> <i_m_source_file_index>
1797

> <i_lp_mmshare_version>
43012

> <i_f3d_flags>
0

> <s_epik_input>
W0NIM11jMW5uYyhzMSlbTkhdQyg9TylbTkhdW0NAQEhdMltDSDJdW0NIMl1DKD1PKVtOSF1bQ0gyXTI=

> <s_epik_cmdline>
J2VwaWtfcHl0aG9uJywgJy1waCcsICc3LjAnLCAnLXRuJywgJzgnLCAnLW1hJywgJzIwMCcsICctbWV0YWxfYmluZGluZycsICctaW1hZScsICc8aW5maWxlLm1hZT4nLCAnLW9tYWUnLCAnPG91dGZpbGUubWFlPic=

> <r_lp_tautomer_probability>
1

> <r_epik_Ionization_Penalty>
0.00282347

> <r_epik_Ionization_Penalty_Charging>
0

> <r_epik_Ionization_Penalty_Neutral>
0.00282347

> <r_epik_State_Penalty>
-0

> <r_epik_Charging_Adjusted_Penalty>
0

> <i_epik_Tot_Q>
0

> <i_epik_Tot_abs_Q>
0

> <r_epik_Metal_State_Penalty>
0.357935

> <b_epik_Metal_Only>
0

> <s_lp_Force_Field>
OPLS_2005

> <r_lp_Energy>
10.7628

> <b_lp_Chiralities_Consistent>
1

> <s_lp_Variant>
AV-unprocessed.smi:1797-1

> <Gold.Version>
5.8.1

> <Gold.Id.Protein>
6NUR|6NUR_protein|mol2

> <Gold.PLP.Fitness>
38.8394

> <Gold.PLP.PLP>
-29.0827

> <Gold.PLP.part.hbond>
-4.0000

> <Gold.PLP.part.metal>
0.0000

> <Gold.PLP.part.buried>
-3.0683

> <Gold.PLP.part.nonpolar>
-22.1964

> <Gold.PLP.part.repulsive>
0.7629

> <Gold.PLP.ligand.clash>
0.0000

> <Gold.PLP.ligand.torsion>
0.8104

> <Gold.PLP.Chemscore.Hbond>
3.7920

> <Gold.PLP.Chemscore.CHOScore>
0.0000

> <Gold.PLP.Chemscore.Metal>
0.0000

> <Gold.Chemscore.Hbonds>
donor molecule, donor type, donor heavy atom, donor atom, acceptor molecule, acceptor atom, score
      L1  H     6    21       P1  7948  1.00
      L1  H     9    22       P1  7948  1.00
      L1  H    15    28       P1 10186  1.00
      P1  H 10785 10796       L1    14  0.76

> <Gold.PLP.Chemscore.Internal.Correction>
0.0015

> <Gold.Rescore>
     Score         DG    S(hbond)    S(metal)    S(lipo)     H(rot)  DE(clash)    DE(int)     intcor
     19.20     -21.47       3.80        0.00      50.02       1.00       0.17       2.10       ----

> <Gold.Chemscore.Fitness>
19.2000

> <Gold.Chemscore.DG>
-21.4680

> <Gold.Chemscore.ZeroCoef>
-5.4800

> <Gold.Chemscore.Hbond>
3.8012

> <Gold.Chemscore.Metal>
0.0000

> <Gold.Chemscore.Lipo>
50.0166

> <Gold.Chemscore.Internal_Hbond>
0.0000

> <Gold.Chemscore.DEClash>
0.1723

> <Gold.Chemscore.DEInternal>
2.0957

> <Gold.Chemscore.Rot>
1.0000

> <Gold.Chemscore.Internal.Correction>
   9.000000E+99

> <Gold.Chemscore.Hbonds>
donor molecule, donor type, donor heavy atom, donor atom, acceptor molecule, acceptor atom, score
      L1  H     6    21       P1  7948  0.95
      L1  H     9    22       P1  7948  0.95
      L1  H    15    28       P1 10186  0.98
      P1  H 10785 10796       L1    14  0.72

> <Gold.Chemscore.Hbond.Weighted>
-12.6960

> <Gold.Chemscore.Metal.Weighted>
-0.0000

> <Gold.Chemscore.Lipo.Weighted>
-5.8519

> <Gold.Chemscore.Internal_Hbond.Weighted>
0.0000

> <Gold.Chemscore.DEClash.Weighted>
0.1723

> <Gold.Chemscore.DEInternal.Weighted>
2.0957

> <Gold.Chemscore.Rot.Weighted>
2.5600

> <Gold.Chemscore.Internal.Correction.Weighted>
   9.000000E+99

> <Gold.Protein.RotatedTorsions>
[ 6907 6896 6895 6894 ] final   11.77 input  -60.11 | X-H torsion
[ 7974 7965 7964 7962 ] final  -57.06 input  175.53 | X-H torsion
[ 8008 7997 7996 7995 ] final   -9.16 input   59.86 | X-H torsion
[ 10167 10162 10161 10158 ] final   -2.82 input  -65.29 | X-H torsion
[ 10718 10713 10712 10709 ] final   66.84 input   66.30 | X-H torsion
[ 10763 10752 10751 10750 ] final -128.09 input  -60.55 | X-H torsion
[ 11005 11000 10999 10996 ] final   71.92 input  -57.11 | X-H torsion

> <Gold.Protein.ActiveResidues>
 VAL166  LYS551  ARG553  GLY616  TRP617  ASP618  TYR619  PRO620  LYS621  CYS622 
 ASP623  PHE694  ASN695  SER759  ASP760  ASP761  ALA762  ILE779  LEU786  VAL792 
 PHE793  MET794  SER795  GLU796  ALA797  LYS798  CYS799  TRP800  GLU811  SER814 

> <Gold.Protein.RotatedAtoms>
  151.7597  135.0813  160.0343 H   0  0  0  0  0  0  0  0  0  0  0  0  # atno 6907 bound_to 6896
  152.3362  133.6009  159.5852 H   0  0  0  0  0  0  0  0  0  0  0  0  # atno 6908 bound_to 6896
  150.7451  133.9709  159.3587 H   0  0  0  0  0  0  0  0  0  0  0  0  # atno 6909 bound_to 6896
  145.8554  140.8323  142.9964 H   0  0  0  0  0  0  0  0  0  0  0  0  # atno 7974 bound_to 7965
  154.5673  140.2362  155.8245 H   0  0  0  0  0  0  0  0  0  0  0  0  # atno 8008 bound_to 7997
  156.2078  140.3034  155.9624 H   0  0  0  0  0  0  0  0  0  0  0  0  # atno 8009 bound_to 7997
  155.2778  140.0421  157.3003 H   0  0  0  0  0  0  0  0  0  0  0  0  # atno 8010 bound_to 7997
  140.6866  143.6612  150.8265 H   0  0  0  0  0  0  0  0  0  0  0  0  # atno 10167 bound_to 10162
  157.6194  130.9289  150.0163 H   0  0  0  0  0  0  0  0  0  0  0  0  # atno 10718 bound_to 10713
  154.8755  135.3940  154.3700 H   0  0  0  0  0  0  0  0  0  0  0  0  # atno 10763 bound_to 10752
  153.4461  135.7027  153.6143 H   0  0  0  0  0  0  0  0  0  0  0  0  # atno 10764 bound_to 10752
  153.4703  135.3792  155.2356 H   0  0  0  0  0  0  0  0  0  0  0  0  # atno 10765 bound_to 10752
  139.9518  134.7214  156.0845 H   0  0  0  0  0  0  0  0  0  0  0  0  # atno 11005 bound_to 11000
  144.6728  140.1016  143.7460 LP  0  0  0  0  0  0  0  0  0  0  0  0  # atno 17320 bound_to 7965
  145.9309  139.2606  143.1325 LP  0  0  0  0  0  0  0  0  0  0  0  0  # atno 17321 bound_to 7965
  140.0320  143.5434  152.2756 LP  0  0  0  0  0  0  0  0  0  0  0  0  # atno 17342 bound_to 10162
  139.6230  144.7632  151.2699 LP  0  0  0  0  0  0  0  0  0  0  0  0  # atno 17343 bound_to 10162
  156.1332  130.3643  149.9699 LP  0  0  0  0  0  0  0  0  0  0  0  0  # atno 17370 bound_to 10713
  156.7756  130.9202  151.3645 LP  0  0  0  0  0  0  0  0  0  0  0  0  # atno 17371 bound_to 10713
  141.1182  133.6621  156.3148 LP  0  0  0  0  0  0  0  0  0  0  0  0  # atno 17394 bound_to 11000
  140.5701  134.5848  157.5455 LP  0  0  0  0  0  0  0  0  0  0  0  0  # atno 17395 bound_to 11000

$$$$
