AV-unprocessed.smi:1800|AV-procd|sdf|7264|dock6
  -GOLD-   22720 8513D 1   1.00000     0.00000
 Structure written by MMmdl.
 36 37  0  0  0  0  0  0  0  0  1 V2000
  151.3227  140.0300  159.6122 C   0  0  0  0  0  0  0  0  0  0  0  0
  152.3358  140.6129  158.6142 C   0  0  1  0  0  0  0  0  0  0  0  0
  153.3078  141.6327  159.2408 C   0  0  0  0  0  0  0  0  0  0  0  0
  152.6443  142.8580  159.6477 N   0  0  0  0  0  0  0  0  0  0  0  0
  151.7459  143.6198  158.9308 C   0  0  0  0  0  0  0  0  0  0  0  0
  151.3885  144.6758  159.7191 C   0  0  0  0  0  0  0  0  0  0  0  0
  152.1322  144.4714  160.9149 C   0  0  0  0  0  0  0  0  0  0  0  0
  152.8841  143.3836  160.8688 N   0  0  0  0  0  0  0  0  0  0  0  0
  153.0975  139.5191  158.0084 N   0  0  0  0  0  0  0  0  0  0  0  0
  152.2417  138.2893  157.1530 S   0  0  0  0  0  0  0  0  0  0  0  0
  150.8318  138.7050  157.0994 O   0  0  0  0  0  0  0  0  0  0  0  0
  152.9779  138.0280  155.9062 O   0  0  0  0  0  0  0  0  0  0  0  0
  152.4121  136.8358  158.2913 C   0  0  0  0  0  0  0  0  0  0  0  0
  153.8683  136.4096  158.5178 C   0  0  0  0  0  0  0  0  0  0  0  0
  153.7677  134.9289  158.8725 C   0  0  0  0  0  0  0  0  0  0  0  0
  152.6550  134.4044  157.9644 C   0  0  0  0  0  0  0  0  0  0  0  0
  151.6954  135.5844  157.7522 C   0  0  0  0  0  0  0  0  0  0  0  0
  150.6757  140.8054  160.0228 H   0  0  0  0  0  0  0  0  0  0  0  0
  151.8257  139.5398  160.4465 H   0  0  0  0  0  0  0  0  0  0  0  0
  150.6783  139.2934  159.1314 H   0  0  0  0  0  0  0  0  0  0  0  0
  151.7694  141.1098  157.8249 H   0  0  0  0  0  0  0  0  0  0  0  0
  153.8103  141.1963  160.1059 H   0  0  0  0  0  0  0  0  0  0  0  0
  154.0917  141.8980  158.5306 H   0  0  0  0  0  0  0  0  0  0  0  0
  151.4385  143.3478  157.9318 H   0  0  0  0  0  0  0  0  0  0  0  0
  150.7006  145.4726  159.4784 H   0  0  0  0  0  0  0  0  0  0  0  0
  152.1476  145.0773  161.8089 H   0  0  0  0  0  0  0  0  0  0  0  0
  153.7505  139.1128  158.6780 H   0  0  0  0  0  0  0  0  0  0  0  0
  151.9585  137.1033  159.2463 H   0  0  0  0  0  0  0  0  0  0  0  0
  154.4542  136.5083  157.6042 H   0  0  0  0  0  0  0  0  0  0  0  0
  154.3592  136.9971  159.2942 H   0  0  0  0  0  0  0  0  0  0  0  0
  154.7095  134.3975  158.7319 H   0  0  0  0  0  0  0  0  0  0  0  0
  153.4749  134.8198  159.9176 H   0  0  0  0  0  0  0  0  0  0  0  0
  153.0798  134.1044  157.0055 H   0  0  0  0  0  0  0  0  0  0  0  0
  152.1550  133.5326  158.3875 H   0  0  0  0  0  0  0  0  0  0  0  0
  150.7552  135.4281  158.2822 H   0  0  0  0  0  0  0  0  0  0  0  0
  151.4564  135.6756  156.6924 H   0  0  0  0  0  0  0  0  0  0  0  0
  1  2  1  0  0  0  0
  1 18  1  0  0  0  0
  1 19  1  0  0  0  0
  1 20  1  0  0  0  0
  2  3  1  0  0  0  0
  2  9  1  0  0  0  0
  2 21  1  0  0  0  0
  3  4  1  0  0  0  0
  3 22  1  0  0  0  0
  3 23  1  0  0  0  0
  4  8  1  0  0  0  0
  4  5  1  0  0  0  0
  5  6  2  0  0  0  0
  5 24  1  0  0  0  0
  6  7  1  0  0  0  0
  6 25  1  0  0  0  0
  7  8  2  0  0  0  0
  7 26  1  0  0  0  0
  9 10  1  0  0  0  0
  9 27  1  0  0  0  0
 10 11  2  0  0  0  0
 10 12  2  0  0  0  0
 10 13  1  0  0  0  0
 13 17  1  0  0  0  0
 13 14  1  0  0  0  0
 13 28  1  0  0  0  0
 14 15  1  0  0  0  0
 14 29  1  0  0  0  0
 14 30  1  0  0  0  0
 15 16  1  0  0  0  0
 15 31  1  0  0  0  0
 15 32  1  0  0  0  0
 16 17  1  0  0  0  0
 16 33  1  0  0  0  0
 16 34  1  0  0  0  0
 17 35  1  0  0  0  0
 17 36  1  0  0  0  0
M  END
> <s_m_source_file>
AV-unprocessed.smi

> <i_m_source_file_index>
1800

> <i_lp_mmshare_version>
43012

> <i_f3d_flags>
0

> <s_epik_input>
bjFbY0hdW2NIXVtjSF1uMVtDSDJdW0NAQEhdKFtDSDNdKVtOSF1TKD1PKSg9TylbQ0hdMltDSDJdW0NIMl1bQ0gyXVtDSDJdMg==

> <s_epik_cmdline>
J2VwaWtfcHl0aG9uJywgJy1waCcsICc3LjAnLCAnLXRuJywgJzgnLCAnLW1hJywgJzIwMCcsICctbWV0YWxfYmluZGluZycsICctaW1hZScsICc8aW5maWxlLm1hZT4nLCAnLW9tYWUnLCAnPG91dGZpbGUubWFlPic=

> <r_lp_tautomer_probability>
1

> <r_epik_Ionization_Penalty>
1.44925e-05

> <r_epik_Ionization_Penalty_Charging>
0

> <r_epik_Ionization_Penalty_Neutral>
1.44925e-05

> <r_epik_State_Penalty>
-0

> <r_epik_Charging_Adjusted_Penalty>
0

> <i_epik_Tot_Q>
0

> <i_epik_Tot_abs_Q>
0

> <r_epik_Metal_State_Penalty>
0.00862991

> <b_epik_Metal_Only>
0

> <s_lp_Force_Field>
OPLS_2005

> <r_lp_Energy>
17.3369

> <b_lp_Chiralities_Consistent>
1

> <s_lp_Variant>
AV-unprocessed.smi:1800-2

> <Gold.Version>
5.8.1

> <Gold.Id.Protein>
6NUR|6NUR_protein|mol2

> <Gold.PLP.Fitness>
41.7194

> <Gold.PLP.PLP>
-36.3273

> <Gold.PLP.part.hbond>
-3.2123

> <Gold.PLP.part.metal>
0.0000

> <Gold.PLP.part.buried>
-5.3724

> <Gold.PLP.part.nonpolar>
-27.0977

> <Gold.PLP.part.repulsive>
0.1123

> <Gold.PLP.ligand.clash>
0.0000

> <Gold.PLP.ligand.torsion>
0.4580

> <Gold.PLP.Chemscore.Hbond>
2.0195

> <Gold.PLP.Chemscore.CHOScore>
0.0000

> <Gold.PLP.Chemscore.Metal>
0.0000

> <Gold.Chemscore.Hbonds>
donor molecule, donor type, donor heavy atom, donor atom, acceptor molecule, acceptor atom, score
      P1  H  7997  8008       L1     9  0.45

> <Gold.PLP.Chemscore.Internal.Correction>
0.2496

> <Gold.Rescore>
     Score         DG    S(hbond)    S(metal)    S(lipo)     H(rot)  DE(clash)    DE(int)     intcor
     13.25     -13.73       1.03        0.00      79.68       1.76       0.00       0.47       ----

> <Gold.Chemscore.Fitness>
13.2536

> <Gold.Chemscore.DG>
-13.7300

> <Gold.Chemscore.ZeroCoef>
-5.4800

> <Gold.Chemscore.Hbond>
1.0267

> <Gold.Chemscore.Metal>
0.0000

> <Gold.Chemscore.Lipo>
79.6817

> <Gold.Chemscore.Internal_Hbond>
0.0000

> <Gold.Chemscore.DEClash>
0.0021

> <Gold.Chemscore.DEInternal>
0.4743

> <Gold.Chemscore.Rot>
1.7585

> <Gold.Chemscore.Internal.Correction>
   9.000000E+99

> <Gold.Chemscore.Hbonds>
donor molecule, donor type, donor heavy atom, donor atom, acceptor molecule, acceptor atom, score
      P1  H  7997  8008       L1     9  0.01

> <Gold.Chemscore.Hbond.Weighted>
-3.4291

> <Gold.Chemscore.Metal.Weighted>
-0.0000

> <Gold.Chemscore.Lipo.Weighted>
-9.3228

> <Gold.Chemscore.Internal_Hbond.Weighted>
0.0000

> <Gold.Chemscore.DEClash.Weighted>
0.0021

> <Gold.Chemscore.DEInternal.Weighted>
0.4743

> <Gold.Chemscore.Rot.Weighted>
4.5019

> <Gold.Chemscore.Internal.Correction.Weighted>
   9.000000E+99

> <Gold.Protein.RotatedTorsions>
[ 6907 6896 6895 6894 ] final -160.94 input  -60.11 | X-H torsion
[ 7974 7965 7964 7962 ] final  101.62 input  175.53 | X-H torsion
[ 8008 7997 7996 7995 ] final  -81.11 input   59.86 | X-H torsion
[ 10167 10162 10161 10158 ] final   -7.10 input  -65.29 | X-H torsion
[ 10718 10713 10712 10709 ] final -135.84 input   66.30 | X-H torsion
[ 10763 10752 10751 10750 ] final  -37.29 input  -60.55 | X-H torsion
[ 11005 11000 10999 10996 ] final  -97.17 input  -57.11 | X-H torsion

> <Gold.Protein.ActiveResidues>
 VAL166  LYS551  ARG553  GLY616  TRP617  ASP618  TYR619  PRO620  LYS621  CYS622 
 ASP623  PHE694  ASN695  SER759  ASP760  ASP761  ALA762  ILE779  LEU786  VAL792 
 PHE793  MET794  SER795  GLU796  ALA797  LYS798  CYS799  TRP800  GLU811  SER814 

> <Gold.Protein.RotatedAtoms>
  151.3569  133.3904  159.2685 H   0  0  0  0  0  0  0  0  0  0  0  0  # atno 6907 bound_to 6896
  150.9756  134.9122  159.7824 H   0  0  0  0  0  0  0  0  0  0  0  0  # atno 6908 bound_to 6896
  152.5200  134.3532  159.9311 H   0  0  0  0  0  0  0  0  0  0  0  0  # atno 6909 bound_to 6896
  145.3699  139.2400  143.3461 H   0  0  0  0  0  0  0  0  0  0  0  0  # atno 7974 bound_to 7965
  154.5951  140.0652  156.9292 H   0  0  0  0  0  0  0  0  0  0  0  0  # atno 8008 bound_to 7997
  155.2228  140.3331  155.4295 H   0  0  0  0  0  0  0  0  0  0  0  0  # atno 8009 bound_to 7997
  156.2281  140.1828  156.7295 H   0  0  0  0  0  0  0  0  0  0  0  0  # atno 8010 bound_to 7997
  140.7018  143.6119  150.8695 H   0  0  0  0  0  0  0  0  0  0  0  0  # atno 10167 bound_to 10162
  156.2705  130.7263  151.1228 H   0  0  0  0  0  0  0  0  0  0  0  0  # atno 10718 bound_to 10713
  153.8938  135.6809  153.4759 H   0  0  0  0  0  0  0  0  0  0  0  0  # atno 10763 bound_to 10752
  153.1166  135.4758  154.9124 H   0  0  0  0  0  0  0  0  0  0  0  0  # atno 10764 bound_to 10752
  154.7609  135.3210  154.8333 H   0  0  0  0  0  0  0  0  0  0  0  0  # atno 10765 bound_to 10752
  141.1388  133.8151  157.0670 H   0  0  0  0  0  0  0  0  0  0  0  0  # atno 11005 bound_to 11000
  146.2890  140.4348  142.8747 LP  0  0  0  0  0  0  0  0  0  0  0  0  # atno 17320 bound_to 7965
  144.8584  140.7104  143.6123 LP  0  0  0  0  0  0  0  0  0  0  0  0  # atno 17321 bound_to 7965
  139.9842  143.5918  152.2932 LP  0  0  0  0  0  0  0  0  0  0  0  0  # atno 17342 bound_to 10162
  139.6550  144.7662  151.2074 LP  0  0  0  0  0  0  0  0  0  0  0  0  # atno 17343 bound_to 10162
  157.7282  131.0633  150.5830 LP  0  0  0  0  0  0  0  0  0  0  0  0  # atno 17370 bound_to 10713
  156.5926  130.4333  149.5930 LP  0  0  0  0  0  0  0  0  0  0  0  0  # atno 17371 bound_to 10713
  140.0535  134.9793  157.1179 LP  0  0  0  0  0  0  0  0  0  0  0  0  # atno 17394 bound_to 11000
  140.3954  134.2140  155.7165 LP  0  0  0  0  0  0  0  0  0  0  0  0  # atno 17395 bound_to 11000

$$$$
