AV-unprocessed.smi:1669|AV-procd|sdf|6692|dock4
  -GOLD-   22720 7423D 1   1.00000     0.00000
 Structure written by MMmdl.
 49 51  0  0  0  0  0  0  0  0  3 V2000
  149.9179  135.5556  156.5057 C   0  0  0  0  0  0  0  0  0  0  0  0
  149.6420  135.9191  157.9155 N   0  3  2  0  0  0  0  0  0  0  0  0
  148.1892  136.0490  158.1985 C   0  0  0  0  0  0  0  0  0  0  0  0
  147.8447  135.5913  159.6041 C   0  0  0  0  0  0  0  0  0  0  0  0
  147.3476  134.2880  159.8169 C   0  0  0  0  0  0  0  0  0  0  0  0
  147.0245  133.8578  161.1186 C   0  0  0  0  0  0  0  0  0  0  0  0
  147.1987  134.7283  162.2118 C   0  0  0  0  0  0  0  0  0  0  0  0
  147.6968  136.0288  162.0035 C   0  0  0  0  0  0  0  0  0  0  0  0
  148.0208  136.4598  160.7023 C   0  0  0  0  0  0  0  0  0  0  0  0
  150.4267  137.1025  158.3510 C   0  0  0  0  0  0  0  0  0  0  0  0
  149.9641  138.3980  157.6549 C   0  0  1  0  0  0  0  0  0  0  0  0
  149.3892  139.2522  158.6243 O   0  0  0  0  0  0  0  0  0  0  0  0
  151.1361  139.1241  156.9652 C   0  0  0  0  0  0  0  0  0  0  0  0
  150.8986  140.5658  156.7921 N   0  0  0  0  0  0  0  0  0  0  0  0
  150.1308  141.2333  155.8822 C   0  0  0  0  0  0  0  0  0  0  0  0
  149.3095  140.6238  154.7903 C   0  0  0  0  0  0  0  0  0  0  0  0
  149.7579  140.9701  153.4969 O   0  0  0  0  0  0  0  0  0  0  0  0
  150.2510  142.5641  156.1566 N   0  3  0  0  0  0  0  0  0  0  0  0
  151.0951  142.7493  157.2516 C   0  0  0  0  0  0  0  0  0  0  0  0
  151.5137  143.9100  157.8946 C   0  0  0  0  0  0  0  0  0  0  0  0
  152.3819  143.7462  158.9940 C   0  0  0  0  0  0  0  0  0  0  0  0
  152.8005  142.4669  159.4148 C   0  0  0  0  0  0  0  0  0  0  0  0
  152.3702  141.2972  158.7540 C   0  0  0  0  0  0  0  0  0  0  0  0
  151.5127  141.4687  157.6676 C   0  0  0  0  0  0  0  0  0  0  0  0
  149.5951  136.3469  155.8278 H   0  0  0  0  0  0  0  0  0  0  0  0
  149.4055  134.6351  156.2268 H   0  0  0  0  0  0  0  0  0  0  0  0
  150.9846  135.3884  156.3521 H   0  0  0  0  0  0  0  0  0  0  0  0
  147.8690  137.0866  158.1060 H   0  0  0  0  0  0  0  0  0  0  0  0
  147.6124  135.4887  157.4609 H   0  0  0  0  0  0  0  0  0  0  0  0
  147.2107  133.6154  158.9825 H   0  0  0  0  0  0  0  0  0  0  0  0
  146.6433  132.8600  161.2793 H   0  0  0  0  0  0  0  0  0  0  0  0
  146.9504  134.3983  163.2100 H   0  0  0  0  0  0  0  0  0  0  0  0
  147.8308  136.6959  162.8425 H   0  0  0  0  0  0  0  0  0  0  0  0
  148.4024  137.4592  160.5514 H   0  0  0  0  0  0  0  0  0  0  0  0
  150.3330  137.2390  159.4299 H   0  0  0  0  0  0  0  0  0  0  0  0
  151.4856  136.9192  158.1614 H   0  0  0  0  0  0  0  0  0  0  0  0
  149.1994  138.1777  156.9109 H   0  0  0  0  0  0  0  0  0  0  0  0
  149.4386  140.1420  158.3084 H   0  0  0  0  0  0  0  0  0  0  0  0
  152.0508  139.0061  157.5476 H   0  0  0  0  0  0  0  0  0  0  0  0
  151.3403  138.6906  155.9853 H   0  0  0  0  0  0  0  0  0  0  0  0
  149.3276  139.5384  154.8886 H   0  0  0  0  0  0  0  0  0  0  0  0
  148.2732  140.9428  154.9027 H   0  0  0  0  0  0  0  0  0  0  0  0
  149.5210  140.2764  152.8998 H   0  0  0  0  0  0  0  0  0  0  0  0
  151.1930  144.8908  157.5748 H   0  0  0  0  0  0  0  0  0  0  0  0
  152.7322  144.6191  159.5259 H   0  0  0  0  0  0  0  0  0  0  0  0
  153.4645  142.3813  160.2630 H   0  0  0  0  0  0  0  0  0  0  0  0
  152.6961  140.3227  159.0858 H   0  0  0  0  0  0  0  0  0  0  0  0
  149.9805  135.1484  158.4742 H   0  0  0  0  0  0  0  0  0  0  0  0
  149.7828  143.2895  155.6281 H   0  0  0  0  0  0  0  0  0  0  0  0
  1  2  1  0  0  0  0
  1 25  1  0  0  0  0
  1 26  1  0  0  0  0
  1 27  1  0  0  0  0
  2  3  1  0  0  0  0
  2 10  1  0  0  0  0
  2 48  1  0  0  0  0
  3  4  1  0  0  0  0
  3 28  1  0  0  0  0
  3 29  1  0  0  0  0
  4  9  1  0  0  0  0
  4  5  2  0  0  0  0
  5  6  1  0  0  0  0
  5 30  1  0  0  0  0
  6  7  2  0  0  0  0
  6 31  1  0  0  0  0
  7  8  1  0  0  0  0
  7 32  1  0  0  0  0
  8  9  2  0  0  0  0
  8 33  1  0  0  0  0
  9 34  1  0  0  0  0
 10 11  1  0  0  0  0
 10 35  1  0  0  0  0
 10 36  1  0  0  0  0
 11 12  1  0  0  0  0
 11 13  1  0  0  0  0
 11 37  1  0  0  0  0
 12 38  1  0  0  0  0
 13 14  1  0  0  0  0
 13 39  1  0  0  0  0
 13 40  1  0  0  0  0
 14 24  1  0  0  0  0
 14 15  1  0  0  0  0
 15 16  1  0  0  0  0
 15 18  2  0  0  0  0
 16 17  1  0  0  0  0
 16 41  1  0  0  0  0
 16 42  1  0  0  0  0
 17 43  1  0  0  0  0
 18 19  1  0  0  0  0
 18 49  1  0  0  0  0
 19 24  2  0  0  0  0
 19 20  1  0  0  0  0
 20 21  2  0  0  0  0
 20 44  1  0  0  0  0
 21 22  1  0  0  0  0
 21 45  1  0  0  0  0
 22 23  2  0  0  0  0
 22 46  1  0  0  0  0
 23 24  1  0  0  0  0
 23 47  1  0  0  0  0
M  CHG  1   2   1
M  CHG  1  18   1
M  END
> <s_m_source_file>
AV-unprocessed.smi

> <i_m_source_file_index>
1669

> <i_lp_mmshare_version>
43012

> <i_f3d_flags>
0

> <s_epik_input>
W2NIXTFbY0hdW2NIXVtjSF1bY0hdYzFbQ0gyXU4oW0NIM10pW0NIMl1bQ0BIXShbT0hdKVtDSDJdbihjKG4yKVtDSDJdW09IXSljKGMyMylbY0hdW2NIXVtjSF1bY0hdMw==

> <s_epik_cmdline>
J2VwaWtfcHl0aG9uJywgJy1waCcsICc3LjAnLCAnLXRuJywgJzgnLCAnLW1hJywgJzIwMCcsICctbWV0YWxfYmluZGluZycsICctaW1hZScsICc8aW5maWxlLm1hZT4nLCAnLW9tYWUnLCAnPG91dGZpbGUubWFlPic=

> <r_epik_Ionization_Penalty>
1.57484

> <r_epik_Ionization_Penalty_Charging>
1.57398

> <r_epik_Ionization_Penalty_Neutral>
0.000858917

> <r_epik_State_Penalty>
1.64997

> <r_epik_Charging_Adjusted_Penalty>
3.22395

> <i_epik_Tot_Q>
2

> <i_epik_Tot_abs_Q>
2

> <r_epik_Metal_State_Penalty>
5.70481

> <b_epik_Metal_Only>
0

> <s_lp_Force_Field>
OPLS_2005

> <r_lp_Energy>
22.4556

> <b_lp_Chiralities_Consistent>
1

> <s_lp_Variant>
AV-unprocessed.smi:1669-10

> <Gold.Version>
5.8.1

> <Gold.Id.Protein>
6NUR|6NUR_protein|mol2

> <Gold.PLP.Fitness>
57.4281

> <Gold.PLP.PLP>
-48.9196

> <Gold.PLP.part.hbond>
-5.3788

> <Gold.PLP.part.metal>
0.0000

> <Gold.PLP.part.buried>
-2.2619

> <Gold.PLP.part.nonpolar>
-42.2175

> <Gold.PLP.part.repulsive>
0.3585

> <Gold.PLP.ligand.clash>
0.0000

> <Gold.PLP.ligand.torsion>
1.9723

> <Gold.PLP.Chemscore.Hbond>
3.9600

> <Gold.PLP.Chemscore.CHOScore>
0.0000

> <Gold.PLP.Chemscore.Metal>
0.0000

> <Gold.Chemscore.Hbonds>
donor molecule, donor type, donor heavy atom, donor atom, acceptor molecule, acceptor atom, score
      L1  H    17    43       P1  7957  0.70
      L1  H    18    49       P1  8028  1.92
      P1  H  7989  7998       L1    17  0.27
      P1  H  8011  8017       L1    17  1.00

> <Gold.PLP.Chemscore.Internal.Correction>
0.5732

> <Gold.Rescore>
     Score         DG    S(hbond)    S(metal)    S(lipo)     H(rot)  DE(clash)    DE(int)     intcor
     17.26     -19.11       2.12        0.00     127.59       3.27       0.10       1.75       ----

> <Gold.Chemscore.Fitness>
17.2605

> <Gold.Chemscore.DG>
-19.1131

> <Gold.Chemscore.ZeroCoef>
-5.4800

> <Gold.Chemscore.Hbond>
2.1202

> <Gold.Chemscore.Metal>
0.0000

> <Gold.Chemscore.Lipo>
127.5856

> <Gold.Chemscore.Internal_Hbond>
0.0000

> <Gold.Chemscore.DEClash>
0.1027

> <Gold.Chemscore.DEInternal>
1.7499

> <Gold.Chemscore.Rot>
3.2718

> <Gold.Chemscore.Internal.Correction>
   9.000000E+99

> <Gold.Chemscore.Hbonds>
donor molecule, donor type, donor heavy atom, donor atom, acceptor molecule, acceptor atom, score
      L1  H    17    43       P1  7957  0.70
      L1  H    18    49       P1  8028  0.92
      P1  H  7989  7998       L1    17  0.07
      P1  H  8011  8017       L1    17  0.25

> <Gold.Chemscore.Hbond.Weighted>
-7.0814

> <Gold.Chemscore.Metal.Weighted>
-0.0000

> <Gold.Chemscore.Lipo.Weighted>
-14.9275

> <Gold.Chemscore.Internal_Hbond.Weighted>
0.0000

> <Gold.Chemscore.DEClash.Weighted>
0.1027

> <Gold.Chemscore.DEInternal.Weighted>
1.7499

> <Gold.Chemscore.Rot.Weighted>
8.3759

> <Gold.Chemscore.Internal.Correction.Weighted>
   9.000000E+99

> <Gold.Protein.RotatedTorsions>
[ 6907 6896 6895 6894 ] final -113.82 input  -60.11 | X-H torsion
[ 7974 7965 7964 7962 ] final   75.50 input  175.53 | X-H torsion
[ 8008 7997 7996 7995 ] final -131.46 input   59.86 | X-H torsion
[ 10167 10162 10161 10158 ] final   87.24 input  -65.29 | X-H torsion
[ 10718 10713 10712 10709 ] final  -44.16 input   66.30 | X-H torsion
[ 10763 10752 10751 10750 ] final  135.70 input  -60.55 | X-H torsion
[ 11005 11000 10999 10996 ] final  -46.18 input  -57.11 | X-H torsion

> <Gold.Protein.ActiveResidues>
 VAL166  LYS551  ARG553  GLY616  TRP617  ASP618  TYR619  PRO620  LYS621  CYS622 
 ASP623  PHE694  ASN695  SER759  ASP760  ASP761  ALA762  ILE779  LEU786  VAL792 
 PHE793  MET794  SER795  GLU796  ALA797  LYS798  CYS799  TRP800  GLU811  SER814 

> <Gold.Protein.RotatedAtoms>
  150.7857  133.8890  159.3307 H   0  0  0  0  0  0  0  0  0  0  0  0  # atno 6907 bound_to 6896
  151.6741  135.0970  160.0213 H   0  0  0  0  0  0  0  0  0  0  0  0  # atno 6908 bound_to 6896
  152.3920  133.6653  159.6280 H   0  0  0  0  0  0  0  0  0  0  0  0  # atno 6909 bound_to 6896
  145.7148  139.2627  143.1630 H   0  0  0  0  0  0  0  0  0  0  0  0  # atno 7974 bound_to 7965
  155.3127  140.0458  157.3035 H   0  0  0  0  0  0  0  0  0  0  0  0  # atno 8008 bound_to 7997
  154.5424  140.2292  155.8586 H   0  0  0  0  0  0  0  0  0  0  0  0  # atno 8009 bound_to 7997
  156.1893  140.3054  155.9306 H   0  0  0  0  0  0  0  0  0  0  0  0  # atno 8010 bound_to 7997
  139.8793  144.6449  150.8861 H   0  0  0  0  0  0  0  0  0  0  0  0  # atno 10167 bound_to 10162
  156.2415  130.4180  149.8755 H   0  0  0  0  0  0  0  0  0  0  0  0  # atno 10718 bound_to 10713
  153.8443  135.3087  155.3428 H   0  0  0  0  0  0  0  0  0  0  0  0  # atno 10763 bound_to 10752
  154.7919  135.4778  154.0075 H   0  0  0  0  0  0  0  0  0  0  0  0  # atno 10764 bound_to 10752
  153.1557  135.6851  153.8909 H   0  0  0  0  0  0  0  0  0  0  0  0  # atno 10765 bound_to 10752
  141.0563  133.6725  156.3118 H   0  0  0  0  0  0  0  0  0  0  0  0  # atno 11005 bound_to 11000
  146.0679  140.7900  142.9702 LP  0  0  0  0  0  0  0  0  0  0  0  0  # atno 17320 bound_to 7965
  144.6932  140.3297  143.7218 LP  0  0  0  0  0  0  0  0  0  0  0  0  # atno 17321 bound_to 7965
  140.7747  143.3599  151.1849 LP  0  0  0  0  0  0  0  0  0  0  0  0  # atno 17342 bound_to 10162
  139.7211  143.9222  152.2985 LP  0  0  0  0  0  0  0  0  0  0  0  0  # atno 17343 bound_to 10162
  156.6335  130.8675  151.3500 LP  0  0  0  0  0  0  0  0  0  0  0  0  # atno 17370 bound_to 10713
  157.7177  130.9518  150.1318 LP  0  0  0  0  0  0  0  0  0  0  0  0  # atno 17371 bound_to 10713
  140.5958  134.5604  157.5508 LP  0  0  0  0  0  0  0  0  0  0  0  0  # atno 17394 bound_to 11000
  139.9393  134.7817  156.0721 LP  0  0  0  0  0  0  0  0  0  0  0  0  # atno 17395 bound_to 11000

$$$$
