AV-unprocessed.smi:119|AV-procd|sdf|1136|dock8
  -GOLD-   2262018263D 1   1.00000     0.00000
 Structure written by MMmdl.
 51 54  0  0  0  0  0  0  0  0  1 V2000
  154.7540  140.5517  162.3242 C   0  0  0  0  0  0  0  0  0  0  0  0
  154.0975  140.9558  160.9977 C   0  0  1  0  0  0  0  0  0  0  0  0
  153.7536  139.7180  160.1490 C   0  0  0  0  0  0  0  0  0  0  0  0
  153.3396  140.0341  158.6998 C   0  0  0  0  0  0  0  0  0  0  0  0
  152.0105  140.6527  158.6072 N   0  0  0  0  0  0  0  0  0  0  0  0
  150.8557  139.9417  158.5176 C   0  0  0  0  0  0  0  0  0  0  0  0
  149.7518  140.4921  158.4835 O   0  0  0  0  0  0  0  0  0  0  0  0
  150.9201  138.3990  158.4562 C   0  0  0  0  0  0  0  0  0  0  0  0
  149.6076  137.7601  158.2116 N   0  0  0  0  0  0  0  0  0  0  0  0
  149.1520  137.6407  156.8759 C   0  0  0  0  0  0  0  0  0  0  0  0
  149.8230  138.0614  155.9321 O   0  0  0  0  0  0  0  0  0  0  0  0
  147.8578  136.9912  156.7096 C   0  0  0  0  0  0  0  0  0  0  0  0
  147.3385  136.8504  155.4780 F   0  0  0  0  0  0  0  0  0  0  0  0
  147.1660  136.5322  157.7732 C   0  0  0  0  0  0  0  0  0  0  0  0
  147.6265  136.6438  159.0748 N   0  0  0  0  0  0  0  0  0  0  0  0
  146.8752  136.0940  160.2718 C   0  0  1  0  0  0  0  0  0  0  0  0
  147.6359  135.0759  161.1259 C   0  0  0  0  0  0  0  0  0  0  0  0
  146.8549  135.1869  162.4143 C   0  0  0  0  0  0  0  0  0  0  0  0
  146.5983  136.6922  162.4849 C   0  0  0  0  0  0  0  0  0  0  0  0
  146.5810  137.1523  161.1340 O   0  0  0  0  0  0  0  0  0  0  0  0
  148.8731  137.2647  159.3153 C   0  0  0  0  0  0  0  0  0  0  0  0
  149.3113  137.3686  160.4634 O   0  0  0  0  0  0  0  0  0  0  0  0
  151.9704  142.0738  158.6268 C   0  0  0  0  0  0  0  0  0  0  0  0
  151.6456  142.7722  157.4418 C   0  0  0  0  0  0  0  0  0  0  0  0
  151.5992  144.1792  157.4357 C   0  0  0  0  0  0  0  0  0  0  0  0
  151.8775  144.8972  158.6137 C   0  0  0  0  0  0  0  0  0  0  0  0
  152.2021  144.2082  159.7975 C   0  0  0  0  0  0  0  0  0  0  0  0
  152.2545  142.8000  159.8092 C   0  0  0  0  0  0  0  0  0  0  0  0
  152.6378  141.9830  161.3285 S   0  0  0  0  0  0  0  0  0  0  0  0
  155.6715  139.9874  162.1543 H   0  0  0  0  0  0  0  0  0  0  0  0
  154.0865  139.9320  162.9238 H   0  0  0  0  0  0  0  0  0  0  0  0
  155.0148  141.4299  162.9155 H   0  0  0  0  0  0  0  0  0  0  0  0
  154.8101  141.5735  160.4499 H   0  0  0  0  0  0  0  0  0  0  0  0
  154.6349  139.0773  160.1048 H   0  0  0  0  0  0  0  0  0  0  0  0
  152.9862  139.1283  160.6507 H   0  0  0  0  0  0  0  0  0  0  0  0
  154.0768  140.7037  158.2541 H   0  0  0  0  0  0  0  0  0  0  0  0
  153.3972  139.1310  158.0932 H   0  0  0  0  0  0  0  0  0  0  0  0
  151.6336  138.1102  157.6838 H   0  0  0  0  0  0  0  0  0  0  0  0
  151.3528  138.0127  159.3786 H   0  0  0  0  0  0  0  0  0  0  0  0
  146.2119  136.0780  157.5632 H   0  0  0  0  0  0  0  0  0  0  0  0
  145.9542  135.6684  159.8673 H   0  0  0  0  0  0  0  0  0  0  0  0
  147.6308  134.0827  160.6764 H   0  0  0  0  0  0  0  0  0  0  0  0
  148.6575  135.4021  161.3181 H   0  0  0  0  0  0  0  0  0  0  0  0
  145.9122  134.6441  162.3316 H   0  0  0  0  0  0  0  0  0  0  0  0
  147.3960  134.8052  163.2806 H   0  0  0  0  0  0  0  0  0  0  0  0
  145.6642  136.9265  162.9963 H   0  0  0  0  0  0  0  0  0  0  0  0
  147.4089  137.1971  163.0118 H   0  0  0  0  0  0  0  0  0  0  0  0
  151.4295  142.2285  156.5334 H   0  0  0  0  0  0  0  0  0  0  0  0
  151.3479  144.7070  156.5275 H   0  0  0  0  0  0  0  0  0  0  0  0
  151.8396  145.9764  158.6101 H   0  0  0  0  0  0  0  0  0  0  0  0
  152.4100  144.7649  160.6998 H   0  0  0  0  0  0  0  0  0  0  0  0
  1  2  1  0  0  0  0
  1 30  1  0  0  0  0
  1 31  1  0  0  0  0
  1 32  1  0  0  0  0
  2 29  1  0  0  0  0
  2  3  1  0  0  0  0
  2 33  1  0  0  0  0
  3  4  1  0  0  0  0
  3 34  1  0  0  0  0
  3 35  1  0  0  0  0
  4  5  1  0  0  0  0
  4 36  1  0  0  0  0
  4 37  1  0  0  0  0
  5  6  1  0  0  0  0
  5 23  1  0  0  0  0
  6  7  2  0  0  0  0
  6  8  1  0  0  0  0
  8  9  1  0  0  0  0
  8 38  1  0  0  0  0
  8 39  1  0  0  0  0
  9 21  1  0  0  0  0
  9 10  1  0  0  0  0
 10 11  2  0  0  0  0
 10 12  1  0  0  0  0
 12 13  1  0  0  0  0
 12 14  2  0  0  0  0
 14 15  1  0  0  0  0
 14 40  1  0  0  0  0
 15 16  1  0  0  0  0
 15 21  1  0  0  0  0
 16 20  1  0  0  0  0
 16 17  1  0  0  0  0
 16 41  1  0  0  0  0
 17 18  1  0  0  0  0
 17 42  1  0  0  0  0
 17 43  1  0  0  0  0
 18 19  1  0  0  0  0
 18 44  1  0  0  0  0
 18 45  1  0  0  0  0
 19 20  1  0  0  0  0
 19 46  1  0  0  0  0
 19 47  1  0  0  0  0
 21 22  2  0  0  0  0
 23 28  2  0  0  0  0
 23 24  1  0  0  0  0
 24 25  2  0  0  0  0
 24 48  1  0  0  0  0
 25 26  1  0  0  0  0
 25 49  1  0  0  0  0
 26 27  2  0  0  0  0
 26 50  1  0  0  0  0
 27 28  1  0  0  0  0
 27 51  1  0  0  0  0
 28 29  1  0  0  0  0
M  END
> <s_m_source_file>
AV-unprocessed.smi

> <i_m_source_file_index>
119

> <i_lp_mmshare_version>
43012

> <i_f3d_flags>
0

> <s_epik_input>
W2NIXTFbY0hdW2NIXVtjSF1jKGMxMilTW0NASF0oW0NIM10pW0NIMl1bQ0gyXU4yQyg9TylbQ0gyXW4zYyg9TyljKEYpW2NIXW4oYzM9TylbQ0BASF00W0NIMl1bQ0gyXVtDSDJdTzQ=

> <s_epik_cmdline>
J2VwaWtfcHl0aG9uJywgJy1waCcsICc3LjAnLCAnLXRuJywgJzgnLCAnLW1hJywgJzIwMCcsICctbWV0YWxfYmluZGluZycsICctaW1hZScsICc8aW5maWxlLm1hZT4nLCAnLW9tYWUnLCAnPG91dGZpbGUubWFlPic=

> <r_lp_tautomer_probability>
1

> <r_epik_Ionization_Penalty>
1.68882e-06

> <r_epik_Ionization_Penalty_Charging>
3.67303e-09

> <r_epik_Ionization_Penalty_Neutral>
1.68515e-06

> <r_epik_State_Penalty>
-0

> <r_epik_Charging_Adjusted_Penalty>
3.67303e-09

> <i_epik_Tot_Q>
0

> <i_epik_Tot_abs_Q>
0

> <r_epik_Metal_State_Penalty>
-0

> <b_epik_Metal_Only>
0

> <s_epik_Chemistry_Notes>
This compound contains an acetal/aminal-like group ( X-CH(R)-Y where X, Y are N, S, or O) that may be acid/base labile, releasing an aldehyde.

> <s_lp_Force_Field>
OPLS_2005

> <r_lp_Energy>
51.7973

> <b_lp_Chiralities_Consistent>
1

> <s_lp_Variant>
AV-unprocessed.smi:119-4

> <Gold.Version>
5.8.1

> <Gold.Id.Protein>
6NUR|6NUR_protein|mol2

> <Gold.PLP.Fitness>
51.7506

> <Gold.PLP.PLP>
-48.2311

> <Gold.PLP.part.hbond>
-1.7298

> <Gold.PLP.part.metal>
0.0000

> <Gold.PLP.part.buried>
-2.7268

> <Gold.PLP.part.nonpolar>
-44.1140

> <Gold.PLP.part.repulsive>
0.0229

> <Gold.PLP.ligand.clash>
0.0000

> <Gold.PLP.ligand.torsion>
0.3818

> <Gold.PLP.Chemscore.Hbond>
1.4233

> <Gold.PLP.Chemscore.CHOScore>
0.0000

> <Gold.PLP.Chemscore.Metal>
0.0000

> <Gold.Chemscore.Hbonds>
donor molecule, donor type, donor heavy atom, donor atom, acceptor molecule, acceptor atom, score
      P1  H  6931  6943       L1    22  0.43
      P1  H  6934  6947       L1    20  1.00

> <Gold.PLP.Chemscore.Internal.Correction>
0.0134

> <Gold.Rescore>
     Score         DG    S(hbond)    S(metal)    S(lipo)     H(rot)  DE(clash)    DE(int)     intcor
     18.73     -22.47       1.46        0.00     137.04       1.53       0.74       3.00       ----

> <Gold.Chemscore.Fitness>
18.7260

> <Gold.Chemscore.DG>
-22.4693

> <Gold.Chemscore.ZeroCoef>
-5.4800

> <Gold.Chemscore.Hbond>
1.4562

> <Gold.Chemscore.Metal>
0.0000

> <Gold.Chemscore.Lipo>
137.0404

> <Gold.Chemscore.Internal_Hbond>
0.0000

> <Gold.Chemscore.DEClash>
0.7412

> <Gold.Chemscore.DEInternal>
3.0020

> <Gold.Chemscore.Rot>
1.5266

> <Gold.Chemscore.Internal.Correction>
   9.000000E+99

> <Gold.Chemscore.Hbonds>
donor molecule, donor type, donor heavy atom, donor atom, acceptor molecule, acceptor atom, score
      P1  H  6931  6943       L1    22  0.42
      P1  H  6934  6947       L1    20  0.84

> <Gold.Chemscore.Hbond.Weighted>
-4.8636

> <Gold.Chemscore.Metal.Weighted>
-0.0000

> <Gold.Chemscore.Lipo.Weighted>
-16.0337

> <Gold.Chemscore.Internal_Hbond.Weighted>
0.0000

> <Gold.Chemscore.DEClash.Weighted>
0.7412

> <Gold.Chemscore.DEInternal.Weighted>
3.0020

> <Gold.Chemscore.Rot.Weighted>
3.9081

> <Gold.Chemscore.Internal.Correction.Weighted>
   9.000000E+99

> <Gold.Protein.RotatedTorsions>
[ 6907 6896 6895 6894 ] final  -54.43 input  -60.11 | X-H torsion
[ 7974 7965 7964 7962 ] final   52.89 input  175.53 | X-H torsion
[ 8008 7997 7996 7995 ] final   92.68 input   59.86 | X-H torsion
[ 10167 10162 10161 10158 ] final  155.81 input  -65.29 | X-H torsion
[ 10718 10713 10712 10709 ] final  -73.07 input   66.30 | X-H torsion
[ 10763 10752 10751 10750 ] final  -56.35 input  -60.55 | X-H torsion
[ 11005 11000 10999 10996 ] final  165.41 input  -57.11 | X-H torsion

> <Gold.Protein.ActiveResidues>
 VAL166  LYS551  ARG553  GLY616  TRP617  ASP618  TYR619  PRO620  LYS621  CYS622 
 ASP623  PHE694  ASN695  SER759  ASP760  ASP761  ALA762  ILE779  LEU786  VAL792 
 PHE793  MET794  SER795  GLU796  ALA797  LYS798  CYS799  TRP800  GLU811  SER814 

> <Gold.Protein.RotatedAtoms>
  150.8339  134.7604  159.6876 H   0  0  0  0  0  0  0  0  0  0  0  0  # atno 6907 bound_to 6896
  152.4439  134.5532  159.9882 H   0  0  0  0  0  0  0  0  0  0  0  0  # atno 6908 bound_to 6896
  151.5686  133.3355  159.3021 H   0  0  0  0  0  0  0  0  0  0  0  0  # atno 6909 bound_to 6896
  145.9768  139.4202  143.0156 H   0  0  0  0  0  0  0  0  0  0  0  0  # atno 7974 bound_to 7965
  156.0382  140.3322  155.7214 H   0  0  0  0  0  0  0  0  0  0  0  0  # atno 8008 bound_to 7997
  155.5784  140.0634  157.2807 H   0  0  0  0  0  0  0  0  0  0  0  0  # atno 8009 bound_to 7997
  154.4381  140.1848  156.0940 H   0  0  0  0  0  0  0  0  0  0  0  0  # atno 8010 bound_to 7997
  139.4821  144.5065  151.8089 H   0  0  0  0  0  0  0  0  0  0  0  0  # atno 10167 bound_to 10162
  156.0294  130.4386  150.2688 H   0  0  0  0  0  0  0  0  0  0  0  0  # atno 10718 bound_to 10713
  154.2053  135.6404  153.5099 H   0  0  0  0  0  0  0  0  0  0  0  0  # atno 10763 bound_to 10752
  153.0002  135.5461  154.6272 H   0  0  0  0  0  0  0  0  0  0  0  0  # atno 10764 bound_to 10752
  154.5696  135.2915  155.0814 H   0  0  0  0  0  0  0  0  0  0  0  0  # atno 10765 bound_to 10752
  140.2559  134.7940  157.3545 H   0  0  0  0  0  0  0  0  0  0  0  0  # atno 11005 bound_to 11000
  145.7828  140.9849  143.1090 LP  0  0  0  0  0  0  0  0  0  0  0  0  # atno 17320 bound_to 7965
  144.6851  139.9585  143.7480 LP  0  0  0  0  0  0  0  0  0  0  0  0  # atno 17321 bound_to 7965
  140.4564  144.1783  150.5902 LP  0  0  0  0  0  0  0  0  0  0  0  0  # atno 17342 bound_to 10162
  140.4531  143.2479  151.9321 LP  0  0  0  0  0  0  0  0  0  0  0  0  # atno 17343 bound_to 10162
  157.0791  131.0138  151.3163 LP  0  0  0  0  0  0  0  0  0  0  0  0  # atno 17370 bound_to 10713
  157.4941  130.7840  149.7538 LP  0  0  0  0  0  0  0  0  0  0  0  0  # atno 17371 bound_to 10713
  140.1512  134.4847  155.7960 LP  0  0  0  0  0  0  0  0  0  0  0  0  # atno 17394 bound_to 11000
  141.2196  133.6863  156.7382 LP  0  0  0  0  0  0  0  0  0  0  0  0  # atno 17395 bound_to 11000

$$$$
