AV-unprocessed.smi:3244|AV-procd|sdf|12398|dock3
  -GOLD-   2272018273D 1   1.00000     0.00000
 Structure written by MMmdl.
 41 42  0  0  0  0  0  0  0  0  2 V2000
  146.9479  142.2640  154.1044 C   0  0  0  0  0  0  0  0  0  0  0  0
  147.7386  141.7067  155.2995 C   0  0  0  0  0  0  0  0  0  0  0  0
  148.9184  140.9399  154.8714 N   0  0  0  0  0  0  0  0  0  0  0  0
  148.8418  139.7119  154.2981 C   0  0  0  0  0  0  0  0  0  0  0  0
  149.8344  139.0012  154.1294 O   0  0  0  0  0  0  0  0  0  0  0  0
  147.4752  139.1919  153.8204 C   0  0  0  0  0  0  0  0  0  0  0  0
  147.4150  137.7141  153.7985 N   0  3  0  0  0  0  0  0  0  0  0  0
  146.1008  137.1331  153.4403 C   0  0  2  0  0  0  0  0  0  0  0  0
  145.9646  135.7011  153.9840 C   0  0  0  0  0  0  0  0  0  0  0  0
  145.9069  137.1602  151.9114 C   0  0  0  0  0  0  0  0  0  0  0  0
  145.4369  135.8878  151.3917 N   0  0  0  0  0  0  0  0  0  0  0  0
  146.1630  134.7418  151.1446 C   0  0  0  0  0  0  0  0  0  0  0  0
  145.2916  133.8037  150.6699 C   0  0  0  0  0  0  0  0  0  0  0  0
  144.0387  134.4779  150.6617 C   0  0  0  0  0  0  0  0  0  0  0  0
  144.1288  135.7247  151.0960 N   0  0  0  0  0  0  0  0  0  0  0  0
  150.1586  141.5226  155.3146 C   0  0  0  0  0  0  0  0  0  0  0  0
  151.1450  140.6596  156.0732 C   0  0  0  0  0  0  0  0  0  0  0  0
  150.4276  141.7751  156.7884 C   0  0  0  0  0  0  0  0  0  0  0  0
  146.0780  142.8244  154.4474 H   0  0  0  0  0  0  0  0  0  0  0  0
  146.5870  141.4588  153.4639 H   0  0  0  0  0  0  0  0  0  0  0  0
  147.5466  142.9325  153.4875 H   0  0  0  0  0  0  0  0  0  0  0  0
  148.0161  142.5151  155.9758 H   0  0  0  0  0  0  0  0  0  0  0  0
  147.0769  141.0707  155.8887 H   0  0  0  0  0  0  0  0  0  0  0  0
  146.6841  139.5683  154.4660 H   0  0  0  0  0  0  0  0  0  0  0  0
  147.2944  139.5675  152.8125 H   0  0  0  0  0  0  0  0  0  0  0  0
  148.0800  137.4029  153.1037 H   0  0  0  0  0  0  0  0  0  0  0  0
  145.3177  137.7485  153.8863 H   0  0  0  0  0  0  0  0  0  0  0  0
  145.0036  135.2679  153.7053 H   0  0  0  0  0  0  0  0  0  0  0  0
  146.0238  135.6735  155.0718 H   0  0  0  0  0  0  0  0  0  0  0  0
  146.7465  135.0511  153.5899 H   0  0  0  0  0  0  0  0  0  0  0  0
  145.2044  137.9437  151.6224 H   0  0  0  0  0  0  0  0  0  0  0  0
  146.8514  137.3937  151.4177 H   0  0  0  0  0  0  0  0  0  0  0  0
  147.2266  134.6888  151.3256 H   0  0  0  0  0  0  0  0  0  0  0  0
  145.5153  132.7898  150.3721 H   0  0  0  0  0  0  0  0  0  0  0  0
  143.0735  134.1010  150.3563 H   0  0  0  0  0  0  0  0  0  0  0  0
  150.5940  142.2502  154.6323 H   0  0  0  0  0  0  0  0  0  0  0  0
  150.8500  139.6410  156.3183 H   0  0  0  0  0  0  0  0  0  0  0  0
  152.2023  140.7983  155.8570 H   0  0  0  0  0  0  0  0  0  0  0  0
  151.0068  142.6592  157.0474 H   0  0  0  0  0  0  0  0  0  0  0  0
  149.6802  141.4800  157.5220 H   0  0  0  0  0  0  0  0  0  0  0  0
  147.7083  137.3536  154.6951 H   0  0  0  0  0  0  0  0  0  0  0  0
  1  2  1  0  0  0  0
  1 19  1  0  0  0  0
  1 20  1  0  0  0  0
  1 21  1  0  0  0  0
  2  3  1  0  0  0  0
  2 22  1  0  0  0  0
  2 23  1  0  0  0  0
  3  4  1  0  0  0  0
  3 16  1  0  0  0  0
  4  5  2  0  0  0  0
  4  6  1  0  0  0  0
  6  7  1  0  0  0  0
  6 24  1  0  0  0  0
  6 25  1  0  0  0  0
  7  8  1  0  0  0  0
  7 26  1  0  0  0  0
  7 41  1  0  0  0  0
  8  9  1  0  0  0  0
  8 10  1  0  0  0  0
  8 27  1  0  0  0  0
  9 28  1  0  0  0  0
  9 29  1  0  0  0  0
  9 30  1  0  0  0  0
 10 11  1  0  0  0  0
 10 31  1  0  0  0  0
 10 32  1  0  0  0  0
 11 15  1  0  0  0  0
 11 12  1  0  0  0  0
 12 13  2  0  0  0  0
 12 33  1  0  0  0  0
 13 14  1  0  0  0  0
 13 34  1  0  0  0  0
 14 15  2  0  0  0  0
 14 35  1  0  0  0  0
 16 18  1  0  0  0  0
 16 17  1  0  0  0  0
 16 36  1  0  0  0  0
 17 18  1  0  0  0  0
 17 37  1  0  0  0  0
 17 38  1  0  0  0  0
 18 39  1  0  0  0  0
 18 40  1  0  0  0  0
M  CHG  1   7   1
M  END
> <s_m_source_file>
AV-unprocessed.smi

> <i_m_source_file_index>
3244

> <i_lp_mmshare_version>
43012

> <i_f3d_flags>
0

> <s_epik_input>
W0NIMl0xW0NIMl1bQ0hdMU4oW0NIMl1bQ0gzXSlDKD1PKVtDSDJdW05IXVtDQEhdKFtDSDNdKVtDSDJdbjJbY0hdW2NIXVtjSF1uMg==

> <s_epik_cmdline>
J2VwaWtfcHl0aG9uJywgJy1waCcsICc3LjAnLCAnLXRuJywgJzgnLCAnLW1hJywgJzIwMCcsICctbWV0YWxfYmluZGluZycsICctaW1hZScsICc8aW5maWxlLm1hZT4nLCAnLW9tYWUnLCAnPG91dGZpbGUubWFlPic=

> <r_lp_tautomer_probability>
1

> <r_epik_Ionization_Penalty>
0.115625

> <r_epik_Ionization_Penalty_Charging>
0.115622

> <r_epik_Ionization_Penalty_Neutral>
3.43793e-06

> <r_epik_State_Penalty>
0.105255

> <r_epik_Charging_Adjusted_Penalty>
0.220877

> <i_epik_Tot_Q>
1

> <i_epik_Tot_abs_Q>
1

> <r_epik_Metal_State_Penalty>
0.105264

> <b_epik_Metal_Only>
0

> <s_lp_Force_Field>
OPLS_2005

> <r_lp_Energy>
33.3923

> <b_lp_Chiralities_Consistent>
1

> <s_lp_Variant>
AV-unprocessed.smi:3244-1

> <Gold.Version>
5.8.1

> <Gold.Id.Protein>
6NUR|6NUR_protein|mol2

> <Gold.PLP.Fitness>
39.7714

> <Gold.PLP.PLP>
-30.9292

> <Gold.PLP.part.hbond>
-1.0000

> <Gold.PLP.part.metal>
0.0000

> <Gold.PLP.part.buried>
-2.4325

> <Gold.PLP.part.nonpolar>
-27.5867

> <Gold.PLP.part.repulsive>
0.5629

> <Gold.PLP.ligand.clash>
0.0000

> <Gold.PLP.ligand.torsion>
1.7972

> <Gold.PLP.Chemscore.Hbond>
2.0000

> <Gold.PLP.Chemscore.CHOScore>
2.0000

> <Gold.PLP.Chemscore.Metal>
0.0000

> <Gold.Chemscore.Hbonds>
donor molecule, donor type, donor heavy atom, donor atom, acceptor molecule, acceptor atom, score
      L1  H     7    26       P1  7948  2.00
      L1  C    12    33       P1  7948  1.00
      L1  C    14    35       P1 10186  1.00

> <Gold.PLP.Chemscore.Internal.Correction>
0.4367

> <Gold.Rescore>
     Score         DG    S(hbond)    S(metal)    S(lipo)     H(rot)  DE(clash)    DE(int)     intcor
      8.43     -11.32       1.00        0.00      66.07       2.04       0.07       2.82       ----

> <Gold.Chemscore.Fitness>
8.4272

> <Gold.Chemscore.DG>
-11.3162

> <Gold.Chemscore.ZeroCoef>
-5.4800

> <Gold.Chemscore.Hbond>
0.9996

> <Gold.Chemscore.Metal>
0.0000

> <Gold.Chemscore.Lipo>
66.0681

> <Gold.Chemscore.Internal_Hbond>
0.0000

> <Gold.Chemscore.DEClash>
0.0699

> <Gold.Chemscore.DEInternal>
2.8192

> <Gold.Chemscore.Rot>
2.0440

> <Gold.Chemscore.Internal.Correction>
   9.000000E+99

> <Gold.Chemscore.Hbonds>
donor molecule, donor type, donor heavy atom, donor atom, acceptor molecule, acceptor atom, score
      L1  H     7    26       P1  7948  0.99

> <Gold.Chemscore.Hbond.Weighted>
-3.3388

> <Gold.Chemscore.Metal.Weighted>
-0.0000

> <Gold.Chemscore.Lipo.Weighted>
-7.7300

> <Gold.Chemscore.Internal_Hbond.Weighted>
0.0000

> <Gold.Chemscore.DEClash.Weighted>
0.0699

> <Gold.Chemscore.DEInternal.Weighted>
2.8192

> <Gold.Chemscore.Rot.Weighted>
5.2325

> <Gold.Chemscore.Internal.Correction.Weighted>
   9.000000E+99

> <Gold.Protein.RotatedTorsions>
[ 6907 6896 6895 6894 ] final -151.14 input  -60.11 | X-H torsion
[ 7974 7965 7964 7962 ] final   41.35 input  175.53 | X-H torsion
[ 8008 7997 7996 7995 ] final  163.47 input   59.86 | X-H torsion
[ 10167 10162 10161 10158 ] final -144.93 input  -65.29 | X-H torsion
[ 10718 10713 10712 10709 ] final -149.20 input   66.30 | X-H torsion
[ 10763 10752 10751 10750 ] final  126.45 input  -60.55 | X-H torsion
[ 11005 11000 10999 10996 ] final   83.12 input  -57.11 | X-H torsion

> <Gold.Protein.ActiveResidues>
 VAL166  LYS551  ARG553  GLY616  TRP617  ASP618  TYR619  PRO620  LYS621  CYS622 
 ASP623  PHE694  ASN695  SER759  ASP760  ASP761  ALA762  ILE779  LEU786  VAL792 
 PHE793  MET794  SER795  GLU796  ALA797  LYS798  CYS799  TRP800  GLU811  SER814 

> <Gold.Protein.RotatedAtoms>
  151.2088  133.4568  159.2597 H   0  0  0  0  0  0  0  0  0  0  0  0  # atno 6907 bound_to 6896
  151.0997  134.9965  159.8453 H   0  0  0  0  0  0  0  0  0  0  0  0  # atno 6908 bound_to 6896
  152.5442  134.2015  159.8767 H   0  0  0  0  0  0  0  0  0  0  0  0  # atno 6909 bound_to 6896
  146.0830  139.5426  142.9524 H   0  0  0  0  0  0  0  0  0  0  0  0  # atno 7974 bound_to 7965
  156.1954  140.1722  156.8008 H   0  0  0  0  0  0  0  0  0  0  0  0  # atno 8008 bound_to 7997
  154.5523  140.0715  156.8719 H   0  0  0  0  0  0  0  0  0  0  0  0  # atno 8009 bound_to 7997
  155.3005  140.3361  155.4250 H   0  0  0  0  0  0  0  0  0  0  0  0  # atno 8010 bound_to 7997
  139.7853  143.8043  152.2644 H   0  0  0  0  0  0  0  0  0  0  0  0  # atno 10167 bound_to 10162
  156.4300  130.8071  151.2297 H   0  0  0  0  0  0  0  0  0  0  0  0  # atno 10718 bound_to 10713
  153.6936  135.3295  155.3208 H   0  0  0  0  0  0  0  0  0  0  0  0  # atno 10763 bound_to 10752
  154.8433  135.4437  154.1483 H   0  0  0  0  0  0  0  0  0  0  0  0  # atno 10764 bound_to 10752
  153.2531  135.6983  153.7735 H   0  0  0  0  0  0  0  0  0  0  0  0  # atno 10765 bound_to 10752
  139.9041  134.8122  156.2267 H   0  0  0  0  0  0  0  0  0  0  0  0  # atno 11005 bound_to 11000
  145.6182  141.0327  143.1929 LP  0  0  0  0  0  0  0  0  0  0  0  0  # atno 17320 bound_to 7965
  144.7306  139.7737  143.7348 LP  0  0  0  0  0  0  0  0  0  0  0  0  # atno 17321 bound_to 7965
  139.8118  144.7333  150.9688 LP  0  0  0  0  0  0  0  0  0  0  0  0  # atno 17342 bound_to 10162
  140.7819  143.4244  151.0791 LP  0  0  0  0  0  0  0  0  0  0  0  0  # atno 17343 bound_to 10162
  157.7508  131.0201  150.3695 LP  0  0  0  0  0  0  0  0  0  0  0  0  # atno 17370 bound_to 10713
  156.4030  130.3919  149.6946 LP  0  0  0  0  0  0  0  0  0  0  0  0  # atno 17371 bound_to 10713
  141.0371  133.6957  156.1532 LP  0  0  0  0  0  0  0  0  0  0  0  0  # atno 17394 bound_to 11000
  140.7010  134.4564  157.5586 LP  0  0  0  0  0  0  0  0  0  0  0  0  # atno 17395 bound_to 11000

$$$$
