AV-unprocessed.smi:720|AV-procd|sdf|3500|dock7
  -GOLD-   22720 0493D 1   1.00000     0.00000
 Structure written by MMmdl.
 46 48  0  0  0  0  0  0  0  0  1 V2000
  152.0949  144.1940  158.0073 C   0  0  0  0  0  0  0  0  0  0  0  0
  151.4245  143.0430  158.6015 N   0  0  0  0  0  0  0  0  0  0  0  0
  152.4471  142.0894  159.0121 C   0  0  0  0  0  0  0  0  0  0  0  0
  150.5181  142.3880  157.6562 C   0  0  0  0  0  0  0  0  0  0  0  0
  151.2434  141.5583  156.5750 C   0  0  0  0  0  0  0  0  0  0  0  0
  150.3412  140.8364  155.6946 N   0  0  0  0  0  0  0  0  0  0  0  0
  149.3229  141.3400  154.9096 C   0  0  0  0  0  0  0  0  0  0  0  0
  148.7599  140.2907  154.2413 C   0  0  0  0  0  0  0  0  0  0  0  0
  149.5252  139.1722  154.6877 C   0  0  0  0  0  0  0  0  0  0  0  0
  149.3449  137.8240  154.2877 N   0  0  0  0  0  0  0  0  0  0  0  0
  149.3665  136.7121  155.0481 C   0  0  0  0  0  0  0  0  0  0  0  0
  149.5199  136.6985  156.2677 O   0  0  0  0  0  0  0  0  0  0  0  0
  149.2137  135.5699  154.3540 N   0  0  0  0  0  0  0  0  0  0  0  0
  149.1903  134.1991  154.8699 C   0  0  1  0  0  0  0  0  0  0  0  0
  147.7641  133.6918  155.1923 C   0  0  0  0  0  0  0  0  0  0  0  0
  147.6443  132.4288  154.3200 C   0  0  2  0  0  0  0  0  0  0  0  0
  148.5826  131.3342  154.8648 C   0  0  0  0  0  0  0  0  0  0  0  0
  149.9798  131.8535  154.4717 C   0  0  0  0  0  0  0  0  0  0  0  0
  149.6584  133.1971  153.7917 C   0  0  1  0  0  0  0  0  0  0  0  0
  148.3663  132.8625  153.0520 C   0  0  0  0  0  0  0  0  0  0  0  0
  150.4819  139.5019  155.5377 N   0  0  0  0  0  0  0  0  0  0  0  0
  151.3891  144.9901  157.7793 H   0  0  0  0  0  0  0  0  0  0  0  0
  152.6176  143.9218  157.0893 H   0  0  0  0  0  0  0  0  0  0  0  0
  152.8247  144.6113  158.7021 H   0  0  0  0  0  0  0  0  0  0  0  0
  151.9955  141.2236  159.4977 H   0  0  0  0  0  0  0  0  0  0  0  0
  153.1322  142.5446  159.7283 H   0  0  0  0  0  0  0  0  0  0  0  0
  153.0285  141.7381  158.1584 H   0  0  0  0  0  0  0  0  0  0  0  0
  149.7673  141.7951  158.1809 H   0  0  0  0  0  0  0  0  0  0  0  0
  149.9696  143.1716  157.1319 H   0  0  0  0  0  0  0  0  0  0  0  0
  151.8292  142.2297  155.9464 H   0  0  0  0  0  0  0  0  0  0  0  0
  151.9553  140.8667  157.0293 H   0  0  0  0  0  0  0  0  0  0  0  0
  149.0835  142.3929  154.8949 H   0  0  0  0  0  0  0  0  0  0  0  0
  147.9354  140.3344  153.5458 H   0  0  0  0  0  0  0  0  0  0  0  0
  149.2310  137.6808  153.2951 H   0  0  0  0  0  0  0  0  0  0  0  0
  149.1136  135.6625  153.3535 H   0  0  0  0  0  0  0  0  0  0  0  0
  149.8406  134.1373  155.7446 H   0  0  0  0  0  0  0  0  0  0  0  0
  147.6325  133.4755  156.2532 H   0  0  0  0  0  0  0  0  0  0  0  0
  147.0035  134.4206  154.9075 H   0  0  0  0  0  0  0  0  0  0  0  0
  146.6169  132.0939  154.1746 H   0  0  0  0  0  0  0  0  0  0  0  0
  148.4766  131.2008  155.9420 H   0  0  0  0  0  0  0  0  0  0  0  0
  148.3822  130.3744  154.3869 H   0  0  0  0  0  0  0  0  0  0  0  0
  150.6423  131.9653  155.3308 H   0  0  0  0  0  0  0  0  0  0  0  0
  150.4580  131.1698  153.7691 H   0  0  0  0  0  0  0  0  0  0  0  0
  150.4693  133.5656  153.1621 H   0  0  0  0  0  0  0  0  0  0  0  0
  148.4804  132.0591  152.3222 H   0  0  0  0  0  0  0  0  0  0  0  0
  147.9071  133.7252  152.5658 H   0  0  0  0  0  0  0  0  0  0  0  0
  1  2  1  0  0  0  0
  1 22  1  0  0  0  0
  1 23  1  0  0  0  0
  1 24  1  0  0  0  0
  2  3  1  0  0  0  0
  2  4  1  0  0  0  0
  3 25  1  0  0  0  0
  3 26  1  0  0  0  0
  3 27  1  0  0  0  0
  4  5  1  0  0  0  0
  4 28  1  0  0  0  0
  4 29  1  0  0  0  0
  5  6  1  0  0  0  0
  5 30  1  0  0  0  0
  5 31  1  0  0  0  0
  6 21  1  0  0  0  0
  6  7  1  0  0  0  0
  7  8  2  0  0  0  0
  7 32  1  0  0  0  0
  8  9  1  0  0  0  0
  8 33  1  0  0  0  0
  9 10  1  0  0  0  0
  9 21  2  0  0  0  0
 10 11  1  0  0  0  0
 10 34  1  0  0  0  0
 11 12  2  0  0  0  0
 11 13  1  0  0  0  0
 13 14  1  0  0  0  0
 13 35  1  0  0  0  0
 14 19  1  0  0  0  0
 14 15  1  0  0  0  0
 14 36  1  0  0  0  0
 15 16  1  0  0  0  0
 15 37  1  0  0  0  0
 15 38  1  0  0  0  0
 16 20  1  0  0  0  0
 16 17  1  0  0  0  0
 16 39  1  0  0  0  0
 17 18  1  0  0  0  0
 17 40  1  0  0  0  0
 17 41  1  0  0  0  0
 18 19  1  0  0  0  0
 18 42  1  0  0  0  0
 18 43  1  0  0  0  0
 19 20  1  0  0  0  0
 19 44  1  0  0  0  0
 20 45  1  0  0  0  0
 20 46  1  0  0  0  0
M  END
> <s_m_source_file>
AV-unprocessed.smi

> <i_m_source_file_index>
720

> <i_lp_mmshare_version>
43012

> <i_f3d_flags>
0

> <s_epik_input>
W0NIM11OKFtDSDNdKVtDSDJdW0NIMl1uMVtjSF1bY0hdYyhuMSlbTkhdQyg9TylbTkhdW0NASF0oW0NIMl1bQ0BIXTIzKVtDQEhdKFtDSDJdMylbQ0gyXVtDSDJdMg==

> <s_epik_cmdline>
J2VwaWtfcHl0aG9uJywgJy1waCcsICc3LjAnLCAnLXRuJywgJzgnLCAnLW1hJywgJzIwMCcsICctbWV0YWxfYmluZGluZycsICctaW1hZScsICc8aW5maWxlLm1hZT4nLCAnLW9tYWUnLCAnPG91dGZpbGUubWFlPic=

> <r_lp_tautomer_probability>
1

> <r_epik_Ionization_Penalty>
1.83819

> <r_epik_Ionization_Penalty_Charging>
0

> <r_epik_Ionization_Penalty_Neutral>
1.83819

> <r_epik_State_Penalty>
1.95467

> <r_epik_Charging_Adjusted_Penalty>
1.95467

> <i_epik_Tot_Q>
0

> <i_epik_Tot_abs_Q>
0

> <r_epik_Metal_State_Penalty>
1.95467

> <b_epik_Metal_Only>
0

> <s_lp_Force_Field>
OPLS_2005

> <r_lp_Energy>
64.3951

> <b_lp_Chiralities_Consistent>
1

> <s_lp_Variant>
AV-unprocessed.smi:720-6

> <Gold.Version>
5.8.1

> <Gold.Id.Protein>
6NUR|6NUR_protein|mol2

> <Gold.PLP.Fitness>
43.8154

> <Gold.PLP.PLP>
-36.8327

> <Gold.PLP.part.hbond>
-2.0000

> <Gold.PLP.part.metal>
0.0000

> <Gold.PLP.part.buried>
-3.5071

> <Gold.PLP.part.nonpolar>
-31.7106

> <Gold.PLP.part.repulsive>
0.1211

> <Gold.PLP.ligand.clash>
0.0000

> <Gold.PLP.ligand.torsion>
0.8479

> <Gold.PLP.Chemscore.Hbond>
1.8723

> <Gold.PLP.Chemscore.CHOScore>
1.0000

> <Gold.PLP.Chemscore.Metal>
0.0000

> <Gold.Chemscore.Hbonds>
donor molecule, donor type, donor heavy atom, donor atom, acceptor molecule, acceptor atom, score
      L1  H    10    34       P1  7948  0.88
      L1  H    13    35       P1  7948  1.00
      L1  C     7    32       P1  8028  1.00

> <Gold.PLP.Chemscore.Internal.Correction>
0.0617

> <Gold.Rescore>
     Score         DG    S(hbond)    S(metal)    S(lipo)     H(rot)  DE(clash)    DE(int)     intcor
     15.30     -17.03       1.74        0.00      82.47       1.53       0.02       1.70       ----

> <Gold.Chemscore.Fitness>
15.3003

> <Gold.Chemscore.DG>
-17.0279

> <Gold.Chemscore.ZeroCoef>
-5.4800

> <Gold.Chemscore.Hbond>
1.7421

> <Gold.Chemscore.Metal>
0.0000

> <Gold.Chemscore.Lipo>
82.4709

> <Gold.Chemscore.Internal_Hbond>
0.0000

> <Gold.Chemscore.DEClash>
0.0232

> <Gold.Chemscore.DEInternal>
1.7043

> <Gold.Chemscore.Rot>
1.5312

> <Gold.Chemscore.Internal.Correction>
   9.000000E+99

> <Gold.Chemscore.Hbonds>
donor molecule, donor type, donor heavy atom, donor atom, acceptor molecule, acceptor atom, score
      L1  H    10    34       P1  7948  0.80
      L1  H    13    35       P1  7948  0.64

> <Gold.Chemscore.Hbond.Weighted>
-5.8186

> <Gold.Chemscore.Metal.Weighted>
-0.0000

> <Gold.Chemscore.Lipo.Weighted>
-9.6491

> <Gold.Chemscore.Internal_Hbond.Weighted>
0.0000

> <Gold.Chemscore.DEClash.Weighted>
0.0232

> <Gold.Chemscore.DEInternal.Weighted>
1.7043

> <Gold.Chemscore.Rot.Weighted>
3.9199

> <Gold.Chemscore.Internal.Correction.Weighted>
   9.000000E+99

> <Gold.Protein.RotatedTorsions>
[ 6907 6896 6895 6894 ] final -176.00 input  -60.11 | X-H torsion
[ 7974 7965 7964 7962 ] final -108.73 input  175.53 | X-H torsion
[ 8008 7997 7996 7995 ] final   -5.25 input   59.86 | X-H torsion
[ 10167 10162 10161 10158 ] final  -80.50 input  -65.29 | X-H torsion
[ 10718 10713 10712 10709 ] final  -39.10 input   66.30 | X-H torsion
[ 10763 10752 10751 10750 ] final  120.66 input  -60.55 | X-H torsion
[ 11005 11000 10999 10996 ] final  -86.25 input  -57.11 | X-H torsion

> <Gold.Protein.ActiveResidues>
 VAL166  LYS551  ARG553  GLY616  TRP617  ASP618  TYR619  PRO620  LYS621  CYS622 
 ASP623  PHE694  ASN695  SER759  ASP760  ASP761  ALA762  ILE779  LEU786  VAL792 
 PHE793  MET794  SER795  GLU796  ALA797  LYS798  CYS799  TRP800  GLU811  SER814 

> <Gold.Protein.RotatedAtoms>
  151.5976  133.3360  159.3040 H   0  0  0  0  0  0  0  0  0  0  0  0  # atno 6907 bound_to 6896
  150.8225  134.7444  159.6796 H   0  0  0  0  0  0  0  0  0  0  0  0  # atno 6908 bound_to 6896
  152.4318  134.5769  159.9988 H   0  0  0  0  0  0  0  0  0  0  0  0  # atno 6909 bound_to 6896
  145.1892  140.9007  143.3434 H   0  0  0  0  0  0  0  0  0  0  0  0  # atno 7974 bound_to 7965
  154.6058  140.2463  155.7733 H   0  0  0  0  0  0  0  0  0  0  0  0  # atno 8008 bound_to 7997
  156.2340  140.2957  156.0214 H   0  0  0  0  0  0  0  0  0  0  0  0  # atno 8009 bound_to 7997
  155.2134  140.0398  157.2927 H   0  0  0  0  0  0  0  0  0  0  0  0  # atno 8010 bound_to 7997
  140.4498  143.2487  151.8506 H   0  0  0  0  0  0  0  0  0  0  0  0  # atno 10167 bound_to 10162
  156.2963  130.4234  149.8188 H   0  0  0  0  0  0  0  0  0  0  0  0  # atno 10718 bound_to 10713
  153.6020  135.3446  155.2948 H   0  0  0  0  0  0  0  0  0  0  0  0  # atno 10763 bound_to 10752
  154.8634  135.4229  154.2403 H   0  0  0  0  0  0  0  0  0  0  0  0  # atno 10764 bound_to 10752
  153.3233  135.7039  153.7082 H   0  0  0  0  0  0  0  0  0  0  0  0  # atno 10765 bound_to 10752
  141.1632  133.7444  156.9134 H   0  0  0  0  0  0  0  0  0  0  0  0  # atno 11005 bound_to 11000
  145.0058  139.3555  143.6144 LP  0  0  0  0  0  0  0  0  0  0  0  0  # atno 17320 bound_to 7965
  146.3439  139.9300  142.8755 LP  0  0  0  0  0  0  0  0  0  0  0  0  # atno 17321 bound_to 7965
  139.4795  144.5133  151.8902 LP  0  0  0  0  0  0  0  0  0  0  0  0  # atno 17342 bound_to 10162
  140.4221  144.2229  150.5887 LP  0  0  0  0  0  0  0  0  0  0  0  0  # atno 17343 bound_to 10162
  156.5582  130.8372  151.3321 LP  0  0  0  0  0  0  0  0  0  0  0  0  # atno 17370 bound_to 10713
  157.7356  130.9765  150.2091 LP  0  0  0  0  0  0  0  0  0  0  0  0  # atno 17371 bound_to 10713
  140.1501  134.9236  157.2581 LP  0  0  0  0  0  0  0  0  0  0  0  0  # atno 17394 bound_to 11000
  140.2733  134.3435  155.7366 LP  0  0  0  0  0  0  0  0  0  0  0  0  # atno 17395 bound_to 11000

$$$$
