AV-unprocessed.smi:1616|AV-procd|sdf|6483|dock2
  -GOLD-   22720 7143D 1   1.00000     0.00000
 Structure written by MMmdl.
 38 39  0  0  0  0  0  0  0  0  1 V2000
  146.6672  138.6676  155.3187 C   0  0  0  0  0  0  0  0  0  0  0  0
  148.0591  138.1005  155.2426 C   0  0  0  0  0  0  0  0  0  0  0  0
  148.1640  136.8127  155.2732 N   0  0  0  0  0  0  0  0  0  0  0  0
  149.3957  136.1895  155.2160 N   0  0  0  0  0  0  0  0  0  0  0  0
  149.3299  134.7222  155.2838 C   0  0  0  0  0  0  0  0  0  0  0  0
  147.9332  134.1627  154.9763 C   0  0  0  0  0  0  0  0  0  0  0  0
  147.2956  133.5528  155.8358 O   0  0  0  0  0  0  0  0  0  0  0  0
  147.4638  134.4014  153.7419 N   0  0  0  0  0  0  0  0  0  0  0  0
  146.1698  133.9659  153.2256 C   0  0  1  0  0  0  0  0  0  0  0  0
  145.3336  135.1897  152.8191 C   0  0  0  0  0  0  0  0  0  0  0  0
  146.3059  132.9950  152.0680 C   0  0  0  0  0  0  0  0  0  0  0  0
  145.0977  132.5441  151.2822 C   0  0  0  0  0  0  0  0  0  0  0  0
  145.8214  131.5699  152.1849 C   0  0  0  0  0  0  0  0  0  0  0  0
  150.5910  136.8397  155.1156 C   0  0  0  0  0  0  0  0  0  0  0  0
  151.6673  136.2425  155.0628 O   0  0  0  0  0  0  0  0  0  0  0  0
  150.4643  138.2983  155.0793 C   0  0  0  0  0  0  0  0  0  0  0  0
  151.6931  139.0178  154.9797 C   0  0  0  0  0  0  0  0  0  0  0  0
  152.6967  139.5871  154.8859 N   0  0  0  0  0  0  0  0  0  0  0  0
  149.2609  138.9217  155.1380 C   0  0  0  0  0  0  0  0  0  0  0  0
  149.0755  140.4327  155.1054 C   0  0  0  0  0  0  0  0  0  0  0  0
  146.4282  139.2285  154.4151 H   0  0  0  0  0  0  0  0  0  0  0  0
  146.5693  139.3401  156.1711 H   0  0  0  0  0  0  0  0  0  0  0  0
  145.9148  137.8853  155.4297 H   0  0  0  0  0  0  0  0  0  0  0  0
  150.0325  134.2797  154.5756 H   0  0  0  0  0  0  0  0  0  0  0  0
  149.6542  134.3804  156.2687 H   0  0  0  0  0  0  0  0  0  0  0  0
  148.0549  134.9151  153.1047 H   0  0  0  0  0  0  0  0  0  0  0  0
  145.6358  133.4441  154.0221 H   0  0  0  0  0  0  0  0  0  0  0  0
  144.3493  134.8891  152.4589 H   0  0  0  0  0  0  0  0  0  0  0  0
  145.8197  135.7560  152.0238 H   0  0  0  0  0  0  0  0  0  0  0  0
  145.1801  135.8640  153.6623 H   0  0  0  0  0  0  0  0  0  0  0  0
  147.2141  133.1392  151.4853 H   0  0  0  0  0  0  0  0  0  0  0  0
  144.1205  132.8966  151.6061 H   0  0  0  0  0  0  0  0  0  0  0  0
  145.2155  132.4174  150.2081 H   0  0  0  0  0  0  0  0  0  0  0  0
  146.4221  130.7954  151.7125 H   0  0  0  0  0  0  0  0  0  0  0  0
  145.3250  131.2765  153.1081 H   0  0  0  0  0  0  0  0  0  0  0  0
  150.0176  140.9612  154.9629 H   0  0  0  0  0  0  0  0  0  0  0  0
  148.6397  140.7829  156.0414 H   0  0  0  0  0  0  0  0  0  0  0  0
  148.4142  140.7222  154.2881 H   0  0  0  0  0  0  0  0  0  0  0  0
  1  2  1  0  0  0  0
  1 21  1  0  0  0  0
  1 22  1  0  0  0  0
  1 23  1  0  0  0  0
  2 19  1  0  0  0  0
  2  3  2  0  0  0  0
  3  4  1  0  0  0  0
  4  5  1  0  0  0  0
  4 14  1  0  0  0  0
  5  6  1  0  0  0  0
  5 24  1  0  0  0  0
  5 25  1  0  0  0  0
  6  7  2  0  0  0  0
  6  8  1  0  0  0  0
  8  9  1  0  0  0  0
  8 26  1  0  0  0  0
  9 10  1  0  0  0  0
  9 11  1  0  0  0  0
  9 27  1  0  0  0  0
 10 28  1  0  0  0  0
 10 29  1  0  0  0  0
 10 30  1  0  0  0  0
 11 13  1  0  0  0  0
 11 12  1  0  0  0  0
 11 31  1  0  0  0  0
 12 13  1  0  0  0  0
 12 32  1  0  0  0  0
 12 33  1  0  0  0  0
 13 34  1  0  0  0  0
 13 35  1  0  0  0  0
 14 15  2  0  0  0  0
 14 16  1  0  0  0  0
 16 17  1  0  0  0  0
 16 19  2  0  0  0  0
 17 18  3  0  0  0  0
 19 20  1  0  0  0  0
 20 36  1  0  0  0  0
 20 37  1  0  0  0  0
 20 38  1  0  0  0  0
M  END
> <s_m_source_file>
AV-unprocessed.smi

> <i_m_source_file_index>
1616

> <i_lp_mmshare_version>
43012

> <i_f3d_flags>
0

> <s_epik_input>
TiNDYyhjMVtDSDNdKWMoPU8pbihuYzFbQ0gzXSlbQ0gyXUMoPU8pW05IXVtDQEhdKFtDSDNdKVtDSF0yW0NIMl1bQ0gyXTI=

> <s_epik_cmdline>
J2VwaWtfcHl0aG9uJywgJy1waCcsICc3LjAnLCAnLXRuJywgJzgnLCAnLW1hJywgJzIwMCcsICctbWV0YWxfYmluZGluZycsICctaW1hZScsICc8aW5maWxlLm1hZT4nLCAnLW9tYWUnLCAnPG91dGZpbGUubWFlPic=

> <r_lp_tautomer_probability>
1

> <r_epik_Ionization_Penalty>
1.93246e-08

> <r_epik_Ionization_Penalty_Charging>
2.27031e-11

> <r_epik_Ionization_Penalty_Neutral>
1.93019e-08

> <r_epik_State_Penalty>
-0

> <r_epik_Charging_Adjusted_Penalty>
2.27031e-11

> <i_epik_Tot_Q>
0

> <i_epik_Tot_abs_Q>
0

> <r_epik_Metal_State_Penalty>
-0

> <b_epik_Metal_Only>
0

> <s_lp_Force_Field>
OPLS_2005

> <r_lp_Energy>
27.6916

> <b_lp_Chiralities_Consistent>
1

> <s_lp_Variant>
AV-unprocessed.smi:1616-2

> <Gold.Version>
5.8.1

> <Gold.Id.Protein>
6NUR|6NUR_protein|mol2

> <Gold.PLP.Fitness>
38.7599

> <Gold.PLP.PLP>
-30.7560

> <Gold.PLP.part.hbond>
-4.0000

> <Gold.PLP.part.metal>
0.0000

> <Gold.PLP.part.buried>
-3.3822

> <Gold.PLP.part.nonpolar>
-24.5494

> <Gold.PLP.part.repulsive>
0.6691

> <Gold.PLP.ligand.clash>
0.0000

> <Gold.PLP.ligand.torsion>
1.0363

> <Gold.PLP.Chemscore.Hbond>
3.0000

> <Gold.PLP.Chemscore.CHOScore>
0.0000

> <Gold.PLP.Chemscore.Metal>
0.0000

> <Gold.Chemscore.Hbonds>
donor molecule, donor type, donor heavy atom, donor atom, acceptor molecule, acceptor atom, score
      L1  H     8    26       P1  7948  1.00
      P1  H  7989  7998       L1    18  0.14
      P1  H  7997  8008       L1    18  0.80
      P1  H 10752 10764       L1    15  0.94

> <Gold.PLP.Chemscore.Internal.Correction>
1.0765

> <Gold.Rescore>
     Score         DG    S(hbond)    S(metal)    S(lipo)     H(rot)  DE(clash)    DE(int)     intcor
     16.51     -17.77       2.95        0.00      57.52       1.68       0.07       1.19       ----

> <Gold.Chemscore.Fitness>
16.5141

> <Gold.Chemscore.DG>
-17.7706

> <Gold.Chemscore.ZeroCoef>
-5.4800

> <Gold.Chemscore.Hbond>
2.9531

> <Gold.Chemscore.Metal>
0.0000

> <Gold.Chemscore.Lipo>
57.5239

> <Gold.Chemscore.Internal_Hbond>
0.0000

> <Gold.Chemscore.DEClash>
0.0650

> <Gold.Chemscore.DEInternal>
1.1914

> <Gold.Chemscore.Rot>
1.6809

> <Gold.Chemscore.Internal.Correction>
   9.000000E+99

> <Gold.Chemscore.Hbonds>
donor molecule, donor type, donor heavy atom, donor atom, acceptor molecule, acceptor atom, score
      L1  H     8    26       P1  7948  0.91
      P1  H  7997  8008       L1    18  0.79
      P1  H 10752 10764       L1    15  0.90

> <Gold.Chemscore.Hbond.Weighted>
-9.8633

> <Gold.Chemscore.Metal.Weighted>
-0.0000

> <Gold.Chemscore.Lipo.Weighted>
-6.7303

> <Gold.Chemscore.Internal_Hbond.Weighted>
0.0000

> <Gold.Chemscore.DEClash.Weighted>
0.0650

> <Gold.Chemscore.DEInternal.Weighted>
1.1914

> <Gold.Chemscore.Rot.Weighted>
4.3030

> <Gold.Chemscore.Internal.Correction.Weighted>
   9.000000E+99

> <Gold.Protein.RotatedTorsions>
[ 6907 6896 6895 6894 ] final  -94.94 input  -60.11 | X-H torsion
[ 7974 7965 7964 7962 ] final  169.47 input  175.53 | X-H torsion
[ 8008 7997 7996 7995 ] final  -19.02 input   59.86 | X-H torsion
[ 10167 10162 10161 10158 ] final   20.59 input  -65.29 | X-H torsion
[ 10718 10713 10712 10709 ] final   70.72 input   66.30 | X-H torsion
[ 10763 10752 10751 10750 ] final  -63.96 input  -60.55 | X-H torsion
[ 11005 11000 10999 10996 ] final -125.30 input  -57.11 | X-H torsion

> <Gold.Protein.ActiveResidues>
 VAL166  LYS551  ARG553  GLY616  TRP617  ASP618  TYR619  PRO620  LYS621  CYS622 
 ASP623  PHE694  ASN695  SER759  ASP760  ASP761  ALA762  ILE779  LEU786  VAL792 
 PHE793  MET794  SER795  GLU796  ALA797  LYS798  CYS799  TRP800  GLU811  SER814 

> <Gold.Protein.RotatedAtoms>
  150.6953  134.1734  159.4220 H   0  0  0  0  0  0  0  0  0  0  0  0  # atno 6907 bound_to 6896
  151.9711  135.0074  160.0562 H   0  0  0  0  0  0  0  0  0  0  0  0  # atno 6908 bound_to 6896
  152.1841  133.4692  159.5010 H   0  0  0  0  0  0  0  0  0  0  0  0  # atno 6909 bound_to 6896
  144.7354  139.9059  143.6412 H   0  0  0  0  0  0  0  0  0  0  0  0  # atno 7974 bound_to 7965
  154.4865  140.2100  155.9644 H   0  0  0  0  0  0  0  0  0  0  0  0  # atno 8008 bound_to 7997
  156.1244  140.3208  155.8224 H   0  0  0  0  0  0  0  0  0  0  0  0  # atno 8009 bound_to 7997
  155.4411  140.0510  157.3001 H   0  0  0  0  0  0  0  0  0  0  0  0  # atno 8010 bound_to 7997
  140.5492  143.9540  150.6567 H   0  0  0  0  0  0  0  0  0  0  0  0  # atno 10167 bound_to 10162
  157.6415  130.9492  150.0690 H   0  0  0  0  0  0  0  0  0  0  0  0  # atno 10718 bound_to 10713
  154.3228  135.6192  153.5516 H   0  0  0  0  0  0  0  0  0  0  0  0  # atno 10763 bound_to 10752
  152.9818  135.5728  154.5050 H   0  0  0  0  0  0  0  0  0  0  0  0  # atno 10764 bound_to 10752
  154.4721  135.2860  155.1611 H   0  0  0  0  0  0  0  0  0  0  0  0  # atno 10765 bound_to 10752
  140.9773  134.0722  157.3804 H   0  0  0  0  0  0  0  0  0  0  0  0  # atno 11005 bound_to 11000
  146.1037  139.4035  143.0331 LP  0  0  0  0  0  0  0  0  0  0  0  0  # atno 17320 bound_to 7965
  145.7542  140.9960  143.1234 LP  0  0  0  0  0  0  0  0  0  0  0  0  # atno 17321 bound_to 7965
  140.2961  143.3291  152.1016 LP  0  0  0  0  0  0  0  0  0  0  0  0  # atno 17342 bound_to 10162
  139.5020  144.6725  151.6207 LP  0  0  0  0  0  0  0  0  0  0  0  0  # atno 17343 bound_to 10162
  156.1700  130.3646  149.9178 LP  0  0  0  0  0  0  0  0  0  0  0  0  # atno 17370 bound_to 10713
  156.7156  130.8987  151.3613 LP  0  0  0  0  0  0  0  0  0  0  0  0  # atno 17371 bound_to 10713
  139.8936  135.0131  156.6906 LP  0  0  0  0  0  0  0  0  0  0  0  0  # atno 17394 bound_to 11000
  140.7239  133.9117  155.8165 LP  0  0  0  0  0  0  0  0  0  0  0  0  # atno 17395 bound_to 11000

$$$$
