AV-unprocessed.smi:1802|AV-procd|sdf|7276|dock10
  -GOLD-   22720 8533D 1   1.00000     0.00000
 Structure written by MMmdl.
 40 41  0  0  0  0  0  0  0  0  3 V2000
  145.4369  131.4551  152.2508 C   0  0  0  0  0  0  0  0  0  0  0  0
  146.2958  132.3973  151.3888 C   0  0  1  0  0  0  0  0  0  0  0  0
  145.5151  133.0083  150.2105 C   0  0  0  0  0  0  0  0  0  0  0  0
  144.5422  134.0944  150.6904 C   0  0  0  0  0  0  0  0  0  0  0  0
  145.2680  135.1496  151.5405 C   0  0  0  0  0  0  0  0  0  0  0  0
  145.9757  134.5220  152.6860 N   0  3  2  0  0  0  0  0  0  0  0  0
  146.5572  135.5306  153.6073 C   0  0  0  0  0  0  0  0  0  0  0  0
  147.0759  134.9016  154.9104 C   0  0  0  0  0  0  0  0  0  0  0  0
  148.4521  134.2401  154.7316 C   0  0  0  0  0  0  0  0  0  0  0  0
  149.4827  135.2260  154.4261 N   0  0  0  0  0  0  0  0  0  0  0  0
  150.5725  135.4730  155.1675 C   0  0  0  0  0  0  0  0  0  0  0  0
  150.7708  134.8305  156.2016 O   0  0  0  0  0  0  0  0  0  0  0  0
  151.3598  136.4528  154.6699 N   0  5  0  0  0  0  0  0  0  0  0  0
  150.9386  137.7282  154.6961 C   0  0  0  0  0  0  0  0  0  0  0  0
  151.7896  138.7668  154.6923 N   0  0  0  0  0  0  0  0  0  0  0  0
  151.1485  139.9979  154.7234 N   0  0  0  0  0  0  0  0  0  0  0  0
  149.8234  139.8554  154.7402 C   0  0  0  0  0  0  0  0  0  0  0  0
  149.2385  138.2052  154.7161 S   0  0  0  0  0  0  0  0  0  0  0  0
  146.9631  133.5063  152.2280 C   0  0  0  0  0  0  0  0  0  0  0  0
  144.6171  131.9819  152.7392 H   0  0  0  0  0  0  0  0  0  0  0  0
  146.0359  130.9862  153.0320 H   0  0  0  0  0  0  0  0  0  0  0  0
  145.0055  130.6564  151.6471 H   0  0  0  0  0  0  0  0  0  0  0  0
  147.0927  131.7840  150.9661 H   0  0  0  0  0  0  0  0  0  0  0  0
  146.2197  133.4496  149.5041 H   0  0  0  0  0  0  0  0  0  0  0  0
  144.9783  132.2335  149.6617 H   0  0  0  0  0  0  0  0  0  0  0  0
  144.0685  134.5716  149.8318 H   0  0  0  0  0  0  0  0  0  0  0  0
  143.7363  133.6441  151.2708 H   0  0  0  0  0  0  0  0  0  0  0  0
  145.9825  135.7021  150.9284 H   0  0  0  0  0  0  0  0  0  0  0  0
  144.5378  135.8725  151.9065 H   0  0  0  0  0  0  0  0  0  0  0  0
  147.3492  136.0843  153.1007 H   0  0  0  0  0  0  0  0  0  0  0  0
  145.7905  136.2605  153.8710 H   0  0  0  0  0  0  0  0  0  0  0  0
  147.1408  135.6673  155.6846 H   0  0  0  0  0  0  0  0  0  0  0  0
  146.3691  134.1566  155.2741 H   0  0  0  0  0  0  0  0  0  0  0  0
  148.7284  133.6779  155.6251 H   0  0  0  0  0  0  0  0  0  0  0  0
  148.4179  133.5224  153.9116 H   0  0  0  0  0  0  0  0  0  0  0  0
  149.3622  135.7705  153.5843 H   0  0  0  0  0  0  0  0  0  0  0  0
  149.1865  140.7269  154.7639 H   0  0  0  0  0  0  0  0  0  0  0  0
  147.4735  133.0520  153.0764 H   0  0  0  0  0  0  0  0  0  0  0  0
  147.7340  134.0027  151.6362 H   0  0  0  0  0  0  0  0  0  0  0  0
  145.2710  134.0288  153.2154 H   0  0  0  0  0  0  0  0  0  0  0  0
  1  2  1  0  0  0  0
  1 20  1  0  0  0  0
  1 21  1  0  0  0  0
  1 22  1  0  0  0  0
  2 19  1  0  0  0  0
  2  3  1  0  0  0  0
  2 23  1  0  0  0  0
  3  4  1  0  0  0  0
  3 24  1  0  0  0  0
  3 25  1  0  0  0  0
  4  5  1  0  0  0  0
  4 26  1  0  0  0  0
  4 27  1  0  0  0  0
  5  6  1  0  0  0  0
  5 28  1  0  0  0  0
  5 29  1  0  0  0  0
  6  7  1  0  0  0  0
  6 19  1  0  0  0  0
  6 40  1  0  0  0  0
  7  8  1  0  0  0  0
  7 30  1  0  0  0  0
  7 31  1  0  0  0  0
  8  9  1  0  0  0  0
  8 32  1  0  0  0  0
  8 33  1  0  0  0  0
  9 10  1  0  0  0  0
  9 34  1  0  0  0  0
  9 35  1  0  0  0  0
 10 11  1  0  0  0  0
 10 36  1  0  0  0  0
 11 12  2  0  0  0  0
 11 13  1  0  0  0  0
 13 14  1  0  0  0  0
 14 18  1  0  0  0  0
 14 15  2  0  0  0  0
 15 16  1  0  0  0  0
 16 17  2  0  0  0  0
 17 18  1  0  0  0  0
 17 37  1  0  0  0  0
 19 38  1  0  0  0  0
 19 39  1  0  0  0  0
M  CHG  1   6   1
M  CHG  1  13  -1
M  END
> <s_m_source_file>
AV-unprocessed.smi

> <i_m_source_file_index>
1802

> <i_lp_mmshare_version>
43012

> <i_f3d_flags>
0

> <s_epik_input>
W0NIM11bQ0BASF0xW0NIMl1bQ0gyXVtDSDJdTihbQ0gyXTEpW0NIMl1bQ0gyXVtDSDJdW05IXUMoPU8pW05IXWMybm5bY0hdczI=

> <s_epik_cmdline>
J2VwaWtfcHl0aG9uJywgJy1waCcsICc3LjAnLCAnLXRuJywgJzgnLCAnLW1hJywgJzIwMCcsICctbWV0YWxfYmluZGluZycsICctaW1hZScsICc8aW5maWxlLm1hZT4nLCAnLW9tYWUnLCAnPG91dGZpbGUubWFlPic=

> <r_lp_tautomer_probability>
1

> <r_epik_Ionization_Penalty>
3.29702

> <r_epik_Ionization_Penalty_Charging>
3.26059

> <r_epik_Ionization_Penalty_Neutral>
0.0364294

> <r_epik_State_Penalty>
3.25788

> <r_epik_Charging_Adjusted_Penalty>
6.51847

> <i_epik_Tot_Q>
0

> <i_epik_Tot_abs_Q>
2

> <r_epik_Metal_State_Penalty>
0.477639

> <b_epik_Metal_Only>
1

> <s_lp_Force_Field>
OPLS_2005

> <r_lp_Energy>
11.8287

> <b_lp_Chiralities_Consistent>
1

> <s_lp_Variant>
AV-unprocessed.smi:1802-6

> <Gold.Version>
5.8.1

> <Gold.Id.Protein>
6NUR|6NUR_protein|mol2

> <Gold.PLP.Fitness>
38.6063

> <Gold.PLP.PLP>
-28.4197

> <Gold.PLP.part.hbond>
-3.1941

> <Gold.PLP.part.metal>
0.0000

> <Gold.PLP.part.buried>
-4.2901

> <Gold.PLP.part.nonpolar>
-21.4533

> <Gold.PLP.part.repulsive>
0.3789

> <Gold.PLP.ligand.clash>
0.0000

> <Gold.PLP.ligand.torsion>
0.9243

> <Gold.PLP.Chemscore.Hbond>
4.0000

> <Gold.PLP.Chemscore.CHOScore>
0.0000

> <Gold.PLP.Chemscore.Metal>
0.0000

> <Gold.Chemscore.Hbonds>
donor molecule, donor type, donor heavy atom, donor atom, acceptor molecule, acceptor atom, score
      L1  H    10    36       P1  7948  1.00
      P1  H  7989  7998       L1    16  1.00
      P1  H 10752 10764       L1    13  2.00

> <Gold.PLP.Chemscore.Internal.Correction>
0.0352

> <Gold.Rescore>
     Score         DG    S(hbond)    S(metal)    S(lipo)     H(rot)  DE(clash)    DE(int)     intcor
     13.49     -15.19       2.34        0.00      58.55       1.94       0.12       1.58       ----

> <Gold.Chemscore.Fitness>
13.4862

> <Gold.Chemscore.DG>
-15.1879

> <Gold.Chemscore.ZeroCoef>
-5.4800

> <Gold.Chemscore.Hbond>
2.3411

> <Gold.Chemscore.Metal>
0.0000

> <Gold.Chemscore.Lipo>
58.5531

> <Gold.Chemscore.Internal_Hbond>
0.0000

> <Gold.Chemscore.DEClash>
0.1223

> <Gold.Chemscore.DEInternal>
1.5793

> <Gold.Chemscore.Rot>
1.9383

> <Gold.Chemscore.Internal.Correction>
   9.000000E+99

> <Gold.Chemscore.Hbonds>
donor molecule, donor type, donor heavy atom, donor atom, acceptor molecule, acceptor atom, score
      L1  H    10    36       P1  7948  0.50
      P1  H  7989  7998       L1    16  0.56
      P1  H 10752 10764       L1    13  0.59

> <Gold.Chemscore.Hbond.Weighted>
-7.8192

> <Gold.Chemscore.Metal.Weighted>
-0.0000

> <Gold.Chemscore.Lipo.Weighted>
-6.8507

> <Gold.Chemscore.Internal_Hbond.Weighted>
0.0000

> <Gold.Chemscore.DEClash.Weighted>
0.1223

> <Gold.Chemscore.DEInternal.Weighted>
1.5793

> <Gold.Chemscore.Rot.Weighted>
4.9620

> <Gold.Chemscore.Internal.Correction.Weighted>
   9.000000E+99

> <Gold.Protein.RotatedTorsions>
[ 6907 6896 6895 6894 ] final  152.68 input  -60.11 | X-H torsion
[ 7974 7965 7964 7962 ] final -176.39 input  175.53 | X-H torsion
[ 8008 7997 7996 7995 ] final  -57.57 input   59.86 | X-H torsion
[ 10167 10162 10161 10158 ] final -108.57 input  -65.29 | X-H torsion
[ 10718 10713 10712 10709 ] final  134.72 input   66.30 | X-H torsion
[ 10763 10752 10751 10750 ] final  -85.40 input  -60.55 | X-H torsion
[ 11005 11000 10999 10996 ] final -123.07 input  -57.11 | X-H torsion

> <Gold.Protein.ActiveResidues>
 VAL166  LYS551  ARG553  GLY616  TRP617  ASP618  TYR619  PRO620  LYS621  CYS622 
 ASP623  PHE694  ASN695  SER759  ASP760  ASP761  ALA762  ILE779  LEU786  VAL792 
 PHE793  MET794  SER795  GLU796  ALA797  LYS798  CYS799  TRP800  GLU811  SER814 

> <Gold.Protein.RotatedAtoms>
  152.0834  133.4164  159.4510 H   0  0  0  0  0  0  0  0  0  0  0  0  # atno 6907 bound_to 6896
  150.6862  134.2956  159.4694 H   0  0  0  0  0  0  0  0  0  0  0  0  # atno 6908 bound_to 6896
  152.0800  134.9477  160.0624 H   0  0  0  0  0  0  0  0  0  0  0  0  # atno 6909 bound_to 6896
  144.7127  140.1178  143.6407 H   0  0  0  0  0  0  0  0  0  0  0  0  # atno 7974 bound_to 7965
  154.4273  140.1104  156.5818 H   0  0  0  0  0  0  0  0  0  0  0  0  # atno 8008 bound_to 7997
  155.6104  140.3494  155.4602 H   0  0  0  0  0  0  0  0  0  0  0  0  # atno 8009 bound_to 7997
  156.0103  140.1218  157.0449 H   0  0  0  0  0  0  0  0  0  0  0  0  # atno 8010 bound_to 7997
  140.1647  143.4091  152.1399 H   0  0  0  0  0  0  0  0  0  0  0  0  # atno 10167 bound_to 10162
  157.4643  131.1076  150.9881 H   0  0  0  0  0  0  0  0  0  0  0  0  # atno 10718 bound_to 10713
  154.6106  135.5486  153.7469 H   0  0  0  0  0  0  0  0  0  0  0  0  # atno 10763 bound_to 10752
  153.0193  135.6388  154.1583 H   0  0  0  0  0  0  0  0  0  0  0  0  # atno 10764 bound_to 10752
  154.1521  135.2902  155.3112 H   0  0  0  0  0  0  0  0  0  0  0  0  # atno 10765 bound_to 10752
  140.9947  134.0488  157.3611 H   0  0  0  0  0  0  0  0  0  0  0  0  # atno 11005 bound_to 11000
  145.9398  139.2661  143.1275 LP  0  0  0  0  0  0  0  0  0  0  0  0  # atno 17320 bound_to 7965
  145.9436  140.8962  143.0295 LP  0  0  0  0  0  0  0  0  0  0  0  0  # atno 17321 bound_to 7965
  139.5365  144.7214  151.4876 LP  0  0  0  0  0  0  0  0  0  0  0  0  # atno 17342 bound_to 10162
  140.6621  143.8477  150.6899 LP  0  0  0  0  0  0  0  0  0  0  0  0  # atno 17343 bound_to 10162
  157.0667  130.5847  149.5395 LP  0  0  0  0  0  0  0  0  0  0  0  0  # atno 17370 bound_to 10713
  156.0043  130.5127  150.7775 LP  0  0  0  0  0  0  0  0  0  0  0  0  # atno 17371 bound_to 10713
  139.9009  135.0164  156.7263 LP  0  0  0  0  0  0  0  0  0  0  0  0  # atno 17394 bound_to 11000
  140.6984  133.9328  155.8009 LP  0  0  0  0  0  0  0  0  0  0  0  0  # atno 17395 bound_to 11000

$$$$
