AV-unprocessed.smi:1797|AV-procd|sdf|7258|dock9
  -GOLD-   22720 8513D 1   1.00000     0.00000
 Structure written by MMmdl.
 29 30  0  0  0  0  0  0  0  0  2 V2000
  151.2630  130.8346  155.4511 C   0  0  0  0  0  0  0  0  0  0  0  0
  150.2396  131.9100  155.3213 C   0  0  0  0  0  0  0  0  0  0  0  0
  150.1115  132.8969  156.2115 N   0  0  0  0  0  0  0  0  0  0  0  0
  149.0907  133.7744  155.8760 N   0  0  0  0  0  0  0  0  0  0  0  0
  148.4708  133.4475  154.7330 C   0  0  0  0  0  0  0  0  0  0  0  0
  147.4548  134.1707  154.2270 N   0  5  0  0  0  0  0  0  0  0  0  0
  146.6668  133.7206  153.2153 C   0  0  0  0  0  0  0  0  0  0  0  0
  145.8413  132.8189  153.3542 O   0  0  0  0  0  0  0  0  0  0  0  0
  146.8038  134.2989  152.0060 N   0  0  0  0  0  0  0  0  0  0  0  0
  146.0661  133.9574  150.7936 C   0  0  1  0  0  0  0  0  0  0  0  0
  146.2037  132.4623  150.4692 C   0  0  0  0  0  0  0  0  0  0  0  0
  145.4279  132.1005  149.1925 C   0  0  0  0  0  0  0  0  0  0  0  0
  144.0152  132.7016  149.1415 C   0  0  0  0  0  0  0  0  0  0  0  0
  143.1921  132.2443  148.3515 O   0  0  0  0  0  0  0  0  0  0  0  0
  143.7196  133.7432  149.9391 N   0  0  0  0  0  0  0  0  0  0  0  0
  144.5797  134.3126  150.9760 C   0  0  0  0  0  0  0  0  0  0  0  0
  149.1071  131.9845  153.9819 S   0  0  0  0  0  0  0  0  0  0  0  0
  152.2313  131.1989  155.1077 H   0  0  0  0  0  0  0  0  0  0  0  0
  150.9809  129.9694  154.8508 H   0  0  0  0  0  0  0  0  0  0  0  0
  151.3530  130.5217  156.4917 H   0  0  0  0  0  0  0  0  0  0  0  0
  147.4822  135.0422  151.9261 H   0  0  0  0  0  0  0  0  0  0  0  0
  146.4580  134.5401  149.9577 H   0  0  0  0  0  0  0  0  0  0  0  0
  147.2537  132.1966  150.3412 H   0  0  0  0  0  0  0  0  0  0  0  0
  145.8352  131.8646  151.3045 H   0  0  0  0  0  0  0  0  0  0  0  0
  145.9724  132.4685  148.3223 H   0  0  0  0  0  0  0  0  0  0  0  0
  145.3678  131.0169  149.0877 H   0  0  0  0  0  0  0  0  0  0  0  0
  142.7940  134.1386  149.8586 H   0  0  0  0  0  0  0  0  0  0  0  0
  144.2207  133.9388  151.9361 H   0  0  0  0  0  0  0  0  0  0  0  0
  144.4490  135.3950  150.9932 H   0  0  0  0  0  0  0  0  0  0  0  0
  1  2  1  0  0  0  0
  1 18  1  0  0  0  0
  1 19  1  0  0  0  0
  1 20  1  0  0  0  0
  2 17  1  0  0  0  0
  2  3  2  0  0  0  0
  3  4  1  0  0  0  0
  4  5  2  0  0  0  0
  5  6  1  0  0  0  0
  5 17  1  0  0  0  0
  6  7  1  0  0  0  0
  7  8  2  0  0  0  0
  7  9  1  0  0  0  0
  9 10  1  0  0  0  0
  9 21  1  0  0  0  0
 10 16  1  0  0  0  0
 10 11  1  0  0  0  0
 10 22  1  0  0  0  0
 11 12  1  0  0  0  0
 11 23  1  0  0  0  0
 11 24  1  0  0  0  0
 12 13  1  0  0  0  0
 12 25  1  0  0  0  0
 12 26  1  0  0  0  0
 13 14  2  0  0  0  0
 13 15  1  0  0  0  0
 15 16  1  0  0  0  0
 15 27  1  0  0  0  0
 16 28  1  0  0  0  0
 16 29  1  0  0  0  0
M  CHG  1   6  -1
M  END
> <s_m_source_file>
AV-unprocessed.smi

> <i_m_source_file_index>
1797

> <i_lp_mmshare_version>
43012

> <i_f3d_flags>
0

> <s_epik_input>
W0NIM11jMW5uYyhzMSlbTkhdQyg9TylbTkhdW0NAQEhdMltDSDJdW0NIMl1DKD1PKVtOSF1bQ0gyXTI=

> <s_epik_cmdline>
J2VwaWtfcHl0aG9uJywgJy1waCcsICc3LjAnLCAnLXRuJywgJzgnLCAnLW1hJywgJzIwMCcsICctbWV0YWxfYmluZGluZycsICctaW1hZScsICc8aW5maWxlLm1hZT4nLCAnLW9tYWUnLCAnPG91dGZpbGUubWFlPic=

> <r_lp_tautomer_probability>
1

> <r_epik_Ionization_Penalty>
3.31792

> <r_epik_Ionization_Penalty_Charging>
3.17379

> <r_epik_Ionization_Penalty_Neutral>
0.144127

> <r_epik_State_Penalty>
3.17099

> <r_epik_Charging_Adjusted_Penalty>
6.34478

> <i_epik_Tot_Q>
-1

> <i_epik_Tot_abs_Q>
1

> <r_epik_Metal_State_Penalty>
0.468583

> <b_epik_Metal_Only>
1

> <s_lp_Force_Field>
OPLS_2005

> <r_lp_Energy>
8.48183

> <b_lp_Chiralities_Consistent>
1

> <s_lp_Variant>
AV-unprocessed.smi:1797-4

> <Gold.Version>
5.8.1

> <Gold.Id.Protein>
6NUR|6NUR_protein|mol2

> <Gold.PLP.Fitness>
35.0275

> <Gold.PLP.PLP>
-28.7070

> <Gold.PLP.part.hbond>
-3.0000

> <Gold.PLP.part.metal>
0.0000

> <Gold.PLP.part.buried>
-4.3420

> <Gold.PLP.part.nonpolar>
-21.8947

> <Gold.PLP.part.repulsive>
0.6214

> <Gold.PLP.ligand.clash>
0.0000

> <Gold.PLP.ligand.torsion>
0.7385

> <Gold.PLP.Chemscore.Hbond>
2.5988

> <Gold.PLP.Chemscore.CHOScore>
0.0000

> <Gold.PLP.Chemscore.Metal>
0.0000

> <Gold.Chemscore.Hbonds>
donor molecule, donor type, donor heavy atom, donor atom, acceptor molecule, acceptor atom, score
      L1  H     9    21       P1  7948  1.00
      L1  H    15    27       P1 10186  1.00
      P1  H 10785 10796       L1    14  0.57

> <Gold.PLP.Chemscore.Internal.Correction>
0.0012

> <Gold.Rescore>
     Score         DG    S(hbond)    S(metal)    S(lipo)     H(rot)  DE(clash)    DE(int)     intcor
     15.40     -17.41       2.60        0.00      49.74       1.00       0.01       2.00       ----

> <Gold.Chemscore.Fitness>
15.3958

> <Gold.Chemscore.DG>
-17.4095

> <Gold.Chemscore.ZeroCoef>
-5.4800

> <Gold.Chemscore.Hbond>
2.5960

> <Gold.Chemscore.Metal>
0.0000

> <Gold.Chemscore.Lipo>
49.7352

> <Gold.Chemscore.Internal_Hbond>
0.0000

> <Gold.Chemscore.DEClash>
0.0106

> <Gold.Chemscore.DEInternal>
2.0031

> <Gold.Chemscore.Rot>
1.0000

> <Gold.Chemscore.Internal.Correction>
   9.000000E+99

> <Gold.Chemscore.Hbonds>
donor molecule, donor type, donor heavy atom, donor atom, acceptor molecule, acceptor atom, score
      L1  H     9    21       P1  7948  0.91
      L1  H    15    27       P1 10186  1.00
      P1  H 10785 10796       L1    14  0.28

> <Gold.Chemscore.Hbond.Weighted>
-8.6705

> <Gold.Chemscore.Metal.Weighted>
-0.0000

> <Gold.Chemscore.Lipo.Weighted>
-5.8190

> <Gold.Chemscore.Internal_Hbond.Weighted>
0.0000

> <Gold.Chemscore.DEClash.Weighted>
0.0106

> <Gold.Chemscore.DEInternal.Weighted>
2.0031

> <Gold.Chemscore.Rot.Weighted>
2.5600

> <Gold.Chemscore.Internal.Correction.Weighted>
   9.000000E+99

> <Gold.Protein.RotatedTorsions>
[ 6907 6896 6895 6894 ] final   -6.82 input  -60.11 | X-H torsion
[ 7974 7965 7964 7962 ] final  -25.81 input  175.53 | X-H torsion
[ 8008 7997 7996 7995 ] final   86.56 input   59.86 | X-H torsion
[ 10167 10162 10161 10158 ] final -132.36 input  -65.29 | X-H torsion
[ 10718 10713 10712 10709 ] final   58.47 input   66.30 | X-H torsion
[ 10763 10752 10751 10750 ] final   47.23 input  -60.55 | X-H torsion
[ 11005 11000 10999 10996 ] final -147.89 input  -57.11 | X-H torsion

> <Gold.Protein.ActiveResidues>
 VAL166  LYS551  ARG553  GLY616  TRP617  ASP618  TYR619  PRO620  LYS621  CYS622 
 ASP623  PHE694  ASN695  SER759  ASP760  ASP761  ALA762  ILE779  LEU786  VAL792 
 PHE793  MET794  SER795  GLU796  ALA797  LYS798  CYS799  TRP800  GLU811  SER814 

> <Gold.Protein.RotatedAtoms>
  151.4595  135.1037  159.9720 H   0  0  0  0  0  0  0  0  0  0  0  0  # atno 6907 bound_to 6896
  152.4858  133.8366  159.7141 H   0  0  0  0  0  0  0  0  0  0  0  0  # atno 6908 bound_to 6896
  150.8967  133.7112  159.2917 H   0  0  0  0  0  0  0  0  0  0  0  0  # atno 6909 bound_to 6896
  146.1467  140.4936  142.8629 H   0  0  0  0  0  0  0  0  0  0  0  0  # atno 7974 bound_to 7965
  155.9643  140.3391  155.6519 H   0  0  0  0  0  0  0  0  0  0  0  0  # atno 8008 bound_to 7997
  155.6757  140.0732  157.2522 H   0  0  0  0  0  0  0  0  0  0  0  0  # atno 8009 bound_to 7997
  154.4151  140.1683  156.1915 H   0  0  0  0  0  0  0  0  0  0  0  0  # atno 8010 bound_to 7997
  139.9094  143.6512  152.2578 H   0  0  0  0  0  0  0  0  0  0  0  0  # atno 10167 bound_to 10162
  157.5599  130.8828  149.9094 H   0  0  0  0  0  0  0  0  0  0  0  0  # atno 10718 bound_to 10713
  152.9802  135.5983  154.3729 H   0  0  0  0  0  0  0  0  0  0  0  0  # atno 10763 bound_to 10752
  154.3401  135.2768  155.2429 H   0  0  0  0  0  0  0  0  0  0  0  0  # atno 10764 bound_to 10752
  154.4514  135.5989  153.6249 H   0  0  0  0  0  0  0  0  0  0  0  0  # atno 10765 bound_to 10752
  140.7670  134.3233  157.5086 H   0  0  0  0  0  0  0  0  0  0  0  0  # atno 11005 bound_to 11000
  144.7854  140.5926  143.6577 LP  0  0  0  0  0  0  0  0  0  0  0  0  # atno 17320 bound_to 7965
  145.4921  139.1488  143.3704 LP  0  0  0  0  0  0  0  0  0  0  0  0  # atno 17321 bound_to 7965
  139.6956  144.7642  151.1362 LP  0  0  0  0  0  0  0  0  0  0  0  0  # atno 17342 bound_to 10162
  140.7689  143.5528  150.9185 LP  0  0  0  0  0  0  0  0  0  0  0  0  # atno 17343 bound_to 10162
  156.0653  130.3693  150.0893 LP  0  0  0  0  0  0  0  0  0  0  0  0  # atno 17370 bound_to 10713
  156.9057  130.9635  151.3570 LP  0  0  0  0  0  0  0  0  0  0  0  0  # atno 17371 bound_to 10713
  139.8761  134.9237  156.3332 LP  0  0  0  0  0  0  0  0  0  0  0  0  # atno 17394 bound_to 11000
  140.9610  133.7389  156.0401 LP  0  0  0  0  0  0  0  0  0  0  0  0  # atno 17395 bound_to 11000

$$$$
