AV-unprocessed.smi:352|AV-procd|sdf|2401|dock7
  -GOLD-   2262022333D 1   1.00000     0.00000
 Structure written by MMmdl.
 45 46  0  0  0  0  0  0  0  0  2 V2000
  144.4253  133.3698  149.9018 C   0  0  0  0  0  0  0  0  0  0  0  0
  144.2891  134.4827  150.8834 C   0  0  0  0  0  0  0  0  0  0  0  0
  144.9280  135.6824  151.0226 C   0  0  0  0  0  0  0  0  0  0  0  0
  144.3027  136.2451  152.1733 C   0  0  0  0  0  0  0  0  0  0  0  0
  144.5941  137.5045  152.7583 N   0  0  0  0  0  0  0  0  0  0  0  0
  145.2146  137.7606  153.9222 C   0  0  0  0  0  0  0  0  0  0  0  0
  145.6207  136.9126  154.7155 O   0  0  0  0  0  0  0  0  0  0  0  0
  145.3478  139.0804  154.1187 N   0  0  0  0  0  0  0  0  0  0  0  0
  145.9767  139.7125  155.2794 C   0  0  0  0  0  0  0  0  0  0  0  0
  146.2798  141.2350  155.0813 C   0  0  0  0  0  0  0  0  0  0  0  0
  144.9737  141.9571  154.8383 N   0  3  0  0  0  0  0  0  0  0  0  0
  145.0687  143.3690  154.3837 C   0  0  0  0  0  0  0  0  0  0  0  0
  143.9692  141.8355  155.9278 C   0  0  0  0  0  0  0  0  0  0  0  0
  146.9987  141.7911  156.3478 C   0  0  0  0  0  0  0  0  0  0  0  0
  148.4046  141.2021  156.5739 C   0  0  0  0  0  0  0  0  0  0  0  0
  149.3061  141.3965  155.3479 C   0  0  0  0  0  0  0  0  0  0  0  0
  148.6540  140.8254  154.0823 C   0  0  0  0  0  0  0  0  0  0  0  0
  147.2513  141.4246  153.8694 C   0  0  0  0  0  0  0  0  0  0  0  0
  143.3719  135.4594  152.6822 N   0  0  0  0  0  0  0  0  0  0  0  0
  143.3570  134.3258  151.8615 O   0  0  0  0  0  0  0  0  0  0  0  0
  145.0094  133.6839  149.0365 H   0  0  0  0  0  0  0  0  0  0  0  0
  143.4475  133.0428  149.5479 H   0  0  0  0  0  0  0  0  0  0  0  0
  144.9258  132.5144  150.3557 H   0  0  0  0  0  0  0  0  0  0  0  0
  145.7128  136.0751  150.3938 H   0  0  0  0  0  0  0  0  0  0  0  0
  144.3062  138.3052  152.2155 H   0  0  0  0  0  0  0  0  0  0  0  0
  144.9649  139.6993  153.4189 H   0  0  0  0  0  0  0  0  0  0  0  0
  145.2956  139.5716  156.1178 H   0  0  0  0  0  0  0  0  0  0  0  0
  146.8627  139.1515  155.5724 H   0  0  0  0  0  0  0  0  0  0  0  0
  145.6505  143.9782  155.0752 H   0  0  0  0  0  0  0  0  0  0  0  0
  144.0774  143.8171  154.3051 H   0  0  0  0  0  0  0  0  0  0  0  0
  145.5071  143.4442  153.3891 H   0  0  0  0  0  0  0  0  0  0  0  0
  144.2636  142.4069  156.8084 H   0  0  0  0  0  0  0  0  0  0  0  0
  143.7977  140.8035  156.2278 H   0  0  0  0  0  0  0  0  0  0  0  0
  143.0058  142.2237  155.5961 H   0  0  0  0  0  0  0  0  0  0  0  0
  147.0936  142.8747  156.2756 H   0  0  0  0  0  0  0  0  0  0  0  0
  146.4062  141.6008  157.2427 H   0  0  0  0  0  0  0  0  0  0  0  0
  148.8634  141.6767  157.4417 H   0  0  0  0  0  0  0  0  0  0  0  0
  148.3352  140.1414  156.8156 H   0  0  0  0  0  0  0  0  0  0  0  0
  149.5037  142.4601  155.2077 H   0  0  0  0  0  0  0  0  0  0  0  0
  150.2736  140.9224  155.5162 H   0  0  0  0  0  0  0  0  0  0  0  0
  149.2806  141.0521  153.2192 H   0  0  0  0  0  0  0  0  0  0  0  0
  148.6141  139.7385  154.1372 H   0  0  0  0  0  0  0  0  0  0  0  0
  146.8135  141.0273  152.9539 H   0  0  0  0  0  0  0  0  0  0  0  0
  147.4244  142.4833  153.6806 H   0  0  0  0  0  0  0  0  0  0  0  0
  144.5640  141.4711  154.0534 H   0  0  0  0  0  0  0  0  0  0  0  0
  1  2  1  0  0  0  0
  1 21  1  0  0  0  0
  1 22  1  0  0  0  0
  1 23  1  0  0  0  0
  2 20  1  0  0  0  0
  2  3  2  0  0  0  0
  3  4  1  0  0  0  0
  3 24  1  0  0  0  0
  4  5  1  0  0  0  0
  4 19  2  0  0  0  0
  5  6  1  0  0  0  0
  5 25  1  0  0  0  0
  6  7  2  0  0  0  0
  6  8  1  0  0  0  0
  8  9  1  0  0  0  0
  8 26  1  0  0  0  0
  9 10  1  0  0  0  0
  9 27  1  0  0  0  0
  9 28  1  0  0  0  0
 10 18  1  0  0  0  0
 10 11  1  0  0  0  0
 10 14  1  0  0  0  0
 11 12  1  0  0  0  0
 11 13  1  0  0  0  0
 11 45  1  0  0  0  0
 12 29  1  0  0  0  0
 12 30  1  0  0  0  0
 12 31  1  0  0  0  0
 13 32  1  0  0  0  0
 13 33  1  0  0  0  0
 13 34  1  0  0  0  0
 14 15  1  0  0  0  0
 14 35  1  0  0  0  0
 14 36  1  0  0  0  0
 15 16  1  0  0  0  0
 15 37  1  0  0  0  0
 15 38  1  0  0  0  0
 16 17  1  0  0  0  0
 16 39  1  0  0  0  0
 16 40  1  0  0  0  0
 17 18  1  0  0  0  0
 17 41  1  0  0  0  0
 17 42  1  0  0  0  0
 18 43  1  0  0  0  0
 18 44  1  0  0  0  0
 19 20  1  0  0  0  0
M  CHG  1  11   1
M  END
> <s_m_source_file>
AV-unprocessed.smi

> <i_m_source_file_index>
352

> <i_lp_mmshare_version>
43012

> <i_f3d_flags>
0

> <s_epik_input>
W0NIM11jMVtjSF1jKG5vMSlbTkhdQyg9TylbTkhdW0NIMl1DMihOKFtDSDNdKVtDSDNdKVtDSDJdW0NIMl1bQ0gyXVtDSDJdW0NIMl0y

> <s_epik_cmdline>
J2VwaWtfcHl0aG9uJywgJy1waCcsICc3LjAnLCAnLXRuJywgJzgnLCAnLW1hJywgJzIwMCcsICctbWV0YWxfYmluZGluZycsICctaW1hZScsICc8aW5maWxlLm1hZT4nLCAnLW9tYWUnLCAnPG91dGZpbGUubWFlPic=

> <r_epik_Ionization_Penalty>
0.00254175

> <r_epik_Ionization_Penalty_Charging>
0.00251809

> <r_epik_Ionization_Penalty_Neutral>
2.36624e-05

> <r_epik_State_Penalty>
0.00174714

> <r_epik_Charging_Adjusted_Penalty>
0.00426523

> <i_epik_Tot_Q>
1

> <i_epik_Tot_abs_Q>
1

> <r_epik_Metal_State_Penalty>
-0

> <b_epik_Metal_Only>
0

> <s_lp_Force_Field>
OPLS_2005

> <r_lp_Energy>
33.762

> <b_lp_Chiralities_Consistent>
1

> <s_lp_Variant>
AV-unprocessed.smi:352-1

> <Gold.Version>
5.8.1

> <Gold.Id.Protein>
6NUR|6NUR_protein|mol2

> <Gold.PLP.Fitness>
38.0857

> <Gold.PLP.PLP>
-29.3030

> <Gold.PLP.part.hbond>
-3.3717

> <Gold.PLP.part.metal>
0.0000

> <Gold.PLP.part.buried>
-4.9843

> <Gold.PLP.part.nonpolar>
-23.0541

> <Gold.PLP.part.repulsive>
0.3869

> <Gold.PLP.ligand.clash>
0.0000

> <Gold.PLP.ligand.torsion>
0.8387

> <Gold.PLP.Chemscore.Hbond>
3.4508

> <Gold.PLP.Chemscore.CHOScore>
0.0000

> <Gold.PLP.Chemscore.Metal>
0.0000

> <Gold.Chemscore.Hbonds>
donor molecule, donor type, donor heavy atom, donor atom, acceptor molecule, acceptor atom, score
      L1  H     5    25       P1 10175  0.39
      L1  H     8    26       P1 10175  1.00
      L1  H    11    45       P1 10175  1.98

> <Gold.PLP.Chemscore.Internal.Correction>
0.1076

> <Gold.Rescore>
     Score         DG    S(hbond)    S(metal)    S(lipo)     H(rot)  DE(clash)    DE(int)     intcor
     14.61     -15.82       2.08        0.00      62.93       1.55       0.29       0.93       ----

> <Gold.Chemscore.Fitness>
14.6104

> <Gold.Chemscore.DG>
-15.8233

> <Gold.Chemscore.ZeroCoef>
-5.4800

> <Gold.Chemscore.Hbond>
2.0775

> <Gold.Chemscore.Metal>
0.0000

> <Gold.Chemscore.Lipo>
62.9349

> <Gold.Chemscore.Internal_Hbond>
0.0000

> <Gold.Chemscore.DEClash>
0.2858

> <Gold.Chemscore.DEInternal>
0.9271

> <Gold.Chemscore.Rot>
1.5464

> <Gold.Chemscore.Internal.Correction>
   9.000000E+99

> <Gold.Chemscore.Hbonds>
donor molecule, donor type, donor heavy atom, donor atom, acceptor molecule, acceptor atom, score
      L1  H     5    25       P1 10175  0.40
      L1  H     8    26       P1 10175  0.99
      L1  H    11    45       P1 10175  0.28

> <Gold.Chemscore.Hbond.Weighted>
-6.9387

> <Gold.Chemscore.Metal.Weighted>
-0.0000

> <Gold.Chemscore.Lipo.Weighted>
-7.3634

> <Gold.Chemscore.Internal_Hbond.Weighted>
0.0000

> <Gold.Chemscore.DEClash.Weighted>
0.2858

> <Gold.Chemscore.DEInternal.Weighted>
0.9271

> <Gold.Chemscore.Rot.Weighted>
3.9588

> <Gold.Chemscore.Internal.Correction.Weighted>
   9.000000E+99

> <Gold.Protein.RotatedTorsions>
[ 6907 6896 6895 6894 ] final -128.97 input  -60.11 | X-H torsion
[ 7974 7965 7964 7962 ] final -129.91 input  175.53 | X-H torsion
[ 8008 7997 7996 7995 ] final  151.06 input   59.86 | X-H torsion
[ 10167 10162 10161 10158 ] final    1.57 input  -65.29 | X-H torsion
[ 10718 10713 10712 10709 ] final   91.61 input   66.30 | X-H torsion
[ 10763 10752 10751 10750 ] final  -19.18 input  -60.55 | X-H torsion
[ 11005 11000 10999 10996 ] final  -51.10 input  -57.11 | X-H torsion

> <Gold.Protein.ActiveResidues>
 VAL166  LYS551  ARG553  GLY616  TRP617  ASP618  TYR619  PRO620  LYS621  CYS622 
 ASP623  PHE694  ASN695  SER759  ASP760  ASP761  ALA762  ILE779  LEU786  VAL792 
 PHE793  MET794  SER795  GLU796  ALA797  LYS798  CYS799  TRP800  GLU811  SER814 

> <Gold.Protein.RotatedAtoms>
  150.9236  133.6851  159.2826 H   0  0  0  0  0  0  0  0  0  0  0  0  # atno 6907 bound_to 6896
  151.4297  135.1007  159.9648 H   0  0  0  0  0  0  0  0  0  0  0  0  # atno 6908 bound_to 6896
  152.4992  133.8669  159.7333 H   0  0  0  0  0  0  0  0  0  0  0  0  # atno 6909 bound_to 6896
  144.9526  140.7361  143.4778 H   0  0  0  0  0  0  0  0  0  0  0  0  # atno 7974 bound_to 7965
  156.2690  140.2058  156.6116 H   0  0  0  0  0  0  0  0  0  0  0  0  # atno 8008 bound_to 7997
  154.6826  140.0538  157.0306 H   0  0  0  0  0  0  0  0  0  0  0  0  # atno 8009 bound_to 7997
  155.0978  140.3203  155.4558 H   0  0  0  0  0  0  0  0  0  0  0  0  # atno 8010 bound_to 7997
  140.6676  143.7136  150.7858 H   0  0  0  0  0  0  0  0  0  0  0  0  # atno 10167 bound_to 10162
  157.6960  131.0413  150.3755 H   0  0  0  0  0  0  0  0  0  0  0  0  # atno 10718 bound_to 10713
  153.6008  135.6999  153.5385 H   0  0  0  0  0  0  0  0  0  0  0  0  # atno 10763 bound_to 10752
  153.3098  135.4104  155.1326 H   0  0  0  0  0  0  0  0  0  0  0  0  # atno 10764 bound_to 10752
  154.8583  135.3669  154.5544 H   0  0  0  0  0  0  0  0  0  0  0  0  # atno 10765 bound_to 10752
  141.0853  133.6644  156.3828 H   0  0  0  0  0  0  0  0  0  0  0  0  # atno 11005 bound_to 11000
  145.2821  139.1914  143.4785 LP  0  0  0  0  0  0  0  0  0  0  0  0  # atno 17320 bound_to 7965
  146.3326  140.2784  142.8609 LP  0  0  0  0  0  0  0  0  0  0  0  0  # atno 17321 bound_to 7965
  140.0816  143.4963  152.2527 LP  0  0  0  0  0  0  0  0  0  0  0  0  # atno 17342 bound_to 10162
  139.5931  144.7557  151.3352 LP  0  0  0  0  0  0  0  0  0  0  0  0  # atno 17343 bound_to 10162
  156.4175  130.3946  149.6848 LP  0  0  0  0  0  0  0  0  0  0  0  0  # atno 17370 bound_to 10713
  156.4110  130.7722  151.2735 LP  0  0  0  0  0  0  0  0  0  0  0  0  # atno 17371 bound_to 10713
  140.5377  134.6150  157.5370 LP  0  0  0  0  0  0  0  0  0  0  0  0  # atno 17394 bound_to 11000
  139.9670  134.7356  156.0118 LP  0  0  0  0  0  0  0  0  0  0  0  0  # atno 17395 bound_to 11000

$$$$
