AV-unprocessed.smi:2558|AV-procd|sdf|10033|dock2
  -GOLD-   2272014 73D 1   1.00000     0.00000
 Structure written by MMmdl.
 42 43  0  0  0  0  0  0  0  0  2 V2000
  150.2785  138.4014  156.5948 C   0  0  0  0  0  0  0  0  0  0  0  0
  151.2779  139.8712  156.1157 S   0  0  0  0  0  0  0  0  0  0  0  0
  152.6772  139.6283  156.5021 O   0  0  0  0  0  0  0  0  0  0  0  0
  150.9657  140.2018  154.7160 O   0  0  0  0  0  0  0  0  0  0  0  0
  150.6127  141.1318  157.1339 N   0  0  0  0  0  0  0  0  0  0  0  0
  149.2231  141.3531  157.2924 C   0  0  0  0  0  0  0  0  0  0  0  0
  148.7931  141.6979  158.3954 O   0  0  0  0  0  0  0  0  0  0  0  0
  148.5379  141.2636  156.1205 N   0  5  0  0  0  0  0  0  0  0  0  0
  147.2064  141.4820  155.9785 C   0  0  0  0  0  0  0  0  0  0  0  0
  146.2945  140.6837  156.2057 O   0  0  0  0  0  0  0  0  0  0  0  0
  146.9345  142.7150  155.5151 N   0  0  0  0  0  0  0  0  0  0  0  0
  145.6690  143.3212  155.2947 C   0  0  0  0  0  0  0  0  0  0  0  0
  145.5243  144.1760  154.1832 C   0  0  0  0  0  0  0  0  0  0  0  0
  144.2863  144.8094  153.9635 C   0  0  0  0  0  0  0  0  0  0  0  0
  143.2412  144.5702  154.8766 C   0  0  0  0  0  0  0  0  0  0  0  0
  143.3679  143.7698  155.9558 N   0  0  0  0  0  0  0  0  0  0  0  0
  144.5575  143.1626  156.1587 C   0  0  0  0  0  0  0  0  0  0  0  0
  151.5959  142.0381  157.7885 C   0  0  0  0  0  0  0  0  0  0  0  0
  151.6828  141.8045  159.3114 C   0  0  0  0  0  0  0  0  0  0  0  0
  152.7754  142.6878  159.9364 C   0  0  0  0  0  0  0  0  0  0  0  0
  152.5580  144.1728  159.5979 C   0  0  0  0  0  0  0  0  0  0  0  0
  152.4803  144.3990  158.0780 C   0  0  0  0  0  0  0  0  0  0  0  0
  151.3830  143.5307  157.4414 C   0  0  0  0  0  0  0  0  0  0  0  0
  150.5873  137.5440  155.9977 H   0  0  0  0  0  0  0  0  0  0  0  0
  149.2227  138.6057  156.4191 H   0  0  0  0  0  0  0  0  0  0  0  0
  150.4334  138.1821  157.6509 H   0  0  0  0  0  0  0  0  0  0  0  0
  147.7349  143.2631  155.2365 H   0  0  0  0  0  0  0  0  0  0  0  0
  146.3479  144.3413  153.5040 H   0  0  0  0  0  0  0  0  0  0  0  0
  144.1421  145.4638  153.1167 H   0  0  0  0  0  0  0  0  0  0  0  0
  142.2786  145.0407  154.7401 H   0  0  0  0  0  0  0  0  0  0  0  0
  144.6144  142.5583  157.0512 H   0  0  0  0  0  0  0  0  0  0  0  0
  152.5787  141.7921  157.3863 H   0  0  0  0  0  0  0  0  0  0  0  0
  150.7316  142.0280  159.7931 H   0  0  0  0  0  0  0  0  0  0  0  0
  151.8947  140.7550  159.5178 H   0  0  0  0  0  0  0  0  0  0  0  0
  152.7888  142.5511  161.0178 H   0  0  0  0  0  0  0  0  0  0  0  0
  153.7534  142.3701  159.5728 H   0  0  0  0  0  0  0  0  0  0  0  0
  151.6363  144.5215  160.0657 H   0  0  0  0  0  0  0  0  0  0  0  0
  153.3649  144.7714  160.0215 H   0  0  0  0  0  0  0  0  0  0  0  0
  152.2889  145.4515  157.8678 H   0  0  0  0  0  0  0  0  0  0  0  0
  153.4434  144.1633  157.6233 H   0  0  0  0  0  0  0  0  0  0  0  0
  151.3834  143.6678  156.3595 H   0  0  0  0  0  0  0  0  0  0  0  0
  150.4147  143.8816  157.7991 H   0  0  0  0  0  0  0  0  0  0  0  0
  1  2  1  0  0  0  0
  1 24  1  0  0  0  0
  1 25  1  0  0  0  0
  1 26  1  0  0  0  0
  2  3  2  0  0  0  0
  2  4  2  0  0  0  0
  2  5  1  0  0  0  0
  5  6  1  0  0  0  0
  5 18  1  0  0  0  0
  6  7  2  0  0  0  0
  6  8  1  0  0  0  0
  8  9  1  0  0  0  0
  9 10  2  0  0  0  0
  9 11  1  0  0  0  0
 11 12  1  0  0  0  0
 11 27  1  0  0  0  0
 12 17  1  0  0  0  0
 12 13  2  0  0  0  0
 13 14  1  0  0  0  0
 13 28  1  0  0  0  0
 14 15  2  0  0  0  0
 14 29  1  0  0  0  0
 15 16  1  0  0  0  0
 15 30  1  0  0  0  0
 16 17  2  0  0  0  0
 17 31  1  0  0  0  0
 18 23  1  0  0  0  0
 18 19  1  0  0  0  0
 18 32  1  0  0  0  0
 19 20  1  0  0  0  0
 19 33  1  0  0  0  0
 19 34  1  0  0  0  0
 20 21  1  0  0  0  0
 20 35  1  0  0  0  0
 20 36  1  0  0  0  0
 21 22  1  0  0  0  0
 21 37  1  0  0  0  0
 21 38  1  0  0  0  0
 22 23  1  0  0  0  0
 22 39  1  0  0  0  0
 22 40  1  0  0  0  0
 23 41  1  0  0  0  0
 23 42  1  0  0  0  0
M  CHG  1   8  -1
M  END
> <s_m_source_file>
AV-unprocessed.smi

> <i_m_source_file_index>
2558

> <i_lp_mmshare_version>
43012

> <i_f3d_flags>
0

> <s_epik_input>
W0NIMl0xW0NIMl1bQ0gyXVtDSDJdW0NIMl1bQ0hdMU4oUyg9TykoPU8pW0NIM10pQyg9TylbTkhdQyg9TylbTkhdYzJbY0hdW2NIXVtjSF1uW2NIXTI=

> <s_epik_cmdline>
J2VwaWtfcHl0aG9uJywgJy1waCcsICc3LjAnLCAnLXRuJywgJzgnLCAnLW1hJywgJzIwMCcsICctbWV0YWxfYmluZGluZycsICctaW1hZScsICc8aW5maWxlLm1hZT4nLCAnLW9tYWUnLCAnPG91dGZpbGUubWFlPic=

> <r_epik_Ionization_Penalty>
6.14208

> <r_epik_Ionization_Penalty_Charging>
6.14039

> <r_epik_Ionization_Penalty_Neutral>
0.00168563

> <r_epik_State_Penalty>
6.14513

> <r_epik_Charging_Adjusted_Penalty>
12.2855

> <i_epik_Tot_Q>
-1

> <i_epik_Tot_abs_Q>
1

> <r_epik_Metal_State_Penalty>
2.09011

> <b_epik_Metal_Only>
1

> <s_lp_Force_Field>
OPLS_2005

> <r_lp_Energy>
23.9967

> <b_lp_Chiralities_Consistent>
1

> <s_lp_Variant>
AV-unprocessed.smi:2558-2

> <Gold.Version>
5.8.1

> <Gold.Id.Protein>
6NUR|6NUR_protein|mol2

> <Gold.PLP.Fitness>
44.5955

> <Gold.PLP.PLP>
-38.0886

> <Gold.PLP.part.hbond>
-3.2840

> <Gold.PLP.part.metal>
0.0000

> <Gold.PLP.part.buried>
-5.4267

> <Gold.PLP.part.nonpolar>
-30.4660

> <Gold.PLP.part.repulsive>
0.3483

> <Gold.PLP.ligand.clash>
0.0000

> <Gold.PLP.ligand.torsion>
2.9379

> <Gold.PLP.Chemscore.Hbond>
2.9760

> <Gold.PLP.Chemscore.CHOScore>
0.0000

> <Gold.PLP.Chemscore.Metal>
0.0000

> <Gold.Chemscore.Hbonds>
donor molecule, donor type, donor heavy atom, donor atom, acceptor molecule, acceptor atom, score
      L1  H    11    27       P1  8028  0.93
      P1  H  7989  7998       L1     4  1.00
      P1  H  7997  8010       L1     3  1.00

> <Gold.PLP.Chemscore.Internal.Correction>
3.4548

> <Gold.Rescore>
     Score         DG    S(hbond)    S(metal)    S(lipo)     H(rot)  DE(clash)    DE(int)     intcor
     18.54     -22.73       2.40        0.00     100.69       1.00       0.16       4.03       ----

> <Gold.Chemscore.Fitness>
18.5441

> <Gold.Chemscore.DG>
-22.7309

> <Gold.Chemscore.ZeroCoef>
-5.4800

> <Gold.Chemscore.Hbond>
2.4041

> <Gold.Chemscore.Metal>
0.0000

> <Gold.Chemscore.Lipo>
100.6926

> <Gold.Chemscore.Internal_Hbond>
0.0000

> <Gold.Chemscore.DEClash>
0.1614

> <Gold.Chemscore.DEInternal>
4.0253

> <Gold.Chemscore.Rot>
1.0000

> <Gold.Chemscore.Internal.Correction>
   9.000000E+99

> <Gold.Chemscore.Hbonds>
donor molecule, donor type, donor heavy atom, donor atom, acceptor molecule, acceptor atom, score
      L1  H    11    27       P1  8028  0.40
      P1  H  7989  7998       L1     4  0.94
      P1  H  7997  8010       L1     3  1.00

> <Gold.Chemscore.Hbond.Weighted>
-8.0298

> <Gold.Chemscore.Metal.Weighted>
-0.0000

> <Gold.Chemscore.Lipo.Weighted>
-11.7810

> <Gold.Chemscore.Internal_Hbond.Weighted>
0.0000

> <Gold.Chemscore.DEClash.Weighted>
0.1614

> <Gold.Chemscore.DEInternal.Weighted>
4.0253

> <Gold.Chemscore.Rot.Weighted>
2.5600

> <Gold.Chemscore.Internal.Correction.Weighted>
   9.000000E+99

> <Gold.Protein.RotatedTorsions>
[ 6907 6896 6895 6894 ] final -170.14 input  -60.11 | X-H torsion
[ 7974 7965 7964 7962 ] final  172.30 input  175.53 | X-H torsion
[ 8008 7997 7996 7995 ] final   70.11 input   59.86 | X-H torsion
[ 10167 10162 10161 10158 ] final -165.30 input  -65.29 | X-H torsion
[ 10718 10713 10712 10709 ] final   84.58 input   66.30 | X-H torsion
[ 10763 10752 10751 10750 ] final  129.91 input  -60.55 | X-H torsion
[ 11005 11000 10999 10996 ] final  109.27 input  -57.11 | X-H torsion

> <Gold.Protein.ActiveResidues>
 VAL166  LYS551  ARG553  GLY616  TRP617  ASP618  TYR619  PRO620  LYS621  CYS622 
 ASP623  PHE694  ASN695  SER759  ASP760  ASP761  ALA762  ILE779  LEU786  VAL792 
 PHE793  MET794  SER795  GLU796  ALA797  LYS798  CYS799  TRP800  GLU811  SER814 

> <Gold.Protein.RotatedAtoms>
  151.5029  133.3500  159.2871 H   0  0  0  0  0  0  0  0  0  0  0  0  # atno 6907 bound_to 6896
  150.8761  134.8146  159.7202 H   0  0  0  0  0  0  0  0  0  0  0  0  # atno 6908 bound_to 6896
  152.4732  134.4920  159.9750 H   0  0  0  0  0  0  0  0  0  0  0  0  # atno 6909 bound_to 6896
  144.7272  139.9478  143.6431 H   0  0  0  0  0  0  0  0  0  0  0  0  # atno 7974 bound_to 7965
  155.7339  140.3491  155.5072 H   0  0  0  0  0  0  0  0  0  0  0  0  # atno 8008 bound_to 7997
  155.9157  140.1058  157.1267 H   0  0  0  0  0  0  0  0  0  0  0  0  # atno 8009 bound_to 7997
  154.4062  140.1259  156.4601 H   0  0  0  0  0  0  0  0  0  0  0  0  # atno 8010 bound_to 7997
  139.6192  144.0659  152.1916 H   0  0  0  0  0  0  0  0  0  0  0  0  # atno 10167 bound_to 10162
  157.6900  131.0139  150.2694 H   0  0  0  0  0  0  0  0  0  0  0  0  # atno 10718 bound_to 10713
  153.7494  135.3212  155.3318 H   0  0  0  0  0  0  0  0  0  0  0  0  # atno 10763 bound_to 10752
  154.8268  135.4563  154.0947 H   0  0  0  0  0  0  0  0  0  0  0  0  # atno 10764 bound_to 10752
  153.2145  135.6940  153.8156 H   0  0  0  0  0  0  0  0  0  0  0  0  # atno 10765 bound_to 10752
  139.8859  134.9453  156.6100 H   0  0  0  0  0  0  0  0  0  0  0  0  # atno 11005 bound_to 11000
  146.0735  139.3723  143.0508 LP  0  0  0  0  0  0  0  0  0  0  0  0  # atno 17320 bound_to 7965
  145.7937  140.9803  143.1035 LP  0  0  0  0  0  0  0  0  0  0  0  0  # atno 17321 bound_to 7965
  140.0297  144.6090  150.7498 LP  0  0  0  0  0  0  0  0  0  0  0  0  # atno 17342 bound_to 10162
  140.7371  143.2761  151.3738 LP  0  0  0  0  0  0  0  0  0  0  0  0  # atno 17343 bound_to 10162
  156.3259  130.3793  149.7533 LP  0  0  0  0  0  0  0  0  0  0  0  0  # atno 17370 bound_to 10713
  156.5089  130.8163  151.3161 LP  0  0  0  0  0  0  0  0  0  0  0  0  # atno 17371 bound_to 10713
  140.7819  133.8653  155.8574 LP  0  0  0  0  0  0  0  0  0  0  0  0  # atno 17394 bound_to 11000
  140.9753  134.1477  157.4541 LP  0  0  0  0  0  0  0  0  0  0  0  0  # atno 17395 bound_to 11000

$$$$
