AV-unprocessed.smi:2299|AV-procd|sdf|9231|dock7
  -GOLD-   2272012453D 1   1.00000     0.00000
 Structure written by MMmdl.
 42 43  0  0  0  0  0  0  0  0  1 V2000
  152.2359  139.8672  157.7492 C   0  0  0  0  0  0  0  0  0  0  0  0
  151.6040  140.6372  156.5805 C   0  0  0  0  0  0  0  0  0  0  0  0
  150.8874  141.9113  157.0509 C   0  0  0  0  0  0  0  0  0  0  0  0
  150.6933  139.7557  155.7682 C   0  0  0  0  0  0  0  0  0  0  0  0
  150.8608  139.5484  154.4640 N   0  0  0  0  0  0  0  0  0  0  0  0
  149.8175  138.7102  154.0922 C   0  0  0  0  0  0  0  0  0  0  0  0
  149.0426  138.4376  155.1920 C   0  0  0  0  0  0  0  0  0  0  0  0
  149.6101  139.1157  156.2643 N   0  0  0  0  0  0  0  0  0  0  0  0
  149.0871  139.1082  157.6229 C   0  0  0  0  0  0  0  0  0  0  0  0
  149.0415  137.6865  158.1856 C   0  0  0  0  0  0  0  0  0  0  0  0
  149.5601  136.7610  157.5615 O   0  0  0  0  0  0  0  0  0  0  0  0
  148.4102  137.5266  159.3589 N   0  0  0  0  0  0  0  0  0  0  0  0
  148.1852  136.2539  160.0442 C   0  0  1  0  0  0  0  0  0  0  0  0
  147.4633  136.4898  161.3894 C   0  0  0  0  0  0  0  0  0  0  0  0
  147.6650  135.3585  162.4109 C   0  0  0  0  0  0  0  0  0  0  0  0
  147.1056  133.9933  161.9828 C   0  0  0  0  0  0  0  0  0  0  0  0
  147.8140  133.3895  160.7575 C   0  0  0  0  0  0  0  0  0  0  0  0
  147.3572  133.9734  159.5025 N   0  0  0  0  0  0  0  0  0  0  0  0
  147.4772  135.2516  159.1130 C   0  0  0  0  0  0  0  0  0  0  0  0
  147.0221  135.6210  158.0306 O   0  0  0  0  0  0  0  0  0  0  0  0
  152.7977  139.0046  157.3896 H   0  0  0  0  0  0  0  0  0  0  0  0
  151.4781  139.5058  158.4451 H   0  0  0  0  0  0  0  0  0  0  0  0
  152.9269  140.4986  158.3084 H   0  0  0  0  0  0  0  0  0  0  0  0
  152.4258  140.9707  155.9509 H   0  0  0  0  0  0  0  0  0  0  0  0
  150.4986  142.4768  156.2034 H   0  0  0  0  0  0  0  0  0  0  0  0
  151.5674  142.5643  157.5986 H   0  0  0  0  0  0  0  0  0  0  0  0
  150.0497  141.6781  157.7090 H   0  0  0  0  0  0  0  0  0  0  0  0
  149.7042  138.3741  153.0721 H   0  0  0  0  0  0  0  0  0  0  0  0
  148.1511  137.8370  155.2971 H   0  0  0  0  0  0  0  0  0  0  0  0
  149.7358  139.7180  158.2529 H   0  0  0  0  0  0  0  0  0  0  0  0
  148.1048  139.5813  157.6442 H   0  0  0  0  0  0  0  0  0  0  0  0
  148.0131  138.3450  159.7976 H   0  0  0  0  0  0  0  0  0  0  0  0
  149.1702  135.8309  160.2511 H   0  0  0  0  0  0  0  0  0  0  0  0
  147.8342  137.4081  161.8469 H   0  0  0  0  0  0  0  0  0  0  0  0
  146.3984  136.6558  161.2195 H   0  0  0  0  0  0  0  0  0  0  0  0
  148.7271  135.2608  162.6392 H   0  0  0  0  0  0  0  0  0  0  0  0
  147.1870  135.6500  163.3466 H   0  0  0  0  0  0  0  0  0  0  0  0
  147.2255  133.3050  162.8202 H   0  0  0  0  0  0  0  0  0  0  0  0
  146.0314  134.0618  161.8053 H   0  0  0  0  0  0  0  0  0  0  0  0
  148.8979  133.4752  160.8460 H   0  0  0  0  0  0  0  0  0  0  0  0
  147.5957  132.3224  160.7094 H   0  0  0  0  0  0  0  0  0  0  0  0
  146.8901  133.3442  158.8653 H   0  0  0  0  0  0  0  0  0  0  0  0
  1  2  1  0  0  0  0
  1 21  1  0  0  0  0
  1 22  1  0  0  0  0
  1 23  1  0  0  0  0
  2  3  1  0  0  0  0
  2  4  1  0  0  0  0
  2 24  1  0  0  0  0
  3 25  1  0  0  0  0
  3 26  1  0  0  0  0
  3 27  1  0  0  0  0
  4  8  1  0  0  0  0
  4  5  2  0  0  0  0
  5  6  1  0  0  0  0
  6  7  2  0  0  0  0
  6 28  1  0  0  0  0
  7  8  1  0  0  0  0
  7 29  1  0  0  0  0
  8  9  1  0  0  0  0
  9 10  1  0  0  0  0
  9 30  1  0  0  0  0
  9 31  1  0  0  0  0
 10 11  2  0  0  0  0
 10 12  1  0  0  0  0
 12 13  1  0  0  0  0
 12 32  1  0  0  0  0
 13 19  1  0  0  0  0
 13 14  1  0  0  0  0
 13 33  1  0  0  0  0
 14 15  1  0  0  0  0
 14 34  1  0  0  0  0
 14 35  1  0  0  0  0
 15 16  1  0  0  0  0
 15 36  1  0  0  0  0
 15 37  1  0  0  0  0
 16 17  1  0  0  0  0
 16 38  1  0  0  0  0
 16 39  1  0  0  0  0
 17 18  1  0  0  0  0
 17 40  1  0  0  0  0
 17 41  1  0  0  0  0
 18 19  1  0  0  0  0
 18 42  1  0  0  0  0
 19 20  2  0  0  0  0
M  END
> <s_m_source_file>
AV-unprocessed.smi

> <i_m_source_file_index>
2299

> <i_lp_mmshare_version>
43012

> <i_f3d_flags>
0

> <s_epik_input>
W0NIM11bQ0hdKFtDSDNdKWMxbltjSF1bY0hdbjFbQ0gyXUMoPU8pW05IXVtDQEBIXTJbQ0gyXVtDSDJdW0NIMl1bQ0gyXVtOSF1DMj1P

> <s_epik_cmdline>
J2VwaWtfcHl0aG9uJywgJy1waCcsICc3LjAnLCAnLXRuJywgJzgnLCAnLW1hJywgJzIwMCcsICctbWV0YWxfYmluZGluZycsICctaW1hZScsICc8aW5maWxlLm1hZT4nLCAnLW9tYWUnLCAnPG91dGZpbGUubWFlPic=

> <r_lp_tautomer_probability>
1

> <r_epik_Ionization_Penalty>
0.557868

> <r_epik_Ionization_Penalty_Charging>
0.557868

> <r_epik_Ionization_Penalty_Neutral>
1.99744e-07

> <r_epik_State_Penalty>
0.568774

> <r_epik_Charging_Adjusted_Penalty>
1.12664

> <i_epik_Tot_Q>
0

> <i_epik_Tot_abs_Q>
0

> <r_epik_Metal_State_Penalty>
0.289303

> <b_epik_Metal_Only>
0

> <s_lp_Force_Field>
OPLS_2005

> <r_lp_Energy>
10.2382

> <b_lp_Chiralities_Consistent>
1

> <s_lp_Variant>
AV-unprocessed.smi:2299-4

> <Gold.Version>
5.8.1

> <Gold.Id.Protein>
6NUR|6NUR_protein|mol2

> <Gold.PLP.Fitness>
37.6256

> <Gold.PLP.PLP>
-29.4758

> <Gold.PLP.part.hbond>
-1.0000

> <Gold.PLP.part.metal>
0.0000

> <Gold.PLP.part.buried>
-4.6338

> <Gold.PLP.part.nonpolar>
-24.1677

> <Gold.PLP.part.repulsive>
0.6178

> <Gold.PLP.ligand.clash>
0.0000

> <Gold.PLP.ligand.torsion>
0.1483

> <Gold.PLP.Chemscore.Hbond>
1.0000

> <Gold.PLP.Chemscore.CHOScore>
1.7914

> <Gold.PLP.Chemscore.Metal>
0.0000

> <Gold.Chemscore.Hbonds>
donor molecule, donor type, donor heavy atom, donor atom, acceptor molecule, acceptor atom, score
      P1  H  7989  7998       L1     5  1.00
      L1  C     6    28       P1  7948  1.00
      L1  C     6    28       P1  7957  0.83

> <Gold.PLP.Chemscore.Internal.Correction>
0.0721

> <Gold.Rescore>
     Score         DG    S(hbond)    S(metal)    S(lipo)     H(rot)  DE(clash)    DE(int)     intcor
     10.17     -12.54       0.98        0.00      69.54       1.70       0.04       2.33       ----

> <Gold.Chemscore.Fitness>
10.1674

> <Gold.Chemscore.DG>
-12.5426

> <Gold.Chemscore.ZeroCoef>
-5.4800

> <Gold.Chemscore.Hbond>
0.9820

> <Gold.Chemscore.Metal>
0.0000

> <Gold.Chemscore.Lipo>
69.5364

> <Gold.Chemscore.Internal_Hbond>
0.0000

> <Gold.Chemscore.DEClash>
0.0402

> <Gold.Chemscore.DEInternal>
2.3349

> <Gold.Chemscore.Rot>
1.7004

> <Gold.Chemscore.Internal.Correction>
   9.000000E+99

> <Gold.Chemscore.Hbonds>
donor molecule, donor type, donor heavy atom, donor atom, acceptor molecule, acceptor atom, score
      P1  H  7989  7998       L1     5  0.96

> <Gold.Chemscore.Hbond.Weighted>
-3.2799

> <Gold.Chemscore.Metal.Weighted>
-0.0000

> <Gold.Chemscore.Lipo.Weighted>
-8.1358

> <Gold.Chemscore.Internal_Hbond.Weighted>
0.0000

> <Gold.Chemscore.DEClash.Weighted>
0.0402

> <Gold.Chemscore.DEInternal.Weighted>
2.3349

> <Gold.Chemscore.Rot.Weighted>
4.3530

> <Gold.Chemscore.Internal.Correction.Weighted>
   9.000000E+99

> <Gold.Protein.RotatedTorsions>
[ 6907 6896 6895 6894 ] final   55.30 input  -60.11 | X-H torsion
[ 7974 7965 7964 7962 ] final -173.21 input  175.53 | X-H torsion
[ 8008 7997 7996 7995 ] final   69.59 input   59.86 | X-H torsion
[ 10167 10162 10161 10158 ] final -128.41 input  -65.29 | X-H torsion
[ 10718 10713 10712 10709 ] final  -77.10 input   66.30 | X-H torsion
[ 10763 10752 10751 10750 ] final    9.23 input  -60.55 | X-H torsion
[ 11005 11000 10999 10996 ] final  104.69 input  -57.11 | X-H torsion

> <Gold.Protein.ActiveResidues>
 VAL166  LYS551  ARG553  GLY616  TRP617  ASP618  TYR619  PRO620  LYS621  CYS622 
 ASP623  PHE694  ASN695  SER759  ASP760  ASP761  ALA762  ILE779  LEU786  VAL792 
 PHE793  MET794  SER795  GLU796  ALA797  LYS798  CYS799  TRP800  GLU811  SER814 

> <Gold.Protein.RotatedAtoms>
  152.3524  134.6986  160.0231 H   0  0  0  0  0  0  0  0  0  0  0  0  # atno 6907 bound_to 6896
  151.7336  133.3313  159.3355 H   0  0  0  0  0  0  0  0  0  0  0  0  # atno 6908 bound_to 6896
  150.7549  134.6275  159.6213 H   0  0  0  0  0  0  0  0  0  0  0  0  # atno 6909 bound_to 6896
  144.7140  140.1656  143.6372 H   0  0  0  0  0  0  0  0  0  0  0  0  # atno 7974 bound_to 7965
  155.7259  140.3492  155.5037 H   0  0  0  0  0  0  0  0  0  0  0  0  # atno 8008 bound_to 7997
  155.9227  140.1070  157.1215 H   0  0  0  0  0  0  0  0  0  0  0  0  # atno 8009 bound_to 7997
  154.4072  140.1246  156.4687 H   0  0  0  0  0  0  0  0  0  0  0  0  # atno 8010 bound_to 7997
  139.9506  143.6060  152.2476 H   0  0  0  0  0  0  0  0  0  0  0  0  # atno 10167 bound_to 10162
  156.0155  130.4482  150.3293 H   0  0  0  0  0  0  0  0  0  0  0  0  # atno 10718 bound_to 10713
  153.2163  135.6875  153.8054 H   0  0  0  0  0  0  0  0  0  0  0  0  # atno 10763 bound_to 10752
  153.7268  135.3259  155.3279 H   0  0  0  0  0  0  0  0  0  0  0  0  # atno 10764 bound_to 10752
  154.8247  135.4626  154.0991 H   0  0  0  0  0  0  0  0  0  0  0  0  # atno 10765 bound_to 10752
  139.8794  134.9309  156.5400 H   0  0  0  0  0  0  0  0  0  0  0  0  # atno 11005 bound_to 11000
  145.8990  139.2419  143.1504 LP  0  0  0  0  0  0  0  0  0  0  0  0  # atno 17320 bound_to 7965
  145.9829  140.8668  143.0105 LP  0  0  0  0  0  0  0  0  0  0  0  0  # atno 17321 bound_to 7965
  139.6631  144.7662  151.1924 LP  0  0  0  0  0  0  0  0  0  0  0  0  # atno 17342 bound_to 10162
  140.7584  143.5979  150.8729 LP  0  0  0  0  0  0  0  0  0  0  0  0  # atno 17343 bound_to 10162
  157.1392  131.0292  151.2935 LP  0  0  0  0  0  0  0  0  0  0  0  0  # atno 17370 bound_to 10713
  157.4486  130.7585  149.7131 LP  0  0  0  0  0  0  0  0  0  0  0  0  # atno 17371 bound_to 10713
  140.8318  133.8273  155.8991 LP  0  0  0  0  0  0  0  0  0  0  0  0  # atno 17394 bound_to 11000
  140.9322  134.2008  157.4856 LP  0  0  0  0  0  0  0  0  0  0  0  0  # atno 17395 bound_to 11000

$$$$
