AV-unprocessed.smi:1692|AV-procd|sdf|6784|dock10
  -GOLD-   22720 7543D 1   1.00000     0.00000
 Structure written by MMmdl.
 45 46  0  0  0  0  0  0  0  0  1 V2000
  142.9747  143.1162  155.7654 C   0  0  0  0  0  0  0  0  0  0  0  0
  144.2850  143.9192  155.8309 C   0  0  1  0  0  0  0  0  0  0  0  0
  145.5053  143.0658  156.2320 C   0  0  0  0  0  0  0  0  0  0  0  0
  145.9617  142.1883  155.1557 N   0  0  0  0  0  0  0  0  0  0  0  0
  147.1418  141.4094  155.5284 C   0  0  0  0  0  0  0  0  0  0  0  0
  147.9824  140.8929  154.3481 C   0  0  0  0  0  0  0  0  0  0  0  0
  149.4911  141.0459  154.6016 C   0  0  0  0  0  0  0  0  0  0  0  0
  149.7838  142.2056  155.4364 N   0  0  0  0  0  0  0  0  0  0  0  0
  150.3898  142.1589  156.6320 C   0  0  0  0  0  0  0  0  0  0  0  0
  150.7718  141.1129  157.1577 O   0  0  0  0  0  0  0  0  0  0  0  0
  150.5174  143.3883  157.1619 N   0  0  0  0  0  0  0  0  0  0  0  0
  151.1102  143.7533  158.4004 C   0  0  0  0  0  0  0  0  0  0  0  0
  151.1472  145.1421  158.6604 C   0  0  0  0  0  0  0  0  0  0  0  0
  151.7174  145.6075  159.8613 C   0  0  0  0  0  0  0  0  0  0  0  0
  152.2364  144.6711  160.7729 C   0  0  0  0  0  0  0  0  0  0  0  0
  152.1590  143.3067  160.4378 C   0  0  0  0  0  0  0  0  0  0  0  0
  151.6133  142.8585  159.2874 N   0  0  0  0  0  0  0  0  0  0  0  0
  146.2235  142.9925  153.9687 C   0  0  0  0  0  0  0  0  0  0  0  0
  144.9840  143.7915  153.5279 C   0  0  2  0  0  0  0  0  0  0  0  0
  145.2791  144.6998  152.3298 C   0  0  0  0  0  0  0  0  0  0  0  0
  144.5428  144.6116  154.6084 O   0  0  0  0  0  0  0  0  0  0  0  0
  142.7348  142.6862  156.7378 H   0  0  0  0  0  0  0  0  0  0  0  0
  143.0323  142.2944  155.0522 H   0  0  0  0  0  0  0  0  0  0  0  0
  142.1417  143.7554  155.4726 H   0  0  0  0  0  0  0  0  0  0  0  0
  144.1485  144.6860  156.5940 H   0  0  0  0  0  0  0  0  0  0  0  0
  146.3191  143.7313  156.5241 H   0  0  0  0  0  0  0  0  0  0  0  0
  145.2502  142.4853  157.1180 H   0  0  0  0  0  0  0  0  0  0  0  0
  147.7901  142.0345  156.1441 H   0  0  0  0  0  0  0  0  0  0  0  0
  146.8470  140.5706  156.1607 H   0  0  0  0  0  0  0  0  0  0  0  0
  147.7571  139.8430  154.1618 H   0  0  0  0  0  0  0  0  0  0  0  0
  147.7097  141.4362  153.4421 H   0  0  0  0  0  0  0  0  0  0  0  0
  149.8739  140.1605  155.1098 H   0  0  0  0  0  0  0  0  0  0  0  0
  150.0323  141.1195  153.6568 H   0  0  0  0  0  0  0  0  0  0  0  0
  149.5015  143.1064  155.0788 H   0  0  0  0  0  0  0  0  0  0  0  0
  150.1509  144.1528  156.6148 H   0  0  0  0  0  0  0  0  0  0  0  0
  150.7440  145.8483  157.9490 H   0  0  0  0  0  0  0  0  0  0  0  0
  151.7555  146.6649  160.0782 H   0  0  0  0  0  0  0  0  0  0  0  0
  152.6813  144.9895  161.7039 H   0  0  0  0  0  0  0  0  0  0  0  0
  152.5449  142.5552  161.1105 H   0  0  0  0  0  0  0  0  0  0  0  0
  147.0498  143.6786  154.1633 H   0  0  0  0  0  0  0  0  0  0  0  0
  146.5425  142.3470  153.1496 H   0  0  0  0  0  0  0  0  0  0  0  0
  144.1872  143.1023  153.2465 H   0  0  0  0  0  0  0  0  0  0  0  0
  145.6001  144.1174  151.4659 H   0  0  0  0  0  0  0  0  0  0  0  0
  146.0667  145.4169  152.5627 H   0  0  0  0  0  0  0  0  0  0  0  0
  144.3914  145.2621  152.0399 H   0  0  0  0  0  0  0  0  0  0  0  0
  1  2  1  0  0  0  0
  1 22  1  0  0  0  0
  1 23  1  0  0  0  0
  1 24  1  0  0  0  0
  2 21  1  0  0  0  0
  2  3  1  0  0  0  0
  2 25  1  0  0  0  0
  3  4  1  0  0  0  0
  3 26  1  0  0  0  0
  3 27  1  0  0  0  0
  4  5  1  0  0  0  0
  4 18  1  0  0  0  0
  5  6  1  0  0  0  0
  5 28  1  0  0  0  0
  5 29  1  0  0  0  0
  6  7  1  0  0  0  0
  6 30  1  0  0  0  0
  6 31  1  0  0  0  0
  7  8  1  0  0  0  0
  7 32  1  0  0  0  0
  7 33  1  0  0  0  0
  8  9  1  0  0  0  0
  8 34  1  0  0  0  0
  9 10  2  0  0  0  0
  9 11  1  0  0  0  0
 11 12  1  0  0  0  0
 11 35  1  0  0  0  0
 12 17  1  0  0  0  0
 12 13  2  0  0  0  0
 13 14  1  0  0  0  0
 13 36  1  0  0  0  0
 14 15  2  0  0  0  0
 14 37  1  0  0  0  0
 15 16  1  0  0  0  0
 15 38  1  0  0  0  0
 16 17  2  0  0  0  0
 16 39  1  0  0  0  0
 18 19  1  0  0  0  0
 18 40  1  0  0  0  0
 18 41  1  0  0  0  0
 19 20  1  0  0  0  0
 19 21  1  0  0  0  0
 19 42  1  0  0  0  0
 20 43  1  0  0  0  0
 20 44  1  0  0  0  0
 20 45  1  0  0  0  0
M  END
> <s_m_source_file>
AV-unprocessed.smi

> <i_m_source_file_index>
1692

> <i_lp_mmshare_version>
43012

> <i_f3d_flags>
0

> <s_epik_input>
W0NIM11bQ0BASF0xW0NIMl1OKFtDSDJdW0NASF0oTzEpW0NIM10pW0NIMl1bQ0gyXVtDSDJdW05IXUMoPU8pW05IXWMyW2NIXVtjSF1bY0hdW2NIXW4y

> <s_epik_cmdline>
J2VwaWtfcHl0aG9uJywgJy1waCcsICc3LjAnLCAnLXRuJywgJzgnLCAnLW1hJywgJzIwMCcsICctbWV0YWxfYmluZGluZycsICctaW1hZScsICc8aW5maWxlLm1hZT4nLCAnLW9tYWUnLCAnPG91dGZpbGUubWFlPic=

> <r_epik_Ionization_Penalty>
0.594711

> <r_epik_Ionization_Penalty_Charging>
0

> <r_epik_Ionization_Penalty_Neutral>
0.594711

> <r_epik_State_Penalty>
0.608529

> <r_epik_Charging_Adjusted_Penalty>
0.608529

> <i_epik_Tot_Q>
0

> <i_epik_Tot_abs_Q>
0

> <r_epik_Metal_State_Penalty>
0.608528

> <b_epik_Metal_Only>
0

> <s_lp_Force_Field>
OPLS_2005

> <r_lp_Energy>
25.6838

> <b_lp_Chiralities_Consistent>
1

> <s_lp_Variant>
AV-unprocessed.smi:1692-7

> <Gold.Version>
5.8.1

> <Gold.Id.Protein>
6NUR|6NUR_protein|mol2

> <Gold.PLP.Fitness>
47.2744

> <Gold.PLP.PLP>
-42.7283

> <Gold.PLP.part.hbond>
-2.0000

> <Gold.PLP.part.metal>
0.0000

> <Gold.PLP.part.buried>
-4.4737

> <Gold.PLP.part.nonpolar>
-36.5712

> <Gold.PLP.part.repulsive>
0.4897

> <Gold.PLP.ligand.clash>
0.0000

> <Gold.PLP.ligand.torsion>
0.7242

> <Gold.PLP.Chemscore.Hbond>
1.9920

> <Gold.PLP.Chemscore.CHOScore>
0.0000

> <Gold.PLP.Chemscore.Metal>
0.0000

> <Gold.Chemscore.Hbonds>
donor molecule, donor type, donor heavy atom, donor atom, acceptor molecule, acceptor atom, score
      L1  H     8    34       P1  8028  0.83
      L1  H    11    35       P1  8028  0.96

> <Gold.PLP.Chemscore.Internal.Correction>
0.0185

> <Gold.Rescore>
     Score         DG    S(hbond)    S(metal)    S(lipo)     H(rot)  DE(clash)    DE(int)     intcor
     16.20     -18.23       1.90        0.00      92.60       1.73       0.03       2.00       ----

> <Gold.Chemscore.Fitness>
16.2007

> <Gold.Chemscore.DG>
-18.2345

> <Gold.Chemscore.ZeroCoef>
-5.4800

> <Gold.Chemscore.Hbond>
1.8983

> <Gold.Chemscore.Metal>
0.0000

> <Gold.Chemscore.Lipo>
92.6007

> <Gold.Chemscore.Internal_Hbond>
0.0000

> <Gold.Chemscore.DEClash>
0.0343

> <Gold.Chemscore.DEInternal>
1.9996

> <Gold.Chemscore.Rot>
1.7266

> <Gold.Chemscore.Internal.Correction>
   9.000000E+99

> <Gold.Chemscore.Hbonds>
donor molecule, donor type, donor heavy atom, donor atom, acceptor molecule, acceptor atom, score
      L1  H     8    34       P1  8028  0.83
      L1  H    11    35       P1  8028  0.92

> <Gold.Chemscore.Hbond.Weighted>
-6.3403

> <Gold.Chemscore.Metal.Weighted>
-0.0000

> <Gold.Chemscore.Lipo.Weighted>
-10.8343

> <Gold.Chemscore.Internal_Hbond.Weighted>
0.0000

> <Gold.Chemscore.DEClash.Weighted>
0.0343

> <Gold.Chemscore.DEInternal.Weighted>
1.9996

> <Gold.Chemscore.Rot.Weighted>
4.4200

> <Gold.Chemscore.Internal.Correction.Weighted>
   9.000000E+99

> <Gold.Protein.RotatedTorsions>
[ 6907 6896 6895 6894 ] final   89.65 input  -60.11 | X-H torsion
[ 7974 7965 7964 7962 ] final -124.43 input  175.53 | X-H torsion
[ 8008 7997 7996 7995 ] final  100.63 input   59.86 | X-H torsion
[ 10167 10162 10161 10158 ] final -130.33 input  -65.29 | X-H torsion
[ 10718 10713 10712 10709 ] final  -25.13 input   66.30 | X-H torsion
[ 10763 10752 10751 10750 ] final -134.24 input  -60.55 | X-H torsion
[ 11005 11000 10999 10996 ] final  -68.36 input  -57.11 | X-H torsion

> <Gold.Protein.ActiveResidues>
 VAL166  LYS551  ARG553  GLY616  TRP617  ASP618  TYR619  PRO620  LYS621  CYS622 
 ASP623  PHE694  ASN695  SER759  ASP760  ASP761  ALA762  ILE779  LEU786  VAL792 
 PHE793  MET794  SER795  GLU796  ALA797  LYS798  CYS799  TRP800  GLU811  SER814 

> <Gold.Protein.RotatedAtoms>
  152.5438  134.1933  159.8682 H   0  0  0  0  0  0  0  0  0  0  0  0  # atno 6907 bound_to 6896
  151.1927  133.4651  159.2602 H   0  0  0  0  0  0  0  0  0  0  0  0  # atno 6908 bound_to 6896
  151.1067  135.0016  159.8530 H   0  0  0  0  0  0  0  0  0  0  0  0  # atno 6909 bound_to 6896
  145.0081  140.7881  143.4455 H   0  0  0  0  0  0  0  0  0  0  0  0  # atno 7974 bound_to 7965
  156.1222  140.3210  155.8225 H   0  0  0  0  0  0  0  0  0  0  0  0  # atno 8008 bound_to 7997
  155.4484  140.0530  157.3021 H   0  0  0  0  0  0  0  0  0  0  0  0  # atno 8009 bound_to 7997
  154.4836  140.2063  155.9720 H   0  0  0  0  0  0  0  0  0  0  0  0  # atno 8010 bound_to 7997
  139.9305  143.6278  152.2531 H   0  0  0  0  0  0  0  0  0  0  0  0  # atno 10167 bound_to 10162
  156.4684  130.4519  149.6885 H   0  0  0  0  0  0  0  0  0  0  0  0  # atno 10718 bound_to 10713
  154.8722  135.3741  154.4703 H   0  0  0  0  0  0  0  0  0  0  0  0  # atno 10763 bound_to 10752
  153.5364  135.7027  153.5663 H   0  0  0  0  0  0  0  0  0  0  0  0  # atno 10764 bound_to 10752
  153.3845  135.3988  155.1845 H   0  0  0  0  0  0  0  0  0  0  0  0  # atno 10765 bound_to 10752
  141.1530  133.6739  156.6434 H   0  0  0  0  0  0  0  0  0  0  0  0  # atno 11005 bound_to 11000
  145.2060  139.2228  143.5168 LP  0  0  0  0  0  0  0  0  0  0  0  0  # atno 17320 bound_to 7965
  146.3465  140.1888  142.8589 LP  0  0  0  0  0  0  0  0  0  0  0  0  # atno 17321 bound_to 7965
  139.6786  144.7657  151.1650 LP  0  0  0  0  0  0  0  0  0  0  0  0  # atno 17342 bound_to 10162
  140.7638  143.5758  150.8947 LP  0  0  0  0  0  0  0  0  0  0  0  0  # atno 17343 bound_to 10162
  156.3644  130.7498  151.2474 LP  0  0  0  0  0  0  0  0  0  0  0  0  # atno 17370 bound_to 10713
  157.7493  131.0341  150.4302 LP  0  0  0  0  0  0  0  0  0  0  0  0  # atno 17371 bound_to 10713
  140.3376  134.7876  157.4373 LP  0  0  0  0  0  0  0  0  0  0  0  0  # atno 17394 bound_to 11000
  140.0965  134.5531  155.8394 LP  0  0  0  0  0  0  0  0  0  0  0  0  # atno 17395 bound_to 11000

$$$$
