AV-unprocessed.smi:2449|AV-procd|sdf|9664|dock6
  -GOLD-   2272013303D 1   1.00000     0.00000
 Structure written by MMmdl.
 36 36  0  0  0  0  0  0  0  0  2 V2000
  153.8909  141.3439  161.2526 C   0  0  0  0  0  0  0  0  0  0  0  0
  153.3955  141.8886  159.9088 C   0  0  0  0  0  0  0  0  0  0  0  0
  152.2960  142.9568  160.0793 C   0  0  0  0  0  0  0  0  0  0  0  0
  151.8841  143.7203  158.7892 C   0  0  0  0  0  0  0  0  0  0  0  0
  150.7852  144.7534  159.1215 C   0  0  0  0  0  0  0  0  0  0  0  0
  153.0940  144.4802  158.2109 C   0  0  0  0  0  0  0  0  0  0  0  0
  151.4125  142.8040  157.7428 N   0  0  0  0  0  0  0  0  0  0  0  0
  150.2762  142.0852  157.7116 C   0  0  0  0  0  0  0  0  0  0  0  0
  149.4118  142.1272  158.5875 O   0  0  0  0  0  0  0  0  0  0  0  0
  150.0824  141.1917  156.4805 C   0  0  0  0  0  0  0  0  0  0  0  0
  151.0511  140.0852  156.4346 N   0  0  0  0  0  0  0  0  0  0  0  0
  151.7104  139.7401  157.6276 C   0  0  0  0  0  0  0  0  0  0  0  0
  152.6177  138.7461  157.6758 C   0  0  0  0  0  0  0  0  0  0  0  0
  152.9112  138.0190  156.4467 C   0  0  0  0  0  0  0  0  0  0  0  0
  153.7344  137.1063  156.4725 O   0  0  0  0  0  0  0  0  0  0  0  0
  152.2476  138.3934  155.3138 N   0  5  0  0  0  0  0  0  0  0  0  0
  151.3285  139.4079  155.2794 C   0  0  0  0  0  0  0  0  0  0  0  0
  150.7419  139.7307  154.2454 O   0  0  0  0  0  0  0  0  0  0  0  0
  154.6696  140.5955  161.1043 H   0  0  0  0  0  0  0  0  0  0  0  0
  153.0795  140.8730  161.8080 H   0  0  0  0  0  0  0  0  0  0  0  0
  154.3063  142.1392  161.8721 H   0  0  0  0  0  0  0  0  0  0  0  0
  154.2434  142.3042  159.3652 H   0  0  0  0  0  0  0  0  0  0  0  0
  153.0253  141.0542  159.3132 H   0  0  0  0  0  0  0  0  0  0  0  0
  151.4179  142.4771  160.5127 H   0  0  0  0  0  0  0  0  0  0  0  0
  152.6233  143.6784  160.8290 H   0  0  0  0  0  0  0  0  0  0  0  0
  151.1492  145.4992  159.8289 H   0  0  0  0  0  0  0  0  0  0  0  0
  149.9073  144.2901  159.5714 H   0  0  0  0  0  0  0  0  0  0  0  0
  150.4545  145.2843  158.2280 H   0  0  0  0  0  0  0  0  0  0  0  0
  153.5276  145.1567  158.9482 H   0  0  0  0  0  0  0  0  0  0  0  0
  152.8075  145.0807  157.3465 H   0  0  0  0  0  0  0  0  0  0  0  0
  153.8824  143.8033  157.8817 H   0  0  0  0  0  0  0  0  0  0  0  0
  152.0399  142.6794  156.9616 H   0  0  0  0  0  0  0  0  0  0  0  0
  149.0616  140.8080  156.4983 H   0  0  0  0  0  0  0  0  0  0  0  0
  150.1496  141.7858  155.5669 H   0  0  0  0  0  0  0  0  0  0  0  0
  151.4406  140.3310  158.4905 H   0  0  0  0  0  0  0  0  0  0  0  0
  153.1176  138.4952  158.5999 H   0  0  0  0  0  0  0  0  0  0  0  0
  1  2  1  0  0  0  0
  1 19  1  0  0  0  0
  1 20  1  0  0  0  0
  1 21  1  0  0  0  0
  2  3  1  0  0  0  0
  2 22  1  0  0  0  0
  2 23  1  0  0  0  0
  3  4  1  0  0  0  0
  3 24  1  0  0  0  0
  3 25  1  0  0  0  0
  4  5  1  0  0  0  0
  4  6  1  0  0  0  0
  4  7  1  0  0  0  0
  5 26  1  0  0  0  0
  5 27  1  0  0  0  0
  5 28  1  0  0  0  0
  6 29  1  0  0  0  0
  6 30  1  0  0  0  0
  6 31  1  0  0  0  0
  7  8  1  0  0  0  0
  7 32  1  0  0  0  0
  8  9  2  0  0  0  0
  8 10  1  0  0  0  0
 10 11  1  0  0  0  0
 10 33  1  0  0  0  0
 10 34  1  0  0  0  0
 11 17  1  0  0  0  0
 11 12  1  0  0  0  0
 12 13  2  0  0  0  0
 12 35  1  0  0  0  0
 13 14  1  0  0  0  0
 13 36  1  0  0  0  0
 14 15  2  0  0  0  0
 14 16  1  0  0  0  0
 16 17  1  0  0  0  0
 17 18  2  0  0  0  0
M  CHG  1  16  -1
M  END
> <s_m_source_file>
AV-unprocessed.smi

> <i_m_source_file_index>
2449

> <i_lp_mmshare_version>
43012

> <i_f3d_flags>
0

> <s_epik_input>
W0NIM11bQ0gyXVtDSDJdQyhbQ0gzXSkoW0NIM10pW05IXUMoPU8pW0NIMl1uMVtjSF1bY0hdYyg9TylbbkhdYzE9Tw==

> <s_epik_cmdline>
J2VwaWtfcHl0aG9uJywgJy1waCcsICc3LjAnLCAnLXRuJywgJzgnLCAnLW1hJywgJzIwMCcsICctbWV0YWxfYmluZGluZycsICctaW1hZScsICc8aW5maWxlLm1hZT4nLCAnLW9tYWUnLCAnPG91dGZpbGUubWFlPic=

> <r_lp_tautomer_probability>
0.999537

> <r_epik_Ionization_Penalty>
3.14746

> <r_epik_Ionization_Penalty_Charging>
2.94994e-08

> <r_epik_Ionization_Penalty_Neutral>
3.14746

> <r_epik_State_Penalty>
3.14658

> <r_epik_Charging_Adjusted_Penalty>
3.14658

> <i_epik_Tot_Q>
-1

> <i_epik_Tot_abs_Q>
1

> <r_epik_Metal_State_Penalty>
0.466037

> <b_epik_Metal_Only>
1

> <s_lp_Force_Field>
OPLS_2005

> <r_lp_Energy>
14.91

> <b_lp_Chiralities_Consistent>
1

> <s_lp_Variant>
AV-unprocessed.smi:2449-2

> <Gold.Version>
5.8.1

> <Gold.Id.Protein>
6NUR|6NUR_protein|mol2

> <Gold.PLP.Fitness>
41.1779

> <Gold.PLP.PLP>
-37.1690

> <Gold.PLP.part.hbond>
-2.4846

> <Gold.PLP.part.metal>
0.0000

> <Gold.PLP.part.buried>
-5.6286

> <Gold.PLP.part.nonpolar>
-30.0209

> <Gold.PLP.part.repulsive>
0.2740

> <Gold.PLP.ligand.clash>
0.0000

> <Gold.PLP.ligand.torsion>
0.4608

> <Gold.PLP.Chemscore.Hbond>
1.6289

> <Gold.PLP.Chemscore.CHOScore>
0.0000

> <Gold.PLP.Chemscore.Metal>
0.0000

> <Gold.Chemscore.Hbonds>
donor molecule, donor type, donor heavy atom, donor atom, acceptor molecule, acceptor atom, score
      P1  H  7989  7998       L1    18  1.00
      P1  H 10752 10765       L1    15  0.62

> <Gold.PLP.Chemscore.Internal.Correction>
0.0436

> <Gold.Rescore>
     Score         DG    S(hbond)    S(metal)    S(lipo)     H(rot)  DE(clash)    DE(int)     intcor
     15.73     -16.28       1.90        0.00      83.54       2.08       0.04       0.51       ----

> <Gold.Chemscore.Fitness>
15.7259

> <Gold.Chemscore.DG>
-16.2786

> <Gold.Chemscore.ZeroCoef>
-5.4800

> <Gold.Chemscore.Hbond>
1.9030

> <Gold.Chemscore.Metal>
0.0000

> <Gold.Chemscore.Lipo>
83.5419

> <Gold.Chemscore.Internal_Hbond>
0.0000

> <Gold.Chemscore.DEClash>
0.0396

> <Gold.Chemscore.DEInternal>
0.5130

> <Gold.Chemscore.Rot>
2.0828

> <Gold.Chemscore.Internal.Correction>
   9.000000E+99

> <Gold.Chemscore.Hbonds>
donor molecule, donor type, donor heavy atom, donor atom, acceptor molecule, acceptor atom, score
      P1  H  7989  7998       L1    18  0.69
      P1  H 10752 10765       L1    15  0.58

> <Gold.Chemscore.Hbond.Weighted>
-6.3561

> <Gold.Chemscore.Metal.Weighted>
-0.0000

> <Gold.Chemscore.Lipo.Weighted>
-9.7744

> <Gold.Chemscore.Internal_Hbond.Weighted>
0.0000

> <Gold.Chemscore.DEClash.Weighted>
0.0396

> <Gold.Chemscore.DEInternal.Weighted>
0.5130

> <Gold.Chemscore.Rot.Weighted>
5.3319

> <Gold.Chemscore.Internal.Correction.Weighted>
   9.000000E+99

> <Gold.Protein.RotatedTorsions>
[ 6907 6896 6895 6894 ] final  -48.78 input  -60.11 | X-H torsion
[ 7974 7965 7964 7962 ] final  -38.70 input  175.53 | X-H torsion
[ 8008 7997 7996 7995 ] final   25.09 input   59.86 | X-H torsion
[ 10167 10162 10161 10158 ] final   68.82 input  -65.29 | X-H torsion
[ 10718 10713 10712 10709 ] final   -0.91 input   66.30 | X-H torsion
[ 10763 10752 10751 10750 ] final -110.08 input  -60.55 | X-H torsion
[ 11005 11000 10999 10996 ] final  111.20 input  -57.11 | X-H torsion

> <Gold.Protein.ActiveResidues>
 VAL166  LYS551  ARG553  GLY616  TRP617  ASP618  TYR619  PRO620  LYS621  CYS622 
 ASP623  PHE694  ASN695  SER759  ASP760  ASP761  ALA762  ILE779  LEU786  VAL792 
 PHE793  MET794  SER795  GLU796  ALA797  LYS798  CYS799  TRP800  GLU811  SER814 

> <Gold.Protein.RotatedAtoms>
  150.8871  134.8270  159.7266 H   0  0  0  0  0  0  0  0  0  0  0  0  # atno 6907 bound_to 6896
  152.4814  134.4706  159.9644 H   0  0  0  0  0  0  0  0  0  0  0  0  # atno 6908 bound_to 6896
  151.4773  133.3516  159.2868 H   0  0  0  0  0  0  0  0  0  0  0  0  # atno 6909 bound_to 6896
  146.0463  140.6542  142.9063 H   0  0  0  0  0  0  0  0  0  0  0  0  # atno 7974 bound_to 7965
  155.0063  140.3131  155.4847 H   0  0  0  0  0  0  0  0  0  0  0  0  # atno 8008 bound_to 7997
  156.2916  140.2222  156.5117 H   0  0  0  0  0  0  0  0  0  0  0  0  # atno 8009 bound_to 7997
  154.7574  140.0461  157.0932 H   0  0  0  0  0  0  0  0  0  0  0  0  # atno 8010 bound_to 7997
  140.0745  144.5124  150.7204 H   0  0  0  0  0  0  0  0  0  0  0  0  # atno 10167 bound_to 10162
  156.8134  130.5432  149.5706 H   0  0  0  0  0  0  0  0  0  0  0  0  # atno 10718 bound_to 10713
  154.8228  135.4577  154.0830 H   0  0  0  0  0  0  0  0  0  0  0  0  # atno 10763 bound_to 10752
  153.2169  135.6889  153.8052 H   0  0  0  0  0  0  0  0  0  0  0  0  # atno 10764 bound_to 10752
  153.7483  135.3302  155.3293 H   0  0  0  0  0  0  0  0  0  0  0  0  # atno 10765 bound_to 10752
  139.8898  134.9502  156.6396 H   0  0  0  0  0  0  0  0  0  0  0  0  # atno 11005 bound_to 11000
  144.7099  140.3999  143.7088 LP  0  0  0  0  0  0  0  0  0  0  0  0  # atno 17320 bound_to 7965
  145.6801  139.1616  143.2706 LP  0  0  0  0  0  0  0  0  0  0  0  0  # atno 17321 bound_to 7965
  140.7109  143.2504  151.4584 LP  0  0  0  0  0  0  0  0  0  0  0  0  # atno 17342 bound_to 10162
  139.5816  144.1697  152.1975 LP  0  0  0  0  0  0  0  0  0  0  0  0  # atno 17343 bound_to 10162
  156.1031  130.5984  150.9926 LP  0  0  0  0  0  0  0  0  0  0  0  0  # atno 17370 bound_to 10713
  157.6494  131.0899  150.8084 LP  0  0  0  0  0  0  0  0  0  0  0  0  # atno 17371 bound_to 10713
  140.7604  133.8823  155.8413 LP  0  0  0  0  0  0  0  0  0  0  0  0  # atno 17394 bound_to 11000
  140.9927  134.1257  157.4393 LP  0  0  0  0  0  0  0  0  0  0  0  0  # atno 17395 bound_to 11000

$$$$
