AV-unprocessed.smi:207|AV-procd|sdf|1603|dock2
  -GOLD-   2262019513D 1   1.00000     0.00000
 Structure written by MMmdl.
 56 59  0  0  0  0  0  0  0  0  2 V2000
  145.9866  132.9470  153.4004 C   0  0  0  0  0  0  0  0  0  0  0  0
  147.2018  132.5841  152.5146 C   0  0  0  0  0  0  0  0  0  0  0  0
  147.0224  133.2305  151.1212 C   0  0  0  0  0  0  0  0  0  0  0  0
  148.4837  133.2176  153.1145 C   0  0  0  0  0  0  0  0  0  0  0  0
  148.9387  132.5341  154.3207 N   0  0  0  0  0  0  0  0  0  0  0  0
  149.7704  133.2420  155.1273 C   0  0  0  0  0  0  0  0  0  0  0  0
  150.7290  132.5440  155.7896 N   0  0  0  0  0  0  0  0  0  0  0  0
  151.5838  133.1694  156.6029 C   0  0  0  0  0  0  0  0  0  0  0  0
  151.6549  134.4680  156.8961 N   0  0  0  0  0  0  0  0  0  0  0  0
  150.6991  135.1800  156.2350 C   0  0  0  0  0  0  0  0  0  0  0  0
  149.7232  134.6535  155.3391 C   0  0  0  0  0  0  0  0  0  0  0  0
  148.9111  135.6853  154.8800 N   0  0  0  0  0  0  0  0  0  0  0  0
  149.3787  136.7526  155.4663 C   0  0  0  0  0  0  0  0  0  0  0  0
  150.4596  136.5426  156.2918 N   0  0  0  0  0  0  0  0  0  0  0  0
  151.1648  137.5481  157.0741 C   0  0  0  0  0  0  0  0  0  0  0  0
  151.6220  138.7777  156.2656 C   0  0  0  0  0  0  0  0  0  0  0  0
  152.5492  139.6375  157.1488 C   0  0  0  0  0  0  0  0  0  0  0  0
  153.6915  138.9289  157.5873 O   0  0  0  0  0  0  0  0  0  0  0  0
  152.1283  138.4678  154.8488 C   0  0  0  0  0  0  0  0  0  0  0  0
  151.2668  139.4696  154.2647 O   0  0  0  0  0  0  0  0  0  0  0  0
  150.5292  139.5422  155.5044 C   0  0  0  0  0  0  0  0  0  0  0  0
  149.1488  131.1046  154.1616 C   0  0  0  0  0  0  0  0  0  0  0  0
  147.8748  130.4390  153.6306 C   0  0  0  0  0  0  0  0  0  0  0  0
  147.3718  131.0941  152.3896 N   0  3  1  0  0  0  0  0  0  0  0  0
  146.2078  130.3581  151.8177 C   0  0  0  0  0  0  0  0  0  0  0  0
  146.4041  128.8347  151.8820 C   0  0  0  0  0  0  0  0  0  0  0  0
  147.3523  128.4320  150.9166 O   0  0  0  0  0  0  0  0  0  0  0  0
  145.8804  134.0287  153.4901 H   0  0  0  0  0  0  0  0  0  0  0  0
  146.0832  132.5534  154.4120 H   0  0  0  0  0  0  0  0  0  0  0  0
  145.0512  132.5690  152.9878 H   0  0  0  0  0  0  0  0  0  0  0  0
  147.0713  134.3184  151.1866 H   0  0  0  0  0  0  0  0  0  0  0  0
  146.0634  132.9999  150.6598 H   0  0  0  0  0  0  0  0  0  0  0  0
  147.8062  132.9126  150.4326 H   0  0  0  0  0  0  0  0  0  0  0  0
  149.2957  133.1649  152.3872 H   0  0  0  0  0  0  0  0  0  0  0  0
  148.3134  134.2791  153.2991 H   0  0  0  0  0  0  0  0  0  0  0  0
  152.3152  132.5397  157.0880 H   0  0  0  0  0  0  0  0  0  0  0  0
  148.9463  137.7303  155.3092 H   0  0  0  0  0  0  0  0  0  0  0  0
  150.5153  137.8553  157.8948 H   0  0  0  0  0  0  0  0  0  0  0  0
  152.0195  137.0616  157.5460 H   0  0  0  0  0  0  0  0  0  0  0  0
  152.9042  140.5136  156.6064 H   0  0  0  0  0  0  0  0  0  0  0  0
  152.0208  140.0017  158.0305 H   0  0  0  0  0  0  0  0  0  0  0  0
  153.4565  138.4215  158.3494 H   0  0  0  0  0  0  0  0  0  0  0  0
  153.1872  138.6744  154.6899 H   0  0  0  0  0  0  0  0  0  0  0  0
  151.8756  137.4662  154.4969 H   0  0  0  0  0  0  0  0  0  0  0  0
  149.5796  139.0120  155.4304 H   0  0  0  0  0  0  0  0  0  0  0  0
  150.3774  140.5663  155.8469 H   0  0  0  0  0  0  0  0  0  0  0  0
  149.9726  130.9362  153.4668 H   0  0  0  0  0  0  0  0  0  0  0  0
  149.4239  130.6519  155.1150 H   0  0  0  0  0  0  0  0  0  0  0  0
  148.0837  129.3863  153.4438 H   0  0  0  0  0  0  0  0  0  0  0  0
  147.1013  130.4654  154.3990 H   0  0  0  0  0  0  0  0  0  0  0  0
  145.3009  130.6406  152.3546 H   0  0  0  0  0  0  0  0  0  0  0  0
  146.0202  130.6238  150.7800 H   0  0  0  0  0  0  0  0  0  0  0  0
  146.7214  128.5008  152.8693 H   0  0  0  0  0  0  0  0  0  0  0  0
  145.4615  128.3314  151.6658 H   0  0  0  0  0  0  0  0  0  0  0  0
  148.0180  129.1002  150.8501 H   0  0  0  0  0  0  0  0  0  0  0  0
  148.1096  130.9851  151.7081 H   0  0  0  0  0  0  0  0  0  0  0  0
  1  2  1  0  0  0  0
  1 28  1  0  0  0  0
  1 29  1  0  0  0  0
  1 30  1  0  0  0  0
  2 24  1  0  0  0  0
  2  3  1  0  0  0  0
  2  4  1  0  0  0  0
  3 31  1  0  0  0  0
  3 32  1  0  0  0  0
  3 33  1  0  0  0  0
  4  5  1  0  0  0  0
  4 34  1  0  0  0  0
  4 35  1  0  0  0  0
  5  6  1  0  0  0  0
  5 22  1  0  0  0  0
  6 11  1  0  0  0  0
  6  7  2  0  0  0  0
  7  8  1  0  0  0  0
  8  9  2  0  0  0  0
  8 36  1  0  0  0  0
  9 10  1  0  0  0  0
 10 14  1  0  0  0  0
 10 11  2  0  0  0  0
 11 12  1  0  0  0  0
 12 13  2  0  0  0  0
 13 14  1  0  0  0  0
 13 37  1  0  0  0  0
 14 15  1  0  0  0  0
 15 16  1  0  0  0  0
 15 38  1  0  0  0  0
 15 39  1  0  0  0  0
 16 21  1  0  0  0  0
 16 17  1  0  0  0  0
 16 19  1  0  0  0  0
 17 18  1  0  0  0  0
 17 40  1  0  0  0  0
 17 41  1  0  0  0  0
 18 42  1  0  0  0  0
 19 20  1  0  0  0  0
 19 43  1  0  0  0  0
 19 44  1  0  0  0  0
 20 21  1  0  0  0  0
 21 45  1  0  0  0  0
 21 46  1  0  0  0  0
 22 23  1  0  0  0  0
 22 47  1  0  0  0  0
 22 48  1  0  0  0  0
 23 24  1  0  0  0  0
 23 49  1  0  0  0  0
 23 50  1  0  0  0  0
 24 25  1  0  0  0  0
 24 56  1  0  0  0  0
 25 26  1  0  0  0  0
 25 51  1  0  0  0  0
 25 52  1  0  0  0  0
 26 27  1  0  0  0  0
 26 53  1  0  0  0  0
 26 54  1  0  0  0  0
 27 55  1  0  0  0  0
M  CHG  1  24   1
M  END
> <s_m_source_file>
AV-unprocessed.smi

> <i_m_source_file_index>
207

> <i_lp_mmshare_version>
43012

> <i_f3d_flags>
0

> <s_epik_input>
W09IXVtDSDJdW0NIMl1OMVtDSDJdW0NIMl1OKFtDSDJdQzEoW0NIM10pW0NIM10pYyhuW2NIXW4yKWMoYzIzKW5bY0hdbjNbQ0gyXUM0KFtDSDJdW09IXSlbQ0gyXU9bQ0gyXTQ=

> <s_epik_cmdline>
J2VwaWtfcHl0aG9uJywgJy1waCcsICc3LjAnLCAnLXRuJywgJzgnLCAnLW1hJywgJzIwMCcsICctbWV0YWxfYmluZGluZycsICctaW1hZScsICc8aW5maWxlLm1hZT4nLCAnLW9tYWUnLCAnPG91dGZpbGUubWFlPic=

> <r_lp_tautomer_probability>
1

> <r_epik_Ionization_Penalty>
0.416568

> <r_epik_Ionization_Penalty_Charging>
0.416506

> <r_epik_Ionization_Penalty_Neutral>
6.2219e-05

> <r_epik_State_Penalty>
0.419386

> <r_epik_Charging_Adjusted_Penalty>
0.835892

> <i_epik_Tot_Q>
1

> <i_epik_Tot_abs_Q>
1

> <r_epik_Metal_State_Penalty>
0.420232

> <b_epik_Metal_Only>
0

> <s_lp_Force_Field>
OPLS_2005

> <r_lp_Energy>
56.8459

> <b_lp_Chiralities_Consistent>
1

> <s_lp_Variant>
AV-unprocessed.smi:207-2

> <Gold.Version>
5.8.1

> <Gold.Id.Protein>
6NUR|6NUR_protein|mol2

> <Gold.PLP.Fitness>
52.4420

> <Gold.PLP.PLP>
-41.1319

> <Gold.PLP.part.hbond>
-4.6643

> <Gold.PLP.part.metal>
0.0000

> <Gold.PLP.part.buried>
-6.8403

> <Gold.PLP.part.nonpolar>
-29.0078

> <Gold.PLP.part.repulsive>
0.3378

> <Gold.PLP.ligand.clash>
0.0000

> <Gold.PLP.ligand.torsion>
0.7912

> <Gold.PLP.Chemscore.Hbond>
4.0000

> <Gold.PLP.Chemscore.CHOScore>
0.0000

> <Gold.PLP.Chemscore.Metal>
0.0000

> <Gold.Chemscore.Hbonds>
donor molecule, donor type, donor heavy atom, donor atom, acceptor molecule, acceptor atom, score
      L1  H    24    56       P1 10747  1.00
      L1  H    27    55       P1 10747  1.00
      P1  H  7989  7998       L1    20  1.00
      P1  H  7997  8010       L1    18  0.80

> <Gold.PLP.Chemscore.Internal.Correction>
0.8926

> <Gold.Rescore>
     Score         DG    S(hbond)    S(metal)    S(lipo)     H(rot)  DE(clash)    DE(int)     intcor
     16.39     -17.88       3.87        0.00      78.71       3.80       0.71       0.79       ----

> <Gold.Chemscore.Fitness>
16.3875

> <Gold.Chemscore.DG>
-17.8797

> <Gold.Chemscore.ZeroCoef>
-5.4800

> <Gold.Chemscore.Hbond>
3.8676

> <Gold.Chemscore.Metal>
0.0000

> <Gold.Chemscore.Lipo>
78.7128

> <Gold.Chemscore.Internal_Hbond>
0.0000

> <Gold.Chemscore.DEClash>
0.7065

> <Gold.Chemscore.DEInternal>
0.7858

> <Gold.Chemscore.Rot>
3.7997

> <Gold.Chemscore.Internal.Correction>
   9.000000E+99

> <Gold.Chemscore.Hbonds>
donor molecule, donor type, donor heavy atom, donor atom, acceptor molecule, acceptor atom, score
      L1  H    24    56       P1 10747  1.00
      L1  H    27    55       P1 10747  0.28
      P1  H  7989  7998       L1    20  0.96
      P1  H  7997  8010       L1    18  0.11

> <Gold.Chemscore.Hbond.Weighted>
-12.9176

> <Gold.Chemscore.Metal.Weighted>
-0.0000

> <Gold.Chemscore.Lipo.Weighted>
-9.2094

> <Gold.Chemscore.Internal_Hbond.Weighted>
0.0000

> <Gold.Chemscore.DEClash.Weighted>
0.7065

> <Gold.Chemscore.DEInternal.Weighted>
0.7858

> <Gold.Chemscore.Rot.Weighted>
9.7273

> <Gold.Chemscore.Internal.Correction.Weighted>
   9.000000E+99

> <Gold.Protein.RotatedTorsions>
[ 6907 6896 6895 6894 ] final  171.78 input  -60.11 | X-H torsion
[ 7974 7965 7964 7962 ] final -138.52 input  175.53 | X-H torsion
[ 8008 7997 7996 7995 ] final   22.97 input   59.86 | X-H torsion
[ 10167 10162 10161 10158 ] final   44.96 input  -65.29 | X-H torsion
[ 10718 10713 10712 10709 ] final -122.04 input   66.30 | X-H torsion
[ 10763 10752 10751 10750 ] final  -11.84 input  -60.55 | X-H torsion
[ 11005 11000 10999 10996 ] final  158.21 input  -57.11 | X-H torsion

> <Gold.Protein.ActiveResidues>
 VAL166  LYS551  ARG553  GLY616  TRP617  ASP618  TYR619  PRO620  LYS621  CYS622 
 ASP623  PHE694  ASN695  SER759  ASP760  ASP761  ALA762  ILE779  LEU786  VAL792 
 PHE793  MET794  SER795  GLU796  ALA797  LYS798  CYS799  TRP800  GLU811  SER814 

> <Gold.Protein.RotatedAtoms>
  151.7948  133.3363  159.3509 H   0  0  0  0  0  0  0  0  0  0  0  0  # atno 6907 bound_to 6896
  150.7379  134.5809  159.5947 H   0  0  0  0  0  0  0  0  0  0  0  0  # atno 6908 bound_to 6896
  152.3184  134.7412  160.0371 H   0  0  0  0  0  0  0  0  0  0  0  0  # atno 6909 bound_to 6896
  144.8752  140.6426  143.5241 H   0  0  0  0  0  0  0  0  0  0  0  0  # atno 7974 bound_to 7965
  154.9739  140.3093  155.4976 H   0  0  0  0  0  0  0  0  0  0  0  0  # atno 8008 bound_to 7997
  156.2962  140.2279  156.4772 H   0  0  0  0  0  0  0  0  0  0  0  0  # atno 8009 bound_to 7997
  154.7851  140.0443  157.1146 H   0  0  0  0  0  0  0  0  0  0  0  0  # atno 8010 bound_to 7997
  140.3290  144.2611  150.6171 H   0  0  0  0  0  0  0  0  0  0  0  0  # atno 10167 bound_to 10162
  156.1386  130.6449  150.9735 H   0  0  0  0  0  0  0  0  0  0  0  0  # atno 10718 bound_to 10713
  153.4897  135.7017  153.5891 H   0  0  0  0  0  0  0  0  0  0  0  0  # atno 10763 bound_to 10752
  153.4069  135.3858  155.2024 H   0  0  0  0  0  0  0  0  0  0  0  0  # atno 10764 bound_to 10752
  154.8717  135.3895  154.4356 H   0  0  0  0  0  0  0  0  0  0  0  0  # atno 10765 bound_to 10752
  140.1843  134.8453  157.2839 H   0  0  0  0  0  0  0  0  0  0  0  0  # atno 11005 bound_to 11000
  145.4056  139.1589  143.4154 LP  0  0  0  0  0  0  0  0  0  0  0  0  # atno 17320 bound_to 7965
  146.2958  140.4156  142.8722 LP  0  0  0  0  0  0  0  0  0  0  0  0  # atno 17321 bound_to 7965
  140.5414  143.2223  151.8078 LP  0  0  0  0  0  0  0  0  0  0  0  0  # atno 17342 bound_to 10162
  139.4860  144.4595  151.9558 LP  0  0  0  0  0  0  0  0  0  0  0  0  # atno 17343 bound_to 10162
  157.6555  131.0890  150.7957 LP  0  0  0  0  0  0  0  0  0  0  0  0  # atno 17370 bound_to 10713
  156.8034  130.4928  149.5366 LP  0  0  0  0  0  0  0  0  0  0  0  0  # atno 17371 bound_to 10713
  140.2231  134.3999  155.7556 LP  0  0  0  0  0  0  0  0  0  0  0  0  # atno 17394 bound_to 11000
  141.2224  133.7176  156.8522 LP  0  0  0  0  0  0  0  0  0  0  0  0  # atno 17395 bound_to 11000

$$$$
