AV-unprocessed.smi:1123|AV-procd|sdf|4831|dock9
  -GOLD-   22720 3393D 1   1.00000     0.00000
 Structure written by MMmdl.
 38 39  0  0  0  0  0  0  0  0  2 V2000
  149.3093  141.1416  154.6310 C   0  0  0  0  0  0  0  0  0  0  0  0
  149.2232  139.6716  154.1721 C   0  0  2  0  0  0  0  0  0  0  0  0
  148.0191  138.9222  154.7705 C   0  0  0  0  0  0  0  0  0  0  0  0
  147.4602  139.3343  155.7879 O   0  0  0  0  0  0  0  0  0  0  0  0
  147.6137  137.8220  154.1154 N   0  0  0  0  0  0  0  0  0  0  0  0
  146.4899  136.9809  154.5096 C   0  0  0  0  0  0  0  0  0  0  0  0
  146.8114  135.4879  154.3069 C   0  0  0  0  0  0  0  0  0  0  0  0
  146.5744  135.0328  152.9139 N   0  3  0  0  0  0  0  0  0  0  0  0
  146.5407  133.5542  152.8068 C   0  0  0  0  0  0  0  0  0  0  0  0
  146.3442  133.1211  151.3443 C   0  0  0  0  0  0  0  0  0  0  0  0
  145.1478  133.6971  150.8362 O   0  0  0  0  0  0  0  0  0  0  0  0
  145.1979  135.1180  150.8462 C   0  0  0  0  0  0  0  0  0  0  0  0
  145.3637  135.6234  152.2902 C   0  0  0  0  0  0  0  0  0  0  0  0
  150.4656  138.9540  154.4330 N   0  0  0  0  0  0  0  0  0  0  0  0
  150.7252  137.6453  154.3971 C   0  0  0  0  0  0  0  0  0  0  0  0
  151.9721  137.3346  154.7220 N   0  0  0  0  0  0  0  0  0  0  0  0
  152.4621  138.5856  154.9694 C   0  0  0  0  0  0  0  0  0  0  0  0
  151.5995  139.5905  154.8194 N   0  0  0  0  0  0  0  0  0  0  0  0
  148.4047  141.6910  154.3685 H   0  0  0  0  0  0  0  0  0  0  0  0
  150.1475  141.6489  154.1526 H   0  0  0  0  0  0  0  0  0  0  0  0
  149.4462  141.2250  155.7100 H   0  0  0  0  0  0  0  0  0  0  0  0
  149.0794  139.6790  153.0904 H   0  0  0  0  0  0  0  0  0  0  0  0
  148.1247  137.5459  153.2892 H   0  0  0  0  0  0  0  0  0  0  0  0
  146.2806  137.1953  155.5568 H   0  0  0  0  0  0  0  0  0  0  0  0
  145.5959  137.2614  153.9495 H   0  0  0  0  0  0  0  0  0  0  0  0
  147.8625  135.3256  154.5505 H   0  0  0  0  0  0  0  0  0  0  0  0
  146.2357  134.8725  155.0001 H   0  0  0  0  0  0  0  0  0  0  0  0
  147.4704  133.1322  153.1903 H   0  0  0  0  0  0  0  0  0  0  0  0
  145.7311  133.1610  153.4240 H   0  0  0  0  0  0  0  0  0  0  0  0
  147.1961  133.4177  150.7305 H   0  0  0  0  0  0  0  0  0  0  0  0
  146.2684  132.0354  151.2808 H   0  0  0  0  0  0  0  0  0  0  0  0
  146.0152  135.4697  150.2145 H   0  0  0  0  0  0  0  0  0  0  0  0
  144.2741  135.5061  150.4170 H   0  0  0  0  0  0  0  0  0  0  0  0
  144.4830  135.3614  152.8788 H   0  0  0  0  0  0  0  0  0  0  0  0
  145.4300  136.7104  152.2796 H   0  0  0  0  0  0  0  0  0  0  0  0
  149.9865  136.9041  154.1294 H   0  0  0  0  0  0  0  0  0  0  0  0
  153.4836  138.7603  155.2737 H   0  0  0  0  0  0  0  0  0  0  0  0
  147.3688  135.3379  152.3695 H   0  0  0  0  0  0  0  0  0  0  0  0
  1  2  1  0  0  0  0
  1 19  1  0  0  0  0
  1 20  1  0  0  0  0
  1 21  1  0  0  0  0
  2  3  1  0  0  0  0
  2 14  1  0  0  0  0
  2 22  1  0  0  0  0
  3  4  2  0  0  0  0
  3  5  1  0  0  0  0
  5  6  1  0  0  0  0
  5 23  1  0  0  0  0
  6  7  1  0  0  0  0
  6 24  1  0  0  0  0
  6 25  1  0  0  0  0
  7  8  1  0  0  0  0
  7 26  1  0  0  0  0
  7 27  1  0  0  0  0
  8 13  1  0  0  0  0
  8  9  1  0  0  0  0
  8 38  1  0  0  0  0
  9 10  1  0  0  0  0
  9 28  1  0  0  0  0
  9 29  1  0  0  0  0
 10 11  1  0  0  0  0
 10 30  1  0  0  0  0
 10 31  1  0  0  0  0
 11 12  1  0  0  0  0
 12 13  1  0  0  0  0
 12 32  1  0  0  0  0
 12 33  1  0  0  0  0
 13 34  1  0  0  0  0
 13 35  1  0  0  0  0
 14 18  1  0  0  0  0
 14 15  1  0  0  0  0
 15 16  2  0  0  0  0
 15 36  1  0  0  0  0
 16 17  1  0  0  0  0
 17 18  2  0  0  0  0
 17 37  1  0  0  0  0
M  CHG  1   8   1
M  END
> <s_m_source_file>
AV-unprocessed.smi

> <i_m_source_file_index>
1123

> <i_lp_mmshare_version>
43012

> <i_f3d_flags>
0

> <s_epik_input>
bjFbY0hdbltjSF1uMVtDQEhdKFtDSDNdKUMoPU8pW05IXVtDSDJdW0NIMl1OMltDSDJdW0NIMl1PW0NIMl1bQ0gyXTI=

> <s_epik_cmdline>
J2VwaWtfcHl0aG9uJywgJy1waCcsICc3LjAnLCAnLXRuJywgJzgnLCAnLW1hJywgJzIwMCcsICctbWV0YWxfYmluZGluZycsICctaW1hZScsICc8aW5maWxlLm1hZT4nLCAnLW9tYWUnLCAnPG91dGZpbGUubWFlPic=

> <r_lp_tautomer_probability>
1

> <r_epik_Ionization_Penalty>
0.71326

> <r_epik_Ionization_Penalty_Charging>
0.713252

> <r_epik_Ionization_Penalty_Neutral>
7.98515e-06

> <r_epik_State_Penalty>
0.737017

> <r_epik_Charging_Adjusted_Penalty>
1.45027

> <i_epik_Tot_Q>
1

> <i_epik_Tot_abs_Q>
1

> <r_epik_Metal_State_Penalty>
0.73702

> <b_epik_Metal_Only>
0

> <s_lp_Force_Field>
OPLS_2005

> <r_lp_Energy>
21.5068

> <b_lp_Chiralities_Consistent>
1

> <s_lp_Variant>
AV-unprocessed.smi:1123-3

> <Gold.Version>
5.8.1

> <Gold.Id.Protein>
6NUR|6NUR_protein|mol2

> <Gold.PLP.Fitness>
44.3462

> <Gold.PLP.PLP>
-29.5372

> <Gold.PLP.part.hbond>
-4.0000

> <Gold.PLP.part.metal>
0.0000

> <Gold.PLP.part.buried>
-1.5339

> <Gold.PLP.part.nonpolar>
-24.0757

> <Gold.PLP.part.repulsive>
0.3297

> <Gold.PLP.ligand.clash>
0.0000

> <Gold.PLP.ligand.torsion>
1.2684

> <Gold.PLP.Chemscore.Hbond>
4.7160

> <Gold.PLP.Chemscore.CHOScore>
1.0220

> <Gold.PLP.Chemscore.Metal>
0.0000

> <Gold.Chemscore.Hbonds>
donor molecule, donor type, donor heavy atom, donor atom, acceptor molecule, acceptor atom, score
      L1  H     5    23       P1  7948  0.81
      L1  H     8    38       P1  7948  2.00
      P1  H  7989  7998       L1    18  0.90
      P1  H 10752 10765       L1    16  0.91
      L1  C    15    36       P1  7948  0.96

> <Gold.PLP.Chemscore.Internal.Correction>
0.1317

> <Gold.Rescore>
     Score         DG    S(hbond)    S(metal)    S(lipo)     H(rot)  DE(clash)    DE(int)     intcor
     11.29     -12.46       2.74        0.00      40.25       2.69       0.04       1.13       ----

> <Gold.Chemscore.Fitness>
11.2930

> <Gold.Chemscore.DG>
-12.4630

> <Gold.Chemscore.ZeroCoef>
-5.4800

> <Gold.Chemscore.Hbond>
2.7437

> <Gold.Chemscore.Metal>
0.0000

> <Gold.Chemscore.Lipo>
40.2537

> <Gold.Chemscore.Internal_Hbond>
0.0000

> <Gold.Chemscore.DEClash>
0.0370

> <Gold.Chemscore.DEInternal>
1.1330

> <Gold.Chemscore.Rot>
2.6916

> <Gold.Chemscore.Internal.Correction>
   9.000000E+99

> <Gold.Chemscore.Hbonds>
donor molecule, donor type, donor heavy atom, donor atom, acceptor molecule, acceptor atom, score
      L1  H     5    23       P1  7948  0.80
      L1  H     8    38       P1  7948  1.00
      P1  H  7989  7998       L1    18  0.18
      P1  H 10752 10765       L1    16  0.87

> <Gold.Chemscore.Hbond.Weighted>
-9.1639

> <Gold.Chemscore.Metal.Weighted>
-0.0000

> <Gold.Chemscore.Lipo.Weighted>
-4.7097

> <Gold.Chemscore.Internal_Hbond.Weighted>
0.0000

> <Gold.Chemscore.DEClash.Weighted>
0.0370

> <Gold.Chemscore.DEInternal.Weighted>
1.1330

> <Gold.Chemscore.Rot.Weighted>
6.8906

> <Gold.Chemscore.Internal.Correction.Weighted>
   9.000000E+99

> <Gold.Protein.RotatedTorsions>
[ 6907 6896 6895 6894 ] final  -50.09 input  -60.11 | X-H torsion
[ 7974 7965 7964 7962 ] final   13.23 input  175.53 | X-H torsion
[ 8008 7997 7996 7995 ] final  107.67 input   59.86 | X-H torsion
[ 10167 10162 10161 10158 ] final  -13.37 input  -65.29 | X-H torsion
[ 10718 10713 10712 10709 ] final  140.14 input   66.30 | X-H torsion
[ 10763 10752 10751 10750 ] final  165.41 input  -60.55 | X-H torsion
[ 11005 11000 10999 10996 ] final  -40.47 input  -57.11 | X-H torsion

> <Gold.Protein.ActiveResidues>
 VAL166  LYS551  ARG553  GLY616  TRP617  ASP618  TYR619  PRO620  LYS621  CYS622 
 ASP623  PHE694  ASN695  SER759  ASP760  ASP761  ALA762  ILE779  LEU786  VAL792 
 PHE793  MET794  SER795  GLU796  ALA797  LYS798  CYS799  TRP800  GLU811  SER814 

> <Gold.Protein.RotatedAtoms>
  150.8741  134.8121  159.7176 H   0  0  0  0  0  0  0  0  0  0  0  0  # atno 6907 bound_to 6896
  152.4735  134.4899  159.9702 H   0  0  0  0  0  0  0  0  0  0  0  0  # atno 6908 bound_to 6896
  151.4983  133.3471  159.2900 H   0  0  0  0  0  0  0  0  0  0  0  0  # atno 6909 bound_to 6896
  146.2334  139.9219  142.8509 H   0  0  0  0  0  0  0  0  0  0  0  0  # atno 7974 bound_to 7965
  156.1843  140.3090  155.9207 H   0  0  0  0  0  0  0  0  0  0  0  0  # atno 8008 bound_to 7997
  155.3316  140.0461  157.3060 H   0  0  0  0  0  0  0  0  0  0  0  0  # atno 8009 bound_to 7997
  154.5377  140.2251  155.8703 H   0  0  0  0  0  0  0  0  0  0  0  0  # atno 8010 bound_to 7997
  140.7181  143.5434  150.9383 H   0  0  0  0  0  0  0  0  0  0  0  0  # atno 10167 bound_to 10162
  157.4066  131.1023  151.0497 H   0  0  0  0  0  0  0  0  0  0  0  0  # atno 10718 bound_to 10713
  154.3236  135.2755  155.2507 H   0  0  0  0  0  0  0  0  0  0  0  0  # atno 10763 bound_to 10752
  154.4850  135.5848  153.6420 H   0  0  0  0  0  0  0  0  0  0  0  0  # atno 10764 bound_to 10752
  152.9874  135.6120  154.3422 H   0  0  0  0  0  0  0  0  0  0  0  0  # atno 10765 bound_to 10752
  141.0177  133.6878  156.2325 H   0  0  0  0  0  0  0  0  0  0  0  0  # atno 11005 bound_to 11000
  145.2128  140.9903  143.4091 LP  0  0  0  0  0  0  0  0  0  0  0  0  # atno 17320 bound_to 7965
  144.9676  139.3913  143.6325 LP  0  0  0  0  0  0  0  0  0  0  0  0  # atno 17321 bound_to 7965
  139.9157  143.6667  152.3107 LP  0  0  0  0  0  0  0  0  0  0  0  0  # atno 17342 bound_to 10162
  139.7065  144.7627  151.1183 LP  0  0  0  0  0  0  0  0  0  0  0  0  # atno 17343 bound_to 10162
  157.1477  130.6170  149.5573 LP  0  0  0  0  0  0  0  0  0  0  0  0  # atno 17370 bound_to 10713
  155.9838  130.4860  150.6952 LP  0  0  0  0  0  0  0  0  0  0  0  0  # atno 17371 bound_to 10713
  140.6627  134.4951  157.5584 LP  0  0  0  0  0  0  0  0  0  0  0  0  # atno 17394 bound_to 11000
  139.9127  134.8311  156.1473 LP  0  0  0  0  0  0  0  0  0  0  0  0  # atno 17395 bound_to 11000

$$$$
