AV-unprocessed.smi:3183|AV-procd|sdf|12157|dock10
  -GOLD-   2272017593D 1   1.00000     0.00000
 Structure written by MMmdl.
 43 44  0  0  0  0  0  0  0  0  2 V2000
  143.7279  132.6278  149.2671 C   0  0  0  0  0  0  0  0  0  0  0  0
  144.8863  133.1687  150.1214 C   0  0  2  0  0  0  0  0  0  0  0  0
  145.6553  132.0349  150.8270 C   0  0  0  0  0  0  0  0  0  0  0  0
  146.8626  132.5776  151.6073 C   0  0  0  0  0  0  0  0  0  0  0  0
  146.4492  133.6600  152.6208 C   0  0  1  0  0  0  0  0  0  0  0  0
  147.6502  134.1741  153.3162 N   0  3  0  0  0  0  0  0  0  0  0  0
  148.7234  133.1834  153.5430 C   0  0  0  0  0  0  0  0  0  0  0  0
  149.9139  133.8208  154.2743 C   0  0  0  0  0  0  0  0  0  0  0  0
  150.4365  133.0106  155.4215 C   0  0  0  0  0  0  0  0  0  0  0  0
  151.1495  131.8428  155.4507 C   0  0  0  0  0  0  0  0  0  0  0  0
  151.3412  131.5858  156.8360 C   0  0  0  0  0  0  0  0  0  0  0  0
  150.7951  132.5125  157.6033 N   0  0  0  0  0  0  0  0  0  0  0  0
  150.2388  133.3864  156.7382 N   0  0  0  0  0  0  0  0  0  0  0  0
  149.5457  134.5506  157.2555 C   0  0  0  0  0  0  0  0  0  0  0  0
  145.6739  134.7911  151.9077 C   0  0  0  0  0  0  0  0  0  0  0  0
  144.4515  134.2697  151.1220 C   0  0  2  0  0  0  0  0  0  0  0  0
  143.3061  133.8499  152.0659 C   0  0  0  0  0  0  0  0  0  0  0  0
  143.0151  132.0588  149.8645 H   0  0  0  0  0  0  0  0  0  0  0  0
  144.0991  131.9639  148.4857 H   0  0  0  0  0  0  0  0  0  0  0  0
  143.1862  133.4381  148.7786 H   0  0  0  0  0  0  0  0  0  0  0  0
  145.5831  133.6371  149.4242 H   0  0  0  0  0  0  0  0  0  0  0  0
  144.9928  131.4922  151.5019 H   0  0  0  0  0  0  0  0  0  0  0  0
  146.0000  131.3075  150.0909 H   0  0  0  0  0  0  0  0  0  0  0  0
  147.3624  131.7553  152.1209 H   0  0  0  0  0  0  0  0  0  0  0  0
  147.5893  132.9879  150.9043 H   0  0  0  0  0  0  0  0  0  0  0  0
  145.8063  133.1929  153.3680 H   0  0  0  0  0  0  0  0  0  0  0  0
  148.0391  134.9101  152.7441 H   0  0  0  0  0  0  0  0  0  0  0  0
  148.3356  132.3507  154.1295 H   0  0  0  0  0  0  0  0  0  0  0  0
  149.0512  132.7822  152.5830 H   0  0  0  0  0  0  0  0  0  0  0  0
  150.7229  133.9883  153.5622 H   0  0  0  0  0  0  0  0  0  0  0  0
  149.6227  134.8058  154.6409 H   0  0  0  0  0  0  0  0  0  0  0  0
  151.4870  131.2555  154.6097 H   0  0  0  0  0  0  0  0  0  0  0  0
  151.8577  130.7602  157.3033 H   0  0  0  0  0  0  0  0  0  0  0  0
  148.5628  134.6324  156.7915 H   0  0  0  0  0  0  0  0  0  0  0  0
  150.1222  135.4484  157.0319 H   0  0  0  0  0  0  0  0  0  0  0  0
  149.4165  134.4736  158.3359 H   0  0  0  0  0  0  0  0  0  0  0  0
  145.3437  135.5450  152.6223 H   0  0  0  0  0  0  0  0  0  0  0  0
  146.3448  135.3061  151.2184 H   0  0  0  0  0  0  0  0  0  0  0  0
  144.0713  135.1084  150.5371 H   0  0  0  0  0  0  0  0  0  0  0  0
  143.5585  132.9704  152.6570 H   0  0  0  0  0  0  0  0  0  0  0  0
  142.3948  133.6248  151.5122 H   0  0  0  0  0  0  0  0  0  0  0  0
  143.0618  134.6529  152.7616 H   0  0  0  0  0  0  0  0  0  0  0  0
  147.3708  134.5719  154.2017 H   0  0  0  0  0  0  0  0  0  0  0  0
  1  2  1  0  0  0  0
  1 18  1  0  0  0  0
  1 19  1  0  0  0  0
  1 20  1  0  0  0  0
  2 16  1  0  0  0  0
  2  3  1  0  0  0  0
  2 21  1  0  0  0  0
  3  4  1  0  0  0  0
  3 22  1  0  0  0  0
  3 23  1  0  0  0  0
  4  5  1  0  0  0  0
  4 24  1  0  0  0  0
  4 25  1  0  0  0  0
  5  6  1  0  0  0  0
  5 15  1  0  0  0  0
  5 26  1  0  0  0  0
  6  7  1  0  0  0  0
  6 27  1  0  0  0  0
  6 43  1  0  0  0  0
  7  8  1  0  0  0  0
  7 28  1  0  0  0  0
  7 29  1  0  0  0  0
  8  9  1  0  0  0  0
  8 30  1  0  0  0  0
  8 31  1  0  0  0  0
  9 13  1  0  0  0  0
  9 10  2  0  0  0  0
 10 11  1  0  0  0  0
 10 32  1  0  0  0  0
 11 12  2  0  0  0  0
 11 33  1  0  0  0  0
 12 13  1  0  0  0  0
 13 14  1  0  0  0  0
 14 34  1  0  0  0  0
 14 35  1  0  0  0  0
 14 36  1  0  0  0  0
 15 16  1  0  0  0  0
 15 37  1  0  0  0  0
 15 38  1  0  0  0  0
 16 17  1  0  0  0  0
 16 39  1  0  0  0  0
 17 40  1  0  0  0  0
 17 41  1  0  0  0  0
 17 42  1  0  0  0  0
M  CHG  1   6   1
M  END
> <s_m_source_file>
AV-unprocessed.smi

> <i_m_source_file_index>
3183

> <i_lp_mmshare_version>
43012

> <i_f3d_flags>
0

> <s_epik_input>
W0NIM11bQ0BASF0xW0NIMl1bQ0gyXVtDQEhdKFtDSDJdW0NASF0xW0NIM10pW05IXVtDSDJdW0NIMl1jMltjSF1bY0hdbm4yW0NIM10=

> <s_epik_cmdline>
J2VwaWtfcHl0aG9uJywgJy1waCcsICc3LjAnLCAnLXRuJywgJzgnLCAnLW1hJywgJzIwMCcsICctbWV0YWxfYmluZGluZycsICctaW1hZScsICc8aW5maWxlLm1hZT4nLCAnLW9tYWUnLCAnPG91dGZpbGUubWFlPic=

> <r_lp_tautomer_probability>
1

> <r_epik_Ionization_Penalty>
0.000327718

> <r_epik_Ionization_Penalty_Charging>
0.000294043

> <r_epik_Ionization_Penalty_Neutral>
3.36755e-05

> <r_epik_State_Penalty>
-0

> <r_epik_Charging_Adjusted_Penalty>
0.000294043

> <i_epik_Tot_Q>
1

> <i_epik_Tot_abs_Q>
1

> <r_epik_Metal_State_Penalty>
-0

> <b_epik_Metal_Only>
0

> <s_lp_Force_Field>
OPLS_2005

> <r_lp_Energy>
13.9597

> <b_lp_Chiralities_Consistent>
1

> <s_lp_Variant>
AV-unprocessed.smi:3183-5

> <Gold.Version>
5.8.1

> <Gold.Id.Protein>
6NUR|6NUR_protein|mol2

> <Gold.PLP.Fitness>
40.2809

> <Gold.PLP.PLP>
-32.7576

> <Gold.PLP.part.hbond>
-2.0000

> <Gold.PLP.part.metal>
0.0000

> <Gold.PLP.part.buried>
-2.9625

> <Gold.PLP.part.nonpolar>
-28.0986

> <Gold.PLP.part.repulsive>
0.0000

> <Gold.PLP.ligand.clash>
0.0000

> <Gold.PLP.ligand.torsion>
0.7421

> <Gold.PLP.Chemscore.Hbond>
3.0000

> <Gold.PLP.Chemscore.CHOScore>
0.0000

> <Gold.PLP.Chemscore.Metal>
0.0000

> <Gold.Chemscore.Hbonds>
donor molecule, donor type, donor heavy atom, donor atom, acceptor molecule, acceptor atom, score
      L1  H     6    27       P1  7948  2.00
      P1  H  6896  6907       L1    12  1.00

> <Gold.PLP.Chemscore.Internal.Correction>
0.0074

> <Gold.Rescore>
     Score         DG    S(hbond)    S(metal)    S(lipo)     H(rot)  DE(clash)    DE(int)     intcor
     18.14     -18.97       1.95        0.00      89.65       1.38       0.10       0.73       ----

> <Gold.Chemscore.Fitness>
18.1423

> <Gold.Chemscore.DG>
-18.9731

> <Gold.Chemscore.ZeroCoef>
-5.4800

> <Gold.Chemscore.Hbond>
1.9549

> <Gold.Chemscore.Metal>
0.0000

> <Gold.Chemscore.Lipo>
89.6463

> <Gold.Chemscore.Internal_Hbond>
0.0000

> <Gold.Chemscore.DEClash>
0.0972

> <Gold.Chemscore.DEInternal>
0.7336

> <Gold.Chemscore.Rot>
1.3768

> <Gold.Chemscore.Internal.Correction>
   9.000000E+99

> <Gold.Chemscore.Hbonds>
donor molecule, donor type, donor heavy atom, donor atom, acceptor molecule, acceptor atom, score
      L1  H     6    27       P1  7948  0.88
      P1  H  6896  6907       L1    12  0.74

> <Gold.Chemscore.Hbond.Weighted>
-6.5292

> <Gold.Chemscore.Metal.Weighted>
-0.0000

> <Gold.Chemscore.Lipo.Weighted>
-10.4886

> <Gold.Chemscore.Internal_Hbond.Weighted>
0.0000

> <Gold.Chemscore.DEClash.Weighted>
0.0972

> <Gold.Chemscore.DEInternal.Weighted>
0.7336

> <Gold.Chemscore.Rot.Weighted>
3.5247

> <Gold.Chemscore.Internal.Correction.Weighted>
   9.000000E+99

> <Gold.Protein.RotatedTorsions>
[ 6907 6896 6895 6894 ] final -155.14 input  -60.11 | X-H torsion
[ 7974 7965 7964 7962 ] final  -12.03 input  175.53 | X-H torsion
[ 8008 7997 7996 7995 ] final   13.21 input   59.86 | X-H torsion
[ 10167 10162 10161 10158 ] final   -2.96 input  -65.29 | X-H torsion
[ 10718 10713 10712 10709 ] final  161.83 input   66.30 | X-H torsion
[ 10763 10752 10751 10750 ] final  157.27 input  -60.55 | X-H torsion
[ 11005 11000 10999 10996 ] final  162.97 input  -57.11 | X-H torsion

> <Gold.Protein.ActiveResidues>
 VAL166  LYS551  ARG553  GLY616  TRP617  ASP618  TYR619  PRO620  LYS621  CYS622 
 ASP623  PHE694  ASN695  SER759  ASP760  ASP761  ALA762  ILE779  LEU786  VAL792 
 PHE793  MET794  SER795  GLU796  ALA797  LYS798  CYS799  TRP800  GLU811  SER814 

> <Gold.Protein.RotatedAtoms>
  151.2681  133.4269  159.2619 H   0  0  0  0  0  0  0  0  0  0  0  0  # atno 6907 bound_to 6896
  151.0470  134.9647  159.8202 H   0  0  0  0  0  0  0  0  0  0  0  0  # atno 6908 bound_to 6896
  152.5376  134.2636  159.8997 H   0  0  0  0  0  0  0  0  0  0  0  0  # atno 6909 bound_to 6896
  146.2166  140.2998  142.8374 H   0  0  0  0  0  0  0  0  0  0  0  0  # atno 7974 bound_to 7965
  154.8313  140.2900  155.5720 H   0  0  0  0  0  0  0  0  0  0  0  0  # atno 8008 bound_to 7997
  156.3005  140.2531  156.3170 H   0  0  0  0  0  0  0  0  0  0  0  0  # atno 8009 bound_to 7997
  154.9228  140.0385  157.1996 H   0  0  0  0  0  0  0  0  0  0  0  0  # atno 8010 bound_to 7997
  140.6871  143.6596  150.8278 H   0  0  0  0  0  0  0  0  0  0  0  0  # atno 10167 bound_to 10162
  157.1311  131.0517  151.2371 H   0  0  0  0  0  0  0  0  0  0  0  0  # atno 10718 bound_to 10713
  154.1976  135.2792  155.3001 H   0  0  0  0  0  0  0  0  0  0  0  0  # atno 10763 bound_to 10752
  154.5880  135.5569  153.7253 H   0  0  0  0  0  0  0  0  0  0  0  0  # atno 10764 bound_to 10752
  153.0096  135.6361  154.2114 H   0  0  0  0  0  0  0  0  0  0  0  0  # atno 10765 bound_to 10752
  140.2311  134.8123  157.3318 H   0  0  0  0  0  0  0  0  0  0  0  0  # atno 11005 bound_to 11000
  144.9066  140.7707  143.5834 LP  0  0  0  0  0  0  0  0  0  0  0  0  # atno 17320 bound_to 7965
  145.2926  139.1878  143.4732 LP  0  0  0  0  0  0  0  0  0  0  0  0  # atno 17321 bound_to 7965
  140.0304  143.5449  152.2762 LP  0  0  0  0  0  0  0  0  0  0  0  0  # atno 17342 bound_to 10162
  139.6240  144.7634  151.2679 LP  0  0  0  0  0  0  0  0  0  0  0  0  # atno 17343 bound_to 10162
  157.4391  130.7534  149.7054 LP  0  0  0  0  0  0  0  0  0  0  0  0  # atno 17370 bound_to 10713
  155.9808  130.4026  150.3509 LP  0  0  0  0  0  0  0  0  0  0  0  0  # atno 17371 bound_to 10713
  140.1749  134.4562  155.7808 LP  0  0  0  0  0  0  0  0  0  0  0  0  # atno 17394 bound_to 11000
  141.2217  133.6958  156.7771 LP  0  0  0  0  0  0  0  0  0  0  0  0  # atno 17395 bound_to 11000

$$$$
