AV-unprocessed.smi:467|AV-procd|sdf|2646|dock7
  -GOLD-   2262023 53D 1   1.00000     0.00000
 Structure written by MMmdl.
 45 47  0  0  0  0  0  0  0  0  2 V2000
  152.2650  143.3760  160.4585 C   0  0  0  0  0  0  0  0  0  0  0  0
  152.0502  142.4256  159.2937 C   0  0  0  0  0  0  0  0  0  0  0  0
  151.0906  142.7514  158.3090 C   0  0  0  0  0  0  0  0  0  0  0  0
  150.8585  141.8933  157.2119 C   0  0  0  0  0  0  0  0  0  0  0  0
  149.9789  142.0113  156.1494 N   0  0  0  0  0  0  0  0  0  0  0  0
  150.2304  140.8974  155.4683 C   0  0  0  0  0  0  0  0  0  0  0  0
  151.1736  140.0720  155.9614 N   0  0  0  0  0  0  0  0  0  0  0  0
  151.6128  138.8098  155.3927 C   0  0  0  0  0  0  0  0  0  0  0  0
  150.4415  137.9572  154.8681 C   0  0  1  0  0  0  0  0  0  0  0  0
  150.1129  138.3654  153.5531 O   0  0  0  0  0  0  0  0  0  0  0  0
  150.7913  136.4563  154.8481 C   0  0  0  0  0  0  0  0  0  0  0  0
  149.6628  135.6167  154.3712 N   0  3  0  0  0  0  0  0  0  0  0  0
  149.9714  134.1678  154.4203 C   0  0  0  0  0  0  0  0  0  0  0  0
  148.7964  133.3477  153.8614 C   0  0  0  0  0  0  0  0  0  0  0  0
  147.6140  133.6490  154.5919 O   0  0  0  0  0  0  0  0  0  0  0  0
  147.2556  135.0207  154.4810 C   0  0  0  0  0  0  0  0  0  0  0  0
  148.3791  135.8961  155.0621 C   0  0  0  0  0  0  0  0  0  0  0  0
  151.6203  140.6911  157.1246 C   0  0  0  0  0  0  0  0  0  0  0  0
  152.5804  140.3579  158.0966 C   0  0  0  0  0  0  0  0  0  0  0  0
  152.7980  141.2256  159.1875 C   0  0  0  0  0  0  0  0  0  0  0  0
  153.8338  140.8549  160.2343 C   0  0  0  0  0  0  0  0  0  0  0  0
  151.5787  144.2221  160.4141 H   0  0  0  0  0  0  0  0  0  0  0  0
  153.2822  143.7684  160.4477 H   0  0  0  0  0  0  0  0  0  0  0  0
  152.1009  142.8633  161.4066 H   0  0  0  0  0  0  0  0  0  0  0  0
  150.5213  143.6659  158.3891 H   0  0  0  0  0  0  0  0  0  0  0  0
  149.6993  140.6681  154.5560 H   0  0  0  0  0  0  0  0  0  0  0  0
  152.3255  139.0141  154.5928 H   0  0  0  0  0  0  0  0  0  0  0  0
  152.1599  138.2637  156.1625 H   0  0  0  0  0  0  0  0  0  0  0  0
  149.5743  138.1349  155.5034 H   0  0  0  0  0  0  0  0  0  0  0  0
  149.6456  137.6639  153.1247 H   0  0  0  0  0  0  0  0  0  0  0  0
  151.6592  136.3112  154.2025 H   0  0  0  0  0  0  0  0  0  0  0  0
  151.0945  136.1183  155.8404 H   0  0  0  0  0  0  0  0  0  0  0  0
  150.8704  133.9601  153.8386 H   0  0  0  0  0  0  0  0  0  0  0  0
  150.1786  133.8717  155.4500 H   0  0  0  0  0  0  0  0  0  0  0  0
  148.6457  133.5535  152.8005 H   0  0  0  0  0  0  0  0  0  0  0  0
  149.0059  132.2817  153.9521 H   0  0  0  0  0  0  0  0  0  0  0  0
  147.0613  135.2766  153.4382 H   0  0  0  0  0  0  0  0  0  0  0  0
  146.3274  135.1883  155.0279 H   0  0  0  0  0  0  0  0  0  0  0  0
  148.4858  135.6996  156.1301 H   0  0  0  0  0  0  0  0  0  0  0  0
  148.1075  136.9460  154.9573 H   0  0  0  0  0  0  0  0  0  0  0  0
  153.1443  139.4415  158.0055 H   0  0  0  0  0  0  0  0  0  0  0  0
  154.3315  139.9167  159.9875 H   0  0  0  0  0  0  0  0  0  0  0  0
  153.3628  140.7373  161.2106 H   0  0  0  0  0  0  0  0  0  0  0  0
  154.5976  141.6291  160.3087 H   0  0  0  0  0  0  0  0  0  0  0  0
  149.5313  135.8449  153.3955 H   0  0  0  0  0  0  0  0  0  0  0  0
  1  2  1  0  0  0  0
  1 22  1  0  0  0  0
  1 23  1  0  0  0  0
  1 24  1  0  0  0  0
  2 20  1  0  0  0  0
  2  3  2  0  0  0  0
  3  4  1  0  0  0  0
  3 25  1  0  0  0  0
  4 18  2  0  0  0  0
  4  5  1  0  0  0  0
  5  6  2  0  0  0  0
  6  7  1  0  0  0  0
  6 26  1  0  0  0  0
  7  8  1  0  0  0  0
  7 18  1  0  0  0  0
  8  9  1  0  0  0  0
  8 27  1  0  0  0  0
  8 28  1  0  0  0  0
  9 10  1  0  0  0  0
  9 11  1  0  0  0  0
  9 29  1  0  0  0  0
 10 30  1  0  0  0  0
 11 12  1  0  0  0  0
 11 31  1  0  0  0  0
 11 32  1  0  0  0  0
 12 17  1  0  0  0  0
 12 13  1  0  0  0  0
 12 45  1  0  0  0  0
 13 14  1  0  0  0  0
 13 33  1  0  0  0  0
 13 34  1  0  0  0  0
 14 15  1  0  0  0  0
 14 35  1  0  0  0  0
 14 36  1  0  0  0  0
 15 16  1  0  0  0  0
 16 17  1  0  0  0  0
 16 37  1  0  0  0  0
 16 38  1  0  0  0  0
 17 39  1  0  0  0  0
 17 40  1  0  0  0  0
 18 19  1  0  0  0  0
 19 20  2  0  0  0  0
 19 41  1  0  0  0  0
 20 21  1  0  0  0  0
 21 42  1  0  0  0  0
 21 43  1  0  0  0  0
 21 44  1  0  0  0  0
M  CHG  1  12   1
M  END
> <s_m_source_file>
AV-unprocessed.smi

> <i_m_source_file_index>
467

> <i_lp_mmshare_version>
43012

> <i_f3d_flags>
0

> <s_epik_input>
W0NIM11jKFtjSF0xKWMoW0NIM10pW2NIXWMoYzEyKW4oW2NIXW4yKVtDSDJdW0NASF0oW09IXSlbQ0gyXU4zW0NIMl1bQ0gyXU9bQ0gyXVtDSDJdMw==

> <s_epik_cmdline>
J2VwaWtfcHl0aG9uJywgJy1waCcsICc3LjAnLCAnLXRuJywgJzgnLCAnLW1hJywgJzIwMCcsICctbWV0YWxfYmluZGluZycsICctaW1hZScsICc8aW5maWxlLm1hZT4nLCAnLW9tYWUnLCAnPG91dGZpbGUubWFlPic=

> <r_epik_Ionization_Penalty>
0.695168

> <r_epik_Ionization_Penalty_Charging>
0.608065

> <r_epik_Ionization_Penalty_Neutral>
0.0871028

> <r_epik_State_Penalty>
0.731876

> <r_epik_Charging_Adjusted_Penalty>
1.33994

> <i_epik_Tot_Q>
1

> <i_epik_Tot_abs_Q>
1

> <r_epik_Metal_State_Penalty>
0.652189

> <b_epik_Metal_Only>
0

> <s_lp_Force_Field>
OPLS_2005

> <r_lp_Energy>
21.2169

> <b_lp_Chiralities_Consistent>
1

> <s_lp_Variant>
AV-unprocessed.smi:467-4

> <Gold.Version>
5.8.1

> <Gold.Id.Protein>
6NUR|6NUR_protein|mol2

> <Gold.PLP.Fitness>
47.7592

> <Gold.PLP.PLP>
-39.8075

> <Gold.PLP.part.hbond>
-3.1663

> <Gold.PLP.part.metal>
0.0000

> <Gold.PLP.part.buried>
-2.3136

> <Gold.PLP.part.nonpolar>
-34.3772

> <Gold.PLP.part.repulsive>
2.0065

> <Gold.PLP.ligand.clash>
0.0000

> <Gold.PLP.ligand.torsion>
0.5414

> <Gold.PLP.Chemscore.Hbond>
3.0000

> <Gold.PLP.Chemscore.CHOScore>
0.0000

> <Gold.PLP.Chemscore.Metal>
0.0000

> <Gold.Chemscore.Hbonds>
donor molecule, donor type, donor heavy atom, donor atom, acceptor molecule, acceptor atom, score
      L1  H    10    30       P1  7948  1.00
      L1  H    12    45       P1  7948  1.90

> <Gold.PLP.Chemscore.Internal.Correction>
0.0346

> <Gold.Rescore>
     Score         DG    S(hbond)    S(metal)    S(lipo)     H(rot)  DE(clash)    DE(int)     intcor
     16.86     -17.92       1.86        0.00      99.05       2.10       0.42       0.63       ----

> <Gold.Chemscore.Fitness>
16.8634

> <Gold.Chemscore.DG>
-17.9173

> <Gold.Chemscore.ZeroCoef>
-5.4800

> <Gold.Chemscore.Hbond>
1.8644

> <Gold.Chemscore.Metal>
0.0000

> <Gold.Chemscore.Lipo>
99.0533

> <Gold.Chemscore.Internal_Hbond>
0.0000

> <Gold.Chemscore.DEClash>
0.4235

> <Gold.Chemscore.DEInternal>
0.6303

> <Gold.Chemscore.Rot>
2.1011

> <Gold.Chemscore.Internal.Correction>
   9.000000E+99

> <Gold.Chemscore.Hbonds>
donor molecule, donor type, donor heavy atom, donor atom, acceptor molecule, acceptor atom, score
      L1  H    10    30       P1  7948  0.72
      L1  H    12    45       P1  7948  0.21

> <Gold.Chemscore.Hbond.Weighted>
-6.2270

> <Gold.Chemscore.Metal.Weighted>
-0.0000

> <Gold.Chemscore.Lipo.Weighted>
-11.5892

> <Gold.Chemscore.Internal_Hbond.Weighted>
0.0000

> <Gold.Chemscore.DEClash.Weighted>
0.4235

> <Gold.Chemscore.DEInternal.Weighted>
0.6303

> <Gold.Chemscore.Rot.Weighted>
5.3789

> <Gold.Chemscore.Internal.Correction.Weighted>
   9.000000E+99

> <Gold.Protein.RotatedTorsions>
[ 6907 6896 6895 6894 ] final  127.71 input  -60.11 | X-H torsion
[ 7974 7965 7964 7962 ] final  -66.25 input  175.53 | X-H torsion
[ 8008 7997 7996 7995 ] final  -91.97 input   59.86 | X-H torsion
[ 10167 10162 10161 10158 ] final  106.31 input  -65.29 | X-H torsion
[ 10718 10713 10712 10709 ] final   53.42 input   66.30 | X-H torsion
[ 10763 10752 10751 10750 ] final  166.99 input  -60.55 | X-H torsion
[ 11005 11000 10999 10996 ] final   49.46 input  -57.11 | X-H torsion

> <Gold.Protein.ActiveResidues>
 VAL166  LYS551  ARG553  GLY616  TRP617  ASP618  TYR619  PRO620  LYS621  CYS622 
 ASP623  PHE694  ASN695  SER759  ASP760  ASP761  ALA762  ILE779  LEU786  VAL792 
 PHE793  MET794  SER795  GLU796  ALA797  LYS798  CYS799  TRP800  GLU811  SER814 

> <Gold.Protein.RotatedAtoms>
  152.3787  133.6516  159.6143 H   0  0  0  0  0  0  0  0  0  0  0  0  # atno 6907 bound_to 6896
  150.7724  133.9150  159.3389 H   0  0  0  0  0  0  0  0  0  0  0  0  # atno 6908 bound_to 6896
  151.6960  135.0939  160.0293 H   0  0  0  0  0  0  0  0  0  0  0  0  # atno 6909 bound_to 6896
  145.7442  140.8939  143.0514 H   0  0  0  0  0  0  0  0  0  0  0  0  # atno 7974 bound_to 7965
  154.7173  140.0514  157.0606 H   0  0  0  0  0  0  0  0  0  0  0  0  # atno 8008 bound_to 7997
  155.0475  140.3175  155.4684 H   0  0  0  0  0  0  0  0  0  0  0  0  # atno 8009 bound_to 7997
  156.2806  140.2122  156.5600 H   0  0  0  0  0  0  0  0  0  0  0  0  # atno 8010 bound_to 7997
  139.7020  144.7092  151.1169 H   0  0  0  0  0  0  0  0  0  0  0  0  # atno 10167 bound_to 10162
  157.5165  130.8536  149.8503 H   0  0  0  0  0  0  0  0  0  0  0  0  # atno 10718 bound_to 10713
  154.3472  135.2753  155.2391 H   0  0  0  0  0  0  0  0  0  0  0  0  # atno 10763 bound_to 10752
  154.4636  135.5901  153.6276 H   0  0  0  0  0  0  0  0  0  0  0  0  # atno 10764 bound_to 10752
  152.9853  135.6071  154.3679 H   0  0  0  0  0  0  0  0  0  0  0  0  # atno 10765 bound_to 10752
  140.1102  134.4965  155.8685 H   0  0  0  0  0  0  0  0  0  0  0  0  # atno 11005 bound_to 11000
  144.6864  139.9502  143.7477 LP  0  0  0  0  0  0  0  0  0  0  0  0  # atno 17320 bound_to 7965
  146.0419  139.3429  143.0692 LP  0  0  0  0  0  0  0  0  0  0  0  0  # atno 17321 bound_to 7965
  140.7712  143.5411  150.9312 LP  0  0  0  0  0  0  0  0  0  0  0  0  # atno 17342 bound_to 10162
  139.9093  143.6740  152.3118 LP  0  0  0  0  0  0  0  0  0  0  0  0  # atno 17343 bound_to 10162
  156.0324  130.3761  150.1651 LP  0  0  0  0  0  0  0  0  0  0  0  0  # atno 17370 bound_to 10713
  156.9840  130.9873  151.3430 LP  0  0  0  0  0  0  0  0  0  0  0  0  # atno 17371 bound_to 10713
  141.2128  133.6724  156.6689 LP  0  0  0  0  0  0  0  0  0  0  0  0  # atno 17394 bound_to 11000
  140.3102  134.8092  157.4170 LP  0  0  0  0  0  0  0  0  0  0  0  0  # atno 17395 bound_to 11000

$$$$
