AV-unprocessed.smi:1793|AV-procd|sdf|7229|dock4
  -GOLD-   22720 8473D 1   1.00000     0.00000
 Structure written by MMmdl.
 47 49  0  0  0  0  0  0  0  0  2 V2000
  151.2362  137.5787  155.2782 C   0  0  0  0  0  0  0  0  0  0  0  0
  150.1008  138.1064  154.3892 C   0  0  1  0  0  0  0  0  0  0  0  0
  149.0678  137.0778  154.2781 N   0  0  0  0  0  0  0  0  0  0  0  0
  148.3843  136.5357  155.2961 C   0  0  0  0  0  0  0  0  0  0  0  0
  148.5480  136.8450  156.4758 O   0  0  0  0  0  0  0  0  0  0  0  0
  147.4961  135.6304  154.8534 N   0  0  0  0  0  0  0  0  0  0  0  0
  146.5347  134.9074  155.6141 C   0  0  0  0  0  0  0  0  0  0  0  0
  146.5690  134.9166  157.0324 C   0  0  0  0  0  0  0  0  0  0  0  0
  145.6529  134.1373  157.7634 C   0  0  0  0  0  0  0  0  0  0  0  0
  144.7254  133.3457  157.0655 C   0  0  0  0  0  0  0  0  0  0  0  0
  144.7255  133.3489  155.7166 N   0  3  0  0  0  0  0  0  0  0  0  0
  145.5706  134.0888  154.9556 C   0  0  0  0  0  0  0  0  0  0  0  0
  145.4419  133.9938  153.5504 N   0  0  0  0  0  0  0  0  0  0  0  0
  145.8867  132.7962  152.8468 C   0  0  0  0  0  0  0  0  0  0  0  0
  145.2850  132.9101  151.4488 C   0  0  0  0  0  0  0  0  0  0  0  0
  143.9478  133.5921  151.7212 C   0  0  0  0  0  0  0  0  0  0  0  0
  144.2493  134.5256  152.8982 C   0  0  0  0  0  0  0  0  0  0  0  0
  149.4927  139.4089  154.9451 C   0  0  2  0  0  0  0  0  0  0  0  0
  148.3994  140.0312  154.0761 C   0  0  0  0  0  0  0  0  0  0  0  0
  148.4092  141.4909  154.4975 C   0  0  0  0  0  0  0  0  0  0  0  0
  149.7807  141.6791  155.1535 C   0  0  0  0  0  0  0  0  0  0  0  0
  150.4626  140.4441  154.9760 O   0  0  0  0  0  0  0  0  0  0  0  0
  152.0428  138.3078  155.3598 H   0  0  0  0  0  0  0  0  0  0  0  0
  151.6639  136.6635  154.8669 H   0  0  0  0  0  0  0  0  0  0  0  0
  150.8836  137.3588  156.2865 H   0  0  0  0  0  0  0  0  0  0  0  0
  150.5248  138.3216  153.4069 H   0  0  0  0  0  0  0  0  0  0  0  0
  148.8593  136.7552  153.3447 H   0  0  0  0  0  0  0  0  0  0  0  0
  147.4146  135.5427  153.8509 H   0  0  0  0  0  0  0  0  0  0  0  0
  147.3026  135.4942  157.5745 H   0  0  0  0  0  0  0  0  0  0  0  0
  145.6718  134.1376  158.8435 H   0  0  0  0  0  0  0  0  0  0  0  0
  143.9915  132.7106  157.5401 H   0  0  0  0  0  0  0  0  0  0  0  0
  146.9746  132.7319  152.8150 H   0  0  0  0  0  0  0  0  0  0  0  0
  145.5023  131.9017  153.3385 H   0  0  0  0  0  0  0  0  0  0  0  0
  145.9091  133.5504  150.8237 H   0  0  0  0  0  0  0  0  0  0  0  0
  145.1806  131.9459  150.9505 H   0  0  0  0  0  0  0  0  0  0  0  0
  143.5531  134.1196  150.8525 H   0  0  0  0  0  0  0  0  0  0  0  0
  143.2116  132.8463  152.0239 H   0  0  0  0  0  0  0  0  0  0  0  0
  143.3998  134.5911  153.5791 H   0  0  0  0  0  0  0  0  0  0  0  0
  144.4699  135.5277  152.5302 H   0  0  0  0  0  0  0  0  0  0  0  0
  149.1133  139.2516  155.9568 H   0  0  0  0  0  0  0  0  0  0  0  0
  148.6686  139.9534  153.0217 H   0  0  0  0  0  0  0  0  0  0  0  0
  147.4269  139.5572  154.2116 H   0  0  0  0  0  0  0  0  0  0  0  0
  148.2679  142.1528  153.6425 H   0  0  0  0  0  0  0  0  0  0  0  0
  147.6151  141.6961  155.2164 H   0  0  0  0  0  0  0  0  0  0  0  0
  150.3462  142.4979  154.7086 H   0  0  0  0  0  0  0  0  0  0  0  0
  149.6716  141.8813  156.2198 H   0  0  0  0  0  0  0  0  0  0  0  0
  144.0408  132.7623  155.2393 H   0  0  0  0  0  0  0  0  0  0  0  0
  1  2  1  0  0  0  0
  1 23  1  0  0  0  0
  1 24  1  0  0  0  0
  1 25  1  0  0  0  0
  2  3  1  0  0  0  0
  2 18  1  0  0  0  0
  2 26  1  0  0  0  0
  3  4  1  0  0  0  0
  3 27  1  0  0  0  0
  4  5  2  0  0  0  0
  4  6  1  0  0  0  0
  6  7  1  0  0  0  0
  6 28  1  0  0  0  0
  7 12  1  0  0  0  0
  7  8  2  0  0  0  0
  8  9  1  0  0  0  0
  8 29  1  0  0  0  0
  9 10  2  0  0  0  0
  9 30  1  0  0  0  0
 10 11  1  0  0  0  0
 10 31  1  0  0  0  0
 11 12  2  0  0  0  0
 11 47  1  0  0  0  0
 12 13  1  0  0  0  0
 13 17  1  0  0  0  0
 13 14  1  0  0  0  0
 14 15  1  0  0  0  0
 14 32  1  0  0  0  0
 14 33  1  0  0  0  0
 15 16  1  0  0  0  0
 15 34  1  0  0  0  0
 15 35  1  0  0  0  0
 16 17  1  0  0  0  0
 16 36  1  0  0  0  0
 16 37  1  0  0  0  0
 17 38  1  0  0  0  0
 17 39  1  0  0  0  0
 18 22  1  0  0  0  0
 18 19  1  0  0  0  0
 18 40  1  0  0  0  0
 19 20  1  0  0  0  0
 19 41  1  0  0  0  0
 19 42  1  0  0  0  0
 20 21  1  0  0  0  0
 20 43  1  0  0  0  0
 20 44  1  0  0  0  0
 21 22  1  0  0  0  0
 21 45  1  0  0  0  0
 21 46  1  0  0  0  0
M  CHG  1  11   1
M  END
> <s_m_source_file>
AV-unprocessed.smi

> <i_m_source_file_index>
1793

> <i_lp_mmshare_version>
43012

> <i_f3d_flags>
0

> <s_epik_input>
TzFbQ0gyXVtDSDJdW0NIMl1bQ0BIXTFbQ0BIXShbQ0gzXSlbTkhdQyg9TylbTkhdYzJbY0hdW2NIXVtjSF1uYzJOM1tDSDJdW0NIMl1bQ0gyXVtDSDJdMw==

> <s_epik_cmdline>
J2VwaWtfcHl0aG9uJywgJy1waCcsICc3LjAnLCAnLXRuJywgJzgnLCAnLW1hJywgJzIwMCcsICctbWV0YWxfYmluZGluZycsICctaW1hZScsICc8aW5maWxlLm1hZT4nLCAnLW9tYWUnLCAnPG91dGZpbGUubWFlPic=

> <r_lp_tautomer_probability>
0.999994

> <r_epik_Ionization_Penalty>
1.11092

> <r_epik_Ionization_Penalty_Charging>
1.1109

> <r_epik_Ionization_Penalty_Neutral>
1.9363e-05

> <r_epik_State_Penalty>
1.16888

> <r_epik_Charging_Adjusted_Penalty>
2.27978

> <i_epik_Tot_Q>
1

> <i_epik_Tot_abs_Q>
1

> <r_epik_Metal_State_Penalty>
1.25472

> <b_epik_Metal_Only>
0

> <s_lp_Force_Field>
OPLS_2005

> <r_lp_Energy>
51.9838

> <b_lp_Chiralities_Consistent>
1

> <s_lp_Variant>
AV-unprocessed.smi:1793-6

> <Gold.Version>
5.8.1

> <Gold.Id.Protein>
6NUR|6NUR_protein|mol2

> <Gold.PLP.Fitness>
37.0400

> <Gold.PLP.PLP>
-25.0950

> <Gold.PLP.part.hbond>
-3.0000

> <Gold.PLP.part.metal>
0.0000

> <Gold.PLP.part.buried>
-3.7221

> <Gold.PLP.part.nonpolar>
-18.9517

> <Gold.PLP.part.repulsive>
0.1776

> <Gold.PLP.ligand.clash>
0.0000

> <Gold.PLP.ligand.torsion>
0.2469

> <Gold.PLP.Chemscore.Hbond>
4.0000

> <Gold.PLP.Chemscore.CHOScore>
0.0000

> <Gold.PLP.Chemscore.Metal>
0.0000

> <Gold.Chemscore.Hbonds>
donor molecule, donor type, donor heavy atom, donor atom, acceptor molecule, acceptor atom, score
      L1  H     3    27       P1  7948  1.00
      L1  H    11    47       P1 10957  2.00
      P1  H  7989  7998       L1    22  1.00

> <Gold.PLP.Chemscore.Internal.Correction>
0.4388

> <Gold.Rescore>
     Score         DG    S(hbond)    S(metal)    S(lipo)     H(rot)  DE(clash)    DE(int)     intcor
     15.75     -18.39       2.72        0.00      62.78       1.38       0.28       2.36       ----

> <Gold.Chemscore.Fitness>
15.7518

> <Gold.Chemscore.DG>
-18.3898

> <Gold.Chemscore.ZeroCoef>
-5.4800

> <Gold.Chemscore.Hbond>
2.7239

> <Gold.Chemscore.Metal>
0.0000

> <Gold.Chemscore.Lipo>
62.7788

> <Gold.Chemscore.Internal_Hbond>
0.0000

> <Gold.Chemscore.DEClash>
0.2803

> <Gold.Chemscore.DEInternal>
2.3576

> <Gold.Chemscore.Rot>
1.3802

> <Gold.Chemscore.Internal.Correction>
   9.000000E+99

> <Gold.Chemscore.Hbonds>
donor molecule, donor type, donor heavy atom, donor atom, acceptor molecule, acceptor atom, score
      L1  H     3    27       P1  7948  0.97
      L1  H    11    47       P1 10957  1.00
      P1  H  7989  7998       L1    22  0.29

> <Gold.Chemscore.Hbond.Weighted>
-9.0978

> <Gold.Chemscore.Metal.Weighted>
-0.0000

> <Gold.Chemscore.Lipo.Weighted>
-7.3451

> <Gold.Chemscore.Internal_Hbond.Weighted>
0.0000

> <Gold.Chemscore.DEClash.Weighted>
0.2803

> <Gold.Chemscore.DEInternal.Weighted>
2.3576

> <Gold.Chemscore.Rot.Weighted>
3.5332

> <Gold.Chemscore.Internal.Correction.Weighted>
   9.000000E+99

> <Gold.Protein.RotatedTorsions>
[ 6907 6896 6895 6894 ] final   39.41 input  -60.11 | X-H torsion
[ 7974 7965 7964 7962 ] final   57.44 input  175.53 | X-H torsion
[ 8008 7997 7996 7995 ] final  -14.88 input   59.86 | X-H torsion
[ 10167 10162 10161 10158 ] final -172.59 input  -65.29 | X-H torsion
[ 10718 10713 10712 10709 ] final -116.51 input   66.30 | X-H torsion
[ 10763 10752 10751 10750 ] final    3.34 input  -60.55 | X-H torsion
[ 11005 11000 10999 10996 ] final  -90.56 input  -57.11 | X-H torsion

> <Gold.Protein.ActiveResidues>
 VAL166  LYS551  ARG553  GLY616  TRP617  ASP618  TYR619  PRO620  LYS621  CYS622 
 ASP623  PHE694  ASN695  SER759  ASP760  ASP761  ALA762  ILE779  LEU786  VAL792 
 PHE793  MET794  SER795  GLU796  ALA797  LYS798  CYS799  TRP800  GLU811  SER814 

> <Gold.Protein.RotatedAtoms>
  152.1691  134.8849  160.0535 H   0  0  0  0  0  0  0  0  0  0  0  0  # atno 6907 bound_to 6896
  151.9815  133.3754  159.4117 H   0  0  0  0  0  0  0  0  0  0  0  0  # atno 6908 bound_to 6896
  150.6899  134.3956  159.5140 H   0  0  0  0  0  0  0  0  0  0  0  0  # atno 6909 bound_to 6896
  145.9290  139.3792  143.0432 H   0  0  0  0  0  0  0  0  0  0  0  0  # atno 7974 bound_to 7965
  154.5175  140.2211  155.9039 H   0  0  0  0  0  0  0  0  0  0  0  0  # atno 8008 bound_to 7997
  156.1624  140.3139  155.8795 H   0  0  0  0  0  0  0  0  0  0  0  0  # atno 8009 bound_to 7997
  155.3725  140.0467  157.3036 H   0  0  0  0  0  0  0  0  0  0  0  0  # atno 8010 bound_to 7997
  139.5736  144.1585  152.1419 H   0  0  0  0  0  0  0  0  0  0  0  0  # atno 10167 bound_to 10162
  156.0969  130.6139  150.9045 H   0  0  0  0  0  0  0  0  0  0  0  0  # atno 10718 bound_to 10713
  153.2845  135.6943  153.7353 H   0  0  0  0  0  0  0  0  0  0  0  0  # atno 10763 bound_to 10752
  153.6327  135.3407  155.3047 H   0  0  0  0  0  0  0  0  0  0  0  0  # atno 10764 bound_to 10752
  154.8505  135.4413  154.1909 H   0  0  0  0  0  0  0  0  0  0  0  0  # atno 10765 bound_to 10752
  141.1563  133.7700  156.9755 H   0  0  0  0  0  0  0  0  0  0  0  0  # atno 11005 bound_to 11000
  145.8450  140.9560  143.0779 LP  0  0  0  0  0  0  0  0  0  0  0  0  # atno 17320 bound_to 7965
  144.6762  140.0334  143.7482 LP  0  0  0  0  0  0  0  0  0  0  0  0  # atno 17321 bound_to 7965
  140.1123  144.5446  150.6917 LP  0  0  0  0  0  0  0  0  0  0  0  0  # atno 17342 bound_to 10162
  140.7019  143.2441  151.4838 LP  0  0  0  0  0  0  0  0  0  0  0  0  # atno 17343 bound_to 10162
  157.6131  131.0935  150.8759 LP  0  0  0  0  0  0  0  0  0  0  0  0  # atno 17370 bound_to 10713
  156.8895  130.5208  149.5287 LP  0  0  0  0  0  0  0  0  0  0  0  0  # atno 17371 bound_to 10713
  140.1100  134.9482  157.2052 LP  0  0  0  0  0  0  0  0  0  0  0  0  # atno 17394 bound_to 11000
  140.3206  134.2921  155.7247 LP  0  0  0  0  0  0  0  0  0  0  0  0  # atno 17395 bound_to 11000

$$$$
