AV-unprocessed.smi:2567|AV-procd|sdf|10079|dock2
  -GOLD-   2272014103D 1   1.00000     0.00000
 Structure written by MMmdl.
 34 35  0  0  0  0  0  0  0  0  2 V2000
  151.3509  137.2716  156.2248 C   0  0  0  0  0  0  0  0  0  0  0  0
  151.6325  138.5996  155.4992 C   0  0  0  0  0  0  0  0  0  0  0  0
  152.1981  139.6283  156.5028 C   0  0  0  0  0  0  0  0  0  0  0  0
  152.7181  138.3883  154.4204 C   0  0  0  0  0  0  0  0  0  0  0  0
  150.3555  139.1173  154.8791 C   0  0  0  0  0  0  0  0  0  0  0  0
  150.3466  140.2156  154.1194 N   0  0  0  0  0  0  0  0  0  0  0  0
  149.0791  140.2428  153.6594 N   0  0  0  0  0  0  0  0  0  0  0  0
  148.4269  139.1682  154.1035 C   0  0  0  0  0  0  0  0  0  0  0  0
  147.0030  138.8891  153.7399 C   0  0  1  0  0  0  0  0  0  0  0  0
  146.7907  138.8082  152.2157 C   0  0  0  0  0  0  0  0  0  0  0  0
  145.3955  138.4278  151.9204 N   0  3  0  0  0  0  0  0  0  0  0  0
  145.0196  137.1760  152.6072 C   0  0  0  0  0  0  0  0  0  0  0  0
  145.2899  137.2984  154.1169 C   0  0  0  0  0  0  0  0  0  0  0  0
  146.6546  137.6409  154.3344 O   0  0  0  0  0  0  0  0  0  0  0  0
  149.1945  138.3893  154.8578 N   0  0  0  0  0  0  0  0  0  0  0  0
  148.7288  140.9713  153.0535 H   0  0  0  0  0  0  0  0  0  0  0  0
  152.2544  136.8706  156.6851 H   0  0  0  0  0  0  0  0  0  0  0  0
  150.9699  136.5170  155.5359 H   0  0  0  0  0  0  0  0  0  0  0  0
  150.6087  137.4011  157.0134 H   0  0  0  0  0  0  0  0  0  0  0  0
  151.5120  139.8041  157.3323 H   0  0  0  0  0  0  0  0  0  0  0  0
  152.3897  140.5892  156.0235 H   0  0  0  0  0  0  0  0  0  0  0  0
  153.1380  139.2847  156.9360 H   0  0  0  0  0  0  0  0  0  0  0  0
  153.6579  138.0567  154.8635 H   0  0  0  0  0  0  0  0  0  0  0  0
  152.9210  139.3101  153.8732 H   0  0  0  0  0  0  0  0  0  0  0  0
  152.4256  137.6304  153.6927 H   0  0  0  0  0  0  0  0  0  0  0  0
  146.3764  139.6760  154.1648 H   0  0  0  0  0  0  0  0  0  0  0  0
  147.0124  139.7654  151.7432 H   0  0  0  0  0  0  0  0  0  0  0  0
  147.4606  138.0686  151.7745 H   0  0  0  0  0  0  0  0  0  0  0  0
  144.7839  139.1668  152.2372 H   0  0  0  0  0  0  0  0  0  0  0  0
  143.9670  136.9623  152.4207 H   0  0  0  0  0  0  0  0  0  0  0  0
  145.5954  136.3497  152.1882 H   0  0  0  0  0  0  0  0  0  0  0  0
  144.6394  138.0479  154.5700 H   0  0  0  0  0  0  0  0  0  0  0  0
  145.0794  136.3515  154.6143 H   0  0  0  0  0  0  0  0  0  0  0  0
  145.2819  138.3108  150.9234 H   0  0  0  0  0  0  0  0  0  0  0  0
  1  2  1  0  0  0  0
  1 17  1  0  0  0  0
  1 18  1  0  0  0  0
  1 19  1  0  0  0  0
  2  3  1  0  0  0  0
  2  4  1  0  0  0  0
  2  5  1  0  0  0  0
  3 20  1  0  0  0  0
  3 21  1  0  0  0  0
  3 22  1  0  0  0  0
  4 23  1  0  0  0  0
  4 24  1  0  0  0  0
  4 25  1  0  0  0  0
  5 15  1  0  0  0  0
  5  6  2  0  0  0  0
  6  7  1  0  0  0  0
  7 16  1  0  0  0  0
  7  8  1  0  0  0  0
  8  9  1  0  0  0  0
  8 15  2  0  0  0  0
  9 14  1  0  0  0  0
  9 10  1  0  0  0  0
  9 26  1  0  0  0  0
 10 11  1  0  0  0  0
 10 27  1  0  0  0  0
 10 28  1  0  0  0  0
 11 12  1  0  0  0  0
 11 29  1  0  0  0  0
 11 34  1  0  0  0  0
 12 13  1  0  0  0  0
 12 30  1  0  0  0  0
 12 31  1  0  0  0  0
 13 14  1  0  0  0  0
 13 32  1  0  0  0  0
 13 33  1  0  0  0  0
M  CHG  1  11   1
M  END
> <s_m_source_file>
AV-unprocessed.smi

> <i_m_source_file_index>
2567

> <i_lp_mmshare_version>
43012

> <i_f3d_flags>
0

> <s_epik_input>
W0NIM11DKFtDSDNdKShbQ0gzXSljMW5bbkhdYyhuMSlbQ0BASF0yW0NIMl1bTkhdW0NIMl1bQ0gyXU8y

> <s_epik_cmdline>
J2VwaWtfcHl0aG9uJywgJy1waCcsICc3LjAnLCAnLXRuJywgJzgnLCAnLW1hJywgJzIwMCcsICctbWV0YWxfYmluZGluZycsICctaW1hZScsICc8aW5maWxlLm1hZT4nLCAnLW9tYWUnLCAnPG91dGZpbGUubWFlPic=

> <r_epik_Ionization_Penalty>
0.162344

> <r_epik_Ionization_Penalty_Charging>
0.125708

> <r_epik_Ionization_Penalty_Neutral>
0.0366363

> <r_epik_State_Penalty>
1.18286

> <r_epik_Charging_Adjusted_Penalty>
1.30856

> <i_epik_Tot_Q>
1

> <i_epik_Tot_abs_Q>
1

> <r_epik_Metal_State_Penalty>
1.49333

> <b_epik_Metal_Only>
0

> <s_lp_Force_Field>
OPLS_2005

> <r_lp_Energy>
12.4711

> <b_lp_Chiralities_Consistent>
1

> <s_lp_Variant>
AV-unprocessed.smi:2567-4

> <Gold.Version>
5.8.1

> <Gold.Id.Protein>
6NUR|6NUR_protein|mol2

> <Gold.PLP.Fitness>
34.9822

> <Gold.PLP.PLP>
-23.9898

> <Gold.PLP.part.hbond>
-3.8710

> <Gold.PLP.part.metal>
0.0000

> <Gold.PLP.part.buried>
-4.0933

> <Gold.PLP.part.nonpolar>
-16.8561

> <Gold.PLP.part.repulsive>
1.0291

> <Gold.PLP.ligand.clash>
0.0000

> <Gold.PLP.ligand.torsion>
0.1153

> <Gold.PLP.Chemscore.Hbond>
3.6720

> <Gold.PLP.Chemscore.CHOScore>
0.0000

> <Gold.PLP.Chemscore.Metal>
0.0000

> <Gold.Chemscore.Hbonds>
donor molecule, donor type, donor heavy atom, donor atom, acceptor molecule, acceptor atom, score
      L1  H    11    29       P1 10175  2.00
      L1  H    11    34       P1 10171  0.66
      P1  H  7989  7998       L1     6  1.00

> <Gold.PLP.Chemscore.Internal.Correction>
0.2070

> <Gold.Rescore>
     Score         DG    S(hbond)    S(metal)    S(lipo)     H(rot)  DE(clash)    DE(int)     intcor
     16.70     -16.89       2.74        0.00      46.87       1.26       0.07       0.12       ----

> <Gold.Chemscore.Fitness>
16.6998

> <Gold.Chemscore.DG>
-16.8873

> <Gold.Chemscore.ZeroCoef>
-5.4800

> <Gold.Chemscore.Hbond>
2.7428

> <Gold.Chemscore.Metal>
0.0000

> <Gold.Chemscore.Lipo>
46.8712

> <Gold.Chemscore.Internal_Hbond>
0.0000

> <Gold.Chemscore.DEClash>
0.0692

> <Gold.Chemscore.DEInternal>
0.1182

> <Gold.Chemscore.Rot>
1.2647

> <Gold.Chemscore.Internal.Correction>
   9.000000E+99

> <Gold.Chemscore.Hbonds>
donor molecule, donor type, donor heavy atom, donor atom, acceptor molecule, acceptor atom, score
      L1  H     7    16       P1  7957  0.01
      L1  H    11    29       P1 10175  1.00
      L1  H    11    34       P1 10171  0.66
      P1  H  7989  7998       L1     6  0.90

> <Gold.Chemscore.Hbond.Weighted>
-9.1609

> <Gold.Chemscore.Metal.Weighted>
-0.0000

> <Gold.Chemscore.Lipo.Weighted>
-5.4839

> <Gold.Chemscore.Internal_Hbond.Weighted>
0.0000

> <Gold.Chemscore.DEClash.Weighted>
0.0692

> <Gold.Chemscore.DEInternal.Weighted>
0.1182

> <Gold.Chemscore.Rot.Weighted>
3.2375

> <Gold.Chemscore.Internal.Correction.Weighted>
   9.000000E+99

> <Gold.Protein.RotatedTorsions>
[ 6907 6896 6895 6894 ] final  -15.12 input  -60.11 | X-H torsion
[ 7974 7965 7964 7962 ] final   67.99 input  175.53 | X-H torsion
[ 8008 7997 7996 7995 ] final  -61.60 input   59.86 | X-H torsion
[ 10167 10162 10161 10158 ] final  166.24 input  -65.29 | X-H torsion
[ 10718 10713 10712 10709 ] final  172.85 input   66.30 | X-H torsion
[ 10763 10752 10751 10750 ] final   90.83 input  -60.55 | X-H torsion
[ 11005 11000 10999 10996 ] final -126.37 input  -57.11 | X-H torsion

> <Gold.Protein.ActiveResidues>
 VAL166  LYS551  ARG553  GLY616  TRP617  ASP618  TYR619  PRO620  LYS621  CYS622 
 ASP623  PHE694  ASN695  SER759  ASP760  ASP761  ALA762  ILE779  LEU786  VAL792 
 PHE793  MET794  SER795  GLU796  ALA797  LYS798  CYS799  TRP800  GLU811  SER814 

> <Gold.Protein.RotatedAtoms>
  151.3289  135.0837  159.9331 H   0  0  0  0  0  0  0  0  0  0  0  0  # atno 6907 bound_to 6896
  152.5239  133.9563  159.7706 H   0  0  0  0  0  0  0  0  0  0  0  0  # atno 6908 bound_to 6896
  150.9898  133.6108  159.2740 H   0  0  0  0  0  0  0  0  0  0  0  0  # atno 6909 bound_to 6896
  145.8080  139.3017  143.1116 H   0  0  0  0  0  0  0  0  0  0  0  0  # atno 7974 bound_to 7965
  154.4456  140.1014  156.6457 H   0  0  0  0  0  0  0  0  0  0  0  0  # atno 8008 bound_to 7997
  155.5453  140.3484  155.4437 H   0  0  0  0  0  0  0  0  0  0  0  0  # atno 8009 bound_to 7997
  156.0568  140.1317  156.9976 H   0  0  0  0  0  0  0  0  0  0  0  0  # atno 8010 bound_to 7997
  139.4921  144.4048  151.9367 H   0  0  0  0  0  0  0  0  0  0  0  0  # atno 10167 bound_to 10162
  156.9729  131.0095  151.2901 H   0  0  0  0  0  0  0  0  0  0  0  0  # atno 10718 bound_to 10713
  153.2018  135.4419  155.0275 H   0  0  0  0  0  0  0  0  0  0  0  0  # atno 10763 bound_to 10752
  154.8151  135.3311  154.7201 H   0  0  0  0  0  0  0  0  0  0  0  0  # atno 10764 bound_to 10752
  153.7646  135.6989  153.4974 H   0  0  0  0  0  0  0  0  0  0  0  0  # atno 10765 bound_to 10752
  140.9687  134.0836  157.3893 H   0  0  0  0  0  0  0  0  0  0  0  0  # atno 11005 bound_to 11000
  145.9807  140.8685  143.0116 LP  0  0  0  0  0  0  0  0  0  0  0  0  # atno 17320 bound_to 7965
  144.6760  140.2076  143.7380 LP  0  0  0  0  0  0  0  0  0  0  0  0  # atno 17321 bound_to 7965
  140.3488  144.3114  150.5953 LP  0  0  0  0  0  0  0  0  0  0  0  0  # atno 17342 bound_to 10162
  140.5503  143.2207  151.7939 LP  0  0  0  0  0  0  0  0  0  0  0  0  # atno 17343 bound_to 10162
  157.5580  130.8226  149.8229 LP  0  0  0  0  0  0  0  0  0  0  0  0  # atno 17370 bound_to 10713
  156.0275  130.3775  150.1780 LP  0  0  0  0  0  0  0  0  0  0  0  0  # atno 17371 bound_to 10713
  139.8904  135.0111  156.6733 LP  0  0  0  0  0  0  0  0  0  0  0  0  # atno 17394 bound_to 11000
  140.7362  133.9017  155.8245 LP  0  0  0  0  0  0  0  0  0  0  0  0  # atno 17395 bound_to 11000

$$$$
