AV-unprocessed.smi:1766|AV-procd|sdf|7138|dock2
  -GOLD-   22720 8373D 1   1.00000     0.00000
 Structure written by MMmdl.
 40 42  0  0  0  0  0  0  0  0  2 V2000
  150.0319  136.2285  155.8599 N   0  0  0  0  0  0  0  0  0  0  0  0
  151.2751  136.6918  155.7070 C   0  0  0  0  0  0  0  0  0  0  0  0
  152.1855  136.3831  156.4741 O   0  0  0  0  0  0  0  0  0  0  0  0
  151.5207  137.6389  154.5276 C   0  0  0  0  0  0  0  0  0  0  0  0
  150.4424  138.6737  154.4197 C   0  0  0  0  0  0  0  0  0  0  0  0
  149.2981  138.5575  153.6875 N   0  3  0  0  0  0  0  0  0  0  0  0
  148.5298  139.7139  153.8225 C   0  0  0  0  0  0  0  0  0  0  0  0
  147.2978  140.0558  153.2735 C   0  0  0  0  0  0  0  0  0  0  0  0
  146.7818  141.3224  153.6163 C   0  0  0  0  0  0  0  0  0  0  0  0
  147.4859  142.1945  154.4712 C   0  0  0  0  0  0  0  0  0  0  0  0
  148.7357  141.8379  155.0180 C   0  0  0  0  0  0  0  0  0  0  0  0
  149.2388  140.5816  154.6782 C   0  0  0  0  0  0  0  0  0  0  0  0
  150.4090  139.8953  155.0287 N   0  0  0  0  0  0  0  0  0  0  0  0
  151.3809  140.5258  155.9380 C   0  0  0  0  0  0  0  0  0  0  0  0
  150.9356  140.4736  157.4140 C   0  0  1  0  0  0  0  0  0  0  0  0
  151.5600  139.3624  158.0224 O   0  0  0  0  0  0  0  0  0  0  0  0
  151.2170  141.7730  158.1557 C   0  0  0  0  0  0  0  0  0  0  0  0
  152.0561  141.7891  159.2920 C   0  0  0  0  0  0  0  0  0  0  0  0
  152.3352  143.0024  159.9507 C   0  0  0  0  0  0  0  0  0  0  0  0
  151.7770  144.2056  159.4780 C   0  0  0  0  0  0  0  0  0  0  0  0
  152.0495  145.3726  160.1080 F   0  0  0  0  0  0  0  0  0  0  0  0
  150.9375  144.1951  158.3478 C   0  0  0  0  0  0  0  0  0  0  0  0
  150.6577  142.9824  157.6891 C   0  0  0  0  0  0  0  0  0  0  0  0
  149.8214  135.6059  156.6271 H   0  0  0  0  0  0  0  0  0  0  0  0
  149.3043  136.5035  155.2158 H   0  0  0  0  0  0  0  0  0  0  0  0
  152.4834  138.1395  154.6399 H   0  0  0  0  0  0  0  0  0  0  0  0
  151.5702  137.0575  153.6072 H   0  0  0  0  0  0  0  0  0  0  0  0
  146.7567  139.3892  152.6181 H   0  0  0  0  0  0  0  0  0  0  0  0
  145.8271  141.6311  153.2157 H   0  0  0  0  0  0  0  0  0  0  0  0
  147.0593  143.1572  154.7131 H   0  0  0  0  0  0  0  0  0  0  0  0
  149.2617  142.5158  155.6733 H   0  0  0  0  0  0  0  0  0  0  0  0
  152.3214  139.9869  155.8160 H   0  0  0  0  0  0  0  0  0  0  0  0
  151.5784  141.5479  155.6149 H   0  0  0  0  0  0  0  0  0  0  0  0
  149.8632  140.2805  157.4550 H   0  0  0  0  0  0  0  0  0  0  0  0
  150.9541  138.6371  158.0173 H   0  0  0  0  0  0  0  0  0  0  0  0
  152.4981  140.8728  159.6555 H   0  0  0  0  0  0  0  0  0  0  0  0
  152.9807  143.0102  160.8164 H   0  0  0  0  0  0  0  0  0  0  0  0
  150.5100  145.1179  157.9839 H   0  0  0  0  0  0  0  0  0  0  0  0
  150.0200  142.9852  156.8174 H   0  0  0  0  0  0  0  0  0  0  0  0
  149.0634  137.7448  153.1322 H   0  0  0  0  0  0  0  0  0  0  0  0
  1  2  1  0  0  0  0
  1 24  1  0  0  0  0
  1 25  1  0  0  0  0
  2  3  2  0  0  0  0
  2  4  1  0  0  0  0
  4  5  1  0  0  0  0
  4 26  1  0  0  0  0
  4 27  1  0  0  0  0
  5 13  1  0  0  0  0
  5  6  2  0  0  0  0
  6  7  1  0  0  0  0
  6 40  1  0  0  0  0
  7 12  2  0  0  0  0
  7  8  1  0  0  0  0
  8  9  2  0  0  0  0
  8 28  1  0  0  0  0
  9 10  1  0  0  0  0
  9 29  1  0  0  0  0
 10 11  2  0  0  0  0
 10 30  1  0  0  0  0
 11 12  1  0  0  0  0
 11 31  1  0  0  0  0
 12 13  1  0  0  0  0
 13 14  1  0  0  0  0
 14 15  1  0  0  0  0
 14 32  1  0  0  0  0
 14 33  1  0  0  0  0
 15 16  1  0  0  0  0
 15 17  1  0  0  0  0
 15 34  1  0  0  0  0
 16 35  1  0  0  0  0
 17 23  1  0  0  0  0
 17 18  2  0  0  0  0
 18 19  1  0  0  0  0
 18 36  1  0  0  0  0
 19 20  2  0  0  0  0
 19 37  1  0  0  0  0
 20 21  1  0  0  0  0
 20 22  1  0  0  0  0
 22 23  2  0  0  0  0
 22 38  1  0  0  0  0
 23 39  1  0  0  0  0
M  CHG  1   6   1
M  END
> <s_m_source_file>
AV-unprocessed.smi

> <i_m_source_file_index>
1766

> <i_lp_mmshare_version>
43012

> <i_f3d_flags>
0

> <s_epik_input>
W2NIXTFbY0hdW2NIXVtjSF1jKGMxMiluKGMobjIpW0NIMl1DKD1PKVtOSDJdKVtDSDJdW0NASF0oW09IXSljM1tjSF1bY0hdYyhGKVtjSF1bY0hdMw==

> <s_epik_cmdline>
J2VwaWtfcHl0aG9uJywgJy1waCcsICc3LjAnLCAnLXRuJywgJzgnLCAnLW1hJywgJzIwMCcsICctbWV0YWxfYmluZGluZycsICctaW1hZScsICc8aW5maWxlLm1hZT4nLCAnLW9tYWUnLCAnPG91dGZpbGUubWFlPic=

> <r_epik_Ionization_Penalty>
1.66646

> <r_epik_Ionization_Penalty_Charging>
1.66645

> <r_epik_Ionization_Penalty_Neutral>
2.12833e-06

> <r_epik_State_Penalty>
1.76975

> <r_epik_Charging_Adjusted_Penalty>
3.43621

> <i_epik_Tot_Q>
1

> <i_epik_Tot_abs_Q>
1

> <r_epik_Metal_State_Penalty>
1.80493

> <b_epik_Metal_Only>
0

> <s_lp_Force_Field>
OPLS_2005

> <r_lp_Energy>
15.5136

> <b_lp_Chiralities_Consistent>
1

> <s_lp_Variant>
AV-unprocessed.smi:1766-4

> <Gold.Version>
5.8.1

> <Gold.Id.Protein>
6NUR|6NUR_protein|mol2

> <Gold.PLP.Fitness>
56.5158

> <Gold.PLP.PLP>
-50.1124

> <Gold.PLP.part.hbond>
-3.0000

> <Gold.PLP.part.metal>
0.0000

> <Gold.PLP.part.buried>
1.7839

> <Gold.PLP.part.nonpolar>
-49.0091

> <Gold.PLP.part.repulsive>
0.1099

> <Gold.PLP.ligand.clash>
0.0000

> <Gold.PLP.ligand.torsion>
1.3363

> <Gold.PLP.Chemscore.Hbond>
3.0000

> <Gold.PLP.Chemscore.CHOScore>
0.0000

> <Gold.PLP.Chemscore.Metal>
0.0000

> <Gold.Chemscore.Hbonds>
donor molecule, donor type, donor heavy atom, donor atom, acceptor molecule, acceptor atom, score
      L1  H     6    40       P1  7948  2.00
      P1  H 10752 10765       L1     3  1.00

> <Gold.PLP.Chemscore.Internal.Correction>
0.0758

> <Gold.Rescore>
     Score         DG    S(hbond)    S(metal)    S(lipo)     H(rot)  DE(clash)    DE(int)     intcor
     16.16     -17.89       1.88        0.00     118.98       3.05       0.24       1.49       ----

> <Gold.Chemscore.Fitness>
16.1562

> <Gold.Chemscore.DG>
-17.8853

> <Gold.Chemscore.ZeroCoef>
-5.4800

> <Gold.Chemscore.Hbond>
1.8818

> <Gold.Chemscore.Metal>
0.0000

> <Gold.Chemscore.Lipo>
118.9796

> <Gold.Chemscore.Internal_Hbond>
0.0000

> <Gold.Chemscore.DEClash>
0.2414

> <Gold.Chemscore.DEInternal>
1.4877

> <Gold.Chemscore.Rot>
3.0470

> <Gold.Chemscore.Internal.Correction>
   9.000000E+99

> <Gold.Chemscore.Hbonds>
donor molecule, donor type, donor heavy atom, donor atom, acceptor molecule, acceptor atom, score
      L1  H     6    40       P1  7948  0.99
      P1  H 10752 10765       L1     3  0.36

> <Gold.Chemscore.Hbond.Weighted>
-6.2851

> <Gold.Chemscore.Metal.Weighted>
-0.0000

> <Gold.Chemscore.Lipo.Weighted>
-13.9206

> <Gold.Chemscore.Internal_Hbond.Weighted>
0.0000

> <Gold.Chemscore.DEClash.Weighted>
0.2414

> <Gold.Chemscore.DEInternal.Weighted>
1.4877

> <Gold.Chemscore.Rot.Weighted>
7.8004

> <Gold.Chemscore.Internal.Correction.Weighted>
   9.000000E+99

> <Gold.Protein.RotatedTorsions>
[ 6907 6896 6895 6894 ] final   88.33 input  -60.11 | X-H torsion
[ 7974 7965 7964 7962 ] final -118.45 input  175.53 | X-H torsion
[ 8008 7997 7996 7995 ] final -177.49 input   59.86 | X-H torsion
[ 10167 10162 10161 10158 ] final   98.94 input  -65.29 | X-H torsion
[ 10718 10713 10712 10709 ] final  -22.31 input   66.30 | X-H torsion
[ 10763 10752 10751 10750 ] final -124.97 input  -60.55 | X-H torsion
[ 11005 11000 10999 10996 ] final  -96.77 input  -57.11 | X-H torsion

> <Gold.Protein.ActiveResidues>
 VAL166  LYS551  ARG553  GLY616  TRP617  ASP618  TYR619  PRO620  LYS621  CYS622 
 ASP623  PHE694  ASN695  SER759  ASP760  ASP761  ALA762  ILE779  LEU786  VAL792 
 PHE793  MET794  SER795  GLU796  ALA797  LYS798  CYS799  TRP800  GLU811  SER814 

> <Gold.Protein.RotatedAtoms>
  152.5423  134.2138  159.8760 H   0  0  0  0  0  0  0  0  0  0  0  0  # atno 6907 bound_to 6896
  151.2119  133.4544  159.2606 H   0  0  0  0  0  0  0  0  0  0  0  0  # atno 6908 bound_to 6896
  151.0888  134.9916  159.8448 H   0  0  0  0  0  0  0  0  0  0  0  0  # atno 6909 bound_to 6896
  145.0737  140.8377  143.4080 H   0  0  0  0  0  0  0  0  0  0  0  0  # atno 7974 bound_to 7965
  156.0075  140.1233  157.0486 H   0  0  0  0  0  0  0  0  0  0  0  0  # atno 8008 bound_to 7997
  154.4264  140.1094  156.5852 H   0  0  0  0  0  0  0  0  0  0  0  0  # atno 8009 bound_to 7997
  155.6126  140.3471  155.4629 H   0  0  0  0  0  0  0  0  0  0  0  0  # atno 8010 bound_to 7997
  139.7663  144.6938  151.0220 H   0  0  0  0  0  0  0  0  0  0  0  0  # atno 10167 bound_to 10162
  156.5062  130.4599  149.6673 H   0  0  0  0  0  0  0  0  0  0  0  0  # atno 10718 bound_to 10713
  154.8730  135.4045  154.3192 H   0  0  0  0  0  0  0  0  0  0  0  0  # atno 10763 bound_to 10752
  153.4023  135.7018  153.6422 H   0  0  0  0  0  0  0  0  0  0  0  0  # atno 10764 bound_to 10752
  153.5160  135.3697  155.2580 H   0  0  0  0  0  0  0  0  0  0  0  0  # atno 10765 bound_to 10752
  141.1400  133.8122  157.0617 H   0  0  0  0  0  0  0  0  0  0  0  0  # atno 11005 bound_to 11000
  145.1262  139.2661  143.5563 LP  0  0  0  0  0  0  0  0  0  0  0  0  # atno 17320 bound_to 7965
  146.3529  140.0900  142.8613 LP  0  0  0  0  0  0  0  0  0  0  0  0  # atno 17321 bound_to 7965
  140.7811  143.4639  151.0239 LP  0  0  0  0  0  0  0  0  0  0  0  0  # atno 17342 bound_to 10162
  139.8324  143.7673  152.3180 LP  0  0  0  0  0  0  0  0  0  0  0  0  # atno 17343 bound_to 10162
  156.3284  130.7318  151.2243 LP  0  0  0  0  0  0  0  0  0  0  0  0  # atno 17370 bound_to 10713
  157.7456  131.0436  150.4754 LP  0  0  0  0  0  0  0  0  0  0  0  0  # atno 17371 bound_to 10713
  140.0567  134.9776  157.1233 LP  0  0  0  0  0  0  0  0  0  0  0  0  # atno 17394 bound_to 11000
  140.3908  134.2186  155.7166 LP  0  0  0  0  0  0  0  0  0  0  0  0  # atno 17395 bound_to 11000

$$$$
