AV-unprocessed.smi:1817|AV-procd|sdf|7376|dock3
  -GOLD-   22720 9 43D 1   1.00000     0.00000
 Structure written by MMmdl.
 42 43  0  0  0  0  0  0  0  0  3 V2000
  143.4971  132.4840  150.5112 C   0  0  0  0  0  0  0  0  0  0  0  0
  144.8509  132.3187  151.2164 C   0  0  0  0  0  0  0  0  0  0  0  0
  145.8196  133.3277  150.7818 N   0  0  0  0  0  0  0  0  0  0  0  0
  145.5340  134.6526  151.3311 C   0  0  0  0  0  0  0  0  0  0  0  0
  145.8076  134.7284  152.8478 C   0  0  0  0  0  0  0  0  0  0  0  0
  147.2196  134.3754  153.1617 N   0  3  0  0  0  0  0  0  0  0  0  0
  147.5710  134.4781  154.6160 C   0  0  2  0  0  0  0  0  0  0  0  0
  147.3645  135.9030  155.1757 C   0  0  0  0  0  0  0  0  0  0  0  0
  149.0249  134.0334  154.9074 C   0  0  0  0  0  0  0  0  0  0  0  0
  149.4391  134.4036  156.2587 N   0  0  0  0  0  0  0  0  0  0  0  0
  148.7020  134.3009  157.3714 C   0  0  0  0  0  0  0  0  0  0  0  0
  147.5563  133.8494  157.3169 O   0  0  0  0  0  0  0  0  0  0  0  0
  149.3451  134.7322  158.4793 N   0  5  0  0  0  0  0  0  0  0  0  0
  148.6411  135.1297  159.5522 C   0  0  0  0  0  0  0  0  0  0  0  0
  148.6089  136.4098  159.9558 N   0  0  0  0  0  0  0  0  0  0  0  0
  147.8210  136.6072  161.0819 N   0  0  0  0  0  0  0  0  0  0  0  0
  147.2684  135.4667  161.4945 C   0  0  0  0  0  0  0  0  0  0  0  0
  147.6583  134.0485  160.5439 S   0  0  0  0  0  0  0  0  0  0  0  0
  147.5395  133.0457  152.5727 C   0  0  0  0  0  0  0  0  0  0  0  0
  147.2210  133.0076  151.0637 C   0  0  0  0  0  0  0  0  0  0  0  0
  142.7608  131.8023  150.9370 H   0  0  0  0  0  0  0  0  0  0  0  0
  143.5602  132.2636  149.4460 H   0  0  0  0  0  0  0  0  0  0  0  0
  143.1122  133.4978  150.6263 H   0  0  0  0  0  0  0  0  0  0  0  0
  144.6874  132.4385  152.2881 H   0  0  0  0  0  0  0  0  0  0  0  0
  145.2287  131.3070  151.0743 H   0  0  0  0  0  0  0  0  0  0  0  0
  146.1519  135.3867  150.8119 H   0  0  0  0  0  0  0  0  0  0  0  0
  144.4986  134.9219  151.1192 H   0  0  0  0  0  0  0  0  0  0  0  0
  145.5938  135.7512  153.1539 H   0  0  0  0  0  0  0  0  0  0  0  0
  145.1270  134.0836  153.4052 H   0  0  0  0  0  0  0  0  0  0  0  0
  146.9042  133.8140  155.1684 H   0  0  0  0  0  0  0  0  0  0  0  0
  147.7344  135.9794  156.1985 H   0  0  0  0  0  0  0  0  0  0  0  0
  146.3120  136.1825  155.2153 H   0  0  0  0  0  0  0  0  0  0  0  0
  147.8948  136.6475  154.5807 H   0  0  0  0  0  0  0  0  0  0  0  0
  149.1162  132.9576  154.7479 H   0  0  0  0  0  0  0  0  0  0  0  0
  149.7191  134.4849  154.1990 H   0  0  0  0  0  0  0  0  0  0  0  0
  150.3724  134.7710  156.3670 H   0  0  0  0  0  0  0  0  0  0  0  0
  146.6245  135.4606  162.3613 H   0  0  0  0  0  0  0  0  0  0  0  0
  148.6006  132.8278  152.6812 H   0  0  0  0  0  0  0  0  0  0  0  0
  147.0068  132.2596  153.1089 H   0  0  0  0  0  0  0  0  0  0  0  0
  147.4815  132.0356  150.6464 H   0  0  0  0  0  0  0  0  0  0  0  0
  147.8508  133.7314  150.5442 H   0  0  0  0  0  0  0  0  0  0  0  0
  147.7957  135.0511  152.6799 H   0  0  0  0  0  0  0  0  0  0  0  0
  1  2  1  0  0  0  0
  1 21  1  0  0  0  0
  1 22  1  0  0  0  0
  1 23  1  0  0  0  0
  2  3  1  0  0  0  0
  2 24  1  0  0  0  0
  2 25  1  0  0  0  0
  3 20  1  0  0  0  0
  3  4  1  0  0  0  0
  4  5  1  0  0  0  0
  4 26  1  0  0  0  0
  4 27  1  0  0  0  0
  5  6  1  0  0  0  0
  5 28  1  0  0  0  0
  5 29  1  0  0  0  0
  6  7  1  0  0  0  0
  6 19  1  0  0  0  0
  6 42  1  0  0  0  0
  7  8  1  0  0  0  0
  7  9  1  0  0  0  0
  7 30  1  0  0  0  0
  8 31  1  0  0  0  0
  8 32  1  0  0  0  0
  8 33  1  0  0  0  0
  9 10  1  0  0  0  0
  9 34  1  0  0  0  0
  9 35  1  0  0  0  0
 10 11  1  0  0  0  0
 10 36  1  0  0  0  0
 11 12  2  0  0  0  0
 11 13  1  0  0  0  0
 13 14  1  0  0  0  0
 14 18  1  0  0  0  0
 14 15  2  0  0  0  0
 15 16  1  0  0  0  0
 16 17  2  0  0  0  0
 17 18  1  0  0  0  0
 17 37  1  0  0  0  0
 19 20  1  0  0  0  0
 19 38  1  0  0  0  0
 19 39  1  0  0  0  0
 20 40  1  0  0  0  0
 20 41  1  0  0  0  0
M  CHG  1   6   1
M  CHG  1  13  -1
M  END
> <s_m_source_file>
AV-unprocessed.smi

> <i_m_source_file_index>
1817

> <i_lp_mmshare_version>
43012

> <i_f3d_flags>
0

> <s_epik_input>
W0NIM11bQ0gyXU4xW0NIMl1bQ0gyXU4oW0NIMl1bQ0gyXTEpW0NASF0oW0NIM10pW0NIMl1bTkhdQyg9TylbTkhdYzJubltjSF1zMg==

> <s_epik_cmdline>
J2VwaWtfcHl0aG9uJywgJy1waCcsICc3LjAnLCAnLXRuJywgJzgnLCAnLW1hJywgJzIwMCcsICctbWV0YWxfYmluZGluZycsICctaW1hZScsICc8aW5maWxlLm1hZT4nLCAnLW9tYWUnLCAnPG91dGZpbGUubWFlPic=

> <r_epik_Ionization_Penalty>
3.16835

> <r_epik_Ionization_Penalty_Charging>
3.13468

> <r_epik_Ionization_Penalty_Neutral>
0.0336711

> <r_epik_State_Penalty>
3.95884

> <r_epik_Charging_Adjusted_Penalty>
7.09351

> <i_epik_Tot_Q>
0

> <i_epik_Tot_abs_Q>
2

> <r_epik_Metal_State_Penalty>
1.39003

> <b_epik_Metal_Only>
1

> <s_lp_Force_Field>
OPLS_2005

> <r_lp_Energy>
20.7646

> <b_lp_Chiralities_Consistent>
1

> <s_lp_Variant>
AV-unprocessed.smi:1817-9

> <Gold.Version>
5.8.1

> <Gold.Id.Protein>
6NUR|6NUR_protein|mol2

> <Gold.PLP.Fitness>
40.8908

> <Gold.PLP.PLP>
-26.4296

> <Gold.PLP.part.hbond>
-4.4420

> <Gold.PLP.part.metal>
0.0000

> <Gold.PLP.part.buried>
-2.5274

> <Gold.PLP.part.nonpolar>
-19.7074

> <Gold.PLP.part.repulsive>
0.2031

> <Gold.PLP.ligand.clash>
0.0000

> <Gold.PLP.ligand.torsion>
1.1484

> <Gold.PLP.Chemscore.Hbond>
5.5520

> <Gold.PLP.Chemscore.CHOScore>
0.0000

> <Gold.PLP.Chemscore.Metal>
0.0000

> <Gold.Chemscore.Hbonds>
donor molecule, donor type, donor heavy atom, donor atom, acceptor molecule, acceptor atom, score
      L1  H     6    42       P1  7948  2.00
      P1  H  6896  6909       L1    13  1.20
      P1  H  6931  6943       L1    16  0.43

> <Gold.PLP.Chemscore.Internal.Correction>
0.1020

> <Gold.Rescore>
     Score         DG    S(hbond)    S(metal)    S(lipo)     H(rot)  DE(clash)    DE(int)     intcor
     13.70     -16.49       2.78        0.00      55.97       1.88       0.10       2.69       ----

> <Gold.Chemscore.Fitness>
13.6978

> <Gold.Chemscore.DG>
-16.4862

> <Gold.Chemscore.ZeroCoef>
-5.4800

> <Gold.Chemscore.Hbond>
2.7775

> <Gold.Chemscore.Metal>
0.0000

> <Gold.Chemscore.Lipo>
55.9703

> <Gold.Chemscore.Internal_Hbond>
0.0000

> <Gold.Chemscore.DEClash>
0.0990

> <Gold.Chemscore.DEInternal>
2.6895

> <Gold.Chemscore.Rot>
1.8825

> <Gold.Chemscore.Internal.Correction>
   9.000000E+99

> <Gold.Chemscore.Hbonds>
donor molecule, donor type, donor heavy atom, donor atom, acceptor molecule, acceptor atom, score
      L1  H     6    42       P1  7948  0.98
      P1  H  6896  6909       L1    13  0.04
      P1  H  6931  6943       L1    16  0.05

> <Gold.Chemscore.Hbond.Weighted>
-9.2768

> <Gold.Chemscore.Metal.Weighted>
-0.0000

> <Gold.Chemscore.Lipo.Weighted>
-6.5485

> <Gold.Chemscore.Internal_Hbond.Weighted>
0.0000

> <Gold.Chemscore.DEClash.Weighted>
0.0990

> <Gold.Chemscore.DEInternal.Weighted>
2.6895

> <Gold.Chemscore.Rot.Weighted>
4.8191

> <Gold.Chemscore.Internal.Correction.Weighted>
   9.000000E+99

> <Gold.Protein.RotatedTorsions>
[ 6907 6896 6895 6894 ] final   30.33 input  -60.11 | X-H torsion
[ 7974 7965 7964 7962 ] final -138.96 input  175.53 | X-H torsion
[ 8008 7997 7996 7995 ] final -172.95 input   59.86 | X-H torsion
[ 10167 10162 10161 10158 ] final -143.63 input  -65.29 | X-H torsion
[ 10718 10713 10712 10709 ] final -166.56 input   66.30 | X-H torsion
[ 10763 10752 10751 10750 ] final  -73.54 input  -60.55 | X-H torsion
[ 11005 11000 10999 10996 ] final  146.16 input  -57.11 | X-H torsion

> <Gold.Protein.ActiveResidues>
 VAL166  LYS551  ARG553  GLY616  TRP617  ASP618  TYR619  PRO620  LYS621  CYS622 
 ASP623  PHE694  ASN695  SER759  ASP760  ASP761  ALA762  ILE779  LEU786  VAL792 
 PHE793  MET794  SER795  GLU796  ALA797  LYS798  CYS799  TRP800  GLU811  SER814 

> <Gold.Protein.RotatedAtoms>
  152.0444  134.9692  160.0573 H   0  0  0  0  0  0  0  0  0  0  0  0  # atno 6907 bound_to 6896
  152.1118  133.4300  159.4642 H   0  0  0  0  0  0  0  0  0  0  0  0  # atno 6908 bound_to 6896
  150.6844  134.2558  159.4572 H   0  0  0  0  0  0  0  0  0  0  0  0  # atno 6909 bound_to 6896
  144.8715  140.6374  143.5264 H   0  0  0  0  0  0  0  0  0  0  0  0  # atno 7974 bound_to 7965
  155.9512  140.1127  157.0975 H   0  0  0  0  0  0  0  0  0  0  0  0  # atno 8008 bound_to 7997
  154.4110  140.1200  156.5121 H   0  0  0  0  0  0  0  0  0  0  0  0  # atno 8009 bound_to 7997
  155.6840  140.3473  155.4869 H   0  0  0  0  0  0  0  0  0  0  0  0  # atno 8010 bound_to 7997
  139.7975  143.7880  152.2655 H   0  0  0  0  0  0  0  0  0  0  0  0  # atno 10167 bound_to 10162
  156.6696  130.9079  151.3042 H   0  0  0  0  0  0  0  0  0  0  0  0  # atno 10718 bound_to 10713
  154.4608  135.5894  153.6254 H   0  0  0  0  0  0  0  0  0  0  0  0  # atno 10763 bound_to 10752
  152.9823  135.6043  154.3488 H   0  0  0  0  0  0  0  0  0  0  0  0  # atno 10764 bound_to 10752
  154.3360  135.2842  155.2426 H   0  0  0  0  0  0  0  0  0  0  0  0  # atno 10765 bound_to 10752
  140.0771  134.9118  157.1440 H   0  0  0  0  0  0  0  0  0  0  0  0  # atno 11005 bound_to 11000
  145.4121  139.1578  143.4120 LP  0  0  0  0  0  0  0  0  0  0  0  0  # atno 17320 bound_to 7965
  146.2934  140.4226  142.8731 LP  0  0  0  0  0  0  0  0  0  0  0  0  # atno 17321 bound_to 7965
  139.7990  144.7381  150.9851 LP  0  0  0  0  0  0  0  0  0  0  0  0  # atno 17342 bound_to 10162
  140.7820  143.4364  151.0616 LP  0  0  0  0  0  0  0  0  0  0  0  0  # atno 17343 bound_to 10162
  157.7082  130.9409  150.0999 LP  0  0  0  0  0  0  0  0  0  0  0  0  # atno 17370 bound_to 10713
  156.1948  130.3657  149.8863 LP  0  0  0  0  0  0  0  0  0  0  0  0  # atno 17371 bound_to 10713
  140.3542  134.2565  155.7194 LP  0  0  0  0  0  0  0  0  0  0  0  0  # atno 17394 bound_to 11000
  141.2033  133.7915  157.0345 LP  0  0  0  0  0  0  0  0  0  0  0  0  # atno 17395 bound_to 11000

$$$$
