AV-unprocessed.smi:1897|AV-procd|sdf|7697|dock8
  -GOLD-   22720 9433D 1   1.00000     0.00000
 Structure written by MMmdl.
 38 40  0  0  0  0  0  0  0  0  3 V2000
  152.2544  138.8215  154.5786 C   0  0  0  0  0  0  0  0  0  0  0  0
  151.2716  137.7545  154.9200 C   0  0  0  0  0  0  0  0  0  0  0  0
  151.6247  136.6085  155.5066 N   0  0  0  0  0  0  0  0  0  0  0  0
  150.5383  135.7722  155.7168 N   0  0  0  0  0  0  0  0  0  0  0  0
  149.3791  136.3011  155.3006 C   0  0  0  0  0  0  0  0  0  0  0  0
  148.2056  135.6522  155.4182 N   0  5  0  0  0  0  0  0  0  0  0  0
  147.9893  134.4256  154.8757 C   0  0  0  0  0  0  0  0  0  0  0  0
  147.3973  133.5203  155.4617 O   0  0  0  0  0  0  0  0  0  0  0  0
  148.4512  134.2008  153.6317 N   0  0  0  0  0  0  0  0  0  0  0  0
  148.3209  132.9567  152.8839 C   0  0  1  0  0  0  0  0  0  0  0  0
  148.5779  131.6925  153.7263 C   0  0  0  0  0  0  0  0  0  0  0  0
  147.5313  130.6663  153.2503 C   0  0  0  0  0  0  0  0  0  0  0  0
  146.8415  131.3119  152.1175 N   0  3  1  0  0  0  0  0  0  0  0  0
  145.4793  130.8353  151.7941 C   0  0  0  0  0  0  0  0  0  0  0  0
  144.9668  131.5741  150.5412 C   0  0  0  0  0  0  0  0  0  0  0  0
  145.0620  133.1060  150.6998 C   0  0  0  0  0  0  0  0  0  0  0  0
  146.4785  133.5343  151.1298 C   0  0  0  0  0  0  0  0  0  0  0  0
  146.8906  132.7556  152.3894 C   0  0  2  0  0  0  0  0  0  0  0  0
  149.5541  137.9049  154.5887 S   0  0  0  0  0  0  0  0  0  0  0  0
  152.4712  139.4243  155.4605 H   0  0  0  0  0  0  0  0  0  0  0  0
  151.8531  139.4701  153.7998 H   0  0  0  0  0  0  0  0  0  0  0  0
  153.1832  138.3788  154.2178 H   0  0  0  0  0  0  0  0  0  0  0  0
  148.9289  134.9623  153.1721 H   0  0  0  0  0  0  0  0  0  0  0  0
  148.9958  132.9630  152.0254 H   0  0  0  0  0  0  0  0  0  0  0  0
  149.5965  131.3303  153.5829 H   0  0  0  0  0  0  0  0  0  0  0  0
  148.4475  131.8888  154.7916 H   0  0  0  0  0  0  0  0  0  0  0  0
  147.9822  129.7221  152.9442 H   0  0  0  0  0  0  0  0  0  0  0  0
  146.8207  130.4592  154.0520 H   0  0  0  0  0  0  0  0  0  0  0  0
  145.5001  129.7599  151.6155 H   0  0  0  0  0  0  0  0  0  0  0  0
  144.8132  131.0105  152.6406 H   0  0  0  0  0  0  0  0  0  0  0  0
  145.5560  131.2664  149.6761 H   0  0  0  0  0  0  0  0  0  0  0  0
  143.9372  131.2835  150.3303 H   0  0  0  0  0  0  0  0  0  0  0  0
  144.7876  133.5980  149.7662 H   0  0  0  0  0  0  0  0  0  0  0  0
  144.3405  133.4381  151.4475 H   0  0  0  0  0  0  0  0  0  0  0  0
  147.1851  133.3434  150.3210 H   0  0  0  0  0  0  0  0  0  0  0  0
  146.5053  134.6072  151.3229 H   0  0  0  0  0  0  0  0  0  0  0  0
  146.1938  132.9802  153.2010 H   0  0  0  0  0  0  0  0  0  0  0  0
  147.4187  131.1561  151.3035 H   0  0  0  0  0  0  0  0  0  0  0  0
  1  2  1  0  0  0  0
  1 20  1  0  0  0  0
  1 21  1  0  0  0  0
  1 22  1  0  0  0  0
  2 19  1  0  0  0  0
  2  3  2  0  0  0  0
  3  4  1  0  0  0  0
  4  5  2  0  0  0  0
  5  6  1  0  0  0  0
  5 19  1  0  0  0  0
  6  7  1  0  0  0  0
  7  8  2  0  0  0  0
  7  9  1  0  0  0  0
  9 10  1  0  0  0  0
  9 23  1  0  0  0  0
 10 18  1  0  0  0  0
 10 11  1  0  0  0  0
 10 24  1  0  0  0  0
 11 12  1  0  0  0  0
 11 25  1  0  0  0  0
 11 26  1  0  0  0  0
 12 13  1  0  0  0  0
 12 27  1  0  0  0  0
 12 28  1  0  0  0  0
 13 18  1  0  0  0  0
 13 14  1  0  0  0  0
 13 38  1  0  0  0  0
 14 15  1  0  0  0  0
 14 29  1  0  0  0  0
 14 30  1  0  0  0  0
 15 16  1  0  0  0  0
 15 31  1  0  0  0  0
 15 32  1  0  0  0  0
 16 17  1  0  0  0  0
 16 33  1  0  0  0  0
 16 34  1  0  0  0  0
 17 18  1  0  0  0  0
 17 35  1  0  0  0  0
 17 36  1  0  0  0  0
 18 37  1  0  0  0  0
M  CHG  1   6  -1
M  CHG  1  13   1
M  END
> <s_m_source_file>
AV-unprocessed.smi

> <i_m_source_file_index>
1897

> <i_lp_mmshare_version>
43012

> <i_f3d_flags>
0

> <s_epik_input>
W0NIM11jMW5uYyhzMSlbTkhdQyg9TylbTkhdW0NASF0oW0NIMl1bQ0gyXTIpW0NAQEhdKE4yMylbQ0gyXVtDSDJdW0NIMl1bQ0gyXTM=

> <s_epik_cmdline>
J2VwaWtfcHl0aG9uJywgJy1waCcsICc3LjAnLCAnLXRuJywgJzgnLCAnLW1hJywgJzIwMCcsICctbWV0YWxfYmluZGluZycsICctaW1hZScsICc8aW5maWxlLm1hZT4nLCAnLW9tYWUnLCAnPG91dGZpbGUubWFlPic=

> <r_lp_tautomer_probability>
1

> <r_epik_Ionization_Penalty>
3.77712

> <r_epik_Ionization_Penalty_Charging>
3.67739

> <r_epik_Ionization_Penalty_Neutral>
0.0997294

> <r_epik_State_Penalty>
3.67514

> <r_epik_Charging_Adjusted_Penalty>
7.35254

> <i_epik_Tot_Q>
0

> <i_epik_Tot_abs_Q>
2

> <r_epik_Metal_State_Penalty>
0.540795

> <b_epik_Metal_Only>
1

> <s_lp_Force_Field>
OPLS_2005

> <r_lp_Energy>
28.3621

> <b_lp_Chiralities_Consistent>
1

> <s_lp_Variant>
AV-unprocessed.smi:1897-14

> <Gold.Version>
5.8.1

> <Gold.Id.Protein>
6NUR|6NUR_protein|mol2

> <Gold.PLP.Fitness>
38.7158

> <Gold.PLP.PLP>
-31.9287

> <Gold.PLP.part.hbond>
-3.0000

> <Gold.PLP.part.metal>
0.0000

> <Gold.PLP.part.buried>
-5.4217

> <Gold.PLP.part.nonpolar>
-25.0553

> <Gold.PLP.part.repulsive>
0.2079

> <Gold.PLP.ligand.clash>
0.0000

> <Gold.PLP.ligand.torsion>
1.0763

> <Gold.PLP.Chemscore.Hbond>
2.9760

> <Gold.PLP.Chemscore.CHOScore>
0.0000

> <Gold.PLP.Chemscore.Metal>
0.0000

> <Gold.Chemscore.Hbonds>
donor molecule, donor type, donor heavy atom, donor atom, acceptor molecule, acceptor atom, score
      L1  H     9    23       P1  7948  0.94
      L1  H    13    38       P1 10747  1.00
      P1  H 10752 10765       L1     3  1.00

> <Gold.PLP.Chemscore.Internal.Correction>
0.0118

> <Gold.Rescore>
     Score         DG    S(hbond)    S(metal)    S(lipo)     H(rot)  DE(clash)    DE(int)     intcor
     16.59     -19.12       2.10        0.00      78.56       1.00       0.03       2.50       ----

> <Gold.Chemscore.Fitness>
16.5866

> <Gold.Chemscore.DG>
-19.1166

> <Gold.Chemscore.ZeroCoef>
-5.4800

> <Gold.Chemscore.Hbond>
2.0974

> <Gold.Chemscore.Metal>
0.0000

> <Gold.Chemscore.Lipo>
78.5575

> <Gold.Chemscore.Internal_Hbond>
0.0000

> <Gold.Chemscore.DEClash>
0.0292

> <Gold.Chemscore.DEInternal>
2.5008

> <Gold.Chemscore.Rot>
1.0000

> <Gold.Chemscore.Internal.Correction>
   9.000000E+99

> <Gold.Chemscore.Hbonds>
donor molecule, donor type, donor heavy atom, donor atom, acceptor molecule, acceptor atom, score
      L1  H     9    23       P1  7948  0.20
      L1  H    13    38       P1 10747  0.99
      P1  H 10752 10765       L1     3  0.58

> <Gold.Chemscore.Hbond.Weighted>
-7.0054

> <Gold.Chemscore.Metal.Weighted>
-0.0000

> <Gold.Chemscore.Lipo.Weighted>
-9.1912

> <Gold.Chemscore.Internal_Hbond.Weighted>
0.0000

> <Gold.Chemscore.DEClash.Weighted>
0.0292

> <Gold.Chemscore.DEInternal.Weighted>
2.5008

> <Gold.Chemscore.Rot.Weighted>
2.5600

> <Gold.Chemscore.Internal.Correction.Weighted>
   9.000000E+99

> <Gold.Protein.RotatedTorsions>
[ 6907 6896 6895 6894 ] final  160.61 input  -60.11 | X-H torsion
[ 7974 7965 7964 7962 ] final  174.91 input  175.53 | X-H torsion
[ 8008 7997 7996 7995 ] final  -24.99 input   59.86 | X-H torsion
[ 10167 10162 10161 10158 ] final   93.65 input  -65.29 | X-H torsion
[ 10718 10713 10712 10709 ] final   25.43 input   66.30 | X-H torsion
[ 10763 10752 10751 10750 ] final -174.13 input  -60.55 | X-H torsion
[ 11005 11000 10999 10996 ] final   41.44 input  -57.11 | X-H torsion

> <Gold.Protein.ActiveResidues>
 VAL166  LYS551  ARG553  GLY616  TRP617  ASP618  TYR619  PRO620  LYS621  CYS622 
 ASP623  PHE694  ASN695  SER759  ASP760  ASP761  ALA762  ILE779  LEU786  VAL792 
 PHE793  MET794  SER795  GLU796  ALA797  LYS798  CYS799  TRP800  GLU811  SER814 

> <Gold.Protein.RotatedAtoms>
  151.9681  133.3717  159.4060 H   0  0  0  0  0  0  0  0  0  0  0  0  # atno 6907 bound_to 6896
  150.6953  134.4169  159.5196 H   0  0  0  0  0  0  0  0  0  0  0  0  # atno 6908 bound_to 6896
  152.1869  134.8706  160.0572 H   0  0  0  0  0  0  0  0  0  0  0  0  # atno 6909 bound_to 6896
  144.7212  139.9867  143.6439 H   0  0  0  0  0  0  0  0  0  0  0  0  # atno 7974 bound_to 7965
  154.4499  140.1938  156.0550 H   0  0  0  0  0  0  0  0  0  0  0  0  # atno 8008 bound_to 7997
  156.0626  140.3295  155.7452 H   0  0  0  0  0  0  0  0  0  0  0  0  # atno 8009 bound_to 7997
  155.5388  140.0584  157.2865 H   0  0  0  0  0  0  0  0  0  0  0  0  # atno 8010 bound_to 7997
  139.8159  144.6753  150.9581 H   0  0  0  0  0  0  0  0  0  0  0  0  # atno 10167 bound_to 10162
  157.1933  130.6856  149.6158 H   0  0  0  0  0  0  0  0  0  0  0  0  # atno 10718 bound_to 10713
  154.5998  135.2853  155.0547 H   0  0  0  0  0  0  0  0  0  0  0  0  # atno 10763 bound_to 10752
  154.1817  135.6455  153.5039 H   0  0  0  0  0  0  0  0  0  0  0  0  # atno 10764 bound_to 10752
  153.0152  135.5425  154.6713 H   0  0  0  0  0  0  0  0  0  0  0  0  # atno 10765 bound_to 10752
  140.1834  134.4075  155.8187 H   0  0  0  0  0  0  0  0  0  0  0  0  # atno 11005 bound_to 11000
  146.0444  139.3452  143.0678 LP  0  0  0  0  0  0  0  0  0  0  0  0  # atno 17320 bound_to 7965
  145.8294  140.9638  143.0857 LP  0  0  0  0  0  0  0  0  0  0  0  0  # atno 17321 bound_to 7965
  140.7816  143.4139  151.0948 LP  0  0  0  0  0  0  0  0  0  0  0  0  # atno 17342 bound_to 10162
  139.7803  143.8365  152.3136 LP  0  0  0  0  0  0  0  0  0  0  0  0  # atno 17343 bound_to 10162
  155.9709  130.4607  150.6083 LP  0  0  0  0  0  0  0  0  0  0  0  0  # atno 17370 bound_to 10713
  157.3839  131.0785  151.1453 LP  0  0  0  0  0  0  0  0  0  0  0  0  # atno 17371 bound_to 10713
  141.2224  133.7011  156.7970 LP  0  0  0  0  0  0  0  0  0  0  0  0  # atno 17394 bound_to 11000
  140.2241  134.8735  157.3408 LP  0  0  0  0  0  0  0  0  0  0  0  0  # atno 17395 bound_to 11000

$$$$
