AV-unprocessed.smi:1527|AV-procd|sdf|6148|dock4
  -GOLD-   22720 6293D 1   1.00000     0.00000
 Structure written by MMmdl.
 30 30  0  0  0  0  0  0  0  0  2 V2000
  152.3523  145.3911  158.8466 C   0  0  0  0  0  0  0  0  0  0  0  0
  152.5238  143.8664  158.7813 C   0  0  0  0  0  0  0  0  0  0  0  0
  153.2182  143.2673  160.0191 C   0  0  1  0  0  0  0  0  0  0  0  0
  152.4332  143.5548  161.3066 C   0  0  0  0  0  0  0  0  0  0  0  0
  153.3787  141.8226  159.8638 N   0  0  0  0  0  0  0  0  0  0  0  0
  152.4228  140.9555  159.4944 C   0  0  0  0  0  0  0  0  0  0  0  0
  151.2660  141.2928  159.2369 O   0  0  0  0  0  0  0  0  0  0  0  0
  152.8645  139.4854  159.4133 C   0  0  0  0  0  0  0  0  0  0  0  0
  152.4459  138.7945  158.1849 N   0  0  0  0  0  0  0  0  0  0  0  0
  152.8463  139.4795  156.9589 N   0  5  0  0  0  0  0  0  0  0  0  0
  152.5352  138.9239  155.7578 C   0  0  0  0  0  0  0  0  0  0  0  0
  152.8530  139.4335  154.6858 O   0  0  0  0  0  0  0  0  0  0  0  0
  151.7909  137.6753  155.7535 C   0  0  0  0  0  0  0  0  0  0  0  0
  151.4130  137.0776  156.9007 C   0  0  0  0  0  0  0  0  0  0  0  0
  151.7277  137.6352  158.2105 C   0  0  0  0  0  0  0  0  0  0  0  0
  151.3770  137.1002  159.2626 O   0  0  0  0  0  0  0  0  0  0  0  0
  151.8117  145.7574  157.9738 H   0  0  0  0  0  0  0  0  0  0  0  0
  153.3147  145.9026  158.8755 H   0  0  0  0  0  0  0  0  0  0  0  0
  151.7903  145.6854  159.7334 H   0  0  0  0  0  0  0  0  0  0  0  0
  151.5387  143.4118  158.6704 H   0  0  0  0  0  0  0  0  0  0  0  0
  153.0813  143.6048  157.8810 H   0  0  0  0  0  0  0  0  0  0  0  0
  154.1935  143.7472  160.1161 H   0  0  0  0  0  0  0  0  0  0  0  0
  152.3172  144.6275  161.4638 H   0  0  0  0  0  0  0  0  0  0  0  0
  152.9474  143.1488  162.1784 H   0  0  0  0  0  0  0  0  0  0  0  0
  151.4362  143.1137  161.2719 H   0  0  0  0  0  0  0  0  0  0  0  0
  154.2952  141.4474  160.0597 H   0  0  0  0  0  0  0  0  0  0  0  0
  153.9507  139.4397  159.5091 H   0  0  0  0  0  0  0  0  0  0  0  0
  152.4733  138.9639  160.2889 H   0  0  0  0  0  0  0  0  0  0  0  0
  151.5335  137.2184  154.8092 H   0  0  0  0  0  0  0  0  0  0  0  0
  150.8605  136.1514  156.8498 H   0  0  0  0  0  0  0  0  0  0  0  0
  1  2  1  0  0  0  0
  1 17  1  0  0  0  0
  1 18  1  0  0  0  0
  1 19  1  0  0  0  0
  2  3  1  0  0  0  0
  2 20  1  0  0  0  0
  2 21  1  0  0  0  0
  3  4  1  0  0  0  0
  3  5  1  0  0  0  0
  3 22  1  0  0  0  0
  4 23  1  0  0  0  0
  4 24  1  0  0  0  0
  4 25  1  0  0  0  0
  5  6  1  0  0  0  0
  5 26  1  0  0  0  0
  6  7  2  0  0  0  0
  6  8  1  0  0  0  0
  8 27  1  0  0  0  0
  8 28  1  0  0  0  0
  8  9  1  0  0  0  0
  9 10  1  0  0  0  0
  9 15  1  0  0  0  0
 10 11  1  0  0  0  0
 11 12  2  0  0  0  0
 11 13  1  0  0  0  0
 13 29  1  0  0  0  0
 13 14  2  0  0  0  0
 14 30  1  0  0  0  0
 14 15  1  0  0  0  0
 15 16  2  0  0  0  0
M  CHG  1  10  -1
M  END
> <s_m_source_file>
AV-unprocessed.smi

> <i_m_source_file_index>
1527

> <i_lp_mmshare_version>
43012

> <i_f3d_flags>
0

> <s_epik_input>
W0NIM11bQ0gyXVtDQEhdKFtDSDNdKVtOSF1DKD1PKVtDSDJdbjFbbkhdYyg9TylbY0hdW2NIXWMxPU8=

> <s_epik_cmdline>
J2VwaWtfcHl0aG9uJywgJy1waCcsICc3LjAnLCAnLXRuJywgJzgnLCAnLW1hJywgJzIwMCcsICctbWV0YWxfYmluZGluZycsICctaW1hZScsICc8aW5maWxlLm1hZT4nLCAnLW9tYWUnLCAnPG91dGZpbGUubWFlPic=

> <r_lp_tautomer_probability>
1

> <r_epik_Ionization_Penalty>
0.0984334

> <r_epik_Ionization_Penalty_Charging>
0.0984334

> <r_epik_Ionization_Penalty_Neutral>
1.93017e-08

> <r_epik_State_Penalty>
0.0346952

> <r_epik_Charging_Adjusted_Penalty>
0.133129

> <i_epik_Tot_Q>
-1

> <i_epik_Tot_abs_Q>
1

> <r_epik_Metal_State_Penalty>
0.0346952

> <b_epik_Metal_Only>
0

> <s_lp_Force_Field>
OPLS_2005

> <r_lp_Energy>
18.954

> <b_lp_Chiralities_Consistent>
1

> <s_lp_Variant>
AV-unprocessed.smi:1527-2

> <Gold.Version>
5.8.1

> <Gold.Id.Protein>
6NUR|6NUR_protein|mol2

> <Gold.PLP.Fitness>
43.2674

> <Gold.PLP.PLP>
-33.1654

> <Gold.PLP.part.hbond>
-3.6744

> <Gold.PLP.part.metal>
0.0000

> <Gold.PLP.part.buried>
-5.1531

> <Gold.PLP.part.nonpolar>
-24.2821

> <Gold.PLP.part.repulsive>
0.1026

> <Gold.PLP.ligand.clash>
0.0000

> <Gold.PLP.ligand.torsion>
0.3198

> <Gold.PLP.Chemscore.Hbond>
3.5760

> <Gold.PLP.Chemscore.CHOScore>
0.0000

> <Gold.PLP.Chemscore.Metal>
0.0000

> <Gold.Chemscore.Hbonds>
donor molecule, donor type, donor heavy atom, donor atom, acceptor molecule, acceptor atom, score
      P1  H  6896  6908       L1    16  0.94
      P1  H  7989  7998       L1    12  0.29
      P1  H  7997  8009       L1    10  1.80

> <Gold.PLP.Chemscore.Internal.Correction>
0.0136

> <Gold.Rescore>
     Score         DG    S(hbond)    S(metal)    S(lipo)     H(rot)  DE(clash)    DE(int)     intcor
     15.17     -16.81       2.56        0.00      66.36       1.94       0.08       1.56       ----

> <Gold.Chemscore.Fitness>
15.1716

> <Gold.Chemscore.DG>
-16.8121

> <Gold.Chemscore.ZeroCoef>
-5.4800

> <Gold.Chemscore.Hbond>
2.5589

> <Gold.Chemscore.Metal>
0.0000

> <Gold.Chemscore.Lipo>
66.3641

> <Gold.Chemscore.Internal_Hbond>
0.0000

> <Gold.Chemscore.DEClash>
0.0785

> <Gold.Chemscore.DEInternal>
1.5620

> <Gold.Chemscore.Rot>
1.9449

> <Gold.Chemscore.Internal.Correction>
   9.000000E+99

> <Gold.Chemscore.Hbonds>
donor molecule, donor type, donor heavy atom, donor atom, acceptor molecule, acceptor atom, score
      P1  H  6896  6908       L1    16  0.89
      P1  H  7989  7998       L1    12  0.29
      P1  H  7997  8009       L1    10  0.18

> <Gold.Chemscore.Hbond.Weighted>
-8.5466

> <Gold.Chemscore.Metal.Weighted>
-0.0000

> <Gold.Chemscore.Lipo.Weighted>
-7.7646

> <Gold.Chemscore.Internal_Hbond.Weighted>
0.0000

> <Gold.Chemscore.DEClash.Weighted>
0.0785

> <Gold.Chemscore.DEInternal.Weighted>
1.5620

> <Gold.Chemscore.Rot.Weighted>
4.9791

> <Gold.Chemscore.Internal.Correction.Weighted>
   9.000000E+99

> <Gold.Protein.RotatedTorsions>
[ 6907 6896 6895 6894 ] final -135.46 input  -60.11 | X-H torsion
[ 7974 7965 7964 7962 ] final  144.85 input  175.53 | X-H torsion
[ 8008 7997 7996 7995 ] final -174.81 input   59.86 | X-H torsion
[ 10167 10162 10161 10158 ] final  -17.15 input  -65.29 | X-H torsion
[ 10718 10713 10712 10709 ] final  170.54 input   66.30 | X-H torsion
[ 10763 10752 10751 10750 ] final -168.65 input  -60.55 | X-H torsion
[ 11005 11000 10999 10996 ] final   34.05 input  -57.11 | X-H torsion

> <Gold.Protein.ActiveResidues>
 VAL166  LYS551  ARG553  GLY616  TRP617  ASP618  TYR619  PRO620  LYS621  CYS622 
 ASP623  PHE694  ASN695  SER759  ASP760  ASP761  ALA762  ILE779  LEU786  VAL792 
 PHE793  MET794  SER795  GLU796  ALA797  LYS798  CYS799  TRP800  GLU811  SER814 

> <Gold.Protein.RotatedAtoms>
  150.9981  133.6082  159.2698 H   0  0  0  0  0  0  0  0  0  0  0  0  # atno 6907 bound_to 6896
  151.3279  135.0833  159.9338 H   0  0  0  0  0  0  0  0  0  0  0  0  # atno 6908 bound_to 6896
  152.5266  133.9617  159.7774 H   0  0  0  0  0  0  0  0  0  0  0  0  # atno 6909 bound_to 6896
  144.8801  139.5712  143.5847 H   0  0  0  0  0  0  0  0  0  0  0  0  # atno 7974 bound_to 7965
  155.9748  140.1170  157.0780 H   0  0  0  0  0  0  0  0  0  0  0  0  # atno 8008 bound_to 7997
  154.4166  140.1156  156.5422 H   0  0  0  0  0  0  0  0  0  0  0  0  # atno 8009 bound_to 7997
  155.6549  140.3473  155.4764 H   0  0  0  0  0  0  0  0  0  0  0  0  # atno 8010 bound_to 7997
  140.7243  143.5044  150.9828 H   0  0  0  0  0  0  0  0  0  0  0  0  # atno 10167 bound_to 10162
  157.0066  131.0192  151.2815 H   0  0  0  0  0  0  0  0  0  0  0  0  # atno 10718 bound_to 10713
  154.6607  135.2924  154.9870 H   0  0  0  0  0  0  0  0  0  0  0  0  # atno 10763 bound_to 10752
  154.0931  135.6588  153.4860 H   0  0  0  0  0  0  0  0  0  0  0  0  # atno 10764 bound_to 10752
  153.0428  135.5225  154.7556 H   0  0  0  0  0  0  0  0  0  0  0  0  # atno 10765 bound_to 10752
  140.2568  134.3238  155.7871 H   0  0  0  0  0  0  0  0  0  0  0  0  # atno 11005 bound_to 11000
  146.2989  139.7363  142.9106 LP  0  0  0  0  0  0  0  0  0  0  0  0  # atno 17320 bound_to 7965
  145.3970  141.0380  143.3092 LP  0  0  0  0  0  0  0  0  0  0  0  0  # atno 17321 bound_to 7965
  139.8755  143.7138  152.3162 LP  0  0  0  0  0  0  0  0  0  0  0  0  # atno 17342 bound_to 10162
  139.7402  144.7561  151.0665 LP  0  0  0  0  0  0  0  0  0  0  0  0  # atno 17343 bound_to 10162
  157.5351  130.8084  149.7963 LP  0  0  0  0  0  0  0  0  0  0  0  0  # atno 17370 bound_to 10713
  156.0151  130.3817  150.2136 LP  0  0  0  0  0  0  0  0  0  0  0  0  # atno 17371 bound_to 10713
  141.2195  133.7386  156.9124 LP  0  0  0  0  0  0  0  0  0  0  0  0  # atno 17394 bound_to 11000
  140.1503  134.9234  157.2584 LP  0  0  0  0  0  0  0  0  0  0  0  0  # atno 17395 bound_to 11000

$$$$
