AV-unprocessed.smi:15|AV-procd|sdf|82|dock3
  -GOLD-   2262015213D 1   1.00000     0.00000
 Structure written by MMmdl.
 53 56  0  0  0  0  0  0  0  0  1 V2000
  149.7291  141.3771  155.8801 C   0  0  0  0  0  0  0  0  0  0  0  0
  151.2285  141.4203  156.2026 C   0  0  0  0  0  0  0  0  0  0  0  0
  151.5485  140.7937  157.4848 N   0  0  0  0  0  0  0  0  0  0  0  0
  152.5274  141.4130  158.3804 C   0  0  0  0  0  0  0  0  0  0  0  0
  151.9236  142.5117  159.2770 C   0  0  1  0  0  0  0  0  0  0  0  0
  152.8318  142.9228  160.4336 C   0  0  0  0  0  0  0  0  0  0  0  0
  152.3855  144.3417  160.7533 C   0  0  0  0  0  0  0  0  0  0  0  0
  151.5651  144.7588  159.5298 C   0  0  0  0  0  0  0  0  0  0  0  0
  151.7908  143.7364  158.5712 O   0  0  0  0  0  0  0  0  0  0  0  0
  151.5410  139.4397  157.5283 C   0  0  0  0  0  0  0  0  0  0  0  0
  152.0712  138.8462  158.6279 N   0  0  0  0  0  0  0  0  0  0  0  0
  152.1244  137.5140  158.7127 C   0  0  0  0  0  0  0  0  0  0  0  0
  151.7244  136.6044  157.8225 N   0  0  0  0  0  0  0  0  0  0  0  0
  151.2041  137.1955  156.7090 C   0  0  0  0  0  0  0  0  0  0  0  0
  151.0652  138.5944  156.4838 C   0  0  0  0  0  0  0  0  0  0  0  0
  150.5022  138.8157  155.2321 N   0  0  0  0  0  0  0  0  0  0  0  0
  150.3198  137.6190  154.7464 C   0  0  0  0  0  0  0  0  0  0  0  0
  150.7293  136.5871  155.5598 N   0  0  0  0  0  0  0  0  0  0  0  0
  150.6745  135.1656  155.2557 C   0  0  0  0  0  0  0  0  0  0  0  0
  149.2416  134.5801  155.3159 C   0  0  2  0  0  0  0  0  0  0  0  0
  148.4257  135.3057  154.4107 O   0  0  0  0  0  0  0  0  0  0  0  0
  148.6258  134.7015  156.7138 C   0  0  0  0  0  0  0  0  0  0  0  0
  148.5226  133.2606  157.2010 C   0  0  0  0  0  0  0  0  0  0  0  0
  148.2924  132.5374  156.0051 O   0  0  0  0  0  0  0  0  0  0  0  0
  149.1857  133.0560  155.0310 C   0  0  1  0  0  0  0  0  0  0  0  0
  148.7646  132.6198  153.6177 C   0  0  0  0  0  0  0  0  0  0  0  0
  149.5398  141.7852  154.8872 H   0  0  0  0  0  0  0  0  0  0  0  0
  149.1442  141.9634  156.5883 H   0  0  0  0  0  0  0  0  0  0  0  0
  149.3527  140.3539  155.8945 H   0  0  0  0  0  0  0  0  0  0  0  0
  151.7647  140.9064  155.4034 H   0  0  0  0  0  0  0  0  0  0  0  0
  151.5762  142.4532  156.1980 H   0  0  0  0  0  0  0  0  0  0  0  0
  152.9555  140.6347  159.0107 H   0  0  0  0  0  0  0  0  0  0  0  0
  153.3637  141.8157  157.8076 H   0  0  0  0  0  0  0  0  0  0  0  0
  150.9511  142.2114  159.6699 H   0  0  0  0  0  0  0  0  0  0  0  0
  152.7538  142.2500  161.2881 H   0  0  0  0  0  0  0  0  0  0  0  0
  153.8730  142.9338  160.1084 H   0  0  0  0  0  0  0  0  0  0  0  0
  151.7734  144.3755  161.6550 H   0  0  0  0  0  0  0  0  0  0  0  0
  153.2452  144.9950  160.9053 H   0  0  0  0  0  0  0  0  0  0  0  0
  150.5017  144.7940  159.7722 H   0  0  0  0  0  0  0  0  0  0  0  0
  151.8580  145.7338  159.1397 H   0  0  0  0  0  0  0  0  0  0  0  0
  152.5557  137.1207  159.6214 H   0  0  0  0  0  0  0  0  0  0  0  0
  149.8946  137.4550  153.7670 H   0  0  0  0  0  0  0  0  0  0  0  0
  151.0999  135.0113  154.2630 H   0  0  0  0  0  0  0  0  0  0  0  0
  151.3301  134.6413  155.9524 H   0  0  0  0  0  0  0  0  0  0  0  0
  148.9365  135.4994  153.6394 H   0  0  0  0  0  0  0  0  0  0  0  0
  149.2105  135.3216  157.3942 H   0  0  0  0  0  0  0  0  0  0  0  0
  147.6235  135.1307  156.6674 H   0  0  0  0  0  0  0  0  0  0  0  0
  149.4587  132.9329  157.6561 H   0  0  0  0  0  0  0  0  0  0  0  0
  147.7183  133.1160  157.9223 H   0  0  0  0  0  0  0  0  0  0  0  0
  150.1572  132.6133  155.2528 H   0  0  0  0  0  0  0  0  0  0  0  0
  149.4246  133.0435  152.8606 H   0  0  0  0  0  0  0  0  0  0  0  0
  147.7448  132.9288  153.3878 H   0  0  0  0  0  0  0  0  0  0  0  0
  148.8082  131.5351  153.5201 H   0  0  0  0  0  0  0  0  0  0  0  0
  1  2  1  0  0  0  0
  1 27  1  0  0  0  0
  1 28  1  0  0  0  0
  1 29  1  0  0  0  0
  2  3  1  0  0  0  0
  2 30  1  0  0  0  0
  2 31  1  0  0  0  0
  3  4  1  0  0  0  0
  3 10  1  0  0  0  0
  4  5  1  0  0  0  0
  4 32  1  0  0  0  0
  4 33  1  0  0  0  0
  5  9  1  0  0  0  0
  5  6  1  0  0  0  0
  5 34  1  0  0  0  0
  6  7  1  0  0  0  0
  6 35  1  0  0  0  0
  6 36  1  0  0  0  0
  7  8  1  0  0  0  0
  7 37  1  0  0  0  0
  7 38  1  0  0  0  0
  8  9  1  0  0  0  0
  8 39  1  0  0  0  0
  8 40  1  0  0  0  0
 10 15  1  0  0  0  0
 10 11  2  0  0  0  0
 11 12  1  0  0  0  0
 12 13  2  0  0  0  0
 12 41  1  0  0  0  0
 13 14  1  0  0  0  0
 14 18  1  0  0  0  0
 14 15  2  0  0  0  0
 15 16  1  0  0  0  0
 16 17  2  0  0  0  0
 17 18  1  0  0  0  0
 17 42  1  0  0  0  0
 18 19  1  0  0  0  0
 19 20  1  0  0  0  0
 19 43  1  0  0  0  0
 19 44  1  0  0  0  0
 20 25  1  0  0  0  0
 20 21  1  0  0  0  0
 20 22  1  0  0  0  0
 21 45  1  0  0  0  0
 22 23  1  0  0  0  0
 22 46  1  0  0  0  0
 22 47  1  0  0  0  0
 23 24  1  0  0  0  0
 23 48  1  0  0  0  0
 23 49  1  0  0  0  0
 24 25  1  0  0  0  0
 25 26  1  0  0  0  0
 25 50  1  0  0  0  0
 26 51  1  0  0  0  0
 26 52  1  0  0  0  0
 26 53  1  0  0  0  0
M  END
> <s_m_source_file>
AV-unprocessed.smi

> <i_m_source_file_index>
15

> <i_lp_mmshare_version>
43012

> <i_f3d_flags>
0

> <s_epik_input>
TzFbQ0gyXVtDSDJdW0NIMl1bQ0BIXTFbQ0gyXU4oW0NIMl1bQ0gzXSljKG5bY0hdbjIpYyhjMjMpbltjSF1uM1tDSDJdW0NAQF00KFtPSF0pW0NIMl1bQ0gyXU9bQ0BIXTRbQ0gzXQ==

> <s_epik_cmdline>
J2VwaWtfcHl0aG9uJywgJy1waCcsICc3LjAnLCAnLXRuJywgJzgnLCAnLW1hJywgJzIwMCcsICctbWV0YWxfYmluZGluZycsICctaW1hZScsICc8aW5maWxlLm1hZT4nLCAnLW9tYWUnLCAnPG91dGZpbGUubWFlPic=

> <r_lp_tautomer_probability>
1

> <r_epik_Ionization_Penalty>
0.00360814

> <r_epik_Ionization_Penalty_Charging>
0

> <r_epik_Ionization_Penalty_Neutral>
0.00360814

> <r_epik_State_Penalty>
0.00237482

> <r_epik_Charging_Adjusted_Penalty>
0.00237482

> <i_epik_Tot_Q>
0

> <i_epik_Tot_abs_Q>
0

> <r_epik_Metal_State_Penalty>
-0

> <b_epik_Metal_Only>
0

> <s_lp_Force_Field>
OPLS_2005

> <r_lp_Energy>
44.887

> <b_lp_Chiralities_Consistent>
1

> <s_lp_Variant>
AV-unprocessed.smi:15-4

> <Gold.Version>
5.8.1

> <Gold.Id.Protein>
6NUR|6NUR_protein|mol2

> <Gold.PLP.Fitness>
46.2980

> <Gold.PLP.PLP>
-41.6377

> <Gold.PLP.part.hbond>
-1.4570

> <Gold.PLP.part.metal>
0.0000

> <Gold.PLP.part.buried>
-7.5615

> <Gold.PLP.part.nonpolar>
-31.9984

> <Gold.PLP.part.repulsive>
0.1300

> <Gold.PLP.ligand.clash>
0.0000

> <Gold.PLP.ligand.torsion>
0.8824

> <Gold.PLP.Chemscore.Hbond>
0.8000

> <Gold.PLP.Chemscore.CHOScore>
1.0268

> <Gold.PLP.Chemscore.Metal>
0.0000

> <Gold.Chemscore.Hbonds>
donor molecule, donor type, donor heavy atom, donor atom, acceptor molecule, acceptor atom, score
      L1  H    21    45       P1  7948  0.96
      L1  C    17    42       P1  7948  1.00

> <Gold.PLP.Chemscore.Internal.Correction>
0.9446

> <Gold.Rescore>
     Score         DG    S(hbond)    S(metal)    S(lipo)     H(rot)  DE(clash)    DE(int)     intcor
      9.48     -14.04       0.99        0.00      98.40       2.44       0.02       4.53       ----

> <Gold.Chemscore.Fitness>
9.4834

> <Gold.Chemscore.DG>
-14.0356

> <Gold.Chemscore.ZeroCoef>
-5.4800

> <Gold.Chemscore.Hbond>
0.9873

> <Gold.Chemscore.Metal>
0.0000

> <Gold.Chemscore.Lipo>
98.3975

> <Gold.Chemscore.Internal_Hbond>
0.0000

> <Gold.Chemscore.DEClash>
0.0178

> <Gold.Chemscore.DEInternal>
4.5345

> <Gold.Chemscore.Rot>
2.4431

> <Gold.Chemscore.Internal.Correction>
   9.000000E+99

> <Gold.Chemscore.Hbonds>
donor molecule, donor type, donor heavy atom, donor atom, acceptor molecule, acceptor atom, score
      L1  H    21    45       P1  7948  0.76

> <Gold.Chemscore.Hbond.Weighted>
-3.2975

> <Gold.Chemscore.Metal.Weighted>
-0.0000

> <Gold.Chemscore.Lipo.Weighted>
-11.5125

> <Gold.Chemscore.Internal_Hbond.Weighted>
0.0000

> <Gold.Chemscore.DEClash.Weighted>
0.0178

> <Gold.Chemscore.DEInternal.Weighted>
4.5345

> <Gold.Chemscore.Rot.Weighted>
6.2544

> <Gold.Chemscore.Internal.Correction.Weighted>
   9.000000E+99

> <Gold.Protein.RotatedTorsions>
[ 6907 6896 6895 6894 ] final -150.20 input  -60.11 | X-H torsion
[ 7974 7965 7964 7962 ] final -153.84 input  175.53 | X-H torsion
[ 8008 7997 7996 7995 ] final  134.46 input   59.86 | X-H torsion
[ 10167 10162 10161 10158 ] final  -44.79 input  -65.29 | X-H torsion
[ 10718 10713 10712 10709 ] final   84.14 input   66.30 | X-H torsion
[ 10763 10752 10751 10750 ] final   63.88 input  -60.55 | X-H torsion
[ 11005 11000 10999 10996 ] final   65.36 input  -57.11 | X-H torsion

> <Gold.Protein.ActiveResidues>
 VAL166  LYS551  ARG553  GLY616  TRP617  ASP618  TYR619  PRO620  LYS621  CYS622 
 ASP623  PHE694  ASN695  SER759  ASP760  ASP761  ALA762  ILE779  LEU786  VAL792 
 PHE793  MET794  SER795  GLU796  ALA797  LYS798  CYS799  TRP800  GLU811  SER814 

> <Gold.Protein.RotatedAtoms>
  151.1951  133.4644  159.2595 H   0  0  0  0  0  0  0  0  0  0  0  0  # atno 6907 bound_to 6896
  151.1125  135.0034  159.8510 H   0  0  0  0  0  0  0  0  0  0  0  0  # atno 6908 bound_to 6896
  152.5451  134.1869  159.8711 H   0  0  0  0  0  0  0  0  0  0  0  0  # atno 6909 bound_to 6896
  144.7720  140.4471  143.5900 H   0  0  0  0  0  0  0  0  0  0  0  0  # atno 7974 bound_to 7965
  156.2999  140.2495  156.3421 H   0  0  0  0  0  0  0  0  0  0  0  0  # atno 8008 bound_to 7997
  154.9045  140.0405  157.1931 H   0  0  0  0  0  0  0  0  0  0  0  0  # atno 8009 bound_to 7997
  154.8467  140.2899  155.5628 H   0  0  0  0  0  0  0  0  0  0  0  0  # atno 8010 bound_to 7997
  140.6883  143.2912  151.3545 H   0  0  0  0  0  0  0  0  0  0  0  0  # atno 10167 bound_to 10162
  157.6892  131.0121  150.2629 H   0  0  0  0  0  0  0  0  0  0  0  0  # atno 10718 bound_to 10713
  153.0034  135.5413  154.6421 H   0  0  0  0  0  0  0  0  0  0  0  0  # atno 10763 bound_to 10752
  154.5674  135.2839  155.0863 H   0  0  0  0  0  0  0  0  0  0  0  0  # atno 10764 bound_to 10752
  154.2042  135.6478  153.5148 H   0  0  0  0  0  0  0  0  0  0  0  0  # atno 10765 bound_to 10752
  139.9899  134.6607  156.0109 H   0  0  0  0  0  0  0  0  0  0  0  0  # atno 11005 bound_to 11000
  145.6296  139.1534  143.2976 LP  0  0  0  0  0  0  0  0  0  0  0  0  # atno 17320 bound_to 7965
  146.1873  140.6401  142.9161 LP  0  0  0  0  0  0  0  0  0  0  0  0  # atno 17321 bound_to 7965
  139.6262  144.0810  152.2436 LP  0  0  0  0  0  0  0  0  0  0  0  0  # atno 17342 bound_to 10162
  140.0270  144.6110  150.7519 LP  0  0  0  0  0  0  0  0  0  0  0  0  # atno 17343 bound_to 10162
  156.3205  130.3785  149.7579 LP  0  0  0  0  0  0  0  0  0  0  0  0  # atno 17370 bound_to 10713
  156.5151  130.8190  151.3183 LP  0  0  0  0  0  0  0  0  0  0  0  0  # atno 17371 bound_to 10713
  141.1557  133.6543  156.4154 LP  0  0  0  0  0  0  0  0  0  0  0  0  # atno 17394 bound_to 11000
  140.4928  134.6559  157.5217 LP  0  0  0  0  0  0  0  0  0  0  0  0  # atno 17395 bound_to 11000

$$$$
