AV-unprocessed.smi:223|AV-procd|sdf|1706|dock1
  -GOLD-   2262020163D 1   1.00000     0.00000
 Structure written by MMmdl.
 47 50  0  0  0  0  0  0  0  0  1 V2000
  143.5852  133.2247  150.7674 C   0  0  0  0  0  0  0  0  0  0  0  0
  144.8543  132.3854  150.9561 C   0  0  1  0  0  0  0  0  0  0  0  0
  145.4752  132.0933  149.6536 C   0  0  0  0  0  0  0  0  0  0  0  0
  145.9649  131.8636  148.6306 N   0  0  0  0  0  0  0  0  0  0  0  0
  145.8306  133.0718  151.9338 C   0  0  0  0  0  0  0  0  0  0  0  0
  146.7019  132.1425  152.6532 N   0  0  0  0  0  0  0  0  0  0  0  0
  147.6053  132.6802  153.5182 C   0  0  0  0  0  0  0  0  0  0  0  0
  148.5689  131.8816  154.0518 N   0  0  0  0  0  0  0  0  0  0  0  0
  149.4572  132.3729  154.9195 C   0  0  0  0  0  0  0  0  0  0  0  0
  149.5663  133.6174  155.3851 N   0  0  0  0  0  0  0  0  0  0  0  0
  148.6127  134.4307  154.8489 C   0  0  0  0  0  0  0  0  0  0  0  0
  147.6006  134.0485  153.9214 C   0  0  0  0  0  0  0  0  0  0  0  0
  146.8165  135.1529  153.6072 N   0  0  0  0  0  0  0  0  0  0  0  0
  147.3276  136.1245  154.3115 C   0  0  0  0  0  0  0  0  0  0  0  0
  148.4185  135.7823  155.0772 N   0  0  0  0  0  0  0  0  0  0  0  0
  149.1861  136.6614  155.9474 C   0  0  0  0  0  0  0  0  0  0  0  0
  150.3977  137.3270  155.2491 C   0  0  2  0  0  0  0  0  0  0  0  0
  151.1484  136.3296  154.5810 O   0  0  0  0  0  0  0  0  0  0  0  0
  151.3102  138.0603  156.2351 C   0  0  0  0  0  0  0  0  0  0  0  0
  151.0649  139.5324  155.9264 C   0  0  0  0  0  0  0  0  0  0  0  0
  150.8560  139.5240  154.5259 O   0  0  0  0  0  0  0  0  0  0  0  0
  150.0048  138.4241  154.2394 C   0  0  0  0  0  0  0  0  0  0  0  0
  146.1681  130.8154  152.9516 C   0  0  0  0  0  0  0  0  0  0  0  0
  147.1254  129.6541  153.1029 C   0  0  0  0  0  0  0  0  0  0  0  0
  146.2393  129.7494  151.8835 C   0  0  0  0  0  0  0  0  0  0  0  0
  142.8800  132.7226  150.1045 H   0  0  0  0  0  0  0  0  0  0  0  0
  143.8165  134.1975  150.3324 H   0  0  0  0  0  0  0  0  0  0  0  0
  143.0814  133.3936  151.7193 H   0  0  0  0  0  0  0  0  0  0  0  0
  144.5509  131.4228  151.3678 H   0  0  0  0  0  0  0  0  0  0  0  0
  146.4560  133.7701  151.3762 H   0  0  0  0  0  0  0  0  0  0  0  0
  145.2848  133.6875  152.6468 H   0  0  0  0  0  0  0  0  0  0  0  0
  150.1835  131.6674  155.2954 H   0  0  0  0  0  0  0  0  0  0  0  0
  146.9216  137.1252  154.2858 H   0  0  0  0  0  0  0  0  0  0  0  0
  148.5124  137.4262  156.3362 H   0  0  0  0  0  0  0  0  0  0  0  0
  149.5186  136.0828  156.8104 H   0  0  0  0  0  0  0  0  0  0  0  0
  151.1746  136.5413  153.6605 H   0  0  0  0  0  0  0  0  0  0  0  0
  151.1083  137.8171  157.2789 H   0  0  0  0  0  0  0  0  0  0  0  0
  152.3597  137.8297  156.0439 H   0  0  0  0  0  0  0  0  0  0  0  0
  150.1691  139.8961  156.4324 H   0  0  0  0  0  0  0  0  0  0  0  0
  151.9047  140.1687  156.2063 H   0  0  0  0  0  0  0  0  0  0  0  0
  150.0918  138.1127  153.1976 H   0  0  0  0  0  0  0  0  0  0  0  0
  148.9790  138.7573  154.3990 H   0  0  0  0  0  0  0  0  0  0  0  0
  145.2905  130.7895  153.5941 H   0  0  0  0  0  0  0  0  0  0  0  0
  148.1877  129.8491  152.9677 H   0  0  0  0  0  0  0  0  0  0  0  0
  146.8809  128.8983  153.8463 H   0  0  0  0  0  0  0  0  0  0  0  0
  145.4035  129.0566  151.8121 H   0  0  0  0  0  0  0  0  0  0  0  0
  146.7143  130.0063  150.9387 H   0  0  0  0  0  0  0  0  0  0  0  0
  1  2  1  0  0  0  0
  1 26  1  0  0  0  0
  1 27  1  0  0  0  0
  1 28  1  0  0  0  0
  2  3  1  0  0  0  0
  2  5  1  0  0  0  0
  2 29  1  0  0  0  0
  3  4  3  0  0  0  0
  5  6  1  0  0  0  0
  5 30  1  0  0  0  0
  5 31  1  0  0  0  0
  6  7  1  0  0  0  0
  6 23  1  0  0  0  0
  7 12  1  0  0  0  0
  7  8  2  0  0  0  0
  8  9  1  0  0  0  0
  9 10  2  0  0  0  0
  9 32  1  0  0  0  0
 10 11  1  0  0  0  0
 11 15  1  0  0  0  0
 11 12  2  0  0  0  0
 12 13  1  0  0  0  0
 13 14  2  0  0  0  0
 14 15  1  0  0  0  0
 14 33  1  0  0  0  0
 15 16  1  0  0  0  0
 16 17  1  0  0  0  0
 16 34  1  0  0  0  0
 16 35  1  0  0  0  0
 17 22  1  0  0  0  0
 17 18  1  0  0  0  0
 17 19  1  0  0  0  0
 18 36  1  0  0  0  0
 19 20  1  0  0  0  0
 19 37  1  0  0  0  0
 19 38  1  0  0  0  0
 20 21  1  0  0  0  0
 20 39  1  0  0  0  0
 20 40  1  0  0  0  0
 21 22  1  0  0  0  0
 22 41  1  0  0  0  0
 22 42  1  0  0  0  0
 23 25  1  0  0  0  0
 23 24  1  0  0  0  0
 23 43  1  0  0  0  0
 24 25  1  0  0  0  0
 24 44  1  0  0  0  0
 24 45  1  0  0  0  0
 25 46  1  0  0  0  0
 25 47  1  0  0  0  0
M  END
> <s_m_source_file>
AV-unprocessed.smi

> <i_m_source_file_index>
223

> <i_lp_mmshare_version>
43012

> <i_f3d_flags>
0

> <s_epik_input>
TiNDW0NAQEhdKFtDSDNdKVtDSDJdTihbQ0hdMVtDSDJdW0NIMl0xKWMobltjSF1uMiljKGMyMyluW2NIXW4zW0NIMl1bQ0BAXTQoW09IXSlbQ0gyXVtDSDJdT1tDSDJdNA==

> <s_epik_cmdline>
J2VwaWtfcHl0aG9uJywgJy1waCcsICc3LjAnLCAnLXRuJywgJzgnLCAnLW1hJywgJzIwMCcsICctbWV0YWxfYmluZGluZycsICctaW1hZScsICc8aW5maWxlLm1hZT4nLCAnLW9tYWUnLCAnPG91dGZpbGUubWFlPic=

> <r_lp_tautomer_probability>
1

> <r_epik_Ionization_Penalty>
0.000756152

> <r_epik_Ionization_Penalty_Charging>
0

> <r_epik_Ionization_Penalty_Neutral>
0.000756152

> <r_epik_State_Penalty>
0.00038036

> <r_epik_Charging_Adjusted_Penalty>
0.00038036

> <i_epik_Tot_Q>
0

> <i_epik_Tot_abs_Q>
0

> <r_epik_Metal_State_Penalty>
-0

> <b_epik_Metal_Only>
0

> <s_lp_Force_Field>
OPLS_2005

> <r_lp_Energy>
37.1983

> <b_lp_Chiralities_Consistent>
1

> <s_lp_Variant>
AV-unprocessed.smi:223-4

> <Gold.Version>
5.8.1

> <Gold.Id.Protein>
6NUR|6NUR_protein|mol2

> <Gold.PLP.Fitness>
46.6520

> <Gold.PLP.PLP>
-39.9974

> <Gold.PLP.part.hbond>
-4.4732

> <Gold.PLP.part.metal>
0.0000

> <Gold.PLP.part.buried>
-2.7002

> <Gold.PLP.part.nonpolar>
-32.0908

> <Gold.PLP.part.repulsive>
1.5356

> <Gold.PLP.ligand.clash>
0.0000

> <Gold.PLP.ligand.torsion>
1.6571

> <Gold.PLP.Chemscore.Hbond>
2.8480

> <Gold.PLP.Chemscore.CHOScore>
0.0000

> <Gold.PLP.Chemscore.Metal>
0.0000

> <Gold.Chemscore.Hbonds>
donor molecule, donor type, donor heavy atom, donor atom, acceptor molecule, acceptor atom, score
      L1  H    18    36       P1  7949  0.49
      P1  H  7989  7998       L1    21  1.00

> <Gold.PLP.Chemscore.Internal.Correction>
1.4248

> <Gold.Rescore>
     Score         DG    S(hbond)    S(metal)    S(lipo)     H(rot)  DE(clash)    DE(int)     intcor
      9.77     -14.50       2.26        0.00      72.16       2.72       0.34       4.39       ----

> <Gold.Chemscore.Fitness>
9.7716

> <Gold.Chemscore.DG>
-14.5016

> <Gold.Chemscore.ZeroCoef>
-5.4800

> <Gold.Chemscore.Hbond>
2.2558

> <Gold.Chemscore.Metal>
0.0000

> <Gold.Chemscore.Lipo>
72.1626

> <Gold.Chemscore.Internal_Hbond>
0.0000

> <Gold.Chemscore.DEClash>
0.3450

> <Gold.Chemscore.DEInternal>
4.3851

> <Gold.Chemscore.Rot>
2.7171

> <Gold.Chemscore.Internal.Correction>
   9.000000E+99

> <Gold.Chemscore.Hbonds>
donor molecule, donor type, donor heavy atom, donor atom, acceptor molecule, acceptor atom, score
      L1  H    18    36       P1  7949  0.21
      P1  H  7989  7998       L1    21  0.97

> <Gold.Chemscore.Hbond.Weighted>
-7.5343

> <Gold.Chemscore.Metal.Weighted>
-0.0000

> <Gold.Chemscore.Lipo.Weighted>
-8.4430

> <Gold.Chemscore.Internal_Hbond.Weighted>
0.0000

> <Gold.Chemscore.DEClash.Weighted>
0.3450

> <Gold.Chemscore.DEInternal.Weighted>
4.3851

> <Gold.Chemscore.Rot.Weighted>
6.9558

> <Gold.Chemscore.Internal.Correction.Weighted>
   9.000000E+99

> <Gold.Protein.RotatedTorsions>
[ 6907 6896 6895 6894 ] final   12.06 input  -60.11 | X-H torsion
[ 7974 7965 7964 7962 ] final  -52.39 input  175.53 | X-H torsion
[ 8008 7997 7996 7995 ] final   -0.02 input   59.86 | X-H torsion
[ 10167 10162 10161 10158 ] final  -48.34 input  -65.29 | X-H torsion
[ 10718 10713 10712 10709 ] final -146.42 input   66.30 | X-H torsion
[ 10763 10752 10751 10750 ] final   22.14 input  -60.55 | X-H torsion
[ 11005 11000 10999 10996 ] final  134.00 input  -57.11 | X-H torsion

> <Gold.Protein.ActiveResidues>
 VAL166  LYS551  ARG553  GLY616  TRP617  ASP618  TYR619  PRO620  LYS621  CYS622 
 ASP623  PHE694  ASN695  SER759  ASP760  ASP761  ALA762  ILE779  LEU786  VAL792 
 PHE793  MET794  SER795  GLU796  ALA797  LYS798  CYS799  TRP800  GLU811  SER814 

> <Gold.Protein.RotatedAtoms>
  151.7643  135.0802  160.0350 H   0  0  0  0  0  0  0  0  0  0  0  0  # atno 6907 bound_to 6896
  152.3332  133.5977  159.5832 H   0  0  0  0  0  0  0  0  0  0  0  0  # atno 6908 bound_to 6896
  150.7435  133.9752  159.3600 H   0  0  0  0  0  0  0  0  0  0  0  0  # atno 6909 bound_to 6896
  145.9085  140.7935  142.9707 H   0  0  0  0  0  0  0  0  0  0  0  0  # atno 7974 bound_to 7965
  154.6629  140.2594  155.7090 H   0  0  0  0  0  0  0  0  0  0  0  0  # atno 8008 bound_to 7997
  156.2626  140.2845  156.1029 H   0  0  0  0  0  0  0  0  0  0  0  0  # atno 8009 bound_to 7997
  155.1282  140.0378  157.2758 H   0  0  0  0  0  0  0  0  0  0  0  0  # atno 8010 bound_to 7997
  140.6735  143.2744  151.4057 H   0  0  0  0  0  0  0  0  0  0  0  0  # atno 10167 bound_to 10162
  156.3947  130.7903  151.2108 H   0  0  0  0  0  0  0  0  0  0  0  0  # atno 10718 bound_to 10713
  153.0939  135.6654  153.9801 H   0  0  0  0  0  0  0  0  0  0  0  0  # atno 10763 bound_to 10752
  153.9390  135.2996  155.3444 H   0  0  0  0  0  0  0  0  0  0  0  0  # atno 10764 bound_to 10752
  154.7356  135.5103  153.9110 H   0  0  0  0  0  0  0  0  0  0  0  0  # atno 10765 bound_to 10752
  139.9887  134.9523  156.9805 H   0  0  0  0  0  0  0  0  0  0  0  0  # atno 11005 bound_to 11000
  144.6741  140.1789  143.7407 LP  0  0  0  0  0  0  0  0  0  0  0  0  # atno 17320 bound_to 7965
  145.8701  139.2267  143.1666 LP  0  0  0  0  0  0  0  0  0  0  0  0  # atno 17321 bound_to 7965
  139.6015  144.1285  152.2203 LP  0  0  0  0  0  0  0  0  0  0  0  0  # atno 17342 bound_to 10162
  140.0671  144.5809  150.7219 LP  0  0  0  0  0  0  0  0  0  0  0  0  # atno 17343 bound_to 10162
  157.7501  131.0305  150.4140 LP  0  0  0  0  0  0  0  0  0  0  0  0  # atno 17370 bound_to 10713
  156.4408  130.3991  149.6699 LP  0  0  0  0  0  0  0  0  0  0  0  0  # atno 17371 bound_to 10713
  140.4951  134.1154  155.7240 LP  0  0  0  0  0  0  0  0  0  0  0  0  # atno 17394 bound_to 11000
  141.1547  133.8904  157.2008 LP  0  0  0  0  0  0  0  0  0  0  0  0  # atno 17395 bound_to 11000

$$$$
