AV-unprocessed.smi:1965|AV-procd|sdf|7942|dock8
  -GOLD-   2272010113D 1   1.00000     0.00000
 Structure written by MMmdl.
 36 38  0  0  0  0  0  0  0  0  3 V2000
  152.6089  139.9107  155.0698 O   0  0  0  0  0  0  0  0  0  0  0  0
  151.4709  139.8059  155.5254 C   0  0  0  0  0  0  0  0  0  0  0  0
  150.4322  139.2721  154.8315 N   0  5  0  0  0  0  0  0  0  0  0  0
  149.3599  139.9965  154.4616 C   0  0  0  0  0  0  0  0  0  0  0  0
  149.2964  141.3277  154.5827 N   0  0  0  0  0  0  0  0  0  0  0  0
  148.0914  141.8693  154.1318 C   0  0  0  0  0  0  0  0  0  0  0  0
  147.2160  140.9282  153.6587 C   0  0  0  0  0  0  0  0  0  0  0  0
  147.8816  139.3239  153.7690 S   0  0  0  0  0  0  0  0  0  0  0  0
  151.2300  140.2386  156.7769 N   0  0  0  0  0  0  0  0  0  0  0  0
  152.1964  140.8683  157.6672 C   0  0  2  0  0  0  0  0  0  0  0  0
  152.4828  140.0759  158.9574 C   0  0  0  0  0  0  0  0  0  0  0  0
  152.6324  141.1398  160.0632 C   0  0  0  0  0  0  0  0  0  0  0  0
  152.5177  142.4393  159.3732 N   0  3  2  0  0  0  0  0  0  0  0  0
  152.0677  143.5954  160.1785 C   0  0  0  0  0  0  0  0  0  0  0  0
  152.0819  144.8641  159.3012 C   0  0  0  0  0  0  0  0  0  0  0  0
  151.2792  144.6703  157.9978 C   0  0  0  0  0  0  0  0  0  0  0  0
  151.7339  143.4024  157.2492 C   0  0  0  0  0  0  0  0  0  0  0  0
  151.6663  142.1966  158.1997 C   0  0  1  0  0  0  0  0  0  0  0  0
  147.9413  142.9374  154.1860 H   0  0  0  0  0  0  0  0  0  0  0  0
  146.2250  141.0781  153.2574 H   0  0  0  0  0  0  0  0  0  0  0  0
  150.2896  140.1297  157.1279 H   0  0  0  0  0  0  0  0  0  0  0  0
  153.1322  141.0425  157.1321 H   0  0  0  0  0  0  0  0  0  0  0  0
  151.6587  139.4035  159.2015 H   0  0  0  0  0  0  0  0  0  0  0  0
  153.3817  139.4672  158.8524 H   0  0  0  0  0  0  0  0  0  0  0  0
  151.8321  141.0307  160.7968 H   0  0  0  0  0  0  0  0  0  0  0  0
  153.5856  141.0641  160.5873 H   0  0  0  0  0  0  0  0  0  0  0  0
  151.0649  143.4100  160.5665 H   0  0  0  0  0  0  0  0  0  0  0  0
  152.7282  143.7232  161.0367 H   0  0  0  0  0  0  0  0  0  0  0  0
  151.6853  145.7110  159.8619 H   0  0  0  0  0  0  0  0  0  0  0  0
  153.1132  145.1171  159.0515 H   0  0  0  0  0  0  0  0  0  0  0  0
  150.2172  144.5901  158.2346 H   0  0  0  0  0  0  0  0  0  0  0  0
  151.3868  145.5450  157.3556 H   0  0  0  0  0  0  0  0  0  0  0  0
  151.1010  143.2324  156.3775 H   0  0  0  0  0  0  0  0  0  0  0  0
  152.7513  143.5340  156.8785 H   0  0  0  0  0  0  0  0  0  0  0  0
  150.6369  142.0603  158.5404 H   0  0  0  0  0  0  0  0  0  0  0  0
  153.4370  142.6570  159.0160 H   0  0  0  0  0  0  0  0  0  0  0  0
  1  2  2  0  0  0  0
  2  3  1  0  0  0  0
  2  9  1  0  0  0  0
  3  4  1  0  0  0  0
  4  8  1  0  0  0  0
  4  5  2  0  0  0  0
  5  6  1  0  0  0  0
  6  7  2  0  0  0  0
  6 19  1  0  0  0  0
  7  8  1  0  0  0  0
  7 20  1  0  0  0  0
  9 10  1  0  0  0  0
  9 21  1  0  0  0  0
 10 18  1  0  0  0  0
 10 11  1  0  0  0  0
 10 22  1  0  0  0  0
 11 12  1  0  0  0  0
 11 23  1  0  0  0  0
 11 24  1  0  0  0  0
 12 13  1  0  0  0  0
 12 25  1  0  0  0  0
 12 26  1  0  0  0  0
 13 18  1  0  0  0  0
 13 14  1  0  0  0  0
 13 36  1  0  0  0  0
 14 15  1  0  0  0  0
 14 27  1  0  0  0  0
 14 28  1  0  0  0  0
 15 16  1  0  0  0  0
 15 29  1  0  0  0  0
 15 30  1  0  0  0  0
 16 17  1  0  0  0  0
 16 31  1  0  0  0  0
 16 32  1  0  0  0  0
 17 18  1  0  0  0  0
 17 33  1  0  0  0  0
 17 34  1  0  0  0  0
 18 35  1  0  0  0  0
M  CHG  1   3  -1
M  CHG  1  13   1
M  END
> <s_m_source_file>
AV-unprocessed.smi

> <i_m_source_file_index>
1965

> <i_lp_mmshare_version>
43012

> <i_f3d_flags>
0

> <s_epik_input>
czFbY0hdW2NIXW5jMVtOSF1DKD1PKVtOSF1bQ0BIXShbQ0gyXVtDSDJdMilbQ0BASF0oTjIzKVtDSDJdW0NIMl1bQ0gyXVtDSDJdMw==

> <s_epik_cmdline>
J2VwaWtfcHl0aG9uJywgJy1waCcsICc3LjAnLCAnLXRuJywgJzgnLCAnLW1hJywgJzIwMCcsICctbWV0YWxfYmluZGluZycsICctaW1hZScsICc8aW5maWxlLm1hZT4nLCAnLW9tYWUnLCAnPG91dGZpbGUubWFlPic=

> <r_lp_tautomer_probability>
1

> <r_epik_Ionization_Penalty>
7.4116

> <r_epik_Ionization_Penalty_Charging>
6.13869

> <r_epik_Ionization_Penalty_Neutral>
1.27291

> <r_epik_State_Penalty>
6.13761

> <r_epik_Charging_Adjusted_Penalty>
12.2763

> <i_epik_Tot_Q>
0

> <i_epik_Tot_abs_Q>
2

> <r_epik_Metal_State_Penalty>
2.08142

> <b_epik_Metal_Only>
1

> <s_lp_Force_Field>
OPLS_2005

> <r_lp_Energy>
26.2692

> <b_lp_Chiralities_Consistent>
1

> <s_lp_Variant>
AV-unprocessed.smi:1965-11

> <Gold.Version>
5.8.1

> <Gold.Id.Protein>
6NUR|6NUR_protein|mol2

> <Gold.PLP.Fitness>
44.5442

> <Gold.PLP.PLP>
-37.7531

> <Gold.PLP.part.hbond>
-2.2448

> <Gold.PLP.part.metal>
0.0000

> <Gold.PLP.part.buried>
-5.0067

> <Gold.PLP.part.nonpolar>
-30.2090

> <Gold.PLP.part.repulsive>
0.4118

> <Gold.PLP.ligand.clash>
0.0000

> <Gold.PLP.ligand.torsion>
0.6681

> <Gold.PLP.Chemscore.Hbond>
1.1441

> <Gold.PLP.Chemscore.CHOScore>
1.5615

> <Gold.PLP.Chemscore.Metal>
0.0000

> <Gold.Chemscore.Hbonds>
donor molecule, donor type, donor heavy atom, donor atom, acceptor molecule, acceptor atom, score
      P1  H  7989  7998       L1     1  0.13
      P1  H  7997  8008       L1     1  0.99
      L1  C     6    19       P1  8028  1.00
      L1  C     7    20       P1 10175  0.54

> <Gold.PLP.Chemscore.Internal.Correction>
0.0103

> <Gold.Rescore>
     Score         DG    S(hbond)    S(metal)    S(lipo)     H(rot)  DE(clash)    DE(int)     intcor
     16.42     -18.44       1.00        0.00     104.09       1.00       1.34       0.69       ----

> <Gold.Chemscore.Fitness>
16.4161

> <Gold.Chemscore.DG>
-18.4389

> <Gold.Chemscore.ZeroCoef>
-5.4800

> <Gold.Chemscore.Hbond>
1.0001

> <Gold.Chemscore.Metal>
0.0000

> <Gold.Chemscore.Lipo>
104.0896

> <Gold.Chemscore.Internal_Hbond>
0.0000

> <Gold.Chemscore.DEClash>
1.3370

> <Gold.Chemscore.DEInternal>
0.6858

> <Gold.Chemscore.Rot>
1.0000

> <Gold.Chemscore.Internal.Correction>
   9.000000E+99

> <Gold.Chemscore.Hbonds>
donor molecule, donor type, donor heavy atom, donor atom, acceptor molecule, acceptor atom, score
      P1  H  7997  8008       L1     1  0.92

> <Gold.Chemscore.Hbond.Weighted>
-3.3405

> <Gold.Chemscore.Metal.Weighted>
-0.0000

> <Gold.Chemscore.Lipo.Weighted>
-12.1785

> <Gold.Chemscore.Internal_Hbond.Weighted>
0.0000

> <Gold.Chemscore.DEClash.Weighted>
1.3370

> <Gold.Chemscore.DEInternal.Weighted>
0.6858

> <Gold.Chemscore.Rot.Weighted>
2.5600

> <Gold.Chemscore.Internal.Correction.Weighted>
   9.000000E+99

> <Gold.Protein.RotatedTorsions>
[ 6907 6896 6895 6894 ] final  -17.57 input  -60.11 | X-H torsion
[ 7974 7965 7964 7962 ] final   24.20 input  175.53 | X-H torsion
[ 8008 7997 7996 7995 ] final  -17.41 input   59.86 | X-H torsion
[ 10167 10162 10161 10158 ] final -153.12 input  -65.29 | X-H torsion
[ 10718 10713 10712 10709 ] final   42.42 input   66.30 | X-H torsion
[ 10763 10752 10751 10750 ] final -106.55 input  -60.55 | X-H torsion
[ 11005 11000 10999 10996 ] final  -58.93 input  -57.11 | X-H torsion

> <Gold.Protein.ActiveResidues>
 VAL166  LYS551  ARG553  GLY616  TRP617  ASP618  TYR619  PRO620  LYS621  CYS622 
 ASP623  PHE694  ASN695  SER759  ASP760  ASP761  ALA762  ILE779  LEU786  VAL792 
 PHE793  MET794  SER795  GLU796  ALA797  LYS798  CYS799  TRP800  GLU811  SER814 

> <Gold.Protein.RotatedAtoms>
  151.2913  135.0742  159.9204 H   0  0  0  0  0  0  0  0  0  0  0  0  # atno 6907 bound_to 6896
  152.5316  133.9929  159.7869 H   0  0  0  0  0  0  0  0  0  0  0  0  # atno 6908 bound_to 6896
  151.0199  133.5835  159.2703 H   0  0  0  0  0  0  0  0  0  0  0  0  # atno 6909 bound_to 6896
  146.1948  139.7637  142.8805 H   0  0  0  0  0  0  0  0  0  0  0  0  # atno 7974 bound_to 7965
  154.4980  140.2143  155.9406 H   0  0  0  0  0  0  0  0  0  0  0  0  # atno 8008 bound_to 7997
  156.1396  140.3182  155.8443 H   0  0  0  0  0  0  0  0  0  0  0  0  # atno 8009 bound_to 7997
  155.4144  140.0492  157.3020 H   0  0  0  0  0  0  0  0  0  0  0  0  # atno 8010 bound_to 7997
  139.7123  143.9088  152.2473 H   0  0  0  0  0  0  0  0  0  0  0  0  # atno 10167 bound_to 10162
  157.4046  130.7879  149.7378 H   0  0  0  0  0  0  0  0  0  0  0  0  # atno 10718 bound_to 10713
  154.8019  135.4708  154.0297 H   0  0  0  0  0  0  0  0  0  0  0  0  # atno 10763 bound_to 10752
  153.1796  135.6838  153.8503 H   0  0  0  0  0  0  0  0  0  0  0  0  # atno 10764 bound_to 10752
  153.8058  135.3223  155.3373 H   0  0  0  0  0  0  0  0  0  0  0  0  # atno 10765 bound_to 10752
  141.1228  133.6614  156.4995 H   0  0  0  0  0  0  0  0  0  0  0  0  # atno 11005 bound_to 11000
  145.3677  141.0337  143.3249 LP  0  0  0  0  0  0  0  0  0  0  0  0  # atno 17320 bound_to 7965
  144.8559  139.5250  143.6835 LP  0  0  0  0  0  0  0  0  0  0  0  0  # atno 17321 bound_to 7965
  139.8961  144.6938  150.8716 LP  0  0  0  0  0  0  0  0  0  0  0  0  # atno 17342 bound_to 10162
  140.7736  143.3549  151.1941 LP  0  0  0  0  0  0  0  0  0  0  0  0  # atno 17343 bound_to 10162
  155.9833  130.4002  150.3372 LP  0  0  0  0  0  0  0  0  0  0  0  0  # atno 17370 bound_to 10713
  157.1503  131.0319  151.2888 LP  0  0  0  0  0  0  0  0  0  0  0  0  # atno 17371 bound_to 10713
  140.4457  134.6974  157.5014 LP  0  0  0  0  0  0  0  0  0  0  0  0  # atno 17394 bound_to 11000
  140.0199  134.6563  155.9255 LP  0  0  0  0  0  0  0  0  0  0  0  0  # atno 17395 bound_to 11000

$$$$
