AV-unprocessed.smi:1419|AV-procd|sdf|5783|dock3
  -GOLD-   22720 5423D 1   1.00000     0.00000
 Structure written by MMmdl.
 41 42  0  0  0  0  0  0  0  0  1 V2000
  154.2805  142.0103  159.4431 C   0  0  0  0  0  0  0  0  0  0  0  0
  153.0129  141.4495  160.1084 C   0  0  1  0  0  0  0  0  0  0  0  0
  152.1768  142.5298  160.8283 C   0  0  0  0  0  0  0  0  0  0  0  0
  151.8703  143.6620  159.9751 N   0  0  0  0  0  0  0  0  0  0  0  0
  151.3226  143.6301  158.6992 C   0  0  0  0  0  0  0  0  0  0  0  0
  151.2125  144.9388  158.2864 C   0  0  0  0  0  0  0  0  0  0  0  0
  151.6788  145.7872  159.2880 N   0  0  0  0  0  0  0  0  0  0  0  0
  152.0492  144.9597  160.2569 C   0  0  0  0  0  0  0  0  0  0  0  0
  152.2005  140.7803  159.0975 N   0  0  0  0  0  0  0  0  0  0  0  0
  152.5989  139.7581  158.3210 C   0  0  0  0  0  0  0  0  0  0  0  0
  153.7393  139.2962  158.3779 O   0  0  0  0  0  0  0  0  0  0  0  0
  151.6499  139.2917  157.4719 N   0  0  0  0  0  0  0  0  0  0  0  0
  151.7262  138.0794  156.6448 C   0  0  0  0  0  0  0  0  0  0  0  0
  151.8830  138.4901  155.1657 C   0  0  2  0  0  0  0  0  0  0  0  0
  153.2576  139.0962  154.8276 C   0  0  0  0  0  0  0  0  0  0  0  0
  150.8165  139.3694  154.7943 O   0  0  0  0  0  0  0  0  0  0  0  0
  150.6405  140.5201  155.6257 C   0  0  1  0  0  0  0  0  0  0  0  0
  149.4181  141.2895  155.1138 C   0  0  0  0  0  0  0  0  0  0  0  0
  150.4742  140.0773  157.0928 C   0  0  0  0  0  0  0  0  0  0  0  0
  154.9619  142.4394  160.1779 H   0  0  0  0  0  0  0  0  0  0  0  0
  154.0367  142.7889  158.7195 H   0  0  0  0  0  0  0  0  0  0  0  0
  154.8264  141.2263  158.9171 H   0  0  0  0  0  0  0  0  0  0  0  0
  153.3320  140.7079  160.8433 H   0  0  0  0  0  0  0  0  0  0  0  0
  151.2391  142.1052  161.1900 H   0  0  0  0  0  0  0  0  0  0  0  0
  152.7074  142.9034  161.7052 H   0  0  0  0  0  0  0  0  0  0  0  0
  151.0673  142.7053  158.2029 H   0  0  0  0  0  0  0  0  0  0  0  0
  150.8358  145.3318  157.3537 H   0  0  0  0  0  0  0  0  0  0  0  0
  152.4627  145.3050  161.1933 H   0  0  0  0  0  0  0  0  0  0  0  0
  151.2524  141.1093  158.9876 H   0  0  0  0  0  0  0  0  0  0  0  0
  152.5247  137.3937  156.9279 H   0  0  0  0  0  0  0  0  0  0  0  0
  150.8032  137.5112  156.7708 H   0  0  0  0  0  0  0  0  0  0  0  0
  151.7682  137.5942  154.5550 H   0  0  0  0  0  0  0  0  0  0  0  0
  154.0557  138.3829  155.0347 H   0  0  0  0  0  0  0  0  0  0  0  0
  153.4706  139.9956  155.4047 H   0  0  0  0  0  0  0  0  0  0  0  0
  153.3156  139.3588  153.7713 H   0  0  0  0  0  0  0  0  0  0  0  0
  151.5121  141.1693  155.5364 H   0  0  0  0  0  0  0  0  0  0  0  0
  149.2464  142.1903  155.7032 H   0  0  0  0  0  0  0  0  0  0  0  0
  148.5169  140.6780  155.1657 H   0  0  0  0  0  0  0  0  0  0  0  0
  149.5551  141.5927  154.0754 H   0  0  0  0  0  0  0  0  0  0  0  0
  149.5771  139.4670  157.2077 H   0  0  0  0  0  0  0  0  0  0  0  0
  150.3268  140.9479  157.7336 H   0  0  0  0  0  0  0  0  0  0  0  0
  1  2  1  0  0  0  0
  1 20  1  0  0  0  0
  1 21  1  0  0  0  0
  1 22  1  0  0  0  0
  2  3  1  0  0  0  0
  2  9  1  0  0  0  0
  2 23  1  0  0  0  0
  3  4  1  0  0  0  0
  3 24  1  0  0  0  0
  3 25  1  0  0  0  0
  4  8  1  0  0  0  0
  4  5  1  0  0  0  0
  5  6  2  0  0  0  0
  5 26  1  0  0  0  0
  6  7  1  0  0  0  0
  6 27  1  0  0  0  0
  7  8  2  0  0  0  0
  8 28  1  0  0  0  0
  9 10  1  0  0  0  0
  9 29  1  0  0  0  0
 10 11  2  0  0  0  0
 10 12  1  0  0  0  0
 12 19  1  0  0  0  0
 12 13  1  0  0  0  0
 13 14  1  0  0  0  0
 13 30  1  0  0  0  0
 13 31  1  0  0  0  0
 14 15  1  0  0  0  0
 14 16  1  0  0  0  0
 14 32  1  0  0  0  0
 15 33  1  0  0  0  0
 15 34  1  0  0  0  0
 15 35  1  0  0  0  0
 16 17  1  0  0  0  0
 17 18  1  0  0  0  0
 17 19  1  0  0  0  0
 17 36  1  0  0  0  0
 18 37  1  0  0  0  0
 18 38  1  0  0  0  0
 18 39  1  0  0  0  0
 19 40  1  0  0  0  0
 19 41  1  0  0  0  0
M  END
> <s_m_source_file>
AV-unprocessed.smi

> <i_m_source_file_index>
1419

> <i_lp_mmshare_version>
43012

> <i_f3d_flags>
0

> <s_epik_input>
W2NIXTFuW2NIXVtjSF1uMVtDSDJdW0NAQEhdKFtDSDNdKVtOSF1DKD1PKU4yW0NIMl1bQ0BASF0oW0NIM10pT1tDQEBIXShbQ0gzXSlbQ0gyXTI=

> <s_epik_cmdline>
J2VwaWtfcHl0aG9uJywgJy1waCcsICc3LjAnLCAnLXRuJywgJzgnLCAnLW1hJywgJzIwMCcsICctbWV0YWxfYmluZGluZycsICctaW1hZScsICc8aW5maWxlLm1hZT4nLCAnLW9tYWUnLCAnPG91dGZpbGUubWFlPic=

> <r_lp_tautomer_probability>
1

> <r_epik_Ionization_Penalty>
0.625124

> <r_epik_Ionization_Penalty_Charging>
0.625093

> <r_epik_Ionization_Penalty_Neutral>
3.17415e-05

> <r_epik_State_Penalty>
0.641455

> <r_epik_Charging_Adjusted_Penalty>
1.26655

> <i_epik_Tot_Q>
0

> <i_epik_Tot_abs_Q>
0

> <r_epik_Metal_State_Penalty>
0.307717

> <b_epik_Metal_Only>
0

> <s_lp_Force_Field>
OPLS_2005

> <r_lp_Energy>
30.8813

> <b_lp_Chiralities_Consistent>
1

> <s_lp_Variant>
AV-unprocessed.smi:1419-10

> <Gold.Version>
5.8.1

> <Gold.Id.Protein>
6NUR|6NUR_protein|mol2

> <Gold.PLP.Fitness>
42.2661

> <Gold.PLP.PLP>
-37.7898

> <Gold.PLP.part.hbond>
-2.5330

> <Gold.PLP.part.metal>
0.0000

> <Gold.PLP.part.buried>
-4.2389

> <Gold.PLP.part.nonpolar>
-31.8146

> <Gold.PLP.part.repulsive>
0.3567

> <Gold.PLP.ligand.clash>
0.4596

> <Gold.PLP.ligand.torsion>
0.2375

> <Gold.PLP.Chemscore.Hbond>
1.0000

> <Gold.PLP.Chemscore.CHOScore>
0.7851

> <Gold.PLP.Chemscore.Metal>
0.0000

> <Gold.Chemscore.Hbonds>
donor molecule, donor type, donor heavy atom, donor atom, acceptor molecule, acceptor atom, score
      P1  H  7989  7998       L1    16  0.04
      P1  H  7997  8008       L1    11  1.00
      L1  C     6    27       P1  8028  0.73

> <Gold.PLP.Chemscore.Internal.Correction>
0.0555

> <Gold.Rescore>
     Score         DG    S(hbond)    S(metal)    S(lipo)     H(rot)  DE(clash)    DE(int)     intcor
     14.05     -15.04       0.91        0.00      90.25       1.58       0.69       0.29       ----

> <Gold.Chemscore.Fitness>
14.0524

> <Gold.Chemscore.DG>
-15.0388

> <Gold.Chemscore.ZeroCoef>
-5.4800

> <Gold.Chemscore.Hbond>
0.9091

> <Gold.Chemscore.Metal>
0.0000

> <Gold.Chemscore.Lipo>
90.2489

> <Gold.Chemscore.Internal_Hbond>
0.0000

> <Gold.Chemscore.DEClash>
0.6923

> <Gold.Chemscore.DEInternal>
0.2941

> <Gold.Chemscore.Rot>
1.5769

> <Gold.Chemscore.Internal.Correction>
   9.000000E+99

> <Gold.Chemscore.Hbonds>
donor molecule, donor type, donor heavy atom, donor atom, acceptor molecule, acceptor atom, score
      P1  H  7997  8008       L1    11  0.65

> <Gold.Chemscore.Hbond.Weighted>
-3.0365

> <Gold.Chemscore.Metal.Weighted>
-0.0000

> <Gold.Chemscore.Lipo.Weighted>
-10.5591

> <Gold.Chemscore.Internal_Hbond.Weighted>
0.0000

> <Gold.Chemscore.DEClash.Weighted>
0.6923

> <Gold.Chemscore.DEInternal.Weighted>
0.2941

> <Gold.Chemscore.Rot.Weighted>
4.0369

> <Gold.Chemscore.Internal.Correction.Weighted>
   9.000000E+99

> <Gold.Protein.RotatedTorsions>
[ 6907 6896 6895 6894 ] final -134.84 input  -60.11 | X-H torsion
[ 7974 7965 7964 7962 ] final -178.09 input  175.53 | X-H torsion
[ 8008 7997 7996 7995 ] final  -92.18 input   59.86 | X-H torsion
[ 10167 10162 10161 10158 ] final   -5.21 input  -65.29 | X-H torsion
[ 10718 10713 10712 10709 ] final   19.04 input   66.30 | X-H torsion
[ 10763 10752 10751 10750 ] final   82.12 input  -60.55 | X-H torsion
[ 11005 11000 10999 10996 ] final -104.22 input  -57.11 | X-H torsion

> <Gold.Protein.ActiveResidues>
 VAL166  LYS551  ARG553  GLY616  TRP617  ASP618  TYR619  PRO620  LYS621  CYS622 
 ASP623  PHE694  ASN695  SER759  ASP760  ASP761  ALA762  ILE779  LEU786  VAL792 
 PHE793  MET794  SER795  GLU796  ALA797  LYS798  CYS799  TRP800  GLU811  SER814 

> <Gold.Protein.RotatedAtoms>
  150.9907  133.6152  159.2708 H   0  0  0  0  0  0  0  0  0  0  0  0  # atno 6907 bound_to 6896
  151.3374  135.0855  159.9369 H   0  0  0  0  0  0  0  0  0  0  0  0  # atno 6908 bound_to 6896
  152.5245  133.9525  159.7733 H   0  0  0  0  0  0  0  0  0  0  0  0  # atno 6909 bound_to 6896
  144.7129  140.0921  143.6421 H   0  0  0  0  0  0  0  0  0  0  0  0  # atno 7974 bound_to 7965
  154.7199  140.0511  157.0630 H   0  0  0  0  0  0  0  0  0  0  0  0  # atno 8008 bound_to 7997
  155.0441  140.3172  155.4695 H   0  0  0  0  0  0  0  0  0  0  0  0  # atno 8009 bound_to 7997
  156.2813  140.2127  156.5565 H   0  0  0  0  0  0  0  0  0  0  0  0  # atno 8010 bound_to 7997
  140.6955  143.6334  150.8502 H   0  0  0  0  0  0  0  0  0  0  0  0  # atno 10167 bound_to 10162
  157.1048  130.6483  149.5882 H   0  0  0  0  0  0  0  0  0  0  0  0  # atno 10718 bound_to 10713
  153.1175  135.4740  154.9140 H   0  0  0  0  0  0  0  0  0  0  0  0  # atno 10763 bound_to 10752
  154.7543  135.3114  154.8502 H   0  0  0  0  0  0  0  0  0  0  0  0  # atno 10764 bound_to 10752
  153.9075  135.6868  153.4806 H   0  0  0  0  0  0  0  0  0  0  0  0  # atno 10765 bound_to 10752
  141.1110  133.8705  157.1583 H   0  0  0  0  0  0  0  0  0  0  0  0  # atno 11005 bound_to 11000
  145.9611  139.2801  143.1155 LP  0  0  0  0  0  0  0  0  0  0  0  0  # atno 17320 bound_to 7965
  145.9220  140.9109  143.0400 LP  0  0  0  0  0  0  0  0  0  0  0  0  # atno 17321 bound_to 7965
  140.0052  143.5702  152.2860 LP  0  0  0  0  0  0  0  0  0  0  0  0  # atno 17342 bound_to 10162
  139.6405  144.7654  151.2348 LP  0  0  0  0  0  0  0  0  0  0  0  0  # atno 17343 bound_to 10162
  155.9864  130.4899  150.7080 LP  0  0  0  0  0  0  0  0  0  0  0  0  # atno 17370 bound_to 10713
  157.4610  131.0883  151.0746 LP  0  0  0  0  0  0  0  0  0  0  0  0  # atno 17371 bound_to 10713
  140.0005  135.0030  157.0178 LP  0  0  0  0  0  0  0  0  0  0  0  0  # atno 17394 bound_to 11000
  140.4774  134.1324  155.7212 LP  0  0  0  0  0  0  0  0  0  0  0  0  # atno 17395 bound_to 11000

$$$$
