AV-unprocessed.smi:1956|AV-procd|sdf|7903|dock2
  -GOLD-   2272010 63D 1   1.00000     0.00000
 Structure written by MMmdl.
 46 47  0  0  0  0  0  0  0  0  2 V2000
  152.8277  142.0438  160.5186 C   0  0  0  0  0  0  0  0  0  0  0  0
  152.8447  140.8163  159.7982 O   0  0  0  0  0  0  0  0  0  0  0  0
  152.1107  140.7302  158.6329 C   0  0  0  0  0  0  0  0  0  0  0  0
  151.1379  141.7160  158.3745 C   0  0  0  0  0  0  0  0  0  0  0  0
  150.3829  141.6344  157.1889 C   0  0  0  0  0  0  0  0  0  0  0  0
  150.6198  140.5596  156.2987 C   0  0  0  0  0  0  0  0  0  0  0  0
  149.9372  140.3764  155.0653 N   0  0  0  0  0  0  0  0  0  0  0  0
  148.6645  140.6838  154.7613 C   0  0  0  0  0  0  0  0  0  0  0  0
  147.8398  141.1594  155.5416 O   0  0  0  0  0  0  0  0  0  0  0  0
  148.3798  140.3847  153.4855 N   0  0  0  0  0  0  0  0  0  0  0  0
  147.0839  140.6010  152.8515 C   0  0  0  0  0  0  0  0  0  0  0  0
  146.8210  139.5693  151.7368 C   0  0  0  0  0  0  0  0  0  0  0  0
  145.8656  138.5104  152.1508 N   0  3  2  0  0  0  0  0  0  0  0  0
  146.0425  138.1279  153.5759 C   0  0  0  0  0  0  0  0  0  0  0  0
  144.9562  137.1383  154.0248 C   0  0  0  0  0  0  0  0  0  0  0  0
  144.9420  135.8955  153.1270 C   0  0  0  0  0  0  0  0  0  0  0  0
  144.7855  136.3055  151.6531 C   0  0  2  0  0  0  0  0  0  0  0  0
  144.7936  135.0807  150.7275 C   0  0  0  0  0  0  0  0  0  0  0  0
  145.8799  137.3188  151.2597 C   0  0  0  0  0  0  0  0  0  0  0  0
  151.6266  139.6339  156.6430 C   0  0  0  0  0  0  0  0  0  0  0  0
  152.3533  139.7057  157.7781 N   0  0  0  0  0  0  0  0  0  0  0  0
  153.4559  141.9503  161.4044 H   0  0  0  0  0  0  0  0  0  0  0  0
  151.8207  142.2970  160.8534 H   0  0  0  0  0  0  0  0  0  0  0  0
  153.2231  142.8644  159.9184 H   0  0  0  0  0  0  0  0  0  0  0  0
  150.9758  142.5249  159.0718 H   0  0  0  0  0  0  0  0  0  0  0  0
  149.6526  142.4014  156.9831 H   0  0  0  0  0  0  0  0  0  0  0  0
  150.4681  139.9109  154.3437 H   0  0  0  0  0  0  0  0  0  0  0  0
  149.1120  139.9918  152.9117 H   0  0  0  0  0  0  0  0  0  0  0  0
  146.2917  140.5649  153.6014 H   0  0  0  0  0  0  0  0  0  0  0  0
  147.0871  141.6142  152.4518 H   0  0  0  0  0  0  0  0  0  0  0  0
  146.4606  140.0605  150.8317 H   0  0  0  0  0  0  0  0  0  0  0  0
  147.7701  139.1000  151.4738 H   0  0  0  0  0  0  0  0  0  0  0  0
  147.0323  137.6906  153.7163 H   0  0  0  0  0  0  0  0  0  0  0  0
  145.9951  139.0164  154.2069 H   0  0  0  0  0  0  0  0  0  0  0  0
  145.1247  136.8458  155.0617 H   0  0  0  0  0  0  0  0  0  0  0  0
  143.9804  137.6252  153.9949 H   0  0  0  0  0  0  0  0  0  0  0  0
  145.8679  135.3347  153.2626 H   0  0  0  0  0  0  0  0  0  0  0  0
  144.1290  135.2326  153.4252 H   0  0  0  0  0  0  0  0  0  0  0  0
  143.8172  136.7957  151.5399 H   0  0  0  0  0  0  0  0  0  0  0  0
  145.7383  134.5399  150.7932 H   0  0  0  0  0  0  0  0  0  0  0  0
  144.6489  135.3731  149.6871 H   0  0  0  0  0  0  0  0  0  0  0  0
  143.9941  134.3864  150.9882 H   0  0  0  0  0  0  0  0  0  0  0  0
  145.7191  137.6229  150.2263 H   0  0  0  0  0  0  0  0  0  0  0  0
  146.8634  136.8470  151.2991 H   0  0  0  0  0  0  0  0  0  0  0  0
  151.8539  138.8036  155.9901 H   0  0  0  0  0  0  0  0  0  0  0  0
  144.9438  138.9180  152.0834 H   0  0  0  0  0  0  0  0  0  0  0  0
  1  2  1  0  0  0  0
  1 22  1  0  0  0  0
  1 23  1  0  0  0  0
  1 24  1  0  0  0  0
  2  3  1  0  0  0  0
  3 21  1  0  0  0  0
  3  4  2  0  0  0  0
  4  5  1  0  0  0  0
  4 25  1  0  0  0  0
  5  6  2  0  0  0  0
  5 26  1  0  0  0  0
  6  7  1  0  0  0  0
  6 20  1  0  0  0  0
  7  8  1  0  0  0  0
  7 27  1  0  0  0  0
  8  9  2  0  0  0  0
  8 10  1  0  0  0  0
 10 11  1  0  0  0  0
 10 28  1  0  0  0  0
 11 12  1  0  0  0  0
 11 29  1  0  0  0  0
 11 30  1  0  0  0  0
 12 13  1  0  0  0  0
 12 31  1  0  0  0  0
 12 32  1  0  0  0  0
 13 19  1  0  0  0  0
 13 14  1  0  0  0  0
 13 46  1  0  0  0  0
 14 15  1  0  0  0  0
 14 33  1  0  0  0  0
 14 34  1  0  0  0  0
 15 16  1  0  0  0  0
 15 35  1  0  0  0  0
 15 36  1  0  0  0  0
 16 17  1  0  0  0  0
 16 37  1  0  0  0  0
 16 38  1  0  0  0  0
 17 18  1  0  0  0  0
 17 19  1  0  0  0  0
 17 39  1  0  0  0  0
 18 40  1  0  0  0  0
 18 41  1  0  0  0  0
 18 42  1  0  0  0  0
 19 43  1  0  0  0  0
 19 44  1  0  0  0  0
 20 21  2  0  0  0  0
 20 45  1  0  0  0  0
M  CHG  1  13   1
M  END
> <s_m_source_file>
AV-unprocessed.smi

> <i_m_source_file_index>
1956

> <i_lp_mmshare_version>
43012

> <i_f3d_flags>
0

> <s_epik_input>
W0NIM11PYzFbY0hdW2NIXWMoW2NIXW4xKVtOSF1DKD1PKVtOSF1bQ0gyXVtDSDJdTjJbQ0gyXVtDSDJdW0NIMl1bQ0BASF0oW0NIM10pW0NIMl0y

> <s_epik_cmdline>
J2VwaWtfcHl0aG9uJywgJy1waCcsICc3LjAnLCAnLXRuJywgJzgnLCAnLW1hJywgJzIwMCcsICctbWV0YWxfYmluZGluZycsICctaW1hZScsICc8aW5maWxlLm1hZT4nLCAnLW9tYWUnLCAnPG91dGZpbGUubWFlPic=

> <r_lp_tautomer_probability>
1

> <r_epik_Ionization_Penalty>
0.00179545

> <r_epik_Ionization_Penalty_Charging>
0.00171832

> <r_epik_Ionization_Penalty_Neutral>
7.7124e-05

> <r_epik_State_Penalty>
0.0011618

> <r_epik_Charging_Adjusted_Penalty>
0.00288012

> <i_epik_Tot_Q>
1

> <i_epik_Tot_abs_Q>
1

> <r_epik_Metal_State_Penalty>
-0

> <b_epik_Metal_Only>
0

> <s_lp_Force_Field>
OPLS_2005

> <r_lp_Energy>
19.732

> <b_lp_Chiralities_Consistent>
1

> <s_lp_Variant>
AV-unprocessed.smi:1956-4

> <Gold.Version>
5.8.1

> <Gold.Id.Protein>
6NUR|6NUR_protein|mol2

> <Gold.PLP.Fitness>
44.7422

> <Gold.PLP.PLP>
-35.1716

> <Gold.PLP.part.hbond>
-3.6883

> <Gold.PLP.part.metal>
0.0000

> <Gold.PLP.part.buried>
0.3687

> <Gold.PLP.part.nonpolar>
-32.6691

> <Gold.PLP.part.repulsive>
1.3392

> <Gold.PLP.ligand.clash>
0.0146

> <Gold.PLP.ligand.torsion>
1.0875

> <Gold.PLP.Chemscore.Hbond>
3.8960

> <Gold.PLP.Chemscore.CHOScore>
0.0000

> <Gold.PLP.Chemscore.Metal>
0.0000

> <Gold.Chemscore.Hbonds>
donor molecule, donor type, donor heavy atom, donor atom, acceptor molecule, acceptor atom, score
      L1  H    10    28       P1  7957  0.74
      L1  H    13    46       P1 10175  2.00
      P1  H  7997  8010       L1    21  0.24

> <Gold.PLP.Chemscore.Internal.Correction>
0.0722

> <Gold.Rescore>
     Score         DG    S(hbond)    S(metal)    S(lipo)     H(rot)  DE(clash)    DE(int)     intcor
     15.84     -18.75       2.57        0.00      77.58       1.71       1.05       1.86       ----

> <Gold.Chemscore.Fitness>
15.8362

> <Gold.Chemscore.DG>
-18.7452

> <Gold.Chemscore.ZeroCoef>
-5.4800

> <Gold.Chemscore.Hbond>
2.5652

> <Gold.Chemscore.Metal>
0.0000

> <Gold.Chemscore.Lipo>
77.5784

> <Gold.Chemscore.Internal_Hbond>
0.0000

> <Gold.Chemscore.DEClash>
1.0465

> <Gold.Chemscore.DEInternal>
1.8625

> <Gold.Chemscore.Rot>
1.7107

> <Gold.Chemscore.Internal.Correction>
   9.000000E+99

> <Gold.Chemscore.Hbonds>
donor molecule, donor type, donor heavy atom, donor atom, acceptor molecule, acceptor atom, score
      L1  H    10    28       P1  7957  0.74
      L1  H    13    46       P1 10175  0.89
      P1  H  7997  8010       L1    21  0.04

> <Gold.Chemscore.Hbond.Weighted>
-8.5679

> <Gold.Chemscore.Metal.Weighted>
-0.0000

> <Gold.Chemscore.Lipo.Weighted>
-9.0767

> <Gold.Chemscore.Internal_Hbond.Weighted>
0.0000

> <Gold.Chemscore.DEClash.Weighted>
1.0465

> <Gold.Chemscore.DEInternal.Weighted>
1.8625

> <Gold.Chemscore.Rot.Weighted>
4.3794

> <Gold.Chemscore.Internal.Correction.Weighted>
   9.000000E+99

> <Gold.Protein.RotatedTorsions>
[ 6907 6896 6895 6894 ] final  -56.95 input  -60.11 | X-H torsion
[ 7974 7965 7964 7962 ] final -106.26 input  175.53 | X-H torsion
[ 8008 7997 7996 7995 ] final   46.04 input   59.86 | X-H torsion
[ 10167 10162 10161 10158 ] final   -5.14 input  -65.29 | X-H torsion
[ 10718 10713 10712 10709 ] final  142.97 input   66.30 | X-H torsion
[ 10763 10752 10751 10750 ] final -173.22 input  -60.55 | X-H torsion
[ 11005 11000 10999 10996 ] final  -19.72 input  -57.11 | X-H torsion

> <Gold.Protein.ActiveResidues>
 VAL166  LYS551  ARG553  GLY616  TRP617  ASP618  TYR619  PRO620  LYS621  CYS622 
 ASP623  PHE694  ASN695  SER759  ASP760  ASP761  ALA762  ILE779  LEU786  VAL792 
 PHE793  MET794  SER795  GLU796  ALA797  LYS798  CYS799  TRP800  GLU811  SER814 

> <Gold.Protein.RotatedAtoms>
  150.8126  134.7289  159.6700 H   0  0  0  0  0  0  0  0  0  0  0  0  # atno 6907 bound_to 6896
  152.4245  134.5890  159.9979 H   0  0  0  0  0  0  0  0  0  0  0  0  # atno 6908 bound_to 6896
  151.6096  133.3311  159.3100 H   0  0  0  0  0  0  0  0  0  0  0  0  # atno 6909 bound_to 6896
  145.2201  140.9131  143.3264 H   0  0  0  0  0  0  0  0  0  0  0  0  # atno 7974 bound_to 7965
  155.3459  140.3410  155.4239 H   0  0  0  0  0  0  0  0  0  0  0  0  # atno 8008 bound_to 7997
  156.1789  140.1657  156.8346 H   0  0  0  0  0  0  0  0  0  0  0  0  # atno 8009 bound_to 7997
  154.5312  140.0745  156.8331 H   0  0  0  0  0  0  0  0  0  0  0  0  # atno 8010 bound_to 7997
  140.6953  143.6342  150.8495 H   0  0  0  0  0  0  0  0  0  0  0  0  # atno 10167 bound_to 10162
  157.3744  131.0983  151.0798 H   0  0  0  0  0  0  0  0  0  0  0  0  # atno 10718 bound_to 10713
  154.6103  135.2864  155.0439 H   0  0  0  0  0  0  0  0  0  0  0  0  # atno 10763 bound_to 10752
  154.1671  135.6478  153.5004 H   0  0  0  0  0  0  0  0  0  0  0  0  # atno 10764 bound_to 10752
  153.0192  135.5392  154.6855 H   0  0  0  0  0  0  0  0  0  0  0  0  # atno 10765 bound_to 10752
  140.8394  133.7937  155.9844 H   0  0  0  0  0  0  0  0  0  0  0  0  # atno 11005 bound_to 11000
  144.9773  139.3819  143.6279 LP  0  0  0  0  0  0  0  0  0  0  0  0  # atno 17320 bound_to 7965
  146.3378  139.8898  142.8811 LP  0  0  0  0  0  0  0  0  0  0  0  0  # atno 17321 bound_to 7965
  140.0059  143.5694  152.2857 LP  0  0  0  0  0  0  0  0  0  0  0  0  # atno 17342 bound_to 10162
  139.6400  144.7654  151.2358 LP  0  0  0  0  0  0  0  0  0  0  0  0  # atno 17343 bound_to 10162
  157.1890  130.6343  149.5698 LP  0  0  0  0  0  0  0  0  0  0  0  0  # atno 17370 bound_to 10713
  155.9762  130.4728  150.6513 LP  0  0  0  0  0  0  0  0  0  0  0  0  # atno 17371 bound_to 10713
  140.8911  134.2494  157.5093 LP  0  0  0  0  0  0  0  0  0  0  0  0  # atno 17394 bound_to 11000
  139.8703  134.9662  156.4554 LP  0  0  0  0  0  0  0  0  0  0  0  0  # atno 17395 bound_to 11000

$$$$
