AV-unprocessed.smi:102|AV-procd|sdf|957|dock8
  -GOLD-   2262017493D 1   1.00000     0.00000
 Structure written by MMmdl.
 44 45  0  0  0  0  0  0  0  0  1 V2000
  147.7664  135.8456  161.7631 C   0  0  0  0  0  0  0  0  0  0  0  0
  147.8155  136.7332  160.5258 C   0  0  0  0  0  0  0  0  0  0  0  0
  146.9081  137.5247  160.2689 O   0  0  0  0  0  0  0  0  0  0  0  0
  148.9240  136.5401  159.7949 O   0  0  0  0  0  0  0  0  0  0  0  0
  149.1458  137.3301  158.6391 C   0  0  0  0  0  0  0  0  0  0  0  0
  150.3869  136.8030  157.8930 C   0  0  2  0  0  0  0  0  0  0  0  0
  151.5074  136.8245  158.7714 O   0  0  0  0  0  0  0  0  0  0  0  0
  152.0869  138.0937  158.7509 C   0  0  1  0  0  0  0  0  0  0  0  0
  153.5809  137.9519  158.9288 N   0  0  0  0  0  0  0  0  0  0  0  0
  154.2044  138.4854  160.0487 C   0  0  0  0  0  0  0  0  0  0  0  0
  155.5326  138.3642  160.2827 C   0  0  0  0  0  0  0  0  0  0  0  0
  156.0649  138.9136  161.3877 F   0  0  0  0  0  0  0  0  0  0  0  0
  156.3896  137.6385  159.3500 C   0  0  0  0  0  0  0  0  0  0  0  0
  157.6024  137.4782  159.4725 O   0  0  0  0  0  0  0  0  0  0  0  0
  155.7168  137.0997  158.2495 N   0  0  0  0  0  0  0  0  0  0  0  0
  154.3483  137.2137  157.9987 C   0  0  0  0  0  0  0  0  0  0  0  0
  153.8628  136.6776  157.0044 O   0  0  0  0  0  0  0  0  0  0  0  0
  151.7014  138.7712  157.4187 C   0  0  2  0  0  0  0  0  0  0  0  0
  150.9374  139.9461  157.6743 O   0  0  0  0  0  0  0  0  0  0  0  0
  151.5403  141.0559  158.1345 C   0  0  0  0  0  0  0  0  0  0  0  0
  150.6816  142.3018  157.9611 C   0  0  0  0  0  0  0  0  0  0  0  0
  152.6541  141.1110  158.6558 O   0  0  0  0  0  0  0  0  0  0  0  0
  150.8583  137.6927  156.7379 C   0  0  2  0  0  0  0  0  0  0  0  0
  149.7843  138.1973  155.9498 O   0  0  0  0  0  0  0  0  0  0  0  0
  150.0199  139.0915  154.9741 C   0  0  0  0  0  0  0  0  0  0  0  0
  148.7597  139.4470  154.1966 C   0  0  0  0  0  0  0  0  0  0  0  0
  151.1084  139.5980  154.7025 O   0  0  0  0  0  0  0  0  0  0  0  0
  156.2667  136.5776  157.5829 H   0  0  0  0  0  0  0  0  0  0  0  0
  148.6682  135.2383  161.8451 H   0  0  0  0  0  0  0  0  0  0  0  0
  146.9056  135.1788  161.7127 H   0  0  0  0  0  0  0  0  0  0  0  0
  147.6785  136.4559  162.6620 H   0  0  0  0  0  0  0  0  0  0  0  0
  148.2648  137.2547  158.0005 H   0  0  0  0  0  0  0  0  0  0  0  0
  149.2631  138.3803  158.9087 H   0  0  0  0  0  0  0  0  0  0  0  0
  150.1996  135.7891  157.5378 H   0  0  0  0  0  0  0  0  0  0  0  0
  151.7297  138.6470  159.6213 H   0  0  0  0  0  0  0  0  0  0  0  0
  153.6169  139.0310  160.7734 H   0  0  0  0  0  0  0  0  0  0  0  0
  152.5819  139.0047  156.8182 H   0  0  0  0  0  0  0  0  0  0  0  0
  150.1743  142.5417  158.8956 H   0  0  0  0  0  0  0  0  0  0  0  0
  149.9289  142.1498  157.1870 H   0  0  0  0  0  0  0  0  0  0  0  0
  151.3011  143.1521  157.6757 H   0  0  0  0  0  0  0  0  0  0  0  0
  151.5107  137.0846  156.1102 H   0  0  0  0  0  0  0  0  0  0  0  0
  147.9250  139.6117  154.8785 H   0  0  0  0  0  0  0  0  0  0  0  0
  148.4963  138.6385  153.5144 H   0  0  0  0  0  0  0  0  0  0  0  0
  148.9131  140.3554  153.6139 H   0  0  0  0  0  0  0  0  0  0  0  0
  1  2  1  0  0  0  0
  1 29  1  0  0  0  0
  1 30  1  0  0  0  0
  1 31  1  0  0  0  0
  2  3  2  0  0  0  0
  2  4  1  0  0  0  0
  4  5  1  0  0  0  0
  5  6  1  0  0  0  0
  5 32  1  0  0  0  0
  5 33  1  0  0  0  0
  6 23  1  0  0  0  0
  6  7  1  0  0  0  0
  6 34  1  0  0  0  0
  7  8  1  0  0  0  0
  8  9  1  0  0  0  0
  8 18  1  0  0  0  0
  8 35  1  0  0  0  0
  9 16  1  0  0  0  0
  9 10  1  0  0  0  0
 10 11  2  0  0  0  0
 10 36  1  0  0  0  0
 11 12  1  0  0  0  0
 11 13  1  0  0  0  0
 13 14  2  0  0  0  0
 13 15  1  0  0  0  0
 15 28  1  0  0  0  0
 15 16  1  0  0  0  0
 16 17  2  0  0  0  0
 18 19  1  0  0  0  0
 18 23  1  0  0  0  0
 18 37  1  0  0  0  0
 19 20  1  0  0  0  0
 20 21  1  0  0  0  0
 20 22  2  0  0  0  0
 21 38  1  0  0  0  0
 21 39  1  0  0  0  0
 21 40  1  0  0  0  0
 23 24  1  0  0  0  0
 23 41  1  0  0  0  0
 24 25  1  0  0  0  0
 25 26  1  0  0  0  0
 25 27  2  0  0  0  0
 26 42  1  0  0  0  0
 26 43  1  0  0  0  0
 26 44  1  0  0  0  0
M  END
> <s_m_source_file>
AV-unprocessed.smi

> <i_m_source_file_index>
102

> <i_lp_mmshare_version>
43012

> <i_f3d_flags>
0

> <s_epik_input>
W0NIM11DKD1PKU9bQ0gyXVtDQEBIXTFPW0NASF0oW0NAQEhdKE9DKD1PKVtDSDNdKVtDQEhdMU9DKD1PKVtDSDNdKW4yW2NIXWMoRiljKD1PKVtuSF1jMj1P

> <s_epik_cmdline>
J2VwaWtfcHl0aG9uJywgJy1waCcsICc3LjAnLCAnLXRuJywgJzgnLCAnLW1hJywgJzIwMCcsICctbWV0YWxfYmluZGluZycsICctaW1hZScsICc8aW5maWxlLm1hZT4nLCAnLW9tYWUnLCAnPG91dGZpbGUubWFlPic=

> <r_lp_tautomer_probability>
0.999537

> <r_epik_Ionization_Penalty>
0.058267

> <r_epik_Ionization_Penalty_Charging>
0.058267

> <r_epik_Ionization_Penalty_Neutral>
6.57791e-16

> <r_epik_State_Penalty>
0.0503774

> <r_epik_Charging_Adjusted_Penalty>
0.108644

> <i_epik_Tot_Q>
0

> <i_epik_Tot_abs_Q>
0

> <r_epik_Metal_State_Penalty>
2.6644

> <b_epik_Metal_Only>
0

> <s_epik_Chemistry_Notes>
This compound has an ester and may undergo hydrolysis at high or low pH. This compound contains an acetal/aminal-like group ( X-CH(R)-Y where X, Y are N, S, or O) that may be acid/base labile, releasing an aldehyde.

> <s_lp_Force_Field>
OPLS_2005

> <r_lp_Energy>
12.818

> <b_lp_Chiralities_Consistent>
1

> <s_lp_Variant>
AV-unprocessed.smi:102-13

> <Gold.Version>
5.8.1

> <Gold.Id.Protein>
6NUR|6NUR_protein|mol2

> <Gold.PLP.Fitness>
37.3207

> <Gold.PLP.PLP>
-26.4780

> <Gold.PLP.part.hbond>
-4.0000

> <Gold.PLP.part.metal>
0.0000

> <Gold.PLP.part.buried>
-6.2453

> <Gold.PLP.part.nonpolar>
-16.6963

> <Gold.PLP.part.repulsive>
0.2483

> <Gold.PLP.ligand.clash>
0.0000

> <Gold.PLP.ligand.torsion>
0.3789

> <Gold.PLP.Chemscore.Hbond>
3.8400

> <Gold.PLP.Chemscore.CHOScore>
0.0000

> <Gold.PLP.Chemscore.Metal>
0.0000

> <Gold.Chemscore.Hbonds>
donor molecule, donor type, donor heavy atom, donor atom, acceptor molecule, acceptor atom, score
      P1  H  6896  6909       L1     7  0.86
      P1  H  6934  6947       L1     3  1.00
      P1  H  7989  7998       L1    27  1.00
      P1  H 10752 10765       L1    17  0.83

> <Gold.PLP.Chemscore.Internal.Correction>
0.0804

> <Gold.Rescore>
     Score         DG    S(hbond)    S(metal)    S(lipo)     H(rot)  DE(clash)    DE(int)     intcor
     10.03     -12.12       3.63        0.00      41.89       4.05       0.00       2.09       ----

> <Gold.Chemscore.Fitness>
10.0275

> <Gold.Chemscore.DG>
-12.1222

> <Gold.Chemscore.ZeroCoef>
-5.4800

> <Gold.Chemscore.Hbond>
3.6269

> <Gold.Chemscore.Metal>
0.0000

> <Gold.Chemscore.Lipo>
41.8938

> <Gold.Chemscore.Internal_Hbond>
0.0000

> <Gold.Chemscore.DEClash>
0.0000

> <Gold.Chemscore.DEInternal>
2.0947

> <Gold.Chemscore.Rot>
4.0520

> <Gold.Chemscore.Internal.Correction>
   9.000000E+99

> <Gold.Chemscore.Hbonds>
donor molecule, donor type, donor heavy atom, donor atom, acceptor molecule, acceptor atom, score
      P1  H  6896  6909       L1     7  0.39
      P1  H  6934  6947       L1     3  0.85
      P1  H  7989  7998       L1    27  1.00
      P1  H 10752 10765       L1    17  0.77

> <Gold.Chemscore.Hbond.Weighted>
-12.1138

> <Gold.Chemscore.Metal.Weighted>
-0.0000

> <Gold.Chemscore.Lipo.Weighted>
-4.9016

> <Gold.Chemscore.Internal_Hbond.Weighted>
0.0000

> <Gold.Chemscore.DEClash.Weighted>
0.0000

> <Gold.Chemscore.DEInternal.Weighted>
2.0947

> <Gold.Chemscore.Rot.Weighted>
10.3732

> <Gold.Chemscore.Internal.Correction.Weighted>
   9.000000E+99

> <Gold.Protein.RotatedTorsions>
[ 6907 6896 6895 6894 ] final  103.51 input  -60.11 | X-H torsion
[ 7974 7965 7964 7962 ] final  133.61 input  175.53 | X-H torsion
[ 8008 7997 7996 7995 ] final -139.24 input   59.86 | X-H torsion
[ 10167 10162 10161 10158 ] final  -45.51 input  -65.29 | X-H torsion
[ 10718 10713 10712 10709 ] final   72.53 input   66.30 | X-H torsion
[ 10763 10752 10751 10750 ] final -112.32 input  -60.55 | X-H torsion
[ 11005 11000 10999 10996 ] final -114.30 input  -57.11 | X-H torsion

> <Gold.Protein.ActiveResidues>
 VAL166  LYS551  ARG553  GLY616  TRP617  ASP618  TYR619  PRO620  LYS621  CYS622 
 ASP623  PHE694  ASN695  SER759  ASP760  ASP761  ALA762  ILE779  LEU786  VAL792 
 PHE793  MET794  SER795  GLU796  ALA797  LYS798  CYS799  TRP800  GLU811  SER814 

> <Gold.Protein.RotatedAtoms>
  152.5293  133.9814  159.7808 H   0  0  0  0  0  0  0  0  0  0  0  0  # atno 6907 bound_to 6896
  151.0067  133.5996  159.2695 H   0  0  0  0  0  0  0  0  0  0  0  0  # atno 6908 bound_to 6896
  151.3085  135.0794  159.9317 H   0  0  0  0  0  0  0  0  0  0  0  0  # atno 6909 bound_to 6896
  144.9847  139.4467  143.5369 H   0  0  0  0  0  0  0  0  0  0  0  0  # atno 7974 bound_to 7965
  155.4415  140.0532  157.3010 H   0  0  0  0  0  0  0  0  0  0  0  0  # atno 8008 bound_to 7997
  154.4816  140.2083  155.9708 H   0  0  0  0  0  0  0  0  0  0  0  0  # atno 8009 bound_to 7997
  156.1214  140.3187  155.8218 H   0  0  0  0  0  0  0  0  0  0  0  0  # atno 8010 bound_to 7997
  140.6855  143.2876  151.3649 H   0  0  0  0  0  0  0  0  0  0  0  0  # atno 10167 bound_to 10162
  157.6505  130.9583  150.0942 H   0  0  0  0  0  0  0  0  0  0  0  0  # atno 10718 bound_to 10713
  154.8344  135.4495  154.1175 H   0  0  0  0  0  0  0  0  0  0  0  0  # atno 10763 bound_to 10752
  153.2420  135.6917  153.7778 H   0  0  0  0  0  0  0  0  0  0  0  0  # atno 10764 bound_to 10752
  153.7122  135.3355  155.3225 H   0  0  0  0  0  0  0  0  0  0  0  0  # atno 10765 bound_to 10752
  141.0560  133.9611  157.2753 H   0  0  0  0  0  0  0  0  0  0  0  0  # atno 11005 bound_to 11000
  146.3417  139.9142  142.8776 LP  0  0  0  0  0  0  0  0  0  0  0  0  # atno 17320 bound_to 7965
  145.2370  140.9995  143.3958 LP  0  0  0  0  0  0  0  0  0  0  0  0  # atno 17321 bound_to 7965
  139.6210  144.0906  152.2391 LP  0  0  0  0  0  0  0  0  0  0  0  0  # atno 17342 bound_to 10162
  140.0351  144.6051  150.7456 LP  0  0  0  0  0  0  0  0  0  0  0  0  # atno 17343 bound_to 10162
  156.1882  130.3653  149.8944 LP  0  0  0  0  0  0  0  0  0  0  0  0  # atno 17370 bound_to 10713
  156.6879  130.8884  151.3584 LP  0  0  0  0  0  0  0  0  0  0  0  0  # atno 17371 bound_to 10713
  139.9391  135.0193  156.8650 LP  0  0  0  0  0  0  0  0  0  0  0  0  # atno 17394 bound_to 11000
  140.5963  134.0214  155.7519 LP  0  0  0  0  0  0  0  0  0  0  0  0  # atno 17395 bound_to 11000

$$$$
