AV-unprocessed.smi:710|AV-procd|sdf|3463|dock5
  -GOLD-   22720 0453D 1   1.00000     0.00000
 Structure written by MMmdl.
 40 41  0  0  0  0  0  0  0  0  1 V2000
  153.7212  141.0911  161.0769 C   0  0  0  0  0  0  0  0  0  0  0  0
  153.0352  141.8702  159.9910 C   0  0  0  0  0  0  0  0  0  0  0  0
  153.2512  143.1714  159.9037 N   0  0  0  0  0  0  0  0  0  0  0  0
  152.5125  143.5761  158.8522 N   0  0  0  0  0  0  0  0  0  0  0  0
  152.5398  144.9797  158.4866 C   0  0  0  0  0  0  0  0  0  0  0  0
  151.8247  142.5255  158.2723 C   0  0  0  0  0  0  0  0  0  0  0  0
  150.9351  142.7058  157.0839 C   0  0  0  0  0  0  0  0  0  0  0  0
  152.1386  141.3990  158.9865 C   0  0  0  0  0  0  0  0  0  0  0  0
  151.6621  139.9840  158.7737 C   0  0  0  0  0  0  0  0  0  0  0  0
  151.8407  139.5973  157.3056 C   0  0  0  0  0  0  0  0  0  0  0  0
  152.9693  139.4126  156.8515 O   0  0  0  0  0  0  0  0  0  0  0  0
  150.7200  139.4852  156.5770 N   0  0  0  0  0  0  0  0  0  0  0  0
  150.6648  139.1394  155.1593 C   0  0  0  0  0  0  0  0  0  0  0  0
  149.3002  139.4650  154.5040 C   0  0  2  0  0  0  0  0  0  0  0  0
  149.2434  138.8002  153.2543 O   0  0  0  0  0  0  0  0  0  0  0  0
  149.1489  140.9679  154.2126 C   0  0  0  0  0  0  0  0  0  0  0  0
  147.6856  141.2318  153.8414 C   0  0  0  0  0  0  0  0  0  0  0  0
  146.6630  140.0769  154.7896 S   0  0  0  0  0  0  0  0  0  0  0  0
  148.0714  139.0811  155.3486 C   0  0  0  0  0  0  0  0  0  0  0  0
  153.7207  140.0224  160.8635 H   0  0  0  0  0  0  0  0  0  0  0  0
  153.2242  141.2379  162.0358 H   0  0  0  0  0  0  0  0  0  0  0  0
  154.7606  141.4003  161.1894 H   0  0  0  0  0  0  0  0  0  0  0  0
  151.8259  145.1887  157.6906 H   0  0  0  0  0  0  0  0  0  0  0  0
  153.5388  145.2491  158.1430 H   0  0  0  0  0  0  0  0  0  0  0  0
  152.2848  145.5908  159.3531 H   0  0  0  0  0  0  0  0  0  0  0  0
  150.4874  141.7618  156.7751 H   0  0  0  0  0  0  0  0  0  0  0  0
  151.4968  143.0993  156.2365 H   0  0  0  0  0  0  0  0  0  0  0  0
  150.1251  143.4001  157.3076 H   0  0  0  0  0  0  0  0  0  0  0  0
  152.2186  139.2808  159.3940 H   0  0  0  0  0  0  0  0  0  0  0  0
  150.6158  139.8631  159.0562 H   0  0  0  0  0  0  0  0  0  0  0  0
  149.8388  139.6605  157.0372 H   0  0  0  0  0  0  0  0  0  0  0  0
  151.4439  139.7340  154.6816 H   0  0  0  0  0  0  0  0  0  0  0  0
  150.9457  138.0974  154.9942 H   0  0  0  0  0  0  0  0  0  0  0  0
  149.1897  139.4505  152.5707 H   0  0  0  0  0  0  0  0  0  0  0  0
  149.3841  141.5363  155.1137 H   0  0  0  0  0  0  0  0  0  0  0  0
  149.8326  141.3126  153.4356 H   0  0  0  0  0  0  0  0  0  0  0  0
  147.3938  142.2642  154.0347 H   0  0  0  0  0  0  0  0  0  0  0  0
  147.5251  141.0362  152.7808 H   0  0  0  0  0  0  0  0  0  0  0  0
  147.8418  138.0158  155.3000 H   0  0  0  0  0  0  0  0  0  0  0  0
  148.2474  139.3300  156.3957 H   0  0  0  0  0  0  0  0  0  0  0  0
  1  2  1  0  0  0  0
  1 20  1  0  0  0  0
  1 21  1  0  0  0  0
  1 22  1  0  0  0  0
  2  8  1  0  0  0  0
  2  3  2  0  0  0  0
  3  4  1  0  0  0  0
  4  5  1  0  0  0  0
  4  6  1  0  0  0  0
  5 23  1  0  0  0  0
  5 24  1  0  0  0  0
  5 25  1  0  0  0  0
  6  7  1  0  0  0  0
  6  8  2  0  0  0  0
  7 26  1  0  0  0  0
  7 27  1  0  0  0  0
  7 28  1  0  0  0  0
  8  9  1  0  0  0  0
  9 10  1  0  0  0  0
  9 29  1  0  0  0  0
  9 30  1  0  0  0  0
 10 11  2  0  0  0  0
 10 12  1  0  0  0  0
 12 13  1  0  0  0  0
 12 31  1  0  0  0  0
 13 14  1  0  0  0  0
 13 32  1  0  0  0  0
 13 33  1  0  0  0  0
 14 19  1  0  0  0  0
 14 15  1  0  0  0  0
 14 16  1  0  0  0  0
 15 34  1  0  0  0  0
 16 17  1  0  0  0  0
 16 35  1  0  0  0  0
 16 36  1  0  0  0  0
 17 18  1  0  0  0  0
 17 37  1  0  0  0  0
 17 38  1  0  0  0  0
 18 19  1  0  0  0  0
 19 39  1  0  0  0  0
 19 40  1  0  0  0  0
M  END
> <s_m_source_file>
AV-unprocessed.smi

> <i_m_source_file_index>
710

> <i_lp_mmshare_version>
43012

> <i_f3d_flags>
0

> <s_epik_input>
W0NIM11jMW5uKFtDSDNdKWMoW0NIM10pYzFbQ0gyXUMoPU8pW05IXVtDSDJdW0NAQF0yKFtPSF0pW0NIMl1bQ0gyXVNbQ0gyXTI=

> <s_epik_cmdline>
J2VwaWtfcHl0aG9uJywgJy1waCcsICc3LjAnLCAnLXRuJywgJzgnLCAnLW1hJywgJzIwMCcsICctbWV0YWxfYmluZGluZycsICctaW1hZScsICc8aW5maWxlLm1hZT4nLCAnLW9tYWUnLCAnPG91dGZpbGUubWFlPic=

> <r_lp_tautomer_probability>
1

> <r_epik_Ionization_Penalty>
0.00343686

> <r_epik_Ionization_Penalty_Charging>
0

> <r_epik_Ionization_Penalty_Neutral>
0.00343686

> <r_epik_State_Penalty>
0.00243544

> <r_epik_Charging_Adjusted_Penalty>
0.00243544

> <i_epik_Tot_Q>
0

> <i_epik_Tot_abs_Q>
0

> <r_epik_Metal_State_Penalty>
-0

> <b_epik_Metal_Only>
0

> <s_lp_Force_Field>
OPLS_2005

> <r_lp_Energy>
11.3483

> <b_lp_Chiralities_Consistent>
1

> <s_lp_Variant>
AV-unprocessed.smi:710-2

> <Gold.Version>
5.8.1

> <Gold.Id.Protein>
6NUR|6NUR_protein|mol2

> <Gold.PLP.Fitness>
46.1086

> <Gold.PLP.PLP>
-41.0982

> <Gold.PLP.part.hbond>
-2.6058

> <Gold.PLP.part.metal>
0.0000

> <Gold.PLP.part.buried>
-4.0923

> <Gold.PLP.part.nonpolar>
-34.2472

> <Gold.PLP.part.repulsive>
0.0447

> <Gold.PLP.ligand.clash>
0.0000

> <Gold.PLP.ligand.torsion>
0.5026

> <Gold.PLP.Chemscore.Hbond>
2.0000

> <Gold.PLP.Chemscore.CHOScore>
0.0000

> <Gold.PLP.Chemscore.Metal>
0.0000

> <Gold.Chemscore.Hbonds>
donor molecule, donor type, donor heavy atom, donor atom, acceptor molecule, acceptor atom, score
      L1  H    15    34       P1  7957  1.00
      P1  H  7997  8008       L1    11  1.00

> <Gold.PLP.Chemscore.Internal.Correction>
0.0155

> <Gold.Rescore>
     Score         DG    S(hbond)    S(metal)    S(lipo)     H(rot)  DE(clash)    DE(int)     intcor
     18.22     -18.78       1.96        0.00     103.10       2.07       0.07       0.49       ----

> <Gold.Chemscore.Fitness>
18.2197

> <Gold.Chemscore.DG>
-18.7797

> <Gold.Chemscore.ZeroCoef>
-5.4800

> <Gold.Chemscore.Hbond>
1.9608

> <Gold.Chemscore.Metal>
0.0000

> <Gold.Chemscore.Lipo>
103.1002

> <Gold.Chemscore.Internal_Hbond>
0.0000

> <Gold.Chemscore.DEClash>
0.0659

> <Gold.Chemscore.DEInternal>
0.4941

> <Gold.Chemscore.Rot>
2.0750

> <Gold.Chemscore.Internal.Correction>
   9.000000E+99

> <Gold.Chemscore.Hbonds>
donor molecule, donor type, donor heavy atom, donor atom, acceptor molecule, acceptor atom, score
      L1  H    15    34       P1  7957  0.94
      P1  H  7997  8008       L1    11  0.98

> <Gold.Chemscore.Hbond.Weighted>
-6.5490

> <Gold.Chemscore.Metal.Weighted>
-0.0000

> <Gold.Chemscore.Lipo.Weighted>
-12.0627

> <Gold.Chemscore.Internal_Hbond.Weighted>
0.0000

> <Gold.Chemscore.DEClash.Weighted>
0.0659

> <Gold.Chemscore.DEInternal.Weighted>
0.4941

> <Gold.Chemscore.Rot.Weighted>
5.3120

> <Gold.Chemscore.Internal.Correction.Weighted>
   9.000000E+99

> <Gold.Protein.RotatedTorsions>
[ 6907 6896 6895 6894 ] final -132.58 input  -60.11 | X-H torsion
[ 7974 7965 7964 7962 ] final   66.19 input  175.53 | X-H torsion
[ 8008 7997 7996 7995 ] final  -43.37 input   59.86 | X-H torsion
[ 10167 10162 10161 10158 ] final   97.67 input  -65.29 | X-H torsion
[ 10718 10713 10712 10709 ] final   42.85 input   66.30 | X-H torsion
[ 10763 10752 10751 10750 ] final  138.16 input  -60.55 | X-H torsion
[ 11005 11000 10999 10996 ] final   73.91 input  -57.11 | X-H torsion

> <Gold.Protein.ActiveResidues>
 VAL166  LYS551  ARG553  GLY616  TRP617  ASP618  TYR619  PRO620  LYS621  CYS622 
 ASP623  PHE694  ASN695  SER759  ASP760  ASP761  ALA762  ILE779  LEU786  VAL792 
 PHE793  MET794  SER795  GLU796  ALA797  LYS798  CYS799  TRP800  GLU811  SER814 

> <Gold.Protein.RotatedAtoms>
  150.9641  133.6414  159.2749 H   0  0  0  0  0  0  0  0  0  0  0  0  # atno 6907 bound_to 6896
  151.3726  135.0924  159.9480 H   0  0  0  0  0  0  0  0  0  0  0  0  # atno 6908 bound_to 6896
  152.5159  133.9192  159.7580 H   0  0  0  0  0  0  0  0  0  0  0  0  # atno 6909 bound_to 6896
  145.8295  139.3131  143.0995 H   0  0  0  0  0  0  0  0  0  0  0  0  # atno 7974 bound_to 7965
  154.3997  140.1449  156.3507 H   0  0  0  0  0  0  0  0  0  0  0  0  # atno 8008 bound_to 7997
  155.8271  140.3467  155.5529 H   0  0  0  0  0  0  0  0  0  0  0  0  # atno 8009 bound_to 7997
  155.8227  140.0900  157.1830 H   0  0  0  0  0  0  0  0  0  0  0  0  # atno 8010 bound_to 7997
  139.7780  144.6899  151.0063 H   0  0  0  0  0  0  0  0  0  0  0  0  # atno 10167 bound_to 10162
  157.4095  130.7906  149.7418 H   0  0  0  0  0  0  0  0  0  0  0  0  # atno 10718 bound_to 10713
  153.8851  135.3039  155.3446 H   0  0  0  0  0  0  0  0  0  0  0  0  # atno 10763 bound_to 10752
  154.7743  135.4869  153.9715 H   0  0  0  0  0  0  0  0  0  0  0  0  # atno 10764 bound_to 10752
  153.1329  135.6808  153.9246 H   0  0  0  0  0  0  0  0  0  0  0  0  # atno 10765 bound_to 10752
  139.9417  134.7387  156.1083 H   0  0  0  0  0  0  0  0  0  0  0  0  # atno 11005 bound_to 11000
  145.9586  140.8853  143.0222 LP  0  0  0  0  0  0  0  0  0  0  0  0  # atno 17320 bound_to 7965
  144.6741  140.1781  143.7408 LP  0  0  0  0  0  0  0  0  0  0  0  0  # atno 17321 bound_to 7965
  140.7817  143.4515  151.0407 LP  0  0  0  0  0  0  0  0  0  0  0  0  # atno 17342 bound_to 10162
  139.8196  143.7838  152.3176 LP  0  0  0  0  0  0  0  0  0  0  0  0  # atno 17343 bound_to 10162
  155.9846  130.3990  150.3302 LP  0  0  0  0  0  0  0  0  0  0  0  0  # atno 17370 bound_to 10713
  157.1439  131.0303  151.2915 LP  0  0  0  0  0  0  0  0  0  0  0  0  # atno 17371 bound_to 10713
  141.1053  133.6662  156.2850 LP  0  0  0  0  0  0  0  0  0  0  0  0  # atno 17394 bound_to 11000
  140.5936  134.5626  157.5504 LP  0  0  0  0  0  0  0  0  0  0  0  0  # atno 17395 bound_to 11000

$$$$
