AV-unprocessed.smi:1918|AV-procd|sdf|7769|dock1
  -GOLD-   22720 9513D 1   1.00000     0.00000
 Structure written by MMmdl.
 35 37  0  0  0  0  0  0  0  0  1 V2000
  152.3979  138.0488  155.5575 C   0  0  0  0  0  0  0  0  0  0  0  0
  151.1706  138.8015  155.1519 C   0  0  0  0  0  0  0  0  0  0  0  0
  150.1706  138.2232  154.4860 N   0  0  0  0  0  0  0  0  0  0  0  0
  149.2733  139.2614  154.3250 C   0  0  0  0  0  0  0  0  0  0  0  0
  148.0080  139.2939  153.6960 C   0  0  0  0  0  0  0  0  0  0  0  0
  147.2621  140.4903  153.6543 C   0  0  0  0  0  0  0  0  0  0  0  0
  147.7687  141.6687  154.2401 C   0  0  0  0  0  0  0  0  0  0  0  0
  149.0266  141.6578  154.8730 C   0  0  0  0  0  0  0  0  0  0  0  0
  149.7670  140.4612  154.9114 C   0  0  0  0  0  0  0  0  0  0  0  0
  151.0065  140.1164  155.4398 N   0  0  0  0  0  0  0  0  0  0  0  0
  151.9122  141.0074  156.1518 C   0  0  0  0  0  0  0  0  0  0  0  0
  151.1680  142.0195  157.0451 C   0  0  2  0  0  0  0  0  0  0  0  0
  151.0711  143.2671  156.3839 O   0  0  0  0  0  0  0  0  0  0  0  0
  151.8285  142.1337  158.4126 C   0  0  0  0  0  0  0  0  0  0  0  0
  152.4639  141.0144  158.9962 C   0  0  0  0  0  0  0  0  0  0  0  0
  153.0662  141.1183  160.2648 C   0  0  0  0  0  0  0  0  0  0  0  0
  153.0338  142.3407  160.9617 C   0  0  0  0  0  0  0  0  0  0  0  0
  153.6125  142.4408  162.1818 F   0  0  0  0  0  0  0  0  0  0  0  0
  152.3961  143.4580  160.3903 C   0  0  0  0  0  0  0  0  0  0  0  0
  151.7928  143.3564  159.1215 C   0  0  0  0  0  0  0  0  0  0  0  0
  151.1756  144.4397  158.5911 F   0  0  0  0  0  0  0  0  0  0  0  0
  152.3726  137.0331  155.1617 H   0  0  0  0  0  0  0  0  0  0  0  0
  152.4630  137.9922  156.6442 H   0  0  0  0  0  0  0  0  0  0  0  0
  153.2908  138.5428  155.1744 H   0  0  0  0  0  0  0  0  0  0  0  0
  147.6112  138.3966  153.2447 H   0  0  0  0  0  0  0  0  0  0  0  0
  146.2966  140.5040  153.1700 H   0  0  0  0  0  0  0  0  0  0  0  0
  147.1916  142.5810  154.2029 H   0  0  0  0  0  0  0  0  0  0  0  0
  149.4187  142.5583  155.3222 H   0  0  0  0  0  0  0  0  0  0  0  0
  152.5722  140.3906  156.7630 H   0  0  0  0  0  0  0  0  0  0  0  0
  152.5559  141.5236  155.4396 H   0  0  0  0  0  0  0  0  0  0  0  0
  150.1430  141.6755  157.1865 H   0  0  0  0  0  0  0  0  0  0  0  0
  150.1635  143.4251  156.1735 H   0  0  0  0  0  0  0  0  0  0  0  0
  152.4894  140.0689  158.4744 H   0  0  0  0  0  0  0  0  0  0  0  0
  153.5515  140.2592  160.7043 H   0  0  0  0  0  0  0  0  0  0  0  0
  152.3673  144.3949  160.9269 H   0  0  0  0  0  0  0  0  0  0  0  0
  1  2  1  0  0  0  0
  1 22  1  0  0  0  0
  1 23  1  0  0  0  0
  1 24  1  0  0  0  0
  2 10  1  0  0  0  0
  2  3  2  0  0  0  0
  3  4  1  0  0  0  0
  4  9  2  0  0  0  0
  4  5  1  0  0  0  0
  5  6  2  0  0  0  0
  5 25  1  0  0  0  0
  6  7  1  0  0  0  0
  6 26  1  0  0  0  0
  7  8  2  0  0  0  0
  7 27  1  0  0  0  0
  8  9  1  0  0  0  0
  8 28  1  0  0  0  0
  9 10  1  0  0  0  0
 10 11  1  0  0  0  0
 11 12  1  0  0  0  0
 11 29  1  0  0  0  0
 11 30  1  0  0  0  0
 12 13  1  0  0  0  0
 12 14  1  0  0  0  0
 12 31  1  0  0  0  0
 13 32  1  0  0  0  0
 14 20  1  0  0  0  0
 14 15  2  0  0  0  0
 15 16  1  0  0  0  0
 15 33  1  0  0  0  0
 16 17  2  0  0  0  0
 16 34  1  0  0  0  0
 17 18  1  0  0  0  0
 17 19  1  0  0  0  0
 19 20  2  0  0  0  0
 19 35  1  0  0  0  0
 20 21  1  0  0  0  0
M  END
> <s_m_source_file>
AV-unprocessed.smi

> <i_m_source_file_index>
1918

> <i_lp_mmshare_version>
43012

> <i_f3d_flags>
0

> <s_epik_input>
W2NIXTFbY0hdW2NIXVtjSF1jKGMxMiluKGMobjIpW0NIM10pW0NIMl1bQ0BIXShbT0hdKWMzW2NIXVtjSF1jKEYpW2NIXWMzRg==

> <s_epik_cmdline>
J2VwaWtfcHl0aG9uJywgJy1waCcsICc3LjAnLCAnLXRuJywgJzgnLCAnLW1hJywgJzIwMCcsICctbWV0YWxfYmluZGluZycsICctaW1hZScsICc8aW5maWxlLm1hZT4nLCAnLW9tYWUnLCAnPG91dGZpbGUubWFlPic=

> <r_epik_Ionization_Penalty>
0.129663

> <r_epik_Ionization_Penalty_Charging>
0

> <r_epik_Ionization_Penalty_Neutral>
0.129663

> <r_epik_State_Penalty>
0.119073

> <r_epik_Charging_Adjusted_Penalty>
0.119073

> <i_epik_Tot_Q>
0

> <i_epik_Tot_abs_Q>
0

> <r_epik_Metal_State_Penalty>
0.000131867

> <b_epik_Metal_Only>
0

> <s_lp_Force_Field>
OPLS_2005

> <r_lp_Energy>
11.5863

> <b_lp_Chiralities_Consistent>
1

> <s_lp_Variant>
AV-unprocessed.smi:1918-1

> <Gold.Version>
5.8.1

> <Gold.Id.Protein>
6NUR|6NUR_protein|mol2

> <Gold.PLP.Fitness>
48.5938

> <Gold.PLP.PLP>
-49.1450

> <Gold.PLP.part.hbond>
-1.0000

> <Gold.PLP.part.metal>
0.0000

> <Gold.PLP.part.buried>
-2.0903

> <Gold.PLP.part.nonpolar>
-45.5667

> <Gold.PLP.part.repulsive>
0.2051

> <Gold.PLP.ligand.clash>
0.0000

> <Gold.PLP.ligand.torsion>
1.6346

> <Gold.PLP.Chemscore.Hbond>
0.8960

> <Gold.PLP.Chemscore.CHOScore>
0.0000

> <Gold.PLP.Chemscore.Metal>
0.0000

> <Gold.Chemscore.Hbonds>
donor molecule, donor type, donor heavy atom, donor atom, acceptor molecule, acceptor atom, score
      L1  H    13    32       P1  8028  0.90

> <Gold.PLP.Chemscore.Internal.Correction>
0.0300

> <Gold.Rescore>
     Score         DG    S(hbond)    S(metal)    S(lipo)     H(rot)  DE(clash)    DE(int)     intcor
     12.91     -17.79       0.90        0.00     120.86       1.88       1.46       3.42       ----

> <Gold.Chemscore.Fitness>
12.9084

> <Gold.Chemscore.DG>
-17.7886

> <Gold.Chemscore.ZeroCoef>
-5.4800

> <Gold.Chemscore.Hbond>
0.8955

> <Gold.Chemscore.Metal>
0.0000

> <Gold.Chemscore.Lipo>
120.8586

> <Gold.Chemscore.Internal_Hbond>
0.0000

> <Gold.Chemscore.DEClash>
1.4614

> <Gold.Chemscore.DEInternal>
3.4188

> <Gold.Chemscore.Rot>
1.8839

> <Gold.Chemscore.Internal.Correction>
   9.000000E+99

> <Gold.Chemscore.Hbonds>
donor molecule, donor type, donor heavy atom, donor atom, acceptor molecule, acceptor atom, score
      L1  H    13    32       P1  8028  0.88

> <Gold.Chemscore.Hbond.Weighted>
-2.9909

> <Gold.Chemscore.Metal.Weighted>
-0.0000

> <Gold.Chemscore.Lipo.Weighted>
-14.1405

> <Gold.Chemscore.Internal_Hbond.Weighted>
0.0000

> <Gold.Chemscore.DEClash.Weighted>
1.4614

> <Gold.Chemscore.DEInternal.Weighted>
3.4188

> <Gold.Chemscore.Rot.Weighted>
4.8227

> <Gold.Chemscore.Internal.Correction.Weighted>
   9.000000E+99

> <Gold.Protein.RotatedTorsions>
[ 6907 6896 6895 6894 ] final   95.17 input  -60.11 | X-H torsion
[ 7974 7965 7964 7962 ] final  104.58 input  175.53 | X-H torsion
[ 8008 7997 7996 7995 ] final  -53.77 input   59.86 | X-H torsion
[ 10167 10162 10161 10158 ] final  -95.70 input  -65.29 | X-H torsion
[ 10718 10713 10712 10709 ] final -107.13 input   66.30 | X-H torsion
[ 10763 10752 10751 10750 ] final   92.02 input  -60.55 | X-H torsion
[ 11005 11000 10999 10996 ] final  -70.82 input  -57.11 | X-H torsion

> <Gold.Protein.ActiveResidues>
 VAL166  LYS551  ARG553  GLY616  TRP617  ASP618  TYR619  PRO620  LYS621  CYS622 
 ASP623  PHE694  ASN695  SER759  ASP760  ASP761  ALA762  ILE779  LEU786  VAL792 
 PHE793  MET794  SER795  GLU796  ALA797  LYS798  CYS799  TRP800  GLU811  SER814 

> <Gold.Protein.RotatedAtoms>
  152.5445  134.1081  159.8346 H   0  0  0  0  0  0  0  0  0  0  0  0  # atno 6907 bound_to 6896
  151.1151  133.5137  159.2611 H   0  0  0  0  0  0  0  0  0  0  0  0  # atno 6908 bound_to 6896
  151.1841  135.0383  159.8859 H   0  0  0  0  0  0  0  0  0  0  0  0  # atno 6909 bound_to 6896
  145.3309  139.2487  143.3661 H   0  0  0  0  0  0  0  0  0  0  0  0  # atno 7974 bound_to 7965
  154.4143  140.1192  156.5207 H   0  0  0  0  0  0  0  0  0  0  0  0  # atno 8008 bound_to 7997
  155.6705  140.3496  155.4797 H   0  0  0  0  0  0  0  0  0  0  0  0  # atno 8009 bound_to 7997
  155.9637  140.1128  157.0863 H   0  0  0  0  0  0  0  0  0  0  0  0  # atno 8010 bound_to 7997
  140.3014  143.3160  152.0244 H   0  0  0  0  0  0  0  0  0  0  0  0  # atno 10167 bound_to 10162
  156.0422  130.5647  150.7778 H   0  0  0  0  0  0  0  0  0  0  0  0  # atno 10718 bound_to 10713
  153.2146  135.4376  155.0420 H   0  0  0  0  0  0  0  0  0  0  0  0  # atno 10763 bound_to 10752
  154.8218  135.3341  154.7017 H   0  0  0  0  0  0  0  0  0  0  0  0  # atno 10764 bound_to 10752
  153.7453  135.7002  153.5013 H   0  0  0  0  0  0  0  0  0  0  0  0  # atno 10765 bound_to 10752
  141.1581  133.6800  156.6812 H   0  0  0  0  0  0  0  0  0  0  0  0  # atno 11005 bound_to 11000
  146.3046  140.3887  142.8692 LP  0  0  0  0  0  0  0  0  0  0  0  0  # atno 17320 bound_to 7965
  144.8865  140.7468  143.5954 LP  0  0  0  0  0  0  0  0  0  0  0  0  # atno 17321 bound_to 7965
  139.4914  144.6453  151.6792 LP  0  0  0  0  0  0  0  0  0  0  0  0  # atno 17342 bound_to 10162
  140.5647  144.0209  150.6187 LP  0  0  0  0  0  0  0  0  0  0  0  0  # atno 17343 bound_to 10162
  157.5254  131.0934  151.0025 LP  0  0  0  0  0  0  0  0  0  0  0  0  # atno 17370 bound_to 10713
  157.0345  130.5724  149.5347 LP  0  0  0  0  0  0  0  0  0  0  0  0  # atno 17371 bound_to 10713
  140.3101  134.8093  157.4169 LP  0  0  0  0  0  0  0  0  0  0  0  0  # atno 17394 bound_to 11000
  140.1186  134.5250  155.8203 LP  0  0  0  0  0  0  0  0  0  0  0  0  # atno 17395 bound_to 11000

$$$$
