AV-unprocessed.smi:2695|AV-procd|sdf|10408|dock8
  -GOLD-   2272014443D 1   1.00000     0.00000
 Structure written by MMmdl.
 41 42  0  0  0  0  0  0  0  0  2 V2000
  151.2680  144.3252  160.1478 C   0  0  0  0  0  0  0  0  0  0  0  0
  152.2558  143.1801  160.3374 C   0  0  0  0  0  0  0  0  0  0  0  0
  152.9180  143.0341  161.5062 C   0  0  0  0  0  0  0  0  0  0  0  0
  153.8030  141.9853  161.7190 C   0  0  0  0  0  0  0  0  0  0  0  0
  154.4212  141.8478  162.7976 O   0  5  0  0  0  0  0  0  0  0  0  0
  153.9554  141.0966  160.6631 C   0  0  0  0  0  0  0  0  0  0  0  0
  153.2645  141.1969  159.3834 C   0  0  0  0  0  0  0  0  0  0  0  0
  153.4291  140.3707  158.4838 O   0  0  0  0  0  0  0  0  0  0  0  0
  152.4354  142.2716  159.2602 N   0  0  0  0  0  0  0  0  0  0  0  0
  151.7377  142.4788  157.9707 C   0  0  0  0  0  0  0  0  0  0  0  0
  150.9538  141.2449  157.5001 C   0  0  0  0  0  0  0  0  0  0  0  0
  150.0079  140.8089  158.1573 O   0  0  0  0  0  0  0  0  0  0  0  0
  151.3542  140.7058  156.3389 N   0  0  0  0  0  0  0  0  0  0  0  0
  150.7561  139.5440  155.6798 C   0  0  1  0  0  0  0  0  0  0  0  0
  149.8765  140.0386  154.5031 C   0  0  0  0  0  0  0  0  0  0  0  0
  149.0784  141.3128  154.8127 C   0  0  0  0  0  0  0  0  0  0  0  0
  147.9675  141.3628  153.7599 C   0  0  0  0  0  0  0  0  0  0  0  0
  147.7680  139.9188  153.2797 C   0  0  0  0  0  0  0  0  0  0  0  0
  148.7834  139.0646  154.0469 C   0  0  0  0  0  0  0  0  0  0  0  0
  151.8706  138.5557  155.2577 C   0  0  0  0  0  0  0  0  0  0  0  0
  152.8136  139.1888  154.5594 F   0  0  0  0  0  0  0  0  0  0  0  0
  152.4577  138.0175  156.3257 F   0  0  0  0  0  0  0  0  0  0  0  0
  151.3671  137.5774  154.5041 F   0  0  0  0  0  0  0  0  0  0  0  0
  151.0404  144.8004  161.1024 H   0  0  0  0  0  0  0  0  0  0  0  0
  150.3199  143.9809  159.7352 H   0  0  0  0  0  0  0  0  0  0  0  0
  151.6874  145.0890  159.4927 H   0  0  0  0  0  0  0  0  0  0  0  0
  152.7505  143.7517  162.2970 H   0  0  0  0  0  0  0  0  0  0  0  0
  154.6332  140.2638  160.7866 H   0  0  0  0  0  0  0  0  0  0  0  0
  151.0636  143.3331  157.9927 H   0  0  0  0  0  0  0  0  0  0  0  0
  152.4597  142.7530  157.1988 H   0  0  0  0  0  0  0  0  0  0  0  0
  152.1432  141.1302  155.8734 H   0  0  0  0  0  0  0  0  0  0  0  0
  150.1018  139.0329  156.3888 H   0  0  0  0  0  0  0  0  0  0  0  0
  150.5183  140.2492  153.6458 H   0  0  0  0  0  0  0  0  0  0  0  0
  148.6323  141.2372  155.8057 H   0  0  0  0  0  0  0  0  0  0  0  0
  149.6965  142.2112  154.7987 H   0  0  0  0  0  0  0  0  0  0  0  0
  147.0506  141.7889  154.1683 H   0  0  0  0  0  0  0  0  0  0  0  0
  148.2735  141.9905  152.9219 H   0  0  0  0  0  0  0  0  0  0  0  0
  146.7488  139.5701  153.4488 H   0  0  0  0  0  0  0  0  0  0  0  0
  147.9591  139.8580  152.2074 H   0  0  0  0  0  0  0  0  0  0  0  0
  149.1734  138.2539  153.4311 H   0  0  0  0  0  0  0  0  0  0  0  0
  148.2980  138.6171  154.9154 H   0  0  0  0  0  0  0  0  0  0  0  0
  1  2  1  0  0  0  0
  1 24  1  0  0  0  0
  1 25  1  0  0  0  0
  1 26  1  0  0  0  0
  2  9  1  0  0  0  0
  2  3  2  0  0  0  0
  3  4  1  0  0  0  0
  3 27  1  0  0  0  0
  4  5  1  0  0  0  0
  4  6  2  0  0  0  0
  6  7  1  0  0  0  0
  6 28  1  0  0  0  0
  7  8  2  0  0  0  0
  7  9  1  0  0  0  0
  9 10  1  0  0  0  0
 10 11  1  0  0  0  0
 10 29  1  0  0  0  0
 10 30  1  0  0  0  0
 11 12  2  0  0  0  0
 11 13  1  0  0  0  0
 13 14  1  0  0  0  0
 13 31  1  0  0  0  0
 14 15  1  0  0  0  0
 14 20  1  0  0  0  0
 14 32  1  0  0  0  0
 15 19  1  0  0  0  0
 15 16  1  0  0  0  0
 15 33  1  0  0  0  0
 16 17  1  0  0  0  0
 16 34  1  0  0  0  0
 16 35  1  0  0  0  0
 17 18  1  0  0  0  0
 17 36  1  0  0  0  0
 17 37  1  0  0  0  0
 18 19  1  0  0  0  0
 18 38  1  0  0  0  0
 18 39  1  0  0  0  0
 19 40  1  0  0  0  0
 19 41  1  0  0  0  0
 20 21  1  0  0  0  0
 20 22  1  0  0  0  0
 20 23  1  0  0  0  0
M  CHG  1   5  -1
M  END
> <s_m_source_file>
AV-unprocessed.smi

> <i_m_source_file_index>
2695

> <i_lp_mmshare_version>
43012

> <i_f3d_flags>
0

> <s_epik_input>
W0NIM11jMVtjSF1jKFtPSF0pW2NIXWMoPU8pbjFbQ0gyXUMoPU8pW05IXVtDQEBIXShDKEYpKEYpRilbQ0hdMltDSDJdW0NIMl1bQ0gyXVtDSDJdMg==

> <s_epik_cmdline>
J2VwaWtfcHl0aG9uJywgJy1waCcsICc3LjAnLCAnLXRuJywgJzgnLCAnLW1hJywgJzIwMCcsICctbWV0YWxfYmluZGluZycsICctaW1hZScsICc8aW5maWxlLm1hZT4nLCAnLW9tYWUnLCAnPG91dGZpbGUubWFlPic=

> <r_lp_tautomer_probability>
1

> <r_epik_Ionization_Penalty>
0.176977

> <r_epik_Ionization_Penalty_Charging>
0.176977

> <r_epik_Ionization_Penalty_Neutral>
1.44272e-07

> <r_epik_State_Penalty>
0.160849

> <r_epik_Charging_Adjusted_Penalty>
0.337826

> <i_epik_Tot_Q>
-1

> <i_epik_Tot_abs_Q>
1

> <r_epik_Metal_State_Penalty>
0.16085

> <b_epik_Metal_Only>
0

> <s_lp_Force_Field>
OPLS_2005

> <r_lp_Energy>
41.7446

> <b_lp_Chiralities_Consistent>
1

> <s_lp_Variant>
AV-unprocessed.smi:2695-2

> <Gold.Version>
5.8.1

> <Gold.Id.Protein>
6NUR|6NUR_protein|mol2

> <Gold.PLP.Fitness>
52.7667

> <Gold.PLP.PLP>
-51.3723

> <Gold.PLP.part.hbond>
-2.0000

> <Gold.PLP.part.metal>
0.0000

> <Gold.PLP.part.buried>
-2.1441

> <Gold.PLP.part.nonpolar>
-45.8992

> <Gold.PLP.part.repulsive>
0.1439

> <Gold.PLP.ligand.clash>
0.0000

> <Gold.PLP.ligand.torsion>
0.7364

> <Gold.PLP.Chemscore.Hbond>
0.8564

> <Gold.PLP.Chemscore.CHOScore>
0.0000

> <Gold.PLP.Chemscore.Metal>
0.0000

> <Gold.Chemscore.Hbonds>
donor molecule, donor type, donor heavy atom, donor atom, acceptor molecule, acceptor atom, score
      P1  H  7997  8010       L1     8  0.83

> <Gold.PLP.Chemscore.Internal.Correction>
0.2979

> <Gold.Rescore>
     Score         DG    S(hbond)    S(metal)    S(lipo)     H(rot)  DE(clash)    DE(int)     intcor
     14.52     -16.95       0.96        0.00     109.13       1.75       0.34       2.10       ----

> <Gold.Chemscore.Fitness>
14.5188

> <Gold.Chemscore.DG>
-16.9544

> <Gold.Chemscore.ZeroCoef>
-5.4800

> <Gold.Chemscore.Hbond>
0.9568

> <Gold.Chemscore.Metal>
0.0000

> <Gold.Chemscore.Lipo>
109.1321

> <Gold.Chemscore.Internal_Hbond>
0.0000

> <Gold.Chemscore.DEClash>
0.3396

> <Gold.Chemscore.DEInternal>
2.0960

> <Gold.Chemscore.Rot>
1.7539

> <Gold.Chemscore.Internal.Correction>
   9.000000E+99

> <Gold.Chemscore.Hbonds>
donor molecule, donor type, donor heavy atom, donor atom, acceptor molecule, acceptor atom, score
      P1  H  7997  8010       L1     8  0.83

> <Gold.Chemscore.Hbond.Weighted>
-3.1958

> <Gold.Chemscore.Metal.Weighted>
-0.0000

> <Gold.Chemscore.Lipo.Weighted>
-12.7685

> <Gold.Chemscore.Internal_Hbond.Weighted>
0.0000

> <Gold.Chemscore.DEClash.Weighted>
0.3396

> <Gold.Chemscore.DEInternal.Weighted>
2.0960

> <Gold.Chemscore.Rot.Weighted>
4.4899

> <Gold.Chemscore.Internal.Correction.Weighted>
   9.000000E+99

> <Gold.Protein.RotatedTorsions>
[ 6907 6896 6895 6894 ] final  101.37 input  -60.11 | X-H torsion
[ 7974 7965 7964 7962 ] final   29.59 input  175.53 | X-H torsion
[ 8008 7997 7996 7995 ] final   32.40 input   59.86 | X-H torsion
[ 10167 10162 10161 10158 ] final  169.57 input  -65.29 | X-H torsion
[ 10718 10713 10712 10709 ] final  137.53 input   66.30 | X-H torsion
[ 10763 10752 10751 10750 ] final   44.14 input  -60.55 | X-H torsion
[ 11005 11000 10999 10996 ] final  179.46 input  -57.11 | X-H torsion

> <Gold.Protein.ActiveResidues>
 VAL166  LYS551  ARG553  GLY616  TRP617  ASP618  TYR619  PRO620  LYS621  CYS622 
 ASP623  PHE694  ASN695  SER759  ASP760  ASP761  ALA762  ILE779  LEU786  VAL792 
 PHE793  MET794  SER795  GLU796  ALA797  LYS798  CYS799  TRP800  GLU811  SER814 

> <Gold.Protein.RotatedAtoms>
  152.5351  134.0135  159.7949 H   0  0  0  0  0  0  0  0  0  0  0  0  # atno 6907 bound_to 6896
  151.0334  133.5762  159.2665 H   0  0  0  0  0  0  0  0  0  0  0  0  # atno 6908 bound_to 6896
  151.2759  135.0706  159.9205 H   0  0  0  0  0  0  0  0  0  0  0  0  # atno 6909 bound_to 6896
  146.1662  139.6901  142.8999 H   0  0  0  0  0  0  0  0  0  0  0  0  # atno 7974 bound_to 7965
  155.1219  140.3249  155.4495 H   0  0  0  0  0  0  0  0  0  0  0  0  # atno 8008 bound_to 7997
  156.2660  140.2025  156.6289 H   0  0  0  0  0  0  0  0  0  0  0  0  # atno 8009 bound_to 7997
  154.6677  140.0540  157.0119 H   0  0  0  0  0  0  0  0  0  0  0  0  # atno 8010 bound_to 7997
  139.4995  144.3692  151.9743 H   0  0  0  0  0  0  0  0  0  0  0  0  # atno 10167 bound_to 10162
  157.4350  131.1052  151.0207 H   0  0  0  0  0  0  0  0  0  0  0  0  # atno 10718 bound_to 10713
  152.9847  135.6080  154.3225 H   0  0  0  0  0  0  0  0  0  0  0  0  # atno 10763 bound_to 10752
  154.2934  135.2774  155.2646 H   0  0  0  0  0  0  0  0  0  0  0  0  # atno 10764 bound_to 10752
  154.4931  135.5887  153.6531 H   0  0  0  0  0  0  0  0  0  0  0  0  # atno 10765 bound_to 10752
  140.4065  134.6731  157.4590 H   0  0  0  0  0  0  0  0  0  0  0  0  # atno 11005 bound_to 11000
  145.4460  141.0425  143.2831 LP  0  0  0  0  0  0  0  0  0  0  0  0  # atno 17320 bound_to 7965
  144.8096  139.5986  143.7035 LP  0  0  0  0  0  0  0  0  0  0  0  0  # atno 17321 bound_to 7965
  140.3128  144.3518  150.6029 LP  0  0  0  0  0  0  0  0  0  0  0  0  # atno 17342 bound_to 10162
  140.5785  143.2174  151.7471 LP  0  0  0  0  0  0  0  0  0  0  0  0  # atno 17343 bound_to 10162
  157.1090  130.6014  149.5477 LP  0  0  0  0  0  0  0  0  0  0  0  0  # atno 17370 bound_to 10713
  155.9927  130.4986  150.7351 LP  0  0  0  0  0  0  0  0  0  0  0  0  # atno 17371 bound_to 10713
  140.0298  134.6422  155.9122 LP  0  0  0  0  0  0  0  0  0  0  0  0  # atno 17394 bound_to 11000
  141.1837  133.6551  156.5128 LP  0  0  0  0  0  0  0  0  0  0  0  0  # atno 17395 bound_to 11000

$$$$
