AV-unprocessed.smi:157|AV-procd|sdf|1311|dock6
  -GOLD-   2262019 03D 1   1.00000     0.00000
 Structure written by MMmdl.
 36 38  0  0  0  0  0  0  0  0  2 V2000
  151.5186  138.2737  154.3344 O   0  0  0  0  0  0  0  0  0  0  0  0
  152.2290  139.2204  155.1032 C   0  0  0  0  0  0  0  0  0  0  0  0
  152.2154  138.8230  156.5882 C   0  0  1  0  0  0  0  0  0  0  0  0
  152.9743  139.7570  157.3630 O   0  0  0  0  0  0  0  0  0  0  0  0
  152.2810  140.1196  158.5229 C   0  0  1  0  0  0  0  0  0  0  0  0
  151.7110  141.4963  158.3315 N   0  0  0  0  0  0  0  0  0  0  0  0
  151.0071  141.9497  157.2708 C   0  0  0  0  0  0  0  0  0  0  0  0
  150.6417  143.2173  157.3569 N   0  3  0  0  0  0  0  0  0  0  0  0
  151.1416  143.6873  158.5520 C   0  0  0  0  0  0  0  0  0  0  0  0
  151.8028  142.6066  159.1411 C   0  0  0  0  0  0  0  0  0  0  0  0
  152.5023  142.5377  160.3557 N   0  0  0  0  0  0  0  0  0  0  0  0
  152.3842  143.4268  161.2875 C   0  0  0  0  0  0  0  0  0  0  0  0
  151.6746  144.6160  161.2752 N   0  0  0  0  0  0  0  0  0  0  0  0
  151.7298  145.5588  160.1722 C   0  0  0  0  0  0  0  0  0  0  0  0
  150.9259  145.1162  158.9425 C   0  0  2  0  0  0  0  0  0  0  0  0
  149.5633  145.4187  159.1613 O   0  0  0  0  0  0  0  0  0  0  0  0
  151.1524  139.1008  158.6781 C   0  0  0  0  0  0  0  0  0  0  0  0
  150.8237  138.7923  157.2326 C   0  0  2  0  0  0  0  0  0  0  0  0
  150.2029  137.5287  157.1232 O   0  0  0  0  0  0  0  0  0  0  0  0
  152.7056  137.8561  156.7188 H   0  0  0  0  0  0  0  0  0  0  0  0
  152.9355  140.2092  159.3906 H   0  0  0  0  0  0  0  0  0  0  0  0
  151.2391  145.7382  158.1033 H   0  0  0  0  0  0  0  0  0  0  0  0
  150.1787  139.5675  156.8164 H   0  0  0  0  0  0  0  0  0  0  0  0
  152.1312  137.6371  153.9986 H   0  0  0  0  0  0  0  0  0  0  0  0
  153.2547  139.2574  154.7355 H   0  0  0  0  0  0  0  0  0  0  0  0
  151.7942  140.2081  154.9516 H   0  0  0  0  0  0  0  0  0  0  0  0
  150.7683  141.3357  156.4221 H   0  0  0  0  0  0  0  0  0  0  0  0
  152.9025  143.2701  162.2345 H   0  0  0  0  0  0  0  0  0  0  0  0
  151.5036  145.0858  162.1531 H   0  0  0  0  0  0  0  0  0  0  0  0
  151.4066  146.5430  160.5134 H   0  0  0  0  0  0  0  0  0  0  0  0
  152.7780  145.6668  159.8886 H   0  0  0  0  0  0  0  0  0  0  0  0
  149.1216  145.4537  158.3269 H   0  0  0  0  0  0  0  0  0  0  0  0
  151.5527  138.2227  159.1873 H   0  0  0  0  0  0  0  0  0  0  0  0
  150.3103  139.4872  159.2525 H   0  0  0  0  0  0  0  0  0  0  0  0
  149.7637  137.4809  156.2872 H   0  0  0  0  0  0  0  0  0  0  0  0
  150.1141  143.7391  156.6687 H   0  0  0  0  0  0  0  0  0  0  0  0
  1  2  1  0  0  0  0
  1 24  1  0  0  0  0
  2  3  1  0  0  0  0
  2 25  1  0  0  0  0
  2 26  1  0  0  0  0
  3 20  1  0  0  0  0
  3 18  1  0  0  0  0
  3  4  1  0  0  0  0
  4  5  1  0  0  0  0
  5 21  1  0  0  0  0
  5  6  1  0  0  0  0
  5 17  1  0  0  0  0
  6 10  1  0  0  0  0
  6  7  1  0  0  0  0
  7  8  2  0  0  0  0
  7 27  1  0  0  0  0
  8  9  1  0  0  0  0
  8 36  1  0  0  0  0
  9 15  1  0  0  0  0
  9 10  2  0  0  0  0
 10 11  1  0  0  0  0
 11 12  2  0  0  0  0
 12 13  1  0  0  0  0
 12 28  1  0  0  0  0
 13 14  1  0  0  0  0
 13 29  1  0  0  0  0
 14 15  1  0  0  0  0
 14 30  1  0  0  0  0
 14 31  1  0  0  0  0
 15 22  1  0  0  0  0
 15 16  1  0  0  0  0
 16 32  1  0  0  0  0
 17 18  1  0  0  0  0
 17 33  1  0  0  0  0
 17 34  1  0  0  0  0
 18 23  1  0  0  0  0
 18 19  1  0  0  0  0
 19 35  1  0  0  0  0
M  CHG  1   8   1
M  END
> <s_m_source_file>
AV-unprocessed.smi

> <i_m_source_file_index>
157

> <i_lp_mmshare_version>
43012

> <i_f3d_flags>
0

> <s_epik_input>
W09IXVtDSDJdW0NASF0xT1tDQEhdKFtDSDJdW0NAQEhdMVtPSF0pbihbY0hdbjIpYyhjMjMpTj1bQ0hdW05IXVtDSDJdW0NASF0zW09IXQ==

> <s_epik_cmdline>
J2VwaWtfcHl0aG9uJywgJy1waCcsICc3LjAnLCAnLXRuJywgJzgnLCAnLW1hJywgJzIwMCcsICctbWV0YWxfYmluZGluZycsICctaW1hZScsICc8aW5maWxlLm1hZT4nLCAnLW9tYWUnLCAnPG91dGZpbGUubWFlPic=

> <r_epik_Ionization_Penalty>
1.68594

> <r_epik_Ionization_Penalty_Charging>
0

> <r_epik_Ionization_Penalty_Neutral>
1.68594

> <r_epik_State_Penalty>
1.79006

> <r_epik_Charging_Adjusted_Penalty>
1.79006

> <i_epik_Tot_Q>
1

> <i_epik_Tot_abs_Q>
1

> <r_epik_Metal_State_Penalty>
5.85324

> <b_epik_Metal_Only>
0

> <s_epik_Chemistry_Notes>
This compound has an imine and may undergo hydrolysis. This compound contains an acetal/aminal-like group ( X-CH(R)-Y where X, Y are N, S, or O) that may be acid/base labile, releasing an aldehyde.

> <s_lp_Force_Field>
OPLS_2005

> <r_lp_Energy>
51.6948

> <b_lp_Chiralities_Consistent>
1

> <s_lp_Variant>
AV-unprocessed.smi:157-21

> <Gold.Version>
5.8.1

> <Gold.Id.Protein>
6NUR|6NUR_protein|mol2

> <Gold.PLP.Fitness>
48.5278

> <Gold.PLP.PLP>
-36.7820

> <Gold.PLP.part.hbond>
-4.8162

> <Gold.PLP.part.metal>
0.0000

> <Gold.PLP.part.buried>
-6.5327

> <Gold.PLP.part.nonpolar>
-25.9333

> <Gold.PLP.part.repulsive>
0.0870

> <Gold.PLP.ligand.clash>
0.0000

> <Gold.PLP.ligand.torsion>
0.1393

> <Gold.PLP.Chemscore.Hbond>
4.0000

> <Gold.PLP.Chemscore.CHOScore>
0.0000

> <Gold.PLP.Chemscore.Metal>
0.0000

> <Gold.Chemscore.Hbonds>
donor molecule, donor type, donor heavy atom, donor atom, acceptor molecule, acceptor atom, score
      L1  H     8    36       P1  8028  2.00
      L1  H    16    32       P1  8029  1.00
      P1  H  7997  8009       L1     4  1.00

> <Gold.PLP.Chemscore.Internal.Correction>
0.0245

> <Gold.Rescore>
     Score         DG    S(hbond)    S(metal)    S(lipo)     H(rot)  DE(clash)    DE(int)     intcor
     12.15     -12.31       2.96        0.00      53.95       3.67       0.03       0.13       ----

> <Gold.Chemscore.Fitness>
12.1488

> <Gold.Chemscore.DG>
-12.3075

> <Gold.Chemscore.ZeroCoef>
-5.4800

> <Gold.Chemscore.Hbond>
2.9643

> <Gold.Chemscore.Metal>
0.0000

> <Gold.Chemscore.Lipo>
53.9461

> <Gold.Chemscore.Internal_Hbond>
0.0000

> <Gold.Chemscore.DEClash>
0.0270

> <Gold.Chemscore.DEInternal>
0.1317

> <Gold.Chemscore.Rot>
3.6659

> <Gold.Chemscore.Internal.Correction>
   9.000000E+99

> <Gold.Chemscore.Hbonds>
donor molecule, donor type, donor heavy atom, donor atom, acceptor molecule, acceptor atom, score
      L1  H     8    36       P1  8028  1.00
      L1  H    16    32       P1  8029  0.88
      P1  H  7997  8009       L1     4  0.77

> <Gold.Chemscore.Hbond.Weighted>
-9.9006

> <Gold.Chemscore.Metal.Weighted>
-0.0000

> <Gold.Chemscore.Lipo.Weighted>
-6.3117

> <Gold.Chemscore.Internal_Hbond.Weighted>
0.0000

> <Gold.Chemscore.DEClash.Weighted>
0.0270

> <Gold.Chemscore.DEInternal.Weighted>
0.1317

> <Gold.Chemscore.Rot.Weighted>
9.3848

> <Gold.Chemscore.Internal.Correction.Weighted>
   9.000000E+99

> <Gold.Protein.RotatedTorsions>
[ 6907 6896 6895 6894 ] final  -18.34 input  -60.11 | X-H torsion
[ 7974 7965 7964 7962 ] final -152.93 input  175.53 | X-H torsion
[ 8008 7997 7996 7995 ] final -179.60 input   59.86 | X-H torsion
[ 10167 10162 10161 10158 ] final -114.97 input  -65.29 | X-H torsion
[ 10718 10713 10712 10709 ] final -169.26 input   66.30 | X-H torsion
[ 10763 10752 10751 10750 ] final  141.45 input  -60.55 | X-H torsion
[ 11005 11000 10999 10996 ] final -163.50 input  -57.11 | X-H torsion

> <Gold.Protein.ActiveResidues>
 VAL166  LYS551  ARG553  GLY616  TRP617  ASP618  TYR619  PRO620  LYS621  CYS622 
 ASP623  PHE694  ASN695  SER759  ASP760  ASP761  ALA762  ILE779  LEU786  VAL792 
 PHE793  MET794  SER795  GLU796  ALA797  LYS798  CYS799  TRP800  GLU811  SER814 

> <Gold.Protein.RotatedAtoms>
  151.2796  135.0710  159.9164 H   0  0  0  0  0  0  0  0  0  0  0  0  # atno 6907 bound_to 6896
  152.5336  134.0045  159.7920 H   0  0  0  0  0  0  0  0  0  0  0  0  # atno 6908 bound_to 6896
  151.0296  133.5751  159.2693 H   0  0  0  0  0  0  0  0  0  0  0  0  # atno 6909 bound_to 6896
  144.7768  140.4595  143.5868 H   0  0  0  0  0  0  0  0  0  0  0  0  # atno 7974 bound_to 7965
  156.0323  140.1285  157.0244 H   0  0  0  0  0  0  0  0  0  0  0  0  # atno 8008 bound_to 7997
  154.4355  140.1047  156.6188 H   0  0  0  0  0  0  0  0  0  0  0  0  # atno 8009 bound_to 7997
  155.5788  140.3467  155.4537 H   0  0  0  0  0  0  0  0  0  0  0  0  # atno 8010 bound_to 7997
  140.0952  143.4663  152.1846 H   0  0  0  0  0  0  0  0  0  0  0  0  # atno 10167 bound_to 10162
  156.7090  130.9226  151.3087 H   0  0  0  0  0  0  0  0  0  0  0  0  # atno 10718 bound_to 10713
  153.9394  135.2981  155.3443 H   0  0  0  0  0  0  0  0  0  0  0  0  # atno 10763 bound_to 10752
  154.7485  135.4991  153.9250 H   0  0  0  0  0  0  0  0  0  0  0  0  # atno 10764 bound_to 10752
  153.1050  135.6744  153.9709 H   0  0  0  0  0  0  0  0  0  0  0  0  # atno 10765 bound_to 10752
  140.5974  134.4982  157.5201 H   0  0  0  0  0  0  0  0  0  0  0  0  # atno 11005 bound_to 11000
  145.6164  139.1519  143.3047 LP  0  0  0  0  0  0  0  0  0  0  0  0  # atno 17320 bound_to 7965
  146.1952  140.6277  142.9127 LP  0  0  0  0  0  0  0  0  0  0  0  0  # atno 17321 bound_to 7965
  139.5702  144.7458  151.3912 LP  0  0  0  0  0  0  0  0  0  0  0  0  # atno 17342 bound_to 10162
  140.7007  143.7638  150.7399 LP  0  0  0  0  0  0  0  0  0  0  0  0  # atno 17343 bound_to 10162
  157.6943  130.9266  150.0602 LP  0  0  0  0  0  0  0  0  0  0  0  0  # atno 17370 bound_to 10713
  156.1675  130.3645  149.9212 LP  0  0  0  0  0  0  0  0  0  0  0  0  # atno 17371 bound_to 10713
  139.9247  134.8079  156.1104 LP  0  0  0  0  0  0  0  0  0  0  0  0  # atno 17394 bound_to 11000
  141.0895  133.6720  156.2509 LP  0  0  0  0  0  0  0  0  0  0  0  0  # atno 17395 bound_to 11000

$$$$
