AV-unprocessed.smi:3011|AV-procd|sdf|11460|dock5
  -GOLD-   2272016393D 1   1.00000     0.00000
 Structure written by MMmdl.
 47 49  0  0  0  0  0  0  0  0  2 V2000
  147.6387  137.5486  164.0422 C   0  0  0  0  0  0  0  0  0  0  0  0
  147.2920  137.4750  162.6673 O   0  0  0  0  0  0  0  0  0  0  0  0
  147.1931  136.2294  162.0826 C   0  0  0  0  0  0  0  0  0  0  0  0
  147.0129  135.0297  162.8170 C   0  0  0  0  0  0  0  0  0  0  0  0
  146.9114  133.7941  162.1528 C   0  0  0  0  0  0  0  0  0  0  0  0
  146.9859  133.7423  160.7507 C   0  0  0  0  0  0  0  0  0  0  0  0
  147.1657  134.9258  160.0121 C   0  0  0  0  0  0  0  0  0  0  0  0
  147.2738  136.1764  160.6717 C   0  0  0  0  0  0  0  0  0  0  0  0
  147.4597  137.3739  160.0133 O   0  0  0  0  0  0  0  0  0  0  0  0
  147.4133  137.3841  158.5930 C   0  0  0  0  0  0  0  0  0  0  0  0
  148.8435  137.2731  158.0485 C   0  0  0  0  0  0  0  0  0  0  0  0
  148.9180  137.6047  156.6173 N   0  0  0  0  0  0  0  0  0  0  0  0
  148.8684  136.8043  155.5109 C   0  0  0  0  0  0  0  0  0  0  0  0
  148.7373  135.3091  155.4745 C   0  0  1  0  0  0  0  0  0  0  0  0
  147.4381  134.8535  156.1555 C   0  0  0  0  0  0  0  0  0  0  0  0
  148.7731  134.8012  154.1088 N   0  0  0  0  0  0  0  0  0  0  0  0
  148.8435  133.5037  153.7870 C   0  0  0  0  0  0  0  0  0  0  0  0
  148.8833  132.6063  154.6245 O   0  0  0  0  0  0  0  0  0  0  0  0
  148.9956  137.6185  154.4236 N   0  3  0  0  0  0  0  0  0  0  0  0
  149.0987  138.9474  154.8330 C   0  0  0  0  0  0  0  0  0  0  0  0
  149.2305  140.1202  154.0960 C   0  0  0  0  0  0  0  0  0  0  0  0
  149.3037  141.3229  154.8288 C   0  0  0  0  0  0  0  0  0  0  0  0
  149.2463  141.3286  156.2375 C   0  0  0  0  0  0  0  0  0  0  0  0
  149.1154  140.1323  156.9736 C   0  0  0  0  0  0  0  0  0  0  0  0
  149.0447  138.9473  156.2412 C   0  0  0  0  0  0  0  0  0  0  0  0
  147.6671  138.5939  164.3492 H   0  0  0  0  0  0  0  0  0  0  0  0
  148.6262  137.1242  164.2272 H   0  0  0  0  0  0  0  0  0  0  0  0
  146.9026  137.0417  164.6675 H   0  0  0  0  0  0  0  0  0  0  0  0
  146.9483  135.0298  163.8943 H   0  0  0  0  0  0  0  0  0  0  0  0
  146.7744  132.8853  162.7202 H   0  0  0  0  0  0  0  0  0  0  0  0
  146.9066  132.7936  160.2409 H   0  0  0  0  0  0  0  0  0  0  0  0
  147.2198  134.8457  158.9373 H   0  0  0  0  0  0  0  0  0  0  0  0
  146.8153  136.5504  158.2224 H   0  0  0  0  0  0  0  0  0  0  0  0
  146.9588  138.3109  158.2404 H   0  0  0  0  0  0  0  0  0  0  0  0
  149.5223  137.9240  158.5997 H   0  0  0  0  0  0  0  0  0  0  0  0
  149.2206  136.2599  158.1839 H   0  0  0  0  0  0  0  0  0  0  0  0
  149.5675  134.8694  156.0289 H   0  0  0  0  0  0  0  0  0  0  0  0
  147.3861  135.2171  157.1820 H   0  0  0  0  0  0  0  0  0  0  0  0
  147.3742  133.7654  156.1883 H   0  0  0  0  0  0  0  0  0  0  0  0
  146.5559  135.2206  155.6299 H   0  0  0  0  0  0  0  0  0  0  0  0
  148.7419  135.4783  153.3602 H   0  0  0  0  0  0  0  0  0  0  0  0
  148.8589  133.3490  152.6970 H   0  0  0  0  0  0  0  0  0  0  0  0
  149.2729  140.1182  153.0167 H   0  0  0  0  0  0  0  0  0  0  0  0
  149.4044  142.2595  154.2996 H   0  0  0  0  0  0  0  0  0  0  0  0
  149.3035  142.2699  156.7646 H   0  0  0  0  0  0  0  0  0  0  0  0
  149.0704  140.1492  158.0524 H   0  0  0  0  0  0  0  0  0  0  0  0
  149.0025  137.2839  153.4689 H   0  0  0  0  0  0  0  0  0  0  0  0
  1  2  1  0  0  0  0
  1 26  1  0  0  0  0
  1 27  1  0  0  0  0
  1 28  1  0  0  0  0
  2  3  1  0  0  0  0
  3  8  1  0  0  0  0
  3  4  2  0  0  0  0
  4  5  1  0  0  0  0
  4 29  1  0  0  0  0
  5  6  2  0  0  0  0
  5 30  1  0  0  0  0
  6  7  1  0  0  0  0
  6 31  1  0  0  0  0
  7  8  2  0  0  0  0
  7 32  1  0  0  0  0
  8  9  1  0  0  0  0
  9 10  1  0  0  0  0
 10 11  1  0  0  0  0
 10 33  1  0  0  0  0
 10 34  1  0  0  0  0
 11 12  1  0  0  0  0
 11 35  1  0  0  0  0
 11 36  1  0  0  0  0
 12 25  1  0  0  0  0
 12 13  1  0  0  0  0
 13 14  1  0  0  0  0
 13 19  2  0  0  0  0
 14 15  1  0  0  0  0
 14 16  1  0  0  0  0
 14 37  1  0  0  0  0
 15 38  1  0  0  0  0
 15 39  1  0  0  0  0
 15 40  1  0  0  0  0
 16 17  1  0  0  0  0
 16 41  1  0  0  0  0
 17 18  2  0  0  0  0
 17 42  1  0  0  0  0
 19 20  1  0  0  0  0
 19 47  1  0  0  0  0
 20 25  2  0  0  0  0
 20 21  1  0  0  0  0
 21 22  2  0  0  0  0
 21 43  1  0  0  0  0
 22 23  1  0  0  0  0
 22 44  1  0  0  0  0
 23 24  2  0  0  0  0
 23 45  1  0  0  0  0
 24 25  1  0  0  0  0
 24 46  1  0  0  0  0
M  CHG  1  19   1
M  END
> <s_m_source_file>
AV-unprocessed.smi

> <i_m_source_file_index>
3011

> <i_lp_mmshare_version>
43012

> <i_f3d_flags>
0

> <s_epik_input>
W0NIM11PYzFbY0hdW2NIXVtjSF1bY0hdYzFPW0NIMl1bQ0gyXW4oYyhuMilbQ0BIXShbQ0gzXSlbTkhdW0NIXT1PKWMoYzIzKVtjSF1bY0hdW2NIXVtjSF0z

> <s_epik_cmdline>
J2VwaWtfcHl0aG9uJywgJy1waCcsICc3LjAnLCAnLXRuJywgJzgnLCAnLW1hJywgJzIwMCcsICctbWV0YWxfYmluZGluZycsICctaW1hZScsICc8aW5maWxlLm1hZT4nLCAnLW9tYWUnLCAnPG91dGZpbGUubWFlPic=

> <r_lp_tautomer_probability>
1

> <r_epik_Ionization_Penalty>
1.14644

> <r_epik_Ionization_Penalty_Charging>
1.14644

> <r_epik_Ionization_Penalty_Neutral>
5.5802e-08

> <r_epik_State_Penalty>
1.20743

> <r_epik_Charging_Adjusted_Penalty>
2.35387

> <i_epik_Tot_Q>
1

> <i_epik_Tot_abs_Q>
1

> <r_epik_Metal_State_Penalty>
1.28856

> <b_epik_Metal_Only>
0

> <s_lp_Force_Field>
OPLS_2005

> <r_lp_Energy>
19.9928

> <b_lp_Chiralities_Consistent>
1

> <s_lp_Variant>
AV-unprocessed.smi:3011-4

> <Gold.Version>
5.8.1

> <Gold.Id.Protein>
6NUR|6NUR_protein|mol2

> <Gold.PLP.Fitness>
50.3030

> <Gold.PLP.PLP>
-38.7888

> <Gold.PLP.part.hbond>
-5.5483

> <Gold.PLP.part.metal>
0.0000

> <Gold.PLP.part.buried>
-1.1040

> <Gold.PLP.part.nonpolar>
-32.3947

> <Gold.PLP.part.repulsive>
0.0375

> <Gold.PLP.ligand.clash>
0.0000

> <Gold.PLP.ligand.torsion>
1.0139

> <Gold.PLP.Chemscore.Hbond>
4.4880

> <Gold.PLP.Chemscore.CHOScore>
0.0000

> <Gold.PLP.Chemscore.Metal>
0.0000

> <Gold.Chemscore.Hbonds>
donor molecule, donor type, donor heavy atom, donor atom, acceptor molecule, acceptor atom, score
      L1  H    16    41       P1  7948  1.00
      L1  H    19    47       P1  7948  2.00
      P1  H  6931  6943       L1     2  0.52
      P1  H  6934  6947       L1     9  0.93

> <Gold.PLP.Chemscore.Internal.Correction>
0.0780

> <Gold.Rescore>
     Score         DG    S(hbond)    S(metal)    S(lipo)     H(rot)  DE(clash)    DE(int)     intcor
     18.69     -20.41       3.14        0.00      96.09       2.66       0.96       0.77       ----

> <Gold.Chemscore.Fitness>
18.6919

> <Gold.Chemscore.DG>
-20.4144

> <Gold.Chemscore.ZeroCoef>
-5.4800

> <Gold.Chemscore.Hbond>
3.1444

> <Gold.Chemscore.Metal>
0.0000

> <Gold.Chemscore.Lipo>
96.0920

> <Gold.Chemscore.Internal_Hbond>
0.0000

> <Gold.Chemscore.DEClash>
0.9558

> <Gold.Chemscore.DEInternal>
0.7667

> <Gold.Chemscore.Rot>
2.6604

> <Gold.Chemscore.Internal.Correction>
   9.000000E+99

> <Gold.Chemscore.Hbonds>
donor molecule, donor type, donor heavy atom, donor atom, acceptor molecule, acceptor atom, score
      L1  H    16    41       P1  7948  0.90
      L1  H    19    47       P1  7948  1.00
      P1  H  6931  6943       L1     2  0.04
      P1  H  6934  6947       L1     9  0.84

> <Gold.Chemscore.Hbond.Weighted>
-10.5023

> <Gold.Chemscore.Metal.Weighted>
-0.0000

> <Gold.Chemscore.Lipo.Weighted>
-11.2428

> <Gold.Chemscore.Internal_Hbond.Weighted>
0.0000

> <Gold.Chemscore.DEClash.Weighted>
0.9558

> <Gold.Chemscore.DEInternal.Weighted>
0.7667

> <Gold.Chemscore.Rot.Weighted>
6.8106

> <Gold.Chemscore.Internal.Correction.Weighted>
   9.000000E+99

> <Gold.Protein.RotatedTorsions>
[ 6907 6896 6895 6894 ] final  102.03 input  -60.11 | X-H torsion
[ 7974 7965 7964 7962 ] final -171.62 input  175.53 | X-H torsion
[ 8008 7997 7996 7995 ] final -155.77 input   59.86 | X-H torsion
[ 10167 10162 10161 10158 ] final   67.25 input  -65.29 | X-H torsion
[ 10718 10713 10712 10709 ] final  160.74 input   66.30 | X-H torsion
[ 10763 10752 10751 10750 ] final   -7.48 input  -60.55 | X-H torsion
[ 11005 11000 10999 10996 ] final   63.42 input  -57.11 | X-H torsion

> <Gold.Protein.ActiveResidues>
 VAL166  LYS551  ARG553  GLY616  TRP617  ASP618  TYR619  PRO620  LYS621  CYS622 
 ASP623  PHE694  ASN695  SER759  ASP760  ASP761  ALA762  ILE779  LEU786  VAL792 
 PHE793  MET794  SER795  GLU796  ALA797  LYS798  CYS799  TRP800  GLU811  SER814 

> <Gold.Protein.RotatedAtoms>
  152.5334  134.0037  159.7906 H   0  0  0  0  0  0  0  0  0  0  0  0  # atno 6907 bound_to 6896
  151.0251  133.5833  159.2674 H   0  0  0  0  0  0  0  0  0  0  0  0  # atno 6908 bound_to 6896
  151.2858  135.0734  159.9240 H   0  0  0  0  0  0  0  0  0  0  0  0  # atno 6909 bound_to 6896
  144.7155  140.1895  143.6350 H   0  0  0  0  0  0  0  0  0  0  0  0  # atno 7974 bound_to 7965
  155.7070  140.0773  157.2387 H   0  0  0  0  0  0  0  0  0  0  0  0  # atno 8008 bound_to 7997
  154.4064  140.1637  156.2307 H   0  0  0  0  0  0  0  0  0  0  0  0  # atno 8009 bound_to 7997
  155.9317  140.3391  155.6257 H   0  0  0  0  0  0  0  0  0  0  0  0  # atno 8010 bound_to 7997
  140.0916  144.4983  150.7095 H   0  0  0  0  0  0  0  0  0  0  0  0  # atno 10167 bound_to 10162
  157.1462  131.0552  151.2303 H   0  0  0  0  0  0  0  0  0  0  0  0  # atno 10718 bound_to 10713
  153.4269  135.7011  153.6256 H   0  0  0  0  0  0  0  0  0  0  0  0  # atno 10763 bound_to 10752
  153.4687  135.3719  155.2379 H   0  0  0  0  0  0  0  0  0  0  0  0  # atno 10764 bound_to 10752
  154.8724  135.4038  154.3647 H   0  0  0  0  0  0  0  0  0  0  0  0  # atno 10765 bound_to 10752
  140.0026  134.6419  155.9906 H   0  0  0  0  0  0  0  0  0  0  0  0  # atno 11005 bound_to 11000
  145.8782  139.2308  143.1621 LP  0  0  0  0  0  0  0  0  0  0  0  0  # atno 17320 bound_to 7965
  146.0020  140.8511  143.0013 LP  0  0  0  0  0  0  0  0  0  0  0  0  # atno 17321 bound_to 7965
  140.7026  143.2445  151.4821 LP  0  0  0  0  0  0  0  0  0  0  0  0  # atno 17342 bound_to 10162
  139.5722  144.1903  152.1852 LP  0  0  0  0  0  0  0  0  0  0  0  0  # atno 17343 bound_to 10162
  157.4262  130.7465  149.6953 LP  0  0  0  0  0  0  0  0  0  0  0  0  # atno 17370 bound_to 10713
  155.9779  130.4057  150.3682 LP  0  0  0  0  0  0  0  0  0  0  0  0  # atno 17371 bound_to 10713
  141.1653  133.6537  156.4459 LP  0  0  0  0  0  0  0  0  0  0  0  0  # atno 17394 bound_to 11000
  140.4700  134.6762  157.5124 LP  0  0  0  0  0  0  0  0  0  0  0  0  # atno 17395 bound_to 11000

$$$$
