AV-unprocessed.smi:1356|AV-procd|sdf|5541|dock2
  -GOLD-   22720 5133D 1   1.00000     0.00000
 Structure written by MMmdl.
 41 42  0  0  0  0  0  0  0  0  1 V2000
  149.7514  131.4650  155.5307 C   0  0  0  0  0  0  0  0  0  0  0  0
  149.4626  131.9596  154.1240 C   0  0  1  0  0  0  0  0  0  0  0  0
  148.1014  132.5194  153.7910 C   0  0  0  0  0  0  0  0  0  0  0  0
  149.3132  133.4277  153.7446 C   0  0  1  0  0  0  0  0  0  0  0  0
  149.4615  134.4647  154.8064 C   0  0  0  0  0  0  0  0  0  0  0  0
  149.6597  134.1751  155.9863 O   0  0  0  0  0  0  0  0  0  0  0  0
  149.4163  135.7280  154.3556 N   0  0  0  0  0  0  0  0  0  0  0  0
  149.5519  136.9177  155.1881 C   0  0  0  0  0  0  0  0  0  0  0  0
  150.7574  137.7740  154.7517 C   0  0  0  0  0  0  0  0  0  0  0  0
  150.9207  139.0625  155.5645 C   0  0  0  0  0  0  0  0  0  0  0  0
  151.3226  140.0999  155.0361 O   0  0  0  0  0  0  0  0  0  0  0  0
  150.6002  138.9777  156.8646 N   0  0  0  0  0  0  0  0  0  0  0  0
  150.6986  140.0689  157.8271 C   0  0  0  0  0  0  0  0  0  0  0  0
  152.1153  140.6655  157.8741 C   0  0  0  0  0  0  0  0  0  0  0  0
  152.1103  142.1133  158.3264 C   0  0  0  0  0  0  0  0  0  0  0  0
  152.8129  142.5082  159.4849 C   0  0  0  0  0  0  0  0  0  0  0  0
  152.7659  143.8624  159.8691 C   0  0  0  0  0  0  0  0  0  0  0  0
  152.0218  144.7644  159.0845 C   0  0  0  0  0  0  0  0  0  0  0  0
  151.3543  144.2700  157.9462 C   0  0  0  0  0  0  0  0  0  0  0  0
  151.3918  142.9734  157.5697 N   0  0  0  0  0  0  0  0  0  0  0  0
  149.1844  132.0268  156.2737 H   0  0  0  0  0  0  0  0  0  0  0  0
  150.8140  131.5652  155.7526 H   0  0  0  0  0  0  0  0  0  0  0  0
  149.4778  130.4137  155.6177 H   0  0  0  0  0  0  0  0  0  0  0  0
  149.9341  131.3442  153.3603 H   0  0  0  0  0  0  0  0  0  0  0  0
  147.6544  132.2417  152.8387 H   0  0  0  0  0  0  0  0  0  0  0  0
  147.3948  132.6457  154.6096 H   0  0  0  0  0  0  0  0  0  0  0  0
  149.7114  133.7009  152.7693 H   0  0  0  0  0  0  0  0  0  0  0  0
  149.2704  135.8744  153.3672 H   0  0  0  0  0  0  0  0  0  0  0  0
  148.6287  137.4996  155.1561 H   0  0  0  0  0  0  0  0  0  0  0  0
  149.6778  136.5910  156.2209 H   0  0  0  0  0  0  0  0  0  0  0  0
  151.6755  137.1914  154.8361 H   0  0  0  0  0  0  0  0  0  0  0  0
  150.6546  138.0461  153.7000 H   0  0  0  0  0  0  0  0  0  0  0  0
  150.2777  138.0879  157.2162 H   0  0  0  0  0  0  0  0  0  0  0  0
  149.9815  140.8367  157.5358 H   0  0  0  0  0  0  0  0  0  0  0  0
  150.3969  139.7217  158.8169 H   0  0  0  0  0  0  0  0  0  0  0  0
  152.7478  140.0865  158.5482 H   0  0  0  0  0  0  0  0  0  0  0  0
  152.5808  140.6037  156.8893 H   0  0  0  0  0  0  0  0  0  0  0  0
  153.3720  141.7914  160.0682 H   0  0  0  0  0  0  0  0  0  0  0  0
  153.2896  144.2029  160.7497 H   0  0  0  0  0  0  0  0  0  0  0  0
  151.9629  145.8099  159.3489 H   0  0  0  0  0  0  0  0  0  0  0  0
  150.7737  144.9335  157.3226 H   0  0  0  0  0  0  0  0  0  0  0  0
  1  2  1  0  0  0  0
  1 21  1  0  0  0  0
  1 22  1  0  0  0  0
  1 23  1  0  0  0  0
  2  4  1  0  0  0  0
  2  3  1  0  0  0  0
  2 24  1  0  0  0  0
  3  4  1  0  0  0  0
  3 25  1  0  0  0  0
  3 26  1  0  0  0  0
  4  5  1  0  0  0  0
  4 27  1  0  0  0  0
  5  6  2  0  0  0  0
  5  7  1  0  0  0  0
  7  8  1  0  0  0  0
  7 28  1  0  0  0  0
  8  9  1  0  0  0  0
  8 29  1  0  0  0  0
  8 30  1  0  0  0  0
  9 10  1  0  0  0  0
  9 31  1  0  0  0  0
  9 32  1  0  0  0  0
 10 11  2  0  0  0  0
 10 12  1  0  0  0  0
 12 13  1  0  0  0  0
 12 33  1  0  0  0  0
 13 14  1  0  0  0  0
 13 34  1  0  0  0  0
 13 35  1  0  0  0  0
 14 15  1  0  0  0  0
 14 36  1  0  0  0  0
 14 37  1  0  0  0  0
 15 20  1  0  0  0  0
 15 16  2  0  0  0  0
 16 17  1  0  0  0  0
 16 38  1  0  0  0  0
 17 18  2  0  0  0  0
 17 39  1  0  0  0  0
 18 19  1  0  0  0  0
 18 40  1  0  0  0  0
 19 20  2  0  0  0  0
 19 41  1  0  0  0  0
M  END
> <s_m_source_file>
AV-unprocessed.smi

> <i_m_source_file_index>
1356

> <i_lp_mmshare_version>
43012

> <i_f3d_flags>
0

> <s_epik_input>
W0NIM11bQ0BASF0xW0NIMl1bQ0BIXTFDKD1PKVtOSF1bQ0gyXVtDSDJdQyg9TylbTkhdW0NIMl1bQ0gyXWMyW2NIXVtjSF1bY0hdW2NIXW4y

> <s_epik_cmdline>
J2VwaWtfcHl0aG9uJywgJy1waCcsICc3LjAnLCAnLXRuJywgJzgnLCAnLW1hJywgJzIwMCcsICctbWV0YWxfYmluZGluZycsICctaW1hZScsICc8aW5maWxlLm1hZT4nLCAnLW9tYWUnLCAnPG91dGZpbGUubWFlPic=

> <r_epik_Ionization_Penalty>
0.0258005

> <r_epik_Ionization_Penalty_Charging>
0

> <r_epik_Ionization_Penalty_Neutral>
0.0258005

> <r_epik_State_Penalty>
0.0210245

> <r_epik_Charging_Adjusted_Penalty>
0.0210245

> <i_epik_Tot_Q>
0

> <i_epik_Tot_abs_Q>
0

> <r_epik_Metal_State_Penalty>
0.0201445

> <b_epik_Metal_Only>
0

> <s_lp_Force_Field>
OPLS_2005

> <r_lp_Energy>
8.2515

> <b_lp_Chiralities_Consistent>
1

> <s_lp_Variant>
AV-unprocessed.smi:1356-2

> <Gold.Version>
5.8.1

> <Gold.Id.Protein>
6NUR|6NUR_protein|mol2

> <Gold.PLP.Fitness>
48.9715

> <Gold.PLP.PLP>
-40.9431

> <Gold.PLP.part.hbond>
-2.0000

> <Gold.PLP.part.metal>
0.0000

> <Gold.PLP.part.buried>
-5.3768

> <Gold.PLP.part.nonpolar>
-34.3350

> <Gold.PLP.part.repulsive>
0.1774

> <Gold.PLP.ligand.clash>
0.0133

> <Gold.PLP.ligand.torsion>
0.5517

> <Gold.PLP.Chemscore.Hbond>
2.0000

> <Gold.PLP.Chemscore.CHOScore>
1.0000

> <Gold.PLP.Chemscore.Metal>
0.0000

> <Gold.Chemscore.Hbonds>
donor molecule, donor type, donor heavy atom, donor atom, acceptor molecule, acceptor atom, score
      L1  H     7    28       P1  7948  1.00
      P1  H  7989  7998       L1    11  1.00
      L1  C    19    41       P1  8028  1.00

> <Gold.PLP.Chemscore.Internal.Correction>
0.1451

> <Gold.Rescore>
     Score         DG    S(hbond)    S(metal)    S(lipo)     H(rot)  DE(clash)    DE(int)     intcor
     15.32     -18.45       1.97        0.00     102.33       2.18       0.03       3.11       ----

> <Gold.Chemscore.Fitness>
15.3154

> <Gold.Chemscore.DG>
-18.4539

> <Gold.Chemscore.ZeroCoef>
-5.4800

> <Gold.Chemscore.Hbond>
1.9670

> <Gold.Chemscore.Metal>
0.0000

> <Gold.Chemscore.Lipo>
102.3305

> <Gold.Chemscore.Internal_Hbond>
0.0000

> <Gold.Chemscore.DEClash>
0.0291

> <Gold.Chemscore.DEInternal>
3.1094

> <Gold.Chemscore.Rot>
2.1753

> <Gold.Chemscore.Internal.Correction>
   9.000000E+99

> <Gold.Chemscore.Hbonds>
donor molecule, donor type, donor heavy atom, donor atom, acceptor molecule, acceptor atom, score
      L1  H     7    28       P1  7948  0.58
      P1  H  7989  7998       L1    11  0.99

> <Gold.Chemscore.Hbond.Weighted>
-6.5699

> <Gold.Chemscore.Metal.Weighted>
-0.0000

> <Gold.Chemscore.Lipo.Weighted>
-11.9727

> <Gold.Chemscore.Internal_Hbond.Weighted>
0.0000

> <Gold.Chemscore.DEClash.Weighted>
0.0291

> <Gold.Chemscore.DEInternal.Weighted>
3.1094

> <Gold.Chemscore.Rot.Weighted>
5.5687

> <Gold.Chemscore.Internal.Correction.Weighted>
   9.000000E+99

> <Gold.Protein.RotatedTorsions>
[ 6907 6896 6895 6894 ] final  -53.76 input  -60.11 | X-H torsion
[ 7974 7965 7964 7962 ] final -118.50 input  175.53 | X-H torsion
[ 8008 7997 7996 7995 ] final -145.45 input   59.86 | X-H torsion
[ 10167 10162 10161 10158 ] final  -23.05 input  -65.29 | X-H torsion
[ 10718 10713 10712 10709 ] final  -36.43 input   66.30 | X-H torsion
[ 10763 10752 10751 10750 ] final  -43.61 input  -60.55 | X-H torsion
[ 11005 11000 10999 10996 ] final   -0.65 input  -57.11 | X-H torsion

> <Gold.Protein.ActiveResidues>
 VAL166  LYS551  ARG553  GLY616  TRP617  ASP618  TYR619  PRO620  LYS621  CYS622 
 ASP623  PHE694  ASN695  SER759  ASP760  ASP761  ALA762  ILE779  LEU786  VAL792 
 PHE793  MET794  SER795  GLU796  ALA797  LYS798  CYS799  TRP800  GLU811  SER814 

> <Gold.Protein.RotatedAtoms>
  150.8398  134.7686  159.6922 H   0  0  0  0  0  0  0  0  0  0  0  0  # atno 6907 bound_to 6896
  152.4488  134.5435  159.9856 H   0  0  0  0  0  0  0  0  0  0  0  0  # atno 6908 bound_to 6896
  151.5577  133.3370  159.3001 H   0  0  0  0  0  0  0  0  0  0  0  0  # atno 6909 bound_to 6896
  145.0731  140.8373  143.4083 H   0  0  0  0  0  0  0  0  0  0  0  0  # atno 7974 bound_to 7965
  155.5433  140.0610  157.2865 H   0  0  0  0  0  0  0  0  0  0  0  0  # atno 8008 bound_to 7997
  154.4445  140.1915  156.0657 H   0  0  0  0  0  0  0  0  0  0  0  0  # atno 8009 bound_to 7997
  156.0569  140.3277  155.7419 H   0  0  0  0  0  0  0  0  0  0  0  0  # atno 8010 bound_to 7997
  140.7287  143.4478  151.0560 H   0  0  0  0  0  0  0  0  0  0  0  0  # atno 10167 bound_to 10162
  156.3269  130.4273  149.7908 H   0  0  0  0  0  0  0  0  0  0  0  0  # atno 10718 bound_to 10713
  153.9983  135.6696  153.4758 H   0  0  0  0  0  0  0  0  0  0  0  0  # atno 10763 bound_to 10752
  153.0674  135.4993  154.8225 H   0  0  0  0  0  0  0  0  0  0  0  0  # atno 10764 bound_to 10752
  154.7068  135.3089  154.9221 H   0  0  0  0  0  0  0  0  0  0  0  0  # atno 10765 bound_to 10752
  140.6386  133.9510  155.8313 H   0  0  0  0  0  0  0  0  0  0  0  0  # atno 11005 bound_to 11000
  145.1268  139.2658  143.5560 LP  0  0  0  0  0  0  0  0  0  0  0  0  # atno 17320 bound_to 7965
  146.3529  140.0907  142.8612 LP  0  0  0  0  0  0  0  0  0  0  0  0  # atno 17321 bound_to 7965
  139.8152  143.7896  152.3174 LP  0  0  0  0  0  0  0  0  0  0  0  0  # atno 17342 bound_to 10162
  139.7959  144.7392  150.9890 LP  0  0  0  0  0  0  0  0  0  0  0  0  # atno 17343 bound_to 10162
  156.5195  130.8208  151.3198 LP  0  0  0  0  0  0  0  0  0  0  0  0  # atno 17370 bound_to 10713
  157.7423  130.9887  150.2506 LP  0  0  0  0  0  0  0  0  0  0  0  0  # atno 17371 bound_to 10713
  141.0623  134.0328  157.3641 LP  0  0  0  0  0  0  0  0  0  0  0  0  # atno 17394 bound_to 11000
  139.9089  135.0186  156.7605 LP  0  0  0  0  0  0  0  0  0  0  0  0  # atno 17395 bound_to 11000

$$$$
