AV-unprocessed.smi:1695|AV-procd|sdf|6795|dock8
  -GOLD-   22720 7563D 1   1.00000     0.00000
 Structure written by MMmdl.
 52 54  0  0  0  0  0  0  0  0  3 V2000
  152.4484  143.3067  161.3551 C   0  0  0  0  0  0  0  0  0  0  0  0
  152.2214  142.5660  160.0482 C   0  0  0  0  0  0  0  0  0  0  0  0
  151.3449  143.1323  159.0957 C   0  0  0  0  0  0  0  0  0  0  0  0
  151.1544  142.4299  157.9119 C   0  0  0  0  0  0  0  0  0  0  0  0
  150.3641  142.7176  156.7975 N   0  3  0  0  0  0  0  0  0  0  0  0
  150.4985  141.7246  155.8761 C   0  0  0  0  0  0  0  0  0  0  0  0
  151.3691  140.8087  156.3822 N   0  0  0  0  0  0  0  0  0  0  0  0
  151.8417  139.5478  155.7931 C   0  0  0  0  0  0  0  0  0  0  0  0
  150.7045  138.7075  155.1800 C   0  0  2  0  0  0  0  0  0  0  0  0
  151.2622  137.4812  154.7534 O   0  0  0  0  0  0  0  0  0  0  0  0
  150.0051  139.3805  153.9787 C   0  0  0  0  0  0  0  0  0  0  0  0
  148.7465  138.6883  153.5989 N   0  3  1  0  0  0  0  0  0  0  0  0
  148.0316  138.0869  154.7558 C   0  0  0  0  0  0  0  0  0  0  0  0
  146.8275  137.2544  154.2864 C   0  0  0  0  0  0  0  0  0  0  0  0
  145.8565  138.1033  153.4432 C   0  0  2  0  0  0  0  0  0  0  0  0
  144.6911  137.2507  152.9233 C   0  0  0  0  0  0  0  0  0  0  0  0
  143.7635  137.8672  152.1873 N   0  0  0  0  0  0  0  0  0  0  0  0
  144.6277  136.0505  153.1821 O   0  0  0  0  0  0  0  0  0  0  0  0
  146.6329  138.7508  152.2801 C   0  0  0  0  0  0  0  0  0  0  0  0
  147.8438  139.5486  152.7923 C   0  0  0  0  0  0  0  0  0  0  0  0
  151.8014  141.2049  157.6547 C   0  0  0  0  0  0  0  0  0  0  0  0
  152.6711  140.6349  158.5827 C   0  0  0  0  0  0  0  0  0  0  0  0
  152.8757  141.3328  159.7946 C   0  0  0  0  0  0  0  0  0  0  0  0
  153.8141  140.7314  160.8271 C   0  0  0  0  0  0  0  0  0  0  0  0
  151.8889  144.2421  161.3863 H   0  0  0  0  0  0  0  0  0  0  0  0
  153.5043  143.5463  161.4826 H   0  0  0  0  0  0  0  0  0  0  0  0
  152.1262  142.6981  162.2004 H   0  0  0  0  0  0  0  0  0  0  0  0
  150.8420  144.0703  159.2824 H   0  0  0  0  0  0  0  0  0  0  0  0
  150.0003  141.6719  154.9183 H   0  0  0  0  0  0  0  0  0  0  0  0
  152.6214  139.7551  155.0604 H   0  0  0  0  0  0  0  0  0  0  0  0
  152.3235  138.9872  156.5957 H   0  0  0  0  0  0  0  0  0  0  0  0
  149.9813  138.4878  155.9648 H   0  0  0  0  0  0  0  0  0  0  0  0
  152.1545  137.6302  154.4787 H   0  0  0  0  0  0  0  0  0  0  0  0
  149.7804  140.4270  154.1884 H   0  0  0  0  0  0  0  0  0  0  0  0
  150.6977  139.3828  153.1356 H   0  0  0  0  0  0  0  0  0  0  0  0
  148.7015  137.4458  155.3272 H   0  0  0  0  0  0  0  0  0  0  0  0
  147.7000  138.8766  155.4319 H   0  0  0  0  0  0  0  0  0  0  0  0
  147.1861  136.4013  153.7079 H   0  0  0  0  0  0  0  0  0  0  0  0
  146.3093  136.8426  155.1536 H   0  0  0  0  0  0  0  0  0  0  0  0
  145.4540  138.8982  154.0741 H   0  0  0  0  0  0  0  0  0  0  0  0
  142.9782  137.3489  151.8212 H   0  0  0  0  0  0  0  0  0  0  0  0
  143.8527  138.8553  151.9974 H   0  0  0  0  0  0  0  0  0  0  0  0
  146.9788  137.9856  151.5827 H   0  0  0  0  0  0  0  0  0  0  0  0
  145.9756  139.4105  151.7118 H   0  0  0  0  0  0  0  0  0  0  0  0
  147.5124  140.3973  153.3928 H   0  0  0  0  0  0  0  0  0  0  0  0
  148.3868  139.9557  151.9384 H   0  0  0  0  0  0  0  0  0  0  0  0
  153.1722  139.6969  158.3964 H   0  0  0  0  0  0  0  0  0  0  0  0
  154.2105  139.7712  160.4956 H   0  0  0  0  0  0  0  0  0  0  0  0
  153.2925  140.5668  161.7702 H   0  0  0  0  0  0  0  0  0  0  0  0
  154.6589  141.3959  161.0098 H   0  0  0  0  0  0  0  0  0  0  0  0
  149.0195  137.9266  152.9933 H   0  0  0  0  0  0  0  0  0  0  0  0
  149.7703  143.5284  156.6753 H   0  0  0  0  0  0  0  0  0  0  0  0
  1  2  1  0  0  0  0
  1 25  1  0  0  0  0
  1 26  1  0  0  0  0
  1 27  1  0  0  0  0
  2 23  1  0  0  0  0
  2  3  2  0  0  0  0
  3  4  1  0  0  0  0
  3 28  1  0  0  0  0
  4 21  2  0  0  0  0
  4  5  1  0  0  0  0
  5  6  2  0  0  0  0
  5 52  1  0  0  0  0
  6  7  1  0  0  0  0
  6 29  1  0  0  0  0
  7  8  1  0  0  0  0
  7 21  1  0  0  0  0
  8  9  1  0  0  0  0
  8 30  1  0  0  0  0
  8 31  1  0  0  0  0
  9 10  1  0  0  0  0
  9 11  1  0  0  0  0
  9 32  1  0  0  0  0
 10 33  1  0  0  0  0
 11 12  1  0  0  0  0
 11 34  1  0  0  0  0
 11 35  1  0  0  0  0
 12 20  1  0  0  0  0
 12 13  1  0  0  0  0
 12 51  1  0  0  0  0
 13 14  1  0  0  0  0
 13 36  1  0  0  0  0
 13 37  1  0  0  0  0
 14 15  1  0  0  0  0
 14 38  1  0  0  0  0
 14 39  1  0  0  0  0
 15 16  1  0  0  0  0
 15 19  1  0  0  0  0
 15 40  1  0  0  0  0
 16 17  1  0  0  0  0
 16 18  2  0  0  0  0
 17 41  1  0  0  0  0
 17 42  1  0  0  0  0
 19 20  1  0  0  0  0
 19 43  1  0  0  0  0
 19 44  1  0  0  0  0
 20 45  1  0  0  0  0
 20 46  1  0  0  0  0
 21 22  1  0  0  0  0
 22 23  2  0  0  0  0
 22 47  1  0  0  0  0
 23 24  1  0  0  0  0
 24 48  1  0  0  0  0
 24 49  1  0  0  0  0
 24 50  1  0  0  0  0
M  CHG  1   5   1
M  CHG  1  12   1
M  END
> <s_m_source_file>
AV-unprocessed.smi

> <i_m_source_file_index>
1695

> <i_lp_mmshare_version>
43012

> <i_f3d_flags>
0

> <s_epik_input>
W0NIM11jKFtjSF0xKWMoW0NIM10pW2NIXWMoYzEyKW4oW2NIXW4yKVtDSDJdW0NASF0oW09IXSlbQ0gyXU4zW0NIMl1bQ0gyXVtDSF0oQyg9TylbTkgyXSlbQ0gyXVtDSDJdMw==

> <s_epik_cmdline>
J2VwaWtfcHl0aG9uJywgJy1waCcsICc3LjAnLCAnLXRuJywgJzgnLCAnLW1hJywgJzIwMCcsICctbWV0YWxfYmluZGluZycsICctaW1hZScsICc8aW5maWxlLm1hZT4nLCAnLW9tYWUnLCAnPG91dGZpbGUubWFlPic=

> <r_epik_Ionization_Penalty>
1.20173

> <r_epik_Ionization_Penalty_Charging>
1.20172

> <r_epik_Ionization_Penalty_Neutral>
1.7852e-06

> <r_epik_State_Penalty>
1.28089

> <r_epik_Charging_Adjusted_Penalty>
2.48261

> <i_epik_Tot_Q>
2

> <i_epik_Tot_abs_Q>
2

> <r_epik_Metal_State_Penalty>
1.35652

> <b_epik_Metal_Only>
0

> <s_lp_Force_Field>
OPLS_2005

> <r_lp_Energy>
30.6346

> <b_lp_Chiralities_Consistent>
1

> <s_lp_Variant>
AV-unprocessed.smi:1695-7

> <Gold.Version>
5.8.1

> <Gold.Id.Protein>
6NUR|6NUR_protein|mol2

> <Gold.PLP.Fitness>
59.2505

> <Gold.PLP.PLP>
-45.2250

> <Gold.PLP.part.hbond>
-5.0000

> <Gold.PLP.part.metal>
0.0000

> <Gold.PLP.part.buried>
-0.9591

> <Gold.PLP.part.nonpolar>
-39.8949

> <Gold.PLP.part.repulsive>
0.1984

> <Gold.PLP.ligand.clash>
0.0000

> <Gold.PLP.ligand.torsion>
0.5057

> <Gold.PLP.Chemscore.Hbond>
5.0000

> <Gold.PLP.Chemscore.CHOScore>
0.0000

> <Gold.PLP.Chemscore.Metal>
0.0000

> <Gold.Chemscore.Hbonds>
donor molecule, donor type, donor heavy atom, donor atom, acceptor molecule, acceptor atom, score
      L1  H     5    52       P1  8028  2.00
      L1  H    12    51       P1  7948  2.00
      L1  H    17    42       P1 10175  1.00

> <Gold.PLP.Chemscore.Internal.Correction>
0.0370

> <Gold.Rescore>
     Score         DG    S(hbond)    S(metal)    S(lipo)     H(rot)  DE(clash)    DE(int)     intcor
     19.56     -21.57       2.98        0.00     116.13       2.91       1.49       0.52       ----

> <Gold.Chemscore.Fitness>
19.5576

> <Gold.Chemscore.DG>
-21.5678

> <Gold.Chemscore.ZeroCoef>
-5.4800

> <Gold.Chemscore.Hbond>
2.9811

> <Gold.Chemscore.Metal>
0.0000

> <Gold.Chemscore.Lipo>
116.1314

> <Gold.Chemscore.Internal_Hbond>
0.0000

> <Gold.Chemscore.DEClash>
1.4913

> <Gold.Chemscore.DEInternal>
0.5190

> <Gold.Chemscore.Rot>
2.9127

> <Gold.Chemscore.Internal.Correction>
   9.000000E+99

> <Gold.Chemscore.Hbonds>
donor molecule, donor type, donor heavy atom, donor atom, acceptor molecule, acceptor atom, score
      L1  H     5    52       P1  8028  0.97
      L1  H    12    51       P1  7948  0.95
      L1  H    17    42       P1 10175  0.95

> <Gold.Chemscore.Hbond.Weighted>
-9.9570

> <Gold.Chemscore.Metal.Weighted>
-0.0000

> <Gold.Chemscore.Lipo.Weighted>
-13.5874

> <Gold.Chemscore.Internal_Hbond.Weighted>
0.0000

> <Gold.Chemscore.DEClash.Weighted>
1.4913

> <Gold.Chemscore.DEInternal.Weighted>
0.5190

> <Gold.Chemscore.Rot.Weighted>
7.4565

> <Gold.Chemscore.Internal.Correction.Weighted>
   9.000000E+99

> <Gold.Protein.RotatedTorsions>
[ 6907 6896 6895 6894 ] final -176.54 input  -60.11 | X-H torsion
[ 7974 7965 7964 7962 ] final  -93.40 input  175.53 | X-H torsion
[ 8008 7997 7996 7995 ] final   88.56 input   59.86 | X-H torsion
[ 10167 10162 10161 10158 ] final  -57.99 input  -65.29 | X-H torsion
[ 10718 10713 10712 10709 ] final  150.91 input   66.30 | X-H torsion
[ 10763 10752 10751 10750 ] final  -99.49 input  -60.55 | X-H torsion
[ 11005 11000 10999 10996 ] final    3.24 input  -57.11 | X-H torsion

> <Gold.Protein.ActiveResidues>
 VAL166  LYS551  ARG553  GLY616  TRP617  ASP618  TYR619  PRO620  LYS621  CYS622 
 ASP623  PHE694  ASN695  SER759  ASP760  ASP761  ALA762  ILE779  LEU786  VAL792 
 PHE793  MET794  SER795  GLU796  ALA797  LYS798  CYS799  TRP800  GLU811  SER814 

> <Gold.Protein.RotatedAtoms>
  151.6064  133.3351  159.3057 H   0  0  0  0  0  0  0  0  0  0  0  0  # atno 6907 bound_to 6896
  150.8180  134.7376  159.6758 H   0  0  0  0  0  0  0  0  0  0  0  0  # atno 6908 bound_to 6896
  152.4275  134.5846  160.0009 H   0  0  0  0  0  0  0  0  0  0  0  0  # atno 6909 bound_to 6896
  145.3871  140.9524  143.2361 H   0  0  0  0  0  0  0  0  0  0  0  0  # atno 7974 bound_to 7965
  155.9893  140.3370  155.6738 H   0  0  0  0  0  0  0  0  0  0  0  0  # atno 8008 bound_to 7997
  155.6442  140.0698  157.2626 H   0  0  0  0  0  0  0  0  0  0  0  0  # atno 8009 bound_to 7997
  154.4214  140.1737  156.1593 H   0  0  0  0  0  0  0  0  0  0  0  0  # atno 8010 bound_to 7997
  140.6225  143.2425  151.5446 H   0  0  0  0  0  0  0  0  0  0  0  0  # atno 10167 bound_to 10162
  157.2775  131.0829  151.1556 H   0  0  0  0  0  0  0  0  0  0  0  0  # atno 10718 bound_to 10713
  154.7502  135.4970  153.9276 H   0  0  0  0  0  0  0  0  0  0  0  0  # atno 10763 bound_to 10752
  153.1135  135.6715  153.9466 H   0  0  0  0  0  0  0  0  0  0  0  0  # atno 10764 bound_to 10752
  153.9218  135.3087  155.3426 H   0  0  0  0  0  0  0  0  0  0  0  0  # atno 10765 bound_to 10752
  140.5953  133.9886  155.8107 H   0  0  0  0  0  0  0  0  0  0  0  0  # atno 11005 bound_to 11000
  144.8467  139.5386  143.6875 LP  0  0  0  0  0  0  0  0  0  0  0  0  # atno 17320 bound_to 7965
  146.2815  139.6890  142.9225 LP  0  0  0  0  0  0  0  0  0  0  0  0  # atno 17321 bound_to 7965
  139.5451  144.2544  152.1426 LP  0  0  0  0  0  0  0  0  0  0  0  0  # atno 17342 bound_to 10162
  140.1767  144.4883  150.6550 LP  0  0  0  0  0  0  0  0  0  0  0  0  # atno 17343 bound_to 10162
  157.3003  130.6839  149.6160 LP  0  0  0  0  0  0  0  0  0  0  0  0  # atno 17370 bound_to 10713
  155.9664  130.4394  150.5257 LP  0  0  0  0  0  0  0  0  0  0  0  0  # atno 17371 bound_to 10713
  141.0908  133.9920  157.3240 LP  0  0  0  0  0  0  0  0  0  0  0  0  # atno 17394 bound_to 11000
  139.9256  135.0201  156.8222 LP  0  0  0  0  0  0  0  0  0  0  0  0  # atno 17395 bound_to 11000

$$$$
