AV-unprocessed.smi:1920|AV-procd|sdf|7779|dock2
  -GOLD-   22720 9523D 1   1.00000     0.00000
 Structure written by MMmdl.
 37 38  0  0  0  0  0  0  0  0  2 V2000
  151.8091  138.9485  155.4882 C   0  0  0  0  0  0  0  0  0  0  0  0
  150.5099  139.7754  155.4661 C   0  0  2  0  0  0  0  0  0  0  0  0
  149.8976  139.9026  154.0575 C   0  0  0  0  0  0  0  0  0  0  0  0
  148.5596  140.5025  154.0686 N   0  0  0  0  0  0  0  0  0  0  0  0
  148.2160  141.7490  154.5254 C   0  0  0  0  0  0  0  0  0  0  0  0
  146.8643  141.8765  154.3343 C   0  0  0  0  0  0  0  0  0  0  0  0
  146.4409  140.7047  153.7661 N   0  3  0  0  0  0  0  0  0  0  0  0
  147.4737  139.8715  153.6026 C   0  0  0  0  0  0  0  0  0  0  0  0
  150.7512  141.1115  156.0033 N   0  0  0  0  0  0  0  0  0  0  0  0
  150.4334  141.5204  157.2416 C   0  0  0  0  0  0  0  0  0  0  0  0
  149.8909  140.7951  158.0751 O   0  0  0  0  0  0  0  0  0  0  0  0
  150.7806  142.9714  157.5920 C   0  0  0  0  0  0  0  0  0  0  0  0
  151.9834  143.1044  158.5515 C   0  0  1  0  0  0  0  0  0  0  0  0
  152.1361  144.4845  159.1451 C   0  0  0  0  0  0  0  0  0  0  0  0
  152.1921  144.4690  160.4749 C   0  0  0  0  0  0  0  0  0  0  0  0
  152.0860  143.0799  161.0399 C   0  0  0  0  0  0  0  0  0  0  0  0
  151.8728  142.1873  159.7966 C   0  0  0  0  0  0  0  0  0  0  0  0
  151.6363  137.9237  155.1591 H   0  0  0  0  0  0  0  0  0  0  0  0
  152.2268  138.8944  156.4942 H   0  0  0  0  0  0  0  0  0  0  0  0
  152.5677  139.3848  154.8376 H   0  0  0  0  0  0  0  0  0  0  0  0
  149.7770  139.2751  156.1018 H   0  0  0  0  0  0  0  0  0  0  0  0
  150.5279  140.5278  153.4235 H   0  0  0  0  0  0  0  0  0  0  0  0
  149.8335  138.9256  153.5750 H   0  0  0  0  0  0  0  0  0  0  0  0
  148.9401  142.4336  154.9431 H   0  0  0  0  0  0  0  0  0  0  0  0
  146.1906  142.6920  154.5536 H   0  0  0  0  0  0  0  0  0  0  0  0
  147.4357  138.8826  153.1813 H   0  0  0  0  0  0  0  0  0  0  0  0
  151.1948  141.7779  155.3877 H   0  0  0  0  0  0  0  0  0  0  0  0
  150.9768  143.5319  156.6762 H   0  0  0  0  0  0  0  0  0  0  0  0
  149.8996  143.4257  158.0466 H   0  0  0  0  0  0  0  0  0  0  0  0
  152.9072  142.8748  158.0181 H   0  0  0  0  0  0  0  0  0  0  0  0
  152.2078  145.3725  158.5341 H   0  0  0  0  0  0  0  0  0  0  0  0
  152.3122  145.3389  161.1037 H   0  0  0  0  0  0  0  0  0  0  0  0
  153.0030  142.8221  161.5706 H   0  0  0  0  0  0  0  0  0  0  0  0
  151.2490  143.0127  161.7356 H   0  0  0  0  0  0  0  0  0  0  0  0
  150.8914  141.7140  159.8487 H   0  0  0  0  0  0  0  0  0  0  0  0
  152.6096  141.3843  159.7583 H   0  0  0  0  0  0  0  0  0  0  0  0
  145.4848  140.4968  153.5058 H   0  0  0  0  0  0  0  0  0  0  0  0
  1  2  1  0  0  0  0
  1 18  1  0  0  0  0
  1 19  1  0  0  0  0
  1 20  1  0  0  0  0
  2  3  1  0  0  0  0
  2  9  1  0  0  0  0
  2 21  1  0  0  0  0
  3  4  1  0  0  0  0
  3 22  1  0  0  0  0
  3 23  1  0  0  0  0
  4  8  1  0  0  0  0
  4  5  1  0  0  0  0
  5  6  2  0  0  0  0
  5 24  1  0  0  0  0
  6  7  1  0  0  0  0
  6 25  1  0  0  0  0
  7  8  2  0  0  0  0
  7 37  1  0  0  0  0
  8 26  1  0  0  0  0
  9 10  1  0  0  0  0
  9 27  1  0  0  0  0
 10 11  2  0  0  0  0
 10 12  1  0  0  0  0
 12 13  1  0  0  0  0
 12 28  1  0  0  0  0
 12 29  1  0  0  0  0
 13 17  1  0  0  0  0
 13 14  1  0  0  0  0
 13 30  1  0  0  0  0
 14 15  2  0  0  0  0
 14 31  1  0  0  0  0
 15 16  1  0  0  0  0
 15 32  1  0  0  0  0
 16 17  1  0  0  0  0
 16 33  1  0  0  0  0
 16 34  1  0  0  0  0
 17 35  1  0  0  0  0
 17 36  1  0  0  0  0
M  CHG  1   7   1
M  END
> <s_m_source_file>
AV-unprocessed.smi

> <i_m_source_file_index>
1920

> <i_lp_mmshare_version>
43012

> <i_f3d_flags>
0

> <s_epik_input>
W2NIXTFuW2NIXVtjSF1uMVtDSDJdW0NAQEhdKFtDSDNdKVtOSF1DKD1PKVtDSDJdW0NAQEhdMltDSF09W0NIXVtDSDJdW0NIMl0y

> <s_epik_cmdline>
J2VwaWtfcHl0aG9uJywgJy1waCcsICc3LjAnLCAnLXRuJywgJzgnLCAnLW1hJywgJzIwMCcsICctbWV0YWxfYmluZGluZycsICctaW1hZScsICc8aW5maWxlLm1hZT4nLCAnLW9tYWUnLCAnPG91dGZpbGUubWFlPic=

> <r_lp_tautomer_probability>
1

> <r_epik_Ionization_Penalty>
0.24816

> <r_epik_Ionization_Penalty_Charging>
0

> <r_epik_Ionization_Penalty_Neutral>
0.24816

> <r_epik_State_Penalty>
0.2394

> <r_epik_Charging_Adjusted_Penalty>
0.2394

> <i_epik_Tot_Q>
1

> <i_epik_Tot_abs_Q>
1

> <r_epik_Metal_State_Penalty>
0.531457

> <b_epik_Metal_Only>
0

> <s_lp_Force_Field>
OPLS_2005

> <r_lp_Energy>
20.8449

> <b_lp_Chiralities_Consistent>
1

> <s_lp_Variant>
AV-unprocessed.smi:1920-3

> <Gold.Version>
5.8.1

> <Gold.Id.Protein>
6NUR|6NUR_protein|mol2

> <Gold.PLP.Fitness>
45.7230

> <Gold.PLP.PLP>
-37.5812

> <Gold.PLP.part.hbond>
-1.0000

> <Gold.PLP.part.metal>
0.0000

> <Gold.PLP.part.buried>
1.0153

> <Gold.PLP.part.nonpolar>
-38.2295

> <Gold.PLP.part.repulsive>
0.1548

> <Gold.PLP.ligand.clash>
0.0000

> <Gold.PLP.ligand.torsion>
0.4679

> <Gold.PLP.Chemscore.Hbond>
2.0000

> <Gold.PLP.Chemscore.CHOScore>
1.0000

> <Gold.PLP.Chemscore.Metal>
0.0000

> <Gold.Chemscore.Hbonds>
donor molecule, donor type, donor heavy atom, donor atom, acceptor molecule, acceptor atom, score
      L1  H     7    37       P1 10175  1.79
      L1  C     5    24       P1  8028  1.00

> <Gold.PLP.Chemscore.Internal.Correction>
0.0775

> <Gold.Rescore>
     Score         DG    S(hbond)    S(metal)    S(lipo)     H(rot)  DE(clash)    DE(int)     intcor
     12.46     -15.69       0.97        0.00     103.79       2.01       1.67       1.57       ----

> <Gold.Chemscore.Fitness>
12.4584

> <Gold.Chemscore.DG>
-15.6932

> <Gold.Chemscore.ZeroCoef>
-5.4800

> <Gold.Chemscore.Hbond>
0.9651

> <Gold.Chemscore.Metal>
0.0000

> <Gold.Chemscore.Lipo>
103.7856

> <Gold.Chemscore.Internal_Hbond>
0.0000

> <Gold.Chemscore.DEClash>
1.6671

> <Gold.Chemscore.DEInternal>
1.5677

> <Gold.Chemscore.Rot>
2.0130

> <Gold.Chemscore.Internal.Correction>
   9.000000E+99

> <Gold.Chemscore.Hbonds>
donor molecule, donor type, donor heavy atom, donor atom, acceptor molecule, acceptor atom, score
      L1  H     7    37       P1 10175  0.85

> <Gold.Chemscore.Hbond.Weighted>
-3.2236

> <Gold.Chemscore.Metal.Weighted>
-0.0000

> <Gold.Chemscore.Lipo.Weighted>
-12.1429

> <Gold.Chemscore.Internal_Hbond.Weighted>
0.0000

> <Gold.Chemscore.DEClash.Weighted>
1.6671

> <Gold.Chemscore.DEInternal.Weighted>
1.5677

> <Gold.Chemscore.Rot.Weighted>
5.1533

> <Gold.Chemscore.Internal.Correction.Weighted>
   9.000000E+99

> <Gold.Protein.RotatedTorsions>
[ 6907 6896 6895 6894 ] final  172.98 input  -60.11 | X-H torsion
[ 7974 7965 7964 7962 ] final  167.81 input  175.53 | X-H torsion
[ 8008 7997 7996 7995 ] final  -39.21 input   59.86 | X-H torsion
[ 10167 10162 10161 10158 ] final -118.25 input  -65.29 | X-H torsion
[ 10718 10713 10712 10709 ] final -126.70 input   66.30 | X-H torsion
[ 10763 10752 10751 10750 ] final  118.47 input  -60.55 | X-H torsion
[ 11005 11000 10999 10996 ] final   28.39 input  -57.11 | X-H torsion

> <Gold.Protein.ActiveResidues>
 VAL166  LYS551  ARG553  GLY616  TRP617  ASP618  TYR619  PRO620  LYS621  CYS622 
 ASP623  PHE694  ASN695  SER759  ASP760  ASP761  ALA762  ILE779  LEU786  VAL792 
 PHE793  MET794  SER795  GLU796  ALA797  LYS798  CYS799  TRP800  GLU811  SER814 

> <Gold.Protein.RotatedAtoms>
  151.7757  133.3345  159.3456 H   0  0  0  0  0  0  0  0  0  0  0  0  # atno 6907 bound_to 6896
  150.7445  134.5978  159.6030 H   0  0  0  0  0  0  0  0  0  0  0  0  # atno 6908 bound_to 6896
  152.3311  134.7260  160.0340 H   0  0  0  0  0  0  0  0  0  0  0  0  # atno 6909 bound_to 6896
  144.7411  139.8816  143.6396 H   0  0  0  0  0  0  0  0  0  0  0  0  # atno 7974 bound_to 7965
  154.4026  140.1557  156.2826 H   0  0  0  0  0  0  0  0  0  0  0  0  # atno 8008 bound_to 7997
  155.8856  140.3441  155.5897 H   0  0  0  0  0  0  0  0  0  0  0  0  # atno 8009 bound_to 7997
  155.7617  140.0818  157.2142 H   0  0  0  0  0  0  0  0  0  0  0  0  # atno 8010 bound_to 7997
  140.0595  143.4981  152.2039 H   0  0  0  0  0  0  0  0  0  0  0  0  # atno 10167 bound_to 10162
  156.1789  130.6719  151.0279 H   0  0  0  0  0  0  0  0  0  0  0  0  # atno 10718 bound_to 10713
  153.5681  135.3507  155.2826 H   0  0  0  0  0  0  0  0  0  0  0  0  # atno 10763 bound_to 10752
  154.8686  135.4153  154.2756 H   0  0  0  0  0  0  0  0  0  0  0  0  # atno 10764 bound_to 10752
  153.3516  135.7055  153.6854 H   0  0  0  0  0  0  0  0  0  0  0  0  # atno 10765 bound_to 10752
  140.3161  134.2595  155.7725 H   0  0  0  0  0  0  0  0  0  0  0  0  # atno 11005 bound_to 11000
  146.1207  139.4225  143.0230 LP  0  0  0  0  0  0  0  0  0  0  0  0  # atno 17320 bound_to 7965
  145.7309  141.0043  143.1352 LP  0  0  0  0  0  0  0  0  0  0  0  0  # atno 17321 bound_to 7965
  139.5902  144.7547  151.3419 LP  0  0  0  0  0  0  0  0  0  0  0  0  # atno 17342 bound_to 10162
  140.7178  143.7218  150.7690 LP  0  0  0  0  0  0  0  0  0  0  0  0  # atno 17343 bound_to 10162
  157.6855  131.0826  150.7254 LP  0  0  0  0  0  0  0  0  0  0  0  0  # atno 17370 bound_to 10713
  156.7312  130.4710  149.5499 LP  0  0  0  0  0  0  0  0  0  0  0  0  # atno 17371 bound_to 10713
  141.2097  133.7740  156.9978 LP  0  0  0  0  0  0  0  0  0  0  0  0  # atno 17394 bound_to 11000
  140.0982  134.9551  157.1882 LP  0  0  0  0  0  0  0  0  0  0  0  0  # atno 17395 bound_to 11000

$$$$
