AV-unprocessed.smi:691|AV-procd|sdf|3366|dock7
  -GOLD-   22720 0343D 1   1.00000     0.00000
 Structure written by MMmdl.
 37 38  0  0  0  0  0  0  0  0  1 V2000
  146.7178  140.2411  154.6170 C   0  0  0  0  0  0  0  0  0  0  0  0
  147.2559  139.0969  153.7255 C   0  0  1  0  0  0  0  0  0  0  0  0
  146.7846  139.3243  152.2652 C   0  0  0  0  0  0  0  0  0  0  0  0
  147.2859  138.3317  151.3925 O   0  0  0  0  0  0  0  0  0  0  0  0
  148.7926  139.0758  153.8093 C   0  0  0  0  0  0  0  0  0  0  0  0
  149.1418  138.3189  155.0959 C   0  0  0  0  0  0  0  0  0  0  0  0
  147.9202  137.4519  155.4300 C   0  0  0  0  0  0  0  0  0  0  0  0
  146.8761  137.7190  154.3316 C   0  0  2  0  0  0  0  0  0  0  0  0
  146.9315  136.6363  153.3455 N   0  0  0  0  0  0  0  0  0  0  0  0
  145.9447  135.7730  153.0648 C   0  0  0  0  0  0  0  0  0  0  0  0
  144.8492  135.7810  153.6251 O   0  0  0  0  0  0  0  0  0  0  0  0
  146.3109  134.9276  152.0863 N   0  0  0  0  0  0  0  0  0  0  0  0
  145.5538  133.8859  151.4848 C   0  0  0  0  0  0  0  0  0  0  0  0
  146.0789  132.9426  150.5685 C   0  0  0  0  0  0  0  0  0  0  0  0
  145.2185  131.9659  150.0309 C   0  0  0  0  0  0  0  0  0  0  0  0
  143.8657  131.9719  150.4219 C   0  0  0  0  0  0  0  0  0  0  0  0
  143.3484  132.8737  151.2824 N   0  0  0  0  0  0  0  0  0  0  0  0
  144.1791  133.8071  151.7933 C   0  0  0  0  0  0  0  0  0  0  0  0
  147.0263  141.2157  154.2378 H   0  0  0  0  0  0  0  0  0  0  0  0
  147.0749  140.1656  155.6441 H   0  0  0  0  0  0  0  0  0  0  0  0
  145.6283  140.2366  154.6569 H   0  0  0  0  0  0  0  0  0  0  0  0
  145.6955  139.3097  152.2139 H   0  0  0  0  0  0  0  0  0  0  0  0
  147.0933  140.3010  151.8915 H   0  0  0  0  0  0  0  0  0  0  0  0
  147.5468  137.5822  151.9056 H   0  0  0  0  0  0  0  0  0  0  0  0
  149.2020  138.5270  152.9600 H   0  0  0  0  0  0  0  0  0  0  0  0
  149.2330  140.0733  153.7838 H   0  0  0  0  0  0  0  0  0  0  0  0
  150.0434  137.7189  154.9689 H   0  0  0  0  0  0  0  0  0  0  0  0
  149.3311  139.0207  155.9090 H   0  0  0  0  0  0  0  0  0  0  0  0
  148.1810  136.3955  155.5119 H   0  0  0  0  0  0  0  0  0  0  0  0
  147.5203  137.7507  156.3998 H   0  0  0  0  0  0  0  0  0  0  0  0
  145.8797  137.7654  154.7742 H   0  0  0  0  0  0  0  0  0  0  0  0
  147.7929  136.5484  152.8270 H   0  0  0  0  0  0  0  0  0  0  0  0
  147.2185  135.0926  151.6764 H   0  0  0  0  0  0  0  0  0  0  0  0
  147.1120  132.9550  150.2579 H   0  0  0  0  0  0  0  0  0  0  0  0
  145.5870  131.2309  149.3305 H   0  0  0  0  0  0  0  0  0  0  0  0
  143.1796  131.2367  150.0282 H   0  0  0  0  0  0  0  0  0  0  0  0
  143.7299  134.5128  152.4770 H   0  0  0  0  0  0  0  0  0  0  0  0
  1  2  1  0  0  0  0
  1 19  1  0  0  0  0
  1 20  1  0  0  0  0
  1 21  1  0  0  0  0
  2  8  1  0  0  0  0
  2  3  1  0  0  0  0
  2  5  1  0  0  0  0
  3  4  1  0  0  0  0
  3 22  1  0  0  0  0
  3 23  1  0  0  0  0
  4 24  1  0  0  0  0
  5  6  1  0  0  0  0
  5 25  1  0  0  0  0
  5 26  1  0  0  0  0
  6  7  1  0  0  0  0
  6 27  1  0  0  0  0
  6 28  1  0  0  0  0
  7  8  1  0  0  0  0
  7 29  1  0  0  0  0
  7 30  1  0  0  0  0
  8  9  1  0  0  0  0
  8 31  1  0  0  0  0
  9 10  1  0  0  0  0
  9 32  1  0  0  0  0
 10 11  2  0  0  0  0
 10 12  1  0  0  0  0
 12 13  1  0  0  0  0
 12 33  1  0  0  0  0
 13 18  1  0  0  0  0
 13 14  2  0  0  0  0
 14 15  1  0  0  0  0
 14 34  1  0  0  0  0
 15 16  2  0  0  0  0
 15 35  1  0  0  0  0
 16 17  1  0  0  0  0
 16 36  1  0  0  0  0
 17 18  2  0  0  0  0
 18 37  1  0  0  0  0
M  END
> <s_m_source_file>
AV-unprocessed.smi

> <i_m_source_file_index>
691

> <i_lp_mmshare_version>
43012

> <i_f3d_flags>
0

> <s_epik_input>
W09IXVtDSDJdW0NAXTEoW0NIM10pW0NIMl1bQ0gyXVtDSDJdW0NASF0xW05IXUMoPU8pW05IXWMyW2NIXVtjSF1bY0hdbltjSF0y

> <s_epik_cmdline>
J2VwaWtfcHl0aG9uJywgJy1waCcsICc3LjAnLCAnLXRuJywgJzgnLCAnLW1hJywgJzIwMCcsICctbWV0YWxfYmluZGluZycsICctaW1hZScsICc8aW5maWxlLm1hZT4nLCAnLW9tYWUnLCAnPG91dGZpbGUubWFlPic=

> <r_epik_Ionization_Penalty>
0.00496828

> <r_epik_Ionization_Penalty_Charging>
0

> <r_epik_Ionization_Penalty_Neutral>
0.00496828

> <r_epik_State_Penalty>
0.00358054

> <r_epik_Charging_Adjusted_Penalty>
0.00358054

> <i_epik_Tot_Q>
0

> <i_epik_Tot_abs_Q>
0

> <r_epik_Metal_State_Penalty>
-0

> <b_epik_Metal_Only>
0

> <s_lp_Force_Field>
OPLS_2005

> <r_lp_Energy>
29.635

> <b_lp_Chiralities_Consistent>
1

> <s_lp_Variant>
AV-unprocessed.smi:691-3

> <Gold.Version>
5.8.1

> <Gold.Id.Protein>
6NUR|6NUR_protein|mol2

> <Gold.PLP.Fitness>
41.7047

> <Gold.PLP.PLP>
-28.1108

> <Gold.PLP.part.hbond>
-5.0000

> <Gold.PLP.part.metal>
0.0000

> <Gold.PLP.part.buried>
-2.6175

> <Gold.PLP.part.nonpolar>
-21.3362

> <Gold.PLP.part.repulsive>
0.6697

> <Gold.PLP.ligand.clash>
0.0000

> <Gold.PLP.ligand.torsion>
0.0482

> <Gold.PLP.Chemscore.Hbond>
3.5617

> <Gold.PLP.Chemscore.CHOScore>
0.9965

> <Gold.PLP.Chemscore.Metal>
0.0000

> <Gold.Chemscore.Hbonds>
donor molecule, donor type, donor heavy atom, donor atom, acceptor molecule, acceptor atom, score
      L1  H     4    24       P1  7948  0.72
      L1  H     9    32       P1  7948  1.00
      L1  H    12    33       P1  7948  0.87
      P1  H  7954  7966       L1     4  0.85
      L1  C    16    36       P1 10952  0.92

> <Gold.PLP.Chemscore.Internal.Correction>
0.0156

> <Gold.Rescore>
     Score         DG    S(hbond)    S(metal)    S(lipo)     H(rot)  DE(clash)    DE(int)     intcor
     17.66     -19.50       3.18        0.00      68.02       1.78       0.33       1.51       ----

> <Gold.Chemscore.Fitness>
17.6608

> <Gold.Chemscore.DG>
-19.5000

> <Gold.Chemscore.ZeroCoef>
-5.4800

> <Gold.Chemscore.Hbond>
3.1820

> <Gold.Chemscore.Metal>
0.0000

> <Gold.Chemscore.Lipo>
68.0227

> <Gold.Chemscore.Internal_Hbond>
0.0000

> <Gold.Chemscore.DEClash>
0.3285

> <Gold.Chemscore.DEInternal>
1.5107

> <Gold.Chemscore.Rot>
1.7838

> <Gold.Chemscore.Internal.Correction>
   9.000000E+99

> <Gold.Chemscore.Hbonds>
donor molecule, donor type, donor heavy atom, donor atom, acceptor molecule, acceptor atom, score
      L1  H     4    24       P1  7948  0.72
      L1  H     9    32       P1  7948  0.94
      L1  H    12    33       P1  7948  0.74
      P1  H  7954  7966       L1     4  0.15

> <Gold.Chemscore.Hbond.Weighted>
-10.6280

> <Gold.Chemscore.Metal.Weighted>
-0.0000

> <Gold.Chemscore.Lipo.Weighted>
-7.9587

> <Gold.Chemscore.Internal_Hbond.Weighted>
0.0000

> <Gold.Chemscore.DEClash.Weighted>
0.3285

> <Gold.Chemscore.DEInternal.Weighted>
1.5107

> <Gold.Chemscore.Rot.Weighted>
4.5666

> <Gold.Chemscore.Internal.Correction.Weighted>
   9.000000E+99

> <Gold.Protein.RotatedTorsions>
[ 6907 6896 6895 6894 ] final  -35.66 input  -60.11 | X-H torsion
[ 7974 7965 7964 7962 ] final -164.79 input  175.53 | X-H torsion
[ 8008 7997 7996 7995 ] final   76.95 input   59.86 | X-H torsion
[ 10167 10162 10161 10158 ] final  106.42 input  -65.29 | X-H torsion
[ 10718 10713 10712 10709 ] final -102.51 input   66.30 | X-H torsion
[ 10763 10752 10751 10750 ] final  112.39 input  -60.55 | X-H torsion
[ 11005 11000 10999 10996 ] final   49.12 input  -57.11 | X-H torsion

> <Gold.Protein.ActiveResidues>
 VAL166  LYS551  ARG553  GLY616  TRP617  ASP618  TYR619  PRO620  LYS621  CYS622 
 ASP623  PHE694  ASN695  SER759  ASP760  ASP761  ALA762  ILE779  LEU786  VAL792 
 PHE793  MET794  SER795  GLU796  ALA797  LYS798  CYS799  TRP800  GLU811  SER814 

> <Gold.Protein.RotatedAtoms>
  151.0370  134.9580  159.8140 H   0  0  0  0  0  0  0  0  0  0  0  0  # atno 6907 bound_to 6896
  152.5357  134.2707  159.8980 H   0  0  0  0  0  0  0  0  0  0  0  0  # atno 6908 bound_to 6896
  151.2718  133.4209  159.2655 H   0  0  0  0  0  0  0  0  0  0  0  0  # atno 6909 bound_to 6896
  144.7287  140.2909  143.6220 H   0  0  0  0  0  0  0  0  0  0  0  0  # atno 7974 bound_to 7965
  155.8346  140.3465  155.5594 H   0  0  0  0  0  0  0  0  0  0  0  0  # atno 8008 bound_to 7997
  155.8205  140.0912  157.1871 H   0  0  0  0  0  0  0  0  0  0  0  0  # atno 8009 bound_to 7997
  154.4004  140.1431  156.3482 H   0  0  0  0  0  0  0  0  0  0  0  0  # atno 8010 bound_to 7997
  139.7011  144.7094  151.1184 H   0  0  0  0  0  0  0  0  0  0  0  0  # atno 10167 bound_to 10162
  156.0231  130.5424  150.7119 H   0  0  0  0  0  0  0  0  0  0  0  0  # atno 10718 bound_to 10713
  153.4771  135.3687  155.2422 H   0  0  0  0  0  0  0  0  0  0  0  0  # atno 10763 bound_to 10752
  154.8756  135.3945  154.3743 H   0  0  0  0  0  0  0  0  0  0  0  0  # atno 10764 bound_to 10752
  153.4341  135.7083  153.6276 H   0  0  0  0  0  0  0  0  0  0  0  0  # atno 10765 bound_to 10752
  140.1131  134.4929  155.8661 H   0  0  0  0  0  0  0  0  0  0  0  0  # atno 11005 bound_to 11000
  145.7856  139.1908  143.2132 LP  0  0  0  0  0  0  0  0  0  0  0  0  # atno 17320 bound_to 7965
  146.0798  140.7777  142.9647 LP  0  0  0  0  0  0  0  0  0  0  0  0  # atno 17321 bound_to 7965
  140.7710  143.5423  150.9299 LP  0  0  0  0  0  0  0  0  0  0  0  0  # atno 17342 bound_to 10162
  139.9104  143.6726  152.3116 LP  0  0  0  0  0  0  0  0  0  0  0  0  # atno 17343 bound_to 10162
  157.4755  131.0897  151.0594 LP  0  0  0  0  0  0  0  0  0  0  0  0  # atno 17370 bound_to 10713
  157.1043  130.5995  149.5467 LP  0  0  0  0  0  0  0  0  0  0  0  0  # atno 17371 bound_to 10713
  141.2135  133.6734  156.6743 LP  0  0  0  0  0  0  0  0  0  0  0  0  # atno 17394 bound_to 11000
  140.3065  134.8121  157.4141 LP  0  0  0  0  0  0  0  0  0  0  0  0  # atno 17395 bound_to 11000

$$$$
