AV-unprocessed.smi:2822|AV-procd|sdf|10860|dock2
  -GOLD-   2272015303D 1   1.00000     0.00000
 Structure written by MMmdl.
 41 43  0  0  0  0  0  0  0  0  3 V2000
  145.6577  130.2129  151.0084 Cl  0  0  0  0  0  0  0  0  0  0  0  0
  145.2493  131.8929  151.0000 C   0  0  0  0  0  0  0  0  0  0  0  0
  144.0040  132.2965  150.4757 C   0  0  0  0  0  0  0  0  0  0  0  0
  143.6689  133.6039  150.4612 N   0  3  0  0  0  0  0  0  0  0  0  0
  144.4839  134.5706  150.9333 C   0  0  0  0  0  0  0  0  0  0  0  0
  145.7423  134.2299  151.4698 C   0  0  0  0  0  0  0  0  0  0  0  0
  146.1406  132.8700  151.5087 C   0  0  0  0  0  0  0  0  0  0  0  0
  147.3771  132.4631  152.0338 N   0  0  0  0  0  0  0  0  0  0  0  0
  148.0287  133.2097  153.0997 C   0  0  0  0  0  0  0  0  0  0  0  0
  148.7886  132.2793  154.0565 C   0  0  2  0  0  0  0  0  0  0  0  0
  149.9513  133.0071  154.7564 C   0  0  0  0  0  0  0  0  0  0  0  0
  150.7101  132.0708  155.6181 N   0  3  2  0  0  0  0  0  0  0  0  0
  151.8190  132.7404  156.3443 C   0  0  0  0  0  0  0  0  0  0  0  0
  152.5249  131.7639  157.2990 C   0  0  0  0  0  0  0  0  0  0  0  0
  153.0271  130.5274  156.5429 C   0  0  0  0  0  0  0  0  0  0  0  0
  151.8689  129.8715  155.7792 C   0  0  0  0  0  0  0  0  0  0  0  0
  151.1685  130.8820  154.8489 C   0  0  1  0  0  0  0  0  0  0  0  0
  149.9757  130.2368  154.1163 C   0  0  0  0  0  0  0  0  0  0  0  0
  149.3294  131.2032  153.2975 O   0  0  0  0  0  0  0  0  0  0  0  0
  143.2699  131.6158  150.0698 H   0  0  0  0  0  0  0  0  0  0  0  0
  144.1076  135.5813  150.8690 H   0  0  0  0  0  0  0  0  0  0  0  0
  146.3787  135.0179  151.8440 H   0  0  0  0  0  0  0  0  0  0  0  0
  147.9142  131.7660  151.5368 H   0  0  0  0  0  0  0  0  0  0  0  0
  148.7090  133.9475  152.6723 H   0  0  0  0  0  0  0  0  0  0  0  0
  147.2653  133.7539  153.6570 H   0  0  0  0  0  0  0  0  0  0  0  0
  148.0960  131.8932  154.8076 H   0  0  0  0  0  0  0  0  0  0  0  0
  150.6218  133.4460  154.0156 H   0  0  0  0  0  0  0  0  0  0  0  0
  149.5648  133.8266  155.3638 H   0  0  0  0  0  0  0  0  0  0  0  0
  152.5347  133.1444  155.6266 H   0  0  0  0  0  0  0  0  0  0  0  0
  151.4269  133.5855  156.9115 H   0  0  0  0  0  0  0  0  0  0  0  0
  153.3592  132.2628  157.7932 H   0  0  0  0  0  0  0  0  0  0  0  0
  151.8358  131.4578  158.0874 H   0  0  0  0  0  0  0  0  0  0  0  0
  153.8140  130.8159  155.8446 H   0  0  0  0  0  0  0  0  0  0  0  0
  153.4722  129.8147  157.2379 H   0  0  0  0  0  0  0  0  0  0  0  0
  152.2431  129.0262  155.2004 H   0  0  0  0  0  0  0  0  0  0  0  0
  151.1500  129.4635  156.4913 H   0  0  0  0  0  0  0  0  0  0  0  0
  151.8862  131.2214  154.0996 H   0  0  0  0  0  0  0  0  0  0  0  0
  150.3213  129.4194  153.4829 H   0  0  0  0  0  0  0  0  0  0  0  0
  149.2623  129.8097  154.8235 H   0  0  0  0  0  0  0  0  0  0  0  0
  150.0660  131.7325  156.3189 H   0  0  0  0  0  0  0  0  0  0  0  0
  142.7622  133.8721  150.0775 H   0  0  0  0  0  0  0  0  0  0  0  0
  1  2  1  0  0  0  0
  2  7  1  0  0  0  0
  2  3  2  0  0  0  0
  3  4  1  0  0  0  0
  3 20  1  0  0  0  0
  4  5  2  0  0  0  0
  4 41  1  0  0  0  0
  5  6  1  0  0  0  0
  5 21  1  0  0  0  0
  6  7  2  0  0  0  0
  6 22  1  0  0  0  0
  7  8  1  0  0  0  0
  8  9  1  0  0  0  0
  8 23  1  0  0  0  0
  9 10  1  0  0  0  0
  9 24  1  0  0  0  0
  9 25  1  0  0  0  0
 10 19  1  0  0  0  0
 10 11  1  0  0  0  0
 10 26  1  0  0  0  0
 11 12  1  0  0  0  0
 11 27  1  0  0  0  0
 11 28  1  0  0  0  0
 12 17  1  0  0  0  0
 12 13  1  0  0  0  0
 12 40  1  0  0  0  0
 13 14  1  0  0  0  0
 13 29  1  0  0  0  0
 13 30  1  0  0  0  0
 14 15  1  0  0  0  0
 14 31  1  0  0  0  0
 14 32  1  0  0  0  0
 15 16  1  0  0  0  0
 15 33  1  0  0  0  0
 15 34  1  0  0  0  0
 16 17  1  0  0  0  0
 16 35  1  0  0  0  0
 16 36  1  0  0  0  0
 17 18  1  0  0  0  0
 17 37  1  0  0  0  0
 18 19  1  0  0  0  0
 18 38  1  0  0  0  0
 18 39  1  0  0  0  0
M  CHG  1   4   1
M  CHG  1  12   1
M  END
> <s_m_source_file>
AV-unprocessed.smi

> <i_m_source_file_index>
2822

> <i_lp_mmshare_version>
43012

> <i_f3d_flags>
0

> <s_epik_input>
Q2xjMVtjSF1uW2NIXVtjSF1jMVtOSF1bQ0gyXVtDQEhdKFtDSDJdMilPW0NIMl1bQ0BASF0oTjIzKVtDSDJdW0NIMl1bQ0gyXVtDSDJdMw==

> <s_epik_cmdline>
J2VwaWtfcHl0aG9uJywgJy1waCcsICc3LjAnLCAnLXRuJywgJzgnLCAnLW1hJywgJzIwMCcsICctbWV0YWxfYmluZGluZycsICctaW1hZScsICc8aW5maWxlLm1hZT4nLCAnLW9tYWUnLCAnPG91dGZpbGUubWFlPic=

> <r_lp_tautomer_probability>
1

> <r_epik_Ionization_Penalty>
0.254999

> <r_epik_Ionization_Penalty_Charging>
0.254956

> <r_epik_Ionization_Penalty_Neutral>
4.33524e-05

> <r_epik_State_Penalty>
0.230978

> <r_epik_Charging_Adjusted_Penalty>
0.485934

> <i_epik_Tot_Q>
2

> <i_epik_Tot_abs_Q>
2

> <r_epik_Metal_State_Penalty>
3.47007

> <b_epik_Metal_Only>
0

> <s_lp_Force_Field>
OPLS_2005

> <r_lp_Energy>
36.8988

> <b_lp_Chiralities_Consistent>
1

> <s_lp_Variant>
AV-unprocessed.smi:2822-1

> <Gold.Version>
5.8.1

> <Gold.Id.Protein>
6NUR|6NUR_protein|mol2

> <Gold.PLP.Fitness>
42.5164

> <Gold.PLP.PLP>
-34.8398

> <Gold.PLP.part.hbond>
-2.0000

> <Gold.PLP.part.metal>
0.0000

> <Gold.PLP.part.buried>
-5.6541

> <Gold.PLP.part.nonpolar>
-26.4907

> <Gold.PLP.part.repulsive>
0.1503

> <Gold.PLP.ligand.clash>
0.0000

> <Gold.PLP.ligand.torsion>
0.6508

> <Gold.PLP.Chemscore.Hbond>
2.9920

> <Gold.PLP.Chemscore.CHOScore>
0.0000

> <Gold.PLP.Chemscore.Metal>
0.0000

> <Gold.Chemscore.Hbonds>
donor molecule, donor type, donor heavy atom, donor atom, acceptor molecule, acceptor atom, score
      L1  H     4    41       P1 10186  2.00
      L1  H     8    23       P1 10747  1.00

> <Gold.PLP.Chemscore.Internal.Correction>
0.0023

> <Gold.Rescore>
     Score         DG    S(hbond)    S(metal)    S(lipo)     H(rot)  DE(clash)    DE(int)     intcor
     18.80     -19.61       1.98        0.00      90.53       1.20       0.12       0.69       ----

> <Gold.Chemscore.Fitness>
18.8022

> <Gold.Chemscore.DG>
-19.6119

> <Gold.Chemscore.ZeroCoef>
-5.4800

> <Gold.Chemscore.Hbond>
1.9767

> <Gold.Chemscore.Metal>
0.0000

> <Gold.Chemscore.Lipo>
90.5287

> <Gold.Chemscore.Internal_Hbond>
0.0000

> <Gold.Chemscore.DEClash>
0.1172

> <Gold.Chemscore.DEInternal>
0.6925

> <Gold.Chemscore.Rot>
1.1962

> <Gold.Chemscore.Internal.Correction>
   9.000000E+99

> <Gold.Chemscore.Hbonds>
donor molecule, donor type, donor heavy atom, donor atom, acceptor molecule, acceptor atom, score
      L1  H     4    41       P1 10186  0.99
      L1  H     8    23       P1 10747  1.00

> <Gold.Chemscore.Hbond.Weighted>
-6.6023

> <Gold.Chemscore.Metal.Weighted>
-0.0000

> <Gold.Chemscore.Lipo.Weighted>
-10.5919

> <Gold.Chemscore.Internal_Hbond.Weighted>
0.0000

> <Gold.Chemscore.DEClash.Weighted>
0.1172

> <Gold.Chemscore.DEInternal.Weighted>
0.6925

> <Gold.Chemscore.Rot.Weighted>
3.0623

> <Gold.Chemscore.Internal.Correction.Weighted>
   9.000000E+99

> <Gold.Protein.RotatedTorsions>
[ 6907 6896 6895 6894 ] final   39.98 input  -60.11 | X-H torsion
[ 7974 7965 7964 7962 ] final  -72.92 input  175.53 | X-H torsion
[ 8008 7997 7996 7995 ] final   99.76 input   59.86 | X-H torsion
[ 10167 10162 10161 10158 ] final  -35.71 input  -65.29 | X-H torsion
[ 10718 10713 10712 10709 ] final    4.32 input   66.30 | X-H torsion
[ 10763 10752 10751 10750 ] final  -55.83 input  -60.55 | X-H torsion
[ 11005 11000 10999 10996 ] final -162.63 input  -57.11 | X-H torsion

> <Gold.Protein.ActiveResidues>
 VAL166  LYS551  ARG553  GLY616  TRP617  ASP618  TYR619  PRO620  LYS621  CYS622 
 ASP623  PHE694  ASN695  SER759  ASP760  ASP761  ALA762  ILE779  LEU786  VAL792 
 PHE793  MET794  SER795  GLU796  ALA797  LYS798  CYS799  TRP800  GLU811  SER814 

> <Gold.Protein.RotatedAtoms>
  152.1766  134.8790  160.0529 H   0  0  0  0  0  0  0  0  0  0  0  0  # atno 6907 bound_to 6896
  151.9730  133.3727  159.4086 H   0  0  0  0  0  0  0  0  0  0  0  0  # atno 6908 bound_to 6896
  150.6910  134.4043  159.5177 H   0  0  0  0  0  0  0  0  0  0  0  0  # atno 6909 bound_to 6896
  145.6589  140.9259  143.0944 H   0  0  0  0  0  0  0  0  0  0  0  0  # atno 7974 bound_to 7965
  156.1136  140.3224  155.8108 H   0  0  0  0  0  0  0  0  0  0  0  0  # atno 8008 bound_to 7997
  155.4629  140.0541  157.3006 H   0  0  0  0  0  0  0  0  0  0  0  0  # atno 8009 bound_to 7997
  154.4777  140.2039  155.9852 H   0  0  0  0  0  0  0  0  0  0  0  0  # atno 8010 bound_to 7997
  140.7159  143.3458  151.2259 H   0  0  0  0  0  0  0  0  0  0  0  0  # atno 10167 bound_to 10162
  156.8909  130.5687  149.5650 H   0  0  0  0  0  0  0  0  0  0  0  0  # atno 10718 bound_to 10713
  154.1970  135.6417  153.5076 H   0  0  0  0  0  0  0  0  0  0  0  0  # atno 10763 bound_to 10752
  153.0021  135.5442  154.6355 H   0  0  0  0  0  0  0  0  0  0  0  0  # atno 10764 bound_to 10752
  154.5758  135.2921  155.0755 H   0  0  0  0  0  0  0  0  0  0  0  0  # atno 10765 bound_to 10752
  140.6071  134.4888  157.5211 H   0  0  0  0  0  0  0  0  0  0  0  0  # atno 11005 bound_to 11000
  144.7096  139.8423  143.7419 LP  0  0  0  0  0  0  0  0  0  0  0  0  # atno 17320 bound_to 7965
  146.1142  139.4150  143.0269 LP  0  0  0  0  0  0  0  0  0  0  0  0  # atno 17321 bound_to 7965
  139.6977  143.9585  152.2891 LP  0  0  0  0  0  0  0  0  0  0  0  0  # atno 17342 bound_to 10162
  139.9267  144.6766  150.8404 LP  0  0  0  0  0  0  0  0  0  0  0  0  # atno 17343 bound_to 10162
  156.0629  130.5678  150.9230 LP  0  0  0  0  0  0  0  0  0  0  0  0  # atno 17370 bound_to 10713
  157.6084  131.0938  150.8838 LP  0  0  0  0  0  0  0  0  0  0  0  0  # atno 17371 bound_to 10713
  139.9208  134.8153  156.1219 LP  0  0  0  0  0  0  0  0  0  0  0  0  # atno 17394 bound_to 11000
  141.0833  133.6745  156.2383 LP  0  0  0  0  0  0  0  0  0  0  0  0  # atno 17395 bound_to 11000

$$$$
