AV-unprocessed.smi:1313|AV-procd|sdf|5451|dock4
  -GOLD-   22720 5 23D 1   1.00000     0.00000
 Structure written by MMmdl.
 37 38  0  0  0  0  0  0  0  0  1 V2000
  150.9755  143.3227  157.9348 C   0  0  0  0  0  0  0  0  0  0  0  0
  150.8942  142.0371  157.1408 C   0  0  0  0  0  0  0  0  0  0  0  0
  149.9298  142.0579  156.1471 N   0  0  0  0  0  0  0  0  0  0  0  0
  149.7772  140.9240  155.3688 C   0  0  0  0  0  0  0  0  0  0  0  0
  148.6970  141.0307  154.3062 C   0  0  0  0  0  0  0  0  0  0  0  0
  150.5500  139.8258  155.5682 C   0  0  0  0  0  0  0  0  0  0  0  0
  150.4129  138.5559  154.7305 C   0  0  0  0  0  0  0  0  0  0  0  0
  149.8232  137.3518  155.4670 C   0  0  0  0  0  0  0  0  0  0  0  0
  149.8467  137.3111  156.6968 O   0  0  0  0  0  0  0  0  0  0  0  0
  149.3070  136.3756  154.7047 N   0  0  0  0  0  0  0  0  0  0  0  0
  148.7295  135.1320  155.2073 C   0  0  0  0  0  0  0  0  0  0  0  0
  149.7045  133.9559  155.0047 C   0  0  0  0  0  0  0  0  0  0  0  0
  148.8873  132.8327  154.3637 C   0  0  0  0  0  0  0  0  0  0  0  0
  147.8048  133.5582  153.5712 C   0  0  0  0  0  0  0  0  0  0  0  0
  147.4417  134.7572  154.4469 C   0  0  0  0  0  0  0  0  0  0  0  0
  151.5712  139.8667  156.6418 C   0  0  0  0  0  0  0  0  0  0  0  0
  152.3124  138.9101  156.8634 O   0  0  0  0  0  0  0  0  0  0  0  0
  151.6798  141.0387  157.4079 N   0  0  0  0  0  0  0  0  0  0  0  0
  149.3355  142.8535  155.9641 H   0  0  0  0  0  0  0  0  0  0  0  0
  151.7365  143.2531  158.7131 H   0  0  0  0  0  0  0  0  0  0  0  0
  150.0188  143.5364  158.4121 H   0  0  0  0  0  0  0  0  0  0  0  0
  151.2318  144.1570  157.2813 H   0  0  0  0  0  0  0  0  0  0  0  0
  147.9339  140.2675  154.4586 H   0  0  0  0  0  0  0  0  0  0  0  0
  149.1249  140.8994  153.3124 H   0  0  0  0  0  0  0  0  0  0  0  0
  148.2050  142.0038  154.3302 H   0  0  0  0  0  0  0  0  0  0  0  0
  151.3967  138.2927  154.3403 H   0  0  0  0  0  0  0  0  0  0  0  0
  149.8082  138.7415  153.8424 H   0  0  0  0  0  0  0  0  0  0  0  0
  149.3282  136.4956  153.7024 H   0  0  0  0  0  0  0  0  0  0  0  0
  148.5062  135.2372  156.2707 H   0  0  0  0  0  0  0  0  0  0  0  0
  150.5127  134.2366  154.3274 H   0  0  0  0  0  0  0  0  0  0  0  0
  150.1662  133.6390  155.9403 H   0  0  0  0  0  0  0  0  0  0  0  0
  149.4941  132.1738  153.7418 H   0  0  0  0  0  0  0  0  0  0  0  0
  148.4252  132.2237  155.1417 H   0  0  0  0  0  0  0  0  0  0  0  0
  148.2152  133.9062  152.6224 H   0  0  0  0  0  0  0  0  0  0  0  0
  146.9461  132.9232  153.3511 H   0  0  0  0  0  0  0  0  0  0  0  0
  146.6771  134.4582  155.1653 H   0  0  0  0  0  0  0  0  0  0  0  0
  147.0248  135.5785  153.8623 H   0  0  0  0  0  0  0  0  0  0  0  0
  1 20  1  0  0  0  0
  1 21  1  0  0  0  0
  1 22  1  0  0  0  0
  1  2  1  0  0  0  0
  2  3  1  0  0  0  0
  2 18  2  0  0  0  0
  3  4  1  0  0  0  0
  3 19  1  0  0  0  0
  4  6  2  0  0  0  0
  4  5  1  0  0  0  0
  5 23  1  0  0  0  0
  5 24  1  0  0  0  0
  5 25  1  0  0  0  0
  6 16  1  0  0  0  0
  6  7  1  0  0  0  0
  7  8  1  0  0  0  0
  7 26  1  0  0  0  0
  7 27  1  0  0  0  0
  8  9  2  0  0  0  0
  8 10  1  0  0  0  0
 10 11  1  0  0  0  0
 10 28  1  0  0  0  0
 11 15  1  0  0  0  0
 11 12  1  0  0  0  0
 11 29  1  0  0  0  0
 12 13  1  0  0  0  0
 12 30  1  0  0  0  0
 12 31  1  0  0  0  0
 13 14  1  0  0  0  0
 13 32  1  0  0  0  0
 13 33  1  0  0  0  0
 14 15  1  0  0  0  0
 14 34  1  0  0  0  0
 14 35  1  0  0  0  0
 15 36  1  0  0  0  0
 15 37  1  0  0  0  0
 16 17  2  0  0  0  0
 16 18  1  0  0  0  0
M  END
> <s_m_source_file>
AV-unprocessed.smi

> <i_m_source_file_index>
1313

> <i_lp_mmshare_version>
43012

> <i_f3d_flags>
0

> <s_epik_input>
W0NIM11jMW5jKFtDSDNdKWMoYyg9TylbbkhdMSlbQ0gyXUMoPU8pW05IXVtDSF0yW0NIMl1bQ0gyXVtDSDJdW0NIMl0y

> <s_epik_cmdline>
J2VwaWtfcHl0aG9uJywgJy1waCcsICc3LjAnLCAnLXRuJywgJzgnLCAnLW1hJywgJzIwMCcsICctbWV0YWxfYmluZGluZycsICctaW1hZScsICc8aW5maWxlLm1hZT4nLCAnLW9tYWUnLCAnPG91dGZpbGUubWFlPic=

> <r_lp_tautomer_probability>
0.156392

> <r_epik_Ionization_Penalty>
0.0140409

> <r_epik_Ionization_Penalty_Charging>
0.0139177

> <r_epik_Ionization_Penalty_Neutral>
0.000123229

> <r_epik_State_Penalty>
1.53066

> <r_epik_Charging_Adjusted_Penalty>
1.54458

> <i_epik_Tot_Q>
0

> <i_epik_Tot_abs_Q>
0

> <r_epik_Metal_State_Penalty>
1.70649

> <b_epik_Metal_Only>
0

> <s_lp_Force_Field>
OPLS_2005

> <r_lp_Energy>
23.2441

> <b_lp_Chiralities_Consistent>
1

> <s_lp_Variant>
AV-unprocessed.smi:1313-2

> <Gold.Version>
5.8.1

> <Gold.Id.Protein>
6NUR|6NUR_protein|mol2

> <Gold.PLP.Fitness>
39.3085

> <Gold.PLP.PLP>
-31.5592

> <Gold.PLP.part.hbond>
-3.0000

> <Gold.PLP.part.metal>
0.0000

> <Gold.PLP.part.buried>
-0.9981

> <Gold.PLP.part.nonpolar>
-27.4081

> <Gold.PLP.part.repulsive>
0.1514

> <Gold.PLP.ligand.clash>
0.0000

> <Gold.PLP.ligand.torsion>
0.6136

> <Gold.PLP.Chemscore.Hbond>
2.9913

> <Gold.PLP.Chemscore.CHOScore>
0.0000

> <Gold.PLP.Chemscore.Metal>
0.0000

> <Gold.Chemscore.Hbonds>
donor molecule, donor type, donor heavy atom, donor atom, acceptor molecule, acceptor atom, score
      L1  H     3    19       P1  8028  1.00
      L1  H    10    28       P1  7948  1.00
      P1  H  7997  8010       L1    17  0.01

> <Gold.PLP.Chemscore.Internal.Correction>
0.0028

> <Gold.Rescore>
     Score         DG    S(hbond)    S(metal)    S(lipo)     H(rot)  DE(clash)    DE(int)     intcor
     15.53     -17.73       2.59        0.00      63.89       1.51       1.52       0.67       ----

> <Gold.Chemscore.Fitness>
15.5343

> <Gold.Chemscore.DG>
-17.7326

> <Gold.Chemscore.ZeroCoef>
-5.4800

> <Gold.Chemscore.Hbond>
2.5899

> <Gold.Chemscore.Metal>
0.0000

> <Gold.Chemscore.Lipo>
63.8901

> <Gold.Chemscore.Internal_Hbond>
0.0000

> <Gold.Chemscore.DEClash>
1.5238

> <Gold.Chemscore.DEInternal>
0.6745

> <Gold.Chemscore.Rot>
1.5128

> <Gold.Chemscore.Internal.Correction>
   9.000000E+99

> <Gold.Chemscore.Hbonds>
donor molecule, donor type, donor heavy atom, donor atom, acceptor molecule, acceptor atom, score
      L1  H     3    19       P1  8028  0.98
      L1  H    10    28       P1  7948  0.90
      P1  H  7997  8010       L1    17  0.01

> <Gold.Chemscore.Hbond.Weighted>
-8.6501

> <Gold.Chemscore.Metal.Weighted>
-0.0000

> <Gold.Chemscore.Lipo.Weighted>
-7.4751

> <Gold.Chemscore.Internal_Hbond.Weighted>
0.0000

> <Gold.Chemscore.DEClash.Weighted>
1.5238

> <Gold.Chemscore.DEInternal.Weighted>
0.6745

> <Gold.Chemscore.Rot.Weighted>
3.8727

> <Gold.Chemscore.Internal.Correction.Weighted>
   9.000000E+99

> <Gold.Protein.RotatedTorsions>
[ 6907 6896 6895 6894 ] final  -17.82 input  -60.11 | X-H torsion
[ 7974 7965 7964 7962 ] final  120.26 input  175.53 | X-H torsion
[ 8008 7997 7996 7995 ] final   79.50 input   59.86 | X-H torsion
[ 10167 10162 10161 10158 ] final  119.38 input  -65.29 | X-H torsion
[ 10718 10713 10712 10709 ] final  165.17 input   66.30 | X-H torsion
[ 10763 10752 10751 10750 ] final -123.09 input  -60.55 | X-H torsion
[ 11005 11000 10999 10996 ] final   28.63 input  -57.11 | X-H torsion

> <Gold.Protein.ActiveResidues>
 VAL166  LYS551  ARG553  GLY616  TRP617  ASP618  TYR619  PRO620  LYS621  CYS622 
 ASP623  PHE694  ASN695  SER759  ASP760  ASP761  ALA762  ILE779  LEU786  VAL792 
 PHE793  MET794  SER795  GLU796  ALA797  LYS798  CYS799  TRP800  GLU811  SER814 

> <Gold.Protein.RotatedAtoms>
  151.2875  135.0732  159.9191 H   0  0  0  0  0  0  0  0  0  0  0  0  # atno 6907 bound_to 6896
  152.5323  133.9967  159.7886 H   0  0  0  0  0  0  0  0  0  0  0  0  # atno 6908 bound_to 6896
  151.0231  133.5808  159.2699 H   0  0  0  0  0  0  0  0  0  0  0  0  # atno 6909 bound_to 6896
  145.1333  139.3314  143.4654 H   0  0  0  0  0  0  0  0  0  0  0  0  # atno 7974 bound_to 7965
  155.8706  140.3449  155.5818 H   0  0  0  0  0  0  0  0  0  0  0  0  # atno 8008 bound_to 7997
  155.7832  140.0861  157.2067 H   0  0  0  0  0  0  0  0  0  0  0  0  # atno 8009 bound_to 7997
  154.4017  140.1497  156.3063 H   0  0  0  0  0  0  0  0  0  0  0  0  # atno 8010 bound_to 7997
  139.6049  144.7067  151.2975 H   0  0  0  0  0  0  0  0  0  0  0  0  # atno 10167 bound_to 10162
  157.0840  131.0400  151.2564 H   0  0  0  0  0  0  0  0  0  0  0  0  # atno 10718 bound_to 10713
  154.8701  135.4110  154.2887 H   0  0  0  0  0  0  0  0  0  0  0  0  # atno 10763 bound_to 10752
  153.3767  135.7010  153.6602 H   0  0  0  0  0  0  0  0  0  0  0  0  # atno 10764 bound_to 10752
  153.5441  135.3642  155.2703 H   0  0  0  0  0  0  0  0  0  0  0  0  # atno 10765 bound_to 10752
  140.3135  134.2623  155.7730 H   0  0  0  0  0  0  0  0  0  0  0  0  # atno 11005 bound_to 11000
  146.3512  140.1340  142.8596 LP  0  0  0  0  0  0  0  0  0  0  0  0  # atno 17320 bound_to 7965
  145.0612  140.9089  143.4937 LP  0  0  0  0  0  0  0  0  0  0  0  0  # atno 17321 bound_to 7965
  140.7278  143.6954  150.7888 LP  0  0  0  0  0  0  0  0  0  0  0  0  # atno 17342 bound_to 10162
  140.0538  143.5223  152.2661 LP  0  0  0  0  0  0  0  0  0  0  0  0  # atno 17343 bound_to 10162
  157.4777  130.7746  149.7383 LP  0  0  0  0  0  0  0  0  0  0  0  0  # atno 17370 bound_to 10713
  155.9916  130.3936  150.2978 LP  0  0  0  0  0  0  0  0  0  0  0  0  # atno 17371 bound_to 10713
  141.2103  133.7724  156.9942 LP  0  0  0  0  0  0  0  0  0  0  0  0  # atno 17394 bound_to 11000
  140.1004  134.9539  157.1914 LP  0  0  0  0  0  0  0  0  0  0  0  0  # atno 17395 bound_to 11000

$$$$
