AV-unprocessed.smi:1748|AV-procd|sdf|7041|dock9
  -GOLD-   22720 8263D 1   1.00000     0.00000
 Structure written by MMmdl.
 39 40  0  0  0  0  0  0  0  0  3 V2000
  145.3608  135.8114  150.3610 C   0  0  0  0  0  0  0  0  0  0  0  0
  145.9943  135.4306  151.6415 N   0  3  2  0  0  0  0  0  0  0  0  0
  145.9704  133.9644  151.8732 C   0  0  0  0  0  0  0  0  0  0  0  0
  146.7466  133.5904  153.1482 C   0  0  0  0  0  0  0  0  0  0  0  0
  146.2335  134.3757  154.3681 C   0  0  0  0  0  0  0  0  0  0  0  0
  146.2298  135.8897  154.0877 C   0  0  1  0  0  0  0  0  0  0  0  0
  147.6048  136.3798  153.9943 N   0  0  0  0  0  0  0  0  0  0  0  0
  148.1754  137.2598  154.8288 C   0  0  0  0  0  0  0  0  0  0  0  0
  147.5916  137.7454  155.7974 O   0  0  0  0  0  0  0  0  0  0  0  0
  149.4274  137.5489  154.4335 N   0  0  0  0  0  0  0  0  0  0  0  0
  150.3525  138.4354  155.0080 C   0  0  0  0  0  0  0  0  0  0  0  0
  150.0238  139.4749  155.8234 C   0  0  0  0  0  0  0  0  0  0  0  0
  151.0274  140.3605  156.4002 C   0  0  0  0  0  0  0  0  0  0  0  0
  150.7014  141.4768  157.3769 C   0  0  0  0  0  0  0  0  0  0  0  0
  149.3929  141.5320  157.6269 F   0  0  0  0  0  0  0  0  0  0  0  0
  151.3374  141.2711  158.5295 F   0  0  0  0  0  0  0  0  0  0  0  0
  151.0872  142.6582  156.8950 F   0  0  0  0  0  0  0  0  0  0  0  0
  152.3125  139.9976  156.0454 C   0  0  0  0  0  0  0  0  0  0  0  0
  152.7210  138.9925  155.2396 N   0  5  0  0  0  0  0  0  0  0  0  0
  151.7737  138.1733  154.7026 C   0  0  0  0  0  0  0  0  0  0  0  0
  152.0754  137.2292  153.9713 O   0  0  0  0  0  0  0  0  0  0  0  0
  145.4338  136.1782  152.7951 C   0  0  0  0  0  0  0  0  0  0  0  0
  144.2974  135.5694  150.3627 H   0  0  0  0  0  0  0  0  0  0  0  0
  145.8305  135.2870  149.5284 H   0  0  0  0  0  0  0  0  0  0  0  0
  145.4687  136.8819  150.1825 H   0  0  0  0  0  0  0  0  0  0  0  0
  144.9363  133.6245  151.9507 H   0  0  0  0  0  0  0  0  0  0  0  0
  146.4097  133.4509  151.0170 H   0  0  0  0  0  0  0  0  0  0  0  0
  146.6616  132.5194  153.3341 H   0  0  0  0  0  0  0  0  0  0  0  0
  147.8086  133.7900  152.9997 H   0  0  0  0  0  0  0  0  0  0  0  0
  145.2195  134.0502  154.6044 H   0  0  0  0  0  0  0  0  0  0  0  0
  146.8395  134.1498  155.2465 H   0  0  0  0  0  0  0  0  0  0  0  0
  145.7449  136.3942  154.9252 H   0  0  0  0  0  0  0  0  0  0  0  0
  148.1627  136.0273  153.2300 H   0  0  0  0  0  0  0  0  0  0  0  0
  149.7403  137.1250  153.5722 H   0  0  0  0  0  0  0  0  0  0  0  0
  148.9957  139.6660  156.0845 H   0  0  0  0  0  0  0  0  0  0  0  0
  153.1376  140.6018  156.4792 H   0  0  0  0  0  0  0  0  0  0  0  0
  145.4409  137.2471  152.5775 H   0  0  0  0  0  0  0  0  0  0  0  0
  144.3874  135.9005  152.9318 H   0  0  0  0  0  0  0  0  0  0  0  0
  146.9656  135.6990  151.5708 H   0  0  0  0  0  0  0  0  0  0  0  0
  1  2  1  0  0  0  0
  1 23  1  0  0  0  0
  1 24  1  0  0  0  0
  1 25  1  0  0  0  0
  2 22  1  0  0  0  0
  2  3  1  0  0  0  0
  2 39  1  0  0  0  0
  3  4  1  0  0  0  0
  3 26  1  0  0  0  0
  3 27  1  0  0  0  0
  4  5  1  0  0  0  0
  4 28  1  0  0  0  0
  4 29  1  0  0  0  0
  5  6  1  0  0  0  0
  5 30  1  0  0  0  0
  5 31  1  0  0  0  0
  6  7  1  0  0  0  0
  6 22  1  0  0  0  0
  6 32  1  0  0  0  0
  7  8  1  0  0  0  0
  7 33  1  0  0  0  0
  8  9  2  0  0  0  0
  8 10  1  0  0  0  0
 10 11  1  0  0  0  0
 10 34  1  0  0  0  0
 11 20  1  0  0  0  0
 11 12  2  0  0  0  0
 12 13  1  0  0  0  0
 12 35  1  0  0  0  0
 13 14  1  0  0  0  0
 13 18  2  0  0  0  0
 14 15  1  0  0  0  0
 14 16  1  0  0  0  0
 14 17  1  0  0  0  0
 18 19  1  0  0  0  0
 18 36  1  0  0  0  0
 19 20  1  0  0  0  0
 20 21  2  0  0  0  0
 22 37  1  0  0  0  0
 22 38  1  0  0  0  0
M  CHG  1   2   1
M  CHG  1  19  -1
M  END
> <s_m_source_file>
AV-unprocessed.smi

> <i_m_source_file_index>
1748

> <i_lp_mmshare_version>
43012

> <i_f3d_flags>
0

> <s_epik_input>
W0NIM11OMVtDSDJdW0NIMl1bQ0gyXVtDQEhdKFtDSDJdMSlbTkhdQyg9TylbTkhdYzJbY0hdYyhDKEYpKEYpRilbY0hdW25IXWMyPU8=

> <s_epik_cmdline>
J2VwaWtfcHl0aG9uJywgJy1waCcsICc3LjAnLCAnLXRuJywgJzgnLCAnLW1hJywgJzIwMCcsICctbWV0YWxfYmluZGluZycsICctaW1hZScsICc8aW5maWxlLm1hZT4nLCAnLW9tYWUnLCAnPG91dGZpbGUubWFlPic=

> <r_lp_tautomer_probability>
1

> <r_epik_Ionization_Penalty>
3.00907

> <r_epik_Ionization_Penalty_Charging>
0.148702

> <r_epik_Ionization_Penalty_Neutral>
2.86036

> <r_epik_State_Penalty>
2.85557

> <r_epik_Charging_Adjusted_Penalty>
3.00428

> <i_epik_Tot_Q>
0

> <i_epik_Tot_abs_Q>
2

> <r_epik_Metal_State_Penalty>
0.443779

> <b_epik_Metal_Only>
1

> <s_lp_Force_Field>
OPLS_2005

> <r_lp_Energy>
32.6678

> <b_lp_Chiralities_Consistent>
1

> <s_lp_Variant>
AV-unprocessed.smi:1748-6

> <Gold.Version>
5.8.1

> <Gold.Id.Protein>
6NUR|6NUR_protein|mol2

> <Gold.PLP.Fitness>
41.7958

> <Gold.PLP.PLP>
-27.7089

> <Gold.PLP.part.hbond>
-4.4567

> <Gold.PLP.part.metal>
0.0000

> <Gold.PLP.part.buried>
-2.0080

> <Gold.PLP.part.nonpolar>
-23.1076

> <Gold.PLP.part.repulsive>
1.5460

> <Gold.PLP.ligand.clash>
0.0000

> <Gold.PLP.ligand.torsion>
0.1641

> <Gold.PLP.Chemscore.Hbond>
4.7876

> <Gold.PLP.Chemscore.CHOScore>
0.0000

> <Gold.PLP.Chemscore.Metal>
0.0000

> <Gold.Chemscore.Hbonds>
donor molecule, donor type, donor heavy atom, donor atom, acceptor molecule, acceptor atom, score
      L1  H     2    39       P1  7948  1.95
      L1  H     7    33       P1  7948  1.00
      L1  H    10    34       P1  7948  0.80
      P1  H 10752 10765       L1    21  1.00

> <Gold.PLP.Chemscore.Internal.Correction>
0.0523

> <Gold.Rescore>
     Score         DG    S(hbond)    S(metal)    S(lipo)     H(rot)  DE(clash)    DE(int)     intcor
     16.93     -18.93       3.04        0.00      50.08       1.00       0.76       1.23       ----

> <Gold.Chemscore.Fitness>
16.9333

> <Gold.Chemscore.DG>
-18.9276

> <Gold.Chemscore.ZeroCoef>
-5.4800

> <Gold.Chemscore.Hbond>
3.0383

> <Gold.Chemscore.Metal>
0.0000

> <Gold.Chemscore.Lipo>
50.0833

> <Gold.Chemscore.Internal_Hbond>
0.0000

> <Gold.Chemscore.DEClash>
0.7597

> <Gold.Chemscore.DEInternal>
1.2346

> <Gold.Chemscore.Rot>
1.0000

> <Gold.Chemscore.Internal.Correction>
   9.000000E+99

> <Gold.Chemscore.Hbonds>
donor molecule, donor type, donor heavy atom, donor atom, acceptor molecule, acceptor atom, score
      L1  H     2    39       P1  7948  0.92
      L1  H     7    33       P1  7948  0.94
      L1  H    10    34       P1  7948  0.48
      P1  H 10752 10765       L1    21  0.94

> <Gold.Chemscore.Hbond.Weighted>
-10.1479

> <Gold.Chemscore.Metal.Weighted>
-0.0000

> <Gold.Chemscore.Lipo.Weighted>
-5.8597

> <Gold.Chemscore.Internal_Hbond.Weighted>
0.0000

> <Gold.Chemscore.DEClash.Weighted>
0.7597

> <Gold.Chemscore.DEInternal.Weighted>
1.2346

> <Gold.Chemscore.Rot.Weighted>
2.5600

> <Gold.Chemscore.Internal.Correction.Weighted>
   9.000000E+99

> <Gold.Protein.RotatedTorsions>
[ 6907 6896 6895 6894 ] final  -35.71 input  -60.11 | X-H torsion
[ 7974 7965 7964 7962 ] final  153.15 input  175.53 | X-H torsion
[ 8008 7997 7996 7995 ] final -126.69 input   59.86 | X-H torsion
[ 10167 10162 10161 10158 ] final  -39.43 input  -65.29 | X-H torsion
[ 10718 10713 10712 10709 ] final -176.79 input   66.30 | X-H torsion
[ 10763 10752 10751 10750 ] final  152.06 input  -60.55 | X-H torsion
[ 11005 11000 10999 10996 ] final -121.34 input  -57.11 | X-H torsion

> <Gold.Protein.ActiveResidues>
 VAL166  LYS551  ARG553  GLY616  TRP617  ASP618  TYR619  PRO620  LYS621  CYS622 
 ASP623  PHE694  ASN695  SER759  ASP760  ASP761  ALA762  ILE779  LEU786  VAL792 
 PHE793  MET794  SER795  GLU796  ALA797  LYS798  CYS799  TRP800  GLU811  SER814 

> <Gold.Protein.RotatedAtoms>
  151.0363  134.9575  159.8137 H   0  0  0  0  0  0  0  0  0  0  0  0  # atno 6907 bound_to 6896
  152.5355  134.2715  159.8983 H   0  0  0  0  0  0  0  0  0  0  0  0  # atno 6908 bound_to 6896
  151.2726  133.4205  159.2656 H   0  0  0  0  0  0  0  0  0  0  0  0  # atno 6909 bound_to 6896
  144.8174  139.6762  143.6115 H   0  0  0  0  0  0  0  0  0  0  0  0  # atno 7974 bound_to 7965
  155.2338  140.0426  157.2966 H   0  0  0  0  0  0  0  0  0  0  0  0  # atno 8008 bound_to 7997
  154.5871  140.2417  155.7942 H   0  0  0  0  0  0  0  0  0  0  0  0  # atno 8009 bound_to 7997
  156.2234  140.2962  156.0016 H   0  0  0  0  0  0  0  0  0  0  0  0  # atno 8010 bound_to 7997
  140.7064  143.3215  151.2782 H   0  0  0  0  0  0  0  0  0  0  0  0  # atno 10167 bound_to 10162
  156.8199  130.9616  151.3112 H   0  0  0  0  0  0  0  0  0  0  0  0  # atno 10718 bound_to 10713
  154.1139  135.2837  155.3224 H   0  0  0  0  0  0  0  0  0  0  0  0  # atno 10763 bound_to 10752
  154.6470  135.5382  153.7860 H   0  0  0  0  0  0  0  0  0  0  0  0  # atno 10764 bound_to 10752
  153.0336  135.6500  154.1297 H   0  0  0  0  0  0  0  0  0  0  0  0  # atno 10765 bound_to 10752
  141.0077  134.0310  157.3455 H   0  0  0  0  0  0  0  0  0  0  0  0  # atno 11005 bound_to 11000
  146.2478  139.6135  142.9448 LP  0  0  0  0  0  0  0  0  0  0  0  0  # atno 17320 bound_to 7965
  145.5183  141.0433  143.2449 LP  0  0  0  0  0  0  0  0  0  0  0  0  # atno 17321 bound_to 7965
  139.6670  144.0088  152.2729 LP  0  0  0  0  0  0  0  0  0  0  0  0  # atno 17342 bound_to 10162
  139.9674  144.6517  150.8022 LP  0  0  0  0  0  0  0  0  0  0  0  0  # atno 17343 bound_to 10162
  157.6462  130.8846  149.9543 LP  0  0  0  0  0  0  0  0  0  0  0  0  # atno 17370 bound_to 10713
  156.0995  130.3657  150.0245 LP  0  0  0  0  0  0  0  0  0  0  0  0  # atno 17371 bound_to 10713
  139.9072  135.0182  156.7539 LP  0  0  0  0  0  0  0  0  0  0  0  0  # atno 17394 bound_to 11000
  140.6785  133.9496  155.7897 LP  0  0  0  0  0  0  0  0  0  0  0  0  # atno 17395 bound_to 11000

$$$$
