AV-unprocessed.smi:243|AV-procd|sdf|1849|dock6
  -GOLD-   2262020473D 1   1.00000     0.00000
 Structure written by MMmdl.
 58 61  0  0  0  0  0  0  0  0  2 V2000
  144.2545  133.3101  149.9162 C   0  0  0  0  0  0  0  0  0  0  0  0
  143.5623  132.6001  151.0889 C   0  0  0  0  0  0  0  0  0  0  0  0
  143.7766  133.2924  152.3853 N   0  3  1  0  0  0  0  0  0  0  0  0
  145.2168  133.3781  152.7377 C   0  0  0  0  0  0  0  0  0  0  0  0
  145.4363  133.9998  154.1310 C   0  0  0  0  0  0  0  0  0  0  0  0
  144.6754  135.3210  154.3703 C   0  0  1  0  0  0  0  0  0  0  0  0
  145.4012  136.5180  153.9063 N   0  0  0  0  0  0  0  0  0  0  0  0
  145.4344  136.9722  152.5188 C   0  0  0  0  0  0  0  0  0  0  0  0
  145.8889  137.3714  154.8432 C   0  0  0  0  0  0  0  0  0  0  0  0
  145.5504  137.1660  156.1430 N   0  0  0  0  0  0  0  0  0  0  0  0
  146.0159  137.9762  157.0982 C   0  0  0  0  0  0  0  0  0  0  0  0
  146.8176  139.0352  156.9758 N   0  0  0  0  0  0  0  0  0  0  0  0
  147.1560  139.2527  155.6728 C   0  0  0  0  0  0  0  0  0  0  0  0
  146.7444  138.4743  154.5537 C   0  0  0  0  0  0  0  0  0  0  0  0
  147.2873  139.0038  153.3879 N   0  0  0  0  0  0  0  0  0  0  0  0
  147.9884  140.0255  153.7958 C   0  0  0  0  0  0  0  0  0  0  0  0
  147.9552  140.2558  155.1522 N   0  0  0  0  0  0  0  0  0  0  0  0
  148.6370  141.3208  155.8705 C   0  0  0  0  0  0  0  0  0  0  0  0
  150.1404  141.0444  156.1274 C   0  0  1  0  0  0  0  0  0  0  0  0
  150.7365  140.5135  154.9592 O   0  0  0  0  0  0  0  0  0  0  0  0
  150.8871  142.2978  156.5545 C   0  0  0  0  0  0  0  0  0  0  0  0
  150.6551  142.3389  158.0641 C   0  0  0  0  0  0  0  0  0  0  0  0
  150.4205  140.9918  158.4662 O   0  0  0  0  0  0  0  0  0  0  0  0
  150.4203  140.1347  157.3299 C   0  0  0  0  0  0  0  0  0  0  0  0
  143.2120  135.2140  153.8767 C   0  0  1  0  0  0  0  0  0  0  0  0
  142.4152  136.5210  154.0309 C   0  0  0  0  0  0  0  0  0  0  0  0
  143.1096  134.6189  152.4587 C   0  0  0  0  0  0  0  0  0  0  0  0
  143.9892  132.8341  148.9719 H   0  0  0  0  0  0  0  0  0  0  0  0
  145.3405  133.2769  149.9977 H   0  0  0  0  0  0  0  0  0  0  0  0
  143.9516  134.3558  149.8538 H   0  0  0  0  0  0  0  0  0  0  0  0
  142.4938  132.5704  150.8708 H   0  0  0  0  0  0  0  0  0  0  0  0
  143.8905  131.5618  151.1589 H   0  0  0  0  0  0  0  0  0  0  0  0
  145.6446  132.3751  152.7394 H   0  0  0  0  0  0  0  0  0  0  0  0
  145.7519  133.9256  151.9650 H   0  0  0  0  0  0  0  0  0  0  0  0
  145.0905  133.2773  154.8714 H   0  0  0  0  0  0  0  0  0  0  0  0
  146.5012  134.1329  154.3258 H   0  0  0  0  0  0  0  0  0  0  0  0
  144.5894  135.4067  155.4540 H   0  0  0  0  0  0  0  0  0  0  0  0
  146.2352  137.6964  152.3633 H   0  0  0  0  0  0  0  0  0  0  0  0
  144.4945  137.4502  152.2442 H   0  0  0  0  0  0  0  0  0  0  0  0
  145.6206  136.1560  151.8282 H   0  0  0  0  0  0  0  0  0  0  0  0
  145.7012  137.7430  158.1048 H   0  0  0  0  0  0  0  0  0  0  0  0
  148.5465  140.6492  153.1125 H   0  0  0  0  0  0  0  0  0  0  0  0
  148.5175  142.2440  155.3020 H   0  0  0  0  0  0  0  0  0  0  0  0
  148.1127  141.4774  156.8139 H   0  0  0  0  0  0  0  0  0  0  0  0
  150.6557  139.5723  154.9814 H   0  0  0  0  0  0  0  0  0  0  0  0
  151.9560  142.1875  156.3636 H   0  0  0  0  0  0  0  0  0  0  0  0
  150.5519  143.2017  156.0449 H   0  0  0  0  0  0  0  0  0  0  0  0
  151.5036  142.7683  158.5974 H   0  0  0  0  0  0  0  0  0  0  0  0
  149.7723  142.9321  158.3037 H   0  0  0  0  0  0  0  0  0  0  0  0
  149.7181  139.3105  157.4426 H   0  0  0  0  0  0  0  0  0  0  0  0
  151.4179  139.6991  157.2526 H   0  0  0  0  0  0  0  0  0  0  0  0
  142.7259  134.4930  154.5364 H   0  0  0  0  0  0  0  0  0  0  0  0
  142.7729  137.2972  153.3550 H   0  0  0  0  0  0  0  0  0  0  0  0
  142.4883  136.9068  155.0481 H   0  0  0  0  0  0  0  0  0  0  0  0
  141.3583  136.3625  153.8155 H   0  0  0  0  0  0  0  0  0  0  0  0
  143.5365  135.2893  151.7138 H   0  0  0  0  0  0  0  0  0  0  0  0
  142.0553  134.5131  152.2061 H   0  0  0  0  0  0  0  0  0  0  0  0
  143.3499  132.7114  153.0929 H   0  0  0  0  0  0  0  0  0  0  0  0
  1  2  1  0  0  0  0
  1 28  1  0  0  0  0
  1 29  1  0  0  0  0
  1 30  1  0  0  0  0
  2  3  1  0  0  0  0
  2 31  1  0  0  0  0
  2 32  1  0  0  0  0
  3 27  1  0  0  0  0
  3  4  1  0  0  0  0
  3 58  1  0  0  0  0
  4  5  1  0  0  0  0
  4 33  1  0  0  0  0
  4 34  1  0  0  0  0
  5  6  1  0  0  0  0
  5 35  1  0  0  0  0
  5 36  1  0  0  0  0
  6  7  1  0  0  0  0
  6 25  1  0  0  0  0
  6 37  1  0  0  0  0
  7  8  1  0  0  0  0
  7  9  1  0  0  0  0
  8 38  1  0  0  0  0
  8 39  1  0  0  0  0
  8 40  1  0  0  0  0
  9 14  1  0  0  0  0
  9 10  2  0  0  0  0
 10 11  1  0  0  0  0
 11 12  2  0  0  0  0
 11 41  1  0  0  0  0
 12 13  1  0  0  0  0
 13 17  1  0  0  0  0
 13 14  2  0  0  0  0
 14 15  1  0  0  0  0
 15 16  2  0  0  0  0
 16 17  1  0  0  0  0
 16 42  1  0  0  0  0
 17 18  1  0  0  0  0
 18 19  1  0  0  0  0
 18 43  1  0  0  0  0
 18 44  1  0  0  0  0
 19 24  1  0  0  0  0
 19 20  1  0  0  0  0
 19 21  1  0  0  0  0
 20 45  1  0  0  0  0
 21 22  1  0  0  0  0
 21 46  1  0  0  0  0
 21 47  1  0  0  0  0
 22 23  1  0  0  0  0
 22 48  1  0  0  0  0
 22 49  1  0  0  0  0
 23 24  1  0  0  0  0
 24 50  1  0  0  0  0
 24 51  1  0  0  0  0
 25 26  1  0  0  0  0
 25 27  1  0  0  0  0
 25 52  1  0  0  0  0
 26 53  1  0  0  0  0
 26 54  1  0  0  0  0
 26 55  1  0  0  0  0
 27 56  1  0  0  0  0
 27 57  1  0  0  0  0
M  CHG  1   3   1
M  END
> <s_m_source_file>
AV-unprocessed.smi

> <i_m_source_file_index>
243

> <i_lp_mmshare_version>
43012

> <i_f3d_flags>
0

> <s_epik_input>
W0NIM11bQ0gyXU4xW0NIMl1bQ0gyXVtDQEhdKFtDQEBIXShbQ0gzXSlbQ0gyXTEpTihbQ0gzXSljKG5bY0hdbjIpYyhjMjMpbltjSF1uM1tDSDJdW0NAQF00KFtPSF0pW0NIMl1bQ0gyXU9bQ0gyXTQ=

> <s_epik_cmdline>
J2VwaWtfcHl0aG9uJywgJy1waCcsICc3LjAnLCAnLXRuJywgJzgnLCAnLW1hJywgJzIwMCcsICctbWV0YWxfYmluZGluZycsICctaW1hZScsICc8aW5maWxlLm1hZT4nLCAnLW9tYWUnLCAnPG91dGZpbGUubWFlPic=

> <r_lp_tautomer_probability>
1

> <r_epik_Ionization_Penalty>
0.00253099

> <r_epik_Ionization_Penalty_Charging>
0.00137877

> <r_epik_Ionization_Penalty_Neutral>
0.00115221

> <r_epik_State_Penalty>
-0

> <r_epik_Charging_Adjusted_Penalty>
0.00137877

> <i_epik_Tot_Q>
1

> <i_epik_Tot_abs_Q>
1

> <r_epik_Metal_State_Penalty>
-0

> <b_epik_Metal_Only>
0

> <s_lp_Force_Field>
OPLS_2005

> <r_lp_Energy>
52.4655

> <b_lp_Chiralities_Consistent>
1

> <s_lp_Variant>
AV-unprocessed.smi:243-2

> <Gold.Version>
5.8.1

> <Gold.Id.Protein>
6NUR|6NUR_protein|mol2

> <Gold.PLP.Fitness>
40.1277

> <Gold.PLP.PLP>
-29.6037

> <Gold.PLP.part.hbond>
-1.9782

> <Gold.PLP.part.metal>
0.0000

> <Gold.PLP.part.buried>
-6.3171

> <Gold.PLP.part.nonpolar>
-21.9054

> <Gold.PLP.part.repulsive>
0.2231

> <Gold.PLP.ligand.clash>
0.0000

> <Gold.PLP.ligand.torsion>
0.8560

> <Gold.PLP.Chemscore.Hbond>
2.9825

> <Gold.PLP.Chemscore.CHOScore>
1.0000

> <Gold.PLP.Chemscore.Metal>
0.0000

> <Gold.Chemscore.Hbonds>
donor molecule, donor type, donor heavy atom, donor atom, acceptor molecule, acceptor atom, score
      L1  H     3    58       P1 10957  1.95
      P1  H  7989  7998       L1    20  1.00
      L1  C    16    42       P1  7957  0.97

> <Gold.PLP.Chemscore.Internal.Correction>
0.2884

> <Gold.Rescore>
     Score         DG    S(hbond)    S(metal)    S(lipo)     H(rot)  DE(clash)    DE(int)     intcor
     11.03     -13.49       1.58        0.00      72.26       2.24       0.21       2.25       ----

> <Gold.Chemscore.Fitness>
11.0263

> <Gold.Chemscore.DG>
-13.4897

> <Gold.Chemscore.ZeroCoef>
-5.4800

> <Gold.Chemscore.Hbond>
1.5822

> <Gold.Chemscore.Metal>
0.0000

> <Gold.Chemscore.Lipo>
72.2586

> <Gold.Chemscore.Internal_Hbond>
0.0000

> <Gold.Chemscore.DEClash>
0.2135

> <Gold.Chemscore.DEInternal>
2.2498

> <Gold.Chemscore.Rot>
2.2379

> <Gold.Chemscore.Internal.Correction>
   9.000000E+99

> <Gold.Chemscore.Hbonds>
donor molecule, donor type, donor heavy atom, donor atom, acceptor molecule, acceptor atom, score
      L1  H     3    58       P1 10957  0.28
      P1  H  7989  7998       L1    20  0.53

> <Gold.Chemscore.Hbond.Weighted>
-5.2845

> <Gold.Chemscore.Metal.Weighted>
-0.0000

> <Gold.Chemscore.Lipo.Weighted>
-8.4543

> <Gold.Chemscore.Internal_Hbond.Weighted>
0.0000

> <Gold.Chemscore.DEClash.Weighted>
0.2135

> <Gold.Chemscore.DEInternal.Weighted>
2.2498

> <Gold.Chemscore.Rot.Weighted>
5.7291

> <Gold.Chemscore.Internal.Correction.Weighted>
   9.000000E+99

> <Gold.Protein.RotatedTorsions>
[ 6907 6896 6895 6894 ] final -136.00 input  -60.11 | X-H torsion
[ 7974 7965 7964 7962 ] final   18.42 input  175.53 | X-H torsion
[ 8008 7997 7996 7995 ] final -149.23 input   59.86 | X-H torsion
[ 10167 10162 10161 10158 ] final   51.38 input  -65.29 | X-H torsion
[ 10718 10713 10712 10709 ] final  -32.88 input   66.30 | X-H torsion
[ 10763 10752 10751 10750 ] final   23.12 input  -60.55 | X-H torsion
[ 11005 11000 10999 10996 ] final   30.14 input  -57.11 | X-H torsion

> <Gold.Protein.ActiveResidues>
 VAL166  LYS551  ARG553  GLY616  TRP617  ASP618  TYR619  PRO620  LYS621  CYS622 
 ASP623  PHE694  ASN695  SER759  ASP760  ASP761  ALA762  ILE779  LEU786  VAL792 
 PHE793  MET794  SER795  GLU796  ALA797  LYS798  CYS799  TRP800  GLU811  SER814 

> <Gold.Protein.RotatedAtoms>
  151.0047  133.6022  159.2690 H   0  0  0  0  0  0  0  0  0  0  0  0  # atno 6907 bound_to 6896
  151.3195  135.0814  159.9310 H   0  0  0  0  0  0  0  0  0  0  0  0  # atno 6908 bound_to 6896
  152.5283  133.9697  159.7810 H   0  0  0  0  0  0  0  0  0  0  0  0  # atno 6909 bound_to 6896
  146.2185  139.8460  142.8632 H   0  0  0  0  0  0  0  0  0  0  0  0  # atno 7974 bound_to 7965
  155.6044  140.0665  157.2724 H   0  0  0  0  0  0  0  0  0  0  0  0  # atno 8008 bound_to 7997
  154.4270  140.1812  156.1254 H   0  0  0  0  0  0  0  0  0  0  0  0  # atno 8009 bound_to 7997
  156.0134  140.3324  155.6967 H   0  0  0  0  0  0  0  0  0  0  0  0  # atno 8010 bound_to 7997
  140.2626  144.3356  150.6313 H   0  0  0  0  0  0  0  0  0  0  0  0  # atno 10167 bound_to 10162
  156.3694  130.4337  149.7557 H   0  0  0  0  0  0  0  0  0  0  0  0  # atno 10718 bound_to 10713
  153.0863  135.6634  153.9943 H   0  0  0  0  0  0  0  0  0  0  0  0  # atno 10763 bound_to 10752
  153.9552  135.2980  155.3438 H   0  0  0  0  0  0  0  0  0  0  0  0  # atno 10764 bound_to 10752
  154.7271  135.5139  153.8976 H   0  0  0  0  0  0  0  0  0  0  0  0  # atno 10765 bound_to 10752
  140.2975  134.2794  155.7761 H   0  0  0  0  0  0  0  0  0  0  0  0  # atno 11005 bound_to 11000
  145.2850  141.0150  143.3695 LP  0  0  0  0  0  0  0  0  0  0  0  0  # atno 17320 bound_to 7965
  144.9120  139.4516  143.6582 LP  0  0  0  0  0  0  0  0  0  0  0  0  # atno 17321 bound_to 7965
  140.5954  143.2167  151.7174 LP  0  0  0  0  0  0  0  0  0  0  0  0  # atno 17342 bound_to 10162
  139.5012  144.3875  152.0313 LP  0  0  0  0  0  0  0  0  0  0  0  0  # atno 17343 bound_to 10162
  156.4690  130.7988  151.3006 LP  0  0  0  0  0  0  0  0  0  0  0  0  # atno 17370 bound_to 10713
  157.7482  131.0042  150.3065 LP  0  0  0  0  0  0  0  0  0  0  0  0  # atno 17371 bound_to 10713
  141.2134  133.7624  156.9717 LP  0  0  0  0  0  0  0  0  0  0  0  0  # atno 17394 bound_to 11000
  140.1139  134.9459  157.2106 LP  0  0  0  0  0  0  0  0  0  0  0  0  # atno 17395 bound_to 11000

$$$$
