AV-unprocessed.smi:3202|AV-procd|sdf|12246|dock5
  -GOLD-   2272018 83D 1   1.00000     0.00000
 Structure written by MMmdl.
 43 44  0  0  0  0  0  0  0  0  2 V2000
  150.5376  140.8053  155.6681 C   0  0  0  0  0  0  0  0  0  0  0  0
  149.7346  139.7335  154.9919 C   0  0  0  0  0  0  0  0  0  0  0  0
  148.3414  139.4614  155.1229 C   0  0  0  0  0  0  0  0  0  0  0  0
  148.1233  138.3952  154.2940 C   0  0  0  0  0  0  0  0  0  0  0  0
  146.8903  137.6063  153.9810 C   0  0  0  0  0  0  0  0  0  0  0  0
  146.3722  137.7593  152.5338 C   0  0  1  0  0  0  0  0  0  0  0  0
  147.0508  138.9308  151.8050 C   0  0  0  0  0  0  0  0  0  0  0  0
  146.6032  136.5176  151.7593 N   0  3  0  0  0  0  0  0  0  0  0  0
  145.9474  135.2932  152.2783 C   0  0  2  0  0  0  0  0  0  0  0  0
  146.5568  133.9872  151.7534 C   0  0  0  0  0  0  0  0  0  0  0  0
  145.4404  132.9423  151.8713 C   0  0  0  0  0  0  0  0  0  0  0  0
  144.1567  133.7163  152.2090 C   0  0  0  0  0  0  0  0  0  0  0  0
  144.4485  135.2007  151.9203 C   0  0  0  0  0  0  0  0  0  0  0  0
  143.5903  136.1198  152.8100 C   0  0  0  0  0  0  0  0  0  0  0  0
  144.1644  135.5106  150.4321 C   0  0  0  0  0  0  0  0  0  0  0  0
  149.3463  138.0859  153.7435 N   0  0  0  0  0  0  0  0  0  0  0  0
  150.3351  138.8999  154.1564 N   0  0  0  0  0  0  0  0  0  0  0  0
  149.5192  137.3353  153.0899 H   0  0  0  0  0  0  0  0  0  0  0  0
  149.9458  141.3238  156.4227 H   0  0  0  0  0  0  0  0  0  0  0  0
  150.8833  141.5485  154.9494 H   0  0  0  0  0  0  0  0  0  0  0  0
  151.4137  140.3878  156.1654 H   0  0  0  0  0  0  0  0  0  0  0  0
  147.6148  139.9750  155.7350 H   0  0  0  0  0  0  0  0  0  0  0  0
  146.1169  137.9073  154.6860 H   0  0  0  0  0  0  0  0  0  0  0  0
  147.0773  136.5508  154.1844 H   0  0  0  0  0  0  0  0  0  0  0  0
  145.3007  137.9633  152.5570 H   0  0  0  0  0  0  0  0  0  0  0  0
  146.8533  139.8822  152.2988 H   0  0  0  0  0  0  0  0  0  0  0  0
  146.6857  139.0183  150.7811 H   0  0  0  0  0  0  0  0  0  0  0  0
  148.1326  138.7988  151.7613 H   0  0  0  0  0  0  0  0  0  0  0  0
  146.2174  136.6749  150.8392 H   0  0  0  0  0  0  0  0  0  0  0  0
  146.0313  135.2936  153.3669 H   0  0  0  0  0  0  0  0  0  0  0  0
  146.8412  134.0916  150.7054 H   0  0  0  0  0  0  0  0  0  0  0  0
  147.4493  133.6979  152.3096 H   0  0  0  0  0  0  0  0  0  0  0  0
  145.3318  132.3990  150.9318 H   0  0  0  0  0  0  0  0  0  0  0  0
  145.6621  132.2088  152.6471 H   0  0  0  0  0  0  0  0  0  0  0  0
  143.2922  133.3404  151.6605 H   0  0  0  0  0  0  0  0  0  0  0  0
  143.9387  133.5795  153.2694 H   0  0  0  0  0  0  0  0  0  0  0  0
  142.5273  135.9783  152.6120 H   0  0  0  0  0  0  0  0  0  0  0  0
  143.8211  137.1707  152.6328 H   0  0  0  0  0  0  0  0  0  0  0  0
  143.7539  135.9225  153.8699 H   0  0  0  0  0  0  0  0  0  0  0  0
  143.1135  135.3435  150.1928 H   0  0  0  0  0  0  0  0  0  0  0  0
  144.7501  134.8819  149.7613 H   0  0  0  0  0  0  0  0  0  0  0  0
  144.3854  136.5495  150.1865 H   0  0  0  0  0  0  0  0  0  0  0  0
  147.5957  136.3587  151.6605 H   0  0  0  0  0  0  0  0  0  0  0  0
  1 19  1  0  0  0  0
  1 20  1  0  0  0  0
  1 21  1  0  0  0  0
  1  2  1  0  0  0  0
  2 17  2  0  0  0  0
  2  3  1  0  0  0  0
  3  4  2  0  0  0  0
  3 22  1  0  0  0  0
  4 16  1  0  0  0  0
  4  5  1  0  0  0  0
  5  6  1  0  0  0  0
  5 23  1  0  0  0  0
  5 24  1  0  0  0  0
  6  7  1  0  0  0  0
  6  8  1  0  0  0  0
  6 25  1  0  0  0  0
  7 26  1  0  0  0  0
  7 27  1  0  0  0  0
  7 28  1  0  0  0  0
  8  9  1  0  0  0  0
  8 29  1  0  0  0  0
  8 43  1  0  0  0  0
  9 13  1  0  0  0  0
  9 10  1  0  0  0  0
  9 30  1  0  0  0  0
 10 11  1  0  0  0  0
 10 31  1  0  0  0  0
 10 32  1  0  0  0  0
 11 12  1  0  0  0  0
 11 33  1  0  0  0  0
 11 34  1  0  0  0  0
 12 13  1  0  0  0  0
 12 35  1  0  0  0  0
 12 36  1  0  0  0  0
 13 14  1  0  0  0  0
 13 15  1  0  0  0  0
 14 37  1  0  0  0  0
 14 38  1  0  0  0  0
 14 39  1  0  0  0  0
 15 40  1  0  0  0  0
 15 41  1  0  0  0  0
 15 42  1  0  0  0  0
 16 17  1  0  0  0  0
 16 18  1  0  0  0  0
M  CHG  1   8   1
M  END
> <s_m_source_file>
AV-unprocessed.smi

> <i_m_source_file_index>
3202

> <i_lp_mmshare_version>
43012

> <i_f3d_flags>
0

> <s_epik_input>
W0NIM11jMVtjSF1jKG5bbkhdMSlbQ0gyXVtDQEhdKFtDSDNdKVtOSF1bQ0BASF0oQzIoW0NIM10pW0NIM10pW0NIMl1bQ0gyXVtDSDJdMg==

> <s_epik_cmdline>
J2VwaWtfcHl0aG9uJywgJy1waCcsICc3LjAnLCAnLXRuJywgJzgnLCAnLW1hJywgJzIwMCcsICctbWV0YWxfYmluZGluZycsICctaW1hZScsICc8aW5maWxlLm1hZT4nLCAnLW9tYWUnLCAnPG91dGZpbGUubWFlPic=

> <r_lp_tautomer_probability>
0.5

> <r_epik_Ionization_Penalty>
0.000449684

> <r_epik_Ionization_Penalty_Charging>
0.000404963

> <r_epik_Ionization_Penalty_Neutral>
4.47208e-05

> <r_epik_State_Penalty>
0.41068

> <r_epik_Charging_Adjusted_Penalty>
0.411085

> <i_epik_Tot_Q>
1

> <i_epik_Tot_abs_Q>
1

> <r_epik_Metal_State_Penalty>
0.410687

> <b_epik_Metal_Only>
0

> <s_lp_Force_Field>
OPLS_2005

> <r_lp_Energy>
31.7221

> <b_lp_Chiralities_Consistent>
1

> <s_lp_Variant>
AV-unprocessed.smi:3202-6

> <Gold.Version>
5.8.1

> <Gold.Id.Protein>
6NUR|6NUR_protein|mol2

> <Gold.PLP.Fitness>
36.7836

> <Gold.PLP.PLP>
-28.3253

> <Gold.PLP.part.hbond>
-3.6137

> <Gold.PLP.part.metal>
0.0000

> <Gold.PLP.part.buried>
-0.9437

> <Gold.PLP.part.nonpolar>
-26.1594

> <Gold.PLP.part.repulsive>
2.0208

> <Gold.PLP.ligand.clash>
0.0000

> <Gold.PLP.ligand.torsion>
0.9164

> <Gold.PLP.Chemscore.Hbond>
3.4271

> <Gold.PLP.Chemscore.CHOScore>
0.0000

> <Gold.PLP.Chemscore.Metal>
0.0000

> <Gold.Chemscore.Hbonds>
donor molecule, donor type, donor heavy atom, donor atom, acceptor molecule, acceptor atom, score
      L1  H     8    43       P1  7948  1.07
      L1  H    16    18       P1  7948  1.00

> <Gold.PLP.Chemscore.Internal.Correction>
0.0098

> <Gold.Rescore>
     Score         DG    S(hbond)    S(metal)    S(lipo)     H(rot)  DE(clash)    DE(int)     intcor
     16.10     -17.16       1.96        0.00      75.89       1.46       0.47       0.58       ----

> <Gold.Chemscore.Fitness>
16.0997

> <Gold.Chemscore.DG>
-17.1563

> <Gold.Chemscore.ZeroCoef>
-5.4800

> <Gold.Chemscore.Hbond>
1.9563

> <Gold.Chemscore.Metal>
0.0000

> <Gold.Chemscore.Lipo>
75.8872

> <Gold.Chemscore.Internal_Hbond>
0.0000

> <Gold.Chemscore.DEClash>
0.4731

> <Gold.Chemscore.DEInternal>
0.5836

> <Gold.Chemscore.Rot>
1.4596

> <Gold.Chemscore.Internal.Correction>
   9.000000E+99

> <Gold.Chemscore.Hbonds>
donor molecule, donor type, donor heavy atom, donor atom, acceptor molecule, acceptor atom, score
      L1  H     8    43       P1  7948  0.54
      L1  H    16    18       P1  7948  0.79

> <Gold.Chemscore.Hbond.Weighted>
-6.5340

> <Gold.Chemscore.Metal.Weighted>
-0.0000

> <Gold.Chemscore.Lipo.Weighted>
-8.8788

> <Gold.Chemscore.Internal_Hbond.Weighted>
0.0000

> <Gold.Chemscore.DEClash.Weighted>
0.4731

> <Gold.Chemscore.DEInternal.Weighted>
0.5836

> <Gold.Chemscore.Rot.Weighted>
3.7365

> <Gold.Chemscore.Internal.Correction.Weighted>
   9.000000E+99

> <Gold.Protein.RotatedTorsions>
[ 6907 6896 6895 6894 ] final   17.03 input  -60.11 | X-H torsion
[ 7974 7965 7964 7962 ] final -146.52 input  175.53 | X-H torsion
[ 8008 7997 7996 7995 ] final -123.37 input   59.86 | X-H torsion
[ 10167 10162 10161 10158 ] final   46.83 input  -65.29 | X-H torsion
[ 10718 10713 10712 10709 ] final   59.41 input   66.30 | X-H torsion
[ 10763 10752 10751 10750 ] final -172.81 input  -60.55 | X-H torsion
[ 11005 11000 10999 10996 ] final -176.68 input  -57.11 | X-H torsion

> <Gold.Protein.ActiveResidues>
 VAL166  LYS551  ARG553  GLY616  TRP617  ASP618  TYR619  PRO620  LYS621  CYS622 
 ASP623  PHE694  ASN695  SER759  ASP760  ASP761  ALA762  ILE779  LEU786  VAL792 
 PHE793  MET794  SER795  GLU796  ALA797  LYS798  CYS799  TRP800  GLU811  SER814 

> <Gold.Protein.RotatedAtoms>
  151.8432  135.0583  160.0450 H   0  0  0  0  0  0  0  0  0  0  0  0  # atno 6907 bound_to 6896
  152.2793  133.5451  159.5496 H   0  0  0  0  0  0  0  0  0  0  0  0  # atno 6908 bound_to 6896
  150.7183  134.0503  159.3838 H   0  0  0  0  0  0  0  0  0  0  0  0  # atno 6909 bound_to 6896
  144.8154  140.5445  143.5614 H   0  0  0  0  0  0  0  0  0  0  0  0  # atno 7974 bound_to 7965
  155.1794  140.0410  157.2879 H   0  0  0  0  0  0  0  0  0  0  0  0  # atno 8008 bound_to 7997
  154.6214  140.2501  155.7517 H   0  0  0  0  0  0  0  0  0  0  0  0  # atno 8009 bound_to 7997
  156.2435  140.2894  156.0524 H   0  0  0  0  0  0  0  0  0  0  0  0  # atno 8010 bound_to 7997
  140.3098  144.2833  150.6202 H   0  0  0  0  0  0  0  0  0  0  0  0  # atno 10167 bound_to 10162
  157.5673  130.8881  149.9209 H   0  0  0  0  0  0  0  0  0  0  0  0  # atno 10718 bound_to 10713
  154.6151  135.2869  155.0389 H   0  0  0  0  0  0  0  0  0  0  0  0  # atno 10763 bound_to 10752
  154.1605  135.6489  153.4988 H   0  0  0  0  0  0  0  0  0  0  0  0  # atno 10764 bound_to 10752
  153.0211  135.5377  154.6919 H   0  0  0  0  0  0  0  0  0  0  0  0  # atno 10765 bound_to 10752
  140.4493  134.6358  157.4794 H   0  0  0  0  0  0  0  0  0  0  0  0  # atno 11005 bound_to 11000
  145.5227  139.1476  143.3543 LP  0  0  0  0  0  0  0  0  0  0  0  0  # atno 17320 bound_to 7965
  146.2456  140.5368  142.8915 LP  0  0  0  0  0  0  0  0  0  0  0  0  # atno 17321 bound_to 7965
  140.5578  143.2196  151.7818 LP  0  0  0  0  0  0  0  0  0  0  0  0  # atno 17342 bound_to 10162
  139.4896  144.4390  151.9786 LP  0  0  0  0  0  0  0  0  0  0  0  0  # atno 17343 bound_to 10162
  156.0720  130.3684  150.0755 LP  0  0  0  0  0  0  0  0  0  0  0  0  # atno 17370 bound_to 10713
  156.8912  130.9589  151.3588 LP  0  0  0  0  0  0  0  0  0  0  0  0  # atno 17371 bound_to 10713
  140.0017  134.6826  155.9520 LP  0  0  0  0  0  0  0  0  0  0  0  0  # atno 17394 bound_to 11000
  141.1671  133.6537  156.4518 LP  0  0  0  0  0  0  0  0  0  0  0  0  # atno 17395 bound_to 11000

$$$$
