AV-unprocessed.smi:2618|AV-procd|sdf|10220|dock1
  -GOLD-   2272014223D 1   1.00000     0.00000
 Structure written by MMmdl.
 38 39  0  0  0  0  0  0  0  0  2 V2000
  145.9613  143.2352  153.9686 C   0  0  0  0  0  0  0  0  0  0  0  0
  146.7059  142.0558  153.7212 O   0  0  0  0  0  0  0  0  0  0  0  0
  147.6403  141.7783  154.7512 C   0  0  0  0  0  0  0  0  0  0  0  0
  148.9483  141.2899  154.1137 C   0  0  0  0  0  0  0  0  0  0  0  0
  149.9765  140.9369  155.1527 C   0  0  0  0  0  0  0  0  0  0  0  0
  150.3899  141.7704  156.0339 N   0  0  0  0  0  0  0  0  0  0  0  0
  151.3003  141.2133  156.8336 N   0  0  0  0  0  0  0  0  0  0  0  0
  151.8183  141.8956  157.9490 C   0  0  0  0  0  0  0  0  0  0  0  0
  151.4383  143.1763  158.0808 N   0  0  0  0  0  0  0  0  0  0  0  0
  151.9213  143.8727  159.1315 C   0  0  0  0  0  0  0  0  0  0  0  0
  151.4723  145.3130  159.2527 C   0  0  0  0  0  0  0  0  0  0  0  0
  152.7985  143.2919  160.0690 C   0  0  0  0  0  0  0  0  0  0  0  0
  153.1414  141.9443  159.8398 C   0  0  0  0  0  0  0  0  0  0  0  0
  154.0729  141.1935  160.7665 C   0  0  0  0  0  0  0  0  0  0  0  0
  152.6576  141.2574  158.7841 N   0  0  0  0  0  0  0  0  0  0  0  0
  151.5469  139.8021  156.4678 C   0  0  1  0  0  0  0  0  0  0  0  0
  152.7836  139.6207  156.0613 O   0  5  0  0  0  0  0  0  0  0  0  0
  151.2210  138.8236  157.6307 C   0  0  0  0  0  0  0  0  0  0  0  0
  151.0725  137.5839  157.1593 F   0  0  0  0  0  0  0  0  0  0  0  0
  152.2144  138.8106  158.5221 F   0  0  0  0  0  0  0  0  0  0  0  0
  150.0956  139.1615  158.2628 F   0  0  0  0  0  0  0  0  0  0  0  0
  150.6113  139.5956  155.2683 C   0  0  0  0  0  0  0  0  0  0  0  0
  145.2608  143.4044  153.1509 H   0  0  0  0  0  0  0  0  0  0  0  0
  146.6138  144.1064  154.0382 H   0  0  0  0  0  0  0  0  0  0  0  0
  145.3866  143.1527  154.8920 H   0  0  0  0  0  0  0  0  0  0  0  0
  147.8160  142.6800  155.3402 H   0  0  0  0  0  0  0  0  0  0  0  0
  147.2376  141.0174  155.4220 H   0  0  0  0  0  0  0  0  0  0  0  0
  148.7397  140.4198  153.4897 H   0  0  0  0  0  0  0  0  0  0  0  0
  149.3500  142.0558  153.4502 H   0  0  0  0  0  0  0  0  0  0  0  0
  151.9369  145.7998  160.1104 H   0  0  0  0  0  0  0  0  0  0  0  0
  150.3902  145.3626  159.3765 H   0  0  0  0  0  0  0  0  0  0  0  0
  151.7430  145.8709  158.3559 H   0  0  0  0  0  0  0  0  0  0  0  0
  153.1855  143.8457  160.9116 H   0  0  0  0  0  0  0  0  0  0  0  0
  154.3740  141.8142  161.6107 H   0  0  0  0  0  0  0  0  0  0  0  0
  154.9710  140.8849  160.2309 H   0  0  0  0  0  0  0  0  0  0  0  0
  153.5812  140.3020  161.1567 H   0  0  0  0  0  0  0  0  0  0  0  0
  149.8545  138.8339  155.4568 H   0  0  0  0  0  0  0  0  0  0  0  0
  151.1301  139.3306  154.3447 H   0  0  0  0  0  0  0  0  0  0  0  0
  1  2  1  0  0  0  0
  1 23  1  0  0  0  0
  1 24  1  0  0  0  0
  1 25  1  0  0  0  0
  2  3  1  0  0  0  0
  3  4  1  0  0  0  0
  3 26  1  0  0  0  0
  3 27  1  0  0  0  0
  4  5  1  0  0  0  0
  4 28  1  0  0  0  0
  4 29  1  0  0  0  0
  5 22  1  0  0  0  0
  5  6  2  0  0  0  0
  6  7  1  0  0  0  0
  7  8  1  0  0  0  0
  7 16  1  0  0  0  0
  8 15  1  0  0  0  0
  8  9  2  0  0  0  0
  9 10  1  0  0  0  0
 10 11  1  0  0  0  0
 10 12  2  0  0  0  0
 11 30  1  0  0  0  0
 11 31  1  0  0  0  0
 11 32  1  0  0  0  0
 12 13  1  0  0  0  0
 12 33  1  0  0  0  0
 13 14  1  0  0  0  0
 13 15  2  0  0  0  0
 14 34  1  0  0  0  0
 14 35  1  0  0  0  0
 14 36  1  0  0  0  0
 16 17  1  0  0  0  0
 16 18  1  0  0  0  0
 16 22  1  0  0  0  0
 18 19  1  0  0  0  0
 18 20  1  0  0  0  0
 18 21  1  0  0  0  0
 22 37  1  0  0  0  0
 22 38  1  0  0  0  0
M  CHG  1  17  -1
M  END
> <s_m_source_file>
AV-unprocessed.smi

> <i_m_source_file_index>
2618

> <i_lp_mmshare_version>
43012

> <i_f3d_flags>
0

> <s_epik_input>
W0NIM11PW0NIMl1bQ0gyXUMoW0NIMl0xKT1OTihbQ0BAXTEoW09IXSlDKEYpKEYpRiljMm5jKFtDSDNdKVtjSF1jKG4yKVtDSDNd

> <s_epik_cmdline>
J2VwaWtfcHl0aG9uJywgJy1waCcsICc3LjAnLCAnLXRuJywgJzgnLCAnLW1hJywgJzIwMCcsICctbWV0YWxfYmluZGluZycsICctaW1hZScsICc8aW5maWxlLm1hZT4nLCAnLW9tYWUnLCAnPG91dGZpbGUubWFlPic=

> <r_lp_tautomer_probability>
1

> <r_epik_Ionization_Penalty>
1.35617

> <r_epik_Ionization_Penalty_Charging>
1.35566

> <r_epik_Ionization_Penalty_Neutral>
0.000506926

> <r_epik_State_Penalty>
1.43411

> <r_epik_Charging_Adjusted_Penalty>
2.78977

> <i_epik_Tot_Q>
-1

> <i_epik_Tot_abs_Q>
1

> <r_epik_Metal_State_Penalty>
1.43499

> <b_epik_Metal_Only>
0

> <s_epik_Chemistry_Notes>
This compound has an imine and may undergo hydrolysis.

> <s_lp_Force_Field>
OPLS_2005

> <r_lp_Energy>
21.2733

> <b_lp_Chiralities_Consistent>
1

> <s_lp_Variant>
AV-unprocessed.smi:2618-3

> <Gold.Version>
5.8.1

> <Gold.Id.Protein>
6NUR|6NUR_protein|mol2

> <Gold.PLP.Fitness>
50.8889

> <Gold.PLP.PLP>
-46.1443

> <Gold.PLP.part.hbond>
-1.0000

> <Gold.PLP.part.metal>
0.0000

> <Gold.PLP.part.buried>
-5.9608

> <Gold.PLP.part.nonpolar>
-39.3963

> <Gold.PLP.part.repulsive>
0.3653

> <Gold.PLP.ligand.clash>
0.0000

> <Gold.PLP.ligand.torsion>
0.8272

> <Gold.PLP.Chemscore.Hbond>
2.0000

> <Gold.PLP.Chemscore.CHOScore>
0.0000

> <Gold.PLP.Chemscore.Metal>
0.0000

> <Gold.Chemscore.Hbonds>
donor molecule, donor type, donor heavy atom, donor atom, acceptor molecule, acceptor atom, score
      P1  H  7997  8008       L1    17  2.00

> <Gold.PLP.Chemscore.Internal.Correction>
0.3989

> <Gold.Rescore>
     Score         DG    S(hbond)    S(metal)    S(lipo)     H(rot)  DE(clash)    DE(int)     intcor
     13.91     -16.34       1.00        0.00      96.50       1.47       0.05       2.37       ----

> <Gold.Chemscore.Fitness>
13.9106

> <Gold.Chemscore.DG>
-16.3362

> <Gold.Chemscore.ZeroCoef>
-5.4800

> <Gold.Chemscore.Hbond>
1.0000

> <Gold.Chemscore.Metal>
0.0000

> <Gold.Chemscore.Lipo>
96.4974

> <Gold.Chemscore.Internal_Hbond>
0.0000

> <Gold.Chemscore.DEClash>
0.0532

> <Gold.Chemscore.DEInternal>
2.3724

> <Gold.Chemscore.Rot>
1.4742

> <Gold.Chemscore.Internal.Correction>
   9.000000E+99

> <Gold.Chemscore.Hbonds>
donor molecule, donor type, donor heavy atom, donor atom, acceptor molecule, acceptor atom, score
      P1  H  7997  8008       L1    17  1.00

> <Gold.Chemscore.Hbond.Weighted>
-3.3400

> <Gold.Chemscore.Metal.Weighted>
-0.0000

> <Gold.Chemscore.Lipo.Weighted>
-11.2902

> <Gold.Chemscore.Internal_Hbond.Weighted>
0.0000

> <Gold.Chemscore.DEClash.Weighted>
0.0532

> <Gold.Chemscore.DEInternal.Weighted>
2.3724

> <Gold.Chemscore.Rot.Weighted>
3.7740

> <Gold.Chemscore.Internal.Correction.Weighted>
   9.000000E+99

> <Gold.Protein.RotatedTorsions>
[ 6907 6896 6895 6894 ] final  178.59 input  -60.11 | X-H torsion
[ 7974 7965 7964 7962 ] final  159.12 input  175.53 | X-H torsion
[ 8008 7997 7996 7995 ] final  -32.52 input   59.86 | X-H torsion
[ 10167 10162 10161 10158 ] final    0.74 input  -65.29 | X-H torsion
[ 10718 10713 10712 10709 ] final -156.84 input   66.30 | X-H torsion
[ 10763 10752 10751 10750 ] final  -92.13 input  -60.55 | X-H torsion
[ 11005 11000 10999 10996 ] final  -82.43 input  -57.11 | X-H torsion

> <Gold.Protein.ActiveResidues>
 VAL166  LYS551  ARG553  GLY616  TRP617  ASP618  TYR619  PRO620  LYS621  CYS622 
 ASP623  PHE694  ASN695  SER759  ASP760  ASP761  ALA762  ILE779  LEU786  VAL792 
 PHE793  MET794  SER795  GLU796  ALA797  LYS798  CYS799  TRP800  GLU811  SER814 

> <Gold.Protein.RotatedAtoms>
  151.6854  133.3311  159.3229 H   0  0  0  0  0  0  0  0  0  0  0  0  # atno 6907 bound_to 6896
  150.7803  134.6744  159.6419 H   0  0  0  0  0  0  0  0  0  0  0  0  # atno 6908 bound_to 6896
  152.3859  134.6522  160.0178 H   0  0  0  0  0  0  0  0  0  0  0  0  # atno 6909 bound_to 6896
  144.7808  139.7573  143.6260 H   0  0  0  0  0  0  0  0  0  0  0  0  # atno 7974 bound_to 7965
  154.4177  140.1735  156.1741 H   0  0  0  0  0  0  0  0  0  0  0  0  # atno 8008 bound_to 7997
  155.9736  140.3383  155.6574 H   0  0  0  0  0  0  0  0  0  0  0  0  # atno 8009 bound_to 7997
  155.6593  140.0699  157.2550 H   0  0  0  0  0  0  0  0  0  0  0  0  # atno 8010 bound_to 7997
  140.6715  143.7035  150.7933 H   0  0  0  0  0  0  0  0  0  0  0  0  # atno 10167 bound_to 10162
  156.5320  130.8525  151.2719 H   0  0  0  0  0  0  0  0  0  0  0  0  # atno 10718 bound_to 10713
  154.6830  135.5242  153.8289 H   0  0  0  0  0  0  0  0  0  0  0  0  # atno 10763 bound_to 10752
  153.0578  135.6557  154.0545 H   0  0  0  0  0  0  0  0  0  0  0  0  # atno 10764 bound_to 10752
  154.0430  135.2975  155.3332 H   0  0  0  0  0  0  0  0  0  0  0  0  # atno 10765 bound_to 10752
  141.1663  133.7244  156.8571 H   0  0  0  0  0  0  0  0  0  0  0  0  # atno 11005 bound_to 11000
  146.2014  139.5311  142.9741 LP  0  0  0  0  0  0  0  0  0  0  0  0  # atno 17320 bound_to 7965
  145.6057  141.0348  143.1994 LP  0  0  0  0  0  0  0  0  0  0  0  0  # atno 17321 bound_to 7965
  140.0721  143.5050  152.2574 LP  0  0  0  0  0  0  0  0  0  0  0  0  # atno 17342 bound_to 10162
  139.5986  144.7575  151.3227 LP  0  0  0  0  0  0  0  0  0  0  0  0  # atno 17343 bound_to 10162
  157.7420  130.9881  150.2485 LP  0  0  0  0  0  0  0  0  0  0  0  0  # atno 17370 bound_to 10713
  156.3050  130.3764  149.7714 LP  0  0  0  0  0  0  0  0  0  0  0  0  # atno 17371 bound_to 10713
  140.1875  134.8989  157.3021 LP  0  0  0  0  0  0  0  0  0  0  0  0  # atno 17394 bound_to 11000
  140.2327  134.3890  155.7515 LP  0  0  0  0  0  0  0  0  0  0  0  0  # atno 17395 bound_to 11000

$$$$
