AV-unprocessed.smi:3181|AV-procd|sdf|12148|dock7
  -GOLD-   2272017583D 1   1.00000     0.00000
 Structure written by MMmdl.
 42 43  0  0  0  0  0  0  0  0  2 V2000
  148.7256  141.9729  157.4492 C   0  0  0  0  0  0  0  0  0  0  0  0
  149.5644  140.7344  157.0938 C   0  0  1  0  0  0  0  0  0  0  0  0
  150.4637  140.9694  155.8604 C   0  0  0  0  0  0  0  0  0  0  0  0
  151.1634  139.7713  155.4360 N   0  0  0  0  0  0  0  0  0  0  0  0
  152.0761  139.0277  156.0640 C   0  0  0  0  0  0  0  0  0  0  0  0
  152.4934  137.9856  155.3591 N   0  0  0  0  0  0  0  0  0  0  0  0
  151.7386  138.1539  154.2324 C   0  0  0  0  0  0  0  0  0  0  0  0
  150.9216  139.2077  154.2293 N   0  0  0  0  0  0  0  0  0  0  0  0
  150.3886  140.3446  158.2606 N   0  3  0  0  0  0  0  0  0  0  0  0
  151.5922  141.1697  158.5173 C   0  0  2  0  0  0  0  0  0  0  0  0
  152.5219  140.4335  159.4984 C   0  0  0  0  0  0  0  0  0  0  0  0
  153.7758  141.2626  159.8226 C   0  0  0  0  0  0  0  0  0  0  0  0
  153.4263  142.6594  160.3748 C   0  0  2  0  0  0  0  0  0  0  0  0
  152.8863  142.5833  161.8172 C   0  0  0  0  0  0  0  0  0  0  0  0
  152.4910  143.3998  159.3854 C   0  0  2  0  0  0  0  0  0  0  0  0
  152.1345  144.8258  159.8371 C   0  0  0  0  0  0  0  0  0  0  0  0
  151.2322  142.5709  159.0573 C   0  0  0  0  0  0  0  0  0  0  0  0
  148.0508  142.2463  156.6377 H   0  0  0  0  0  0  0  0  0  0  0  0
  149.3592  142.8353  157.6595 H   0  0  0  0  0  0  0  0  0  0  0  0
  148.1104  141.7892  158.3307 H   0  0  0  0  0  0  0  0  0  0  0  0
  148.8648  139.9274  156.8702 H   0  0  0  0  0  0  0  0  0  0  0  0
  149.8658  141.3316  155.0228 H   0  0  0  0  0  0  0  0  0  0  0  0
  151.2094  141.7388  156.0615 H   0  0  0  0  0  0  0  0  0  0  0  0
  152.4459  139.2545  157.0534 H   0  0  0  0  0  0  0  0  0  0  0  0
  151.7924  137.4802  153.3899 H   0  0  0  0  0  0  0  0  0  0  0  0
  149.8093  140.3298  159.0879 H   0  0  0  0  0  0  0  0  0  0  0  0
  152.1282  141.2828  157.5734 H   0  0  0  0  0  0  0  0  0  0  0  0
  151.9850  140.2029  160.4194 H   0  0  0  0  0  0  0  0  0  0  0  0
  152.8231  139.4745  159.0749 H   0  0  0  0  0  0  0  0  0  0  0  0
  154.4064  140.7232  160.5303 H   0  0  0  0  0  0  0  0  0  0  0  0
  154.3714  141.3746  158.9155 H   0  0  0  0  0  0  0  0  0  0  0  0
  154.3596  143.2221  160.4270 H   0  0  0  0  0  0  0  0  0  0  0  0
  151.9147  142.0932  161.8694 H   0  0  0  0  0  0  0  0  0  0  0  0
  152.7805  143.5750  162.2564 H   0  0  0  0  0  0  0  0  0  0  0  0
  153.5691  142.0258  162.4586 H   0  0  0  0  0  0  0  0  0  0  0  0
  153.0477  143.5094  158.4532 H   0  0  0  0  0  0  0  0  0  0  0  0
  151.4939  144.8228  160.7191 H   0  0  0  0  0  0  0  0  0  0  0  0
  151.6029  145.3617  159.0505 H   0  0  0  0  0  0  0  0  0  0  0  0
  153.0312  145.3986  160.0750 H   0  0  0  0  0  0  0  0  0  0  0  0
  150.6426  143.1128  158.3175 H   0  0  0  0  0  0  0  0  0  0  0  0
  150.6017  142.4797  159.9425 H   0  0  0  0  0  0  0  0  0  0  0  0
  150.7139  139.4041  158.0884 H   0  0  0  0  0  0  0  0  0  0  0  0
  1  2  1  0  0  0  0
  1 18  1  0  0  0  0
  1 19  1  0  0  0  0
  1 20  1  0  0  0  0
  2  3  1  0  0  0  0
  2  9  1  0  0  0  0
  2 21  1  0  0  0  0
  3  4  1  0  0  0  0
  3 22  1  0  0  0  0
  3 23  1  0  0  0  0
  4  8  1  0  0  0  0
  4  5  1  0  0  0  0
  5  6  2  0  0  0  0
  5 24  1  0  0  0  0
  6  7  1  0  0  0  0
  7  8  2  0  0  0  0
  7 25  1  0  0  0  0
  9 10  1  0  0  0  0
  9 26  1  0  0  0  0
  9 42  1  0  0  0  0
 10 17  1  0  0  0  0
 10 11  1  0  0  0  0
 10 27  1  0  0  0  0
 11 12  1  0  0  0  0
 11 28  1  0  0  0  0
 11 29  1  0  0  0  0
 12 13  1  0  0  0  0
 12 30  1  0  0  0  0
 12 31  1  0  0  0  0
 13 14  1  0  0  0  0
 13 15  1  0  0  0  0
 13 32  1  0  0  0  0
 14 33  1  0  0  0  0
 14 34  1  0  0  0  0
 14 35  1  0  0  0  0
 15 16  1  0  0  0  0
 15 17  1  0  0  0  0
 15 36  1  0  0  0  0
 16 37  1  0  0  0  0
 16 38  1  0  0  0  0
 16 39  1  0  0  0  0
 17 40  1  0  0  0  0
 17 41  1  0  0  0  0
M  CHG  1   9   1
M  END
> <s_m_source_file>
AV-unprocessed.smi

> <i_m_source_file_index>
3181

> <i_lp_mmshare_version>
43012

> <i_f3d_flags>
0

> <s_epik_input>
bjFbY0hdbltjSF1uMVtDSDJdW0NAQEhdKFtDSDNdKVtOSF1bQ0BASF0yW0NIMl1bQ0gyXVtDQEBIXShbQ0gzXSlbQ0BASF0oW0NIM10pW0NIMl0y

> <s_epik_cmdline>
J2VwaWtfcHl0aG9uJywgJy1waCcsICc3LjAnLCAnLXRuJywgJzgnLCAnLW1hJywgJzIwMCcsICctbWV0YWxfYmluZGluZycsICctaW1hZScsICc8aW5maWxlLm1hZT4nLCAnLW9tYWUnLCAnPG91dGZpbGUubWFlPic=

> <r_lp_tautomer_probability>
1

> <r_epik_Ionization_Penalty>
0.000617007

> <r_epik_Ionization_Penalty_Charging>
0.000616215

> <r_epik_Ionization_Penalty_Neutral>
7.92544e-07

> <r_epik_State_Penalty>
0.000388807

> <r_epik_Charging_Adjusted_Penalty>
0.00100502

> <i_epik_Tot_Q>
1

> <i_epik_Tot_abs_Q>
1

> <r_epik_Metal_State_Penalty>
-0

> <b_epik_Metal_Only>
0

> <s_lp_Force_Field>
OPLS_2005

> <r_lp_Energy>
20.8152

> <b_lp_Chiralities_Consistent>
1

> <s_lp_Variant>
AV-unprocessed.smi:3181-14

> <Gold.Version>
5.8.1

> <Gold.Id.Protein>
6NUR|6NUR_protein|mol2

> <Gold.PLP.Fitness>
43.4245

> <Gold.PLP.PLP>
-39.7982

> <Gold.PLP.part.hbond>
-1.4101

> <Gold.PLP.part.metal>
0.0000

> <Gold.PLP.part.buried>
-3.8340

> <Gold.PLP.part.nonpolar>
-34.2092

> <Gold.PLP.part.repulsive>
0.3515

> <Gold.PLP.ligand.clash>
0.0000

> <Gold.PLP.ligand.torsion>
0.2236

> <Gold.PLP.Chemscore.Hbond>
0.3500

> <Gold.PLP.Chemscore.CHOScore>
1.0000

> <Gold.PLP.Chemscore.Metal>
0.0000

> <Gold.Chemscore.Hbonds>
donor molecule, donor type, donor heavy atom, donor atom, acceptor molecule, acceptor atom, score
      P1  H  7989  7998       L1     8  0.30
      L1  C     7    25       P1  7949  1.00

> <Gold.PLP.Chemscore.Internal.Correction>
0.0234

> <Gold.Rescore>
     Score         DG    S(hbond)    S(metal)    S(lipo)     H(rot)  DE(clash)    DE(int)     intcor
     12.12     -12.59       0.40        0.00      95.51       2.11       0.04       0.42       ----

> <Gold.Chemscore.Fitness>
12.1241

> <Gold.Chemscore.DG>
-12.5882

> <Gold.Chemscore.ZeroCoef>
-5.4800

> <Gold.Chemscore.Hbond>
0.3993

> <Gold.Chemscore.Metal>
0.0000

> <Gold.Chemscore.Lipo>
95.5124

> <Gold.Chemscore.Internal_Hbond>
0.0000

> <Gold.Chemscore.DEClash>
0.0402

> <Gold.Chemscore.DEInternal>
0.4238

> <Gold.Chemscore.Rot>
2.1095

> <Gold.Chemscore.Internal.Correction>
   9.000000E+99

> <Gold.Chemscore.Hbond.Weighted>
-1.3335

> <Gold.Chemscore.Metal.Weighted>
-0.0000

> <Gold.Chemscore.Lipo.Weighted>
-11.1749

> <Gold.Chemscore.Internal_Hbond.Weighted>
0.0000

> <Gold.Chemscore.DEClash.Weighted>
0.0402

> <Gold.Chemscore.DEInternal.Weighted>
0.4238

> <Gold.Chemscore.Rot.Weighted>
5.4003

> <Gold.Chemscore.Internal.Correction.Weighted>
   9.000000E+99

> <Gold.Protein.RotatedTorsions>
[ 6907 6896 6895 6894 ] final   -3.86 input  -60.11 | X-H torsion
[ 7974 7965 7964 7962 ] final -133.78 input  175.53 | X-H torsion
[ 8008 7997 7996 7995 ] final -128.34 input   59.86 | X-H torsion
[ 10167 10162 10161 10158 ] final  -74.69 input  -65.29 | X-H torsion
[ 10718 10713 10712 10709 ] final  163.25 input   66.30 | X-H torsion
[ 10763 10752 10751 10750 ] final -152.54 input  -60.55 | X-H torsion
[ 11005 11000 10999 10996 ] final -131.97 input  -57.11 | X-H torsion

> <Gold.Protein.ActiveResidues>
 VAL166  LYS551  ARG553  GLY616  TRP617  ASP618  TYR619  PRO620  LYS621  CYS622 
 ASP623  PHE694  ASN695  SER759  ASP760  ASP761  ALA762  ILE779  LEU786  VAL792 
 PHE793  MET794  SER795  GLU796  ALA797  LYS798  CYS799  TRP800  GLU811  SER814 

> <Gold.Protein.RotatedAtoms>
  151.5070  135.1064  159.9843 H   0  0  0  0  0  0  0  0  0  0  0  0  # atno 6907 bound_to 6896
  152.4678  133.7957  159.6936 H   0  0  0  0  0  0  0  0  0  0  0  0  # atno 6908 bound_to 6896
  150.8670  133.7496  159.2999 H   0  0  0  0  0  0  0  0  0  0  0  0  # atno 6909 bound_to 6896
  144.9162  140.6957  143.4994 H   0  0  0  0  0  0  0  0  0  0  0  0  # atno 7974 bound_to 7965
  155.2610  140.0436  157.2997 H   0  0  0  0  0  0  0  0  0  0  0  0  # atno 8008 bound_to 7997
  154.5711  140.2374  155.8160 H   0  0  0  0  0  0  0  0  0  0  0  0  # atno 8009 bound_to 7997
  156.2123  140.2995  155.9767 H   0  0  0  0  0  0  0  0  0  0  0  0  # atno 8010 bound_to 7997
  140.5006  143.2362  151.7758 H   0  0  0  0  0  0  0  0  0  0  0  0  # atno 10167 bound_to 10162
  157.1111  131.0468  151.2457 H   0  0  0  0  0  0  0  0  0  0  0  0  # atno 10718 bound_to 10713
  154.7987  135.3233  154.7603 H   0  0  0  0  0  0  0  0  0  0  0  0  # atno 10763 bound_to 10752
  153.8276  135.6882  153.4823 H   0  0  0  0  0  0  0  0  0  0  0  0  # atno 10764 bound_to 10752
  153.1692  135.4630  154.9822 H   0  0  0  0  0  0  0  0  0  0  0  0  # atno 10765 bound_to 10752
  140.9211  134.1442  157.4313 H   0  0  0  0  0  0  0  0  0  0  0  0  # atno 11005 bound_to 11000
  145.3372  139.1742  143.4505 LP  0  0  0  0  0  0  0  0  0  0  0  0  # atno 17320 bound_to 7965
  146.3183  140.3408  142.8648 LP  0  0  0  0  0  0  0  0  0  0  0  0  # atno 17321 bound_to 7965
  139.4871  144.4527  151.9635 LP  0  0  0  0  0  0  0  0  0  0  0  0  # atno 17342 bound_to 10162
  140.3616  144.2966  150.5933 LP  0  0  0  0  0  0  0  0  0  0  0  0  # atno 17343 bound_to 10162
  157.4559  130.7625  149.7192 LP  0  0  0  0  0  0  0  0  0  0  0  0  # atno 17370 bound_to 10713
  155.9850  130.3986  150.3282 LP  0  0  0  0  0  0  0  0  0  0  0  0  # atno 17371 bound_to 10713
  139.8776  134.9972  156.5833 LP  0  0  0  0  0  0  0  0  0  0  0  0  # atno 17394 bound_to 11000
  140.7986  133.8524  155.8707 LP  0  0  0  0  0  0  0  0  0  0  0  0  # atno 17395 bound_to 11000

$$$$
