AV-unprocessed.smi:1586|AV-procd|sdf|6375|dock9
  -GOLD-   22720 7 03D 1   1.00000     0.00000
 Structure written by MMmdl.
 47 48  0  0  0  0  0  0  0  0  2 V2000
  147.4075  130.5142  153.2768 C   0  0  0  0  0  0  0  0  0  0  0  0
  147.3485  131.7726  154.1545 C   0  0  0  0  0  0  0  0  0  0  0  0
  148.2839  132.8039  153.6990 N   0  0  0  0  0  0  0  0  0  0  0  0
  148.2742  132.9637  152.2450 C   0  0  0  0  0  0  0  0  0  0  0  0
  146.9756  133.6254  151.7356 C   0  0  0  0  0  0  0  0  0  0  0  0
  146.7688  134.9587  152.3664 N   0  3  0  0  0  0  0  0  0  0  0  0
  145.5681  135.7238  151.8962 C   0  0  2  0  0  0  0  0  0  0  0  0
  145.3944  135.7234  150.3579 C   0  0  0  0  0  0  0  0  0  0  0  0
  145.6207  137.1821  152.4252 C   0  0  0  0  0  0  0  0  0  0  0  0
  144.2990  137.7418  152.6935 N   0  0  0  0  0  0  0  0  0  0  0  0
  143.2760  137.0575  153.2253 C   0  0  0  0  0  0  0  0  0  0  0  0
  143.3510  135.8703  153.5444 O   0  0  0  0  0  0  0  0  0  0  0  0
  142.1831  137.8287  153.3545 N   0  0  0  0  0  0  0  0  0  0  0  0
  140.9151  137.4490  153.8640 C   0  0  0  0  0  0  0  0  0  0  0  0
  139.7446  138.1783  153.5257 C   0  0  0  0  0  0  0  0  0  0  0  0
  138.7604  137.5095  154.1978 C   0  0  0  0  0  0  0  0  0  0  0  0
  137.2877  137.7106  154.3057 C   0  0  0  0  0  0  0  0  0  0  0  0
  139.2861  136.4612  154.8875 O   0  0  0  0  0  0  0  0  0  0  0  0
  140.6685  136.4275  154.6693 N   0  0  0  0  0  0  0  0  0  0  0  0
  146.8015  134.8068  153.8473 C   0  0  0  0  0  0  0  0  0  0  0  0
  148.1043  134.1233  154.3102 C   0  0  0  0  0  0  0  0  0  0  0  0
  146.6125  129.8211  153.5524 H   0  0  0  0  0  0  0  0  0  0  0  0
  148.3507  129.9802  153.3886 H   0  0  0  0  0  0  0  0  0  0  0  0
  147.2784  130.7599  152.2223 H   0  0  0  0  0  0  0  0  0  0  0  0
  146.3372  132.1767  154.0934 H   0  0  0  0  0  0  0  0  0  0  0  0
  147.5117  131.5107  155.1990 H   0  0  0  0  0  0  0  0  0  0  0  0
  149.1313  133.5738  151.9565 H   0  0  0  0  0  0  0  0  0  0  0  0
  148.4173  131.9935  151.7680 H   0  0  0  0  0  0  0  0  0  0  0  0
  147.0795  133.7278  150.6560 H   0  0  0  0  0  0  0  0  0  0  0  0
  146.1100  132.9860  151.9137 H   0  0  0  0  0  0  0  0  0  0  0  0
  144.6874  135.2287  152.3083 H   0  0  0  0  0  0  0  0  0  0  0  0
  144.5284  136.3090  150.0499 H   0  0  0  0  0  0  0  0  0  0  0  0
  145.2246  134.7209  149.9650 H   0  0  0  0  0  0  0  0  0  0  0  0
  146.2667  136.1449  149.8573 H   0  0  0  0  0  0  0  0  0  0  0  0
  146.2115  137.2671  153.3367 H   0  0  0  0  0  0  0  0  0  0  0  0
  146.1108  137.8216  151.6905 H   0  0  0  0  0  0  0  0  0  0  0  0
  144.1560  138.7137  152.4602 H   0  0  0  0  0  0  0  0  0  0  0  0
  142.2639  138.7885  153.0535 H   0  0  0  0  0  0  0  0  0  0  0  0
  139.6396  139.0482  152.8946 H   0  0  0  0  0  0  0  0  0  0  0  0
  136.9789  138.6186  153.7876 H   0  0  0  0  0  0  0  0  0  0  0  0
  136.9846  137.7973  155.3492 H   0  0  0  0  0  0  0  0  0  0  0  0
  136.7501  136.8707  153.8654 H   0  0  0  0  0  0  0  0  0  0  0  0
  146.7446  135.7780  154.3346 H   0  0  0  0  0  0  0  0  0  0  0  0
  145.9277  134.2491  154.1859 H   0  0  0  0  0  0  0  0  0  0  0  0
  148.1269  134.0470  155.3967 H   0  0  0  0  0  0  0  0  0  0  0  0
  148.9562  134.7483  154.0389 H   0  0  0  0  0  0  0  0  0  0  0  0
  147.5750  135.5096  152.1090 H   0  0  0  0  0  0  0  0  0  0  0  0
  1  2  1  0  0  0  0
  1 22  1  0  0  0  0
  1 23  1  0  0  0  0
  1 24  1  0  0  0  0
  2  3  1  0  0  0  0
  2 25  1  0  0  0  0
  2 26  1  0  0  0  0
  3 21  1  0  0  0  0
  3  4  1  0  0  0  0
  4  5  1  0  0  0  0
  4 27  1  0  0  0  0
  4 28  1  0  0  0  0
  5  6  1  0  0  0  0
  5 29  1  0  0  0  0
  5 30  1  0  0  0  0
  6  7  1  0  0  0  0
  6 20  1  0  0  0  0
  6 47  1  0  0  0  0
  7  8  1  0  0  0  0
  7  9  1  0  0  0  0
  7 31  1  0  0  0  0
  8 32  1  0  0  0  0
  8 33  1  0  0  0  0
  8 34  1  0  0  0  0
  9 10  1  0  0  0  0
  9 35  1  0  0  0  0
  9 36  1  0  0  0  0
 10 11  1  0  0  0  0
 10 37  1  0  0  0  0
 11 12  2  0  0  0  0
 11 13  1  0  0  0  0
 13 14  1  0  0  0  0
 13 38  1  0  0  0  0
 14 19  2  0  0  0  0
 14 15  1  0  0  0  0
 15 16  2  0  0  0  0
 15 39  1  0  0  0  0
 16 17  1  0  0  0  0
 16 18  1  0  0  0  0
 17 40  1  0  0  0  0
 17 41  1  0  0  0  0
 17 42  1  0  0  0  0
 18 19  1  0  0  0  0
 20 21  1  0  0  0  0
 20 43  1  0  0  0  0
 20 44  1  0  0  0  0
 21 45  1  0  0  0  0
 21 46  1  0  0  0  0
M  CHG  1   6   1
M  END
> <s_m_source_file>
AV-unprocessed.smi

> <i_m_source_file_index>
1586

> <i_lp_mmshare_version>
43012

> <i_f3d_flags>
0

> <s_epik_input>
W0NIM11bQ0gyXU4xW0NIMl1bQ0gyXU4oW0NIMl1bQ0gyXTEpW0NASF0oW0NIM10pW0NIMl1bTkhdQyg9TylbTkhdYzJbY0hdYyhbQ0gzXSlvbjI=

> <s_epik_cmdline>
J2VwaWtfcHl0aG9uJywgJy1waCcsICc3LjAnLCAnLXRuJywgJzgnLCAnLW1hJywgJzIwMCcsICctbWV0YWxfYmluZGluZycsICctaW1hZScsICc8aW5maWxlLm1hZT4nLCAnLW9tYWUnLCAnPG91dGZpbGUubWFlPic=

> <r_epik_Ionization_Penalty>
0.153363

> <r_epik_Ionization_Penalty_Charging>
0.151842

> <r_epik_Ionization_Penalty_Neutral>
0.00152029

> <r_epik_State_Penalty>
0.985235

> <r_epik_Charging_Adjusted_Penalty>
1.13708

> <i_epik_Tot_Q>
1

> <i_epik_Tot_abs_Q>
1

> <r_epik_Metal_State_Penalty>
0.996168

> <b_epik_Metal_Only>
0

> <s_lp_Force_Field>
OPLS_2005

> <r_lp_Energy>
18.9403

> <b_lp_Chiralities_Consistent>
1

> <s_lp_Variant>
AV-unprocessed.smi:1586-3

> <Gold.Version>
5.8.1

> <Gold.Id.Protein>
6NUR|6NUR_protein|mol2

> <Gold.PLP.Fitness>
42.2702

> <Gold.PLP.PLP>
-32.0500

> <Gold.PLP.part.hbond>
-4.4031

> <Gold.PLP.part.metal>
0.0000

> <Gold.PLP.part.buried>
-2.4253

> <Gold.PLP.part.nonpolar>
-24.2703

> <Gold.PLP.part.repulsive>
0.3307

> <Gold.PLP.ligand.clash>
0.0000

> <Gold.PLP.ligand.torsion>
0.8286

> <Gold.PLP.Chemscore.Hbond>
3.9357

> <Gold.PLP.Chemscore.CHOScore>
0.0000

> <Gold.PLP.Chemscore.Metal>
0.0000

> <Gold.Chemscore.Hbonds>
donor molecule, donor type, donor heavy atom, donor atom, acceptor molecule, acceptor atom, score
      L1  H     6    47       P1  7948  2.00
      L1  H    10    37       P1 10175  1.00
      L1  H    13    38       P1 10175  0.55

> <Gold.PLP.Chemscore.Internal.Correction>
0.0702

> <Gold.Rescore>
     Score         DG    S(hbond)    S(metal)    S(lipo)     H(rot)  DE(clash)    DE(int)     intcor
     15.31     -18.45       2.95        0.00      65.11       1.76       0.07       3.07       ----

> <Gold.Chemscore.Fitness>
15.3093

> <Gold.Chemscore.DG>
-18.4510

> <Gold.Chemscore.ZeroCoef>
-5.4800

> <Gold.Chemscore.Hbond>
2.9545

> <Gold.Chemscore.Metal>
0.0000

> <Gold.Chemscore.Lipo>
65.1121

> <Gold.Chemscore.Internal_Hbond>
0.0000

> <Gold.Chemscore.DEClash>
0.0686

> <Gold.Chemscore.DEInternal>
3.0731

> <Gold.Chemscore.Rot>
1.7637

> <Gold.Chemscore.Internal.Correction>
   9.000000E+99

> <Gold.Chemscore.Hbonds>
donor molecule, donor type, donor heavy atom, donor atom, acceptor molecule, acceptor atom, score
      L1  H     6    47       P1  7948  0.94
      L1  H    10    37       P1 10175  1.00
      L1  H    13    38       P1 10175  0.52

> <Gold.Chemscore.Hbond.Weighted>
-9.8679

> <Gold.Chemscore.Metal.Weighted>
-0.0000

> <Gold.Chemscore.Lipo.Weighted>
-7.6181

> <Gold.Chemscore.Internal_Hbond.Weighted>
0.0000

> <Gold.Chemscore.DEClash.Weighted>
0.0686

> <Gold.Chemscore.DEInternal.Weighted>
3.0731

> <Gold.Chemscore.Rot.Weighted>
4.5150

> <Gold.Chemscore.Internal.Correction.Weighted>
   9.000000E+99

> <Gold.Protein.RotatedTorsions>
[ 6907 6896 6895 6894 ] final   46.95 input  -60.11 | X-H torsion
[ 7974 7965 7964 7962 ] final   24.04 input  175.53 | X-H torsion
[ 8008 7997 7996 7995 ] final -176.00 input   59.86 | X-H torsion
[ 10167 10162 10161 10158 ] final  -82.40 input  -65.29 | X-H torsion
[ 10718 10713 10712 10709 ] final   31.75 input   66.30 | X-H torsion
[ 10763 10752 10751 10750 ] final    7.43 input  -60.55 | X-H torsion
[ 11005 11000 10999 10996 ] final -169.77 input  -57.11 | X-H torsion

> <Gold.Protein.ActiveResidues>
 VAL166  LYS551  ARG553  GLY616  TRP617  ASP618  TYR619  PRO620  LYS621  CYS622 
 ASP623  PHE694  ASN695  SER759  ASP760  ASP761  ALA762  ILE779  LEU786  VAL792 
 PHE793  MET794  SER795  GLU796  ALA797  LYS798  CYS799  TRP800  GLU811  SER814 

> <Gold.Protein.RotatedAtoms>
  152.2624  134.8020  160.0428 H   0  0  0  0  0  0  0  0  0  0  0  0  # atno 6907 bound_to 6896
  151.8661  133.3461  159.3728 H   0  0  0  0  0  0  0  0  0  0  0  0  # atno 6908 bound_to 6896
  150.7121  134.5085  159.5640 H   0  0  0  0  0  0  0  0  0  0  0  0  # atno 6909 bound_to 6896
  146.1956  139.7660  142.8799 H   0  0  0  0  0  0  0  0  0  0  0  0  # atno 7974 bound_to 7965
  155.9895  140.1198  157.0651 H   0  0  0  0  0  0  0  0  0  0  0  0  # atno 8008 bound_to 7997
  154.4207  140.1128  156.5614 H   0  0  0  0  0  0  0  0  0  0  0  0  # atno 8009 bound_to 7997
  155.6362  140.3473  155.4701 H   0  0  0  0  0  0  0  0  0  0  0  0  # atno 8010 bound_to 7997
  140.4323  143.2544  151.8742 H   0  0  0  0  0  0  0  0  0  0  0  0  # atno 10167 bound_to 10162
  157.2764  130.7233  149.6532 H   0  0  0  0  0  0  0  0  0  0  0  0  # atno 10718 bound_to 10713
  153.2363  135.6898  153.7833 H   0  0  0  0  0  0  0  0  0  0  0  0  # atno 10763 bound_to 10752
  153.6978  135.3302  155.3218 H   0  0  0  0  0  0  0  0  0  0  0  0  # atno 10764 bound_to 10752
  154.8336  135.4560  154.1268 H   0  0  0  0  0  0  0  0  0  0  0  0  # atno 10765 bound_to 10752
  140.5270  134.5653  157.5064 H   0  0  0  0  0  0  0  0  0  0  0  0  # atno 11005 bound_to 11000
  145.3653  141.0333  143.3261 LP  0  0  0  0  0  0  0  0  0  0  0  0  # atno 17320 bound_to 7965
  144.8574  139.5229  143.6828 LP  0  0  0  0  0  0  0  0  0  0  0  0  # atno 17321 bound_to 7965
  139.4785  144.5321  151.8652 LP  0  0  0  0  0  0  0  0  0  0  0  0  # atno 17342 bound_to 10162
  140.4413  144.1983  150.5891 LP  0  0  0  0  0  0  0  0  0  0  0  0  # atno 17343 bound_to 10162
  155.9664  130.4351  150.5079 LP  0  0  0  0  0  0  0  0  0  0  0  0  # atno 17370 bound_to 10713
  157.3014  131.0646  151.2065 LP  0  0  0  0  0  0  0  0  0  0  0  0  # atno 17371 bound_to 10713
  139.9574  134.7510  156.0310 LP  0  0  0  0  0  0  0  0  0  0  0  0  # atno 17394 bound_to 11000
  141.1302  133.6588  156.3445 LP  0  0  0  0  0  0  0  0  0  0  0  0  # atno 17395 bound_to 11000

$$$$
