AV-unprocessed.smi:406|AV-procd|sdf|2500|dock10
  -GOLD-   2262022443D 1   1.00000     0.00000
 Structure written by MMmdl.
 34 35  0  0  0  0  0  0  0  0  2 V2000
  149.6643  132.0284  154.4441 C   0  0  0  0  0  0  0  0  0  0  0  0
  149.6872  133.4335  153.8334 C   0  0  0  0  0  0  0  0  0  0  0  0
  149.7721  134.5356  154.9010 C   0  0  0  0  0  0  0  0  0  0  0  0
  150.1887  135.8087  154.3274 N   0  0  0  0  0  0  0  0  0  0  0  0
  151.1519  136.6064  154.8173 C   0  0  0  0  0  0  0  0  0  0  0  0
  151.7815  136.3546  155.8447 O   0  0  0  0  0  0  0  0  0  0  0  0
  151.4473  137.8892  154.0342 C   0  0  0  0  0  0  0  0  0  0  0  0
  150.9926  139.0904  154.8117 C   0  0  0  0  0  0  0  0  0  0  0  0
  149.9192  139.8973  154.5356 C   0  0  0  0  0  0  0  0  0  0  0  0
  149.7218  141.1380  155.7399 S   0  0  0  0  0  0  0  0  0  0  0  0
  151.1228  140.5063  156.6062 C   0  0  0  0  0  0  0  0  0  0  0  0
  151.5938  141.0016  157.7649 N   0  5  0  0  0  0  0  0  0  0  0  0
  151.0799  142.1069  158.3737 C   0  0  0  0  0  0  0  0  0  0  0  0
  150.1080  142.7467  157.9754 O   0  0  0  0  0  0  0  0  0  0  0  0
  151.8178  142.5671  159.6002 C   0  0  0  0  0  0  0  0  0  0  0  0
  152.2533  144.0177  159.6726 C   0  0  0  0  0  0  0  0  0  0  0  0
  153.2796  142.9400  159.4428 C   0  0  0  0  0  0  0  0  0  0  0  0
  151.6830  139.4748  155.9642 N   0  0  0  0  0  0  0  0  0  0  0  0
  149.6056  131.2673  153.6659 H   0  0  0  0  0  0  0  0  0  0  0  0
  148.8039  131.8998  155.1014 H   0  0  0  0  0  0  0  0  0  0  0  0
  150.5649  131.8387  155.0286 H   0  0  0  0  0  0  0  0  0  0  0  0
  150.5357  133.5159  153.1529 H   0  0  0  0  0  0  0  0  0  0  0  0
  148.7911  133.5728  153.2273 H   0  0  0  0  0  0  0  0  0  0  0  0
  148.8147  134.6506  155.4123 H   0  0  0  0  0  0  0  0  0  0  0  0
  150.5003  134.2585  155.6641 H   0  0  0  0  0  0  0  0  0  0  0  0
  149.7295  136.0965  153.4744 H   0  0  0  0  0  0  0  0  0  0  0  0
  152.5168  137.9402  153.8268 H   0  0  0  0  0  0  0  0  0  0  0  0
  150.9463  137.8483  153.0663 H   0  0  0  0  0  0  0  0  0  0  0  0
  149.2265  139.8282  153.7105 H   0  0  0  0  0  0  0  0  0  0  0  0
  151.5609  142.0604  160.5288 H   0  0  0  0  0  0  0  0  0  0  0  0
  152.0136  144.6669  158.8324 H   0  0  0  0  0  0  0  0  0  0  0  0
  152.2096  144.4928  160.6504 H   0  0  0  0  0  0  0  0  0  0  0  0
  153.9448  142.6848  160.2649 H   0  0  0  0  0  0  0  0  0  0  0  0
  153.7302  142.8885  158.4532 H   0  0  0  0  0  0  0  0  0  0  0  0
  1  2  1  0  0  0  0
  1 19  1  0  0  0  0
  1 20  1  0  0  0  0
  1 21  1  0  0  0  0
  2  3  1  0  0  0  0
  2 22  1  0  0  0  0
  2 23  1  0  0  0  0
  3  4  1  0  0  0  0
  3 24  1  0  0  0  0
  3 25  1  0  0  0  0
  4  5  1  0  0  0  0
  4 26  1  0  0  0  0
  5  6  2  0  0  0  0
  5  7  1  0  0  0  0
  7  8  1  0  0  0  0
  7 27  1  0  0  0  0
  7 28  1  0  0  0  0
  8 18  1  0  0  0  0
  8  9  2  0  0  0  0
  9 10  1  0  0  0  0
  9 29  1  0  0  0  0
 10 11  1  0  0  0  0
 11 12  1  0  0  0  0
 11 18  2  0  0  0  0
 12 13  1  0  0  0  0
 13 14  2  0  0  0  0
 13 15  1  0  0  0  0
 15 17  1  0  0  0  0
 15 16  1  0  0  0  0
 15 30  1  0  0  0  0
 16 17  1  0  0  0  0
 16 31  1  0  0  0  0
 16 32  1  0  0  0  0
 17 33  1  0  0  0  0
 17 34  1  0  0  0  0
M  CHG  1  12  -1
M  END
> <s_m_source_file>
AV-unprocessed.smi

> <i_m_source_file_index>
406

> <i_lp_mmshare_version>
43012

> <i_f3d_flags>
0

> <s_epik_input>
W0NIM11bQ0gyXVtDSDJdW05IXUMoPU8pW0NIMl1jMVtjSF1zYyhuMSlbTkhdQyg9TylbQ0hdMltDSDJdW0NIMl0y

> <s_epik_cmdline>
J2VwaWtfcHl0aG9uJywgJy1waCcsICc3LjAnLCAnLXRuJywgJzgnLCAnLW1hJywgJzIwMCcsICctbWV0YWxfYmluZGluZycsICctaW1hZScsICc8aW5maWxlLm1hZT4nLCAnLW9tYWUnLCAnPG91dGZpbGUubWFlPic=

> <r_lp_tautomer_probability>
1

> <r_epik_Ionization_Penalty>
5.51776

> <r_epik_Ionization_Penalty_Charging>
5.00105

> <r_epik_Ionization_Penalty_Neutral>
0.516708

> <r_epik_State_Penalty>
5.00092

> <r_epik_Charging_Adjusted_Penalty>
10.002

> <i_epik_Tot_Q>
-1

> <i_epik_Tot_abs_Q>
1

> <r_epik_Metal_State_Penalty>
1.12078

> <b_epik_Metal_Only>
1

> <s_lp_Force_Field>
OPLS_2005

> <r_lp_Energy>
6.22345

> <b_lp_Chiralities_Consistent>
1

> <s_lp_Variant>
AV-unprocessed.smi:406-2

> <Gold.Version>
5.8.1

> <Gold.Id.Protein>
6NUR|6NUR_protein|mol2

> <Gold.PLP.Fitness>
45.3741

> <Gold.PLP.PLP>
-37.0358

> <Gold.PLP.part.hbond>
-2.7120

> <Gold.PLP.part.metal>
0.0000

> <Gold.PLP.part.buried>
-1.6007

> <Gold.PLP.part.nonpolar>
-33.4545

> <Gold.PLP.part.repulsive>
0.2463

> <Gold.PLP.ligand.clash>
0.0000

> <Gold.PLP.ligand.torsion>
0.4107

> <Gold.PLP.Chemscore.Hbond>
2.0000

> <Gold.PLP.Chemscore.CHOScore>
1.0000

> <Gold.PLP.Chemscore.Metal>
0.0000

> <Gold.Chemscore.Hbonds>
donor molecule, donor type, donor heavy atom, donor atom, acceptor molecule, acceptor atom, score
      L1  H     4    26       P1  7948  0.90
      P1  H 10752 10763       L1     6  0.99
      L1  C     9    29       P1  7957  0.86

> <Gold.PLP.Chemscore.Internal.Correction>
0.1598

> <Gold.Rescore>
     Score         DG    S(hbond)    S(metal)    S(lipo)     H(rot)  DE(clash)    DE(int)     intcor
     13.63     -15.75       1.61        0.00      82.19       1.85       0.23       1.90       ----

> <Gold.Chemscore.Fitness>
13.6258

> <Gold.Chemscore.DG>
-15.7546

> <Gold.Chemscore.ZeroCoef>
-5.4800

> <Gold.Chemscore.Hbond>
1.6135

> <Gold.Chemscore.Metal>
0.0000

> <Gold.Chemscore.Lipo>
82.1873

> <Gold.Chemscore.Internal_Hbond>
0.0000

> <Gold.Chemscore.DEClash>
0.2263

> <Gold.Chemscore.DEInternal>
1.9024

> <Gold.Chemscore.Rot>
1.8478

> <Gold.Chemscore.Internal.Correction>
   9.000000E+99

> <Gold.Chemscore.Hbonds>
donor molecule, donor type, donor heavy atom, donor atom, acceptor molecule, acceptor atom, score
      L1  H     4    26       P1  7948  0.18
      P1  H 10752 10763       L1     6  0.28

> <Gold.Chemscore.Hbond.Weighted>
-5.3892

> <Gold.Chemscore.Metal.Weighted>
-0.0000

> <Gold.Chemscore.Lipo.Weighted>
-9.6159

> <Gold.Chemscore.Internal_Hbond.Weighted>
0.0000

> <Gold.Chemscore.DEClash.Weighted>
0.2263

> <Gold.Chemscore.DEInternal.Weighted>
1.9024

> <Gold.Chemscore.Rot.Weighted>
4.7305

> <Gold.Chemscore.Internal.Correction.Weighted>
   9.000000E+99

> <Gold.Protein.RotatedTorsions>
[ 6907 6896 6895 6894 ] final   49.20 input  -60.11 | X-H torsion
[ 7974 7965 7964 7962 ] final  120.45 input  175.53 | X-H torsion
[ 8008 7997 7996 7995 ] final   93.70 input   59.86 | X-H torsion
[ 10167 10162 10161 10158 ] final -163.95 input  -65.29 | X-H torsion
[ 10718 10713 10712 10709 ] final   38.84 input   66.30 | X-H torsion
[ 10763 10752 10751 10750 ] final   99.91 input  -60.55 | X-H torsion
[ 11005 11000 10999 10996 ] final   63.21 input  -57.11 | X-H torsion

> <Gold.Protein.ActiveResidues>
 VAL166  LYS551  ARG553  GLY616  TRP617  ASP618  TYR619  PRO620  LYS621  CYS622 
 ASP623  PHE694  ASN695  SER759  ASP760  ASP761  ALA762  ILE779  LEU786  VAL792 
 PHE793  MET794  SER795  GLU796  ALA797  LYS798  CYS799  TRP800  GLU811  SER814 

> <Gold.Protein.RotatedAtoms>
  152.2881  134.7753  160.0383 H   0  0  0  0  0  0  0  0  0  0  0  0  # atno 6907 bound_to 6896
  151.8309  133.3403  159.3621 H   0  0  0  0  0  0  0  0  0  0  0  0  # atno 6908 bound_to 6896
  150.7218  134.5412  159.5793 H   0  0  0  0  0  0  0  0  0  0  0  0  # atno 6909 bound_to 6896
  145.1310  139.3327  143.4665 H   0  0  0  0  0  0  0  0  0  0  0  0  # atno 7974 bound_to 7965
  156.0497  140.3309  155.7337 H   0  0  0  0  0  0  0  0  0  0  0  0  # atno 8008 bound_to 7997
  155.5620  140.0620  157.2844 H   0  0  0  0  0  0  0  0  0  0  0  0  # atno 8009 bound_to 7997
  154.4430  140.1876  156.0780 H   0  0  0  0  0  0  0  0  0  0  0  0  # atno 8010 bound_to 7997
  139.6284  144.0487  152.1995 H   0  0  0  0  0  0  0  0  0  0  0  0  # atno 10167 bound_to 10162
  157.3635  130.7662  149.7065 H   0  0  0  0  0  0  0  0  0  0  0  0  # atno 10718 bound_to 10713
  153.3073  135.4097  155.1305 H   0  0  0  0  0  0  0  0  0  0  0  0  # atno 10763 bound_to 10752
  154.8566  135.3556  154.5771 H   0  0  0  0  0  0  0  0  0  0  0  0  # atno 10764 bound_to 10752
  153.6199  135.7065  153.5373 H   0  0  0  0  0  0  0  0  0  0  0  0  # atno 10765 bound_to 10752
  140.0040  134.6398  155.9885 H   0  0  0  0  0  0  0  0  0  0  0  0  # atno 11005 bound_to 11000
  146.3514  140.1309  142.8597 LP  0  0  0  0  0  0  0  0  0  0  0  0  # atno 17320 bound_to 7965
  145.0635  140.9105  143.4924 LP  0  0  0  0  0  0  0  0  0  0  0  0  # atno 17321 bound_to 7965
  140.0146  144.6198  150.7618 LP  0  0  0  0  0  0  0  0  0  0  0  0  # atno 17342 bound_to 10162
  140.7425  143.2832  151.3537 LP  0  0  0  0  0  0  0  0  0  0  0  0  # atno 17343 bound_to 10162
  155.9742  130.4107  150.3944 LP  0  0  0  0  0  0  0  0  0  0  0  0  # atno 17370 bound_to 10713
  157.2024  131.0441  151.2643 LP  0  0  0  0  0  0  0  0  0  0  0  0  # atno 17371 bound_to 10713
  141.1663  133.6537  156.4491 LP  0  0  0  0  0  0  0  0  0  0  0  0  # atno 17394 bound_to 11000
  140.4675  134.6784  157.5114 LP  0  0  0  0  0  0  0  0  0  0  0  0  # atno 17395 bound_to 11000

$$$$
