AV-unprocessed.smi:1166|AV-procd|sdf|4935|dock8
  -GOLD-   22720 3523D 1   1.00000     0.00000
 Structure written by MMmdl.
 47 48  0  0  0  0  0  0  0  0  2 V2000
  145.1396  130.9145  151.6774 C   0  0  0  0  0  0  0  0  0  0  0  0
  145.3545  132.0249  150.7587 N   0  0  0  0  0  0  0  0  0  0  0  0
  145.9771  131.7955  149.4596 C   0  0  0  0  0  0  0  0  0  0  0  0
  144.8865  133.3137  151.0943 C   0  0  0  0  0  0  0  0  0  0  0  0
  145.5196  134.5053  150.6643 C   0  0  0  0  0  0  0  0  0  0  0  0
  144.9956  135.7593  151.0409 C   0  0  0  0  0  0  0  0  0  0  0  0
  143.8345  135.8185  151.8517 C   0  0  0  0  0  0  0  0  0  0  0  0
  143.2127  137.0171  152.3013 N   0  0  0  0  0  0  0  0  0  0  0  0
  142.1192  137.1826  153.0663 C   0  0  0  0  0  0  0  0  0  0  0  0
  141.4465  136.2793  153.5612 O   0  0  0  0  0  0  0  0  0  0  0  0
  141.8416  138.4836  153.2318 N   0  0  0  0  0  0  0  0  0  0  0  0
  140.7176  139.0165  153.9962 C   0  0  1  0  0  0  0  0  0  0  0  0
  140.8312  140.5430  154.1367 C   0  0  0  0  0  0  0  0  0  0  0  0
  139.6133  141.0845  154.8941 C   0  0  0  0  0  0  0  0  0  0  0  0
  138.2984  140.6716  154.2094 C   0  0  0  0  0  0  0  0  0  0  0  0
  138.2279  139.2112  153.9985 N   0  0  0  0  0  0  0  0  0  0  0  0
  137.2708  138.2231  155.0648 S   0  0  0  0  0  0  0  0  0  0  0  0
  138.4406  136.9324  155.6572 C   0  0  0  0  0  0  0  0  0  0  0  0
  136.8818  139.0520  156.2161 O   0  0  0  0  0  0  0  0  0  0  0  0
  136.2327  137.5650  154.2567 O   0  0  0  0  0  0  0  0  0  0  0  0
  139.3953  138.6315  153.3047 C   0  0  0  0  0  0  0  0  0  0  0  0
  143.2423  134.6025  152.2487 C   0  0  0  0  0  0  0  0  0  0  0  0
  143.7773  133.4238  151.8648 N   0  3  0  0  0  0  0  0  0  0  0  0
  145.6549  131.0937  152.6215 H   0  0  0  0  0  0  0  0  0  0  0  0
  145.5172  129.9790  151.2642 H   0  0  0  0  0  0  0  0  0  0  0  0
  144.0760  130.7834  151.8790 H   0  0  0  0  0  0  0  0  0  0  0  0
  145.2800  132.0302  148.6544 H   0  0  0  0  0  0  0  0  0  0  0  0
  146.2835  130.7556  149.3440 H   0  0  0  0  0  0  0  0  0  0  0  0
  146.8646  132.4185  149.3441 H   0  0  0  0  0  0  0  0  0  0  0  0
  146.4052  134.4809  150.0475 H   0  0  0  0  0  0  0  0  0  0  0  0
  145.5053  136.6427  150.6927 H   0  0  0  0  0  0  0  0  0  0  0  0
  143.6495  137.8687  151.9801 H   0  0  0  0  0  0  0  0  0  0  0  0
  142.4489  139.1594  152.7917 H   0  0  0  0  0  0  0  0  0  0  0  0
  140.7281  138.5725  154.9915 H   0  0  0  0  0  0  0  0  0  0  0  0
  141.7462  140.8120  154.6657 H   0  0  0  0  0  0  0  0  0  0  0  0
  140.8889  141.0079  153.1515 H   0  0  0  0  0  0  0  0  0  0  0  0
  139.6316  140.7219  155.9211 H   0  0  0  0  0  0  0  0  0  0  0  0
  139.6698  142.1715  154.9555 H   0  0  0  0  0  0  0  0  0  0  0  0
  137.4435  141.0136  154.7920 H   0  0  0  0  0  0  0  0  0  0  0  0
  138.2241  141.1624  153.2385 H   0  0  0  0  0  0  0  0  0  0  0  0
  137.9186  136.2704  156.3478 H   0  0  0  0  0  0  0  0  0  0  0  0
  139.2756  137.3975  156.1781 H   0  0  0  0  0  0  0  0  0  0  0  0
  138.8047  136.3452  154.8161 H   0  0  0  0  0  0  0  0  0  0  0  0
  139.3952  138.9953  152.2761 H   0  0  0  0  0  0  0  0  0  0  0  0
  139.2977  137.5475  153.2458 H   0  0  0  0  0  0  0  0  0  0  0  0
  142.3565  134.5342  152.8638 H   0  0  0  0  0  0  0  0  0  0  0  0
  143.3196  132.5662  152.1742 H   0  0  0  0  0  0  0  0  0  0  0  0
  1  2  1  0  0  0  0
  1 24  1  0  0  0  0
  1 25  1  0  0  0  0
  1 26  1  0  0  0  0
  2  3  1  0  0  0  0
  2  4  1  0  0  0  0
  3 27  1  0  0  0  0
  3 28  1  0  0  0  0
  3 29  1  0  0  0  0
  4 23  1  0  0  0  0
  4  5  2  0  0  0  0
  5  6  1  0  0  0  0
  5 30  1  0  0  0  0
  6  7  2  0  0  0  0
  6 31  1  0  0  0  0
  7  8  1  0  0  0  0
  7 22  1  0  0  0  0
  8  9  1  0  0  0  0
  8 32  1  0  0  0  0
  9 10  2  0  0  0  0
  9 11  1  0  0  0  0
 11 12  1  0  0  0  0
 11 33  1  0  0  0  0
 12 21  1  0  0  0  0
 12 13  1  0  0  0  0
 12 34  1  0  0  0  0
 13 14  1  0  0  0  0
 13 35  1  0  0  0  0
 13 36  1  0  0  0  0
 14 15  1  0  0  0  0
 14 37  1  0  0  0  0
 14 38  1  0  0  0  0
 15 16  1  0  0  0  0
 15 39  1  0  0  0  0
 15 40  1  0  0  0  0
 16 17  1  0  0  0  0
 16 21  1  0  0  0  0
 17 18  1  0  0  0  0
 17 19  2  0  0  0  0
 17 20  2  0  0  0  0
 18 41  1  0  0  0  0
 18 42  1  0  0  0  0
 18 43  1  0  0  0  0
 21 44  1  0  0  0  0
 21 45  1  0  0  0  0
 22 23  2  0  0  0  0
 22 46  1  0  0  0  0
 23 47  1  0  0  0  0
M  CHG  1  23   1
M  END
> <s_m_source_file>
AV-unprocessed.smi

> <i_m_source_file_index>
1166

> <i_lp_mmshare_version>
43012

> <i_f3d_flags>
0

> <s_epik_input>
W0NIM11OKFtDSDNdKWMxW2NIXVtjSF1jKFtjSF1uMSlbTkhdQyg9TylbTkhdW0NAQEhdMltDSDJdW0NIMl1bQ0gyXU4oW0NIMl0yKVMoPU8pKD1PKVtDSDNd

> <s_epik_cmdline>
J2VwaWtfcHl0aG9uJywgJy1waCcsICc3LjAnLCAnLXRuJywgJzgnLCAnLW1hJywgJzIwMCcsICctbWV0YWxfYmluZGluZycsICctaW1hZScsICc8aW5maWxlLm1hZT4nLCAnLW9tYWUnLCAnPG91dGZpbGUubWFlPic=

> <r_lp_tautomer_probability>
0.999994

> <r_epik_Ionization_Penalty>
0.276583

> <r_epik_Ionization_Penalty_Charging>
0.276565

> <r_epik_Ionization_Penalty_Neutral>
1.87575e-05

> <r_epik_State_Penalty>
0.268949

> <r_epik_Charging_Adjusted_Penalty>
0.545513

> <i_epik_Tot_Q>
1

> <i_epik_Tot_abs_Q>
1

> <r_epik_Metal_State_Penalty>
0.551815

> <b_epik_Metal_Only>
0

> <s_lp_Force_Field>
OPLS_2005

> <r_lp_Energy>
8.45094

> <b_lp_Chiralities_Consistent>
1

> <s_lp_Variant>
AV-unprocessed.smi:1166-2

> <Gold.Version>
5.8.1

> <Gold.Id.Protein>
6NUR|6NUR_protein|mol2

> <Gold.PLP.Fitness>
40.4375

> <Gold.PLP.PLP>
-37.9303

> <Gold.PLP.part.hbond>
-2.0000

> <Gold.PLP.part.metal>
0.0000

> <Gold.PLP.part.buried>
-3.0872

> <Gold.PLP.part.nonpolar>
-32.0501

> <Gold.PLP.part.repulsive>
0.2326

> <Gold.PLP.ligand.clash>
0.0000

> <Gold.PLP.ligand.torsion>
1.6188

> <Gold.PLP.Chemscore.Hbond>
1.2275

> <Gold.PLP.Chemscore.CHOScore>
0.0000

> <Gold.PLP.Chemscore.Metal>
0.0000

> <Gold.Chemscore.Hbonds>
donor molecule, donor type, donor heavy atom, donor atom, acceptor molecule, acceptor atom, score
      L1  H     8    32       P1 10171  0.20
      L1  H    11    33       P1 10175  1.00

> <Gold.PLP.Chemscore.Internal.Correction>
2.0623

> <Gold.Rescore>
     Score         DG    S(hbond)    S(metal)    S(lipo)     H(rot)  DE(clash)    DE(int)     intcor
     13.56     -16.84       1.48        0.00      76.80       1.00       0.41       2.87       ----

> <Gold.Chemscore.Fitness>
13.5577

> <Gold.Chemscore.DG>
-16.8371

> <Gold.Chemscore.ZeroCoef>
-5.4800

> <Gold.Chemscore.Hbond>
1.4764

> <Gold.Chemscore.Metal>
0.0000

> <Gold.Chemscore.Lipo>
76.8027

> <Gold.Chemscore.Internal_Hbond>
0.0000

> <Gold.Chemscore.DEClash>
0.4123

> <Gold.Chemscore.DEInternal>
2.8670

> <Gold.Chemscore.Rot>
1.0000

> <Gold.Chemscore.Internal.Correction>
   9.000000E+99

> <Gold.Chemscore.Hbonds>
donor molecule, donor type, donor heavy atom, donor atom, acceptor molecule, acceptor atom, score
      L1  H     8    32       P1 10171  0.19
      L1  H    11    33       P1 10175  0.99

> <Gold.Chemscore.Hbond.Weighted>
-4.9311

> <Gold.Chemscore.Metal.Weighted>
-0.0000

> <Gold.Chemscore.Lipo.Weighted>
-8.9859

> <Gold.Chemscore.Internal_Hbond.Weighted>
0.0000

> <Gold.Chemscore.DEClash.Weighted>
0.4123

> <Gold.Chemscore.DEInternal.Weighted>
2.8670

> <Gold.Chemscore.Rot.Weighted>
2.5600

> <Gold.Chemscore.Internal.Correction.Weighted>
   9.000000E+99

> <Gold.Protein.RotatedTorsions>
[ 6907 6896 6895 6894 ] final  105.79 input  -60.11 | X-H torsion
[ 7974 7965 7964 7962 ] final  -23.96 input  175.53 | X-H torsion
[ 8008 7997 7996 7995 ] final  104.97 input   59.86 | X-H torsion
[ 10167 10162 10161 10158 ] final  -60.36 input  -65.29 | X-H torsion
[ 10718 10713 10712 10709 ] final   -8.58 input   66.30 | X-H torsion
[ 10763 10752 10751 10750 ] final  134.12 input  -60.55 | X-H torsion
[ 11005 11000 10999 10996 ] final  125.45 input  -57.11 | X-H torsion

> <Gold.Protein.ActiveResidues>
 VAL166  LYS551  ARG553  GLY616  TRP617  ASP618  TYR619  PRO620  LYS621  CYS622 
 ASP623  PHE694  ASN695  SER759  ASP760  ASP761  ALA762  ILE779  LEU786  VAL792 
 PHE793  MET794  SER795  GLU796  ALA797  LYS798  CYS799  TRP800  GLU811  SER814 

> <Gold.Protein.RotatedAtoms>
  152.5218  133.9477  159.7656 H   0  0  0  0  0  0  0  0  0  0  0  0  # atno 6907 bound_to 6896
  150.9794  133.6253  159.2732 H   0  0  0  0  0  0  0  0  0  0  0  0  # atno 6908 bound_to 6896
  151.3436  135.0875  159.9432 H   0  0  0  0  0  0  0  0  0  0  0  0  # atno 6909 bound_to 6896
  146.1584  140.4687  142.8581 H   0  0  0  0  0  0  0  0  0  0  0  0  # atno 7974 bound_to 7965
  156.1619  140.3138  155.8821 H   0  0  0  0  0  0  0  0  0  0  0  0  # atno 8008 bound_to 7997
  155.3765  140.0485  157.3061 H   0  0  0  0  0  0  0  0  0  0  0  0  # atno 8009 bound_to 7997
  154.5154  140.2179  155.9086 H   0  0  0  0  0  0  0  0  0  0  0  0  # atno 8010 bound_to 7997
  140.6076  143.2378  151.5784 H   0  0  0  0  0  0  0  0  0  0  0  0  # atno 10167 bound_to 10162
  156.7005  130.5092  149.5918 H   0  0  0  0  0  0  0  0  0  0  0  0  # atno 10718 bound_to 10713
  153.8184  135.3119  155.3408 H   0  0  0  0  0  0  0  0  0  0  0  0  # atno 10763 bound_to 10752
  154.8023  135.4719  154.0308 H   0  0  0  0  0  0  0  0  0  0  0  0  # atno 10764 bound_to 10752
  153.1709  135.6877  153.8699 H   0  0  0  0  0  0  0  0  0  0  0  0  # atno 10765 bound_to 10752
  139.9407  134.9636  156.8560 H   0  0  0  0  0  0  0  0  0  0  0  0  # atno 11005 bound_to 11000
  144.7994  140.6184  143.6488 LP  0  0  0  0  0  0  0  0  0  0  0  0  # atno 17320 bound_to 7965
  145.4650  139.1509  143.3845 LP  0  0  0  0  0  0  0  0  0  0  0  0  # atno 17321 bound_to 7965
  139.5337  144.2843  152.1204 LP  0  0  0  0  0  0  0  0  0  0  0  0  # atno 17342 bound_to 10162
  140.2036  144.4633  150.6419 LP  0  0  0  0  0  0  0  0  0  0  0  0  # atno 17343 bound_to 10162
  156.1732  130.6451  151.0863 LP  0  0  0  0  0  0  0  0  0  0  0  0  # atno 17370 bound_to 10713
  157.6975  131.0788  150.6924 LP  0  0  0  0  0  0  0  0  0  0  0  0  # atno 17371 bound_to 10713
  140.5959  134.0217  155.7518 LP  0  0  0  0  0  0  0  0  0  0  0  0  # atno 17394 bound_to 11000
  141.1040  133.9723  157.3029 LP  0  0  0  0  0  0  0  0  0  0  0  0  # atno 17395 bound_to 11000

$$$$
