AV-unprocessed.smi:828|AV-procd|sdf|3864|dock9
  -GOLD-   22720 1313D 1   1.00000     0.00000
 Structure written by MMmdl.
 34 35  0  0  0  0  0  0  0  0  3 V2000
  149.2966  140.7289  154.2022 C   0  0  0  0  0  0  0  0  0  0  0  0
  149.5750  139.2899  154.4718 C   0  0  0  0  0  0  0  0  0  0  0  0
  148.6304  138.4318  154.8647 N   0  0  0  0  0  0  0  0  0  0  0  0
  149.1312  137.1513  155.0493 N   0  0  0  0  0  0  0  0  0  0  0  0
  150.4416  137.0561  154.7831 C   0  0  0  0  0  0  0  0  0  0  0  0
  151.1182  135.9016  154.9004 N   0  5  0  0  0  0  0  0  0  0  0  0
  150.4501  134.7478  155.1227 C   0  0  0  0  0  0  0  0  0  0  0  0
  150.6310  133.9637  156.0567 O   0  0  0  0  0  0  0  0  0  0  0  0
  149.5183  134.4843  154.1977 N   0  0  0  0  0  0  0  0  0  0  0  0
  148.6696  133.2983  154.1571 C   0  0  0  0  0  0  0  0  0  0  0  0
  147.8189  133.2631  152.8697 C   0  0  2  0  0  0  0  0  0  0  0  0
  146.6052  134.1912  152.9021 C   0  0  0  0  0  0  0  0  0  0  0  0
  145.7864  133.6947  151.7189 C   0  0  0  0  0  0  0  0  0  0  0  0
  145.9904  132.1783  151.7634 C   0  0  0  0  0  0  0  0  0  0  0  0
  147.2938  131.9346  152.4339 N   0  3  2  0  0  0  0  0  0  0  0  0
  147.1975  130.8716  153.4652 C   0  0  0  0  0  0  0  0  0  0  0  0
  151.1728  138.5845  154.2943 S   0  0  0  0  0  0  0  0  0  0  0  0
  148.9130  140.8496  153.1889 H   0  0  0  0  0  0  0  0  0  0  0  0
  150.2094  141.3161  154.3038 H   0  0  0  0  0  0  0  0  0  0  0  0
  148.5568  141.1103  154.9066 H   0  0  0  0  0  0  0  0  0  0  0  0
  149.3976  135.1627  153.4598 H   0  0  0  0  0  0  0  0  0  0  0  0
  149.2571  132.3840  154.2539 H   0  0  0  0  0  0  0  0  0  0  0  0
  148.0126  133.3324  155.0269 H   0  0  0  0  0  0  0  0  0  0  0  0
  148.4526  133.6064  152.0498 H   0  0  0  0  0  0  0  0  0  0  0  0
  146.0461  134.0564  153.8294 H   0  0  0  0  0  0  0  0  0  0  0  0
  146.8750  135.2443  152.8170 H   0  0  0  0  0  0  0  0  0  0  0  0
  144.7366  133.9833  151.7772 H   0  0  0  0  0  0  0  0  0  0  0  0
  146.1952  134.0982  150.7913 H   0  0  0  0  0  0  0  0  0  0  0  0
  145.1761  131.7267  152.3331 H   0  0  0  0  0  0  0  0  0  0  0  0
  145.9759  131.7359  150.7669 H   0  0  0  0  0  0  0  0  0  0  0  0
  146.5873  131.1933  154.3102 H   0  0  0  0  0  0  0  0  0  0  0  0
  148.1770  130.5728  153.8347 H   0  0  0  0  0  0  0  0  0  0  0  0
  146.7383  129.9783  153.0401 H   0  0  0  0  0  0  0  0  0  0  0  0
  147.9365  131.5910  151.7346 H   0  0  0  0  0  0  0  0  0  0  0  0
  1  2  1  0  0  0  0
  1 18  1  0  0  0  0
  1 19  1  0  0  0  0
  1 20  1  0  0  0  0
  2 17  1  0  0  0  0
  2  3  2  0  0  0  0
  3  4  1  0  0  0  0
  4  5  2  0  0  0  0
  5  6  1  0  0  0  0
  5 17  1  0  0  0  0
  6  7  1  0  0  0  0
  7  8  2  0  0  0  0
  7  9  1  0  0  0  0
  9 10  1  0  0  0  0
  9 21  1  0  0  0  0
 10 11  1  0  0  0  0
 10 22  1  0  0  0  0
 10 23  1  0  0  0  0
 11 15  1  0  0  0  0
 11 12  1  0  0  0  0
 11 24  1  0  0  0  0
 12 13  1  0  0  0  0
 12 25  1  0  0  0  0
 12 26  1  0  0  0  0
 13 14  1  0  0  0  0
 13 27  1  0  0  0  0
 13 28  1  0  0  0  0
 14 15  1  0  0  0  0
 14 29  1  0  0  0  0
 14 30  1  0  0  0  0
 15 16  1  0  0  0  0
 15 34  1  0  0  0  0
 16 31  1  0  0  0  0
 16 32  1  0  0  0  0
 16 33  1  0  0  0  0
M  CHG  1   6  -1
M  CHG  1  15   1
M  END
> <s_m_source_file>
AV-unprocessed.smi

> <i_m_source_file_index>
828

> <i_lp_mmshare_version>
43012

> <i_f3d_flags>
0

> <s_epik_input>
W0NIM11jMW5uYyhzMSlbTkhdQyg9TylbTkhdW0NIMl1bQ0BASF0yW0NIMl1bQ0gyXVtDSDJdTjJbQ0gzXQ==

> <s_epik_cmdline>
J2VwaWtfcHl0aG9uJywgJy1waCcsICc3LjAnLCAnLXRuJywgJzgnLCAnLW1hJywgJzIwMCcsICctbWV0YWxfYmluZGluZycsICctaW1hZScsICc8aW5maWxlLm1hZT4nLCAnLW9tYWUnLCAnPG91dGZpbGUubWFlPic=

> <r_lp_tautomer_probability>
1

> <r_epik_Ionization_Penalty>
3.94379

> <r_epik_Ionization_Penalty_Charging>
3.83377

> <r_epik_Ionization_Penalty_Neutral>
0.110023

> <r_epik_State_Penalty>
3.83036

> <r_epik_Charging_Adjusted_Penalty>
7.66413

> <i_epik_Tot_Q>
0

> <i_epik_Tot_abs_Q>
2

> <r_epik_Metal_State_Penalty>
0.575095

> <b_epik_Metal_Only>
1

> <s_lp_Force_Field>
OPLS_2005

> <r_lp_Energy>
28.5427

> <b_lp_Chiralities_Consistent>
1

> <s_lp_Variant>
AV-unprocessed.smi:828-7

> <Gold.Version>
5.8.1

> <Gold.Id.Protein>
6NUR|6NUR_protein|mol2

> <Gold.PLP.Fitness>
37.8235

> <Gold.PLP.PLP>
-28.1905

> <Gold.PLP.part.hbond>
-3.0000

> <Gold.PLP.part.metal>
0.0000

> <Gold.PLP.part.buried>
-2.8478

> <Gold.PLP.part.nonpolar>
-22.3590

> <Gold.PLP.part.repulsive>
0.4118

> <Gold.PLP.ligand.clash>
0.0000

> <Gold.PLP.ligand.torsion>
0.7386

> <Gold.PLP.Chemscore.Hbond>
3.7000

> <Gold.PLP.Chemscore.CHOScore>
0.0000

> <Gold.PLP.Chemscore.Metal>
0.0000

> <Gold.Chemscore.Hbonds>
donor molecule, donor type, donor heavy atom, donor atom, acceptor molecule, acceptor atom, score
      L1  H     9    21       P1  7948  0.75
      L1  H    15    34       P1 10747  1.00
      P1  H 10752 10765       L1     6  2.00

> <Gold.PLP.Chemscore.Internal.Correction>
0.0102

> <Gold.Rescore>
     Score         DG    S(hbond)    S(metal)    S(lipo)     H(rot)  DE(clash)    DE(int)     intcor
     14.62     -15.28       1.96        0.00      56.64       1.31       0.05       0.61       ----

> <Gold.Chemscore.Fitness>
14.6243

> <Gold.Chemscore.DG>
-15.2838

> <Gold.Chemscore.ZeroCoef>
-5.4800

> <Gold.Chemscore.Hbond>
1.9589

> <Gold.Chemscore.Metal>
0.0000

> <Gold.Chemscore.Lipo>
56.6439

> <Gold.Chemscore.Internal_Hbond>
0.0000

> <Gold.Chemscore.DEClash>
0.0538

> <Gold.Chemscore.DEInternal>
0.6057

> <Gold.Chemscore.Rot>
1.3149

> <Gold.Chemscore.Internal.Correction>
   9.000000E+99

> <Gold.Chemscore.Hbonds>
donor molecule, donor type, donor heavy atom, donor atom, acceptor molecule, acceptor atom, score
      L1  H     9    21       P1  7948  0.09
      L1  H    15    34       P1 10747  0.99
      P1  H 10752 10765       L1     6  0.74

> <Gold.Chemscore.Hbond.Weighted>
-6.5426

> <Gold.Chemscore.Metal.Weighted>
-0.0000

> <Gold.Chemscore.Lipo.Weighted>
-6.6273

> <Gold.Chemscore.Internal_Hbond.Weighted>
0.0000

> <Gold.Chemscore.DEClash.Weighted>
0.0538

> <Gold.Chemscore.DEInternal.Weighted>
0.6057

> <Gold.Chemscore.Rot.Weighted>
3.3662

> <Gold.Chemscore.Internal.Correction.Weighted>
   9.000000E+99

> <Gold.Protein.RotatedTorsions>
[ 6907 6896 6895 6894 ] final    1.72 input  -60.11 | X-H torsion
[ 7974 7965 7964 7962 ] final  -88.74 input  175.53 | X-H torsion
[ 8008 7997 7996 7995 ] final  154.55 input   59.86 | X-H torsion
[ 10167 10162 10161 10158 ] final  134.07 input  -65.29 | X-H torsion
[ 10718 10713 10712 10709 ] final  -52.02 input   66.30 | X-H torsion
[ 10763 10752 10751 10750 ] final -173.08 input  -60.55 | X-H torsion
[ 11005 11000 10999 10996 ] final  151.39 input  -57.11 | X-H torsion

> <Gold.Protein.ActiveResidues>
 VAL166  LYS551  ARG553  GLY616  TRP617  ASP618  TYR619  PRO620  LYS621  CYS622 
 ASP623  PHE694  ASN695  SER759  ASP760  ASP761  ALA762  ILE779  LEU786  VAL792 
 PHE793  MET794  SER795  GLU796  ALA797  LYS798  CYS799  TRP800  GLU811  SER814 

> <Gold.Protein.RotatedAtoms>
  151.5973  135.1049  160.0052 H   0  0  0  0  0  0  0  0  0  0  0  0  # atno 6907 bound_to 6896
  152.4276  133.7218  159.6548 H   0  0  0  0  0  0  0  0  0  0  0  0  # atno 6908 bound_to 6896
  150.8166  133.8255  159.3180 H   0  0  0  0  0  0  0  0  0  0  0  0  # atno 6909 bound_to 6896
  145.4491  140.9560  143.2032 H   0  0  0  0  0  0  0  0  0  0  0  0  # atno 7974 bound_to 7965
  156.2525  140.1963  156.6663 H   0  0  0  0  0  0  0  0  0  0  0  0  # atno 8008 bound_to 7997
  154.6426  140.0581  156.9889 H   0  0  0  0  0  0  0  0  0  0  0  0  # atno 8009 bound_to 7997
  155.1539  140.3254  155.4428 H   0  0  0  0  0  0  0  0  0  0  0  0  # atno 8010 bound_to 7997
  139.5271  144.6585  151.5087 H   0  0  0  0  0  0  0  0  0  0  0  0  # atno 10167 bound_to 10162
  156.1658  130.4149  149.9722 H   0  0  0  0  0  0  0  0  0  0  0  0  # atno 10718 bound_to 10713
  154.6119  135.2865  155.0422 H   0  0  0  0  0  0  0  0  0  0  0  0  # atno 10763 bound_to 10752
  154.1649  135.6482  153.4999 H   0  0  0  0  0  0  0  0  0  0  0  0  # atno 10764 bound_to 10752
  153.0199  135.5387  154.6876 H   0  0  0  0  0  0  0  0  0  0  0  0  # atno 10765 bound_to 10752
  140.1215  134.8861  157.2078 H   0  0  0  0  0  0  0  0  0  0  0  0  # atno 11005 bound_to 11000
  144.8073  139.6028  143.7045 LP  0  0  0  0  0  0  0  0  0  0  0  0  # atno 17320 bound_to 7965
  146.2514  139.6208  142.9424 LP  0  0  0  0  0  0  0  0  0  0  0  0  # atno 17321 bound_to 7965
  140.6422  143.8866  150.6702 LP  0  0  0  0  0  0  0  0  0  0  0  0  # atno 17342 bound_to 10162
  140.2204  143.3813  152.1647 LP  0  0  0  0  0  0  0  0  0  0  0  0  # atno 17343 bound_to 10162
  156.7537  130.9125  151.3638 LP  0  0  0  0  0  0  0  0  0  0  0  0  # atno 17370 bound_to 10713
  157.6767  130.9101  150.0167 LP  0  0  0  0  0  0  0  0  0  0  0  0  # atno 17371 bound_to 10713
  140.2959  134.3187  155.7302 LP  0  0  0  0  0  0  0  0  0  0  0  0  # atno 17394 bound_to 11000
  141.2152  133.7563  156.9571 LP  0  0  0  0  0  0  0  0  0  0  0  0  # atno 17395 bound_to 11000

$$$$
