AV-unprocessed.smi:117|AV-procd|sdf|1130|dock6
  -GOLD-   2262018263D 1   1.00000     0.00000
 Structure written by MMmdl.
 53 55  0  0  0  0  0  0  0  0  1 V2000
  151.6294  145.3959  159.3910 C   0  0  0  0  0  0  0  0  0  0  0  0
  151.9187  143.9084  159.4990 C   0  0  0  0  0  0  0  0  0  0  0  0
  152.4974  143.4133  160.6854 C   0  0  0  0  0  0  0  0  0  0  0  0
  152.7639  142.0414  160.8269 C   0  0  0  0  0  0  0  0  0  0  0  0
  152.4546  141.1557  159.7811 C   0  0  0  0  0  0  0  0  0  0  0  0
  151.8870  141.6359  158.5778 C   0  0  0  0  0  0  0  0  0  0  0  0
  151.5153  140.7354  157.5446 N   0  0  0  0  0  0  0  0  0  0  0  0
  152.1349  139.6015  157.1624 C   0  0  0  0  0  0  0  0  0  0  0  0
  153.1906  139.2016  157.6522 O   0  0  0  0  0  0  0  0  0  0  0  0
  151.4790  138.7743  156.0437 C   0  0  0  0  0  0  0  0  0  0  0  0
  150.7627  137.5959  156.5294 N   0  0  0  0  0  0  0  0  0  0  0  0
  150.8661  136.3483  156.0392 C   0  0  0  0  0  0  0  0  0  0  0  0
  151.6780  136.0384  155.1686 O   0  0  0  0  0  0  0  0  0  0  0  0
  149.8778  135.2878  156.5583 C   0  0  0  0  0  0  0  0  0  0  0  0
  149.9442  133.9859  155.8515 N   0  0  0  0  0  0  0  0  0  0  0  0
  149.1391  133.7825  154.7036 C   0  0  0  0  0  0  0  0  0  0  0  0
  148.3913  134.6654  154.2822 O   0  0  0  0  0  0  0  0  0  0  0  0
  149.2687  132.4759  154.0683 C   0  0  0  0  0  0  0  0  0  0  0  0
  148.5202  132.1819  152.9917 F   0  0  0  0  0  0  0  0  0  0  0  0
  150.1340  131.5555  154.5419 C   0  0  0  0  0  0  0  0  0  0  0  0
  150.9477  131.7821  155.6345 N   0  0  0  0  0  0  0  0  0  0  0  0
  151.8950  130.6912  156.0852 C   0  0  1  0  0  0  0  0  0  0  0  0
  151.6745  129.3559  155.3599 C   0  0  0  0  0  0  0  0  0  0  0  0
  153.0895  128.8272  155.2818 C   0  0  0  0  0  0  0  0  0  0  0  0
  153.8939  130.1070  155.0829 C   0  0  0  0  0  0  0  0  0  0  0  0
  153.2143  131.0955  155.8550 O   0  0  0  0  0  0  0  0  0  0  0  0
  150.8411  133.0035  156.3380 C   0  0  0  0  0  0  0  0  0  0  0  0
  151.5170  133.2191  157.3438 O   0  0  0  0  0  0  0  0  0  0  0  0
  151.6098  143.0225  158.4351 C   0  0  0  0  0  0  0  0  0  0  0  0
  150.9974  143.5832  157.1537 C   0  0  0  0  0  0  0  0  0  0  0  0
  151.9061  145.9224  160.3047 H   0  0  0  0  0  0  0  0  0  0  0  0
  150.5666  145.5670  159.2182 H   0  0  0  0  0  0  0  0  0  0  0  0
  152.1921  145.8378  158.5687 H   0  0  0  0  0  0  0  0  0  0  0  0
  152.7335  144.0844  161.4983 H   0  0  0  0  0  0  0  0  0  0  0  0
  153.1973  141.6662  161.7421 H   0  0  0  0  0  0  0  0  0  0  0  0
  152.6421  140.1018  159.9235 H   0  0  0  0  0  0  0  0  0  0  0  0
  150.7318  141.0240  156.9764 H   0  0  0  0  0  0  0  0  0  0  0  0
  150.8177  139.4189  155.4626 H   0  0  0  0  0  0  0  0  0  0  0  0
  152.2588  138.4357  155.3610 H   0  0  0  0  0  0  0  0  0  0  0  0
  150.0732  137.7568  157.2491 H   0  0  0  0  0  0  0  0  0  0  0  0
  150.0635  135.1395  157.6237 H   0  0  0  0  0  0  0  0  0  0  0  0
  148.8769  135.7197  156.5250 H   0  0  0  0  0  0  0  0  0  0  0  0
  150.1928  130.6046  154.0323 H   0  0  0  0  0  0  0  0  0  0  0  0
  151.7550  130.5960  157.1626 H   0  0  0  0  0  0  0  0  0  0  0  0
  150.9964  128.7117  155.9200 H   0  0  0  0  0  0  0  0  0  0  0  0
  151.2672  129.5079  154.3620 H   0  0  0  0  0  0  0  0  0  0  0  0
  153.3653  128.3546  156.2253 H   0  0  0  0  0  0  0  0  0  0  0  0
  153.2334  128.1027  154.4805 H   0  0  0  0  0  0  0  0  0  0  0  0
  154.9319  130.0009  155.3982 H   0  0  0  0  0  0  0  0  0  0  0  0
  153.8913  130.3989  154.0328 H   0  0  0  0  0  0  0  0  0  0  0  0
  151.6497  144.3461  156.7286 H   0  0  0  0  0  0  0  0  0  0  0  0
  150.0324  144.0428  157.3665 H   0  0  0  0  0  0  0  0  0  0  0  0
  150.8374  142.8367  156.3771 H   0  0  0  0  0  0  0  0  0  0  0  0
  1  2  1  0  0  0  0
  1 31  1  0  0  0  0
  1 32  1  0  0  0  0
  1 33  1  0  0  0  0
  2 29  1  0  0  0  0
  2  3  2  0  0  0  0
  3  4  1  0  0  0  0
  3 34  1  0  0  0  0
  4  5  2  0  0  0  0
  4 35  1  0  0  0  0
  5  6  1  0  0  0  0
  5 36  1  0  0  0  0
  6  7  1  0  0  0  0
  6 29  2  0  0  0  0
  7  8  1  0  0  0  0
  7 37  1  0  0  0  0
  8  9  2  0  0  0  0
  8 10  1  0  0  0  0
 10 11  1  0  0  0  0
 10 38  1  0  0  0  0
 10 39  1  0  0  0  0
 11 12  1  0  0  0  0
 11 40  1  0  0  0  0
 12 13  2  0  0  0  0
 12 14  1  0  0  0  0
 14 15  1  0  0  0  0
 14 41  1  0  0  0  0
 14 42  1  0  0  0  0
 15 27  1  0  0  0  0
 15 16  1  0  0  0  0
 16 17  2  0  0  0  0
 16 18  1  0  0  0  0
 18 19  1  0  0  0  0
 18 20  2  0  0  0  0
 20 21  1  0  0  0  0
 20 43  1  0  0  0  0
 21 22  1  0  0  0  0
 21 27  1  0  0  0  0
 22 26  1  0  0  0  0
 22 23  1  0  0  0  0
 22 44  1  0  0  0  0
 23 24  1  0  0  0  0
 23 45  1  0  0  0  0
 23 46  1  0  0  0  0
 24 25  1  0  0  0  0
 24 47  1  0  0  0  0
 24 48  1  0  0  0  0
 25 26  1  0  0  0  0
 25 49  1  0  0  0  0
 25 50  1  0  0  0  0
 27 28  2  0  0  0  0
 29 30  1  0  0  0  0
 30 51  1  0  0  0  0
 30 52  1  0  0  0  0
 30 53  1  0  0  0  0
M  END
> <s_m_source_file>
AV-unprocessed.smi

> <i_m_source_file_index>
117

> <i_lp_mmshare_version>
43012

> <i_f3d_flags>
0

> <s_epik_input>
W0NIM11jMVtjSF1bY0hdW2NIXWMoYzFbQ0gzXSlbTkhdQyg9TylbQ0gyXVtOSF1DKD1PKVtDSDJdbjJjKD1PKWMoRilbY0hdbihjMj1PKVtDQEBIXTNbQ0gyXVtDSDJdW0NIMl1PMw==

> <s_epik_cmdline>
J2VwaWtfcHl0aG9uJywgJy1waCcsICc3LjAnLCAnLXRuJywgJzgnLCAnLW1hJywgJzIwMCcsICctbWV0YWxfYmluZGluZycsICctaW1hZScsICc8aW5maWxlLm1hZT4nLCAnLW9tYWUnLCAnPG91dGZpbGUubWFlPic=

> <r_lp_tautomer_probability>
1

> <r_epik_Ionization_Penalty>
1.58439e-06

> <r_epik_Ionization_Penalty_Charging>
4.14583e-09

> <r_epik_Ionization_Penalty_Neutral>
1.58025e-06

> <r_epik_State_Penalty>
-0

> <r_epik_Charging_Adjusted_Penalty>
4.14583e-09

> <i_epik_Tot_Q>
0

> <i_epik_Tot_abs_Q>
0

> <r_epik_Metal_State_Penalty>
-0

> <b_epik_Metal_Only>
0

> <s_epik_Chemistry_Notes>
This compound contains an acetal/aminal-like group ( X-CH(R)-Y where X, Y are N, S, or O) that may be acid/base labile, releasing an aldehyde.

> <s_lp_Force_Field>
OPLS_2005

> <r_lp_Energy>
23.1061

> <b_lp_Chiralities_Consistent>
1

> <s_lp_Variant>
AV-unprocessed.smi:117-2

> <Gold.Version>
5.8.1

> <Gold.Id.Protein>
6NUR|6NUR_protein|mol2

> <Gold.PLP.Fitness>
60.9089

> <Gold.PLP.PLP>
-54.7718

> <Gold.PLP.part.hbond>
-2.9623

> <Gold.PLP.part.metal>
0.0000

> <Gold.PLP.part.buried>
-4.4648

> <Gold.PLP.part.nonpolar>
-49.0154

> <Gold.PLP.part.repulsive>
1.2587

> <Gold.PLP.ligand.clash>
0.0000

> <Gold.PLP.ligand.torsion>
1.1289

> <Gold.PLP.Chemscore.Hbond>
2.7840

> <Gold.PLP.Chemscore.CHOScore>
0.0000

> <Gold.PLP.Chemscore.Metal>
0.0000

> <Gold.Chemscore.Hbonds>
donor molecule, donor type, donor heavy atom, donor atom, acceptor molecule, acceptor atom, score
      P1  H  6896  6909       L1    28  0.74
      P1  H  7997  8010       L1     9  1.00
      P1  H 10752 10764       L1    13  0.89

> <Gold.PLP.Chemscore.Internal.Correction>
0.0429

> <Gold.Rescore>
     Score         DG    S(hbond)    S(metal)    S(lipo)     H(rot)  DE(clash)    DE(int)     intcor
     20.19     -23.03       2.67        0.00     124.41       2.32       0.48       2.35       ----

> <Gold.Chemscore.Fitness>
20.1872

> <Gold.Chemscore.DG>
-23.0257

> <Gold.Chemscore.ZeroCoef>
-5.4800

> <Gold.Chemscore.Hbond>
2.6709

> <Gold.Chemscore.Metal>
0.0000

> <Gold.Chemscore.Lipo>
124.4063

> <Gold.Chemscore.Internal_Hbond>
0.0000

> <Gold.Chemscore.DEClash>
0.4840

> <Gold.Chemscore.DEInternal>
2.3545

> <Gold.Chemscore.Rot>
2.3166

> <Gold.Chemscore.Internal.Correction>
   9.000000E+99

> <Gold.Chemscore.Hbonds>
donor molecule, donor type, donor heavy atom, donor atom, acceptor molecule, acceptor atom, score
      P1  H  6896  6909       L1    28  0.74
      P1  H  7997  8010       L1     9  0.91
      P1  H 10752 10764       L1    13  0.85

> <Gold.Chemscore.Hbond.Weighted>
-8.9207

> <Gold.Chemscore.Metal.Weighted>
-0.0000

> <Gold.Chemscore.Lipo.Weighted>
-14.5555

> <Gold.Chemscore.Internal_Hbond.Weighted>
0.0000

> <Gold.Chemscore.DEClash.Weighted>
0.4840

> <Gold.Chemscore.DEInternal.Weighted>
2.3545

> <Gold.Chemscore.Rot.Weighted>
5.9306

> <Gold.Chemscore.Internal.Correction.Weighted>
   9.000000E+99

> <Gold.Protein.RotatedTorsions>
[ 6907 6896 6895 6894 ] final  -40.12 input  -60.11 | X-H torsion
[ 7974 7965 7964 7962 ] final    3.00 input  175.53 | X-H torsion
[ 8008 7997 7996 7995 ] final   23.50 input   59.86 | X-H torsion
[ 10167 10162 10161 10158 ] final  173.67 input  -65.29 | X-H torsion
[ 10718 10713 10712 10709 ] final -177.22 input   66.30 | X-H torsion
[ 10763 10752 10751 10750 ] final  -67.55 input  -60.55 | X-H torsion
[ 11005 11000 10999 10996 ] final -132.54 input  -57.11 | X-H torsion

> <Gold.Protein.ActiveResidues>
 VAL166  LYS551  ARG553  GLY616  TRP617  ASP618  TYR619  PRO620  LYS621  CYS622 
 ASP623  PHE694  ASN695  SER759  ASP760  ASP761  ALA762  ILE779  LEU786  VAL792 
 PHE793  MET794  SER795  GLU796  ALA797  LYS798  CYS799  TRP800  GLU811  SER814 

> <Gold.Protein.RotatedAtoms>
  150.9822  134.9175  159.7850 H   0  0  0  0  0  0  0  0  0  0  0  0  # atno 6907 bound_to 6896
  152.5225  134.3394  159.9222 H   0  0  0  0  0  0  0  0  0  0  0  0  # atno 6908 bound_to 6896
  151.3401  133.3924  159.2705 H   0  0  0  0  0  0  0  0  0  0  0  0  # atno 6909 bound_to 6896
  146.2445  140.0751  142.8360 H   0  0  0  0  0  0  0  0  0  0  0  0  # atno 7974 bound_to 7965
  154.9819  140.3103  155.4943 H   0  0  0  0  0  0  0  0  0  0  0  0  # atno 8008 bound_to 7997
  156.2952  140.2265  156.4858 H   0  0  0  0  0  0  0  0  0  0  0  0  # atno 8009 bound_to 7997
  154.7782  140.0447  157.1094 H   0  0  0  0  0  0  0  0  0  0  0  0  # atno 8010 bound_to 7997
  139.5116  144.3234  152.0180 H   0  0  0  0  0  0  0  0  0  0  0  0  # atno 10167 bound_to 10162
  156.8263  130.9637  151.3109 H   0  0  0  0  0  0  0  0  0  0  0  0  # atno 10718 bound_to 10713
  154.3760  135.6084  153.5765 H   0  0  0  0  0  0  0  0  0  0  0  0  # atno 10763 bound_to 10752
  152.9789  135.5849  154.4465 H   0  0  0  0  0  0  0  0  0  0  0  0  # atno 10764 bound_to 10752
  154.4227  135.2846  155.1942 H   0  0  0  0  0  0  0  0  0  0  0  0  # atno 10765 bound_to 10752
  140.9161  134.1504  157.4351 H   0  0  0  0  0  0  0  0  0  0  0  0  # atno 11005 bound_to 11000
  145.0782  140.9203  143.4841 LP  0  0  0  0  0  0  0  0  0  0  0  0  # atno 17320 bound_to 7965
  145.0898  139.2898  143.5740 LP  0  0  0  0  0  0  0  0  0  0  0  0  # atno 17321 bound_to 7965
  140.2676  144.3999  150.6163 LP  0  0  0  0  0  0  0  0  0  0  0  0  # atno 17342 bound_to 10162
  140.6112  143.2169  151.6882 LP  0  0  0  0  0  0  0  0  0  0  0  0  # atno 17343 bound_to 10162
  157.6430  130.8821  149.9485 LP  0  0  0  0  0  0  0  0  0  0  0  0  # atno 17370 bound_to 10713
  156.0959  130.3659  150.0306 LP  0  0  0  0  0  0  0  0  0  0  0  0  # atno 17371 bound_to 10713
  139.8766  134.9954  156.5742 LP  0  0  0  0  0  0  0  0  0  0  0  0  # atno 17394 bound_to 11000
  140.8047  133.8477  155.8757 LP  0  0  0  0  0  0  0  0  0  0  0  0  # atno 17395 bound_to 11000

$$$$
