AV-unprocessed.smi:28|AV-procd|sdf|190|dock6
  -GOLD-   2262015453D 1   1.00000     0.00000
 Structure written by MMmdl.
 41 44  0  0  0  0  0  0  0  0  1 V2000
  149.4582  133.6689  158.1957 O   0  0  0  0  0  0  0  0  0  0  0  0
  148.8029  134.2538  159.0596 C   0  0  0  0  0  0  0  0  0  0  0  0
  148.0313  133.5599  160.0853 C   0  0  0  0  0  0  0  0  0  0  0  0
  148.0296  132.2165  160.1200 F   0  0  0  0  0  0  0  0  0  0  0  0
  147.3098  134.2446  160.9987 C   0  0  0  0  0  0  0  0  0  0  0  0
  147.2495  135.6282  161.0316 N   0  0  0  0  0  0  0  0  0  0  0  0
  146.4096  136.3630  162.0550 C   0  0  1  0  0  0  0  0  0  0  0  0
  145.2941  137.1495  161.3583 C   0  0  0  0  0  0  0  0  0  0  0  0
  144.1719  136.1348  161.3383 C   0  0  0  0  0  0  0  0  0  0  0  0
  144.3844  135.4128  162.6651 C   0  0  0  0  0  0  0  0  0  0  0  0
  145.7919  135.4348  162.8998 O   0  0  0  0  0  0  0  0  0  0  0  0
  147.9635  136.3822  160.0750 C   0  0  0  0  0  0  0  0  0  0  0  0
  147.9015  137.6141  160.0693 O   0  0  0  0  0  0  0  0  0  0  0  0
  148.7289  135.6673  159.1235 N   0  0  0  0  0  0  0  0  0  0  0  0
  149.4232  136.4327  158.1013 C   0  0  0  0  0  0  0  0  0  0  0  0
  150.5026  137.2629  158.7220 C   0  0  0  0  0  0  0  0  0  0  0  0
  151.5380  136.8389  159.4485 N   0  0  0  0  0  0  0  0  0  0  0  0
  152.2610  137.9673  159.7604 N   0  0  0  0  0  0  0  0  0  0  0  0
  151.6031  138.9951  159.2134 C   0  0  0  0  0  0  0  0  0  0  0  0
  151.9465  140.4150  159.2095 C   0  0  0  0  0  0  0  0  0  0  0  0
  152.9764  140.8606  160.0687 C   0  0  0  0  0  0  0  0  0  0  0  0
  153.3475  142.2179  160.1008 C   0  0  0  0  0  0  0  0  0  0  0  0
  152.6943  143.1440  159.2679 C   0  0  0  0  0  0  0  0  0  0  0  0
  151.6756  142.7087  158.4003 C   0  0  0  0  0  0  0  0  0  0  0  0
  151.3000  141.3505  158.3609 C   0  0  0  0  0  0  0  0  0  0  0  0
  149.9421  140.8337  157.1246 Br  0  0  0  0  0  0  0  0  0  0  0  0
  150.4872  138.6080  158.5393 O   0  0  0  0  0  0  0  0  0  0  0  0
  146.7545  133.6702  161.7249 H   0  0  0  0  0  0  0  0  0  0  0  0
  147.1053  136.9810  162.6250 H   0  0  0  0  0  0  0  0  0  0  0  0
  145.0279  138.0031  161.9826 H   0  0  0  0  0  0  0  0  0  0  0  0
  145.5868  137.5103  160.3717 H   0  0  0  0  0  0  0  0  0  0  0  0
  143.1843  136.5884  161.2527 H   0  0  0  0  0  0  0  0  0  0  0  0
  144.3032  135.4437  160.5046 H   0  0  0  0  0  0  0  0  0  0  0  0
  143.8897  135.9535  163.4730 H   0  0  0  0  0  0  0  0  0  0  0  0
  143.9978  134.3936  162.6532 H   0  0  0  0  0  0  0  0  0  0  0  0
  149.8308  135.7390  157.3642 H   0  0  0  0  0  0  0  0  0  0  0  0
  148.7026  137.0562  157.5704 H   0  0  0  0  0  0  0  0  0  0  0  0
  153.4849  140.1611  160.7165 H   0  0  0  0  0  0  0  0  0  0  0  0
  154.1331  142.5481  160.7645 H   0  0  0  0  0  0  0  0  0  0  0  0
  152.9781  144.1859  159.2898 H   0  0  0  0  0  0  0  0  0  0  0  0
  151.1832  143.4211  157.7549 H   0  0  0  0  0  0  0  0  0  0  0  0
  1  2  2  0  0  0  0
  2 14  1  0  0  0  0
  2  3  1  0  0  0  0
  3  4  1  0  0  0  0
  3  5  2  0  0  0  0
  5  6  1  0  0  0  0
  5 28  1  0  0  0  0
  6  7  1  0  0  0  0
  6 12  1  0  0  0  0
  7 11  1  0  0  0  0
  7  8  1  0  0  0  0
  7 29  1  0  0  0  0
  8  9  1  0  0  0  0
  8 30  1  0  0  0  0
  8 31  1  0  0  0  0
  9 10  1  0  0  0  0
  9 32  1  0  0  0  0
  9 33  1  0  0  0  0
 10 11  1  0  0  0  0
 10 34  1  0  0  0  0
 10 35  1  0  0  0  0
 12 13  2  0  0  0  0
 12 14  1  0  0  0  0
 14 15  1  0  0  0  0
 15 16  1  0  0  0  0
 15 36  1  0  0  0  0
 15 37  1  0  0  0  0
 16 27  1  0  0  0  0
 16 17  2  0  0  0  0
 17 18  1  0  0  0  0
 18 19  2  0  0  0  0
 19 20  1  0  0  0  0
 19 27  1  0  0  0  0
 20 25  1  0  0  0  0
 20 21  2  0  0  0  0
 21 22  1  0  0  0  0
 21 38  1  0  0  0  0
 22 23  2  0  0  0  0
 22 39  1  0  0  0  0
 23 24  1  0  0  0  0
 23 40  1  0  0  0  0
 24 25  2  0  0  0  0
 24 41  1  0  0  0  0
 25 26  1  0  0  0  0
M  END
> <s_m_source_file>
AV-unprocessed.smi

> <i_m_source_file_index>
28

> <i_lp_mmshare_version>
43012

> <i_f3d_flags>
0

> <s_epik_input>
TzFbQ0gyXVtDSDJdW0NIMl1bQ0BIXTFuKFtjSF1jKEYpYzI9TyljKD1PKW4yW0NIMl1jM25uYyhvMyktYzRbY0hdW2NIXVtjSF1bY0hdYzRCcg==

> <s_epik_cmdline>
J2VwaWtfcHl0aG9uJywgJy1waCcsICc3LjAnLCAnLXRuJywgJzgnLCAnLW1hJywgJzIwMCcsICctbWV0YWxfYmluZGluZycsICctaW1hZScsICc8aW5maWxlLm1hZT4nLCAnLW9tYWUnLCAnPG91dGZpbGUubWFlPic=

> <r_lp_tautomer_probability>
1

> <r_epik_Ionization_Penalty>
2.5628e-09

> <r_epik_Ionization_Penalty_Charging>
2.54231e-09

> <r_epik_Ionization_Penalty_Neutral>
2.0492e-11

> <r_epik_State_Penalty>
-0

> <r_epik_Charging_Adjusted_Penalty>
2.54231e-09

> <i_epik_Tot_Q>
0

> <i_epik_Tot_abs_Q>
0

> <r_epik_Metal_State_Penalty>
-0

> <b_epik_Metal_Only>
0

> <s_epik_Chemistry_Notes>
This compound contains an acetal/aminal-like group ( X-CH(R)-Y where X, Y are N, S, or O) that may be acid/base labile, releasing an aldehyde.

> <s_lp_Force_Field>
OPLS_2005

> <r_lp_Energy>
35.5142

> <b_lp_Chiralities_Consistent>
1

> <s_lp_Variant>
AV-unprocessed.smi:28-2

> <Gold.Version>
5.8.1

> <Gold.Id.Protein>
6NUR|6NUR_protein|mol2

> <Gold.PLP.Fitness>
46.1330

> <Gold.PLP.PLP>
-38.9188

> <Gold.PLP.part.hbond>
-3.7837

> <Gold.PLP.part.metal>
0.0000

> <Gold.PLP.part.buried>
-2.2383

> <Gold.PLP.part.nonpolar>
-33.7510

> <Gold.PLP.part.repulsive>
0.0000

> <Gold.PLP.ligand.clash>
0.0000

> <Gold.PLP.ligand.torsion>
0.1031

> <Gold.PLP.Chemscore.Hbond>
2.4623

> <Gold.PLP.Chemscore.CHOScore>
0.0000

> <Gold.PLP.Chemscore.Metal>
0.0000

> <Gold.Chemscore.Hbonds>
donor molecule, donor type, donor heavy atom, donor atom, acceptor molecule, acceptor atom, score
      P1  H  6896  6907       L1     1  0.59
      P1  H  6896  6908       L1    17  1.00
      P1  H  6931  6943       L1    13  0.23
      P1  H  6934  6947       L1    13  0.66

> <Gold.PLP.Chemscore.Internal.Correction>
0.0334

> <Gold.Rescore>
     Score         DG    S(hbond)    S(metal)    S(lipo)     H(rot)  DE(clash)    DE(int)     intcor
     14.36     -17.96       2.15        0.00      82.40       1.70       0.01       3.59       ----

> <Gold.Chemscore.Fitness>
14.3585

> <Gold.Chemscore.DG>
-17.9584

> <Gold.Chemscore.ZeroCoef>
-5.4800

> <Gold.Chemscore.Hbond>
2.1510

> <Gold.Chemscore.Metal>
0.0000

> <Gold.Chemscore.Lipo>
82.4006

> <Gold.Chemscore.Internal_Hbond>
0.0000

> <Gold.Chemscore.DEClash>
0.0110

> <Gold.Chemscore.DEInternal>
3.5889

> <Gold.Chemscore.Rot>
1.6980

> <Gold.Chemscore.Internal.Correction>
   9.000000E+99

> <Gold.Chemscore.Hbonds>
donor molecule, donor type, donor heavy atom, donor atom, acceptor molecule, acceptor atom, score
      P1  H  6896  6907       L1     1  0.04
      P1  H  6896  6908       L1    17  0.82
      P1  H  6931  6943       L1    13  0.13
      P1  H  6934  6947       L1    13  0.66

> <Gold.Chemscore.Hbond.Weighted>
-7.1844

> <Gold.Chemscore.Metal.Weighted>
-0.0000

> <Gold.Chemscore.Lipo.Weighted>
-9.6409

> <Gold.Chemscore.Internal_Hbond.Weighted>
0.0000

> <Gold.Chemscore.DEClash.Weighted>
0.0110

> <Gold.Chemscore.DEInternal.Weighted>
3.5889

> <Gold.Chemscore.Rot.Weighted>
4.3469

> <Gold.Chemscore.Internal.Correction.Weighted>
   9.000000E+99

> <Gold.Protein.RotatedTorsions>
[ 6907 6896 6895 6894 ] final -132.65 input  -60.11 | X-H torsion
[ 7974 7965 7964 7962 ] final   46.57 input  175.53 | X-H torsion
[ 8008 7997 7996 7995 ] final -123.57 input   59.86 | X-H torsion
[ 10167 10162 10161 10158 ] final -126.26 input  -65.29 | X-H torsion
[ 10718 10713 10712 10709 ] final  153.35 input   66.30 | X-H torsion
[ 10763 10752 10751 10750 ] final  -96.50 input  -60.55 | X-H torsion
[ 11005 11000 10999 10996 ] final  139.42 input  -57.11 | X-H torsion

> <Gold.Protein.ActiveResidues>
 VAL166  LYS551  ARG553  GLY616  TRP617  ASP618  TYR619  PRO620  LYS621  CYS622 
 ASP623  PHE694  ASN695  SER759  ASP760  ASP761  ALA762  ILE779  LEU786  VAL792 
 PHE793  MET794  SER795  GLU796  ALA797  LYS798  CYS799  TRP800  GLU811  SER814 

> <Gold.Protein.RotatedAtoms>
  150.9649  133.6406  159.2747 H   0  0  0  0  0  0  0  0  0  0  0  0  # atno 6907 bound_to 6896
  151.3715  135.0922  159.9476 H   0  0  0  0  0  0  0  0  0  0  0  0  # atno 6908 bound_to 6896
  152.5161  133.9202  159.7585 H   0  0  0  0  0  0  0  0  0  0  0  0  # atno 6909 bound_to 6896
  146.0378  139.4842  142.9797 H   0  0  0  0  0  0  0  0  0  0  0  0  # atno 7974 bound_to 7965
  155.1826  140.0411  157.2885 H   0  0  0  0  0  0  0  0  0  0  0  0  # atno 8008 bound_to 7997
  154.6193  140.2496  155.7542 H   0  0  0  0  0  0  0  0  0  0  0  0  # atno 8009 bound_to 7997
  156.2424  140.2898  156.0493 H   0  0  0  0  0  0  0  0  0  0  0  0  # atno 8010 bound_to 7997
  139.9733  143.5821  152.2405 H   0  0  0  0  0  0  0  0  0  0  0  0  # atno 10167 bound_to 10162
  157.2459  131.0769  151.1762 H   0  0  0  0  0  0  0  0  0  0  0  0  # atno 10718 bound_to 10713
  154.7245  135.5081  153.8864 H   0  0  0  0  0  0  0  0  0  0  0  0  # atno 10763 bound_to 10752
  153.0892  135.6654  153.9896 H   0  0  0  0  0  0  0  0  0  0  0  0  # atno 10764 bound_to 10752
  153.9711  135.3038  155.3406 H   0  0  0  0  0  0  0  0  0  0  0  0  # atno 10765 bound_to 10752
  140.0253  134.9377  157.0557 H   0  0  0  0  0  0  0  0  0  0  0  0  # atno 11005 bound_to 11000
  145.6935  141.0157  143.1542 LP  0  0  0  0  0  0  0  0  0  0  0  0  # atno 17320 bound_to 7965
  144.7060  139.8561  143.7430 LP  0  0  0  0  0  0  0  0  0  0  0  0  # atno 17321 bound_to 7965
  139.6464  144.7658  151.2235 LP  0  0  0  0  0  0  0  0  0  0  0  0  # atno 17342 bound_to 10162
  140.7514  143.6232  150.8493 LP  0  0  0  0  0  0  0  0  0  0  0  0  # atno 17343 bound_to 10162
  157.3330  130.6994  149.6335 LP  0  0  0  0  0  0  0  0  0  0  0  0  # atno 17370 bound_to 10713
  155.9668  130.4302  150.4866 LP  0  0  0  0  0  0  0  0  0  0  0  0  # atno 17371 bound_to 10713
  140.4316  134.1774  155.7168 LP  0  0  0  0  0  0  0  0  0  0  0  0  # atno 17394 bound_to 11000
  141.1799  133.8436  157.1294 LP  0  0  0  0  0  0  0  0  0  0  0  0  # atno 17395 bound_to 11000

$$$$
