AV-unprocessed.smi:2273|AV-procd|sdf|9164|dock6
  -GOLD-   2272012373D 1   1.00000     0.00000
 Structure written by MMmdl.
 53 54  0  0  0  0  0  0  0  0  1 V2000
  150.7440  141.1289  156.0360 C   0  0  0  0  0  0  0  0  0  0  0  0
  149.2619  141.0945  155.6441 C   0  0  0  0  0  0  0  0  0  0  0  0
  148.9255  140.4069  154.2930 C   0  0  0  0  0  0  0  0  0  0  0  0
  147.4945  140.8018  153.8387 C   0  0  0  0  0  0  0  0  0  0  0  0
  147.0997  142.2611  154.1154 C   0  0  0  0  0  0  0  0  0  0  0  0
  149.1075  138.8598  154.3653 C   0  0  2  0  0  0  0  0  0  0  0  0
  148.0850  138.1673  155.3016 C   0  0  0  0  0  0  0  0  0  0  0  0
  148.2835  136.6401  155.3330 C   0  0  1  0  0  0  0  0  0  0  0  0
  147.9022  136.0247  154.0573 N   0  0  0  0  0  0  0  0  0  0  0  0
  147.0400  135.0160  153.8366 C   0  0  0  0  0  0  0  0  0  0  0  0
  146.4493  134.4662  154.7647 O   0  0  0  0  0  0  0  0  0  0  0  0
  146.9023  134.6734  152.5394 N   0  0  0  0  0  0  0  0  0  0  0  0
  146.0875  133.6537  152.0215 C   0  0  0  0  0  0  0  0  0  0  0  0
  144.9898  133.9972  151.2974 C   0  0  0  0  0  0  0  0  0  0  0  0
  144.6480  135.4479  150.9985 C   0  0  0  0  0  0  0  0  0  0  0  0
  144.1371  132.9521  150.7704 C   0  0  0  0  0  0  0  0  0  0  0  0
  144.4394  131.6699  151.0127 C   0  0  0  0  0  0  0  0  0  0  0  0
  145.5542  131.3094  151.7826 N   0  0  0  0  0  0  0  0  0  0  0  0
  145.7904  129.8807  152.0052 C   0  0  0  0  0  0  0  0  0  0  0  0
  146.3819  132.2358  152.3464 C   0  0  0  0  0  0  0  0  0  0  0  0
  147.2995  131.8882  153.0932 O   0  0  0  0  0  0  0  0  0  0  0  0
  149.7506  136.3255  155.6593 C   0  0  0  0  0  0  0  0  0  0  0  0
  150.7072  137.1294  154.7644 C   0  0  0  0  0  0  0  0  0  0  0  0
  150.4039  138.5173  154.8582 O   0  0  0  0  0  0  0  0  0  0  0  0
  150.8897  141.7393  156.9274 H   0  0  0  0  0  0  0  0  0  0  0  0
  151.3530  141.5583  155.2405 H   0  0  0  0  0  0  0  0  0  0  0  0
  151.1221  140.1335  156.2686 H   0  0  0  0  0  0  0  0  0  0  0  0
  148.6957  140.6203  156.4466 H   0  0  0  0  0  0  0  0  0  0  0  0
  148.9286  142.1307  155.6158 H   0  0  0  0  0  0  0  0  0  0  0  0
  149.6084  140.7915  153.5340 H   0  0  0  0  0  0  0  0  0  0  0  0
  147.4029  140.6630  152.7614 H   0  0  0  0  0  0  0  0  0  0  0  0
  146.7621  140.1344  154.2946 H   0  0  0  0  0  0  0  0  0  0  0  0
  146.1483  142.4958  153.6377 H   0  0  0  0  0  0  0  0  0  0  0  0
  147.8450  142.9537  153.7236 H   0  0  0  0  0  0  0  0  0  0  0  0
  146.9762  142.4578  155.1799 H   0  0  0  0  0  0  0  0  0  0  0  0
  149.0235  138.4609  153.3527 H   0  0  0  0  0  0  0  0  0  0  0  0
  148.2114  138.5588  156.3120 H   0  0  0  0  0  0  0  0  0  0  0  0
  147.0589  138.3989  155.0273 H   0  0  0  0  0  0  0  0  0  0  0  0
  147.6718  136.2138  156.1294 H   0  0  0  0  0  0  0  0  0  0  0  0
  148.3120  136.4445  153.2353 H   0  0  0  0  0  0  0  0  0  0  0  0
  147.5268  135.1134  151.8797 H   0  0  0  0  0  0  0  0  0  0  0  0
  143.6983  135.5293  150.4692 H   0  0  0  0  0  0  0  0  0  0  0  0
  145.4203  135.8934  150.3725 H   0  0  0  0  0  0  0  0  0  0  0  0
  144.5681  136.0268  151.9192 H   0  0  0  0  0  0  0  0  0  0  0  0
  143.2680  133.1978  150.1778 H   0  0  0  0  0  0  0  0  0  0  0  0
  143.8436  130.8478  150.6440 H   0  0  0  0  0  0  0  0  0  0  0  0
  146.8120  129.6106  151.7329 H   0  0  0  0  0  0  0  0  0  0  0  0
  145.1247  129.2475  151.4176 H   0  0  0  0  0  0  0  0  0  0  0  0
  145.6408  129.6297  153.0562 H   0  0  0  0  0  0  0  0  0  0  0  0
  149.9461  136.5834  156.7009 H   0  0  0  0  0  0  0  0  0  0  0  0
  149.9468  135.2566  155.5661 H   0  0  0  0  0  0  0  0  0  0  0  0
  151.7368  136.9728  155.0855 H   0  0  0  0  0  0  0  0  0  0  0  0
  150.6474  136.7988  153.7264 H   0  0  0  0  0  0  0  0  0  0  0  0
  1  2  1  0  0  0  0
  1 25  1  0  0  0  0
  1 26  1  0  0  0  0
  1 27  1  0  0  0  0
  2  3  1  0  0  0  0
  2 28  1  0  0  0  0
  2 29  1  0  0  0  0
  3  4  1  0  0  0  0
  3  6  1  0  0  0  0
  3 30  1  0  0  0  0
  4  5  1  0  0  0  0
  4 31  1  0  0  0  0
  4 32  1  0  0  0  0
  5 33  1  0  0  0  0
  5 34  1  0  0  0  0
  5 35  1  0  0  0  0
  6 24  1  0  0  0  0
  6  7  1  0  0  0  0
  6 36  1  0  0  0  0
  7  8  1  0  0  0  0
  7 37  1  0  0  0  0
  7 38  1  0  0  0  0
  8  9  1  0  0  0  0
  8 22  1  0  0  0  0
  8 39  1  0  0  0  0
  9 10  1  0  0  0  0
  9 40  1  0  0  0  0
 10 11  2  0  0  0  0
 10 12  1  0  0  0  0
 12 13  1  0  0  0  0
 12 41  1  0  0  0  0
 13 20  1  0  0  0  0
 13 14  2  0  0  0  0
 14 15  1  0  0  0  0
 14 16  1  0  0  0  0
 15 42  1  0  0  0  0
 15 43  1  0  0  0  0
 15 44  1  0  0  0  0
 16 17  2  0  0  0  0
 16 45  1  0  0  0  0
 17 18  1  0  0  0  0
 17 46  1  0  0  0  0
 18 19  1  0  0  0  0
 18 20  1  0  0  0  0
 19 47  1  0  0  0  0
 19 48  1  0  0  0  0
 19 49  1  0  0  0  0
 20 21  2  0  0  0  0
 22 23  1  0  0  0  0
 22 50  1  0  0  0  0
 22 51  1  0  0  0  0
 23 24  1  0  0  0  0
 23 52  1  0  0  0  0
 23 53  1  0  0  0  0
M  END
> <s_m_source_file>
AV-unprocessed.smi

> <i_m_source_file_index>
2273

> <i_lp_mmshare_version>
43012

> <i_f3d_flags>
0

> <s_epik_input>
W0NIM11bQ0gyXVtDSF0oW0NIMl1bQ0gzXSlbQ0BASF0xW0NIMl1bQ0BIXShbQ0gyXVtDSDJdTzEpW05IXUMoPU8pW05IXWMyYyhbQ0gzXSlbY0hdW2NIXW4oW0NIM10pYzI9Tw==

> <s_epik_cmdline>
J2VwaWtfcHl0aG9uJywgJy1waCcsICc3LjAnLCAnLXRuJywgJzgnLCAnLW1hJywgJzIwMCcsICctbWV0YWxfYmluZGluZycsICctaW1hZScsICc8aW5maWxlLm1hZT4nLCAnLW9tYWUnLCAnPG91dGZpbGUubWFlPic=

> <r_lp_tautomer_probability>
1

> <r_epik_Ionization_Penalty>
2.66245e-05

> <r_epik_Ionization_Penalty_Charging>
6.91055e-06

> <r_epik_Ionization_Penalty_Neutral>
1.97139e-05

> <r_epik_State_Penalty>
-0

> <r_epik_Charging_Adjusted_Penalty>
6.91055e-06

> <i_epik_Tot_Q>
0

> <i_epik_Tot_abs_Q>
0

> <r_epik_Metal_State_Penalty>
-0

> <b_epik_Metal_Only>
0

> <s_lp_Force_Field>
OPLS_2005

> <r_lp_Energy>
42.8548

> <b_lp_Chiralities_Consistent>
1

> <s_lp_Variant>
AV-unprocessed.smi:2273-1

> <Gold.Version>
5.8.1

> <Gold.Id.Protein>
6NUR|6NUR_protein|mol2

> <Gold.PLP.Fitness>
44.9952

> <Gold.PLP.PLP>
-41.1212

> <Gold.PLP.part.hbond>
-1.6721

> <Gold.PLP.part.metal>
0.0000

> <Gold.PLP.part.buried>
-6.3880

> <Gold.PLP.part.nonpolar>
-34.9795

> <Gold.PLP.part.repulsive>
0.2930

> <Gold.PLP.ligand.clash>
0.0000

> <Gold.PLP.ligand.torsion>
0.9958

> <Gold.PLP.Chemscore.Hbond>
1.7677

> <Gold.PLP.Chemscore.CHOScore>
0.0000

> <Gold.PLP.Chemscore.Metal>
0.0000

> <Gold.Chemscore.Hbonds>
donor molecule, donor type, donor heavy atom, donor atom, acceptor molecule, acceptor atom, score
      L1  H     9    40       P1  7948  0.94
      L1  H    12    41       P1  7948  0.83

> <Gold.PLP.Chemscore.Internal.Correction>
0.5623

> <Gold.Rescore>
     Score         DG    S(hbond)    S(metal)    S(lipo)     H(rot)  DE(clash)    DE(int)     intcor
     16.31     -18.39       1.72        0.00      92.51       1.42       0.08       2.00       ----

> <Gold.Chemscore.Fitness>
16.3139

> <Gold.Chemscore.DG>
-18.3940

> <Gold.Chemscore.ZeroCoef>
-5.4800

> <Gold.Chemscore.Hbond>
1.7169

> <Gold.Chemscore.Metal>
0.0000

> <Gold.Chemscore.Lipo>
92.5123

> <Gold.Chemscore.Internal_Hbond>
0.0000

> <Gold.Chemscore.DEClash>
0.0824

> <Gold.Chemscore.DEInternal>
1.9977

> <Gold.Chemscore.Rot>
1.4236

> <Gold.Chemscore.Internal.Correction>
   9.000000E+99

> <Gold.Chemscore.Hbonds>
donor molecule, donor type, donor heavy atom, donor atom, acceptor molecule, acceptor atom, score
      L1  H     9    40       P1  7948  0.84
      L1  H    12    41       P1  7948  0.74

> <Gold.Chemscore.Hbond.Weighted>
-5.7345

> <Gold.Chemscore.Metal.Weighted>
-0.0000

> <Gold.Chemscore.Lipo.Weighted>
-10.8239

> <Gold.Chemscore.Internal_Hbond.Weighted>
0.0000

> <Gold.Chemscore.DEClash.Weighted>
0.0824

> <Gold.Chemscore.DEInternal.Weighted>
1.9977

> <Gold.Chemscore.Rot.Weighted>
3.6445

> <Gold.Chemscore.Internal.Correction.Weighted>
   9.000000E+99

> <Gold.Protein.RotatedTorsions>
[ 6907 6896 6895 6894 ] final -113.36 input  -60.11 | X-H torsion
[ 7974 7965 7964 7962 ] final -144.83 input  175.53 | X-H torsion
[ 8008 7997 7996 7995 ] final   56.87 input   59.86 | X-H torsion
[ 10167 10162 10161 10158 ] final   47.84 input  -65.29 | X-H torsion
[ 10718 10713 10712 10709 ] final  139.59 input   66.30 | X-H torsion
[ 10763 10752 10751 10750 ] final   -7.72 input  -60.55 | X-H torsion
[ 11005 11000 10999 10996 ] final  140.56 input  -57.11 | X-H torsion

> <Gold.Protein.ActiveResidues>
 VAL166  LYS551  ARG553  GLY616  TRP617  ASP618  TYR619  PRO620  LYS621  CYS622 
 ASP623  PHE694  ASN695  SER759  ASP760  ASP761  ALA762  ILE779  LEU786  VAL792 
 PHE793  MET794  SER795  GLU796  ALA797  LYS798  CYS799  TRP800  GLU811  SER814 

> <Gold.Protein.RotatedAtoms>
  150.7823  133.8956  159.3326 H   0  0  0  0  0  0  0  0  0  0  0  0  # atno 6907 bound_to 6896
  151.6816  135.0959  160.0226 H   0  0  0  0  0  0  0  0  0  0  0  0  # atno 6908 bound_to 6896
  152.3878  133.6597  159.6248 H   0  0  0  0  0  0  0  0  0  0  0  0  # atno 6909 bound_to 6896
  144.8270  140.5660  143.5540 H   0  0  0  0  0  0  0  0  0  0  0  0  # atno 7974 bound_to 7965
  155.5245  140.3480  155.4413 H   0  0  0  0  0  0  0  0  0  0  0  0  # atno 8008 bound_to 7997
  156.0761  140.1375  156.9796 H   0  0  0  0  0  0  0  0  0  0  0  0  # atno 8009 bound_to 7997
  154.4554  140.0955  156.6717 H   0  0  0  0  0  0  0  0  0  0  0  0  # atno 8010 bound_to 7997
  140.2995  144.2951  150.6222 H   0  0  0  0  0  0  0  0  0  0  0  0  # atno 10167 bound_to 10162
  157.4127  131.1030  151.0437 H   0  0  0  0  0  0  0  0  0  0  0  0  # atno 10718 bound_to 10713
  153.4303  135.7012  153.6235 H   0  0  0  0  0  0  0  0  0  0  0  0  # atno 10763 bound_to 10752
  153.4653  135.3727  155.2361 H   0  0  0  0  0  0  0  0  0  0  0  0  # atno 10764 bound_to 10752
  154.8725  135.4030  154.3685 H   0  0  0  0  0  0  0  0  0  0  0  0  # atno 10765 bound_to 10752
  140.0336  134.9340  157.0710 H   0  0  0  0  0  0  0  0  0  0  0  0  # atno 11005 bound_to 11000
  145.4979  139.1485  143.3673 LP  0  0  0  0  0  0  0  0  0  0  0  0  # atno 17320 bound_to 7965
  146.2575  140.5118  142.8867 LP  0  0  0  0  0  0  0  0  0  0  0  0  # atno 17321 bound_to 7965
  140.5663  143.2186  151.7677 LP  0  0  0  0  0  0  0  0  0  0  0  0  # atno 17342 bound_to 10162
  139.4918  144.4279  151.9905 LP  0  0  0  0  0  0  0  0  0  0  0  0  # atno 17343 bound_to 10162
  157.1396  130.6137  149.5551 LP  0  0  0  0  0  0  0  0  0  0  0  0  # atno 17370 bound_to 10713
  155.9855  130.4886  150.7036 LP  0  0  0  0  0  0  0  0  0  0  0  0  # atno 17371 bound_to 10713
  140.4185  134.1906  155.7164 LP  0  0  0  0  0  0  0  0  0  0  0  0  # atno 17394 bound_to 11000
  141.1845  133.8343  157.1138 LP  0  0  0  0  0  0  0  0  0  0  0  0  # atno 17395 bound_to 11000

$$$$
