AV-unprocessed.smi:2473|AV-procd|sdf|9750|dock2
  -GOLD-   2272013393D 1   1.00000     0.00000
 Structure written by MMmdl.
 47 48  0  0  0  0  0  0  0  0  1 V2000
  151.0380  137.6552  154.4665 C   0  0  0  0  0  0  0  0  0  0  0  0
  150.2769  138.8101  155.1331 C   0  0  1  0  0  0  0  0  0  0  0  0
  150.8729  140.1720  154.7248 C   0  0  0  0  0  0  0  0  0  0  0  0
  150.1232  141.3808  155.3280 C   0  0  2  0  0  0  0  0  0  0  0  0
  150.5147  141.6980  156.7831 C   0  0  0  0  0  0  0  0  0  0  0  0
  150.9691  140.8276  157.5254 O   0  0  0  0  0  0  0  0  0  0  0  0
  150.3893  142.9812  157.1582 N   0  0  0  0  0  0  0  0  0  0  0  0
  150.7810  143.5319  158.4531 C   0  0  0  0  0  0  0  0  0  0  0  0
  152.2828  143.3440  158.7461 C   0  0  0  0  0  0  0  0  0  0  0  0
  152.6017  143.1504  160.1995 C   0  0  0  0  0  0  0  0  0  0  0  0
  152.2062  143.9902  161.1516 N   0  0  0  0  0  0  0  0  0  0  0  0
  152.6747  143.4327  162.3357 C   0  0  0  0  0  0  0  0  0  0  0  0
  153.3472  142.2680  162.0561 C   0  0  0  0  0  0  0  0  0  0  0  0
  153.2951  142.0980  160.6790 N   0  0  0  0  0  0  0  0  0  0  0  0
  153.8794  140.9957  159.9393 C   0  0  0  0  0  0  0  0  0  0  0  0
  148.5944  141.2694  155.1037 C   0  0  0  0  0  0  0  0  0  0  0  0
  147.9448  139.8968  155.4317 C   0  0  0  0  0  0  0  0  0  0  0  0
  147.7800  139.6778  156.9518 C   0  0  0  0  0  0  0  0  0  0  0  0
  146.5298  139.8747  154.8183 C   0  0  0  0  0  0  0  0  0  0  0  0
  148.7746  138.7569  154.7919 C   0  0  0  0  0  0  0  0  0  0  0  0
  150.9650  137.7056  153.3796 H   0  0  0  0  0  0  0  0  0  0  0  0
  150.6423  136.6897  154.7823 H   0  0  0  0  0  0  0  0  0  0  0  0
  152.0956  137.6794  154.7303 H   0  0  0  0  0  0  0  0  0  0  0  0
  150.3938  138.6793  156.2080 H   0  0  0  0  0  0  0  0  0  0  0  0
  151.9286  140.2121  154.9988 H   0  0  0  0  0  0  0  0  0  0  0  0
  150.8496  140.2577  153.6376 H   0  0  0  0  0  0  0  0  0  0  0  0
  150.4580  142.2512  154.7610 H   0  0  0  0  0  0  0  0  0  0  0  0
  150.0167  143.6333  156.4834 H   0  0  0  0  0  0  0  0  0  0  0  0
  150.5463  144.5962  158.4453 H   0  0  0  0  0  0  0  0  0  0  0  0
  150.1828  143.0960  159.2551 H   0  0  0  0  0  0  0  0  0  0  0  0
  152.6733  142.5073  158.1671 H   0  0  0  0  0  0  0  0  0  0  0  0
  152.8262  144.2229  158.3974 H   0  0  0  0  0  0  0  0  0  0  0  0
  152.4931  143.9082  163.2881 H   0  0  0  0  0  0  0  0  0  0  0  0
  153.8444  141.5642  162.7071 H   0  0  0  0  0  0  0  0  0  0  0  0
  154.2949  140.2596  160.6282 H   0  0  0  0  0  0  0  0  0  0  0  0
  154.6773  141.3663  159.2958 H   0  0  0  0  0  0  0  0  0  0  0  0
  153.1197  140.5102  159.3277 H   0  0  0  0  0  0  0  0  0  0  0  0
  148.0754  142.0618  155.6450 H   0  0  0  0  0  0  0  0  0  0  0  0
  148.4164  141.4884  154.0498 H   0  0  0  0  0  0  0  0  0  0  0  0
  147.2258  138.7617  157.1581 H   0  0  0  0  0  0  0  0  0  0  0  0
  147.2309  140.4994  157.4126 H   0  0  0  0  0  0  0  0  0  0  0  0
  148.7285  139.5883  157.4743 H   0  0  0  0  0  0  0  0  0  0  0  0
  146.0270  138.9259  155.0094 H   0  0  0  0  0  0  0  0  0  0  0  0
  146.5573  140.0138  153.7369 H   0  0  0  0  0  0  0  0  0  0  0  0
  145.9048  140.6662  155.2330 H   0  0  0  0  0  0  0  0  0  0  0  0
  148.6677  138.8017  153.7069 H   0  0  0  0  0  0  0  0  0  0  0  0
  148.3642  137.7914  155.0906 H   0  0  0  0  0  0  0  0  0  0  0  0
  1  2  1  0  0  0  0
  1 21  1  0  0  0  0
  1 22  1  0  0  0  0
  1 23  1  0  0  0  0
  2 20  1  0  0  0  0
  2  3  1  0  0  0  0
  2 24  1  0  0  0  0
  3  4  1  0  0  0  0
  3 25  1  0  0  0  0
  3 26  1  0  0  0  0
  4  5  1  0  0  0  0
  4 16  1  0  0  0  0
  4 27  1  0  0  0  0
  5  6  2  0  0  0  0
  5  7  1  0  0  0  0
  7  8  1  0  0  0  0
  7 28  1  0  0  0  0
  8  9  1  0  0  0  0
  8 29  1  0  0  0  0
  8 30  1  0  0  0  0
  9 10  1  0  0  0  0
  9 31  1  0  0  0  0
  9 32  1  0  0  0  0
 10 14  1  0  0  0  0
 10 11  2  0  0  0  0
 11 12  1  0  0  0  0
 12 13  2  0  0  0  0
 12 33  1  0  0  0  0
 13 14  1  0  0  0  0
 13 34  1  0  0  0  0
 14 15  1  0  0  0  0
 15 35  1  0  0  0  0
 15 36  1  0  0  0  0
 15 37  1  0  0  0  0
 16 17  1  0  0  0  0
 16 38  1  0  0  0  0
 16 39  1  0  0  0  0
 17 18  1  0  0  0  0
 17 19  1  0  0  0  0
 17 20  1  0  0  0  0
 18 40  1  0  0  0  0
 18 41  1  0  0  0  0
 18 42  1  0  0  0  0
 19 43  1  0  0  0  0
 19 44  1  0  0  0  0
 19 45  1  0  0  0  0
 20 46  1  0  0  0  0
 20 47  1  0  0  0  0
M  END
> <s_m_source_file>
AV-unprocessed.smi

> <i_m_source_file_index>
2473

> <i_lp_mmshare_version>
43012

> <i_f3d_flags>
0

> <s_epik_input>
W0NIM11bQ0BASF0oW0NIMl0xKVtDSDJdW0NASF0oW0NIMl1DMShbQ0gzXSlbQ0gzXSlDKD1PKVtOSF1bQ0gyXVtDSDJdYzJuW2NIXVtjSF1uMltDSDNd

> <s_epik_cmdline>
J2VwaWtfcHl0aG9uJywgJy1waCcsICc3LjAnLCAnLXRuJywgJzgnLCAnLW1hJywgJzIwMCcsICctbWV0YWxfYmluZGluZycsICctaW1hZScsICc8aW5maWxlLm1hZT4nLCAnLW9tYWUnLCAnPG91dGZpbGUubWFlPic=

> <r_lp_tautomer_probability>
1

> <r_epik_Ionization_Penalty>
1.22858

> <r_epik_Ionization_Penalty_Charging>
1.22858

> <r_epik_Ionization_Penalty_Neutral>
2.12671e-08

> <r_epik_State_Penalty>
1.2965

> <r_epik_Charging_Adjusted_Penalty>
2.52508

> <i_epik_Tot_Q>
0

> <i_epik_Tot_abs_Q>
0

> <r_epik_Metal_State_Penalty>
0.411461

> <b_epik_Metal_Only>
0

> <s_lp_Force_Field>
OPLS_2005

> <r_lp_Energy>
14.2462

> <b_lp_Chiralities_Consistent>
1

> <s_lp_Variant>
AV-unprocessed.smi:2473-8

> <Gold.Version>
5.8.1

> <Gold.Id.Protein>
6NUR|6NUR_protein|mol2

> <Gold.PLP.Fitness>
43.3506

> <Gold.PLP.PLP>
-41.9067

> <Gold.PLP.part.hbond>
-1.0000

> <Gold.PLP.part.metal>
0.0000

> <Gold.PLP.part.buried>
-1.9333

> <Gold.PLP.part.nonpolar>
-38.2035

> <Gold.PLP.part.repulsive>
0.1412

> <Gold.PLP.ligand.clash>
0.0000

> <Gold.PLP.ligand.torsion>
0.8403

> <Gold.PLP.Chemscore.Hbond>
1.0000

> <Gold.PLP.Chemscore.CHOScore>
0.0000

> <Gold.PLP.Chemscore.Metal>
0.0000

> <Gold.Chemscore.Hbonds>
donor molecule, donor type, donor heavy atom, donor atom, acceptor molecule, acceptor atom, score
      L1  H     7    28       P1  8028  1.00

> <Gold.PLP.Chemscore.Internal.Correction>
0.1245

> <Gold.Rescore>
     Score         DG    S(hbond)    S(metal)    S(lipo)     H(rot)  DE(clash)    DE(int)     intcor
     14.44     -16.91       1.00        0.00     102.22       1.51       1.60       0.87       ----

> <Gold.Chemscore.Fitness>
14.4364

> <Gold.Chemscore.DG>
-16.9067

> <Gold.Chemscore.ZeroCoef>
-5.4800

> <Gold.Chemscore.Hbond>
0.9984

> <Gold.Chemscore.Metal>
0.0000

> <Gold.Chemscore.Lipo>
102.2221

> <Gold.Chemscore.Internal_Hbond>
0.0000

> <Gold.Chemscore.DEClash>
1.6012

> <Gold.Chemscore.DEInternal>
0.8691

> <Gold.Chemscore.Rot>
1.5109

> <Gold.Chemscore.Internal.Correction>
   9.000000E+99

> <Gold.Chemscore.Hbonds>
donor molecule, donor type, donor heavy atom, donor atom, acceptor molecule, acceptor atom, score
      L1  H     7    28       P1  8028  1.00

> <Gold.Chemscore.Hbond.Weighted>
-3.3347

> <Gold.Chemscore.Metal.Weighted>
-0.0000

> <Gold.Chemscore.Lipo.Weighted>
-11.9600

> <Gold.Chemscore.Internal_Hbond.Weighted>
0.0000

> <Gold.Chemscore.DEClash.Weighted>
1.6012

> <Gold.Chemscore.DEInternal.Weighted>
0.8691

> <Gold.Chemscore.Rot.Weighted>
3.8680

> <Gold.Chemscore.Internal.Correction.Weighted>
   9.000000E+99

> <Gold.Protein.RotatedTorsions>
[ 6907 6896 6895 6894 ] final -147.42 input  -60.11 | X-H torsion
[ 7974 7965 7964 7962 ] final -125.78 input  175.53 | X-H torsion
[ 8008 7997 7996 7995 ] final   54.14 input   59.86 | X-H torsion
[ 10167 10162 10161 10158 ] final -178.59 input  -65.29 | X-H torsion
[ 10718 10713 10712 10709 ] final  135.02 input   66.30 | X-H torsion
[ 10763 10752 10751 10750 ] final  -78.82 input  -60.55 | X-H torsion
[ 11005 11000 10999 10996 ] final   37.31 input  -57.11 | X-H torsion

> <Gold.Protein.ActiveResidues>
 VAL166  LYS551  ARG553  GLY616  TRP617  ASP618  TYR619  PRO620  LYS621  CYS622 
 ASP623  PHE694  ASN695  SER759  ASP760  ASP761  ALA762  ILE779  LEU786  VAL792 
 PHE793  MET794  SER795  GLU796  ALA797  LYS798  CYS799  TRP800  GLU811  SER814 

> <Gold.Protein.RotatedAtoms>
  151.1554  133.4880  159.2594 H   0  0  0  0  0  0  0  0  0  0  0  0  # atno 6907 bound_to 6896
  151.1510  135.0227  159.8678 H   0  0  0  0  0  0  0  0  0  0  0  0  # atno 6908 bound_to 6896
  152.5463  134.1438  159.8543 H   0  0  0  0  0  0  0  0  0  0  0  0  # atno 6909 bound_to 6896
  144.9940  140.7759  143.4537 H   0  0  0  0  0  0  0  0  0  0  0  0  # atno 7974 bound_to 7965
  155.4799  140.3468  155.4338 H   0  0  0  0  0  0  0  0  0  0  0  0  # atno 8008 bound_to 7997
  156.1046  140.1444  156.9450 H   0  0  0  0  0  0  0  0  0  0  0  0  # atno 8009 bound_to 7997
  154.4716  140.0899  156.7136 H   0  0  0  0  0  0  0  0  0  0  0  0  # atno 8010 bound_to 7997
  139.5425  144.2324  152.0923 H   0  0  0  0  0  0  0  0  0  0  0  0  # atno 10167 bound_to 10162
  157.4613  131.1073  150.9916 H   0  0  0  0  0  0  0  0  0  0  0  0  # atno 10718 bound_to 10713
  154.5308  135.5716  153.6757 H   0  0  0  0  0  0  0  0  0  0  0  0  # atno 10763 bound_to 10752
  152.9939  135.6204  154.2631 H   0  0  0  0  0  0  0  0  0  0  0  0  # atno 10764 bound_to 10752
  154.2557  135.2857  155.2778 H   0  0  0  0  0  0  0  0  0  0  0  0  # atno 10765 bound_to 10752
  140.2238  134.3609  155.7993 H   0  0  0  0  0  0  0  0  0  0  0  0  # atno 11005 bound_to 11000
  145.2246  139.2143  143.5075 LP  0  0  0  0  0  0  0  0  0  0  0  0  # atno 17320 bound_to 7965
  146.3438  140.2110  142.8590 LP  0  0  0  0  0  0  0  0  0  0  0  0  # atno 17321 bound_to 7965
  140.1805  144.4849  150.6531 LP  0  0  0  0  0  0  0  0  0  0  0  0  # atno 17342 bound_to 10162
  140.6661  143.2268  151.5740 LP  0  0  0  0  0  0  0  0  0  0  0  0  # atno 17343 bound_to 10162
  157.0712  130.5865  149.5403 LP  0  0  0  0  0  0  0  0  0  0  0  0  # atno 17370 bound_to 10713
  156.0030  130.5112  150.7731 LP  0  0  0  0  0  0  0  0  0  0  0  0  # atno 17371 bound_to 10713
  141.2221  133.7208  156.8619 LP  0  0  0  0  0  0  0  0  0  0  0  0  # atno 17394 bound_to 11000
  140.1822  134.9025  157.2962 LP  0  0  0  0  0  0  0  0  0  0  0  0  # atno 17395 bound_to 11000

$$$$
