AV-unprocessed.smi:270|AV-procd|sdf|2045|dock3
  -GOLD-   2262021273D 1   1.00000     0.00000
 Structure written by MMmdl.
 54 57  0  0  0  0  0  0  0  0  1 V2000
  145.3080  135.1404  159.1866 C   0  0  0  0  0  0  0  0  0  0  0  0
  144.2460  134.8237  160.2512 C   0  0  2  0  0  0  0  0  0  0  0  0
  143.6402  136.0558  160.6344 O   0  0  0  0  0  0  0  0  0  0  0  0
  143.2403  135.9689  161.9907 C   0  0  0  0  0  0  0  0  0  0  0  0
  144.3997  135.2171  162.6256 C   0  0  0  0  0  0  0  0  0  0  0  0
  144.7490  134.1712  161.5704 C   0  0  1  0  0  0  0  0  0  0  0  0
  143.9484  133.0261  161.8143 O   0  0  0  0  0  0  0  0  0  0  0  0
  146.2362  133.7296  161.6004 C   0  0  0  0  0  0  0  0  0  0  0  0
  147.1684  134.8188  161.3493 N   0  0  0  0  0  0  0  0  0  0  0  0
  147.3272  135.9587  162.1041 C   0  0  0  0  0  0  0  0  0  0  0  0
  148.2338  136.7909  161.6708 N   0  0  0  0  0  0  0  0  0  0  0  0
  148.7441  136.1802  160.5308 C   0  0  0  0  0  0  0  0  0  0  0  0
  149.7471  136.5415  159.5839 C   0  0  0  0  0  0  0  0  0  0  0  0
  150.5170  137.7391  159.6454 N   0  0  0  0  0  0  0  0  0  0  0  0
  150.4820  138.5921  158.4665 C   0  0  0  0  0  0  0  0  0  0  0  0
  151.9906  138.7809  158.6562 C   0  0  0  0  0  0  0  0  0  0  0  0
  152.3432  139.9962  159.2985 O   0  0  0  0  0  0  0  0  0  0  0  0
  152.2363  141.1232  158.4437 C   0  0  0  0  0  0  0  0  0  0  0  0
  151.8508  142.3455  159.2848 C   0  0  0  0  0  0  0  0  0  0  0  0
  150.8610  142.9960  158.9471 O   0  0  0  0  0  0  0  0  0  0  0  0
  152.5983  142.6658  160.3673 N   0  0  0  0  0  0  0  0  0  0  0  0
  152.2823  143.7865  161.2578 C   0  0  0  0  0  0  0  0  0  0  0  0
  153.7766  141.8722  160.7262 C   0  0  0  0  0  0  0  0  0  0  0  0
  151.9688  137.6039  159.6325 C   0  0  0  0  0  0  0  0  0  0  0  0
  149.9936  135.6389  158.5965 N   0  0  0  0  0  0  0  0  0  0  0  0
  149.3058  134.4965  158.5153 C   0  0  0  0  0  0  0  0  0  0  0  0
  148.3388  134.0483  159.3156 N   0  0  0  0  0  0  0  0  0  0  0  0
  148.0902  134.9315  160.3228 C   0  0  0  0  0  0  0  0  0  0  0  0
  145.8081  134.2359  158.8400 H   0  0  0  0  0  0  0  0  0  0  0  0
  146.0652  135.8259  159.5678 H   0  0  0  0  0  0  0  0  0  0  0  0
  144.8501  135.6124  158.3172 H   0  0  0  0  0  0  0  0  0  0  0  0
  143.4733  134.2047  159.7910 H   0  0  0  0  0  0  0  0  0  0  0  0
  143.0841  136.9546  162.4293 H   0  0  0  0  0  0  0  0  0  0  0  0
  142.3113  135.4019  162.0679 H   0  0  0  0  0  0  0  0  0  0  0  0
  145.2319  135.9093  162.7578 H   0  0  0  0  0  0  0  0  0  0  0  0
  144.1579  134.7969  163.6030 H   0  0  0  0  0  0  0  0  0  0  0  0
  143.4266  132.8566  161.0450 H   0  0  0  0  0  0  0  0  0  0  0  0
  146.4841  133.2868  162.5660 H   0  0  0  0  0  0  0  0  0  0  0  0
  146.4212  132.9587  160.8521 H   0  0  0  0  0  0  0  0  0  0  0  0
  146.7420  136.1567  162.9903 H   0  0  0  0  0  0  0  0  0  0  0  0
  150.2333  138.0561  157.5493 H   0  0  0  0  0  0  0  0  0  0  0  0
  149.8839  139.4934  158.6020 H   0  0  0  0  0  0  0  0  0  0  0  0
  152.5793  138.5725  157.7612 H   0  0  0  0  0  0  0  0  0  0  0  0
  153.1950  141.3057  157.9550 H   0  0  0  0  0  0  0  0  0  0  0  0
  151.5027  140.9607  157.6534 H   0  0  0  0  0  0  0  0  0  0  0  0
  152.3976  144.7368  160.7355 H   0  0  0  0  0  0  0  0  0  0  0  0
  152.9303  143.8170  162.1341 H   0  0  0  0  0  0  0  0  0  0  0  0
  151.2595  143.7198  161.6296 H   0  0  0  0  0  0  0  0  0  0  0  0
  153.4710  140.9477  161.2178 H   0  0  0  0  0  0  0  0  0  0  0  0
  154.4457  142.4057  161.4018 H   0  0  0  0  0  0  0  0  0  0  0  0
  154.3661  141.6100  159.8462 H   0  0  0  0  0  0  0  0  0  0  0  0
  152.4354  137.8057  160.5971 H   0  0  0  0  0  0  0  0  0  0  0  0
  152.3264  136.6784  159.1786 H   0  0  0  0  0  0  0  0  0  0  0  0
  149.5702  133.8488  157.6926 H   0  0  0  0  0  0  0  0  0  0  0  0
  1  2  1  0  0  0  0
  1 29  1  0  0  0  0
  1 30  1  0  0  0  0
  1 31  1  0  0  0  0
  2  6  1  0  0  0  0
  2  3  1  0  0  0  0
  2 32  1  0  0  0  0
  3  4  1  0  0  0  0
  4  5  1  0  0  0  0
  4 33  1  0  0  0  0
  4 34  1  0  0  0  0
  5  6  1  0  0  0  0
  5 35  1  0  0  0  0
  5 36  1  0  0  0  0
  6  7  1  0  0  0  0
  6  8  1  0  0  0  0
  7 37  1  0  0  0  0
  8  9  1  0  0  0  0
  8 38  1  0  0  0  0
  8 39  1  0  0  0  0
  9 28  1  0  0  0  0
  9 10  1  0  0  0  0
 10 11  2  0  0  0  0
 10 40  1  0  0  0  0
 11 12  1  0  0  0  0
 12 28  2  0  0  0  0
 12 13  1  0  0  0  0
 13 14  1  0  0  0  0
 13 25  2  0  0  0  0
 14 24  1  0  0  0  0
 14 15  1  0  0  0  0
 15 16  1  0  0  0  0
 15 41  1  0  0  0  0
 15 42  1  0  0  0  0
 16 17  1  0  0  0  0
 16 24  1  0  0  0  0
 16 43  1  0  0  0  0
 17 18  1  0  0  0  0
 18 19  1  0  0  0  0
 18 44  1  0  0  0  0
 18 45  1  0  0  0  0
 19 20  2  0  0  0  0
 19 21  1  0  0  0  0
 21 22  1  0  0  0  0
 21 23  1  0  0  0  0
 22 46  1  0  0  0  0
 22 47  1  0  0  0  0
 22 48  1  0  0  0  0
 23 49  1  0  0  0  0
 23 50  1  0  0  0  0
 23 51  1  0  0  0  0
 24 52  1  0  0  0  0
 24 53  1  0  0  0  0
 25 26  1  0  0  0  0
 26 27  2  0  0  0  0
 26 54  1  0  0  0  0
 27 28  1  0  0  0  0
M  END
> <s_m_source_file>
AV-unprocessed.smi

> <i_m_source_file_index>
270

> <i_lp_mmshare_version>
43012

> <i_f3d_flags>
0

> <s_epik_input>
W0NIMl0xW0NIMl1PW0NAQEhdKFtDSDNdKVtDQEBdMShbT0hdKVtDSDJdbihbY0hdbjIpYyhjMjMpbltjSF1uYzNONFtDSDJdW0NIXShbQ0gyXTQpT1tDSDJdQyg9TylOKFtDSDNdKVtDSDNd

> <s_epik_cmdline>
J2VwaWtfcHl0aG9uJywgJy1waCcsICc3LjAnLCAnLXRuJywgJzgnLCAnLW1hJywgJzIwMCcsICctbWV0YWxfYmluZGluZycsICctaW1hZScsICc8aW5maWxlLm1hZT4nLCAnLW9tYWUnLCAnPG91dGZpbGUubWFlPic=

> <r_lp_tautomer_probability>
1

> <r_epik_Ionization_Penalty>
0.00375854

> <r_epik_Ionization_Penalty_Charging>
0

> <r_epik_Ionization_Penalty_Neutral>
0.00375854

> <r_epik_State_Penalty>
-0

> <r_epik_Charging_Adjusted_Penalty>
0

> <i_epik_Tot_Q>
0

> <i_epik_Tot_abs_Q>
0

> <r_epik_Metal_State_Penalty>
-0

> <b_epik_Metal_Only>
0

> <s_lp_Force_Field>
OPLS_2005

> <r_lp_Energy>
54.2687

> <b_lp_Chiralities_Consistent>
1

> <s_lp_Variant>
AV-unprocessed.smi:270-1

> <Gold.Version>
5.8.1

> <Gold.Id.Protein>
6NUR|6NUR_protein|mol2

> <Gold.PLP.Fitness>
48.4600

> <Gold.PLP.PLP>
-45.8131

> <Gold.PLP.part.hbond>
-3.8666

> <Gold.PLP.part.metal>
0.0000

> <Gold.PLP.part.buried>
-8.2204

> <Gold.PLP.part.nonpolar>
-34.2601

> <Gold.PLP.part.repulsive>
0.0519

> <Gold.PLP.ligand.clash>
0.0000

> <Gold.PLP.ligand.torsion>
0.3713

> <Gold.PLP.Chemscore.Hbond>
1.0000

> <Gold.PLP.Chemscore.CHOScore>
0.0000

> <Gold.PLP.Chemscore.Metal>
0.0000

> <Gold.Chemscore.Hbonds>
donor molecule, donor type, donor heavy atom, donor atom, acceptor molecule, acceptor atom, score
      P1  H  6896  6908       L1    25  0.07
      P1  H  6931  6943       L1    11  1.00

> <Gold.PLP.Chemscore.Internal.Correction>
0.3896

> <Gold.Rescore>
     Score         DG    S(hbond)    S(metal)    S(lipo)     H(rot)  DE(clash)    DE(int)     intcor
      5.97      -9.95       0.98        0.00      78.62       3.12       0.13       3.85       ----

> <Gold.Chemscore.Fitness>
5.9664

> <Gold.Chemscore.DG>
-9.9453

> <Gold.Chemscore.ZeroCoef>
-5.4800

> <Gold.Chemscore.Hbond>
0.9768

> <Gold.Chemscore.Metal>
0.0000

> <Gold.Chemscore.Lipo>
78.6204

> <Gold.Chemscore.Internal_Hbond>
0.0000

> <Gold.Chemscore.DEClash>
0.1330

> <Gold.Chemscore.DEInternal>
3.8459

> <Gold.Chemscore.Rot>
3.1234

> <Gold.Chemscore.Internal.Correction>
   9.000000E+99

> <Gold.Chemscore.Hbonds>
donor molecule, donor type, donor heavy atom, donor atom, acceptor molecule, acceptor atom, score
      P1  H  6931  6943       L1    11  0.70

> <Gold.Chemscore.Hbond.Weighted>
-3.2625

> <Gold.Chemscore.Metal.Weighted>
-0.0000

> <Gold.Chemscore.Lipo.Weighted>
-9.1986

> <Gold.Chemscore.Internal_Hbond.Weighted>
0.0000

> <Gold.Chemscore.DEClash.Weighted>
0.1330

> <Gold.Chemscore.DEInternal.Weighted>
3.8459

> <Gold.Chemscore.Rot.Weighted>
7.9959

> <Gold.Chemscore.Internal.Correction.Weighted>
   9.000000E+99

> <Gold.Protein.RotatedTorsions>
[ 6907 6896 6895 6894 ] final -168.38 input  -60.11 | X-H torsion
[ 7974 7965 7964 7962 ] final    1.34 input  175.53 | X-H torsion
[ 8008 7997 7996 7995 ] final  154.62 input   59.86 | X-H torsion
[ 10167 10162 10161 10158 ] final   -1.34 input  -65.29 | X-H torsion
[ 10718 10713 10712 10709 ] final  -29.57 input   66.30 | X-H torsion
[ 10763 10752 10751 10750 ] final -129.06 input  -60.55 | X-H torsion
[ 11005 11000 10999 10996 ] final -121.48 input  -57.11 | X-H torsion

> <Gold.Protein.ActiveResidues>
 VAL166  LYS551  ARG553  GLY616  TRP617  ASP618  TYR619  PRO620  LYS621  CYS622 
 ASP623  PHE694  ASN695  SER759  ASP760  ASP761  ALA762  ILE779  LEU786  VAL792 
 PHE793  MET794  SER795  GLU796  ALA797  LYS798  CYS799  TRP800  GLU811  SER814 

> <Gold.Protein.RotatedAtoms>
  151.4747  133.3561  159.2828 H   0  0  0  0  0  0  0  0  0  0  0  0  # atno 6907 bound_to 6896
  150.8937  134.8346  159.7322 H   0  0  0  0  0  0  0  0  0  0  0  0  # atno 6908 bound_to 6896
  152.4839  134.4659  159.9672 H   0  0  0  0  0  0  0  0  0  0  0  0  # atno 6909 bound_to 6896
  146.2440  140.1002  142.8348 H   0  0  0  0  0  0  0  0  0  0  0  0  # atno 7974 bound_to 7965
  156.2521  140.1961  156.6675 H   0  0  0  0  0  0  0  0  0  0  0  0  # atno 8008 bound_to 7997
  154.6418  140.0582  156.9880 H   0  0  0  0  0  0  0  0  0  0  0  0  # atno 8009 bound_to 7997
  155.1551  140.3255  155.4425 H   0  0  0  0  0  0  0  0  0  0  0  0  # atno 8010 bound_to 7997
  140.6806  143.6787  150.8124 H   0  0  0  0  0  0  0  0  0  0  0  0  # atno 10167 bound_to 10162
  156.4108  130.4407  149.7254 H   0  0  0  0  0  0  0  0  0  0  0  0  # atno 10718 bound_to 10713
  154.8757  135.3908  154.3857 H   0  0  0  0  0  0  0  0  0  0  0  0  # atno 10763 bound_to 10752
  153.4599  135.7029  153.6062 H   0  0  0  0  0  0  0  0  0  0  0  0  # atno 10764 bound_to 10752
  153.4565  135.3822  155.2282 H   0  0  0  0  0  0  0  0  0  0  0  0  # atno 10765 bound_to 10752
  141.0067  134.0325  157.3468 H   0  0  0  0  0  0  0  0  0  0  0  0  # atno 11005 bound_to 11000
  145.0575  140.9063  143.4958 LP  0  0  0  0  0  0  0  0  0  0  0  0  # atno 17320 bound_to 7965
  145.1111  139.2756  143.5637 LP  0  0  0  0  0  0  0  0  0  0  0  0  # atno 17321 bound_to 7965
  140.0487  143.5272  152.2684 LP  0  0  0  0  0  0  0  0  0  0  0  0  # atno 17342 bound_to 10162
  139.6126  144.7612  151.2918 LP  0  0  0  0  0  0  0  0  0  0  0  0  # atno 17343 bound_to 10162
  156.4233  130.7779  151.2797 LP  0  0  0  0  0  0  0  0  0  0  0  0  # atno 17370 bound_to 10713
  157.7507  131.0176  150.3592 LP  0  0  0  0  0  0  0  0  0  0  0  0  # atno 17371 bound_to 10713
  139.9067  135.0181  156.7516 LP  0  0  0  0  0  0  0  0  0  0  0  0  # atno 17394 bound_to 11000
  140.6801  133.9482  155.7906 LP  0  0  0  0  0  0  0  0  0  0  0  0  # atno 17395 bound_to 11000

$$$$
