AV-unprocessed.smi:2766|AV-procd|sdf|10645|dock8
  -GOLD-   2272015 93D 1   1.00000     0.00000
 Structure written by MMmdl.
 32 33  0  0  0  0  0  0  0  0  1 V2000
  146.3271  142.3878  153.8342 C   0  0  0  0  0  0  0  0  0  0  0  0
  147.0267  141.8395  154.9372 O   0  0  0  0  0  0  0  0  0  0  0  0
  148.2692  141.2660  154.5644 C   0  0  0  0  0  0  0  0  0  0  0  0
  149.1499  141.1082  155.8146 C   0  0  1  0  0  0  0  0  0  0  0  0
  148.6171  140.0639  156.6052 O   0  0  0  0  0  0  0  0  0  0  0  0
  150.6135  140.7804  155.4473 C   0  0  0  0  0  0  0  0  0  0  0  0
  151.4966  140.7176  156.6061 N   0  0  0  0  0  0  0  0  0  0  0  0
  152.2768  139.6827  157.0162 C   0  0  0  0  0  0  0  0  0  0  0  0
  152.3084  138.3609  156.2984 C   0  0  0  0  0  0  0  0  0  0  0  0
  153.0676  137.4810  156.9535 F   0  0  0  0  0  0  0  0  0  0  0  0
  151.0799  137.8518  156.2069 F   0  0  0  0  0  0  0  0  0  0  0  0
  152.8098  138.4902  155.0711 F   0  0  0  0  0  0  0  0  0  0  0  0
  152.9864  139.9026  158.1258 N   0  0  0  0  0  0  0  0  0  0  0  0
  152.6326  141.1918  158.4683 C   0  0  0  0  0  0  0  0  0  0  0  0
  153.0457  141.9989  159.5525 C   0  0  0  0  0  0  0  0  0  0  0  0
  152.5330  143.3034  159.7072 C   0  0  0  0  0  0  0  0  0  0  0  0
  151.6013  143.8178  158.7824 C   0  0  0  0  0  0  0  0  0  0  0  0
  151.1777  143.0300  157.6948 C   0  0  0  0  0  0  0  0  0  0  0  0
  151.6951  141.7291  157.5424 C   0  0  0  0  0  0  0  0  0  0  0  0
  149.1207  142.0295  156.3961 H   0  0  0  0  0  0  0  0  0  0  0  0
  145.3852  142.8172  154.1751 H   0  0  0  0  0  0  0  0  0  0  0  0
  146.0983  141.6213  153.0928 H   0  0  0  0  0  0  0  0  0  0  0  0
  146.9034  143.1797  153.3539 H   0  0  0  0  0  0  0  0  0  0  0  0
  148.1319  140.3099  154.0556 H   0  0  0  0  0  0  0  0  0  0  0  0
  148.7541  141.9405  153.8566 H   0  0  0  0  0  0  0  0  0  0  0  0
  147.6945  140.2225  156.7317 H   0  0  0  0  0  0  0  0  0  0  0  0
  150.6648  139.8251  154.9232 H   0  0  0  0  0  0  0  0  0  0  0  0
  151.0008  141.5221  154.7496 H   0  0  0  0  0  0  0  0  0  0  0  0
  153.7570  141.6123  160.2673 H   0  0  0  0  0  0  0  0  0  0  0  0
  152.8549  143.9114  160.5399 H   0  0  0  0  0  0  0  0  0  0  0  0
  151.2125  144.8178  158.9081 H   0  0  0  0  0  0  0  0  0  0  0  0
  150.4651  143.4227  156.9849 H   0  0  0  0  0  0  0  0  0  0  0  0
  1  2  1  0  0  0  0
  1 21  1  0  0  0  0
  1 22  1  0  0  0  0
  1 23  1  0  0  0  0
  2  3  1  0  0  0  0
  3  4  1  0  0  0  0
  3 24  1  0  0  0  0
  3 25  1  0  0  0  0
  4 20  1  0  0  0  0
  4  5  1  0  0  0  0
  4  6  1  0  0  0  0
  5 26  1  0  0  0  0
  6  7  1  0  0  0  0
  6 27  1  0  0  0  0
  6 28  1  0  0  0  0
  7 19  1  0  0  0  0
  7  8  1  0  0  0  0
  8  9  1  0  0  0  0
  8 13  2  0  0  0  0
  9 10  1  0  0  0  0
  9 11  1  0  0  0  0
  9 12  1  0  0  0  0
 13 14  1  0  0  0  0
 14 19  2  0  0  0  0
 14 15  1  0  0  0  0
 15 16  2  0  0  0  0
 15 29  1  0  0  0  0
 16 17  1  0  0  0  0
 16 30  1  0  0  0  0
 17 18  2  0  0  0  0
 17 31  1  0  0  0  0
 18 19  1  0  0  0  0
 18 32  1  0  0  0  0
M  END
> <s_m_source_file>
AV-unprocessed.smi

> <i_m_source_file_index>
2766

> <i_lp_mmshare_version>
43012

> <i_f3d_flags>
0

> <s_epik_input>
W0NIM11PW0NIMl1bQ0BASF0oW09IXSlbQ0gyXW4oYyhuMSlDKEYpKEYpRiljKGMxMilbY0hdW2NIXVtjSF1bY0hdMg==

> <s_epik_cmdline>
J2VwaWtfcHl0aG9uJywgJy1waCcsICc3LjAnLCAnLXRuJywgJzgnLCAnLW1hJywgJzIwMCcsICctbWV0YWxfYmluZGluZycsICctaW1hZScsICc8aW5maWxlLm1hZT4nLCAnLW9tYWUnLCAnPG91dGZpbGUubWFlPic=

> <r_epik_Ionization_Penalty>
0.00044827

> <r_epik_Ionization_Penalty_Charging>
0

> <r_epik_Ionization_Penalty_Neutral>
0.00044827

> <r_epik_State_Penalty>
0.000276591

> <r_epik_Charging_Adjusted_Penalty>
0.000276591

> <i_epik_Tot_Q>
0

> <i_epik_Tot_abs_Q>
0

> <r_epik_Metal_State_Penalty>
-0

> <b_epik_Metal_Only>
0

> <s_lp_Force_Field>
OPLS_2005

> <r_lp_Energy>
13.5685

> <b_lp_Chiralities_Consistent>
1

> <s_lp_Variant>
AV-unprocessed.smi:2766-1

> <Gold.Version>
5.8.1

> <Gold.Id.Protein>
6NUR|6NUR_protein|mol2

> <Gold.PLP.Fitness>
41.0146

> <Gold.PLP.PLP>
-38.4147

> <Gold.PLP.part.hbond>
-1.0000

> <Gold.PLP.part.metal>
0.0000

> <Gold.PLP.part.buried>
-3.6555

> <Gold.PLP.part.nonpolar>
-32.9854

> <Gold.PLP.part.repulsive>
0.1549

> <Gold.PLP.ligand.clash>
0.0000

> <Gold.PLP.ligand.torsion>
0.2127

> <Gold.PLP.Chemscore.Hbond>
1.0000

> <Gold.PLP.Chemscore.CHOScore>
0.0000

> <Gold.PLP.Chemscore.Metal>
0.0000

> <Gold.Chemscore.Hbonds>
donor molecule, donor type, donor heavy atom, donor atom, acceptor molecule, acceptor atom, score
      P1  H  7997  8010       L1    13  0.50

> <Gold.PLP.Chemscore.Internal.Correction>
0.0253

> <Gold.Rescore>
     Score         DG    S(hbond)    S(metal)    S(lipo)     H(rot)  DE(clash)    DE(int)     intcor
     11.34     -11.61       0.46        0.00      90.00       2.32       0.04       0.22       ----

> <Gold.Chemscore.Fitness>
11.3431

> <Gold.Chemscore.DG>
-11.6070

> <Gold.Chemscore.ZeroCoef>
-5.4800

> <Gold.Chemscore.Hbond>
0.4572

> <Gold.Chemscore.Metal>
0.0000

> <Gold.Chemscore.Lipo>
89.9993

> <Gold.Chemscore.Internal_Hbond>
0.0000

> <Gold.Chemscore.DEClash>
0.0446

> <Gold.Chemscore.DEInternal>
0.2192

> <Gold.Chemscore.Rot>
2.3164

> <Gold.Chemscore.Internal.Correction>
   9.000000E+99

> <Gold.Chemscore.Hbonds>
donor molecule, donor type, donor heavy atom, donor atom, acceptor molecule, acceptor atom, score
      P1  H  7997  8010       L1    13  0.01

> <Gold.Chemscore.Hbond.Weighted>
-1.5270

> <Gold.Chemscore.Metal.Weighted>
-0.0000

> <Gold.Chemscore.Lipo.Weighted>
-10.5299

> <Gold.Chemscore.Internal_Hbond.Weighted>
0.0000

> <Gold.Chemscore.DEClash.Weighted>
0.0446

> <Gold.Chemscore.DEInternal.Weighted>
0.2192

> <Gold.Chemscore.Rot.Weighted>
5.9299

> <Gold.Chemscore.Internal.Correction.Weighted>
   9.000000E+99

> <Gold.Protein.RotatedTorsions>
[ 6907 6896 6895 6894 ] final -163.07 input  -60.11 | X-H torsion
[ 7974 7965 7964 7962 ] final  107.41 input  175.53 | X-H torsion
[ 8008 7997 7996 7995 ] final   32.63 input   59.86 | X-H torsion
[ 10167 10162 10161 10158 ] final   46.73 input  -65.29 | X-H torsion
[ 10718 10713 10712 10709 ] final   15.76 input   66.30 | X-H torsion
[ 10763 10752 10751 10750 ] final  -10.84 input  -60.55 | X-H torsion
[ 11005 11000 10999 10996 ] final    3.22 input  -57.11 | X-H torsion

> <Gold.Protein.ActiveResidues>
 VAL166  LYS551  ARG553  GLY616  TRP617  ASP618  TYR619  PRO620  LYS621  CYS622 
 ASP623  PHE694  ASN695  SER759  ASP760  ASP761  ALA762  ILE779  LEU786  VAL792 
 PHE793  MET794  SER795  GLU796  ALA797  LYS798  CYS799  TRP800  GLU811  SER814 

> <Gold.Protein.RotatedAtoms>
  151.3902  133.3791  159.2719 H   0  0  0  0  0  0  0  0  0  0  0  0  # atno 6907 bound_to 6896
  150.9511  134.8912  159.7683 H   0  0  0  0  0  0  0  0  0  0  0  0  # atno 6908 bound_to 6896
  152.5112  134.3857  159.9419 H   0  0  0  0  0  0  0  0  0  0  0  0  # atno 6909 bound_to 6896
  145.2939  139.2591  143.3850 H   0  0  0  0  0  0  0  0  0  0  0  0  # atno 7974 bound_to 7965
  155.1256  140.3252  155.4486 H   0  0  0  0  0  0  0  0  0  0  0  0  # atno 8008 bound_to 7997
  156.2650  140.2019  156.6325 H   0  0  0  0  0  0  0  0  0  0  0  0  # atno 8009 bound_to 7997
  154.6651  140.0543  157.0092 H   0  0  0  0  0  0  0  0  0  0  0  0  # atno 8010 bound_to 7997
  140.3109  144.2821  150.6200 H   0  0  0  0  0  0  0  0  0  0  0  0  # atno 10167 bound_to 10162
  157.0581  130.6297  149.5780 H   0  0  0  0  0  0  0  0  0  0  0  0  # atno 10718 bound_to 10713
  153.4751  135.7017  153.5971 H   0  0  0  0  0  0  0  0  0  0  0  0  # atno 10763 bound_to 10752
  153.4208  135.3826  155.2110 H   0  0  0  0  0  0  0  0  0  0  0  0  # atno 10764 bound_to 10752
  154.8724  135.3927  154.4193 H   0  0  0  0  0  0  0  0  0  0  0  0  # atno 10765 bound_to 10752
  140.5955  133.9884  155.8108 H   0  0  0  0  0  0  0  0  0  0  0  0  # atno 11005 bound_to 11000
  146.3175  140.3437  142.8650 LP  0  0  0  0  0  0  0  0  0  0  0  0  # atno 17320 bound_to 7965
  144.9149  140.7801  143.5784 LP  0  0  0  0  0  0  0  0  0  0  0  0  # atno 17321 bound_to 7965
  140.5569  143.2198  151.7833 LP  0  0  0  0  0  0  0  0  0  0  0  0  # atno 17342 bound_to 10162
  139.4894  144.4402  151.9773 LP  0  0  0  0  0  0  0  0  0  0  0  0  # atno 17343 bound_to 10162
  155.9987  130.5061  150.7579 LP  0  0  0  0  0  0  0  0  0  0  0  0  # atno 17370 bound_to 10713
  157.4976  131.0916  151.0352 LP  0  0  0  0  0  0  0  0  0  0  0  0  # atno 17371 bound_to 10713
  141.0907  133.9922  157.3242 LP  0  0  0  0  0  0  0  0  0  0  0  0  # atno 17394 bound_to 11000
  139.9255  135.0201  156.8219 LP  0  0  0  0  0  0  0  0  0  0  0  0  # atno 17395 bound_to 11000

$$$$
