AV-unprocessed.smi:2336|AV-procd|sdf|9328|dock3
  -GOLD-   2272012543D 1   1.00000     0.00000
 Structure written by MMmdl.
 50 51  0  0  0  0  0  0  0  0  2 V2000
  150.0634  132.2880  156.7413 C   0  0  0  0  0  0  0  0  0  0  0  0
  149.3334  131.9429  155.4316 C   0  0  0  0  0  0  0  0  0  0  0  0
  150.0309  130.7812  154.7032 C   0  0  0  0  0  0  0  0  0  0  0  0
  149.0479  133.1433  154.4799 C   0  0  1  0  0  0  0  0  0  0  0  0
  150.2829  134.0186  154.1421 C   0  0  0  0  0  0  0  0  0  0  0  0
  149.9266  135.4254  154.0133 N   0  0  0  0  0  0  0  0  0  0  0  0
  150.5125  136.4163  154.6977 C   0  0  0  0  0  0  0  0  0  0  0  0
  151.4242  136.2281  155.5022 O   0  0  0  0  0  0  0  0  0  0  0  0
  149.9763  137.6072  154.3786 N   0  0  0  0  0  0  0  0  0  0  0  0
  150.2986  138.9080  154.8581 C   0  0  0  0  0  0  0  0  0  0  0  0
  151.4801  139.2404  155.5662 C   0  0  0  0  0  0  0  0  0  0  0  0
  151.6634  140.5731  155.9869 C   0  0  0  0  0  0  0  0  0  0  0  0
  150.7695  141.5572  155.7549 N   0  0  0  0  0  0  0  0  0  0  0  0
  149.6425  141.2370  155.0855 C   0  0  0  0  0  0  0  0  0  0  0  0
  149.3618  139.9366  154.6205 C   0  0  0  0  0  0  0  0  0  0  0  0
  148.2084  139.6842  153.9557 F   0  0  0  0  0  0  0  0  0  0  0  0
  148.2685  132.7332  153.2966 N   0  0  0  0  0  0  0  0  0  0  0  0
  147.6925  133.8336  152.5118 C   0  0  0  0  0  0  0  0  0  0  0  0
  147.0787  133.2805  151.2109 C   0  0  0  0  0  0  0  0  0  0  0  0
  146.0223  132.2806  151.4979 N   0  3  0  0  0  0  0  0  0  0  0  0
  144.7416  132.8731  151.9484 C   0  0  0  0  0  0  0  0  0  0  0  0
  146.5416  131.2221  152.3964 C   0  0  0  0  0  0  0  0  0  0  0  0
  147.1836  131.8187  153.6662 C   0  0  0  0  0  0  0  0  0  0  0  0
  151.1093  132.5378  156.5676 H   0  0  0  0  0  0  0  0  0  0  0  0
  150.0519  131.4353  157.4203 H   0  0  0  0  0  0  0  0  0  0  0  0
  149.5918  133.1193  157.2642 H   0  0  0  0  0  0  0  0  0  0  0  0
  148.3618  131.5498  155.7316 H   0  0  0  0  0  0  0  0  0  0  0  0
  151.0423  131.0486  154.3962 H   0  0  0  0  0  0  0  0  0  0  0  0
  149.4783  130.4862  153.8109 H   0  0  0  0  0  0  0  0  0  0  0  0
  150.1048  129.9039  155.3467 H   0  0  0  0  0  0  0  0  0  0  0  0
  148.3904  133.7865  155.0669 H   0  0  0  0  0  0  0  0  0  0  0  0
  151.0544  133.9268  154.9075 H   0  0  0  0  0  0  0  0  0  0  0  0
  150.7297  133.6930  153.2017 H   0  0  0  0  0  0  0  0  0  0  0  0
  149.1865  135.6566  153.3669 H   0  0  0  0  0  0  0  0  0  0  0  0
  149.2497  137.5854  153.6778 H   0  0  0  0  0  0  0  0  0  0  0  0
  152.2433  138.5165  155.8021 H   0  0  0  0  0  0  0  0  0  0  0  0
  152.5541  140.8553  156.5284 H   0  0  0  0  0  0  0  0  0  0  0  0
  148.9421  142.0413  154.9154 H   0  0  0  0  0  0  0  0  0  0  0  0
  146.9315  134.3623  153.0861 H   0  0  0  0  0  0  0  0  0  0  0  0
  148.4522  134.5691  152.2588 H   0  0  0  0  0  0  0  0  0  0  0  0
  146.6706  134.0907  150.6056 H   0  0  0  0  0  0  0  0  0  0  0  0
  147.8563  132.8079  150.6090 H   0  0  0  0  0  0  0  0  0  0  0  0
  144.8418  133.3825  152.9067 H   0  0  0  0  0  0  0  0  0  0  0  0
  143.9807  132.0996  152.0549 H   0  0  0  0  0  0  0  0  0  0  0  0
  144.3767  133.5952  151.2174 H   0  0  0  0  0  0  0  0  0  0  0  0
  145.7416  130.5297  152.6608 H   0  0  0  0  0  0  0  0  0  0  0  0
  147.2854  130.6382  151.8521 H   0  0  0  0  0  0  0  0  0  0  0  0
  147.5799  131.0002  154.2683 H   0  0  0  0  0  0  0  0  0  0  0  0
  146.4398  132.3297  154.2784 H   0  0  0  0  0  0  0  0  0  0  0  0
  145.8118  131.8295  150.6190 H   0  0  0  0  0  0  0  0  0  0  0  0
  1  2  1  0  0  0  0
  1 24  1  0  0  0  0
  1 25  1  0  0  0  0
  1 26  1  0  0  0  0
  2  3  1  0  0  0  0
  2  4  1  0  0  0  0
  2 27  1  0  0  0  0
  3 28  1  0  0  0  0
  3 29  1  0  0  0  0
  3 30  1  0  0  0  0
  4  5  1  0  0  0  0
  4 17  1  0  0  0  0
  4 31  1  0  0  0  0
  5  6  1  0  0  0  0
  5 32  1  0  0  0  0
  5 33  1  0  0  0  0
  6  7  1  0  0  0  0
  6 34  1  0  0  0  0
  7  8  2  0  0  0  0
  7  9  1  0  0  0  0
  9 10  1  0  0  0  0
  9 35  1  0  0  0  0
 10 15  1  0  0  0  0
 10 11  2  0  0  0  0
 11 12  1  0  0  0  0
 11 36  1  0  0  0  0
 12 13  2  0  0  0  0
 12 37  1  0  0  0  0
 13 14  1  0  0  0  0
 14 15  2  0  0  0  0
 14 38  1  0  0  0  0
 15 16  1  0  0  0  0
 17 23  1  0  0  0  0
 17 18  1  0  0  0  0
 18 19  1  0  0  0  0
 18 39  1  0  0  0  0
 18 40  1  0  0  0  0
 19 20  1  0  0  0  0
 19 41  1  0  0  0  0
 19 42  1  0  0  0  0
 20 21  1  0  0  0  0
 20 22  1  0  0  0  0
 20 50  1  0  0  0  0
 21 43  1  0  0  0  0
 21 44  1  0  0  0  0
 21 45  1  0  0  0  0
 22 23  1  0  0  0  0
 22 46  1  0  0  0  0
 22 47  1  0  0  0  0
 23 48  1  0  0  0  0
 23 49  1  0  0  0  0
M  CHG  1  20   1
M  END
> <s_m_source_file>
AV-unprocessed.smi

> <i_m_source_file_index>
2336

> <i_lp_mmshare_version>
43012

> <i_f3d_flags>
0

> <s_epik_input>
W0NIMl0xW0NIMl1OKFtDSDNdKVtDSDJdW0NIMl1OMVtDQEhdKFtDSF0oW0NIM10pW0NIM10pW0NIMl1bTkhdQyg9TylbTkhdYzJbY0hdW2NIXW5bY0hdYzJG

> <s_epik_cmdline>
J2VwaWtfcHl0aG9uJywgJy1waCcsICc3LjAnLCAnLXRuJywgJzgnLCAnLW1hJywgJzIwMCcsICctbWV0YWxfYmluZGluZycsICctaW1hZScsICc8aW5maWxlLm1hZT4nLCAnLW9tYWUnLCAnPG91dGZpbGUubWFlPic=

> <r_epik_Ionization_Penalty>
0.0313013

> <r_epik_Ionization_Penalty_Charging>
0.0272987

> <r_epik_Ionization_Penalty_Neutral>
0.00400259

> <r_epik_State_Penalty>
0.0776825

> <r_epik_Charging_Adjusted_Penalty>
0.104981

> <i_epik_Tot_Q>
1

> <i_epik_Tot_abs_Q>
1

> <r_epik_Metal_State_Penalty>
0.0776139

> <b_epik_Metal_Only>
0

> <s_lp_Force_Field>
OPLS_2005

> <r_lp_Energy>
31.1795

> <b_lp_Chiralities_Consistent>
1

> <s_lp_Variant>
AV-unprocessed.smi:2336-2

> <Gold.Version>
5.8.1

> <Gold.Id.Protein>
6NUR|6NUR_protein|mol2

> <Gold.PLP.Fitness>
37.9203

> <Gold.PLP.PLP>
-31.7278

> <Gold.PLP.part.hbond>
-4.5740

> <Gold.PLP.part.metal>
0.0000

> <Gold.PLP.part.buried>
2.6903

> <Gold.PLP.part.nonpolar>
-28.5649

> <Gold.PLP.part.repulsive>
0.3721

> <Gold.PLP.ligand.clash>
0.0000

> <Gold.PLP.ligand.torsion>
0.6540

> <Gold.PLP.Chemscore.Hbond>
2.0545

> <Gold.PLP.Chemscore.CHOScore>
0.3252

> <Gold.PLP.Chemscore.Metal>
0.0000

> <Gold.Chemscore.Hbonds>
donor molecule, donor type, donor heavy atom, donor atom, acceptor molecule, acceptor atom, score
      L1  H     6    34       P1  7948  0.78
      L1  H     9    35       P1  7948  0.26
      P1  H 10752 10765       L1     8  1.00
      L1  C    14    38       P1  8028  0.40

> <Gold.PLP.Chemscore.Internal.Correction>
0.3611

> <Gold.Rescore>
     Score         DG    S(hbond)    S(metal)    S(lipo)     H(rot)  DE(clash)    DE(int)     intcor
     11.89     -16.75       1.57        0.00      88.06       1.67       3.16       1.69       ----

> <Gold.Chemscore.Fitness>
11.8939

> <Gold.Chemscore.DG>
-16.7507

> <Gold.Chemscore.ZeroCoef>
-5.4800

> <Gold.Chemscore.Hbond>
1.5726

> <Gold.Chemscore.Metal>
0.0000

> <Gold.Chemscore.Lipo>
88.0640

> <Gold.Chemscore.Internal_Hbond>
0.0000

> <Gold.Chemscore.DEClash>
3.1619

> <Gold.Chemscore.DEInternal>
1.6948

> <Gold.Chemscore.Rot>
1.6739

> <Gold.Chemscore.Internal.Correction>
   9.000000E+99

> <Gold.Chemscore.Hbonds>
donor molecule, donor type, donor heavy atom, donor atom, acceptor molecule, acceptor atom, score
      L1  H     6    34       P1  7948  0.42
      L1  H     9    35       P1  7948  0.25
      P1  H 10752 10765       L1     8  0.52

> <Gold.Chemscore.Hbond.Weighted>
-5.2524

> <Gold.Chemscore.Metal.Weighted>
-0.0000

> <Gold.Chemscore.Lipo.Weighted>
-10.3035

> <Gold.Chemscore.Internal_Hbond.Weighted>
0.0000

> <Gold.Chemscore.DEClash.Weighted>
3.1619

> <Gold.Chemscore.DEInternal.Weighted>
1.6948

> <Gold.Chemscore.Rot.Weighted>
4.2851

> <Gold.Chemscore.Internal.Correction.Weighted>
   9.000000E+99

> <Gold.Protein.RotatedTorsions>
[ 6907 6896 6895 6894 ] final  134.80 input  -60.11 | X-H torsion
[ 7974 7965 7964 7962 ] final -102.42 input  175.53 | X-H torsion
[ 8008 7997 7996 7995 ] final   68.32 input   59.86 | X-H torsion
[ 10167 10162 10161 10158 ] final   22.31 input  -65.29 | X-H torsion
[ 10718 10713 10712 10709 ] final  158.17 input   66.30 | X-H torsion
[ 10763 10752 10751 10750 ] final  169.78 input  -60.55 | X-H torsion
[ 11005 11000 10999 10996 ] final   77.68 input  -57.11 | X-H torsion

> <Gold.Protein.ActiveResidues>
 VAL166  LYS551  ARG553  GLY616  TRP617  ASP618  TYR619  PRO620  LYS621  CYS622 
 ASP623  PHE694  ASN695  SER759  ASP760  ASP761  ALA762  ILE779  LEU786  VAL792 
 PHE793  MET794  SER795  GLU796  ALA797  LYS798  CYS799  TRP800  GLU811  SER814 

> <Gold.Protein.RotatedAtoms>
  152.3073  133.5717  159.5657 H   0  0  0  0  0  0  0  0  0  0  0  0  # atno 6907 bound_to 6896
  150.7306  134.0203  159.3708 H   0  0  0  0  0  0  0  0  0  0  0  0  # atno 6908 bound_to 6896
  151.8099  135.0684  160.0462 H   0  0  0  0  0  0  0  0  0  0  0  0  # atno 6909 bound_to 6896
  145.2690  140.9293  143.2997 H   0  0  0  0  0  0  0  0  0  0  0  0  # atno 7974 bound_to 7965
  155.7065  140.3495  155.4955 H   0  0  0  0  0  0  0  0  0  0  0  0  # atno 8008 bound_to 7997
  155.9394  140.1098  157.1090 H   0  0  0  0  0  0  0  0  0  0  0  0  # atno 8009 bound_to 7997
  154.4100  140.1216  156.4893 H   0  0  0  0  0  0  0  0  0  0  0  0  # atno 8010 bound_to 7997
  140.5359  143.9762  150.6491 H   0  0  0  0  0  0  0  0  0  0  0  0  # atno 10167 bound_to 10162
  157.1815  131.0633  151.2129 H   0  0  0  0  0  0  0  0  0  0  0  0  # atno 10718 bound_to 10713
  154.3880  135.2754  155.2171 H   0  0  0  0  0  0  0  0  0  0  0  0  # atno 10763 bound_to 10752
  154.4250  135.5991  153.6036 H   0  0  0  0  0  0  0  0  0  0  0  0  # atno 10764 bound_to 10752
  152.9832  135.5981  154.4132 H   0  0  0  0  0  0  0  0  0  0  0  0  # atno 10765 bound_to 10752
  139.9244  134.7702  156.1552 H   0  0  0  0  0  0  0  0  0  0  0  0  # atno 11005 bound_to 11000
  144.9351  139.4253  143.6476 LP  0  0  0  0  0  0  0  0  0  0  0  0  # atno 17320 bound_to 7965
  146.3252  139.8283  142.8913 LP  0  0  0  0  0  0  0  0  0  0  0  0  # atno 17321 bound_to 7965
  140.3149  143.3174  152.0842 LP  0  0  0  0  0  0  0  0  0  0  0  0  # atno 17342 bound_to 10162
  139.4970  144.6612  151.6460 LP  0  0  0  0  0  0  0  0  0  0  0  0  # atno 17343 bound_to 10162
  157.3947  130.7301  149.6723 LP  0  0  0  0  0  0  0  0  0  0  0  0  # atno 17370 bound_to 10713
  155.9723  130.4137  150.4094 LP  0  0  0  0  0  0  0  0  0  0  0  0  # atno 17371 bound_to 10713
  141.0791  133.6762  156.2298 LP  0  0  0  0  0  0  0  0  0  0  0  0  # atno 17394 bound_to 11000
  140.6378  134.5197  157.5566 LP  0  0  0  0  0  0  0  0  0  0  0  0  # atno 17395 bound_to 11000

$$$$
