AV-unprocessed.smi:2|AV-procd|sdf|25|dock8
  -GOLD-   2262015133D 1   1.00000     0.00000
 Structure written by MMmdl.
 52 54  0  0  0  0  0  0  0  0  3 V2000
  146.0636  131.3529  151.8316 C   0  0  0  0  0  0  0  0  0  0  0  0
  146.9344  132.4136  152.5194 C   0  0  0  0  0  0  0  0  0  0  0  0
  147.9276  131.7957  153.5093 C   0  0  0  0  0  0  0  0  0  0  0  0
  147.9943  130.5687  153.5773 O   0  0  0  0  0  0  0  0  0  0  0  0
  148.7705  132.7049  154.3417 C   0  0  0  0  0  0  0  0  0  0  0  0
  148.5701  134.1048  154.3734 C   0  0  0  0  0  0  0  0  0  0  0  0
  149.3908  134.9272  155.1690 C   0  0  0  0  0  0  0  0  0  0  0  0
  150.4279  134.3796  155.9489 C   0  0  0  0  0  0  0  0  0  0  0  0
  151.1853  135.2590  156.6924 O   0  0  0  0  0  0  0  0  0  0  0  0
  151.2939  136.6023  156.2402 C   0  0  0  0  0  0  0  0  0  0  0  0
  152.2948  137.3502  157.1349 C   0  0  2  0  0  0  0  0  0  0  0  0
  153.5256  136.6571  157.0972 O   0  0  0  0  0  0  0  0  0  0  0  0
  151.7949  137.4501  158.5955 C   0  0  0  0  0  0  0  0  0  0  0  0
  152.4507  138.5162  159.3613 N   0  0  0  0  0  0  0  0  0  0  0  0
  153.3007  138.3631  160.4219 C   0  0  0  0  0  0  0  0  0  0  0  0
  153.7267  137.1122  161.0347 N   0  3  0  0  0  0  0  0  0  0  0  0
  153.7331  136.0854  160.3674 O   0  0  0  0  0  0  0  0  0  0  0  0
  154.0314  137.1446  162.2231 O   0  5  0  0  0  0  0  0  0  0  0  0
  153.7502  139.5099  160.9302 N   0  0  0  0  0  0  0  0  0  0  0  0
  153.1396  140.4751  160.1558 C   0  0  0  0  0  0  0  0  0  0  0  0
  153.2182  141.9439  160.2734 C   0  0  0  0  0  0  0  0  0  0  0  0
  153.9524  142.4762  161.1071 O   0  0  0  0  0  0  0  0  0  0  0  0
  152.3995  142.6178  159.4078 N   0  0  0  0  0  0  0  0  0  0  0  0
  152.3506  144.0898  159.4993 C   0  0  0  0  0  0  0  0  0  0  0  0
  151.6087  142.0308  158.4374 C   0  0  0  0  0  0  0  0  0  0  0  0
  150.8765  142.7248  157.7253 O   0  0  0  0  0  0  0  0  0  0  0  0
  151.6619  140.6638  158.2776 N   0  0  0  0  0  0  0  0  0  0  0  0
  150.9592  140.0707  157.1304 C   0  0  0  0  0  0  0  0  0  0  0  0
  152.3688  139.9177  159.1851 C   0  0  0  0  0  0  0  0  0  0  0  0
  150.6276  132.9779  155.9235 C   0  0  0  0  0  0  0  0  0  0  0  0
  149.8068  132.1541  155.1293 C   0  0  0  0  0  0  0  0  0  0  0  0
  145.3915  131.8181  151.1106 H   0  0  0  0  0  0  0  0  0  0  0  0
  145.4506  130.8054  152.5477 H   0  0  0  0  0  0  0  0  0  0  0  0
  146.6753  130.6288  151.2921 H   0  0  0  0  0  0  0  0  0  0  0  0
  147.5005  132.9582  151.7630 H   0  0  0  0  0  0  0  0  0  0  0  0
  146.3161  133.1563  153.0226 H   0  0  0  0  0  0  0  0  0  0  0  0
  147.7901  134.5765  153.7958 H   0  0  0  0  0  0  0  0  0  0  0  0
  149.2224  135.9942  155.1780 H   0  0  0  0  0  0  0  0  0  0  0  0
  151.6668  136.5867  155.2149 H   0  0  0  0  0  0  0  0  0  0  0  0
  150.3268  137.1084  156.2363 H   0  0  0  0  0  0  0  0  0  0  0  0
  152.4650  138.3491  156.7348 H   0  0  0  0  0  0  0  0  0  0  0  0
  153.8850  136.6333  157.9711 H   0  0  0  0  0  0  0  0  0  0  0  0
  150.7202  137.5890  158.6310 H   0  0  0  0  0  0  0  0  0  0  0  0
  151.9099  136.4967  159.1037 H   0  0  0  0  0  0  0  0  0  0  0  0
  152.6930  144.5385  158.5654 H   0  0  0  0  0  0  0  0  0  0  0  0
  152.9587  144.5223  160.2946 H   0  0  0  0  0  0  0  0  0  0  0  0
  151.3289  144.4283  159.6791 H   0  0  0  0  0  0  0  0  0  0  0  0
  149.9900  139.6774  157.4372 H   0  0  0  0  0  0  0  0  0  0  0  0
  151.5431  139.2831  156.6652 H   0  0  0  0  0  0  0  0  0  0  0  0
  150.7724  140.7747  156.3184 H   0  0  0  0  0  0  0  0  0  0  0  0
  151.4049  132.5068  156.5056 H   0  0  0  0  0  0  0  0  0  0  0  0
  149.9877  131.0888  155.1326 H   0  0  0  0  0  0  0  0  0  0  0  0
  1  2  1  0  0  0  0
  1 32  1  0  0  0  0
  1 33  1  0  0  0  0
  1 34  1  0  0  0  0
  2  3  1  0  0  0  0
  2 35  1  0  0  0  0
  2 36  1  0  0  0  0
  3  4  2  0  0  0  0
  3  5  1  0  0  0  0
  5 31  1  0  0  0  0
  5  6  2  0  0  0  0
  6  7  1  0  0  0  0
  6 37  1  0  0  0  0
  7  8  2  0  0  0  0
  7 38  1  0  0  0  0
  8  9  1  0  0  0  0
  8 30  1  0  0  0  0
  9 10  1  0  0  0  0
 10 11  1  0  0  0  0
 10 39  1  0  0  0  0
 10 40  1  0  0  0  0
 11 12  1  0  0  0  0
 11 13  1  0  0  0  0
 11 41  1  0  0  0  0
 12 42  1  0  0  0  0
 13 14  1  0  0  0  0
 13 43  1  0  0  0  0
 13 44  1  0  0  0  0
 14 29  1  0  0  0  0
 14 15  1  0  0  0  0
 15 16  1  0  0  0  0
 15 19  2  0  0  0  0
 16 17  2  0  0  0  0
 16 18  1  0  0  0  0
 19 20  1  0  0  0  0
 20 29  2  0  0  0  0
 20 21  1  0  0  0  0
 21 22  2  0  0  0  0
 21 23  1  0  0  0  0
 23 24  1  0  0  0  0
 23 25  1  0  0  0  0
 24 45  1  0  0  0  0
 24 46  1  0  0  0  0
 24 47  1  0  0  0  0
 25 26  2  0  0  0  0
 25 27  1  0  0  0  0
 27 28  1  0  0  0  0
 27 29  1  0  0  0  0
 28 48  1  0  0  0  0
 28 49  1  0  0  0  0
 28 50  1  0  0  0  0
 30 31  2  0  0  0  0
 30 51  1  0  0  0  0
 31 52  1  0  0  0  0
M  CHG  1  16   1
M  CHG  1  18  -1
M  END
> <s_m_source_file>
AV-unprocessed.smi

> <i_m_source_file_index>
2

> <i_lp_mmshare_version>
43012

> <i_f3d_flags>
0

> <s_epik_input>
W0NIM11bQ0gyXUMoPU8pYzFbY0hdW2NIXWMoW2NIXVtjSF0xKU9bQ0gyXVtDQEhdKFtPSF0pW0NIMl1uKGMobjIpW04rXSg9TylbTy1dKWMoYzIzKW4oW0NIM10pYyg9TyluKGMzPU8pW0NIM10=

> <s_epik_cmdline>
J2VwaWtfcHl0aG9uJywgJy1waCcsICc3LjAnLCAnLXRuJywgJzgnLCAnLW1hJywgJzIwMCcsICctbWV0YWxfYmluZGluZycsICctaW1hZScsICc8aW5maWxlLm1hZT4nLCAnLW9tYWUnLCAnPG91dGZpbGUubWFlPic=

> <r_lp_tautomer_probability>
1

> <r_epik_Ionization_Penalty>
1.02275e-06

> <r_epik_Ionization_Penalty_Charging>
4.46226e-11

> <r_epik_Ionization_Penalty_Neutral>
1.02271e-06

> <r_epik_State_Penalty>
-0

> <r_epik_Charging_Adjusted_Penalty>
4.46226e-11

> <i_epik_Tot_Q>
0

> <i_epik_Tot_abs_Q>
2

> <r_epik_Metal_State_Penalty>
-0

> <b_epik_Metal_Only>
0

> <s_lp_Force_Field>
OPLS_2005

> <r_lp_Energy>
60.0216

> <b_lp_Chiralities_Consistent>
1

> <s_lp_Variant>
AV-unprocessed.smi:2-1

> <Gold.Version>
5.8.1

> <Gold.Id.Protein>
6NUR|6NUR_protein|mol2

> <Gold.PLP.Fitness>
54.1680

> <Gold.PLP.PLP>
-49.6355

> <Gold.PLP.part.hbond>
-3.0919

> <Gold.PLP.part.metal>
0.0000

> <Gold.PLP.part.buried>
-3.8956

> <Gold.PLP.part.nonpolar>
-42.3794

> <Gold.PLP.part.repulsive>
0.3997

> <Gold.PLP.ligand.clash>
0.0000

> <Gold.PLP.ligand.torsion>
0.9601

> <Gold.PLP.Chemscore.Hbond>
2.0000

> <Gold.PLP.Chemscore.CHOScore>
0.0000

> <Gold.PLP.Chemscore.Metal>
0.0000

> <Gold.Chemscore.Hbonds>
donor molecule, donor type, donor heavy atom, donor atom, acceptor molecule, acceptor atom, score
      P1  H  6896  6907       L1    17  1.00
      P1  H 10752 10764       L1    12  0.64

> <Gold.PLP.Chemscore.Internal.Correction>
0.4526

> <Gold.Rescore>
     Score         DG    S(hbond)    S(metal)    S(lipo)     H(rot)  DE(clash)    DE(int)     intcor
     11.16     -13.44       1.92        0.00      82.25       3.16       0.14       2.14       ----

> <Gold.Chemscore.Fitness>
11.1571

> <Gold.Chemscore.DG>
-13.4380

> <Gold.Chemscore.ZeroCoef>
-5.4800

> <Gold.Chemscore.Hbond>
1.9234

> <Gold.Chemscore.Metal>
0.0000

> <Gold.Chemscore.Lipo>
82.2456

> <Gold.Chemscore.Internal_Hbond>
0.0000

> <Gold.Chemscore.DEClash>
0.1364

> <Gold.Chemscore.DEInternal>
2.1445

> <Gold.Chemscore.Rot>
3.1597

> <Gold.Chemscore.Internal.Correction>
   9.000000E+99

> <Gold.Chemscore.Hbonds>
donor molecule, donor type, donor heavy atom, donor atom, acceptor molecule, acceptor atom, score
      P1  H  6896  6907       L1    17  1.00
      P1  H 10752 10764       L1    12  0.57

> <Gold.Chemscore.Hbond.Weighted>
-6.4241

> <Gold.Chemscore.Metal.Weighted>
-0.0000

> <Gold.Chemscore.Lipo.Weighted>
-9.6227

> <Gold.Chemscore.Internal_Hbond.Weighted>
0.0000

> <Gold.Chemscore.DEClash.Weighted>
0.1364

> <Gold.Chemscore.DEInternal.Weighted>
2.1445

> <Gold.Chemscore.Rot.Weighted>
8.0888

> <Gold.Chemscore.Internal.Correction.Weighted>
   9.000000E+99

> <Gold.Protein.RotatedTorsions>
[ 6907 6896 6895 6894 ] final   56.30 input  -60.11 | X-H torsion
[ 7974 7965 7964 7962 ] final -166.85 input  175.53 | X-H torsion
[ 8008 7997 7996 7995 ] final  153.21 input   59.86 | X-H torsion
[ 10167 10162 10161 10158 ] final  -12.64 input  -65.29 | X-H torsion
[ 10718 10713 10712 10709 ] final  -11.81 input   66.30 | X-H torsion
[ 10763 10752 10751 10750 ] final   18.77 input  -60.55 | X-H torsion
[ 11005 11000 10999 10996 ] final   68.39 input  -57.11 | X-H torsion

> <Gold.Protein.ActiveResidues>
 VAL166  LYS551  ARG553  GLY616  TRP617  ASP618  TYR619  PRO620  LYS621  CYS622 
 ASP623  PHE694  ASN695  SER759  ASP760  ASP761  ALA762  ILE779  LEU786  VAL792 
 PHE793  MET794  SER795  GLU796  ALA797  LYS798  CYS799  TRP800  GLU811  SER814 

> <Gold.Protein.RotatedAtoms>
  152.3622  134.6855  160.0203 H   0  0  0  0  0  0  0  0  0  0  0  0  # atno 6907 bound_to 6896
  151.7175  133.3308  159.3314 H   0  0  0  0  0  0  0  0  0  0  0  0  # atno 6908 bound_to 6896
  150.7613  134.6412  159.6282 H   0  0  0  0  0  0  0  0  0  0  0  0  # atno 6909 bound_to 6896
  144.7236  140.2606  143.6265 H   0  0  0  0  0  0  0  0  0  0  0  0  # atno 7974 bound_to 7965
  156.2592  140.2000  156.6454 H   0  0  0  0  0  0  0  0  0  0  0  0  # atno 8008 bound_to 7997
  154.6577  140.0564  157.0052 H   0  0  0  0  0  0  0  0  0  0  0  0  # atno 8009 bound_to 7997
  155.1323  140.3235  155.4474 H   0  0  0  0  0  0  0  0  0  0  0  0  # atno 8010 bound_to 7997
  140.7165  143.5510  150.9301 H   0  0  0  0  0  0  0  0  0  0  0  0  # atno 10167 bound_to 10162
  156.6536  130.4962  149.6054 H   0  0  0  0  0  0  0  0  0  0  0  0  # atno 10718 bound_to 10713
  153.1220  135.6721  153.9320 H   0  0  0  0  0  0  0  0  0  0  0  0  # atno 10763 bound_to 10752
  153.8833  135.3055  155.3447 H   0  0  0  0  0  0  0  0  0  0  0  0  # atno 10764 bound_to 10752
  154.7630  135.4978  153.9580 H   0  0  0  0  0  0  0  0  0  0  0  0  # atno 10765 bound_to 10752
  139.9714  134.6894  156.0440 H   0  0  0  0  0  0  0  0  0  0  0  0  # atno 11005 bound_to 11000
  145.8140  139.2015  143.1976 LP  0  0  0  0  0  0  0  0  0  0  0  0  # atno 17320 bound_to 7965
  146.0572  140.8009  142.9753 LP  0  0  0  0  0  0  0  0  0  0  0  0  # atno 17321 bound_to 7965
  139.9235  143.6578  152.3092 LP  0  0  0  0  0  0  0  0  0  0  0  0  # atno 17342 bound_to 10162
  139.7003  144.7636  151.1284 LP  0  0  0  0  0  0  0  0  0  0  0  0  # atno 17343 bound_to 10162
  156.2065  130.6652  151.1224 LP  0  0  0  0  0  0  0  0  0  0  0  0  # atno 17370 bound_to 10713
  157.7133  131.0723  150.6422 LP  0  0  0  0  0  0  0  0  0  0  0  0  # atno 17371 bound_to 10713
  141.1393  133.6568  156.3684 LP  0  0  0  0  0  0  0  0  0  0  0  0  # atno 17394 bound_to 11000
  140.5286  134.6235  157.5342 LP  0  0  0  0  0  0  0  0  0  0  0  0  # atno 17395 bound_to 11000

$$$$
