AV-unprocessed.smi:873|AV-procd|sdf|4014|dock3
  -GOLD-   22720 1503D 1   1.00000     0.00000
 Structure written by MMmdl.
 46 49  0  0  0  0  0  0  0  0  2 V2000
  148.7709  135.0543  156.1776 O   0  0  0  0  0  0  0  0  0  0  0  0
  148.7998  135.3717  154.9890 C   0  0  0  0  0  0  0  0  0  0  0  0
  149.2655  136.5372  154.5090 N   0  0  0  0  0  0  0  0  0  0  0  0
  149.8741  137.6054  155.2216 C   0  0  0  0  0  0  0  0  0  0  0  0
  150.2146  138.7844  154.5257 C   0  0  0  0  0  0  0  0  0  0  0  0
  150.8136  139.8293  155.1356 N   0  0  0  0  0  0  0  0  0  0  0  0
  151.0908  139.6902  156.4350 C   0  0  0  0  0  0  0  0  0  0  0  0
  151.7249  140.8619  157.1178 C   0  0  0  0  0  0  0  0  0  0  0  0
  151.0816  141.4957  158.3344 C   0  0  0  0  0  0  0  0  0  0  0  0
  151.1001  142.2393  157.0284 C   0  0  0  0  0  0  0  0  0  0  0  0
  150.8163  138.6291  157.1984 N   0  0  0  0  0  0  0  0  0  0  0  0
  150.2134  137.5805  156.5973 C   0  0  0  0  0  0  0  0  0  0  0  0
  148.3425  134.5897  153.9999 N   0  0  0  0  0  0  0  0  0  0  0  0
  147.7572  133.2609  154.1635 C   0  0  2  0  0  0  0  0  0  0  0  0
  148.8680  132.2166  154.3624 C   0  0  0  0  0  0  0  0  0  0  0  0
  148.2839  130.7960  154.4354 C   0  0  0  0  0  0  0  0  0  0  0  0
  147.4854  130.4846  153.2235 N   0  3  1  0  0  0  0  0  0  0  0  0
  147.0054  129.0854  153.2183 C   0  0  0  0  0  0  0  0  0  0  0  0
  145.8081  128.8581  152.3249 C   0  0  0  0  0  0  0  0  0  0  0  0
  145.6333  128.9096  153.8265 C   0  0  0  0  0  0  0  0  0  0  0  0
  146.3804  131.4563  153.0272 C   0  0  0  0  0  0  0  0  0  0  0  0
  146.9175  132.8947  152.9279 C   0  0  0  0  0  0  0  0  0  0  0  0
  149.1454  136.6920  153.5188 H   0  0  0  0  0  0  0  0  0  0  0  0
  150.0035  138.8935  153.4719 H   0  0  0  0  0  0  0  0  0  0  0  0
  152.8108  140.7951  157.0919 H   0  0  0  0  0  0  0  0  0  0  0  0
  150.1254  141.0987  158.6698 H   0  0  0  0  0  0  0  0  0  0  0  0
  151.7425  141.8481  159.1236 H   0  0  0  0  0  0  0  0  0  0  0  0
  151.7722  143.0907  156.9443 H   0  0  0  0  0  0  0  0  0  0  0  0
  150.1567  142.3353  156.4942 H   0  0  0  0  0  0  0  0  0  0  0  0
  150.0305  136.7264  157.2301 H   0  0  0  0  0  0  0  0  0  0  0  0
  148.4062  134.9435  153.0564 H   0  0  0  0  0  0  0  0  0  0  0  0
  147.1075  133.2348  155.0402 H   0  0  0  0  0  0  0  0  0  0  0  0
  149.5833  132.2720  153.5401 H   0  0  0  0  0  0  0  0  0  0  0  0
  149.4266  132.4325  155.2740 H   0  0  0  0  0  0  0  0  0  0  0  0
  149.0954  130.0742  154.5352 H   0  0  0  0  0  0  0  0  0  0  0  0
  147.6569  130.6920  155.3225 H   0  0  0  0  0  0  0  0  0  0  0  0
  147.7640  128.3126  153.3312 H   0  0  0  0  0  0  0  0  0  0  0  0
  145.4292  129.6985  151.7458 H   0  0  0  0  0  0  0  0  0  0  0  0
  145.7185  127.8857  151.8446 H   0  0  0  0  0  0  0  0  0  0  0  0
  145.4259  127.9707  154.3359 H   0  0  0  0  0  0  0  0  0  0  0  0
  145.1381  129.7841  154.2449 H   0  0  0  0  0  0  0  0  0  0  0  0
  145.8331  131.2086  152.1168 H   0  0  0  0  0  0  0  0  0  0  0  0
  145.6719  131.3760  153.8534 H   0  0  0  0  0  0  0  0  0  0  0  0
  146.0857  133.5920  152.8207 H   0  0  0  0  0  0  0  0  0  0  0  0
  147.5221  132.9936  152.0249 H   0  0  0  0  0  0  0  0  0  0  0  0
  148.1049  130.5809  152.4316 H   0  0  0  0  0  0  0  0  0  0  0  0
  1  2  2  0  0  0  0
  2  3  1  0  0  0  0
  2 13  1  0  0  0  0
  3  4  1  0  0  0  0
  3 23  1  0  0  0  0
  4 12  1  0  0  0  0
  4  5  2  0  0  0  0
  5  6  1  0  0  0  0
  5 24  1  0  0  0  0
  6  7  2  0  0  0  0
  7  8  1  0  0  0  0
  7 11  1  0  0  0  0
  8 10  1  0  0  0  0
  8  9  1  0  0  0  0
  8 25  1  0  0  0  0
  9 10  1  0  0  0  0
  9 26  1  0  0  0  0
  9 27  1  0  0  0  0
 10 28  1  0  0  0  0
 10 29  1  0  0  0  0
 11 12  2  0  0  0  0
 12 30  1  0  0  0  0
 13 14  1  0  0  0  0
 13 31  1  0  0  0  0
 14 22  1  0  0  0  0
 14 15  1  0  0  0  0
 14 32  1  0  0  0  0
 15 16  1  0  0  0  0
 15 33  1  0  0  0  0
 15 34  1  0  0  0  0
 16 17  1  0  0  0  0
 16 35  1  0  0  0  0
 16 36  1  0  0  0  0
 17 18  1  0  0  0  0
 17 21  1  0  0  0  0
 17 46  1  0  0  0  0
 18 20  1  0  0  0  0
 18 19  1  0  0  0  0
 18 37  1  0  0  0  0
 19 20  1  0  0  0  0
 19 38  1  0  0  0  0
 19 39  1  0  0  0  0
 20 40  1  0  0  0  0
 20 41  1  0  0  0  0
 21 22  1  0  0  0  0
 21 42  1  0  0  0  0
 21 43  1  0  0  0  0
 22 44  1  0  0  0  0
 22 45  1  0  0  0  0
M  CHG  1  17   1
M  END
> <s_m_source_file>
AV-unprocessed.smi

> <i_m_source_file_index>
873

> <i_lp_mmshare_version>
43012

> <i_f3d_flags>
0

> <s_epik_input>
W0NIMl0xW0NIMl1bQ0hdMU4oW0NIMl1bQ0gyXTIpW0NIMl1bQ0gyXVtDSF0yW05IXUMoPU8pW05IXWMzW2NIXW5jKG5bY0hdMylbQ0hdNFtDSDJdW0NIMl00

> <s_epik_cmdline>
J2VwaWtfcHl0aG9uJywgJy1waCcsICc3LjAnLCAnLXRuJywgJzgnLCAnLW1hJywgJzIwMCcsICctbWV0YWxfYmluZGluZycsICctaW1hZScsICc8aW5maWxlLm1hZT4nLCAnLW9tYWUnLCAnPG91dGZpbGUubWFlPic=

> <r_lp_tautomer_probability>
1

> <r_epik_Ionization_Penalty>
0.123264

> <r_epik_Ionization_Penalty_Charging>
0.123242

> <r_epik_Ionization_Penalty_Neutral>
2.24743e-05

> <r_epik_State_Penalty>
0.112739

> <r_epik_Charging_Adjusted_Penalty>
0.235981

> <i_epik_Tot_Q>
1

> <i_epik_Tot_abs_Q>
1

> <r_epik_Metal_State_Penalty>
0.112739

> <b_epik_Metal_Only>
0

> <s_lp_Force_Field>
OPLS_2005

> <r_lp_Energy>
28.2326

> <b_lp_Chiralities_Consistent>
1

> <s_lp_Variant>
AV-unprocessed.smi:873-1

> <Gold.Version>
5.8.1

> <Gold.Id.Protein>
6NUR|6NUR_protein|mol2

> <Gold.PLP.Fitness>
49.0530

> <Gold.PLP.PLP>
-34.6106

> <Gold.PLP.part.hbond>
-4.0000

> <Gold.PLP.part.metal>
0.0000

> <Gold.PLP.part.buried>
-4.0401

> <Gold.PLP.part.nonpolar>
-26.3855

> <Gold.PLP.part.repulsive>
0.1208

> <Gold.PLP.ligand.clash>
0.0000

> <Gold.PLP.ligand.torsion>
0.9683

> <Gold.PLP.Chemscore.Hbond>
4.0000

> <Gold.PLP.Chemscore.CHOScore>
0.9975

> <Gold.PLP.Chemscore.Metal>
0.0000

> <Gold.Chemscore.Hbonds>
donor molecule, donor type, donor heavy atom, donor atom, acceptor molecule, acceptor atom, score
      L1  H     3    23       P1  7948  1.00
      L1  H    13    31       P1  7948  1.00
      L1  H    17    46       P1 10747  0.28
      P1  H  7989  7998       L1     6  0.81
      L1  C     5    24       P1  7957  0.83

> <Gold.PLP.Chemscore.Internal.Correction>
1.3863

> <Gold.Rescore>
     Score         DG    S(hbond)    S(metal)    S(lipo)     H(rot)  DE(clash)    DE(int)     intcor
     19.00     -21.28       2.93        0.00      81.06       1.36       0.02       2.26       ----

> <Gold.Chemscore.Fitness>
18.9977

> <Gold.Chemscore.DG>
-21.2780

> <Gold.Chemscore.ZeroCoef>
-5.4800

> <Gold.Chemscore.Hbond>
2.9306

> <Gold.Chemscore.Metal>
0.0000

> <Gold.Chemscore.Lipo>
81.0606

> <Gold.Chemscore.Internal_Hbond>
0.0000

> <Gold.Chemscore.DEClash>
0.0211

> <Gold.Chemscore.DEInternal>
2.2591

> <Gold.Chemscore.Rot>
1.3571

> <Gold.Chemscore.Internal.Correction>
   9.000000E+99

> <Gold.Chemscore.Hbonds>
donor molecule, donor type, donor heavy atom, donor atom, acceptor molecule, acceptor atom, score
      L1  H     3    23       P1  7948  0.97
      L1  H    13    31       P1  7948  0.71
      L1  H    17    46       P1 10747  0.26
      P1  H  7989  7998       L1     6  0.28

> <Gold.Chemscore.Hbond.Weighted>
-9.7881

> <Gold.Chemscore.Metal.Weighted>
-0.0000

> <Gold.Chemscore.Lipo.Weighted>
-9.4841

> <Gold.Chemscore.Internal_Hbond.Weighted>
0.0000

> <Gold.Chemscore.DEClash.Weighted>
0.0211

> <Gold.Chemscore.DEInternal.Weighted>
2.2591

> <Gold.Chemscore.Rot.Weighted>
3.4742

> <Gold.Chemscore.Internal.Correction.Weighted>
   9.000000E+99

> <Gold.Protein.RotatedTorsions>
[ 6907 6896 6895 6894 ] final  -12.89 input  -60.11 | X-H torsion
[ 7974 7965 7964 7962 ] final -175.23 input  175.53 | X-H torsion
[ 8008 7997 7996 7995 ] final -120.58 input   59.86 | X-H torsion
[ 10167 10162 10161 10158 ] final  149.87 input  -65.29 | X-H torsion
[ 10718 10713 10712 10709 ] final -130.17 input   66.30 | X-H torsion
[ 10763 10752 10751 10750 ] final  154.89 input  -60.55 | X-H torsion
[ 11005 11000 10999 10996 ] final -110.43 input  -57.11 | X-H torsion

> <Gold.Protein.ActiveResidues>
 VAL166  LYS551  ARG553  GLY616  TRP617  ASP618  TYR619  PRO620  LYS621  CYS622 
 ASP623  PHE694  ASN695  SER759  ASP760  ASP761  ALA762  ILE779  LEU786  VAL792 
 PHE793  MET794  SER795  GLU796  ALA797  LYS798  CYS799  TRP800  GLU811  SER814 

> <Gold.Protein.RotatedAtoms>
  151.3635  135.0908  159.9441 H   0  0  0  0  0  0  0  0  0  0  0  0  # atno 6907 bound_to 6896
  152.5155  133.9235  159.7556 H   0  0  0  0  0  0  0  0  0  0  0  0  # atno 6908 bound_to 6896
  150.9634  133.6366  159.2779 H   0  0  0  0  0  0  0  0  0  0  0  0  # atno 6909 bound_to 6896
  144.7129  140.1351  143.6396 H   0  0  0  0  0  0  0  0  0  0  0  0  # atno 7974 bound_to 7965
  155.1341  140.0400  157.2782 H   0  0  0  0  0  0  0  0  0  0  0  0  # atno 8008 bound_to 7997
  154.6521  140.2571  155.7176 H   0  0  0  0  0  0  0  0  0  0  0  0  # atno 8009 bound_to 7997
  156.2582  140.2834  156.0959 H   0  0  0  0  0  0  0  0  0  0  0  0  # atno 8010 bound_to 7997
  139.4856  144.5567  151.7304 H   0  0  0  0  0  0  0  0  0  0  0  0  # atno 10167 bound_to 10162
  156.2118  130.6923  151.0658 H   0  0  0  0  0  0  0  0  0  0  0  0  # atno 10718 bound_to 10713
  154.1595  135.2810  155.3112 H   0  0  0  0  0  0  0  0  0  0  0  0  # atno 10763 bound_to 10752
  154.6157  135.5484  153.7524 H   0  0  0  0  0  0  0  0  0  0  0  0  # atno 10764 bound_to 10752
  153.0196  135.6426  154.1738 H   0  0  0  0  0  0  0  0  0  0  0  0  # atno 10765 bound_to 10752
  141.0792  133.9248  157.2324 H   0  0  0  0  0  0  0  0  0  0  0  0  # atno 11005 bound_to 11000
  145.9252  139.2570  143.1358 LP  0  0  0  0  0  0  0  0  0  0  0  0  # atno 17320 bound_to 7965
  145.9580  140.8858  143.0225 LP  0  0  0  0  0  0  0  0  0  0  0  0  # atno 17321 bound_to 7965
  140.5130  144.0996  150.6000 LP  0  0  0  0  0  0  0  0  0  0  0  0  # atno 17342 bound_to 10162
  140.3928  143.2744  152.0040 LP  0  0  0  0  0  0  0  0  0  0  0  0  # atno 17343 bound_to 10162
  157.7042  131.0763  150.6721 LP  0  0  0  0  0  0  0  0  0  0  0  0  # atno 17370 bound_to 10713
  156.6780  130.4559  149.5636 LP  0  0  0  0  0  0  0  0  0  0  0  0  # atno 17371 bound_to 10713
  139.9605  135.0155  156.9248 LP  0  0  0  0  0  0  0  0  0  0  0  0  # atno 17394 bound_to 11000
  140.5505  134.0631  155.7368 LP  0  0  0  0  0  0  0  0  0  0  0  0  # atno 17395 bound_to 11000

$$$$
