AV-unprocessed.smi:2038|AV-procd|sdf|8280|dock10
  -GOLD-   2272010553D 1   1.00000     0.00000
 Structure written by MMmdl.
 33 34  0  0  0  0  0  0  0  0  1 V2000
  149.8531  134.9377  156.3930 O   0  0  0  0  0  0  0  0  0  0  0  0
  149.6720  135.0157  155.1776 C   0  0  0  0  0  0  0  0  0  0  0  0
  149.7794  136.1501  154.4618 N   0  0  0  0  0  0  0  0  0  0  0  0
  150.1306  137.4499  154.9161 C   0  0  0  0  0  0  0  0  0  0  0  0
  149.7628  137.8176  156.2258 C   0  0  0  0  0  0  0  0  0  0  0  0
  150.0815  139.1070  156.6922 C   0  0  0  0  0  0  0  0  0  0  0  0
  150.7501  139.9958  155.8274 C   0  0  0  0  0  0  0  0  0  0  0  0
  151.0605  141.2578  156.2896 O   0  0  0  0  0  0  0  0  0  0  0  0
  150.3613  141.7563  157.4273 C   0  0  0  0  0  0  0  0  0  0  0  0
  151.1853  142.8734  158.0781 C   0  0  0  0  0  0  0  0  0  0  0  0
  151.7067  143.6475  157.1270 F   0  0  0  0  0  0  0  0  0  0  0  0
  150.4093  143.6222  158.8612 F   0  0  0  0  0  0  0  0  0  0  0  0
  152.1791  142.3534  158.7981 F   0  0  0  0  0  0  0  0  0  0  0  0
  151.0936  139.6579  154.5599 N   0  0  0  0  0  0  0  0  0  0  0  0
  150.7874  138.4189  154.1191 C   0  0  0  0  0  0  0  0  0  0  0  0
  149.2855  133.7619  154.3842 C   0  0  2  0  0  0  0  0  0  0  0  0
  147.8868  133.8368  153.7436 C   0  0  0  0  0  0  0  0  0  0  0  0
  147.0652  132.8585  154.5594 C   0  0  0  0  0  0  0  0  0  0  0  0
  148.1196  131.8469  154.9840 C   0  0  0  0  0  0  0  0  0  0  0  0
  149.2410  132.6607  155.2903 O   0  0  0  0  0  0  0  0  0  0  0  0
  149.5198  136.0842  153.4882 H   0  0  0  0  0  0  0  0  0  0  0  0
  149.2471  137.1207  156.8703 H   0  0  0  0  0  0  0  0  0  0  0  0
  149.8167  139.4094  157.6946 H   0  0  0  0  0  0  0  0  0  0  0  0
  149.3858  142.1461  157.1311 H   0  0  0  0  0  0  0  0  0  0  0  0
  150.1956  140.9547  158.1493 H   0  0  0  0  0  0  0  0  0  0  0  0
  151.0624  138.2238  153.0943 H   0  0  0  0  0  0  0  0  0  0  0  0
  150.0307  133.5572  153.6134 H   0  0  0  0  0  0  0  0  0  0  0  0
  147.4488  134.8362  153.7415 H   0  0  0  0  0  0  0  0  0  0  0  0
  147.9407  133.5039  152.7063 H   0  0  0  0  0  0  0  0  0  0  0  0
  146.6506  133.3565  155.4369 H   0  0  0  0  0  0  0  0  0  0  0  0
  146.2450  132.4123  153.9965 H   0  0  0  0  0  0  0  0  0  0  0  0
  147.8106  131.2480  155.8411 H   0  0  0  0  0  0  0  0  0  0  0  0
  148.3689  131.1746  154.1617 H   0  0  0  0  0  0  0  0  0  0  0  0
  1  2  2  0  0  0  0
  2  3  1  0  0  0  0
  2 16  1  0  0  0  0
  3  4  1  0  0  0  0
  3 21  1  0  0  0  0
  4 15  1  0  0  0  0
  4  5  2  0  0  0  0
  5  6  1  0  0  0  0
  5 22  1  0  0  0  0
  6  7  2  0  0  0  0
  6 23  1  0  0  0  0
  7  8  1  0  0  0  0
  7 14  1  0  0  0  0
  8  9  1  0  0  0  0
  9 10  1  0  0  0  0
  9 24  1  0  0  0  0
  9 25  1  0  0  0  0
 10 11  1  0  0  0  0
 10 12  1  0  0  0  0
 10 13  1  0  0  0  0
 14 15  2  0  0  0  0
 15 26  1  0  0  0  0
 16 20  1  0  0  0  0
 16 17  1  0  0  0  0
 16 27  1  0  0  0  0
 17 18  1  0  0  0  0
 17 28  1  0  0  0  0
 17 29  1  0  0  0  0
 18 19  1  0  0  0  0
 18 30  1  0  0  0  0
 18 31  1  0  0  0  0
 19 20  1  0  0  0  0
 19 32  1  0  0  0  0
 19 33  1  0  0  0  0
M  END
> <s_m_source_file>
AV-unprocessed.smi

> <i_m_source_file_index>
2038

> <i_lp_mmshare_version>
43012

> <i_f3d_flags>
0

> <s_epik_input>
TzFbQ0gyXVtDSDJdW0NIMl1bQ0BIXTFDKD1PKVtOSF1jMltjSF1bY0hdYyhuW2NIXTIpT1tDSDJdQyhGKShGKUY=

> <s_epik_cmdline>
J2VwaWtfcHl0aG9uJywgJy1waCcsICc3LjAnLCAnLXRuJywgJzgnLCAnLW1hJywgJzIwMCcsICctbWV0YWxfYmluZGluZycsICctaW1hZScsICc8aW5maWxlLm1hZT4nLCAnLW9tYWUnLCAnPG91dGZpbGUubWFlPic=

> <r_lp_tautomer_probability>
1

> <r_epik_Ionization_Penalty>
2.73305e-06

> <r_epik_Ionization_Penalty_Charging>
0

> <r_epik_Ionization_Penalty_Neutral>
2.73305e-06

> <r_epik_State_Penalty>
-0

> <r_epik_Charging_Adjusted_Penalty>
0

> <i_epik_Tot_Q>
0

> <i_epik_Tot_abs_Q>
0

> <r_epik_Metal_State_Penalty>
-0

> <b_epik_Metal_Only>
0

> <s_lp_Force_Field>
OPLS_2005

> <r_lp_Energy>
22.8429

> <b_lp_Chiralities_Consistent>
1

> <s_lp_Variant>
AV-unprocessed.smi:2038-1

> <Gold.Version>
5.8.1

> <Gold.Id.Protein>
6NUR|6NUR_protein|mol2

> <Gold.PLP.Fitness>
35.3075

> <Gold.PLP.PLP>
-29.7156

> <Gold.PLP.part.hbond>
-2.7390

> <Gold.PLP.part.metal>
0.0000

> <Gold.PLP.part.buried>
-5.2188

> <Gold.PLP.part.nonpolar>
-22.4217

> <Gold.PLP.part.repulsive>
0.2067

> <Gold.PLP.ligand.clash>
0.0000

> <Gold.PLP.ligand.torsion>
0.8300

> <Gold.PLP.Chemscore.Hbond>
1.9500

> <Gold.PLP.Chemscore.CHOScore>
0.4604

> <Gold.PLP.Chemscore.Metal>
0.0000

> <Gold.Chemscore.Hbonds>
donor molecule, donor type, donor heavy atom, donor atom, acceptor molecule, acceptor atom, score
      L1  H     3    21       P1  7948  1.00
      P1  H  7989  7998       L1    14  1.00
      L1  C    15    26       P1  7949  0.46

> <Gold.PLP.Chemscore.Internal.Correction>
0.0208

> <Gold.Rescore>
     Score         DG    S(hbond)    S(metal)    S(lipo)     H(rot)  DE(clash)    DE(int)     intcor
     11.02     -13.28       1.90        0.00      49.62       1.69       0.20       2.07       ----

> <Gold.Chemscore.Fitness>
11.0186

> <Gold.Chemscore.DG>
-13.2838

> <Gold.Chemscore.ZeroCoef>
-5.4800

> <Gold.Chemscore.Hbond>
1.8952

> <Gold.Chemscore.Metal>
0.0000

> <Gold.Chemscore.Lipo>
49.6168

> <Gold.Chemscore.Internal_Hbond>
0.0000

> <Gold.Chemscore.DEClash>
0.1954

> <Gold.Chemscore.DEInternal>
2.0699

> <Gold.Chemscore.Rot>
1.6919

> <Gold.Chemscore.Internal.Correction>
   9.000000E+99

> <Gold.Chemscore.Hbonds>
donor molecule, donor type, donor heavy atom, donor atom, acceptor molecule, acceptor atom, score
      L1  H     3    21       P1  7948  0.45
      P1  H  7989  7998       L1    14  0.96

> <Gold.Chemscore.Hbond.Weighted>
-6.3300

> <Gold.Chemscore.Metal.Weighted>
-0.0000

> <Gold.Chemscore.Lipo.Weighted>
-5.8052

> <Gold.Chemscore.Internal_Hbond.Weighted>
0.0000

> <Gold.Chemscore.DEClash.Weighted>
0.1954

> <Gold.Chemscore.DEInternal.Weighted>
2.0699

> <Gold.Chemscore.Rot.Weighted>
4.3313

> <Gold.Chemscore.Internal.Correction.Weighted>
   9.000000E+99

> <Gold.Protein.RotatedTorsions>
[ 6907 6896 6895 6894 ] final  -70.18 input  -60.11 | X-H torsion
[ 7974 7965 7964 7962 ] final   57.20 input  175.53 | X-H torsion
[ 8008 7997 7996 7995 ] final -100.19 input   59.86 | X-H torsion
[ 10167 10162 10161 10158 ] final  157.06 input  -65.29 | X-H torsion
[ 10718 10713 10712 10709 ] final   36.40 input   66.30 | X-H torsion
[ 10763 10752 10751 10750 ] final   53.45 input  -60.55 | X-H torsion
[ 11005 11000 10999 10996 ] final -163.63 input  -57.11 | X-H torsion

> <Gold.Protein.ActiveResidues>
 VAL166  LYS551  ARG553  GLY616  TRP617  ASP618  TYR619  PRO620  LYS621  CYS622 
 ASP623  PHE694  ASN695  SER759  ASP760  ASP761  ALA762  ILE779  LEU786  VAL792 
 PHE793  MET794  SER795  GLU796  ALA797  LYS798  CYS799  TRP800  GLU811  SER814 

> <Gold.Protein.RotatedAtoms>
  150.7270  134.5491  159.5785 H   0  0  0  0  0  0  0  0  0  0  0  0  # atno 6907 bound_to 6896
  152.2982  134.7639  160.0372 H   0  0  0  0  0  0  0  0  0  0  0  0  # atno 6908 bound_to 6896
  151.8228  133.3361  159.3626 H   0  0  0  0  0  0  0  0  0  0  0  0  # atno 6909 bound_to 6896
  145.9316  139.3812  143.0418 H   0  0  0  0  0  0  0  0  0  0  0  0  # atno 7974 bound_to 7965
  154.8252  140.0442  157.1438 H   0  0  0  0  0  0  0  0  0  0  0  0  # atno 8008 bound_to 7997
  154.9214  140.3027  155.5194 H   0  0  0  0  0  0  0  0  0  0  0  0  # atno 8009 bound_to 7997
  156.2983  140.2340  156.4265 H   0  0  0  0  0  0  0  0  0  0  0  0  # atno 8010 bound_to 7997
  139.4822  144.4952  151.8250 H   0  0  0  0  0  0  0  0  0  0  0  0  # atno 10167 bound_to 10162
  157.3344  130.7514  149.6869 H   0  0  0  0  0  0  0  0  0  0  0  0  # atno 10718 bound_to 10713
  152.9795  135.5778  154.4743 H   0  0  0  0  0  0  0  0  0  0  0  0  # atno 10763 bound_to 10752
  154.4301  135.2773  155.1920 H   0  0  0  0  0  0  0  0  0  0  0  0  # atno 10764 bound_to 10752
  154.3632  135.6184  153.5755 H   0  0  0  0  0  0  0  0  0  0  0  0  # atno 10765 bound_to 10752
  140.5959  134.4996  157.5199 H   0  0  0  0  0  0  0  0  0  0  0  0  # atno 11005 bound_to 11000
  145.8419  140.9576  143.0795 LP  0  0  0  0  0  0  0  0  0  0  0  0  # atno 17320 bound_to 7965
  144.6765  140.0295  143.7483 LP  0  0  0  0  0  0  0  0  0  0  0  0  # atno 17321 bound_to 7965
  140.4440  144.1947  150.5893 LP  0  0  0  0  0  0  0  0  0  0  0  0  # atno 17342 bound_to 10162
  140.4654  143.2433  151.9163 LP  0  0  0  0  0  0  0  0  0  0  0  0  # atno 17343 bound_to 10162
  155.9699  130.4186  150.4334 LP  0  0  0  0  0  0  0  0  0  0  0  0  # atno 17370 bound_to 10713
  157.2371  131.0517  151.2458 LP  0  0  0  0  0  0  0  0  0  0  0  0  # atno 17371 bound_to 10713
  139.9253  134.8068  156.1087 LP  0  0  0  0  0  0  0  0  0  0  0  0  # atno 17394 bound_to 11000
  141.0904  133.6717  156.2528 LP  0  0  0  0  0  0  0  0  0  0  0  0  # atno 17395 bound_to 11000

$$$$
