AV-unprocessed.smi:3261|AV-procd|sdf|12483|dock8
  -GOLD-   2272018383D 1   1.00000     0.00000
 Structure written by MMmdl.
 30 31  0  0  0  0  0  0  0  0  3 V2000
  147.1288  133.3509  153.9204 O   0  0  0  0  0  0  0  0  0  0  0  0
  147.7653  132.6080  153.1749 C   0  0  0  0  0  0  0  0  0  0  0  0
  147.2442  132.2922  151.9635 N   0  0  0  0  0  0  0  0  0  0  0  0
  145.9880  132.6568  151.4085 C   0  0  0  0  0  0  0  0  0  0  0  0
  145.6523  132.1344  150.1401 C   0  0  0  0  0  0  0  0  0  0  0  0
  144.4065  132.4566  149.5644 C   0  0  0  0  0  0  0  0  0  0  0  0
  143.5407  133.2480  150.2338 N   0  3  0  0  0  0  0  0  0  0  0  0
  143.8093  133.7536  151.4569 C   0  0  0  0  0  0  0  0  0  0  0  0
  145.0393  133.4660  152.0825 C   0  0  0  0  0  0  0  0  0  0  0  0
  148.9902  132.1188  153.5376 N   0  5  0  0  0  0  0  0  0  0  0  0
  149.4472  131.6251  154.8490 C   0  0  1  0  0  0  0  0  0  0  0  0
  150.8269  132.2414  155.1699 C   0  0  0  0  0  0  0  0  0  0  0  0
  150.6407  133.6702  155.6983 C   0  0  0  0  0  0  0  0  0  0  0  0
  149.0887  133.6275  156.6667 S   0  0  0  0  0  0  0  0  0  0  0  0
  149.4105  133.4058  158.0852 O   0  0  0  0  0  0  0  0  0  0  0  0
  148.2277  134.7482  156.2576 O   0  0  0  0  0  0  0  0  0  0  0  0
  148.4578  132.0559  155.9513 C   0  0  0  0  0  0  0  0  0  0  0  0
  147.8607  131.7812  151.3490 H   0  0  0  0  0  0  0  0  0  0  0  0
  146.3457  131.4993  149.6077 H   0  0  0  0  0  0  0  0  0  0  0  0
  144.0785  132.1057  148.5970 H   0  0  0  0  0  0  0  0  0  0  0  0
  143.0355  134.3636  151.8994 H   0  0  0  0  0  0  0  0  0  0  0  0
  145.2314  133.8590  153.0697 H   0  0  0  0  0  0  0  0  0  0  0  0
  149.5370  130.5376  154.8494 H   0  0  0  0  0  0  0  0  0  0  0  0
  151.2938  131.6450  155.9548 H   0  0  0  0  0  0  0  0  0  0  0  0
  151.5049  132.2120  154.3157 H   0  0  0  0  0  0  0  0  0  0  0  0
  151.4675  134.0072  156.3230 H   0  0  0  0  0  0  0  0  0  0  0  0
  150.5125  134.3793  154.8785 H   0  0  0  0  0  0  0  0  0  0  0  0
  147.4360  132.1925  155.5958 H   0  0  0  0  0  0  0  0  0  0  0  0
  148.4382  131.3170  156.7521 H   0  0  0  0  0  0  0  0  0  0  0  0
  142.6438  133.4681  149.8002 H   0  0  0  0  0  0  0  0  0  0  0  0
  1  2  2  0  0  0  0
  2  3  1  0  0  0  0
  2 10  1  0  0  0  0
  3  4  1  0  0  0  0
  3 18  1  0  0  0  0
  4  9  1  0  0  0  0
  4  5  2  0  0  0  0
  5  6  1  0  0  0  0
  5 19  1  0  0  0  0
  6  7  2  0  0  0  0
  6 20  1  0  0  0  0
  7  8  1  0  0  0  0
  7 30  1  0  0  0  0
  8  9  2  0  0  0  0
  8 21  1  0  0  0  0
  9 22  1  0  0  0  0
 10 11  1  0  0  0  0
 11 17  1  0  0  0  0
 11 12  1  0  0  0  0
 11 23  1  0  0  0  0
 12 13  1  0  0  0  0
 12 24  1  0  0  0  0
 12 25  1  0  0  0  0
 13 14  1  0  0  0  0
 13 26  1  0  0  0  0
 13 27  1  0  0  0  0
 14 15  2  0  0  0  0
 14 16  2  0  0  0  0
 14 17  1  0  0  0  0
 17 28  1  0  0  0  0
 17 29  1  0  0  0  0
M  CHG  1   7   1
M  CHG  1  10  -1
M  END
> <s_m_source_file>
AV-unprocessed.smi

> <i_m_source_file_index>
3261

> <i_lp_mmshare_version>
43012

> <i_f3d_flags>
0

> <s_epik_input>
Tz1TMSg9TylbQ0gyXVtDSDJdW0NASF0oW0NIMl0xKVtOSF1DKD1PKVtOSF1jMltjSF1bY0hdbltjSF1bY0hdMg==

> <s_epik_cmdline>
J2VwaWtfcHl0aG9uJywgJy1waCcsICc3LjAnLCAnLXRuJywgJzgnLCAnLW1hJywgJzIwMCcsICctbWV0YWxfYmluZGluZycsICctaW1hZScsICc8aW5maWxlLm1hZT4nLCAnLW9tYWUnLCAnPG91dGZpbGUubWFlPic=

> <r_epik_Ionization_Penalty>
8.1176

> <r_epik_Ionization_Penalty_Charging>
8.1176

> <r_epik_Ionization_Penalty_Neutral>
3.03687e-06

> <r_epik_State_Penalty>
7.79629

> <r_epik_Charging_Adjusted_Penalty>
15.9139

> <i_epik_Tot_Q>
0

> <i_epik_Tot_abs_Q>
2

> <r_epik_Metal_State_Penalty>
3.7997

> <b_epik_Metal_Only>
1

> <s_lp_Force_Field>
OPLS_2005

> <r_lp_Energy>
21.8236

> <b_lp_Chiralities_Consistent>
1

> <s_lp_Variant>
AV-unprocessed.smi:3261-6

> <Gold.Version>
5.8.1

> <Gold.Id.Protein>
6NUR|6NUR_protein|mol2

> <Gold.PLP.Fitness>
36.8344

> <Gold.PLP.PLP>
-25.7903

> <Gold.PLP.part.hbond>
-3.0000

> <Gold.PLP.part.metal>
0.0000

> <Gold.PLP.part.buried>
-5.7873

> <Gold.PLP.part.nonpolar>
-17.0708

> <Gold.PLP.part.repulsive>
0.2608

> <Gold.PLP.ligand.clash>
0.0000

> <Gold.PLP.ligand.torsion>
0.4797

> <Gold.PLP.Chemscore.Hbond>
4.0000

> <Gold.PLP.Chemscore.CHOScore>
0.0000

> <Gold.PLP.Chemscore.Metal>
0.0000

> <Gold.Chemscore.Hbonds>
donor molecule, donor type, donor heavy atom, donor atom, acceptor molecule, acceptor atom, score
      L1  H     3    18       P1 10747  1.00
      L1  H     7    30       P1 10186  2.00
      P1  H  6896  6907       L1    15  1.00

> <Gold.PLP.Chemscore.Internal.Correction>
0.0036

> <Gold.Rescore>
     Score         DG    S(hbond)    S(metal)    S(lipo)     H(rot)  DE(clash)    DE(int)     intcor
     15.97     -19.43       2.97        0.00      56.43       1.00       0.00       3.46       ----

> <Gold.Chemscore.Fitness>
15.9703

> <Gold.Chemscore.DG>
-19.4280

> <Gold.Chemscore.ZeroCoef>
-5.4800

> <Gold.Chemscore.Hbond>
2.9658

> <Gold.Chemscore.Metal>
0.0000

> <Gold.Chemscore.Lipo>
56.4285

> <Gold.Chemscore.Internal_Hbond>
0.0000

> <Gold.Chemscore.DEClash>
0.0000

> <Gold.Chemscore.DEInternal>
3.4577

> <Gold.Chemscore.Rot>
1.0000

> <Gold.Chemscore.Internal.Correction>
   9.000000E+99

> <Gold.Chemscore.Hbonds>
donor molecule, donor type, donor heavy atom, donor atom, acceptor molecule, acceptor atom, score
      L1  H     3    18       P1 10747  1.00
      L1  H     7    30       P1 10186  0.99
      P1  H  6896  6907       L1    15  1.00

> <Gold.Chemscore.Hbond.Weighted>
-9.9059

> <Gold.Chemscore.Metal.Weighted>
-0.0000

> <Gold.Chemscore.Lipo.Weighted>
-6.6021

> <Gold.Chemscore.Internal_Hbond.Weighted>
0.0000

> <Gold.Chemscore.DEClash.Weighted>
0.0000

> <Gold.Chemscore.DEInternal.Weighted>
3.4577

> <Gold.Chemscore.Rot.Weighted>
2.5600

> <Gold.Chemscore.Internal.Correction.Weighted>
   9.000000E+99

> <Gold.Protein.RotatedTorsions>
[ 6907 6896 6895 6894 ] final -116.05 input  -60.11 | X-H torsion
[ 7974 7965 7964 7962 ] final  143.07 input  175.53 | X-H torsion
[ 8008 7997 7996 7995 ] final -109.97 input   59.86 | X-H torsion
[ 10167 10162 10161 10158 ] final  -86.11 input  -65.29 | X-H torsion
[ 10718 10713 10712 10709 ] final  110.27 input   66.30 | X-H torsion
[ 10763 10752 10751 10750 ] final   15.22 input  -60.55 | X-H torsion
[ 11005 11000 10999 10996 ] final  123.00 input  -57.11 | X-H torsion

> <Gold.Protein.ActiveResidues>
 VAL166  LYS551  ARG553  GLY616  TRP617  ASP618  TYR619  PRO620  LYS621  CYS622 
 ASP623  PHE694  ASN695  SER759  ASP760  ASP761  ALA762  ILE779  LEU786  VAL792 
 PHE793  MET794  SER795  GLU796  ALA797  LYS798  CYS799  TRP800  GLU811  SER814 

> <Gold.Protein.RotatedAtoms>
  150.8025  133.8571  159.3221 H   0  0  0  0  0  0  0  0  0  0  0  0  # atno 6907 bound_to 6896
  151.6379  135.1014  160.0145 H   0  0  0  0  0  0  0  0  0  0  0  0  # atno 6908 bound_to 6896
  152.4114  133.6929  159.6436 H   0  0  0  0  0  0  0  0  0  0  0  0  # atno 6909 bound_to 6896
  144.8953  139.5500  143.5779 H   0  0  0  0  0  0  0  0  0  0  0  0  # atno 7974 bound_to 7965
  154.9675  140.0398  157.2219 H   0  0  0  0  0  0  0  0  0  0  0  0  # atno 8008 bound_to 7997
  154.7832  140.2822  155.6025 H   0  0  0  0  0  0  0  0  0  0  0  0  # atno 8009 bound_to 7997
  156.2939  140.2587  156.2662 H   0  0  0  0  0  0  0  0  0  0  0  0  # atno 8010 bound_to 7997
  140.3973  143.2678  151.9188 H   0  0  0  0  0  0  0  0  0  0  0  0  # atno 10167 bound_to 10162
  157.6502  131.0929  150.6577 H   0  0  0  0  0  0  0  0  0  0  0  0  # atno 10718 bound_to 10713
  153.1546  135.6785  153.8831 H   0  0  0  0  0  0  0  0  0  0  0  0  # atno 10763 bound_to 10752
  153.8246  135.3125  155.3414 H   0  0  0  0  0  0  0  0  0  0  0  0  # atno 10764 bound_to 10752
  154.7888  135.4846  154.0093 H   0  0  0  0  0  0  0  0  0  0  0  0  # atno 10765 bound_to 10752
  139.9293  134.9641  156.8194 H   0  0  0  0  0  0  0  0  0  0  0  0  # atno 11005 bound_to 11000
  146.3077  139.7638  142.9043 LP  0  0  0  0  0  0  0  0  0  0  0  0  # atno 17320 bound_to 7965
  145.3712  141.0343  143.3230 LP  0  0  0  0  0  0  0  0  0  0  0  0  # atno 17321 bound_to 7965
  139.4786  144.5668  151.8151 LP  0  0  0  0  0  0  0  0  0  0  0  0  # atno 17342 bound_to 10162
  140.4777  144.1495  150.5927 LP  0  0  0  0  0  0  0  0  0  0  0  0  # atno 17343 bound_to 10162
  156.6889  130.4589  149.5605 LP  0  0  0  0  0  0  0  0  0  0  0  0  # atno 17370 bound_to 10713
  156.1876  130.6539  151.1024 LP  0  0  0  0  0  0  0  0  0  0  0  0  # atno 17371 bound_to 10713
  140.6247  133.9961  155.7634 LP  0  0  0  0  0  0  0  0  0  0  0  0  # atno 17394 bound_to 11000
  141.0872  133.9973  157.3295 LP  0  0  0  0  0  0  0  0  0  0  0  0  # atno 17395 bound_to 11000

$$$$
