AV-unprocessed.smi:1315|AV-procd|sdf|5454|dock3
  -GOLD-   22720 5 23D 1   1.00000     0.00000
 Structure written by MMmdl.
 25 26  0  0  0  0  0  0  0  0  1 V2000
  150.9928  137.6694  153.5236 N   0  0  0  0  0  0  0  0  0  0  0  0
  151.1457  138.7532  154.4089 C   0  0  0  0  0  0  0  0  0  0  0  0
  152.3182  139.2326  155.0573 C   0  0  0  0  0  0  0  0  0  0  0  0
  152.0815  140.2826  155.8270 N   0  0  0  0  0  0  0  0  0  0  0  0
  150.7562  140.5105  155.6929 N   0  0  0  0  0  0  0  0  0  0  0  0
  150.1353  141.6108  156.4125 C   0  0  0  0  0  0  0  0  0  0  0  0
  151.1129  142.3238  157.3547 C   0  0  0  0  0  0  0  0  0  0  0  0
  151.8768  141.6815  158.0771 O   0  0  0  0  0  0  0  0  0  0  0  0
  151.0689  143.6641  157.3367 N   0  0  0  0  0  0  0  0  0  0  0  0
  151.8807  144.5316  158.1278 C   0  0  0  0  0  0  0  0  0  0  0  0
  152.3459  144.0234  159.4752 C   0  0  0  0  0  0  0  0  0  0  0  0
  151.2821  145.0837  159.4035 C   0  0  0  0  0  0  0  0  0  0  0  0
  150.1646  139.5980  154.8433 C   0  0  0  0  0  0  0  0  0  0  0  0
  150.0957  137.4286  153.1265 H   0  0  0  0  0  0  0  0  0  0  0  0
  151.7632  137.0619  153.2845 H   0  0  0  0  0  0  0  0  0  0  0  0
  153.3267  138.8516  154.9932 H   0  0  0  0  0  0  0  0  0  0  0  0
  149.7389  142.3165  155.6812 H   0  0  0  0  0  0  0  0  0  0  0  0
  149.2887  141.2366  156.9901 H   0  0  0  0  0  0  0  0  0  0  0  0
  150.4078  144.1055  156.7143 H   0  0  0  0  0  0  0  0  0  0  0  0
  152.5718  145.1887  157.6014 H   0  0  0  0  0  0  0  0  0  0  0  0
  152.0390  143.0234  159.7763 H   0  0  0  0  0  0  0  0  0  0  0  0
  153.3354  144.3269  159.8110 H   0  0  0  0  0  0  0  0  0  0  0  0
  151.5611  146.0951  159.6917 H   0  0  0  0  0  0  0  0  0  0  0  0
  150.2650  144.7915  159.6577 H   0  0  0  0  0  0  0  0  0  0  0  0
  149.1081  139.6288  154.6212 H   0  0  0  0  0  0  0  0  0  0  0  0
  1  2  1  0  0  0  0
  1 14  1  0  0  0  0
  1 15  1  0  0  0  0
  2 13  2  0  0  0  0
  2  3  1  0  0  0  0
  3  4  2  0  0  0  0
  3 16  1  0  0  0  0
  4  5  1  0  0  0  0
  5  6  1  0  0  0  0
  5 13  1  0  0  0  0
  6  7  1  0  0  0  0
  6 17  1  0  0  0  0
  6 18  1  0  0  0  0
  7  8  2  0  0  0  0
  7  9  1  0  0  0  0
  9 10  1  0  0  0  0
  9 19  1  0  0  0  0
 10 12  1  0  0  0  0
 10 11  1  0  0  0  0
 10 20  1  0  0  0  0
 11 12  1  0  0  0  0
 11 21  1  0  0  0  0
 11 22  1  0  0  0  0
 12 23  1  0  0  0  0
 12 24  1  0  0  0  0
 13 25  1  0  0  0  0
M  END
> <s_m_source_file>
AV-unprocessed.smi

> <i_m_source_file_index>
1315

> <i_lp_mmshare_version>
43012

> <i_f3d_flags>
0

> <s_epik_input>
W05IMl1jMVtjSF1ubihbY0hdMSlbQ0gyXUMoPU8pW05IXVtDSF0yW0NIMl1bQ0gyXTI=

> <s_epik_cmdline>
J2VwaWtfcHl0aG9uJywgJy1waCcsICc3LjAnLCAnLXRuJywgJzgnLCAnLW1hJywgJzIwMCcsICctbWV0YWxfYmluZGluZycsICctaW1hZScsICc8aW5maWxlLm1hZT4nLCAnLW9tYWUnLCAnPG91dGZpbGUubWFlPic=

> <r_lp_tautomer_probability>
1

> <r_epik_Ionization_Penalty>
0.000100915

> <r_epik_Ionization_Penalty_Charging>
0

> <r_epik_Ionization_Penalty_Neutral>
0.000100915

> <r_epik_State_Penalty>
-0

> <r_epik_Charging_Adjusted_Penalty>
0

> <i_epik_Tot_Q>
0

> <i_epik_Tot_abs_Q>
0

> <r_epik_Metal_State_Penalty>
-0

> <b_epik_Metal_Only>
0

> <s_lp_Force_Field>
OPLS_2005

> <r_lp_Energy>
18.5759

> <b_lp_Chiralities_Consistent>
1

> <s_lp_Variant>
AV-unprocessed.smi:1315-1

> <Gold.Version>
5.8.1

> <Gold.Id.Protein>
6NUR|6NUR_protein|mol2

> <Gold.PLP.Fitness>
39.8050

> <Gold.PLP.PLP>
-34.6453

> <Gold.PLP.part.hbond>
-3.2840

> <Gold.PLP.part.metal>
0.0000

> <Gold.PLP.part.buried>
-3.7443

> <Gold.PLP.part.nonpolar>
-27.6781

> <Gold.PLP.part.repulsive>
0.1162

> <Gold.PLP.ligand.clash>
0.0000

> <Gold.PLP.ligand.torsion>
0.5684

> <Gold.PLP.Chemscore.Hbond>
2.0862

> <Gold.PLP.Chemscore.CHOScore>
0.0000

> <Gold.PLP.Chemscore.Metal>
0.0000

> <Gold.Chemscore.Hbonds>
donor molecule, donor type, donor heavy atom, donor atom, acceptor molecule, acceptor atom, score
      L1  H     1    14       P1  7948  0.81
      L1  H     1    15       P1  7949  0.09
      L1  H     9    19       P1  8028  1.00
      P1  H  7997  8008       L1     4  0.05

> <Gold.PLP.Chemscore.Internal.Correction>
0.0379

> <Gold.Rescore>
     Score         DG    S(hbond)    S(metal)    S(lipo)     H(rot)  DE(clash)    DE(int)     intcor
     10.74     -14.61       1.60        0.00      68.94       1.67       0.03       3.83       ----

> <Gold.Chemscore.Fitness>
10.7417

> <Gold.Chemscore.DG>
-14.6063

> <Gold.Chemscore.ZeroCoef>
-5.4800

> <Gold.Chemscore.Hbond>
1.5984

> <Gold.Chemscore.Metal>
0.0000

> <Gold.Chemscore.Lipo>
68.9430

> <Gold.Chemscore.Internal_Hbond>
0.0000

> <Gold.Chemscore.DEClash>
0.0305

> <Gold.Chemscore.DEInternal>
3.8342

> <Gold.Chemscore.Rot>
1.6713

> <Gold.Chemscore.Internal.Correction>
   9.000000E+99

> <Gold.Chemscore.Hbonds>
donor molecule, donor type, donor heavy atom, donor atom, acceptor molecule, acceptor atom, score
      L1  H     1    14       P1  7948  0.12
      L1  H     1    15       P1  7949  0.10
      L1  H     9    19       P1  8028  0.99

> <Gold.Chemscore.Hbond.Weighted>
-5.3386

> <Gold.Chemscore.Metal.Weighted>
-0.0000

> <Gold.Chemscore.Lipo.Weighted>
-8.0663

> <Gold.Chemscore.Internal_Hbond.Weighted>
0.0000

> <Gold.Chemscore.DEClash.Weighted>
0.0305

> <Gold.Chemscore.DEInternal.Weighted>
3.8342

> <Gold.Chemscore.Rot.Weighted>
4.2786

> <Gold.Chemscore.Internal.Correction.Weighted>
   9.000000E+99

> <Gold.Protein.RotatedTorsions>
[ 6907 6896 6895 6894 ] final  133.14 input  -60.11 | X-H torsion
[ 7974 7965 7964 7962 ] final -164.41 input  175.53 | X-H torsion
[ 8008 7997 7996 7995 ] final  -36.35 input   59.86 | X-H torsion
[ 10167 10162 10161 10158 ] final -109.83 input  -65.29 | X-H torsion
[ 10718 10713 10712 10709 ] final   88.60 input   66.30 | X-H torsion
[ 10763 10752 10751 10750 ] final  -55.55 input  -60.55 | X-H torsion
[ 11005 11000 10999 10996 ] final  158.33 input  -57.11 | X-H torsion

> <Gold.Protein.ActiveResidues>
 VAL166  LYS551  ARG553  GLY616  TRP617  ASP618  TYR619  PRO620  LYS621  CYS622 
 ASP623  PHE694  ASN695  SER759  ASP760  ASP761  ALA762  ILE779  LEU786  VAL792 
 PHE793  MET794  SER795  GLU796  ALA797  LYS798  CYS799  TRP800  GLU811  SER814 

> <Gold.Protein.RotatedAtoms>
  152.3251  133.5896  159.5770 H   0  0  0  0  0  0  0  0  0  0  0  0  # atno 6907 bound_to 6896
  150.7392  133.9953  159.3629 H   0  0  0  0  0  0  0  0  0  0  0  0  # atno 6908 bound_to 6896
  151.7834  135.0756  160.0428 H   0  0  0  0  0  0  0  0  0  0  0  0  # atno 6909 bound_to 6896
  144.7298  140.2965  143.6211 H   0  0  0  0  0  0  0  0  0  0  0  0  # atno 7974 bound_to 7965
  154.4075  140.1633  156.2359 H   0  0  0  0  0  0  0  0  0  0  0  0  # atno 8008 bound_to 7997
  155.9242  140.3419  155.6174 H   0  0  0  0  0  0  0  0  0  0  0  0  # atno 8009 bound_to 7997
  155.7185  140.0765  157.2331 H   0  0  0  0  0  0  0  0  0  0  0  0  # atno 8010 bound_to 7997
  140.1510  143.4199  152.1495 H   0  0  0  0  0  0  0  0  0  0  0  0  # atno 10167 bound_to 10162
  157.6950  131.0301  150.3299 H   0  0  0  0  0  0  0  0  0  0  0  0  # atno 10718 bound_to 10713
  154.1926  135.6424  153.5064 H   0  0  0  0  0  0  0  0  0  0  0  0  # atno 10763 bound_to 10752
  153.0031  135.5432  154.6399 H   0  0  0  0  0  0  0  0  0  0  0  0  # atno 10764 bound_to 10752
  154.5791  135.2923  155.0723 H   0  0  0  0  0  0  0  0  0  0  0  0  # atno 10765 bound_to 10752
  140.1855  134.8445  157.2852 H   0  0  0  0  0  0  0  0  0  0  0  0  # atno 11005 bound_to 11000
  145.7803  139.1889  143.2161 LP  0  0  0  0  0  0  0  0  0  0  0  0  # atno 17320 bound_to 7965
  146.0839  140.7732  142.9628 LP  0  0  0  0  0  0  0  0  0  0  0  0  # atno 17321 bound_to 7965
  139.5426  144.7270  151.4686 LP  0  0  0  0  0  0  0  0  0  0  0  0  # atno 17342 bound_to 10162
  140.6702  143.8310  150.6990 LP  0  0  0  0  0  0  0  0  0  0  0  0  # atno 17343 bound_to 10162
  156.3775  130.3874  149.7128 LP  0  0  0  0  0  0  0  0  0  0  0  0  # atno 17370 bound_to 10713
  156.4521  130.7912  151.2933 LP  0  0  0  0  0  0  0  0  0  0  0  0  # atno 17371 bound_to 10713
  140.2219  134.4013  155.7562 LP  0  0  0  0  0  0  0  0  0  0  0  0  # atno 17394 bound_to 11000
  141.2224  133.7170  156.8503 LP  0  0  0  0  0  0  0  0  0  0  0  0  # atno 17395 bound_to 11000

$$$$
