AV-unprocessed.smi:794|AV-procd|sdf|3763|dock4
  -GOLD-   22720 1193D 1   1.00000     0.00000
 Structure written by MMmdl.
 41 43  0  0  0  0  0  0  0  0  1 V2000
  141.9105  134.8217  153.1322 C   0  0  0  0  0  0  0  0  0  0  0  0
  143.3386  134.7553  152.6848 C   0  0  0  0  0  0  0  0  0  0  0  0
  144.2601  135.6809  153.1833 N   0  0  0  0  0  0  0  0  0  0  0  0
  145.4879  135.4877  152.6909 C   0  0  0  0  0  0  0  0  0  0  0  0
  146.6198  136.2745  153.0283 N   0  0  0  0  0  0  0  0  0  0  0  0
  146.7600  137.1331  154.0531 C   0  0  0  0  0  0  0  0  0  0  0  0
  145.8899  137.4029  154.8816 O   0  0  0  0  0  0  0  0  0  0  0  0
  147.9866  137.6727  154.0660 N   0  0  0  0  0  0  0  0  0  0  0  0
  148.4674  138.6398  155.0490 C   0  0  1  0  0  0  0  0  0  0  0  0
  149.7061  138.0892  155.7893 C   0  0  2  0  0  0  0  0  0  0  0  0
  149.9304  138.9237  157.0629 C   0  0  0  0  0  0  0  0  0  0  0  0
  150.4571  140.2566  156.4980 C   0  0  0  0  0  0  0  0  0  0  0  0
  150.4488  140.0152  154.9728 C   0  0  1  0  0  0  0  0  0  0  0  0
  150.8652  138.5512  154.9101 C   0  0  0  0  0  0  0  0  0  0  0  0
  149.0112  139.9382  154.3999 C   0  0  2  0  0  0  0  0  0  0  0  0
  148.1206  141.1754  154.6257 C   0  0  0  0  0  0  0  0  0  0  0  0
  148.7475  142.3324  154.1142 O   0  0  0  0  0  0  0  0  0  0  0  0
  145.5936  134.1427  151.5689 S   0  0  0  0  0  0  0  0  0  0  0  0
  143.8885  133.8502  151.8063 C   0  0  0  0  0  0  0  0  0  0  0  0
  143.1994  132.7320  151.0975 C   0  0  0  0  0  0  0  0  0  0  0  0
  141.2276  134.7056  152.2905 H   0  0  0  0  0  0  0  0  0  0  0  0
  141.6811  135.7749  153.6098 H   0  0  0  0  0  0  0  0  0  0  0  0
  141.6887  134.0312  153.8493 H   0  0  0  0  0  0  0  0  0  0  0  0
  147.4220  136.1590  152.4268 H   0  0  0  0  0  0  0  0  0  0  0  0
  148.6376  137.3964  153.3457 H   0  0  0  0  0  0  0  0  0  0  0  0
  147.6682  138.8484  155.7632 H   0  0  0  0  0  0  0  0  0  0  0  0
  149.6696  137.0161  155.9805 H   0  0  0  0  0  0  0  0  0  0  0  0
  149.0184  139.0489  157.6476 H   0  0  0  0  0  0  0  0  0  0  0  0
  150.6777  138.4582  157.7066 H   0  0  0  0  0  0  0  0  0  0  0  0
  149.8592  141.1132  156.8057 H   0  0  0  0  0  0  0  0  0  0  0  0
  151.4750  140.4349  156.8468 H   0  0  0  0  0  0  0  0  0  0  0  0
  151.1003  140.6938  154.4213 H   0  0  0  0  0  0  0  0  0  0  0  0
  151.8455  138.3595  155.3502 H   0  0  0  0  0  0  0  0  0  0  0  0
  150.8405  138.1344  153.9019 H   0  0  0  0  0  0  0  0  0  0  0  0
  149.0972  139.7901  153.3212 H   0  0  0  0  0  0  0  0  0  0  0  0
  147.1694  141.0470  154.1087 H   0  0  0  0  0  0  0  0  0  0  0  0
  147.8831  141.3223  155.6786 H   0  0  0  0  0  0  0  0  0  0  0  0
  148.8967  142.9335  154.8281 H   0  0  0  0  0  0  0  0  0  0  0  0
  142.5437  132.1871  151.7769 H   0  0  0  0  0  0  0  0  0  0  0  0
  143.9184  132.0225  150.6871 H   0  0  0  0  0  0  0  0  0  0  0  0
  142.5937  133.1122  150.2748 H   0  0  0  0  0  0  0  0  0  0  0  0
  1  2  1  0  0  0  0
  1 21  1  0  0  0  0
  1 22  1  0  0  0  0
  1 23  1  0  0  0  0
  2 19  2  0  0  0  0
  2  3  1  0  0  0  0
  3  4  2  0  0  0  0
  4  5  1  0  0  0  0
  4 18  1  0  0  0  0
  5  6  1  0  0  0  0
  5 24  1  0  0  0  0
  6  7  2  0  0  0  0
  6  8  1  0  0  0  0
  8  9  1  0  0  0  0
  8 25  1  0  0  0  0
  9 15  1  0  0  0  0
  9 10  1  0  0  0  0
  9 26  1  0  0  0  0
 10 14  1  0  0  0  0
 10 11  1  0  0  0  0
 10 27  1  0  0  0  0
 11 12  1  0  0  0  0
 11 28  1  0  0  0  0
 11 29  1  0  0  0  0
 12 13  1  0  0  0  0
 12 30  1  0  0  0  0
 12 31  1  0  0  0  0
 13 14  1  0  0  0  0
 13 15  1  0  0  0  0
 13 32  1  0  0  0  0
 14 33  1  0  0  0  0
 14 34  1  0  0  0  0
 15 16  1  0  0  0  0
 15 35  1  0  0  0  0
 16 17  1  0  0  0  0
 16 36  1  0  0  0  0
 16 37  1  0  0  0  0
 17 38  1  0  0  0  0
 18 19  1  0  0  0  0
 19 20  1  0  0  0  0
 20 39  1  0  0  0  0
 20 40  1  0  0  0  0
 20 41  1  0  0  0  0
M  END
> <s_m_source_file>
AV-unprocessed.smi

> <i_m_source_file_index>
794

> <i_lp_mmshare_version>
43012

> <i_f3d_flags>
0

> <s_epik_input>
W0NIM11jMW5jKHNjMVtDSDNdKVtOSF1DKD1PKVtOSF1bQ0BIXShbQ0BASF0yMylbQ0BIXShbQ0gyXVtPSF0pW0NAQEhdKFtDSDJdMylbQ0gyXVtDSDJdMg==

> <s_epik_cmdline>
J2VwaWtfcHl0aG9uJywgJy1waCcsICc3LjAnLCAnLXRuJywgJzgnLCAnLW1hJywgJzIwMCcsICctbWV0YWxfYmluZGluZycsICctaW1hZScsICc8aW5maWxlLm1hZT4nLCAnLW9tYWUnLCAnPG91dGZpbGUubWFlPic=

> <r_lp_tautomer_probability>
0.999

> <r_epik_Ionization_Penalty>
0.000713029

> <r_epik_Ionization_Penalty_Charging>
0

> <r_epik_Ionization_Penalty_Neutral>
0.000713029

> <r_epik_State_Penalty>
0.000177984

> <r_epik_Charging_Adjusted_Penalty>
0.000177984

> <i_epik_Tot_Q>
0

> <i_epik_Tot_abs_Q>
0

> <r_epik_Metal_State_Penalty>
-0

> <b_epik_Metal_Only>
0

> <s_lp_Force_Field>
OPLS_2005

> <r_lp_Energy>
46.861

> <b_lp_Chiralities_Consistent>
1

> <s_lp_Variant>
AV-unprocessed.smi:794-8

> <Gold.Version>
5.8.1

> <Gold.Id.Protein>
6NUR|6NUR_protein|mol2

> <Gold.PLP.Fitness>
39.4455

> <Gold.PLP.PLP>
-30.1030

> <Gold.PLP.part.hbond>
-4.0000

> <Gold.PLP.part.metal>
0.0000

> <Gold.PLP.part.buried>
-3.0679

> <Gold.PLP.part.nonpolar>
-23.3439

> <Gold.PLP.part.repulsive>
0.1136

> <Gold.PLP.ligand.clash>
0.0000

> <Gold.PLP.ligand.torsion>
0.0761

> <Gold.PLP.Chemscore.Hbond>
3.1588

> <Gold.PLP.Chemscore.CHOScore>
0.0000

> <Gold.PLP.Chemscore.Metal>
0.0000

> <Gold.Chemscore.Hbonds>
donor molecule, donor type, donor heavy atom, donor atom, acceptor molecule, acceptor atom, score
      L1  H     5    24       P1  7948  1.00
      L1  H     8    25       P1  7948  0.94
      L1  H    17    38       P1  8028  1.00
      P1  H  8011  8017       L1    17  0.21

> <Gold.PLP.Chemscore.Internal.Correction>
0.0184

> <Gold.Rescore>
     Score         DG    S(hbond)    S(metal)    S(lipo)     H(rot)  DE(clash)    DE(int)     intcor
     17.90     -19.36       3.10        0.00      69.19       1.78       0.16       1.30       ----

> <Gold.Chemscore.Fitness>
17.8994

> <Gold.Chemscore.DG>
-19.3570

> <Gold.Chemscore.ZeroCoef>
-5.4800

> <Gold.Chemscore.Hbond>
3.0952

> <Gold.Chemscore.Metal>
0.0000

> <Gold.Chemscore.Lipo>
69.1897

> <Gold.Chemscore.Internal_Hbond>
0.0000

> <Gold.Chemscore.DEClash>
0.1620

> <Gold.Chemscore.DEInternal>
1.2956

> <Gold.Chemscore.Rot>
1.7798

> <Gold.Chemscore.Internal.Correction>
   9.000000E+99

> <Gold.Chemscore.Hbonds>
donor molecule, donor type, donor heavy atom, donor atom, acceptor molecule, acceptor atom, score
      L1  H     5    24       P1  7948  0.99
      L1  H     8    25       P1  7948  0.91
      L1  H    17    38       P1  8028  0.95
      P1  H  8011  8017       L1    17  0.20

> <Gold.Chemscore.Hbond.Weighted>
-10.3380

> <Gold.Chemscore.Metal.Weighted>
-0.0000

> <Gold.Chemscore.Lipo.Weighted>
-8.0952

> <Gold.Chemscore.Internal_Hbond.Weighted>
0.0000

> <Gold.Chemscore.DEClash.Weighted>
0.1620

> <Gold.Chemscore.DEInternal.Weighted>
1.2956

> <Gold.Chemscore.Rot.Weighted>
4.5562

> <Gold.Chemscore.Internal.Correction.Weighted>
   9.000000E+99

> <Gold.Protein.RotatedTorsions>
[ 6907 6896 6895 6894 ] final  -16.75 input  -60.11 | X-H torsion
[ 7974 7965 7964 7962 ] final   51.36 input  175.53 | X-H torsion
[ 8008 7997 7996 7995 ] final  100.32 input   59.86 | X-H torsion
[ 10167 10162 10161 10158 ] final  112.69 input  -65.29 | X-H torsion
[ 10718 10713 10712 10709 ] final -101.71 input   66.30 | X-H torsion
[ 10763 10752 10751 10750 ] final -156.62 input  -60.55 | X-H torsion
[ 11005 11000 10999 10996 ] final  -54.28 input  -57.11 | X-H torsion

> <Gold.Protein.ActiveResidues>
 VAL166  LYS551  ARG553  GLY616  TRP617  ASP618  TYR619  PRO620  LYS621  CYS622 
 ASP623  PHE694  ASN695  SER759  ASP760  ASP761  ALA762  ILE779  LEU786  VAL792 
 PHE793  MET794  SER795  GLU796  ALA797  LYS798  CYS799  TRP800  GLU811  SER814 

> <Gold.Protein.RotatedAtoms>
  151.3038  135.0776  159.9247 H   0  0  0  0  0  0  0  0  0  0  0  0  # atno 6907 bound_to 6896
  152.5292  133.9805  159.7815 H   0  0  0  0  0  0  0  0  0  0  0  0  # atno 6908 bound_to 6896
  151.0097  133.5925  159.2714 H   0  0  0  0  0  0  0  0  0  0  0  0  # atno 6909 bound_to 6896
  145.9921  139.4349  143.0067 H   0  0  0  0  0  0  0  0  0  0  0  0  # atno 7974 bound_to 7965
  156.1192  140.3215  155.8183 H   0  0  0  0  0  0  0  0  0  0  0  0  # atno 8008 bound_to 7997
  155.4535  140.0534  157.3016 H   0  0  0  0  0  0  0  0  0  0  0  0  # atno 8009 bound_to 7997
  154.4815  140.2055  155.9767 H   0  0  0  0  0  0  0  0  0  0  0  0  # atno 8010 bound_to 7997
  139.6516  144.7128  151.2036 H   0  0  0  0  0  0  0  0  0  0  0  0  # atno 10167 bound_to 10162
  156.0204  130.5386  150.7003 H   0  0  0  0  0  0  0  0  0  0  0  0  # atno 10718 bound_to 10713
  154.7699  135.3142  154.8211 H   0  0  0  0  0  0  0  0  0  0  0  0  # atno 10763 bound_to 10752
  153.8950  135.6821  153.4762 H   0  0  0  0  0  0  0  0  0  0  0  0  # atno 10764 bound_to 10752
  153.1311  135.4780  154.9283 H   0  0  0  0  0  0  0  0  0  0  0  0  # atno 10765 bound_to 10752
  141.1018  133.6617  156.4297 H   0  0  0  0  0  0  0  0  0  0  0  0  # atno 11005 bound_to 11000
  145.7615  140.9933  143.1197 LP  0  0  0  0  0  0  0  0  0  0  0  0  # atno 17320 bound_to 7965
  144.6892  139.9336  143.7472 LP  0  0  0  0  0  0  0  0  0  0  0  0  # atno 17321 bound_to 7965
  140.7540  143.6140  150.8578 LP  0  0  0  0  0  0  0  0  0  0  0  0  # atno 17342 bound_to 10162
  139.9789  143.5973  152.2949 LP  0  0  0  0  0  0  0  0  0  0  0  0  # atno 17343 bound_to 10162
  157.4664  131.0888  151.0690 LP  0  0  0  0  0  0  0  0  0  0  0  0  # atno 17370 bound_to 10713
  157.1162  130.6042  149.5494 LP  0  0  0  0  0  0  0  0  0  0  0  0  # atno 17371 bound_to 10713
  140.5003  134.6492  157.5246 LP  0  0  0  0  0  0  0  0  0  0  0  0  # atno 17394 bound_to 11000
  139.9872  134.7042  155.9752 LP  0  0  0  0  0  0  0  0  0  0  0  0  # atno 17395 bound_to 11000

$$$$
