AV-unprocessed.smi:2356|AV-procd|sdf|9396|dock1
  -GOLD-   2272013 23D 1   1.00000     0.00000
 Structure written by MMmdl.
 53 56  0  0  0  0  0  0  0  0  1 V2000
  153.0797  138.7627  154.7906 C   0  0  0  0  0  0  0  0  0  0  0  0
  152.2360  138.8052  156.0532 C   0  0  0  0  0  0  0  0  0  0  0  0
  152.5123  139.8210  156.8993 N   0  0  0  0  0  0  0  0  0  0  0  0
  151.8035  139.9373  158.0463 C   0  0  0  0  0  0  0  0  0  0  0  0
  152.1222  141.0132  158.8981 N   0  0  0  0  0  0  0  0  0  0  0  0
  152.1415  142.3873  158.4210 C   0  0  0  0  0  0  0  0  0  0  0  0
  152.6657  143.1996  159.6038 C   0  0  0  0  0  0  0  0  0  0  0  0
  153.6247  142.2285  160.2923 C   0  0  0  0  0  0  0  0  0  0  0  0
  153.0026  140.8489  160.0469 C   0  0  0  0  0  0  0  0  0  0  0  0
  150.7702  139.0299  158.3741 C   0  0  0  0  0  0  0  0  0  0  0  0
  150.4812  137.9707  157.4935 C   0  0  0  0  0  0  0  0  0  0  0  0
  151.2338  137.8381  156.3025 C   0  0  0  0  0  0  0  0  0  0  0  0
  151.0250  136.8162  155.3342 N   0  0  0  0  0  0  0  0  0  0  0  0
  150.1819  135.7653  155.3482 C   0  0  0  0  0  0  0  0  0  0  0  0
  149.4082  135.4921  156.2625 O   0  0  0  0  0  0  0  0  0  0  0  0
  150.2506  134.9989  154.2439 N   0  0  0  0  0  0  0  0  0  0  0  0
  149.4829  133.7908  153.9313 C   0  0  1  0  0  0  0  0  0  0  0  0
  149.8799  132.6595  154.8892 C   0  0  0  0  0  0  0  0  0  0  0  0
  149.0136  131.4140  154.6453 C   0  0  0  0  0  0  0  0  0  0  0  0
  147.6302  131.7354  154.7743 O   0  0  0  0  0  0  0  0  0  0  0  0
  147.1528  132.7487  153.8873 C   0  0  2  0  0  0  0  0  0  0  0  0
  147.0919  132.2605  152.4458 C   0  0  0  0  0  0  0  0  0  0  0  0
  146.2643  132.9933  151.4158 C   0  0  0  0  0  0  0  0  0  0  0  0
  145.8309  131.6311  151.9030 C   0  0  0  0  0  0  0  0  0  0  0  0
  147.9691  134.0444  154.0590 C   0  0  0  0  0  0  0  0  0  0  0  0
  152.4436  138.8508  153.9095 H   0  0  0  0  0  0  0  0  0  0  0  0
  153.6257  137.8213  154.7284 H   0  0  0  0  0  0  0  0  0  0  0  0
  153.8059  139.5762  154.7642 H   0  0  0  0  0  0  0  0  0  0  0  0
  152.8181  142.4674  157.5690 H   0  0  0  0  0  0  0  0  0  0  0  0
  151.1511  142.7207  158.1095 H   0  0  0  0  0  0  0  0  0  0  0  0
  153.1440  144.1313  159.3005 H   0  0  0  0  0  0  0  0  0  0  0  0
  151.8430  143.4451  160.2769 H   0  0  0  0  0  0  0  0  0  0  0  0
  154.6011  142.2790  159.8088 H   0  0  0  0  0  0  0  0  0  0  0  0
  153.7644  142.4469  161.3514 H   0  0  0  0  0  0  0  0  0  0  0  0
  152.4071  140.5351  160.9048 H   0  0  0  0  0  0  0  0  0  0  0  0
  153.7756  140.0996  159.8721 H   0  0  0  0  0  0  0  0  0  0  0  0
  150.1906  139.1356  159.2789 H   0  0  0  0  0  0  0  0  0  0  0  0
  149.6805  137.2964  157.7509 H   0  0  0  0  0  0  0  0  0  0  0  0
  151.6252  136.8730  154.5245 H   0  0  0  0  0  0  0  0  0  0  0  0
  150.8956  135.3030  153.5288 H   0  0  0  0  0  0  0  0  0  0  0  0
  149.7190  133.4677  152.9162 H   0  0  0  0  0  0  0  0  0  0  0  0
  150.9342  132.4093  154.7649 H   0  0  0  0  0  0  0  0  0  0  0  0
  149.7559  132.9861  155.9229 H   0  0  0  0  0  0  0  0  0  0  0  0
  149.2187  130.9825  153.6654 H   0  0  0  0  0  0  0  0  0  0  0  0
  149.2578  130.6443  155.3776 H   0  0  0  0  0  0  0  0  0  0  0  0
  146.1289  132.9616  154.1969 H   0  0  0  0  0  0  0  0  0  0  0  0
  148.0221  131.8373  152.0737 H   0  0  0  0  0  0  0  0  0  0  0  0
  145.6878  133.8545  151.7477 H   0  0  0  0  0  0  0  0  0  0  0  0
  146.6636  133.0612  150.4059 H   0  0  0  0  0  0  0  0  0  0  0  0
  145.9439  130.7917  151.2201 H   0  0  0  0  0  0  0  0  0  0  0  0
  144.9641  131.5851  152.5594 H   0  0  0  0  0  0  0  0  0  0  0  0
  147.7593  134.4611  155.0451 H   0  0  0  0  0  0  0  0  0  0  0  0
  147.6350  134.7905  153.3371 H   0  0  0  0  0  0  0  0  0  0  0  0
  1  2  1  0  0  0  0
  1 26  1  0  0  0  0
  1 27  1  0  0  0  0
  1 28  1  0  0  0  0
  2 12  1  0  0  0  0
  2  3  2  0  0  0  0
  3  4  1  0  0  0  0
  4  5  1  0  0  0  0
  4 10  2  0  0  0  0
  5  9  1  0  0  0  0
  5  6  1  0  0  0  0
  6  7  1  0  0  0  0
  6 29  1  0  0  0  0
  6 30  1  0  0  0  0
  7  8  1  0  0  0  0
  7 31  1  0  0  0  0
  7 32  1  0  0  0  0
  8  9  1  0  0  0  0
  8 33  1  0  0  0  0
  8 34  1  0  0  0  0
  9 35  1  0  0  0  0
  9 36  1  0  0  0  0
 10 11  1  0  0  0  0
 10 37  1  0  0  0  0
 11 12  2  0  0  0  0
 11 38  1  0  0  0  0
 12 13  1  0  0  0  0
 13 14  1  0  0  0  0
 13 39  1  0  0  0  0
 14 15  2  0  0  0  0
 14 16  1  0  0  0  0
 16 17  1  0  0  0  0
 16 40  1  0  0  0  0
 17 25  1  0  0  0  0
 17 18  1  0  0  0  0
 17 41  1  0  0  0  0
 18 19  1  0  0  0  0
 18 42  1  0  0  0  0
 18 43  1  0  0  0  0
 19 20  1  0  0  0  0
 19 44  1  0  0  0  0
 19 45  1  0  0  0  0
 20 21  1  0  0  0  0
 21 22  1  0  0  0  0
 21 25  1  0  0  0  0
 21 46  1  0  0  0  0
 22 24  1  0  0  0  0
 22 23  1  0  0  0  0
 22 47  1  0  0  0  0
 23 24  1  0  0  0  0
 23 48  1  0  0  0  0
 23 49  1  0  0  0  0
 24 50  1  0  0  0  0
 24 51  1  0  0  0  0
 25 52  1  0  0  0  0
 25 53  1  0  0  0  0
M  END
> <s_m_source_file>
AV-unprocessed.smi

> <i_m_source_file_index>
2356

> <i_lp_mmshare_version>
43012

> <i_f3d_flags>
0

> <s_epik_input>
W0NIMl0xW0NIMl1bQ0gyXVtDSDJdTjFjKG5jMltDSDNdKVtjSF1bY0hdYzJbTkhdQyg9TylbTkhdW0NAQEhdM1tDSDJdW0NIMl1PW0NASF0oW0NIMl0zKVtDSF00W0NIMl1bQ0gyXTQ=

> <s_epik_cmdline>
J2VwaWtfcHl0aG9uJywgJy1waCcsICc3LjAnLCAnLXRuJywgJzgnLCAnLW1hJywgJzIwMCcsICctbWV0YWxfYmluZGluZycsICctaW1hZScsICc8aW5maWxlLm1hZT4nLCAnLW9tYWUnLCAnPG91dGZpbGUubWFlPic=

> <r_lp_tautomer_probability>
1

> <r_epik_Ionization_Penalty>
0.308781

> <r_epik_Ionization_Penalty_Charging>
0

> <r_epik_Ionization_Penalty_Neutral>
0.308781

> <r_epik_State_Penalty>
0.302092

> <r_epik_Charging_Adjusted_Penalty>
0.302092

> <i_epik_Tot_Q>
0

> <i_epik_Tot_abs_Q>
0

> <r_epik_Metal_State_Penalty>
0.197467

> <b_epik_Metal_Only>
0

> <s_lp_Force_Field>
OPLS_2005

> <r_lp_Energy>
54.1465

> <b_lp_Chiralities_Consistent>
1

> <s_lp_Variant>
AV-unprocessed.smi:2356-4

> <Gold.Version>
5.8.1

> <Gold.Id.Protein>
6NUR|6NUR_protein|mol2

> <Gold.PLP.Fitness>
43.9606

> <Gold.PLP.PLP>
-41.9300

> <Gold.PLP.part.hbond>
-3.0000

> <Gold.PLP.part.metal>
0.0000

> <Gold.PLP.part.buried>
-2.3098

> <Gold.PLP.part.nonpolar>
-35.8048

> <Gold.PLP.part.repulsive>
0.2026

> <Gold.PLP.ligand.clash>
0.0000

> <Gold.PLP.ligand.torsion>
1.8438

> <Gold.PLP.Chemscore.Hbond>
1.4737

> <Gold.PLP.Chemscore.CHOScore>
0.0000

> <Gold.PLP.Chemscore.Metal>
0.0000

> <Gold.Chemscore.Hbonds>
donor molecule, donor type, donor heavy atom, donor atom, acceptor molecule, acceptor atom, score
      L1  H    16    40       P1  7949  0.40
      P1  H  7997  8008       L1     3  1.00

> <Gold.PLP.Chemscore.Internal.Correction>
1.2972

> <Gold.Rescore>
     Score         DG    S(hbond)    S(metal)    S(lipo)     H(rot)  DE(clash)    DE(int)     intcor
     14.55     -18.59       0.82        0.00     113.50       1.14       0.25       3.79       ----

> <Gold.Chemscore.Fitness>
14.5494

> <Gold.Chemscore.DG>
-18.5898

> <Gold.Chemscore.ZeroCoef>
-5.4800

> <Gold.Chemscore.Hbond>
0.8224

> <Gold.Chemscore.Metal>
0.0000

> <Gold.Chemscore.Lipo>
113.5050

> <Gold.Chemscore.Internal_Hbond>
0.0000

> <Gold.Chemscore.DEClash>
0.2481

> <Gold.Chemscore.DEInternal>
3.7922

> <Gold.Chemscore.Rot>
1.1395

> <Gold.Chemscore.Internal.Correction>
   9.000000E+99

> <Gold.Chemscore.Hbonds>
donor molecule, donor type, donor heavy atom, donor atom, acceptor molecule, acceptor atom, score
      L1  H    16    40       P1  7949  0.03
      P1  H  7997  8008       L1     3  0.30

> <Gold.Chemscore.Hbond.Weighted>
-2.7468

> <Gold.Chemscore.Metal.Weighted>
-0.0000

> <Gold.Chemscore.Lipo.Weighted>
-13.2801

> <Gold.Chemscore.Internal_Hbond.Weighted>
0.0000

> <Gold.Chemscore.DEClash.Weighted>
0.2481

> <Gold.Chemscore.DEInternal.Weighted>
3.7922

> <Gold.Chemscore.Rot.Weighted>
2.9171

> <Gold.Chemscore.Internal.Correction.Weighted>
   9.000000E+99

> <Gold.Protein.RotatedTorsions>
[ 6907 6896 6895 6894 ] final  -70.17 input  -60.11 | X-H torsion
[ 7974 7965 7964 7962 ] final -166.71 input  175.53 | X-H torsion
[ 8008 7997 7996 7995 ] final  -53.55 input   59.86 | X-H torsion
[ 10167 10162 10161 10158 ] final  -72.12 input  -65.29 | X-H torsion
[ 10718 10713 10712 10709 ] final  101.62 input   66.30 | X-H torsion
[ 10763 10752 10751 10750 ] final  177.62 input  -60.55 | X-H torsion
[ 11005 11000 10999 10996 ] final   18.11 input  -57.11 | X-H torsion

> <Gold.Protein.ActiveResidues>
 VAL166  LYS551  ARG553  GLY616  TRP617  ASP618  TYR619  PRO620  LYS621  CYS622 
 ASP623  PHE694  ASN695  SER759  ASP760  ASP761  ALA762  ILE779  LEU786  VAL792 
 PHE793  MET794  SER795  GLU796  ALA797  LYS798  CYS799  TRP800  GLU811  SER814 

> <Gold.Protein.RotatedAtoms>
  150.7270  134.5492  159.5785 H   0  0  0  0  0  0  0  0  0  0  0  0  # atno 6907 bound_to 6896
  152.2983  134.7638  160.0372 H   0  0  0  0  0  0  0  0  0  0  0  0  # atno 6908 bound_to 6896
  151.8227  133.3361  159.3626 H   0  0  0  0  0  0  0  0  0  0  0  0  # atno 6909 bound_to 6896
  144.7239  140.2626  143.6262 H   0  0  0  0  0  0  0  0  0  0  0  0  # atno 7974 bound_to 7965
  154.4136  140.1197  156.5172 H   0  0  0  0  0  0  0  0  0  0  0  0  # atno 8008 bound_to 7997
  155.6739  140.3496  155.4809 H   0  0  0  0  0  0  0  0  0  0  0  0  # atno 8009 bound_to 7997
  155.9609  140.1123  157.0886 H   0  0  0  0  0  0  0  0  0  0  0  0  # atno 8010 bound_to 7997
  140.5218  143.2331  151.7416 H   0  0  0  0  0  0  0  0  0  0  0  0  # atno 10167 bound_to 10162
  157.6824  131.0731  150.5280 H   0  0  0  0  0  0  0  0  0  0  0  0  # atno 10718 bound_to 10713
  154.4968  135.2781  155.1452 H   0  0  0  0  0  0  0  0  0  0  0  0  # atno 10763 bound_to 10752
  154.3102  135.6230  153.5466 H   0  0  0  0  0  0  0  0  0  0  0  0  # atno 10764 bound_to 10752
  152.9896  135.5718  154.5402 H   0  0  0  0  0  0  0  0  0  0  0  0  # atno 10765 bound_to 10752
  140.4284  134.1445  155.7678 H   0  0  0  0  0  0  0  0  0  0  0  0  # atno 11005 bound_to 11000
  145.8121  139.2007  143.1987 LP  0  0  0  0  0  0  0  0  0  0  0  0  # atno 17320 bound_to 7965
  146.0587  140.7993  142.9745 LP  0  0  0  0  0  0  0  0  0  0  0  0  # atno 17321 bound_to 7965
  139.4926  144.4243  151.9943 LP  0  0  0  0  0  0  0  0  0  0  0  0  # atno 17342 bound_to 10162
  140.3340  144.3282  150.5981 LP  0  0  0  0  0  0  0  0  0  0  0  0  # atno 17343 bound_to 10162
  156.5591  130.4251  149.6071 LP  0  0  0  0  0  0  0  0  0  0  0  0  # atno 17370 bound_to 10713
  156.2836  130.7085  151.1916 LP  0  0  0  0  0  0  0  0  0  0  0  0  # atno 17371 bound_to 10713
  141.1755  133.8522  157.1433 LP  0  0  0  0  0  0  0  0  0  0  0  0  # atno 17394 bound_to 11000
  140.0151  134.9971  157.0476 LP  0  0  0  0  0  0  0  0  0  0  0  0  # atno 17395 bound_to 11000

$$$$
