AV-unprocessed.smi:102|AV-procd|sdf|955|dock2
  -GOLD-   2262017493D 1   1.00000     0.00000
 Structure written by MMmdl.
 44 45  0  0  0  0  0  0  0  0  1 V2000
  149.8203  132.0375  155.4003 C   0  0  0  0  0  0  0  0  0  0  0  0
  149.7827  132.4438  156.8675 C   0  0  0  0  0  0  0  0  0  0  0  0
  150.7561  132.9568  157.4190 O   0  0  0  0  0  0  0  0  0  0  0  0
  148.6006  132.1786  157.4391 O   0  0  0  0  0  0  0  0  0  0  0  0
  148.1397  132.9762  158.5193 C   0  0  0  0  0  0  0  0  0  0  0  0
  147.7276  134.3699  158.0182 C   0  0  2  0  0  0  0  0  0  0  0  0
  148.7971  135.0116  157.3460 O   0  0  0  0  0  0  0  0  0  0  0  0
  148.5230  136.3744  157.2842 C   0  0  2  0  0  0  0  0  0  0  0  0
  149.8378  137.1184  157.3027 N   0  0  0  0  0  0  0  0  0  0  0  0
  150.3470  137.6685  156.1346 C   0  0  0  0  0  0  0  0  0  0  0  0
  151.5381  138.3104  156.0798 C   0  0  0  0  0  0  0  0  0  0  0  0
  151.9627  138.8222  154.9120 F   0  0  0  0  0  0  0  0  0  0  0  0
  152.3669  138.4454  157.2741 C   0  0  0  0  0  0  0  0  0  0  0  0
  153.4562  139.0129  157.3256 O   0  0  0  0  0  0  0  0  0  0  0  0
  151.8275  137.8547  158.4203 N   0  0  0  0  0  0  0  0  0  0  0  0
  150.6051  137.1847  158.4893 C   0  0  0  0  0  0  0  0  0  0  0  0
  150.2442  136.6795  159.5511 O   0  0  0  0  0  0  0  0  0  0  0  0
  147.6160  136.7389  158.4765 C   0  0  1  0  0  0  0  0  0  0  0  0
  146.4774  137.4609  158.0250 O   0  0  0  0  0  0  0  0  0  0  0  0
  146.4833  138.8056  158.0407 C   0  0  0  0  0  0  0  0  0  0  0  0
  145.1336  139.3970  157.6573 C   0  0  0  0  0  0  0  0  0  0  0  0
  147.4405  139.5225  158.3326 O   0  0  0  0  0  0  0  0  0  0  0  0
  147.2151  135.3837  159.0558 C   0  0  2  0  0  0  0  0  0  0  0  0
  147.8058  135.2614  160.3455 O   0  0  0  0  0  0  0  0  0  0  0  0
  147.5472  136.1585  161.3132 C   0  0  0  0  0  0  0  0  0  0  0  0
  147.6214  135.5441  162.7045 C   0  0  0  0  0  0  0  0  0  0  0  0
  147.2679  137.3459  161.1494 O   0  0  0  0  0  0  0  0  0  0  0  0
  152.3730  137.9096  159.2681 H   0  0  0  0  0  0  0  0  0  0  0  0
  148.8511  132.2089  154.9310 H   0  0  0  0  0  0  0  0  0  0  0  0
  150.0681  130.9801  155.3084 H   0  0  0  0  0  0  0  0  0  0  0  0
  150.5707  132.6180  154.8632 H   0  0  0  0  0  0  0  0  0  0  0  0
  147.2871  132.4804  158.9845 H   0  0  0  0  0  0  0  0  0  0  0  0
  148.9145  133.0744  159.2812 H   0  0  0  0  0  0  0  0  0  0  0  0
  146.9360  134.2397  157.2789 H   0  0  0  0  0  0  0  0  0  0  0  0
  148.0548  136.5890  156.3220 H   0  0  0  0  0  0  0  0  0  0  0  0
  149.7758  137.5919  155.2206 H   0  0  0  0  0  0  0  0  0  0  0  0
  148.1764  137.3326  159.2000 H   0  0  0  0  0  0  0  0  0  0  0  0
  144.7725  138.9520  156.7299 H   0  0  0  0  0  0  0  0  0  0  0  0
  145.2145  140.4747  157.5141 H   0  0  0  0  0  0  0  0  0  0  0  0
  144.4015  139.2068  158.4423 H   0  0  0  0  0  0  0  0  0  0  0  0
  146.1289  135.3126  159.1304 H   0  0  0  0  0  0  0  0  0  0  0  0
  147.2362  134.5243  162.6934 H   0  0  0  0  0  0  0  0  0  0  0  0
  147.0306  136.1271  163.4112 H   0  0  0  0  0  0  0  0  0  0  0  0
  148.6545  135.5213  163.0510 H   0  0  0  0  0  0  0  0  0  0  0  0
  1  2  1  0  0  0  0
  1 29  1  0  0  0  0
  1 30  1  0  0  0  0
  1 31  1  0  0  0  0
  2  3  2  0  0  0  0
  2  4  1  0  0  0  0
  4  5  1  0  0  0  0
  5  6  1  0  0  0  0
  5 32  1  0  0  0  0
  5 33  1  0  0  0  0
  6 23  1  0  0  0  0
  6  7  1  0  0  0  0
  6 34  1  0  0  0  0
  7  8  1  0  0  0  0
  8  9  1  0  0  0  0
  8 18  1  0  0  0  0
  8 35  1  0  0  0  0
  9 16  1  0  0  0  0
  9 10  1  0  0  0  0
 10 11  2  0  0  0  0
 10 36  1  0  0  0  0
 11 12  1  0  0  0  0
 11 13  1  0  0  0  0
 13 14  2  0  0  0  0
 13 15  1  0  0  0  0
 15 28  1  0  0  0  0
 15 16  1  0  0  0  0
 16 17  2  0  0  0  0
 18 19  1  0  0  0  0
 18 23  1  0  0  0  0
 18 37  1  0  0  0  0
 19 20  1  0  0  0  0
 20 21  1  0  0  0  0
 20 22  2  0  0  0  0
 21 38  1  0  0  0  0
 21 39  1  0  0  0  0
 21 40  1  0  0  0  0
 23 24  1  0  0  0  0
 23 41  1  0  0  0  0
 24 25  1  0  0  0  0
 25 26  1  0  0  0  0
 25 27  2  0  0  0  0
 26 42  1  0  0  0  0
 26 43  1  0  0  0  0
 26 44  1  0  0  0  0
M  END
> <s_m_source_file>
AV-unprocessed.smi

> <i_m_source_file_index>
102

> <i_lp_mmshare_version>
43012

> <i_f3d_flags>
0

> <s_epik_input>
W0NIM11DKD1PKU9bQ0gyXVtDQEBIXTFPW0NASF0oW0NAQEhdKE9DKD1PKVtDSDNdKVtDQEhdMU9DKD1PKVtDSDNdKW4yW2NIXWMoRiljKD1PKVtuSF1jMj1P

> <s_epik_cmdline>
J2VwaWtfcHl0aG9uJywgJy1waCcsICc3LjAnLCAnLXRuJywgJzgnLCAnLW1hJywgJzIwMCcsICctbWV0YWxfYmluZGluZycsICctaW1hZScsICc8aW5maWxlLm1hZT4nLCAnLW9tYWUnLCAnPG91dGZpbGUubWFlPic=

> <r_lp_tautomer_probability>
0.999537

> <r_epik_Ionization_Penalty>
0.058267

> <r_epik_Ionization_Penalty_Charging>
0.058267

> <r_epik_Ionization_Penalty_Neutral>
6.57791e-16

> <r_epik_State_Penalty>
0.0503774

> <r_epik_Charging_Adjusted_Penalty>
0.108644

> <i_epik_Tot_Q>
0

> <i_epik_Tot_abs_Q>
0

> <r_epik_Metal_State_Penalty>
2.6644

> <b_epik_Metal_Only>
0

> <s_epik_Chemistry_Notes>
This compound has an ester and may undergo hydrolysis at high or low pH. This compound contains an acetal/aminal-like group ( X-CH(R)-Y where X, Y are N, S, or O) that may be acid/base labile, releasing an aldehyde.

> <s_lp_Force_Field>
OPLS_2005

> <r_lp_Energy>
7.073

> <b_lp_Chiralities_Consistent>
1

> <s_lp_Variant>
AV-unprocessed.smi:102-11

> <Gold.Version>
5.8.1

> <Gold.Id.Protein>
6NUR|6NUR_protein|mol2

> <Gold.PLP.Fitness>
38.0461

> <Gold.PLP.PLP>
-27.0498

> <Gold.PLP.part.hbond>
-5.7492

> <Gold.PLP.part.metal>
0.0000

> <Gold.PLP.part.buried>
-4.7883

> <Gold.PLP.part.nonpolar>
-17.0969

> <Gold.PLP.part.repulsive>
0.0850

> <Gold.PLP.ligand.clash>
0.0000

> <Gold.PLP.ligand.torsion>
1.5936

> <Gold.PLP.Chemscore.Hbond>
4.6864

> <Gold.PLP.Chemscore.CHOScore>
0.0000

> <Gold.PLP.Chemscore.Metal>
0.0000

> <Gold.Chemscore.Hbonds>
donor molecule, donor type, donor heavy atom, donor atom, acceptor molecule, acceptor atom, score
      P1  H  6896  6907       L1     3  1.00
      P1  H  6896  6908       L1    17  1.00
      P1  H  6931  6943       L1    27  0.60
      P1  H  6934  6947       L1    27  1.00
      P1  H  7997  8008       L1    14  1.00

> <Gold.PLP.Chemscore.Internal.Correction>
0.1244

> <Gold.Rescore>
     Score         DG    S(hbond)    S(metal)    S(lipo)     H(rot)  DE(clash)    DE(int)     intcor
      5.34     -13.55       4.40        0.00      32.14       4.05       0.07       8.13       ----

> <Gold.Chemscore.Fitness>
5.3432

> <Gold.Chemscore.DG>
-13.5473

> <Gold.Chemscore.ZeroCoef>
-5.4800

> <Gold.Chemscore.Hbond>
4.3951

> <Gold.Chemscore.Metal>
0.0000

> <Gold.Chemscore.Lipo>
32.1428

> <Gold.Chemscore.Internal_Hbond>
0.0000

> <Gold.Chemscore.DEClash>
0.0697

> <Gold.Chemscore.DEInternal>
8.1344

> <Gold.Chemscore.Rot>
4.0520

> <Gold.Chemscore.Internal.Correction>
   9.000000E+99

> <Gold.Chemscore.Hbonds>
donor molecule, donor type, donor heavy atom, donor atom, acceptor molecule, acceptor atom, score
      P1  H  6896  6907       L1     3  0.96
      P1  H  6896  6908       L1    17  0.82
      P1  H  6931  6943       L1    27  0.17
      P1  H  6934  6947       L1    27  0.98
      P1  H  7997  8008       L1    14  0.94

> <Gold.Chemscore.Hbond.Weighted>
-14.6798

> <Gold.Chemscore.Metal.Weighted>
-0.0000

> <Gold.Chemscore.Lipo.Weighted>
-3.7607

> <Gold.Chemscore.Internal_Hbond.Weighted>
0.0000

> <Gold.Chemscore.DEClash.Weighted>
0.0697

> <Gold.Chemscore.DEInternal.Weighted>
8.1344

> <Gold.Chemscore.Rot.Weighted>
10.3732

> <Gold.Chemscore.Internal.Correction.Weighted>
   9.000000E+99

> <Gold.Protein.RotatedTorsions>
[ 6907 6896 6895 6894 ] final -155.18 input  -60.11 | X-H torsion
[ 7974 7965 7964 7962 ] final   47.56 input  175.53 | X-H torsion
[ 8008 7997 7996 7995 ] final  -87.52 input   59.86 | X-H torsion
[ 10167 10162 10161 10158 ] final -126.24 input  -65.29 | X-H torsion
[ 10718 10713 10712 10709 ] final  -70.49 input   66.30 | X-H torsion
[ 10763 10752 10751 10750 ] final   78.98 input  -60.55 | X-H torsion
[ 11005 11000 10999 10996 ] final  -18.51 input  -57.11 | X-H torsion

> <Gold.Protein.ActiveResidues>
 VAL166  LYS551  ARG553  GLY616  TRP617  ASP618  TYR619  PRO620  LYS621  CYS622 
 ASP623  PHE694  ASN695  SER759  ASP760  ASP761  ALA762  ILE779  LEU786  VAL792 
 PHE793  MET794  SER795  GLU796  ALA797  LYS798  CYS799  TRP800  GLU811  SER814 

> <Gold.Protein.RotatedAtoms>
  151.2686  133.4266  159.2619 H   0  0  0  0  0  0  0  0  0  0  0  0  # atno 6907 bound_to 6896
  151.0465  134.9644  159.8199 H   0  0  0  0  0  0  0  0  0  0  0  0  # atno 6908 bound_to 6896
  152.5375  134.2642  159.8999 H   0  0  0  0  0  0  0  0  0  0  0  0  # atno 6909 bound_to 6896
  146.0286  139.4736  142.9852 H   0  0  0  0  0  0  0  0  0  0  0  0  # atno 7974 bound_to 7965
  154.6641  140.0565  157.0095 H   0  0  0  0  0  0  0  0  0  0  0  0  # atno 8008 bound_to 7997
  155.1184  140.3245  155.4485 H   0  0  0  0  0  0  0  0  0  0  0  0  # atno 8009 bound_to 7997
  156.2631  140.2002  156.6307 H   0  0  0  0  0  0  0  0  0  0  0  0  # atno 8010 bound_to 7997
  139.9735  143.5819  152.2404 H   0  0  0  0  0  0  0  0  0  0  0  0  # atno 10167 bound_to 10162
  156.0406  130.4332  150.2303 H   0  0  0  0  0  0  0  0  0  0  0  0  # atno 10718 bound_to 10713
  153.0916  135.4857  154.8701 H   0  0  0  0  0  0  0  0  0  0  0  0  # atno 10763 bound_to 10752
  154.7276  135.3053  154.8947 H   0  0  0  0  0  0  0  0  0  0  0  0  # atno 10764 bound_to 10752
  153.9593  135.6814  153.4798 H   0  0  0  0  0  0  0  0  0  0  0  0  # atno 10765 bound_to 10752
  140.8275  133.8021  155.9724 H   0  0  0  0  0  0  0  0  0  0  0  0  # atno 11005 bound_to 11000
  145.7077  141.0116  143.1470 LP  0  0  0  0  0  0  0  0  0  0  0  0  # atno 17320 bound_to 7965
  144.7020  139.8720  143.7441 LP  0  0  0  0  0  0  0  0  0  0  0  0  # atno 17321 bound_to 7965
  139.6463  144.7658  151.2237 LP  0  0  0  0  0  0  0  0  0  0  0  0  # atno 17342 bound_to 10162
  140.7514  143.6234  150.8492 LP  0  0  0  0  0  0  0  0  0  0  0  0  # atno 17343 bound_to 10162
  157.0398  131.0032  151.3287 LP  0  0  0  0  0  0  0  0  0  0  0  0  # atno 17370 bound_to 10713
  157.5217  130.8002  149.7817 LP  0  0  0  0  0  0  0  0  0  0  0  0  # atno 17371 bound_to 10713
  140.9033  134.2351  157.5029 LP  0  0  0  0  0  0  0  0  0  0  0  0  # atno 17394 bound_to 11000
  139.8706  134.9716  156.4745 LP  0  0  0  0  0  0  0  0  0  0  0  0  # atno 17395 bound_to 11000

$$$$
