AV-unprocessed.smi:282|AV-procd|sdf|2117|dock3
  -GOLD-   2262021413D 1   1.00000     0.00000
 Structure written by MMmdl.
 65 69  0  0  0  0  0  0  0  0  2 V2000
  148.2189  140.7109  154.7491 C   0  0  0  0  0  0  0  0  0  0  0  0
  148.1788  141.7027  155.9190 C   0  0  0  0  0  0  0  0  0  0  0  0
  148.7182  141.1123  157.2402 C   0  0  2  0  0  0  0  0  0  0  0  0
  148.8756  142.1912  158.3323 C   0  0  0  0  0  0  0  0  0  0  0  0
  150.0180  143.1008  158.0568 N   0  3  1  0  0  0  0  0  0  0  0  0
  150.1298  144.1763  159.0751 C   0  0  0  0  0  0  0  0  0  0  0  0
  151.2370  145.1776  158.7100 C   0  0  0  0  0  0  0  0  0  0  0  0
  152.5796  144.4614  158.5220 C   0  0  0  0  0  0  0  0  0  0  0  0
  152.4345  143.3445  157.4805 C   0  0  0  0  0  0  0  0  0  0  0  0
  151.3030  142.3688  157.8580 C   0  0  2  0  0  0  0  0  0  0  0  0
  151.1480  141.2687  156.7863 C   0  0  0  0  0  0  0  0  0  0  0  0
  149.9924  140.4110  157.0563 N   0  0  0  0  0  0  0  0  0  0  0  0
  150.1747  139.2770  157.7870 C   0  0  0  0  0  0  0  0  0  0  0  0
  151.4346  138.8661  158.0927 N   0  0  0  0  0  0  0  0  0  0  0  0
  151.6322  137.7537  158.8052 C   0  0  0  0  0  0  0  0  0  0  0  0
  150.7263  136.9133  159.3056 N   0  0  0  0  0  0  0  0  0  0  0  0
  149.4583  137.3148  159.0064 C   0  0  0  0  0  0  0  0  0  0  0  0
  149.0971  138.4701  158.2552 C   0  0  0  0  0  0  0  0  0  0  0  0
  147.7146  138.5361  158.1331 N   0  0  0  0  0  0  0  0  0  0  0  0
  147.2843  137.4879  158.7795 C   0  0  0  0  0  0  0  0  0  0  0  0
  148.2630  136.7063  159.3515 N   0  0  0  0  0  0  0  0  0  0  0  0
  148.0609  135.4804  160.1126 C   0  0  0  0  0  0  0  0  0  0  0  0
  147.1261  135.6158  161.3573 C   0  0  0  0  0  0  0  0  0  0  0  0
  147.3288  136.9833  162.0630 C   0  0  0  0  0  0  0  0  0  0  0  0
  148.6057  137.0945  162.6597 O   0  0  0  0  0  0  0  0  0  0  0  0
  145.6433  135.4778  160.9292 C   0  0  0  0  0  0  0  0  0  0  0  0
  145.2694  134.0406  160.5232 C   0  0  0  0  0  0  0  0  0  0  0  0
  145.5576  133.1437  161.5880 O   0  0  0  0  0  0  0  0  0  0  0  0
  146.9389  133.1122  161.9235 C   0  0  0  0  0  0  0  0  0  0  0  0
  147.3932  134.5036  162.4024 C   0  0  0  0  0  0  0  0  0  0  0  0
  147.8218  141.1659  153.8415 H   0  0  0  0  0  0  0  0  0  0  0  0
  147.6209  139.8251  154.9641 H   0  0  0  0  0  0  0  0  0  0  0  0
  149.2372  140.3845  154.5363 H   0  0  0  0  0  0  0  0  0  0  0  0
  148.7221  142.6076  155.6469 H   0  0  0  0  0  0  0  0  0  0  0  0
  147.1434  142.0124  156.0643 H   0  0  0  0  0  0  0  0  0  0  0  0
  147.9597  140.4203  157.6040 H   0  0  0  0  0  0  0  0  0  0  0  0
  147.9545  142.7685  158.4237 H   0  0  0  0  0  0  0  0  0  0  0  0
  149.0367  141.7089  159.2979 H   0  0  0  0  0  0  0  0  0  0  0  0
  149.1780  144.7030  159.1554 H   0  0  0  0  0  0  0  0  0  0  0  0
  150.3308  143.7342  160.0524 H   0  0  0  0  0  0  0  0  0  0  0  0
  150.9692  145.7046  157.7933 H   0  0  0  0  0  0  0  0  0  0  0  0
  151.3252  145.9358  159.4888 H   0  0  0  0  0  0  0  0  0  0  0  0
  153.3462  145.1713  158.2100 H   0  0  0  0  0  0  0  0  0  0  0  0
  152.9111  144.0405  159.4722 H   0  0  0  0  0  0  0  0  0  0  0  0
  152.2336  143.7844  156.5024 H   0  0  0  0  0  0  0  0  0  0  0  0
  153.3775  142.8043  157.3886 H   0  0  0  0  0  0  0  0  0  0  0  0
  151.5609  141.8960  158.8070 H   0  0  0  0  0  0  0  0  0  0  0  0
  151.0142  141.7233  155.8046 H   0  0  0  0  0  0  0  0  0  0  0  0
  152.0623  140.6787  156.7073 H   0  0  0  0  0  0  0  0  0  0  0  0
  152.6637  137.4993  159.0009 H   0  0  0  0  0  0  0  0  0  0  0  0
  146.2323  137.2550  158.8580 H   0  0  0  0  0  0  0  0  0  0  0  0
  147.6551  134.7347  159.4278 H   0  0  0  0  0  0  0  0  0  0  0  0
  149.0425  135.1013  160.3934 H   0  0  0  0  0  0  0  0  0  0  0  0
  147.2229  137.8014  161.3495 H   0  0  0  0  0  0  0  0  0  0  0  0
  146.5685  137.1491  162.8266 H   0  0  0  0  0  0  0  0  0  0  0  0
  149.0537  136.2677  162.5659 H   0  0  0  0  0  0  0  0  0  0  0  0
  144.9958  135.7742  161.7555 H   0  0  0  0  0  0  0  0  0  0  0  0
  145.4154  136.1604  160.1097 H   0  0  0  0  0  0  0  0  0  0  0  0
  144.2033  133.9847  160.3027 H   0  0  0  0  0  0  0  0  0  0  0  0
  145.7903  133.7311  159.6166 H   0  0  0  0  0  0  0  0  0  0  0  0
  147.0855  132.3816  162.7190 H   0  0  0  0  0  0  0  0  0  0  0  0
  147.5242  132.7648  161.0722 H   0  0  0  0  0  0  0  0  0  0  0  0
  148.4439  134.4795  162.6892 H   0  0  0  0  0  0  0  0  0  0  0  0
  146.8475  134.7312  163.3194 H   0  0  0  0  0  0  0  0  0  0  0  0
  149.8117  143.5557  157.1792 H   0  0  0  0  0  0  0  0  0  0  0  0
  1  2  1  0  0  0  0
  1 31  1  0  0  0  0
  1 32  1  0  0  0  0
  1 33  1  0  0  0  0
  2  3  1  0  0  0  0
  2 34  1  0  0  0  0
  2 35  1  0  0  0  0
  3 12  1  0  0  0  0
  3  4  1  0  0  0  0
  3 36  1  0  0  0  0
  4  5  1  0  0  0  0
  4 37  1  0  0  0  0
  4 38  1  0  0  0  0
  5 10  1  0  0  0  0
  5  6  1  0  0  0  0
  5 65  1  0  0  0  0
  6  7  1  0  0  0  0
  6 39  1  0  0  0  0
  6 40  1  0  0  0  0
  7  8  1  0  0  0  0
  7 41  1  0  0  0  0
  7 42  1  0  0  0  0
  8  9  1  0  0  0  0
  8 43  1  0  0  0  0
  8 44  1  0  0  0  0
  9 10  1  0  0  0  0
  9 45  1  0  0  0  0
  9 46  1  0  0  0  0
 10 11  1  0  0  0  0
 10 47  1  0  0  0  0
 11 12  1  0  0  0  0
 11 48  1  0  0  0  0
 11 49  1  0  0  0  0
 12 13  1  0  0  0  0
 13 18  1  0  0  0  0
 13 14  2  0  0  0  0
 14 15  1  0  0  0  0
 15 16  2  0  0  0  0
 15 50  1  0  0  0  0
 16 17  1  0  0  0  0
 17 21  1  0  0  0  0
 17 18  2  0  0  0  0
 18 19  1  0  0  0  0
 19 20  2  0  0  0  0
 20 21  1  0  0  0  0
 20 51  1  0  0  0  0
 21 22  1  0  0  0  0
 22 23  1  0  0  0  0
 22 52  1  0  0  0  0
 22 53  1  0  0  0  0
 23 30  1  0  0  0  0
 23 24  1  0  0  0  0
 23 26  1  0  0  0  0
 24 25  1  0  0  0  0
 24 54  1  0  0  0  0
 24 55  1  0  0  0  0
 25 56  1  0  0  0  0
 26 27  1  0  0  0  0
 26 57  1  0  0  0  0
 26 58  1  0  0  0  0
 27 28  1  0  0  0  0
 27 59  1  0  0  0  0
 27 60  1  0  0  0  0
 28 29  1  0  0  0  0
 29 30  1  0  0  0  0
 29 61  1  0  0  0  0
 29 62  1  0  0  0  0
 30 63  1  0  0  0  0
 30 64  1  0  0  0  0
M  CHG  1   5   1
M  END
> <s_m_source_file>
AV-unprocessed.smi

> <i_m_source_file_index>
282

> <i_lp_mmshare_version>
43012

> <i_f3d_flags>
0

> <s_epik_input>
W0NIMl0xW0NIMl1bQ0gyXVtDSDJdW0NAQEhdKE4xMilbQ0gyXU4oW0NAQEhdKFtDSDJdMilbQ0gyXVtDSDNdKWMobltjSF1uMyljKGMzNCluW2NIXW40W0NIMl1DNShbQ0gyXVtPSF0pW0NIMl1bQ0gyXU9bQ0gyXVtDSDJdNQ==

> <s_epik_cmdline>
J2VwaWtfcHl0aG9uJywgJy1waCcsICc3LjAnLCAnLXRuJywgJzgnLCAnLW1hJywgJzIwMCcsICctbWV0YWxfYmluZGluZycsICctaW1hZScsICc8aW5maWxlLm1hZT4nLCAnLW9tYWUnLCAnPG91dGZpbGUubWFlPic=

> <r_lp_tautomer_probability>
1

> <r_epik_Ionization_Penalty>
0.00308583

> <r_epik_Ionization_Penalty_Charging>
0.00300384

> <r_epik_Ionization_Penalty_Neutral>
8.19894e-05

> <r_epik_State_Penalty>
-0

> <r_epik_Charging_Adjusted_Penalty>
0.00300384

> <i_epik_Tot_Q>
1

> <i_epik_Tot_abs_Q>
1

> <r_epik_Metal_State_Penalty>
-0

> <b_epik_Metal_Only>
0

> <s_lp_Force_Field>
OPLS_2005

> <r_lp_Energy>
57.6145

> <b_lp_Chiralities_Consistent>
1

> <s_lp_Variant>
AV-unprocessed.smi:282-1

> <Gold.Version>
5.8.1

> <Gold.Id.Protein>
6NUR|6NUR_protein|mol2

> <Gold.PLP.Fitness>
56.8199

> <Gold.PLP.PLP>
-46.0993

> <Gold.PLP.part.hbond>
-2.7133

> <Gold.PLP.part.metal>
0.0000

> <Gold.PLP.part.buried>
-5.0738

> <Gold.PLP.part.nonpolar>
-37.5964

> <Gold.PLP.part.repulsive>
0.0919

> <Gold.PLP.ligand.clash>
0.0000

> <Gold.PLP.ligand.torsion>
0.6541

> <Gold.PLP.Chemscore.Hbond>
3.9100

> <Gold.PLP.Chemscore.CHOScore>
0.0000

> <Gold.PLP.Chemscore.Metal>
0.0000

> <Gold.Chemscore.Hbonds>
donor molecule, donor type, donor heavy atom, donor atom, acceptor molecule, acceptor atom, score
      L1  H     5    65       P1  8028  1.59
      P1  H  6896  6907       L1    16  1.00
      P1  H  6931  6943       L1    25  0.58

> <Gold.PLP.Chemscore.Internal.Correction>
0.2986

> <Gold.Rescore>
     Score         DG    S(hbond)    S(metal)    S(lipo)     H(rot)  DE(clash)    DE(int)     intcor
     18.93     -22.24       2.66        0.00     115.63       2.20       1.53       1.78       ----

> <Gold.Chemscore.Fitness>
18.9311

> <Gold.Chemscore.DG>
-22.2424

> <Gold.Chemscore.ZeroCoef>
-5.4800

> <Gold.Chemscore.Hbond>
2.6577

> <Gold.Chemscore.Metal>
0.0000

> <Gold.Chemscore.Lipo>
115.6284

> <Gold.Chemscore.Internal_Hbond>
0.0000

> <Gold.Chemscore.DEClash>
1.5318

> <Gold.Chemscore.DEInternal>
1.7795

> <Gold.Chemscore.Rot>
2.2042

> <Gold.Chemscore.Internal.Correction>
   9.000000E+99

> <Gold.Chemscore.Hbonds>
donor molecule, donor type, donor heavy atom, donor atom, acceptor molecule, acceptor atom, score
      L1  H     5    65       P1  8028  0.74
      P1  H  6896  6907       L1    16  0.96
      P1  H  6931  6943       L1    25  0.11

> <Gold.Chemscore.Hbond.Weighted>
-8.8768

> <Gold.Chemscore.Metal.Weighted>
-0.0000

> <Gold.Chemscore.Lipo.Weighted>
-13.5285

> <Gold.Chemscore.Internal_Hbond.Weighted>
0.0000

> <Gold.Chemscore.DEClash.Weighted>
1.5318

> <Gold.Chemscore.DEInternal.Weighted>
1.7795

> <Gold.Chemscore.Rot.Weighted>
5.6429

> <Gold.Chemscore.Internal.Correction.Weighted>
   9.000000E+99

> <Gold.Protein.RotatedTorsions>
[ 6907 6896 6895 6894 ] final  -18.88 input  -60.11 | X-H torsion
[ 7974 7965 7964 7962 ] final  152.78 input  175.53 | X-H torsion
[ 8008 7997 7996 7995 ] final   70.19 input   59.86 | X-H torsion
[ 10167 10162 10161 10158 ] final  104.22 input  -65.29 | X-H torsion
[ 10718 10713 10712 10709 ] final -120.02 input   66.30 | X-H torsion
[ 10763 10752 10751 10750 ] final -126.35 input  -60.55 | X-H torsion
[ 11005 11000 10999 10996 ] final   33.76 input  -57.11 | X-H torsion

> <Gold.Protein.ActiveResidues>
 VAL166  LYS551  ARG553  GLY616  TRP617  ASP618  TYR619  PRO620  LYS621  CYS622 
 ASP623  PHE694  ASN695  SER759  ASP760  ASP761  ALA762  ILE779  LEU786  VAL792 
 PHE793  MET794  SER795  GLU796  ALA797  LYS798  CYS799  TRP800  GLU811  SER814 

> <Gold.Protein.RotatedAtoms>
  151.2715  135.0686  159.9135 H   0  0  0  0  0  0  0  0  0  0  0  0  # atno 6907 bound_to 6896
  152.5350  134.0125  159.7955 H   0  0  0  0  0  0  0  0  0  0  0  0  # atno 6908 bound_to 6896
  151.0364  133.5694  159.2686 H   0  0  0  0  0  0  0  0  0  0  0  0  # atno 6909 bound_to 6896
  144.8199  139.6713  143.6105 H   0  0  0  0  0  0  0  0  0  0  0  0  # atno 7974 bound_to 7965
  155.7351  140.3491  155.5078 H   0  0  0  0  0  0  0  0  0  0  0  0  # atno 8008 bound_to 7997
  155.9146  140.1056  157.1275 H   0  0  0  0  0  0  0  0  0  0  0  0  # atno 8009 bound_to 7997
  154.4061  140.1261  156.4588 H   0  0  0  0  0  0  0  0  0  0  0  0  # atno 8010 bound_to 7997
  139.7195  144.7061  151.0895 H   0  0  0  0  0  0  0  0  0  0  0  0  # atno 10167 bound_to 10162
  156.1226  130.6334  150.9489 H   0  0  0  0  0  0  0  0  0  0  0  0  # atno 10718 bound_to 10713
  154.8745  135.3998  154.3417 H   0  0  0  0  0  0  0  0  0  0  0  0  # atno 10763 bound_to 10752
  153.4215  135.7023  153.6296 H   0  0  0  0  0  0  0  0  0  0  0  0  # atno 10764 bound_to 10752
  153.4956  135.3738  155.2484 H   0  0  0  0  0  0  0  0  0  0  0  0  # atno 10765 bound_to 10752
  140.2598  134.3205  155.7861 H   0  0  0  0  0  0  0  0  0  0  0  0  # atno 11005 bound_to 11000
  146.2504  139.6187  142.9431 LP  0  0  0  0  0  0  0  0  0  0  0  0  # atno 17320 bound_to 7965
  145.5129  141.0435  143.2478 LP  0  0  0  0  0  0  0  0  0  0  0  0  # atno 17321 bound_to 7965
  140.7751  143.5184  150.9566 LP  0  0  0  0  0  0  0  0  0  0  0  0  # atno 17342 bound_to 10162
  139.8871  143.6999  152.3150 LP  0  0  0  0  0  0  0  0  0  0  0  0  # atno 17343 bound_to 10162
  157.6409  131.0910  150.8254 LP  0  0  0  0  0  0  0  0  0  0  0  0  # atno 17370 bound_to 10713
  156.8348  130.5028  149.5327 LP  0  0  0  0  0  0  0  0  0  0  0  0  # atno 17371 bound_to 10713
  141.2191  133.7403  156.9169 LP  0  0  0  0  0  0  0  0  0  0  0  0  # atno 17394 bound_to 11000
  140.1476  134.9252  157.2549 LP  0  0  0  0  0  0  0  0  0  0  0  0  # atno 17395 bound_to 11000

$$$$
