AV-unprocessed.smi:1207|AV-procd|sdf|5051|dock4
  -GOLD-   22720 4 83D 1   1.00000     0.00000
 Structure written by MMmdl.
 52 54  0  0  0  0  0  0  0  0  2 V2000
  152.7617  143.1242  160.9289 C   0  0  0  0  0  0  0  0  0  0  0  0
  151.9896  142.6633  159.7051 C   0  0  0  0  0  0  0  0  0  0  0  0
  151.9230  141.2819  159.4152 C   0  0  0  0  0  0  0  0  0  0  0  0
  151.2140  140.8120  158.2883 C   0  0  0  0  0  0  0  0  0  0  0  0
  151.0241  139.5236  157.8197 N   0  0  0  0  0  0  0  0  0  0  0  0
  150.2799  139.7380  156.7392 C   0  0  0  0  0  0  0  0  0  0  0  0
  149.9750  141.0167  156.4441 N   0  0  0  0  0  0  0  0  0  0  0  0
  149.1911  141.4896  155.3170 C   0  0  0  0  0  0  0  0  0  0  0  0
  148.8353  140.3687  154.3176 C   0  0  2  0  0  0  0  0  0  0  0  0
  149.9729  140.1497  153.5073 O   0  0  0  0  0  0  0  0  0  0  0  0
  147.6193  140.7103  153.4246 C   0  0  0  0  0  0  0  0  0  0  0  0
  146.3331  140.8325  154.1663 N   0  3  1  0  0  0  0  0  0  0  0  0
  146.1101  139.7284  155.1311 C   0  0  0  0  0  0  0  0  0  0  0  0
  146.1642  142.1569  154.8200 C   0  0  0  0  0  0  0  0  0  0  0  0
  144.7221  142.4580  155.1435 C   0  0  0  0  0  0  0  0  0  0  0  0
  143.8601  143.3926  154.5010 C   0  0  0  0  0  0  0  0  0  0  0  0
  144.1619  144.3064  153.3481 C   0  0  0  0  0  0  0  0  0  0  0  0
  142.6540  143.4044  155.0408 N   0  0  0  0  0  0  0  0  0  0  0  0
  142.6849  142.4583  156.0694 O   0  0  0  0  0  0  0  0  0  0  0  0
  143.9237  141.9062  156.1092 C   0  0  0  0  0  0  0  0  0  0  0  0
  144.1516  140.8676  157.1559 C   0  0  0  0  0  0  0  0  0  0  0  0
  150.5673  141.7694  157.4526 C   0  0  0  0  0  0  0  0  0  0  0  0
  150.6247  143.1462  157.7320 C   0  0  0  0  0  0  0  0  0  0  0  0
  151.3402  143.5989  158.8601 C   0  0  0  0  0  0  0  0  0  0  0  0
  151.4022  145.0883  159.1500 C   0  0  0  0  0  0  0  0  0  0  0  0
  153.1851  142.2801  161.4739 H   0  0  0  0  0  0  0  0  0  0  0  0
  152.1074  143.6671  161.6114 H   0  0  0  0  0  0  0  0  0  0  0  0
  153.5822  143.7808  160.6388 H   0  0  0  0  0  0  0  0  0  0  0  0
  152.4173  140.5689  160.0589 H   0  0  0  0  0  0  0  0  0  0  0  0
  149.9451  138.9183  156.1201 H   0  0  0  0  0  0  0  0  0  0  0  0
  148.2802  141.9476  155.7065 H   0  0  0  0  0  0  0  0  0  0  0  0
  149.7493  142.2829  154.8182 H   0  0  0  0  0  0  0  0  0  0  0  0
  148.6431  139.4605  154.8868 H   0  0  0  0  0  0  0  0  0  0  0  0
  149.6987  140.0745  152.6063 H   0  0  0  0  0  0  0  0  0  0  0  0
  147.7884  141.6436  152.8858 H   0  0  0  0  0  0  0  0  0  0  0  0
  147.5425  139.9314  152.6670 H   0  0  0  0  0  0  0  0  0  0  0  0
  146.9198  139.6775  155.8603 H   0  0  0  0  0  0  0  0  0  0  0  0
  146.0362  138.7645  154.6294 H   0  0  0  0  0  0  0  0  0  0  0  0
  145.1747  139.8677  155.6741 H   0  0  0  0  0  0  0  0  0  0  0  0
  146.7495  142.1746  155.7401 H   0  0  0  0  0  0  0  0  0  0  0  0
  146.6001  142.9262  154.1811 H   0  0  0  0  0  0  0  0  0  0  0  0
  145.2003  144.6372  153.3682 H   0  0  0  0  0  0  0  0  0  0  0  0
  143.5332  145.1974  153.3677 H   0  0  0  0  0  0  0  0  0  0  0  0
  143.9922  143.8007  152.3971 H   0  0  0  0  0  0  0  0  0  0  0  0
  145.1059  140.3616  157.0115 H   0  0  0  0  0  0  0  0  0  0  0  0
  143.3648  140.1136  157.1300 H   0  0  0  0  0  0  0  0  0  0  0  0
  144.1568  141.3172  158.1490 H   0  0  0  0  0  0  0  0  0  0  0  0
  150.1218  143.8490  157.0845 H   0  0  0  0  0  0  0  0  0  0  0  0
  150.8477  145.6623  158.4070 H   0  0  0  0  0  0  0  0  0  0  0  0
  152.4352  145.4368  159.1388 H   0  0  0  0  0  0  0  0  0  0  0  0
  150.9736  145.3057  160.1285 H   0  0  0  0  0  0  0  0  0  0  0  0
  145.5964  140.7663  153.4788 H   0  0  0  0  0  0  0  0  0  0  0  0
  1  2  1  0  0  0  0
  1 26  1  0  0  0  0
  1 27  1  0  0  0  0
  1 28  1  0  0  0  0
  2 24  1  0  0  0  0
  2  3  2  0  0  0  0
  3  4  1  0  0  0  0
  3 29  1  0  0  0  0
  4 22  2  0  0  0  0
  4  5  1  0  0  0  0
  5  6  2  0  0  0  0
  6  7  1  0  0  0  0
  6 30  1  0  0  0  0
  7  8  1  0  0  0  0
  7 22  1  0  0  0  0
  8  9  1  0  0  0  0
  8 31  1  0  0  0  0
  8 32  1  0  0  0  0
  9 10  1  0  0  0  0
  9 11  1  0  0  0  0
  9 33  1  0  0  0  0
 10 34  1  0  0  0  0
 11 12  1  0  0  0  0
 11 35  1  0  0  0  0
 11 36  1  0  0  0  0
 12 13  1  0  0  0  0
 12 14  1  0  0  0  0
 12 52  1  0  0  0  0
 13 37  1  0  0  0  0
 13 38  1  0  0  0  0
 13 39  1  0  0  0  0
 14 15  1  0  0  0  0
 14 40  1  0  0  0  0
 14 41  1  0  0  0  0
 15 20  2  0  0  0  0
 15 16  1  0  0  0  0
 16 17  1  0  0  0  0
 16 18  2  0  0  0  0
 17 42  1  0  0  0  0
 17 43  1  0  0  0  0
 17 44  1  0  0  0  0
 18 19  1  0  0  0  0
 19 20  1  0  0  0  0
 20 21  1  0  0  0  0
 21 45  1  0  0  0  0
 21 46  1  0  0  0  0
 21 47  1  0  0  0  0
 22 23  1  0  0  0  0
 23 24  2  0  0  0  0
 23 48  1  0  0  0  0
 24 25  1  0  0  0  0
 25 49  1  0  0  0  0
 25 50  1  0  0  0  0
 25 51  1  0  0  0  0
M  CHG  1  12   1
M  END
> <s_m_source_file>
AV-unprocessed.smi

> <i_m_source_file_index>
1207

> <i_lp_mmshare_version>
43012

> <i_f3d_flags>
0

> <s_epik_input>
W0NIM11jKFtjSF0xKWMoW0NIM10pW2NIXWMoYzEyKW4oW2NIXW4yKVtDSDJdW0NASF0oW09IXSlbQ0gyXU4oW0NIM10pW0NIMl1jM2MoW0NIM10pbm9jM1tDSDNd

> <s_epik_cmdline>
J2VwaWtfcHl0aG9uJywgJy1waCcsICc3LjAnLCAnLXRuJywgJzgnLCAnLW1hJywgJzIwMCcsICctbWV0YWxfYmluZGluZycsICctaW1hZScsICc8aW5maWxlLm1hZT4nLCAnLW9tYWUnLCAnPG91dGZpbGUubWFlPic=

> <r_epik_Ionization_Penalty>
0.646518

> <r_epik_Ionization_Penalty_Charging>
0.559419

> <r_epik_Ionization_Penalty_Neutral>
0.0870981

> <r_epik_State_Penalty>
0.661677

> <r_epik_Charging_Adjusted_Penalty>
1.2211

> <i_epik_Tot_Q>
1

> <i_epik_Tot_abs_Q>
1

> <r_epik_Metal_State_Penalty>
0.649158

> <b_epik_Metal_Only>
0

> <s_lp_Force_Field>
OPLS_2005

> <r_lp_Energy>
10.0626

> <b_lp_Chiralities_Consistent>
1

> <s_lp_Variant>
AV-unprocessed.smi:1207-3

> <Gold.Version>
5.8.1

> <Gold.Id.Protein>
6NUR|6NUR_protein|mol2

> <Gold.PLP.Fitness>
56.0934

> <Gold.PLP.PLP>
-50.4355

> <Gold.PLP.part.hbond>
-2.0899

> <Gold.PLP.part.metal>
0.0000

> <Gold.PLP.part.buried>
-5.0281

> <Gold.PLP.part.nonpolar>
-45.5486

> <Gold.PLP.part.repulsive>
0.2181

> <Gold.PLP.ligand.clash>
0.0000

> <Gold.PLP.ligand.torsion>
0.6668

> <Gold.PLP.Chemscore.Hbond>
2.2514

> <Gold.PLP.Chemscore.CHOScore>
0.0000

> <Gold.PLP.Chemscore.Metal>
0.0000

> <Gold.Chemscore.Hbonds>
donor molecule, donor type, donor heavy atom, donor atom, acceptor molecule, acceptor atom, score
      L1  H    10    34       P1  7957  0.80
      L1  H    12    52       P1 10175  1.30
      P1  H  7989  7998       L1    10  0.62

> <Gold.PLP.Chemscore.Internal.Correction>
0.2373

> <Gold.Rescore>
     Score         DG    S(hbond)    S(metal)    S(lipo)     H(rot)  DE(clash)    DE(int)     intcor
     17.57     -18.48       1.16        0.00     131.67       2.46       0.24       0.67       ----

> <Gold.Chemscore.Fitness>
17.5746

> <Gold.Chemscore.DG>
-18.4822

> <Gold.Chemscore.ZeroCoef>
-5.4800

> <Gold.Chemscore.Hbond>
1.1632

> <Gold.Chemscore.Metal>
0.0000

> <Gold.Chemscore.Lipo>
131.6743

> <Gold.Chemscore.Internal_Hbond>
0.0000

> <Gold.Chemscore.DEClash>
0.2411

> <Gold.Chemscore.DEInternal>
0.6666

> <Gold.Chemscore.Rot>
2.4565

> <Gold.Chemscore.Internal.Correction>
   9.000000E+99

> <Gold.Chemscore.Hbonds>
donor molecule, donor type, donor heavy atom, donor atom, acceptor molecule, acceptor atom, score
      L1  H    10    34       P1  7957  0.79
      L1  H    12    52       P1 10175  0.55
      P1  H  7989  7998       L1    10  0.31

> <Gold.Chemscore.Hbond.Weighted>
-3.8850

> <Gold.Chemscore.Metal.Weighted>
-0.0000

> <Gold.Chemscore.Lipo.Weighted>
-15.4059

> <Gold.Chemscore.Internal_Hbond.Weighted>
0.0000

> <Gold.Chemscore.DEClash.Weighted>
0.2411

> <Gold.Chemscore.DEInternal.Weighted>
0.6666

> <Gold.Chemscore.Rot.Weighted>
6.2887

> <Gold.Chemscore.Internal.Correction.Weighted>
   9.000000E+99

> <Gold.Protein.RotatedTorsions>
[ 6907 6896 6895 6894 ] final  -14.87 input  -60.11 | X-H torsion
[ 7974 7965 7964 7962 ] final   71.99 input  175.53 | X-H torsion
[ 8008 7997 7996 7995 ] final   24.13 input   59.86 | X-H torsion
[ 10167 10162 10161 10158 ] final -111.57 input  -65.29 | X-H torsion
[ 10718 10713 10712 10709 ] final  -78.02 input   66.30 | X-H torsion
[ 10763 10752 10751 10750 ] final -165.76 input  -60.55 | X-H torsion
[ 11005 11000 10999 10996 ] final  119.50 input  -57.11 | X-H torsion

> <Gold.Protein.ActiveResidues>
 VAL166  LYS551  ARG553  GLY616  TRP617  ASP618  TYR619  PRO620  LYS621  CYS622 
 ASP623  PHE694  ASN695  SER759  ASP760  ASP761  ALA762  ILE779  LEU786  VAL792 
 PHE793  MET794  SER795  GLU796  ALA797  LYS798  CYS799  TRP800  GLU811  SER814 

> <Gold.Protein.RotatedAtoms>
  151.3327  135.0845  159.9343 H   0  0  0  0  0  0  0  0  0  0  0  0  # atno 6907 bound_to 6896
  152.5230  133.9526  159.7689 H   0  0  0  0  0  0  0  0  0  0  0  0  # atno 6908 bound_to 6896
  150.9868  133.6137  159.2744 H   0  0  0  0  0  0  0  0  0  0  0  0  # atno 6909 bound_to 6896
  145.7589  139.2792  143.1388 H   0  0  0  0  0  0  0  0  0  0  0  0  # atno 7974 bound_to 7965
  154.9915  140.3114  155.4904 H   0  0  0  0  0  0  0  0  0  0  0  0  # atno 8008 bound_to 7997
  156.2939  140.2248  156.4960 H   0  0  0  0  0  0  0  0  0  0  0  0  # atno 8009 bound_to 7997
  154.7699  140.0453  157.1031 H   0  0  0  0  0  0  0  0  0  0  0  0  # atno 8010 bound_to 7997
  140.1322  143.4351  152.1619 H   0  0  0  0  0  0  0  0  0  0  0  0  # atno 10167 bound_to 10162
  156.0129  130.4507  150.3433 H   0  0  0  0  0  0  0  0  0  0  0  0  # atno 10718 bound_to 10713
  154.6900  135.2969  154.9493 H   0  0  0  0  0  0  0  0  0  0  0  0  # atno 10763 bound_to 10752
  154.0459  135.6651  153.4799 H   0  0  0  0  0  0  0  0  0  0  0  0  # atno 10764 bound_to 10752
  153.0605  135.5118  154.7987 H   0  0  0  0  0  0  0  0  0  0  0  0  # atno 10765 bound_to 10752
  139.9149  134.9629  156.7664 H   0  0  0  0  0  0  0  0  0  0  0  0  # atno 11005 bound_to 11000
  146.0283  140.8282  142.9888 LP  0  0  0  0  0  0  0  0  0  0  0  0  # atno 17320 bound_to 7965
  144.6834  140.2731  143.7303 LP  0  0  0  0  0  0  0  0  0  0  0  0  # atno 17321 bound_to 7965
  139.5514  144.7340  151.4424 LP  0  0  0  0  0  0  0  0  0  0  0  0  # atno 17342 bound_to 10162
  140.6810  143.8081  150.7121 LP  0  0  0  0  0  0  0  0  0  0  0  0  # atno 17343 bound_to 10162
  157.1528  131.0325  151.2877 LP  0  0  0  0  0  0  0  0  0  0  0  0  # atno 17370 bound_to 10713
  157.4377  130.7526  149.7043 LP  0  0  0  0  0  0  0  0  0  0  0  0  # atno 17371 bound_to 10713
  140.6656  133.9606  155.7828 LP  0  0  0  0  0  0  0  0  0  0  0  0  # atno 17394 bound_to 11000
  141.0613  134.0342  157.3654 LP  0  0  0  0  0  0  0  0  0  0  0  0  # atno 17395 bound_to 11000

$$$$
