AV-unprocessed.smi:2002|AV-procd|sdf|8113|dock5
  -GOLD-   2272010343D 1   1.00000     0.00000
 Structure written by MMmdl.
 39 40  0  0  0  0  0  0  0  0  2 V2000
  146.5970  129.2247  152.1906 C   0  0  0  0  0  0  0  0  0  0  0  0
  146.5305  130.6861  152.6537 C   0  0  0  0  0  0  0  0  0  0  0  0
  146.5274  131.6303  151.5123 N   0  3  1  0  0  0  0  0  0  0  0  0
  145.4828  131.3831  150.4892 C   0  0  0  0  0  0  0  0  0  0  0  0
  144.8585  132.7440  150.1544 C   0  0  0  0  0  0  0  0  0  0  0  0
  145.8622  133.7687  150.6806 C   0  0  1  0  0  0  0  0  0  0  0  0
  145.2444  135.1532  150.9576 C   0  0  0  0  0  0  0  0  0  0  0  0
  146.2056  136.0788  151.5496 N   0  0  0  0  0  0  0  0  0  0  0  0
  145.8963  137.1402  152.3089 C   0  0  0  0  0  0  0  0  0  0  0  0
  144.7422  137.4453  152.6114 O   0  0  0  0  0  0  0  0  0  0  0  0
  146.9990  137.8062  152.6909 N   0  0  0  0  0  0  0  0  0  0  0  0
  147.0695  138.9597  153.5130 C   0  0  0  0  0  0  0  0  0  0  0  0
  146.8386  140.2537  152.9753 C   0  0  0  0  0  0  0  0  0  0  0  0
  146.9975  141.0702  154.0595 C   0  0  0  0  0  0  0  0  0  0  0  0
  146.9018  142.5466  154.2399 C   0  0  0  0  0  0  0  0  0  0  0  0
  147.3000  140.3364  155.1649 O   0  0  0  0  0  0  0  0  0  0  0  0
  147.3465  138.9838  154.8077 N   0  0  0  0  0  0  0  0  0  0  0  0
  146.4324  133.0503  151.9057 C   0  0  0  0  0  0  0  0  0  0  0  0
  146.6380  128.5512  153.0469 H   0  0  0  0  0  0  0  0  0  0  0  0
  147.4854  129.0435  151.5846 H   0  0  0  0  0  0  0  0  0  0  0  0
  145.7243  128.9489  151.5982 H   0  0  0  0  0  0  0  0  0  0  0  0
  145.6510  130.8512  153.2778 H   0  0  0  0  0  0  0  0  0  0  0  0
  147.4008  130.8946  153.2776 H   0  0  0  0  0  0  0  0  0  0  0  0
  145.9547  130.9427  149.6105 H   0  0  0  0  0  0  0  0  0  0  0  0
  144.7172  130.6877  150.8367 H   0  0  0  0  0  0  0  0  0  0  0  0
  144.6570  132.8620  149.0893 H   0  0  0  0  0  0  0  0  0  0  0  0
  143.9096  132.8466  150.6831 H   0  0  0  0  0  0  0  0  0  0  0  0
  146.6579  133.8744  149.9410 H   0  0  0  0  0  0  0  0  0  0  0  0
  144.9037  135.5917  150.0193 H   0  0  0  0  0  0  0  0  0  0  0  0
  144.3584  135.0623  151.5886 H   0  0  0  0  0  0  0  0  0  0  0  0
  147.1806  135.9063  151.3516 H   0  0  0  0  0  0  0  0  0  0  0  0
  147.8838  137.4488  152.3621 H   0  0  0  0  0  0  0  0  0  0  0  0
  146.5955  140.5397  151.9626 H   0  0  0  0  0  0  0  0  0  0  0  0
  147.1150  143.0670  153.3060 H   0  0  0  0  0  0  0  0  0  0  0  0
  147.6133  142.8946  154.9891 H   0  0  0  0  0  0  0  0  0  0  0  0
  145.9009  142.8306  154.5652 H   0  0  0  0  0  0  0  0  0  0  0  0
  145.7468  133.1508  152.7492 H   0  0  0  0  0  0  0  0  0  0  0  0
  147.4031  133.4426  152.2108 H   0  0  0  0  0  0  0  0  0  0  0  0
  147.4156  131.5332  151.0412 H   0  0  0  0  0  0  0  0  0  0  0  0
  1  2  1  0  0  0  0
  1 19  1  0  0  0  0
  1 20  1  0  0  0  0
  1 21  1  0  0  0  0
  2  3  1  0  0  0  0
  2 22  1  0  0  0  0
  2 23  1  0  0  0  0
  3 18  1  0  0  0  0
  3  4  1  0  0  0  0
  3 39  1  0  0  0  0
  4  5  1  0  0  0  0
  4 24  1  0  0  0  0
  4 25  1  0  0  0  0
  5  6  1  0  0  0  0
  5 26  1  0  0  0  0
  5 27  1  0  0  0  0
  6  7  1  0  0  0  0
  6 18  1  0  0  0  0
  6 28  1  0  0  0  0
  7  8  1  0  0  0  0
  7 29  1  0  0  0  0
  7 30  1  0  0  0  0
  8  9  1  0  0  0  0
  8 31  1  0  0  0  0
  9 10  2  0  0  0  0
  9 11  1  0  0  0  0
 11 12  1  0  0  0  0
 11 32  1  0  0  0  0
 12 17  2  0  0  0  0
 12 13  1  0  0  0  0
 13 14  2  0  0  0  0
 13 33  1  0  0  0  0
 14 15  1  0  0  0  0
 14 16  1  0  0  0  0
 15 34  1  0  0  0  0
 15 35  1  0  0  0  0
 15 36  1  0  0  0  0
 16 17  1  0  0  0  0
 18 37  1  0  0  0  0
 18 38  1  0  0  0  0
M  CHG  1   3   1
M  END
> <s_m_source_file>
AV-unprocessed.smi

> <i_m_source_file_index>
2002

> <i_lp_mmshare_version>
43012

> <i_f3d_flags>
0

> <s_epik_input>
W0NIM11bQ0gyXU4xW0NIMl1bQ0gyXVtDQEhdKFtDSDJdMSlbQ0gyXVtOSF1DKD1PKVtOSF1jMltjSF1jKFtDSDNdKW9uMg==

> <s_epik_cmdline>
J2VwaWtfcHl0aG9uJywgJy1waCcsICc3LjAnLCAnLXRuJywgJzgnLCAnLW1hJywgJzIwMCcsICctbWV0YWxfYmluZGluZycsICctaW1hZScsICc8aW5maWxlLm1hZT4nLCAnLW9tYWUnLCAnPG91dGZpbGUubWFlPic=

> <r_epik_Ionization_Penalty>
0.000632871

> <r_epik_Ionization_Penalty_Charging>
0.000610951

> <r_epik_Ionization_Penalty_Neutral>
2.19198e-05

> <r_epik_State_Penalty>
0.000385263

> <r_epik_Charging_Adjusted_Penalty>
0.000996214

> <i_epik_Tot_Q>
1

> <i_epik_Tot_abs_Q>
1

> <r_epik_Metal_State_Penalty>
-0

> <b_epik_Metal_Only>
0

> <s_lp_Force_Field>
OPLS_2005

> <r_lp_Energy>
24.2793

> <b_lp_Chiralities_Consistent>
1

> <s_lp_Variant>
AV-unprocessed.smi:2002-1

> <Gold.Version>
5.8.1

> <Gold.Id.Protein>
6NUR|6NUR_protein|mol2

> <Gold.PLP.Fitness>
39.4226

> <Gold.PLP.PLP>
-32.4637

> <Gold.PLP.part.hbond>
-3.0000

> <Gold.PLP.part.metal>
0.0000

> <Gold.PLP.part.buried>
-4.0397

> <Gold.PLP.part.nonpolar>
-26.7647

> <Gold.PLP.part.repulsive>
0.7388

> <Gold.PLP.ligand.clash>
0.0000

> <Gold.PLP.ligand.torsion>
0.9206

> <Gold.PLP.Chemscore.Hbond>
2.9280

> <Gold.PLP.Chemscore.CHOScore>
0.0000

> <Gold.PLP.Chemscore.Metal>
0.0000

> <Gold.Chemscore.Hbonds>
donor molecule, donor type, donor heavy atom, donor atom, acceptor molecule, acceptor atom, score
      L1  H     3    39       P1 10747  1.00
      L1  H     8    31       P1  7948  0.96
      L1  H    11    32       P1  7948  1.00

> <Gold.PLP.Chemscore.Internal.Correction>
0.0160

> <Gold.Rescore>
     Score         DG    S(hbond)    S(metal)    S(lipo)     H(rot)  DE(clash)    DE(int)     intcor
     19.29     -20.34       2.95        0.00      76.03       1.52       0.13       0.91       ----

> <Gold.Chemscore.Fitness>
19.2912

> <Gold.Chemscore.DG>
-20.3359

> <Gold.Chemscore.ZeroCoef>
-5.4800

> <Gold.Chemscore.Hbond>
2.9514

> <Gold.Chemscore.Metal>
0.0000

> <Gold.Chemscore.Lipo>
76.0287

> <Gold.Chemscore.Internal_Hbond>
0.0000

> <Gold.Chemscore.DEClash>
0.1302

> <Gold.Chemscore.DEInternal>
0.9146

> <Gold.Chemscore.Rot>
1.5223

> <Gold.Chemscore.Internal.Correction>
   9.000000E+99

> <Gold.Chemscore.Hbonds>
donor molecule, donor type, donor heavy atom, donor atom, acceptor molecule, acceptor atom, score
      L1  H     3    39       P1 10747  1.00
      L1  H     8    31       P1  7948  0.92
      L1  H    11    32       P1  7948  0.98

> <Gold.Chemscore.Hbond.Weighted>
-9.8576

> <Gold.Chemscore.Metal.Weighted>
-0.0000

> <Gold.Chemscore.Lipo.Weighted>
-8.8954

> <Gold.Chemscore.Internal_Hbond.Weighted>
0.0000

> <Gold.Chemscore.DEClash.Weighted>
0.1302

> <Gold.Chemscore.DEInternal.Weighted>
0.9146

> <Gold.Chemscore.Rot.Weighted>
3.8971

> <Gold.Chemscore.Internal.Correction.Weighted>
   9.000000E+99

> <Gold.Protein.RotatedTorsions>
[ 6907 6896 6895 6894 ] final   97.03 input  -60.11 | X-H torsion
[ 7974 7965 7964 7962 ] final -160.73 input  175.53 | X-H torsion
[ 8008 7997 7996 7995 ] final   16.60 input   59.86 | X-H torsion
[ 10167 10162 10161 10158 ] final -178.55 input  -65.29 | X-H torsion
[ 10718 10713 10712 10709 ] final   36.97 input   66.30 | X-H torsion
[ 10763 10752 10751 10750 ] final -110.31 input  -60.55 | X-H torsion
[ 11005 11000 10999 10996 ] final   71.99 input  -57.11 | X-H torsion

> <Gold.Protein.ActiveResidues>
 VAL166  LYS551  ARG553  GLY616  TRP617  ASP618  TYR619  PRO620  LYS621  CYS622 
 ASP623  PHE694  ASN695  SER759  ASP760  ASP761  ALA762  ILE779  LEU786  VAL792 
 PHE793  MET794  SER795  GLU796  ALA797  LYS798  CYS799  TRP800  GLU811  SER814 

> <Gold.Protein.RotatedAtoms>
  152.5428  134.0796  159.8229 H   0  0  0  0  0  0  0  0  0  0  0  0  # atno 6907 bound_to 6896
  151.0900  133.5316  159.2623 H   0  0  0  0  0  0  0  0  0  0  0  0  # atno 6908 bound_to 6896
  151.2111  135.0490  159.8966 H   0  0  0  0  0  0  0  0  0  0  0  0  # atno 6909 bound_to 6896
  144.7416  140.3500  143.6117 H   0  0  0  0  0  0  0  0  0  0  0  0  # atno 7974 bound_to 7965
  154.8793  140.2970  155.5434 H   0  0  0  0  0  0  0  0  0  0  0  0  # atno 8008 bound_to 7997
  156.3022  140.2445  156.3727 H   0  0  0  0  0  0  0  0  0  0  0  0  # atno 8009 bound_to 7997
  154.8734  140.0400  157.1727 H   0  0  0  0  0  0  0  0  0  0  0  0  # atno 8010 bound_to 7997
  139.5427  144.2319  152.0927 H   0  0  0  0  0  0  0  0  0  0  0  0  # atno 10167 bound_to 10162
  157.3413  130.7549  149.6914 H   0  0  0  0  0  0  0  0  0  0  0  0  # atno 10718 bound_to 10713
  154.8241  135.4569  154.0866 H   0  0  0  0  0  0  0  0  0  0  0  0  # atno 10763 bound_to 10752
  153.2195  135.6892  153.8024 H   0  0  0  0  0  0  0  0  0  0  0  0  # atno 10764 bound_to 10752
  153.7446  135.3307  155.3287 H   0  0  0  0  0  0  0  0  0  0  0  0  # atno 10765 bound_to 10752
  139.9514  134.7220  156.0854 H   0  0  0  0  0  0  0  0  0  0  0  0  # atno 11005 bound_to 11000
  145.7286  139.1730  143.2443 LP  0  0  0  0  0  0  0  0  0  0  0  0  # atno 17320 bound_to 7965
  146.1223  140.7293  142.9451 LP  0  0  0  0  0  0  0  0  0  0  0  0  # atno 17321 bound_to 7965
  140.1800  144.4853  150.6533 LP  0  0  0  0  0  0  0  0  0  0  0  0  # atno 17342 bound_to 10162
  140.6663  143.2269  151.5734 LP  0  0  0  0  0  0  0  0  0  0  0  0  # atno 17343 bound_to 10162
  155.9708  130.4167  150.4243 LP  0  0  0  0  0  0  0  0  0  0  0  0  # atno 17370 bound_to 10713
  157.2291  131.0500  151.2503 LP  0  0  0  0  0  0  0  0  0  0  0  0  # atno 17371 bound_to 10713
  141.1177  133.6622  156.3137 LP  0  0  0  0  0  0  0  0  0  0  0  0  # atno 17394 bound_to 11000
  140.5710  134.5840  157.5457 LP  0  0  0  0  0  0  0  0  0  0  0  0  # atno 17395 bound_to 11000

$$$$
