AV-unprocessed.smi:1065|AV-procd|sdf|4667|dock3
  -GOLD-   22720 3183D 1   1.00000     0.00000
 Structure written by MMmdl.
 39 40  0  0  0  0  0  0  0  0  1 V2000
  152.8553  142.5248  162.0886 C   0  0  0  0  0  0  0  0  0  0  0  0
  153.1473  142.8699  160.6215 C   0  0  0  0  0  0  0  0  0  0  0  0
  151.9819  142.5654  159.6583 C   0  0  2  0  0  0  0  0  0  0  0  0
  151.8230  141.0447  159.4570 C   0  0  0  0  0  0  0  0  0  0  0  0
  150.6702  140.7071  158.4948 C   0  0  0  0  0  0  0  0  0  0  0  0
  150.8154  141.4085  157.1294 C   0  0  2  0  0  0  0  0  0  0  0  0
  151.9261  140.7730  156.2647 C   0  0  0  0  0  0  0  0  0  0  0  0
  151.5749  139.4157  155.8698 N   0  0  0  0  0  0  0  0  0  0  0  0
  150.7073  139.0961  154.8988 C   0  0  0  0  0  0  0  0  0  0  0  0
  150.1542  139.9278  154.1802 O   0  0  0  0  0  0  0  0  0  0  0  0
  150.4096  137.6075  154.7170 C   0  0  0  0  0  0  0  0  0  0  0  0
  150.7631  136.8597  155.9097 N   0  0  0  0  0  0  0  0  0  0  0  0
  150.2603  136.8909  157.1457 C   0  0  0  0  0  0  0  0  0  0  0  0
  150.8935  136.0526  157.9518 N   0  0  0  0  0  0  0  0  0  0  0  0
  151.8458  135.4793  157.1253 N   0  0  0  0  0  0  0  0  0  0  0  0
  151.7737  135.9545  155.9124 N   0  0  0  0  0  0  0  0  0  0  0  0
  150.9836  142.9302  157.3394 C   0  0  0  0  0  0  0  0  0  0  0  0
  152.1429  143.2673  158.2927 C   0  0  0  0  0  0  0  0  0  0  0  0
  153.7402  142.6859  162.7047 H   0  0  0  0  0  0  0  0  0  0  0  0
  152.5623  141.4803  162.1973 H   0  0  0  0  0  0  0  0  0  0  0  0
  152.0577  143.1438  162.4986 H   0  0  0  0  0  0  0  0  0  0  0  0
  153.4303  143.9202  160.5426 H   0  0  0  0  0  0  0  0  0  0  0  0
  154.0228  142.2988  160.3105 H   0  0  0  0  0  0  0  0  0  0  0  0
  151.0635  142.9317  160.1198 H   0  0  0  0  0  0  0  0  0  0  0  0
  152.7553  140.6215  159.0817 H   0  0  0  0  0  0  0  0  0  0  0  0
  151.6389  140.5619  160.4175 H   0  0  0  0  0  0  0  0  0  0  0  0
  150.6020  139.6272  158.3594 H   0  0  0  0  0  0  0  0  0  0  0  0
  149.7286  141.0121  158.9531 H   0  0  0  0  0  0  0  0  0  0  0  0
  149.8783  141.2578  156.5909 H   0  0  0  0  0  0  0  0  0  0  0  0
  152.1130  141.3781  155.3767 H   0  0  0  0  0  0  0  0  0  0  0  0
  152.8620  140.7379  156.8235 H   0  0  0  0  0  0  0  0  0  0  0  0
  151.9850  138.6646  156.4065 H   0  0  0  0  0  0  0  0  0  0  0  0
  149.3490  137.4574  154.5120 H   0  0  0  0  0  0  0  0  0  0  0  0
  150.9644  137.2173  153.8623 H   0  0  0  0  0  0  0  0  0  0  0  0
  149.4427  137.5269  157.4526 H   0  0  0  0  0  0  0  0  0  0  0  0
  151.1230  143.4449  156.3883 H   0  0  0  0  0  0  0  0  0  0  0  0
  150.0599  143.3328  157.7572 H   0  0  0  0  0  0  0  0  0  0  0  0
  152.1800  144.3484  158.4251 H   0  0  0  0  0  0  0  0  0  0  0  0
  153.0920  142.9841  157.8364 H   0  0  0  0  0  0  0  0  0  0  0  0
  1  2  1  0  0  0  0
  1 19  1  0  0  0  0
  1 20  1  0  0  0  0
  1 21  1  0  0  0  0
  2  3  1  0  0  0  0
  2 22  1  0  0  0  0
  2 23  1  0  0  0  0
  3 18  1  0  0  0  0
  3  4  1  0  0  0  0
  3 24  1  0  0  0  0
  4  5  1  0  0  0  0
  4 25  1  0  0  0  0
  4 26  1  0  0  0  0
  5  6  1  0  0  0  0
  5 27  1  0  0  0  0
  5 28  1  0  0  0  0
  6  7  1  0  0  0  0
  6 17  1  0  0  0  0
  6 29  1  0  0  0  0
  7  8  1  0  0  0  0
  7 30  1  0  0  0  0
  7 31  1  0  0  0  0
  8  9  1  0  0  0  0
  8 32  1  0  0  0  0
  9 10  2  0  0  0  0
  9 11  1  0  0  0  0
 11 12  1  0  0  0  0
 11 33  1  0  0  0  0
 11 34  1  0  0  0  0
 12 16  1  0  0  0  0
 12 13  1  0  0  0  0
 13 14  2  0  0  0  0
 13 35  1  0  0  0  0
 14 15  1  0  0  0  0
 15 16  2  0  0  0  0
 17 18  1  0  0  0  0
 17 36  1  0  0  0  0
 17 37  1  0  0  0  0
 18 38  1  0  0  0  0
 18 39  1  0  0  0  0
M  END
> <s_m_source_file>
AV-unprocessed.smi

> <i_m_source_file_index>
1065

> <i_lp_mmshare_version>
43012

> <i_f3d_flags>
0

> <s_epik_input>
W0NIM11bQ0gyXVtDQEBIXTFbQ0gyXVtDSDJdW0NASF0oW0NIMl1bQ0gyXTEpW0NIMl1bTkhdQyg9TylbQ0gyXW4yW2NIXW5ubjI=

> <s_epik_cmdline>
J2VwaWtfcHl0aG9uJywgJy1waCcsICc3LjAnLCAnLXRuJywgJzgnLCAnLW1hJywgJzIwMCcsICctbWV0YWxfYmluZGluZycsICctaW1hZScsICc8aW5maWxlLm1hZT4nLCAnLW9tYWUnLCAnPG91dGZpbGUubWFlPic=

> <r_lp_tautomer_probability>
1

> <r_epik_Ionization_Penalty>
4.54759e-07

> <r_epik_Ionization_Penalty_Charging>
0

> <r_epik_Ionization_Penalty_Neutral>
4.54759e-07

> <r_epik_State_Penalty>
-0

> <r_epik_Charging_Adjusted_Penalty>
0

> <i_epik_Tot_Q>
0

> <i_epik_Tot_abs_Q>
0

> <r_epik_Metal_State_Penalty>
-0

> <b_epik_Metal_Only>
0

> <s_lp_Force_Field>
OPLS_2005

> <r_lp_Energy>
15.297

> <b_lp_Chiralities_Consistent>
1

> <s_lp_Variant>
AV-unprocessed.smi:1065-2

> <Gold.Version>
5.8.1

> <Gold.Id.Protein>
6NUR|6NUR_protein|mol2

> <Gold.PLP.Fitness>
40.4985

> <Gold.PLP.PLP>
-33.8116

> <Gold.PLP.part.hbond>
-4.0000

> <Gold.PLP.part.metal>
0.0000

> <Gold.PLP.part.buried>
-5.8265

> <Gold.PLP.part.nonpolar>
-25.3132

> <Gold.PLP.part.repulsive>
0.6262

> <Gold.PLP.ligand.clash>
0.0000

> <Gold.PLP.ligand.torsion>
0.5711

> <Gold.PLP.Chemscore.Hbond>
2.6027

> <Gold.PLP.Chemscore.CHOScore>
0.0000

> <Gold.PLP.Chemscore.Metal>
0.0000

> <Gold.Chemscore.Hbonds>
donor molecule, donor type, donor heavy atom, donor atom, acceptor molecule, acceptor atom, score
      P1  H  6896  6907       L1    14  0.47
      P1  H  7989  7998       L1    10  1.00
      P1  H 10752 10763       L1    16  1.00

> <Gold.PLP.Chemscore.Internal.Correction>
0.0210

> <Gold.Rescore>
     Score         DG    S(hbond)    S(metal)    S(lipo)     H(rot)  DE(clash)    DE(int)     intcor
     14.94     -16.24       2.17        0.00      83.52       2.45       0.76       0.54       ----

> <Gold.Chemscore.Fitness>
14.9427

> <Gold.Chemscore.DG>
-16.2396

> <Gold.Chemscore.ZeroCoef>
-5.4800

> <Gold.Chemscore.Hbond>
2.1744

> <Gold.Chemscore.Metal>
0.0000

> <Gold.Chemscore.Lipo>
83.5232

> <Gold.Chemscore.Internal_Hbond>
0.0000

> <Gold.Chemscore.DEClash>
0.7599

> <Gold.Chemscore.DEInternal>
0.5369

> <Gold.Chemscore.Rot>
2.4512

> <Gold.Chemscore.Internal.Correction>
   9.000000E+99

> <Gold.Chemscore.Hbonds>
donor molecule, donor type, donor heavy atom, donor atom, acceptor molecule, acceptor atom, score
      P1  H  6896  6907       L1    14  0.23
      P1  H  7989  7998       L1    10  0.34
      P1  H 10752 10763       L1    16  0.94

> <Gold.Chemscore.Hbond.Weighted>
-7.2624

> <Gold.Chemscore.Metal.Weighted>
-0.0000

> <Gold.Chemscore.Lipo.Weighted>
-9.7722

> <Gold.Chemscore.Internal_Hbond.Weighted>
0.0000

> <Gold.Chemscore.DEClash.Weighted>
0.7599

> <Gold.Chemscore.DEInternal.Weighted>
0.5369

> <Gold.Chemscore.Rot.Weighted>
6.2750

> <Gold.Chemscore.Internal.Correction.Weighted>
   9.000000E+99

> <Gold.Protein.RotatedTorsions>
[ 6907 6896 6895 6894 ] final  -46.71 input  -60.11 | X-H torsion
[ 7974 7965 7964 7962 ] final  -46.45 input  175.53 | X-H torsion
[ 8008 7997 7996 7995 ] final -176.02 input   59.86 | X-H torsion
[ 10167 10162 10161 10158 ] final  152.21 input  -65.29 | X-H torsion
[ 10718 10713 10712 10709 ] final  126.04 input   66.30 | X-H torsion
[ 10763 10752 10751 10750 ] final   74.33 input  -60.55 | X-H torsion
[ 11005 11000 10999 10996 ] final    2.79 input  -57.11 | X-H torsion

> <Gold.Protein.ActiveResidues>
 VAL166  LYS551  ARG553  GLY616  TRP617  ASP618  TYR619  PRO620  LYS621  CYS622 
 ASP623  PHE694  ASN695  SER759  ASP760  ASP761  ALA762  ILE779  LEU786  VAL792 
 PHE793  MET794  SER795  GLU796  ALA797  LYS798  CYS799  TRP800  GLU811  SER814 

> <Gold.Protein.RotatedAtoms>
  150.9084  134.8500  159.7408 H   0  0  0  0  0  0  0  0  0  0  0  0  # atno 6907 bound_to 6896
  152.4931  134.4396  159.9549 H   0  0  0  0  0  0  0  0  0  0  0  0  # atno 6908 bound_to 6896
  151.4441  133.3596  159.2821 H   0  0  0  0  0  0  0  0  0  0  0  0  # atno 6909 bound_to 6896
  145.9717  140.7376  142.9407 H   0  0  0  0  0  0  0  0  0  0  0  0  # atno 7974 bound_to 7965
  155.9897  140.1198  157.0650 H   0  0  0  0  0  0  0  0  0  0  0  0  # atno 8008 bound_to 7997
  154.4208  140.1128  156.5617 H   0  0  0  0  0  0  0  0  0  0  0  0  # atno 8009 bound_to 7997
  155.6359  140.3473  155.4701 H   0  0  0  0  0  0  0  0  0  0  0  0  # atno 8010 bound_to 7997
  139.4834  144.5376  151.7618 H   0  0  0  0  0  0  0  0  0  0  0  0  # atno 10167 bound_to 10162
  157.5453  131.1096  150.8793 H   0  0  0  0  0  0  0  0  0  0  0  0  # atno 10718 bound_to 10713
  153.0580  135.5029  154.8027 H   0  0  0  0  0  0  0  0  0  0  0  0  # atno 10763 bound_to 10752
  154.6838  135.2972  154.9579 H   0  0  0  0  0  0  0  0  0  0  0  0  # atno 10764 bound_to 10752
  154.0356  135.6724  153.4837 H   0  0  0  0  0  0  0  0  0  0  0  0  # atno 10765 bound_to 10752
  140.6004  133.9841  155.8129 H   0  0  0  0  0  0  0  0  0  0  0  0  # atno 11005 bound_to 11000
  144.6838  140.2760  143.7299 LP  0  0  0  0  0  0  0  0  0  0  0  0  # atno 17320 bound_to 7965
  145.7896  139.1922  143.2110 LP  0  0  0  0  0  0  0  0  0  0  0  0  # atno 17321 bound_to 7965
  140.4911  144.1309  150.5950 LP  0  0  0  0  0  0  0  0  0  0  0  0  # atno 17342 bound_to 10162
  140.4170  143.2630  151.9763 LP  0  0  0  0  0  0  0  0  0  0  0  0  # atno 17343 bound_to 10162
  156.9333  130.5358  149.5279 LP  0  0  0  0  0  0  0  0  0  0  0  0  # atno 17370 bound_to 10713
  156.0530  130.5596  150.9031 LP  0  0  0  0  0  0  0  0  0  0  0  0  # atno 17371 bound_to 10713
  141.0876  133.9967  157.3289 LP  0  0  0  0  0  0  0  0  0  0  0  0  # atno 17394 bound_to 11000
  139.9235  135.0201  156.8150 LP  0  0  0  0  0  0  0  0  0  0  0  0  # atno 17395 bound_to 11000

$$$$
