AV-unprocessed.smi:2168|AV-procd|sdf|8819|dock7
  -GOLD-   2272012 13D 1   1.00000     0.00000
 Structure written by MMmdl.
 47 48  0  0  0  0  0  0  0  0  2 V2000
  151.3200  138.3043  154.6419 C   0  0  0  0  0  0  0  0  0  0  0  0
  152.3142  138.7954  155.7043 C   0  0  0  0  0  0  0  0  0  0  0  0
  152.0218  138.2682  157.0510 N   0  0  0  0  0  0  0  0  0  0  0  0
  151.0941  139.0545  157.8882 C   0  0  0  0  0  0  0  0  0  0  0  0
  151.6576  140.4302  158.2795 C   0  0  0  0  0  0  0  0  0  0  0  0
  152.3634  136.6084  157.4357 S   0  0  0  0  0  0  0  0  0  0  0  0
  153.7331  136.2829  157.0100 O   0  0  0  0  0  0  0  0  0  0  0  0
  151.9128  136.3347  158.8093 O   0  0  0  0  0  0  0  0  0  0  0  0
  151.2753  135.8344  156.3457 N   0  0  0  0  0  0  0  0  0  0  0  0
  151.2075  134.3759  156.3104 C   0  0  0  0  0  0  0  0  0  0  0  0
  150.1499  133.8716  155.3476 C   0  0  0  0  0  0  0  0  0  0  0  0
  149.9361  132.4890  155.1702 C   0  0  0  0  0  0  0  0  0  0  0  0
  148.9281  132.0506  154.2867 C   0  0  0  0  0  0  0  0  0  0  0  0
  148.1405  132.9979  153.5878 C   0  0  0  0  0  0  0  0  0  0  0  0
  147.1114  132.6170  152.6996 N   0  0  0  0  0  0  0  0  0  0  0  0
  146.8994  131.1805  152.5409 C   0  0  0  0  0  0  0  0  0  0  0  0
  145.5693  130.9123  151.8165 C   0  0  0  0  0  0  0  0  0  0  0  0
  145.5434  131.6190  150.5811 O   0  0  0  0  0  0  0  0  0  0  0  0
  145.6295  133.0263  150.7743 C   0  0  0  0  0  0  0  0  0  0  0  0
  146.9626  133.3735  151.4579 C   0  0  0  0  0  0  0  0  0  0  0  0
  148.3873  134.3156  153.7958 N   0  3  0  0  0  0  0  0  0  0  0  0
  149.3445  134.7778  154.6285 C   0  0  0  0  0  0  0  0  0  0  0  0
  151.6017  138.6770  153.6570 H   0  0  0  0  0  0  0  0  0  0  0  0
  150.3093  138.6586  154.8426 H   0  0  0  0  0  0  0  0  0  0  0  0
  151.2945  137.2167  154.5832 H   0  0  0  0  0  0  0  0  0  0  0  0
  153.3268  138.5143  155.4161 H   0  0  0  0  0  0  0  0  0  0  0  0
  152.3043  139.8853  155.7408 H   0  0  0  0  0  0  0  0  0  0  0  0
  150.1604  139.1875  157.3414 H   0  0  0  0  0  0  0  0  0  0  0  0
  150.8408  138.4902  158.7863 H   0  0  0  0  0  0  0  0  0  0  0  0
  150.9771  140.9402  158.9614 H   0  0  0  0  0  0  0  0  0  0  0  0
  151.7810  141.0744  157.4096 H   0  0  0  0  0  0  0  0  0  0  0  0
  152.6232  140.3514  158.7774 H   0  0  0  0  0  0  0  0  0  0  0  0
  151.2350  136.2774  155.4279 H   0  0  0  0  0  0  0  0  0  0  0  0
  152.1761  133.9895  155.9927 H   0  0  0  0  0  0  0  0  0  0  0  0
  151.0308  133.9967  157.3178 H   0  0  0  0  0  0  0  0  0  0  0  0
  150.5288  131.7676  155.7138 H   0  0  0  0  0  0  0  0  0  0  0  0
  148.7584  130.9904  154.1746 H   0  0  0  0  0  0  0  0  0  0  0  0
  147.7272  130.7647  151.9652 H   0  0  0  0  0  0  0  0  0  0  0  0
  146.8877  130.6643  153.4995 H   0  0  0  0  0  0  0  0  0  0  0  0
  145.4593  129.8463  151.6175 H   0  0  0  0  0  0  0  0  0  0  0  0
  144.7218  131.2091  152.4365 H   0  0  0  0  0  0  0  0  0  0  0  0
  145.5635  133.5228  149.8063 H   0  0  0  0  0  0  0  0  0  0  0  0
  144.7839  133.3755  151.3694 H   0  0  0  0  0  0  0  0  0  0  0  0
  146.9921  134.4449  151.6603 H   0  0  0  0  0  0  0  0  0  0  0  0
  147.7952  133.1424  150.7922 H   0  0  0  0  0  0  0  0  0  0  0  0
  149.4277  135.8524  154.7034 H   0  0  0  0  0  0  0  0  0  0  0  0
  147.8176  134.9978  153.2954 H   0  0  0  0  0  0  0  0  0  0  0  0
  1  2  1  0  0  0  0
  1 23  1  0  0  0  0
  1 24  1  0  0  0  0
  1 25  1  0  0  0  0
  2  3  1  0  0  0  0
  2 26  1  0  0  0  0
  2 27  1  0  0  0  0
  3  4  1  0  0  0  0
  3  6  1  0  0  0  0
  4  5  1  0  0  0  0
  4 28  1  0  0  0  0
  4 29  1  0  0  0  0
  5 30  1  0  0  0  0
  5 31  1  0  0  0  0
  5 32  1  0  0  0  0
  6  7  2  0  0  0  0
  6  8  2  0  0  0  0
  6  9  1  0  0  0  0
  9 10  1  0  0  0  0
  9 33  1  0  0  0  0
 10 11  1  0  0  0  0
 10 34  1  0  0  0  0
 10 35  1  0  0  0  0
 11 22  1  0  0  0  0
 11 12  2  0  0  0  0
 12 13  1  0  0  0  0
 12 36  1  0  0  0  0
 13 14  2  0  0  0  0
 13 37  1  0  0  0  0
 14 15  1  0  0  0  0
 14 21  1  0  0  0  0
 15 20  1  0  0  0  0
 15 16  1  0  0  0  0
 16 17  1  0  0  0  0
 16 38  1  0  0  0  0
 16 39  1  0  0  0  0
 17 18  1  0  0  0  0
 17 40  1  0  0  0  0
 17 41  1  0  0  0  0
 18 19  1  0  0  0  0
 19 20  1  0  0  0  0
 19 42  1  0  0  0  0
 19 43  1  0  0  0  0
 20 44  1  0  0  0  0
 20 45  1  0  0  0  0
 21 22  2  0  0  0  0
 21 47  1  0  0  0  0
 22 46  1  0  0  0  0
M  CHG  1  21   1
M  END
> <s_m_source_file>
AV-unprocessed.smi

> <i_m_source_file_index>
2168

> <i_lp_mmshare_version>
43012

> <i_f3d_flags>
0

> <s_epik_input>
W0NIM11bQ0gyXU4oW0NIMl1bQ0gzXSlTKD1PKSg9TylbTkhdW0NIMl1jMVtjSF1bY0hdYyhuW2NIXTEpTjJbQ0gyXVtDSDJdT1tDSDJdW0NIMl0y

> <s_epik_cmdline>
J2VwaWtfcHl0aG9uJywgJy1waCcsICc3LjAnLCAnLXRuJywgJzgnLCAnLW1hJywgJzIwMCcsICctbWV0YWxfYmluZGluZycsICctaW1hZScsICc8aW5maWxlLm1hZT4nLCAnLW9tYWUnLCAnPG91dGZpbGUubWFlPic=

> <r_lp_tautomer_probability>
0.999994

> <r_epik_Ionization_Penalty>
2.66893

> <r_epik_Ionization_Penalty_Charging>
2.61323

> <r_epik_Ionization_Penalty_Neutral>
0.0557011

> <r_epik_State_Penalty>
2.68492

> <r_epik_Charging_Adjusted_Penalty>
5.29815

> <i_epik_Tot_Q>
1

> <i_epik_Tot_abs_Q>
1

> <r_epik_Metal_State_Penalty>
5.63236

> <b_epik_Metal_Only>
0

> <s_lp_Force_Field>
OPLS_2005

> <r_lp_Energy>
21.5493

> <b_lp_Chiralities_Consistent>
1

> <s_lp_Variant>
AV-unprocessed.smi:2168-2

> <Gold.Version>
5.8.1

> <Gold.Id.Protein>
6NUR|6NUR_protein|mol2

> <Gold.PLP.Fitness>
42.9483

> <Gold.PLP.PLP>
-35.7033

> <Gold.PLP.part.hbond>
-3.8416

> <Gold.PLP.part.metal>
0.0000

> <Gold.PLP.part.buried>
-3.1344

> <Gold.PLP.part.nonpolar>
-27.7276

> <Gold.PLP.part.repulsive>
0.2327

> <Gold.PLP.ligand.clash>
0.0000

> <Gold.PLP.ligand.torsion>
1.6738

> <Gold.PLP.Chemscore.Hbond>
2.5840

> <Gold.PLP.Chemscore.CHOScore>
0.0000

> <Gold.PLP.Chemscore.Metal>
0.0000

> <Gold.Chemscore.Hbonds>
donor molecule, donor type, donor heavy atom, donor atom, acceptor molecule, acceptor atom, score
      L1  H    21    47       P1  7948  0.32
      P1  H  6896  6909       L1     8  0.66
      P1  H 10752 10765       L1     7  0.90

> <Gold.PLP.Chemscore.Internal.Correction>
2.8406

> <Gold.Rescore>
     Score         DG    S(hbond)    S(metal)    S(lipo)     H(rot)  DE(clash)    DE(int)     intcor
     15.34     -17.05       2.13        0.00      81.76       1.99       0.07       1.65       ----

> <Gold.Chemscore.Fitness>
15.3365

> <Gold.Chemscore.DG>
-17.0530

> <Gold.Chemscore.ZeroCoef>
-5.4800

> <Gold.Chemscore.Hbond>
2.1288

> <Gold.Chemscore.Metal>
0.0000

> <Gold.Chemscore.Lipo>
81.7556

> <Gold.Chemscore.Internal_Hbond>
0.0000

> <Gold.Chemscore.DEClash>
0.0693

> <Gold.Chemscore.DEInternal>
1.6472

> <Gold.Chemscore.Rot>
1.9932

> <Gold.Chemscore.Internal.Correction>
   9.000000E+99

> <Gold.Chemscore.Hbonds>
donor molecule, donor type, donor heavy atom, donor atom, acceptor molecule, acceptor atom, score
      L1  H    21    47       P1  7948  0.16
      P1  H  6896  6909       L1     8  0.66
      P1  H 10752 10765       L1     7  0.85

> <Gold.Chemscore.Hbond.Weighted>
-7.1100

> <Gold.Chemscore.Metal.Weighted>
-0.0000

> <Gold.Chemscore.Lipo.Weighted>
-9.5654

> <Gold.Chemscore.Internal_Hbond.Weighted>
0.0000

> <Gold.Chemscore.DEClash.Weighted>
0.0693

> <Gold.Chemscore.DEInternal.Weighted>
1.6472

> <Gold.Chemscore.Rot.Weighted>
5.1025

> <Gold.Chemscore.Internal.Correction.Weighted>
   9.000000E+99

> <Gold.Protein.RotatedTorsions>
[ 6907 6896 6895 6894 ] final  121.67 input  -60.11 | X-H torsion
[ 7974 7965 7964 7962 ] final -124.73 input  175.53 | X-H torsion
[ 8008 7997 7996 7995 ] final  -63.66 input   59.86 | X-H torsion
[ 10167 10162 10161 10158 ] final -121.91 input  -65.29 | X-H torsion
[ 10718 10713 10712 10709 ] final  174.84 input   66.30 | X-H torsion
[ 10763 10752 10751 10750 ] final  -85.06 input  -60.55 | X-H torsion
[ 11005 11000 10999 10996 ] final  -21.79 input  -57.11 | X-H torsion

> <Gold.Protein.ActiveResidues>
 VAL166  LYS551  ARG553  GLY616  TRP617  ASP618  TYR619  PRO620  LYS621  CYS622 
 ASP623  PHE694  ASN695  SER759  ASP760  ASP761  ALA762  ILE779  LEU786  VAL792 
 PHE793  MET794  SER795  GLU796  ALA797  LYS798  CYS799  TRP800  GLU811  SER814 

> <Gold.Protein.RotatedAtoms>
  152.4303  133.7267  159.6563 H   0  0  0  0  0  0  0  0  0  0  0  0  # atno 6907 bound_to 6896
  150.8182  133.8288  159.3157 H   0  0  0  0  0  0  0  0  0  0  0  0  # atno 6908 bound_to 6896
  151.5978  135.1051  160.0105 H   0  0  0  0  0  0  0  0  0  0  0  0  # atno 6909 bound_to 6896
  145.0050  140.7854  143.4473 H   0  0  0  0  0  0  0  0  0  0  0  0  # atno 7974 bound_to 7965
  154.4567  140.0970  156.6777 H   0  0  0  0  0  0  0  0  0  0  0  0  # atno 8008 bound_to 7997
  155.5117  140.3476  155.4371 H   0  0  0  0  0  0  0  0  0  0  0  0  # atno 8009 bound_to 7997
  156.0791  140.1368  156.9723 H   0  0  0  0  0  0  0  0  0  0  0  0  # atno 8010 bound_to 7997
  140.0199  143.5355  152.2225 H   0  0  0  0  0  0  0  0  0  0  0  0  # atno 10167 bound_to 10162
  156.9436  131.0009  151.2963 H   0  0  0  0  0  0  0  0  0  0  0  0  # atno 10718 bound_to 10713
  154.6067  135.5498  153.7431 H   0  0  0  0  0  0  0  0  0  0  0  0  # atno 10763 bound_to 10752
  153.0177  135.6379  154.1636 H   0  0  0  0  0  0  0  0  0  0  0  0  # atno 10764 bound_to 10752
  154.1575  135.2899  155.3098 H   0  0  0  0  0  0  0  0  0  0  0  0  # atno 10765 bound_to 10752
  140.8595  133.7798  156.0058 H   0  0  0  0  0  0  0  0  0  0  0  0  # atno 11005 bound_to 11000
  145.2101  139.2209  143.5147 LP  0  0  0  0  0  0  0  0  0  0  0  0  # atno 17320 bound_to 7965
  146.3459  140.1937  142.8589 LP  0  0  0  0  0  0  0  0  0  0  0  0  # atno 17321 bound_to 7965
  139.6147  144.7616  151.2874 LP  0  0  0  0  0  0  0  0  0  0  0  0  # atno 17342 bound_to 10162
  140.7347  143.6759  150.8042 LP  0  0  0  0  0  0  0  0  0  0  0  0  # atno 17343 bound_to 10162
  157.5769  130.8349  149.8467 LP  0  0  0  0  0  0  0  0  0  0  0  0  # atno 17370 bound_to 10713
  156.0393  130.3743  150.1476 LP  0  0  0  0  0  0  0  0  0  0  0  0  # atno 17371 bound_to 10713
  140.8699  134.2739  157.5195 LP  0  0  0  0  0  0  0  0  0  0  0  0  # atno 17394 bound_to 11000
  139.8706  134.9562  156.4229 LP  0  0  0  0  0  0  0  0  0  0  0  0  # atno 17395 bound_to 11000

$$$$
