AV-unprocessed.smi:1686|AV-procd|sdf|6765|dock5
  -GOLD-   22720 7523D 1   1.00000     0.00000
 Structure written by MMmdl.
 41 43  0  0  0  0  0  0  0  0  1 V2000
  149.3764  138.7602  154.2235 C   0  0  0  0  0  0  0  0  0  0  0  0
  150.4906  138.1231  155.0028 C   0  0  0  0  0  0  0  0  0  0  0  0
  150.5876  136.8002  155.0267 N   0  0  0  0  0  0  0  0  0  0  0  0
  151.6957  136.5002  155.8273 O   0  0  0  0  0  0  0  0  0  0  0  0
  152.2130  137.6781  156.2452 C   0  0  0  0  0  0  0  0  0  0  0  0
  153.5923  137.7665  157.2677 Cl  0  0  0  0  0  0  0  0  0  0  0  0
  151.5176  138.7513  155.7676 C   0  0  0  0  0  0  0  0  0  0  0  0
  151.7590  140.2249  155.9915 C   0  0  0  0  0  0  0  0  0  0  0  0
  151.4512  140.6411  157.4348 C   0  0  0  0  0  0  0  0  0  0  0  0
  150.4001  140.3087  157.9855 O   0  0  0  0  0  0  0  0  0  0  0  0
  152.3931  141.3875  158.0324 N   0  0  0  0  0  0  0  0  0  0  0  0
  152.3374  141.9259  159.3911 C   0  0  1  0  0  0  0  0  0  0  0  0
  153.3880  141.2034  160.2482 C   0  0  0  0  0  0  0  0  0  0  0  0
  152.5549  143.4585  159.3534 C   0  0  1  0  0  0  0  0  0  0  0  0
  151.7036  144.2152  158.3067 C   0  0  0  0  0  0  0  0  0  0  0  0
  151.0961  145.3712  159.1224 C   0  0  1  0  0  0  0  0  0  0  0  0
  149.9870  144.8127  160.0325 C   0  0  0  0  0  0  0  0  0  0  0  0
  150.7843  144.0537  161.1087 C   0  0  0  0  0  0  0  0  0  0  0  0
  152.2453  144.2452  160.6519 C   0  0  2  0  0  0  0  0  0  0  0  0
  152.2029  145.6763  160.1251 C   0  0  0  0  0  0  0  0  0  0  0  0
  149.3168  139.8315  154.4149 H   0  0  0  0  0  0  0  0  0  0  0  0
  148.4123  138.3268  154.4903 H   0  0  0  0  0  0  0  0  0  0  0  0
  149.5199  138.6213  153.1519 H   0  0  0  0  0  0  0  0  0  0  0  0
  152.7930  140.4908  155.7693 H   0  0  0  0  0  0  0  0  0  0  0  0
  151.1438  140.8261  155.3212 H   0  0  0  0  0  0  0  0  0  0  0  0
  153.2205  141.6083  157.4974 H   0  0  0  0  0  0  0  0  0  0  0  0
  151.3595  141.7137  159.8231 H   0  0  0  0  0  0  0  0  0  0  0  0
  153.3395  141.5235  161.2890 H   0  0  0  0  0  0  0  0  0  0  0  0
  154.3985  141.3964  159.8864 H   0  0  0  0  0  0  0  0  0  0  0  0
  153.2290  140.1246  160.2348 H   0  0  0  0  0  0  0  0  0  0  0  0
  153.6063  143.6331  159.1159 H   0  0  0  0  0  0  0  0  0  0  0  0
  152.3347  144.5908  157.5006 H   0  0  0  0  0  0  0  0  0  0  0  0
  150.9273  143.5964  157.8556 H   0  0  0  0  0  0  0  0  0  0  0  0
  150.7765  146.2169  158.5127 H   0  0  0  0  0  0  0  0  0  0  0  0
  149.4072  145.6198  160.4821 H   0  0  0  0  0  0  0  0  0  0  0  0
  149.2952  144.1648  159.4929 H   0  0  0  0  0  0  0  0  0  0  0  0
  150.6298  144.5146  162.0851 H   0  0  0  0  0  0  0  0  0  0  0  0
  150.4894  143.0090  161.1975 H   0  0  0  0  0  0  0  0  0  0  0  0
  152.9750  144.0825  161.4455 H   0  0  0  0  0  0  0  0  0  0  0  0
  153.1353  145.9965  159.6566 H   0  0  0  0  0  0  0  0  0  0  0  0
  151.9125  146.4092  160.8802 H   0  0  0  0  0  0  0  0  0  0  0  0
  1  2  1  0  0  0  0
  1 21  1  0  0  0  0
  1 22  1  0  0  0  0
  1 23  1  0  0  0  0
  2  7  1  0  0  0  0
  2  3  2  0  0  0  0
  3  4  1  0  0  0  0
  4  5  1  0  0  0  0
  5  6  1  0  0  0  0
  5  7  2  0  0  0  0
  7  8  1  0  0  0  0
  8  9  1  0  0  0  0
  8 24  1  0  0  0  0
  8 25  1  0  0  0  0
  9 10  2  0  0  0  0
  9 11  1  0  0  0  0
 11 12  1  0  0  0  0
 11 26  1  0  0  0  0
 12 13  1  0  0  0  0
 12 14  1  0  0  0  0
 12 27  1  0  0  0  0
 13 28  1  0  0  0  0
 13 29  1  0  0  0  0
 13 30  1  0  0  0  0
 14 19  1  0  0  0  0
 14 15  1  0  0  0  0
 14 31  1  0  0  0  0
 15 16  1  0  0  0  0
 15 32  1  0  0  0  0
 15 33  1  0  0  0  0
 16 20  1  0  0  0  0
 16 17  1  0  0  0  0
 16 34  1  0  0  0  0
 17 18  1  0  0  0  0
 17 35  1  0  0  0  0
 17 36  1  0  0  0  0
 18 19  1  0  0  0  0
 18 37  1  0  0  0  0
 18 38  1  0  0  0  0
 19 20  1  0  0  0  0
 19 39  1  0  0  0  0
 20 40  1  0  0  0  0
 20 41  1  0  0  0  0
M  END
> <s_m_source_file>
AV-unprocessed.smi

> <i_m_source_file_index>
1686

> <i_lp_mmshare_version>
43012

> <i_f3d_flags>
0

> <s_epik_input>
W0NIM11jMW5vYyhDbCljMVtDSDJdQyg9TylbTkhdW0NASF0oW0NIM10pW0NASF0oW0NIMl1bQ0BIXTIzKVtDQEhdKFtDSDJdMylbQ0gyXVtDSDJdMg==

> <s_epik_cmdline>
J2VwaWtfcHl0aG9uJywgJy1waCcsICc3LjAnLCAnLXRuJywgJzgnLCAnLW1hJywgJzIwMCcsICctbWV0YWxfYmluZGluZycsICctaW1hZScsICc8aW5maWxlLm1hZT4nLCAnLW9tYWUnLCAnPG91dGZpbGUubWFlPic=

> <r_lp_tautomer_probability>
1

> <r_epik_Ionization_Penalty>
2.01576e-08

> <r_epik_Ionization_Penalty_Charging>
0

> <r_epik_Ionization_Penalty_Neutral>
2.01576e-08

> <r_epik_State_Penalty>
-0

> <r_epik_Charging_Adjusted_Penalty>
0

> <i_epik_Tot_Q>
0

> <i_epik_Tot_abs_Q>
0

> <r_epik_Metal_State_Penalty>
-0

> <b_epik_Metal_Only>
0

> <s_lp_Force_Field>
OPLS_2005

> <r_lp_Energy>
47.064

> <b_lp_Chiralities_Consistent>
1

> <s_lp_Variant>
AV-unprocessed.smi:1686-8

> <Gold.Version>
5.8.1

> <Gold.Id.Protein>
6NUR|6NUR_protein|mol2

> <Gold.PLP.Fitness>
41.8064

> <Gold.PLP.PLP>
-39.5804

> <Gold.PLP.part.hbond>
-1.0000

> <Gold.PLP.part.metal>
0.0000

> <Gold.PLP.part.buried>
-0.4368

> <Gold.PLP.part.nonpolar>
-37.0873

> <Gold.PLP.part.repulsive>
0.2707

> <Gold.PLP.ligand.clash>
0.0000

> <Gold.PLP.ligand.torsion>
0.3991

> <Gold.PLP.Chemscore.Hbond>
1.0000

> <Gold.PLP.Chemscore.CHOScore>
0.0000

> <Gold.PLP.Chemscore.Metal>
0.0000

> <Gold.Chemscore.Hbonds>
donor molecule, donor type, donor heavy atom, donor atom, acceptor molecule, acceptor atom, score
      P1  H 10752 10764       L1     4  1.00

> <Gold.PLP.Chemscore.Internal.Correction>
0.0242

> <Gold.Rescore>
     Score         DG    S(hbond)    S(metal)    S(lipo)     H(rot)  DE(clash)    DE(int)     intcor
     18.68     -19.65       0.76        0.00     131.45       1.46       0.62       0.34       ----

> <Gold.Chemscore.Fitness>
18.6841

> <Gold.Chemscore.DG>
-19.6467

> <Gold.Chemscore.ZeroCoef>
-5.4800

> <Gold.Chemscore.Hbond>
0.7595

> <Gold.Chemscore.Metal>
0.0000

> <Gold.Chemscore.Lipo>
131.4523

> <Gold.Chemscore.Internal_Hbond>
0.0000

> <Gold.Chemscore.DEClash>
0.6223

> <Gold.Chemscore.DEInternal>
0.3403

> <Gold.Chemscore.Rot>
1.4648

> <Gold.Chemscore.Internal.Correction>
   9.000000E+99

> <Gold.Chemscore.Hbonds>
donor molecule, donor type, donor heavy atom, donor atom, acceptor molecule, acceptor atom, score
      P1  H 10752 10764       L1     4  0.44

> <Gold.Chemscore.Hbond.Weighted>
-2.5368

> <Gold.Chemscore.Metal.Weighted>
-0.0000

> <Gold.Chemscore.Lipo.Weighted>
-15.3799

> <Gold.Chemscore.Internal_Hbond.Weighted>
0.0000

> <Gold.Chemscore.DEClash.Weighted>
0.6223

> <Gold.Chemscore.DEInternal.Weighted>
0.3403

> <Gold.Chemscore.Rot.Weighted>
3.7500

> <Gold.Chemscore.Internal.Correction.Weighted>
   9.000000E+99

> <Gold.Protein.RotatedTorsions>
[ 6907 6896 6895 6894 ] final   28.83 input  -60.11 | X-H torsion
[ 7974 7965 7964 7962 ] final -118.15 input  175.53 | X-H torsion
[ 8008 7997 7996 7995 ] final   70.31 input   59.86 | X-H torsion
[ 10167 10162 10161 10158 ] final  103.04 input  -65.29 | X-H torsion
[ 10718 10713 10712 10709 ] final  117.35 input   66.30 | X-H torsion
[ 10763 10752 10751 10750 ] final  -54.15 input  -60.55 | X-H torsion
[ 11005 11000 10999 10996 ] final   28.80 input  -57.11 | X-H torsion

> <Gold.Protein.ActiveResidues>
 VAL166  LYS551  ARG553  GLY616  TRP617  ASP618  TYR619  PRO620  LYS621  CYS622 
 ASP623  PHE694  ASN695  SER759  ASP760  ASP761  ALA762  ILE779  LEU786  VAL792 
 PHE793  MET794  SER795  GLU796  ALA797  LYS798  CYS799  TRP800  GLU811  SER814 

> <Gold.Protein.RotatedAtoms>
  152.0227  134.9813  160.0570 H   0  0  0  0  0  0  0  0  0  0  0  0  # atno 6907 bound_to 6896
  152.1321  133.4409  159.4734 H   0  0  0  0  0  0  0  0  0  0  0  0  # atno 6908 bound_to 6896
  150.6857  134.2326  159.4483 H   0  0  0  0  0  0  0  0  0  0  0  0  # atno 6909 bound_to 6896
  145.0770  140.8399  143.4061 H   0  0  0  0  0  0  0  0  0  0  0  0  # atno 7974 bound_to 7965
  155.7369  140.3491  155.5086 H   0  0  0  0  0  0  0  0  0  0  0  0  # atno 8008 bound_to 7997
  155.9130  140.1054  157.1286 H   0  0  0  0  0  0  0  0  0  0  0  0  # atno 8009 bound_to 7997
  154.4058  140.1264  156.4569 H   0  0  0  0  0  0  0  0  0  0  0  0  # atno 8010 bound_to 7997
  139.7297  144.7039  151.0742 H   0  0  0  0  0  0  0  0  0  0  0  0  # atno 10167 bound_to 10162
  157.6102  131.1036  150.7602 H   0  0  0  0  0  0  0  0  0  0  0  0  # atno 10718 bound_to 10713
  154.1703  135.6460  153.5008 H   0  0  0  0  0  0  0  0  0  0  0  0  # atno 10763 bound_to 10752
  153.0086  135.5382  154.6620 H   0  0  0  0  0  0  0  0  0  0  0  0  # atno 10764 bound_to 10752
  154.5957  135.2938  155.0561 H   0  0  0  0  0  0  0  0  0  0  0  0  # atno 10765 bound_to 10752
  140.3118  134.2641  155.7733 H   0  0  0  0  0  0  0  0  0  0  0  0  # atno 11005 bound_to 11000
  145.1223  139.2685  143.5582 LP  0  0  0  0  0  0  0  0  0  0  0  0  # atno 17320 bound_to 7965
  146.3530  140.0850  142.8615 LP  0  0  0  0  0  0  0  0  0  0  0  0  # atno 17321 bound_to 7965
  140.7769  143.5059  150.9713 LP  0  0  0  0  0  0  0  0  0  0  0  0  # atno 17342 bound_to 10162
  139.8747  143.7147  152.3163 LP  0  0  0  0  0  0  0  0  0  0  0  0  # atno 17343 bound_to 10162
  156.7981  130.4912  149.5374 LP  0  0  0  0  0  0  0  0  0  0  0  0  # atno 17370 bound_to 10713
  156.1202  130.6104  151.0182 LP  0  0  0  0  0  0  0  0  0  0  0  0  # atno 17371 bound_to 10713
  141.2106  133.7713  156.9918 LP  0  0  0  0  0  0  0  0  0  0  0  0  # atno 17394 bound_to 11000
  140.1018  134.9530  157.1935 LP  0  0  0  0  0  0  0  0  0  0  0  0  # atno 17395 bound_to 11000

$$$$
