AV-unprocessed.smi:1703|AV-procd|sdf|6858|dock5
  -GOLD-   22720 8 43D 1   1.00000     0.00000
 Structure written by MMmdl.
 48 50  0  0  0  0  0  0  0  0  1 V2000
  153.2859  135.6132  164.2187 C   0  0  0  0  0  0  0  0  0  0  0  0
  153.9052  136.4785  163.1162 C   0  0  1  0  0  0  0  0  0  0  0  0
  152.9343  136.7044  161.9432 C   0  0  0  0  0  0  0  0  0  0  0  0
  153.4938  137.5944  160.9335 N   0  0  0  0  0  0  0  0  0  0  0  0
  152.5664  137.7566  159.8129 C   0  0  0  0  0  0  0  0  0  0  0  0
  152.6085  139.1312  159.1093 C   0  0  1  0  0  0  0  0  0  0  0  0
  153.5677  139.0724  158.0739 O   0  0  0  0  0  0  0  0  0  0  0  0
  151.2650  139.5401  158.4712 C   0  0  0  0  0  0  0  0  0  0  0  0
  151.2344  140.9326  158.0431 N   0  0  0  0  0  0  0  0  0  0  0  0
  150.9054  141.4270  156.8228 C   0  0  0  0  0  0  0  0  0  0  0  0
  150.4924  140.5442  155.6852 C   0  0  0  0  0  0  0  0  0  0  0  0
  150.2898  141.2610  154.4861 O   0  0  0  0  0  0  0  0  0  0  0  0
  150.9613  142.7537  156.6995 N   0  0  0  0  0  0  0  0  0  0  0  0
  151.3542  143.1598  157.9598 C   0  0  0  0  0  0  0  0  0  0  0  0
  151.5905  144.4544  158.4751 C   0  0  0  0  0  0  0  0  0  0  0  0
  151.9913  144.6271  159.8162 C   0  0  0  0  0  0  0  0  0  0  0  0
  152.1612  143.5102  160.6597 C   0  0  0  0  0  0  0  0  0  0  0  0
  151.9299  142.2116  160.1667 C   0  0  0  0  0  0  0  0  0  0  0  0
  151.5307  142.0443  158.8267 C   0  0  0  0  0  0  0  0  0  0  0  0
  153.8395  138.8663  161.5665 C   0  0  0  0  0  0  0  0  0  0  0  0
  154.7881  138.6946  162.7701 C   0  0  2  0  0  0  0  0  0  0  0  0
  156.2322  138.3554  162.3627 C   0  0  0  0  0  0  0  0  0  0  0  0
  154.2580  137.7368  163.6877 O   0  0  0  0  0  0  0  0  0  0  0  0
  153.0048  134.6317  163.8365 H   0  0  0  0  0  0  0  0  0  0  0  0
  152.3920  136.0813  164.6317 H   0  0  0  0  0  0  0  0  0  0  0  0
  153.9909  135.4619  165.0365 H   0  0  0  0  0  0  0  0  0  0  0  0
  154.8049  135.9802  162.7540 H   0  0  0  0  0  0  0  0  0  0  0  0
  152.6916  135.7416  161.4914 H   0  0  0  0  0  0  0  0  0  0  0  0
  151.9962  137.1169  162.3187 H   0  0  0  0  0  0  0  0  0  0  0  0
  152.7701  136.9911  159.0624 H   0  0  0  0  0  0  0  0  0  0  0  0
  151.5560  137.5571  160.1705 H   0  0  0  0  0  0  0  0  0  0  0  0
  152.9125  139.9100  159.8060 H   0  0  0  0  0  0  0  0  0  0  0  0
  153.1215  138.8594  157.2681 H   0  0  0  0  0  0  0  0  0  0  0  0
  151.0438  138.9047  157.6131 H   0  0  0  0  0  0  0  0  0  0  0  0
  150.4498  139.3805  159.1782 H   0  0  0  0  0  0  0  0  0  0  0  0
  151.2636  139.7923  155.5147 H   0  0  0  0  0  0  0  0  0  0  0  0
  149.5824  140.0038  155.9425 H   0  0  0  0  0  0  0  0  0  0  0  0
  149.6705  141.9548  154.6525 H   0  0  0  0  0  0  0  0  0  0  0  0
  151.4627  145.3163  157.8371 H   0  0  0  0  0  0  0  0  0  0  0  0
  152.1691  145.6212  160.1995 H   0  0  0  0  0  0  0  0  0  0  0  0
  152.4690  143.6509  161.6855 H   0  0  0  0  0  0  0  0  0  0  0  0
  152.0611  141.3546  160.8105 H   0  0  0  0  0  0  0  0  0  0  0  0
  154.3049  139.5415  160.8501 H   0  0  0  0  0  0  0  0  0  0  0  0
  152.9274  139.3601  161.9058 H   0  0  0  0  0  0  0  0  0  0  0  0
  154.8240  139.6435  163.3057 H   0  0  0  0  0  0  0  0  0  0  0  0
  156.6633  139.1574  161.7631 H   0  0  0  0  0  0  0  0  0  0  0  0
  156.2880  137.4417  161.7711 H   0  0  0  0  0  0  0  0  0  0  0  0
  156.8640  138.2243  163.2414 H   0  0  0  0  0  0  0  0  0  0  0  0
  1  2  1  0  0  0  0
  1 24  1  0  0  0  0
  1 25  1  0  0  0  0
  1 26  1  0  0  0  0
  2 23  1  0  0  0  0
  2  3  1  0  0  0  0
  2 27  1  0  0  0  0
  3  4  1  0  0  0  0
  3 28  1  0  0  0  0
  3 29  1  0  0  0  0
  4  5  1  0  0  0  0
  4 20  1  0  0  0  0
  5  6  1  0  0  0  0
  5 30  1  0  0  0  0
  5 31  1  0  0  0  0
  6  7  1  0  0  0  0
  6  8  1  0  0  0  0
  6 32  1  0  0  0  0
  7 33  1  0  0  0  0
  8  9  1  0  0  0  0
  8 34  1  0  0  0  0
  8 35  1  0  0  0  0
  9 19  1  0  0  0  0
  9 10  1  0  0  0  0
 10 11  1  0  0  0  0
 10 13  2  0  0  0  0
 11 12  1  0  0  0  0
 11 36  1  0  0  0  0
 11 37  1  0  0  0  0
 12 38  1  0  0  0  0
 13 14  1  0  0  0  0
 14 19  2  0  0  0  0
 14 15  1  0  0  0  0
 15 16  2  0  0  0  0
 15 39  1  0  0  0  0
 16 17  1  0  0  0  0
 16 40  1  0  0  0  0
 17 18  2  0  0  0  0
 17 41  1  0  0  0  0
 18 19  1  0  0  0  0
 18 42  1  0  0  0  0
 20 21  1  0  0  0  0
 20 43  1  0  0  0  0
 20 44  1  0  0  0  0
 21 22  1  0  0  0  0
 21 23  1  0  0  0  0
 21 45  1  0  0  0  0
 22 46  1  0  0  0  0
 22 47  1  0  0  0  0
 22 48  1  0  0  0  0
M  END
> <s_m_source_file>
AV-unprocessed.smi

> <i_m_source_file_index>
1703

> <i_lp_mmshare_version>
43012

> <i_f3d_flags>
0

> <s_epik_input>
W0NIM11bQ0BASF0xW0NIMl1OKFtDSDJdW0NASF0oTzEpW0NIM10pW0NIMl1bQ0BIXShbT0hdKVtDSDJdbihjKG4yKVtDSDJdW09IXSljKGMyMylbY0hdW2NIXVtjSF1bY0hdMw==

> <s_epik_cmdline>
J2VwaWtfcHl0aG9uJywgJy1waCcsICc3LjAnLCAnLXRuJywgJzgnLCAnLW1hJywgJzIwMCcsICctbWV0YWxfYmluZGluZycsICctaW1hZScsICc8aW5maWxlLm1hZT4nLCAnLW9tYWUnLCAnPG91dGZpbGUubWFlPic=

> <r_epik_Ionization_Penalty>
0.307685

> <r_epik_Ionization_Penalty_Charging>
0

> <r_epik_Ionization_Penalty_Neutral>
0.307685

> <r_epik_State_Penalty>
0.277856

> <r_epik_Charging_Adjusted_Penalty>
0.277856

> <i_epik_Tot_Q>
0

> <i_epik_Tot_abs_Q>
0

> <r_epik_Metal_State_Penalty>
0.238959

> <b_epik_Metal_Only>
0

> <s_lp_Force_Field>
OPLS_2005

> <r_lp_Energy>
33.4596

> <b_lp_Chiralities_Consistent>
1

> <s_lp_Variant>
AV-unprocessed.smi:1703-6

> <Gold.Version>
5.8.1

> <Gold.Id.Protein>
6NUR|6NUR_protein|mol2

> <Gold.PLP.Fitness>
51.4145

> <Gold.PLP.PLP>
-47.8604

> <Gold.PLP.part.hbond>
-1.9573

> <Gold.PLP.part.metal>
0.0000

> <Gold.PLP.part.buried>
-5.3990

> <Gold.PLP.part.nonpolar>
-40.4219

> <Gold.PLP.part.repulsive>
0.2874

> <Gold.PLP.ligand.clash>
0.0000

> <Gold.PLP.ligand.torsion>
0.9201

> <Gold.PLP.Chemscore.Hbond>
1.7760

> <Gold.PLP.Chemscore.CHOScore>
0.0000

> <Gold.PLP.Chemscore.Metal>
0.0000

> <Gold.Chemscore.Hbonds>
donor molecule, donor type, donor heavy atom, donor atom, acceptor molecule, acceptor atom, score
      P1  H  7989  7998       L1    12  0.48
      P1  H  7997  8009       L1     7  0.70

> <Gold.PLP.Chemscore.Internal.Correction>
0.0662

> <Gold.Rescore>
     Score         DG    S(hbond)    S(metal)    S(lipo)     H(rot)  DE(clash)    DE(int)     intcor
     17.58     -18.52       1.56        0.00     129.83       2.88       0.00       0.94       ----

> <Gold.Chemscore.Fitness>
17.5785

> <Gold.Chemscore.DG>
-18.5178

> <Gold.Chemscore.ZeroCoef>
-5.4800

> <Gold.Chemscore.Hbond>
1.5614

> <Gold.Chemscore.Metal>
0.0000

> <Gold.Chemscore.Lipo>
129.8272

> <Gold.Chemscore.Internal_Hbond>
0.0000

> <Gold.Chemscore.DEClash>
0.0029

> <Gold.Chemscore.DEInternal>
0.9364

> <Gold.Chemscore.Rot>
2.8778

> <Gold.Chemscore.Internal.Correction>
   9.000000E+99

> <Gold.Chemscore.Hbonds>
donor molecule, donor type, donor heavy atom, donor atom, acceptor molecule, acceptor atom, score
      P1  H  7989  7998       L1    12  0.29
      P1  H  7997  8009       L1     7  0.07

> <Gold.Chemscore.Hbond.Weighted>
-5.2151

> <Gold.Chemscore.Metal.Weighted>
-0.0000

> <Gold.Chemscore.Lipo.Weighted>
-15.1898

> <Gold.Chemscore.Internal_Hbond.Weighted>
0.0000

> <Gold.Chemscore.DEClash.Weighted>
0.0029

> <Gold.Chemscore.DEInternal.Weighted>
0.9364

> <Gold.Chemscore.Rot.Weighted>
7.3671

> <Gold.Chemscore.Internal.Correction.Weighted>
   9.000000E+99

> <Gold.Protein.RotatedTorsions>
[ 6907 6896 6895 6894 ] final  -58.02 input  -60.11 | X-H torsion
[ 7974 7965 7964 7962 ] final  177.81 input  175.53 | X-H torsion
[ 8008 7997 7996 7995 ] final  132.68 input   59.86 | X-H torsion
[ 10167 10162 10161 10158 ] final  -94.28 input  -65.29 | X-H torsion
[ 10718 10713 10712 10709 ] final  143.08 input   66.30 | X-H torsion
[ 10763 10752 10751 10750 ] final  -10.48 input  -60.55 | X-H torsion
[ 11005 11000 10999 10996 ] final -114.25 input  -57.11 | X-H torsion

> <Gold.Protein.ActiveResidues>
 VAL166  LYS551  ARG553  GLY616  TRP617  ASP618  TYR619  PRO620  LYS621  CYS622 
 ASP623  PHE694  ASN695  SER759  ASP760  ASP761  ALA762  ILE779  LEU786  VAL792 
 PHE793  MET794  SER795  GLU796  ALA797  LYS798  CYS799  TRP800  GLU811  SER814 

> <Gold.Protein.RotatedAtoms>
  150.8040  134.7152  159.6626 H   0  0  0  0  0  0  0  0  0  0  0  0  # atno 6907 bound_to 6896
  152.4158  134.6041  160.0017 H   0  0  0  0  0  0  0  0  0  0  0  0  # atno 6908 bound_to 6896
  151.6270  133.3297  159.3136 H   0  0  0  0  0  0  0  0  0  0  0  0  # atno 6909 bound_to 6896
  144.7164  140.0303  143.6439 H   0  0  0  0  0  0  0  0  0  0  0  0  # atno 7974 bound_to 7965
  156.2985  140.2540  156.3129 H   0  0  0  0  0  0  0  0  0  0  0  0  # atno 8008 bound_to 7997
  154.9309  140.0398  157.2066 H   0  0  0  0  0  0  0  0  0  0  0  0  # atno 8009 bound_to 7997
  154.8219  140.2861  155.5785 H   0  0  0  0  0  0  0  0  0  0  0  0  # atno 8010 bound_to 7997
  140.3161  143.3076  152.0097 H   0  0  0  0  0  0  0  0  0  0  0  0  # atno 10167 bound_to 10162
  157.3732  131.0982  151.0809 H   0  0  0  0  0  0  0  0  0  0  0  0  # atno 10718 bound_to 10713
  153.4698  135.7016  153.6000 H   0  0  0  0  0  0  0  0  0  0  0  0  # atno 10763 bound_to 10752
  153.4259  135.3814  155.2140 H   0  0  0  0  0  0  0  0  0  0  0  0  # atno 10764 bound_to 10752
  154.8725  135.3939  154.4134 H   0  0  0  0  0  0  0  0  0  0  0  0  # atno 10765 bound_to 10752
  141.0563  133.9607  157.2747 H   0  0  0  0  0  0  0  0  0  0  0  0  # atno 11005 bound_to 11000
  146.0108  139.3168  143.0871 LP  0  0  0  0  0  0  0  0  0  0  0  0  # atno 17320 bound_to 7965
  145.8684  140.9434  143.0663 LP  0  0  0  0  0  0  0  0  0  0  0  0  # atno 17321 bound_to 7965
  139.4884  144.6347  151.6999 LP  0  0  0  0  0  0  0  0  0  0  0  0  # atno 17342 bound_to 10162
  140.5525  144.0401  150.6133 LP  0  0  0  0  0  0  0  0  0  0  0  0  # atno 17343 bound_to 10162
  157.1905  130.6350  149.5703 LP  0  0  0  0  0  0  0  0  0  0  0  0  # atno 17370 bound_to 10713
  155.9760  130.4723  150.6496 LP  0  0  0  0  0  0  0  0  0  0  0  0  # atno 17371 bound_to 10713
  139.9393  135.0193  156.8657 LP  0  0  0  0  0  0  0  0  0  0  0  0  # atno 17394 bound_to 11000
  140.5957  134.0219  155.7517 LP  0  0  0  0  0  0  0  0  0  0  0  0  # atno 17395 bound_to 11000

$$$$
