AV-unprocessed.smi:2177|AV-procd|sdf|8849|dock9
  -GOLD-   2272012 43D 1   1.00000     0.00000
 Structure written by MMmdl.
 42 43  0  0  0  0  0  0  0  0  1 V2000
  149.1006  135.6223  155.6735 C   0  0  0  0  0  0  0  0  0  0  0  0
  149.4566  134.1729  155.8425 C   0  0  0  0  0  0  0  0  0  0  0  0
  149.7052  133.7004  157.0526 N   0  0  0  0  0  0  0  0  0  0  0  0
  149.9952  132.3981  156.8607 N   0  0  0  0  0  0  0  0  0  0  0  0
  150.3242  131.5698  158.0044 C   0  0  0  0  0  0  0  0  0  0  0  0
  149.9223  132.0449  155.5270 C   0  0  0  0  0  0  0  0  0  0  0  0
  150.2032  130.6545  155.0550 C   0  0  0  0  0  0  0  0  0  0  0  0
  149.5765  133.1738  154.8326 C   0  0  0  0  0  0  0  0  0  0  0  0
  149.3719  133.3482  153.3484 C   0  0  0  0  0  0  0  0  0  0  0  0
  147.8818  133.2641  153.0169 C   0  0  0  0  0  0  0  0  0  0  0  0
  147.2706  132.2114  153.1978 O   0  0  0  0  0  0  0  0  0  0  0  0
  147.3150  134.3812  152.5336 N   0  0  0  0  0  0  0  0  0  0  0  0
  145.9094  134.5407  152.1721 C   0  0  1  0  0  0  0  0  0  0  0  0
  145.5942  136.0429  152.1070 C   0  0  0  0  0  0  0  0  0  0  0  0
  145.6274  133.8243  150.8355 C   0  0  2  0  0  0  0  0  0  0  0  0
  144.1548  133.4963  150.5834 C   0  0  0  0  0  0  0  0  0  0  0  0
  144.2067  132.3127  149.6300 C   0  0  0  0  0  0  0  0  0  0  0  0
  145.6525  131.8191  149.7258 C   0  0  0  0  0  0  0  0  0  0  0  0
  146.2157  132.5326  150.8170 O   0  0  0  0  0  0  0  0  0  0  0  0
  149.7461  136.0977  154.9348 H   0  0  0  0  0  0  0  0  0  0  0  0
  149.2030  136.1770  156.6069 H   0  0  0  0  0  0  0  0  0  0  0  0
  148.0709  135.7324  155.3334 H   0  0  0  0  0  0  0  0  0  0  0  0
  149.4697  130.9424  158.2581 H   0  0  0  0  0  0  0  0  0  0  0  0
  150.5792  132.1887  158.8656 H   0  0  0  0  0  0  0  0  0  0  0  0
  151.1774  130.9335  157.7683 H   0  0  0  0  0  0  0  0  0  0  0  0
  149.9369  130.5298  154.0059 H   0  0  0  0  0  0  0  0  0  0  0  0
  149.6341  129.9248  155.6310 H   0  0  0  0  0  0  0  0  0  0  0  0
  151.2623  130.4191  155.1605 H   0  0  0  0  0  0  0  0  0  0  0  0
  149.7610  134.3035  152.9951 H   0  0  0  0  0  0  0  0  0  0  0  0
  149.9059  132.5824  152.7848 H   0  0  0  0  0  0  0  0  0  0  0  0
  147.9048  135.1925  152.4201 H   0  0  0  0  0  0  0  0  0  0  0  0
  145.2775  134.1032  152.9471 H   0  0  0  0  0  0  0  0  0  0  0  0
  144.5395  136.2204  151.8970 H   0  0  0  0  0  0  0  0  0  0  0  0
  146.1768  136.5379  151.3292 H   0  0  0  0  0  0  0  0  0  0  0  0
  145.8222  136.5314  153.0549 H   0  0  0  0  0  0  0  0  0  0  0  0
  146.0260  134.4042  150.0003 H   0  0  0  0  0  0  0  0  0  0  0  0
  143.6727  133.1916  151.5131 H   0  0  0  0  0  0  0  0  0  0  0  0
  143.5984  134.3412  150.1774 H   0  0  0  0  0  0  0  0  0  0  0  0
  143.4954  131.5417  149.9273 H   0  0  0  0  0  0  0  0  0  0  0  0
  143.9707  132.6114  148.6082 H   0  0  0  0  0  0  0  0  0  0  0  0
  145.7190  130.7427  149.8854 H   0  0  0  0  0  0  0  0  0  0  0  0
  146.2022  132.0633  148.8159 H   0  0  0  0  0  0  0  0  0  0  0  0
  1  2  1  0  0  0  0
  1 20  1  0  0  0  0
  1 21  1  0  0  0  0
  1 22  1  0  0  0  0
  2  8  1  0  0  0  0
  2  3  2  0  0  0  0
  3  4  1  0  0  0  0
  4  5  1  0  0  0  0
  4  6  1  0  0  0  0
  5 23  1  0  0  0  0
  5 24  1  0  0  0  0
  5 25  1  0  0  0  0
  6  7  1  0  0  0  0
  6  8  2  0  0  0  0
  7 26  1  0  0  0  0
  7 27  1  0  0  0  0
  7 28  1  0  0  0  0
  8  9  1  0  0  0  0
  9 10  1  0  0  0  0
  9 29  1  0  0  0  0
  9 30  1  0  0  0  0
 10 11  2  0  0  0  0
 10 12  1  0  0  0  0
 12 13  1  0  0  0  0
 12 31  1  0  0  0  0
 13 14  1  0  0  0  0
 13 15  1  0  0  0  0
 13 32  1  0  0  0  0
 14 33  1  0  0  0  0
 14 34  1  0  0  0  0
 14 35  1  0  0  0  0
 15 19  1  0  0  0  0
 15 16  1  0  0  0  0
 15 36  1  0  0  0  0
 16 17  1  0  0  0  0
 16 37  1  0  0  0  0
 16 38  1  0  0  0  0
 17 18  1  0  0  0  0
 17 39  1  0  0  0  0
 17 40  1  0  0  0  0
 18 19  1  0  0  0  0
 18 41  1  0  0  0  0
 18 42  1  0  0  0  0
M  END
> <s_m_source_file>
AV-unprocessed.smi

> <i_m_source_file_index>
2177

> <i_lp_mmshare_version>
43012

> <i_f3d_flags>
0

> <s_epik_input>
W0NIM11jMW5uKFtDSDNdKWMoW0NIM10pYzFbQ0gyXUMoPU8pW05IXVtDQEhdKFtDSDNdKVtDQEBIXTJbQ0gyXVtDSDJdW0NIMl1PMg==

> <s_epik_cmdline>
J2VwaWtfcHl0aG9uJywgJy1waCcsICc3LjAnLCAnLXRuJywgJzgnLCAnLW1hJywgJzIwMCcsICctbWV0YWxfYmluZGluZycsICctaW1hZScsICc8aW5maWxlLm1hZT4nLCAnLW9tYWUnLCAnPG91dGZpbGUubWFlPic=

> <r_lp_tautomer_probability>
1

> <r_epik_Ionization_Penalty>
0.00310467

> <r_epik_Ionization_Penalty_Charging>
0

> <r_epik_Ionization_Penalty_Neutral>
0.00310467

> <r_epik_State_Penalty>
0.00218493

> <r_epik_Charging_Adjusted_Penalty>
0.00218493

> <i_epik_Tot_Q>
0

> <i_epik_Tot_abs_Q>
0

> <r_epik_Metal_State_Penalty>
-0

> <b_epik_Metal_Only>
0

> <s_lp_Force_Field>
OPLS_2005

> <r_lp_Energy>
13.1065

> <b_lp_Chiralities_Consistent>
1

> <s_lp_Variant>
AV-unprocessed.smi:2177-2

> <Gold.Version>
5.8.1

> <Gold.Id.Protein>
6NUR|6NUR_protein|mol2

> <Gold.PLP.Fitness>
34.0821

> <Gold.PLP.PLP>
-32.7529

> <Gold.PLP.part.hbond>
-0.9552

> <Gold.PLP.part.metal>
0.0000

> <Gold.PLP.part.buried>
-4.4927

> <Gold.PLP.part.nonpolar>
-26.1367

> <Gold.PLP.part.repulsive>
0.2874

> <Gold.PLP.ligand.clash>
0.0000

> <Gold.PLP.ligand.torsion>
0.8478

> <Gold.PLP.Chemscore.Hbond>
1.0000

> <Gold.PLP.Chemscore.CHOScore>
0.0000

> <Gold.PLP.Chemscore.Metal>
0.0000

> <Gold.Chemscore.Hbonds>
donor molecule, donor type, donor heavy atom, donor atom, acceptor molecule, acceptor atom, score
      L1  H    12    31       P1  7948  1.00

> <Gold.PLP.Chemscore.Internal.Correction>
0.0247

> <Gold.Rescore>
     Score         DG    S(hbond)    S(metal)    S(lipo)     H(rot)  DE(clash)    DE(int)     intcor
     11.43     -14.36       0.97        0.00      80.38       1.46       0.06       2.87       ----

> <Gold.Chemscore.Fitness>
11.4262

> <Gold.Chemscore.DG>
-14.3637

> <Gold.Chemscore.ZeroCoef>
-5.4800

> <Gold.Chemscore.Hbond>
0.9650

> <Gold.Chemscore.Metal>
0.0000

> <Gold.Chemscore.Lipo>
80.3847

> <Gold.Chemscore.Internal_Hbond>
0.0000

> <Gold.Chemscore.DEClash>
0.0646

> <Gold.Chemscore.DEInternal>
2.8728

> <Gold.Chemscore.Rot>
1.4627

> <Gold.Chemscore.Internal.Correction>
   9.000000E+99

> <Gold.Chemscore.Hbonds>
donor molecule, donor type, donor heavy atom, donor atom, acceptor molecule, acceptor atom, score
      L1  H    12    31       P1  7948  0.91

> <Gold.Chemscore.Hbond.Weighted>
-3.2231

> <Gold.Chemscore.Metal.Weighted>
-0.0000

> <Gold.Chemscore.Lipo.Weighted>
-9.4050

> <Gold.Chemscore.Internal_Hbond.Weighted>
0.0000

> <Gold.Chemscore.DEClash.Weighted>
0.0646

> <Gold.Chemscore.DEInternal.Weighted>
2.8728

> <Gold.Chemscore.Rot.Weighted>
3.7445

> <Gold.Chemscore.Internal.Correction.Weighted>
   9.000000E+99

> <Gold.Protein.RotatedTorsions>
[ 6907 6896 6895 6894 ] final  104.56 input  -60.11 | X-H torsion
[ 7974 7965 7964 7962 ] final  -81.62 input  175.53 | X-H torsion
[ 8008 7997 7996 7995 ] final   69.17 input   59.86 | X-H torsion
[ 10167 10162 10161 10158 ] final  -59.53 input  -65.29 | X-H torsion
[ 10718 10713 10712 10709 ] final   36.07 input   66.30 | X-H torsion
[ 10763 10752 10751 10750 ] final   40.21 input  -60.55 | X-H torsion
[ 11005 11000 10999 10996 ] final  173.96 input  -57.11 | X-H torsion

> <Gold.Protein.ActiveResidues>
 VAL166  LYS551  ARG553  GLY616  TRP617  ASP618  TYR619  PRO620  LYS621  CYS622 
 ASP623  PHE694  ASN695  SER759  ASP760  ASP761  ALA762  ILE779  LEU786  VAL792 
 PHE793  MET794  SER795  GLU796  ALA797  LYS798  CYS799  TRP800  GLU811  SER814 

> <Gold.Protein.RotatedAtoms>
  152.5260  133.9659  159.7738 H   0  0  0  0  0  0  0  0  0  0  0  0  # atno 6907 bound_to 6896
  150.9940  133.6113  159.2711 H   0  0  0  0  0  0  0  0  0  0  0  0  # atno 6908 bound_to 6896
  151.3246  135.0833  159.9371 H   0  0  0  0  0  0  0  0  0  0  0  0  # atno 6909 bound_to 6896
  145.5442  140.9505  143.1534 H   0  0  0  0  0  0  0  0  0  0  0  0  # atno 7974 bound_to 7965
  155.7195  140.3493  155.5009 H   0  0  0  0  0  0  0  0  0  0  0  0  # atno 8008 bound_to 7997
  155.9282  140.1079  157.1175 H   0  0  0  0  0  0  0  0  0  0  0  0  # atno 8009 bound_to 7997
  154.4081  140.1236  156.4755 H   0  0  0  0  0  0  0  0  0  0  0  0  # atno 8010 bound_to 7997
  140.6129  143.2393  151.5667 H   0  0  0  0  0  0  0  0  0  0  0  0  # atno 10167 bound_to 10162
  157.3304  130.7495  149.6843 H   0  0  0  0  0  0  0  0  0  0  0  0  # atno 10718 bound_to 10713
  152.9943  135.6198  154.2589 H   0  0  0  0  0  0  0  0  0  0  0  0  # atno 10763 bound_to 10752
  154.2326  135.2791  155.2886 H   0  0  0  0  0  0  0  0  0  0  0  0  # atno 10764 bound_to 10752
  154.5437  135.5753  153.6919 H   0  0  0  0  0  0  0  0  0  0  0  0  # atno 10765 bound_to 10752
  140.3461  134.7235  157.4236 H   0  0  0  0  0  0  0  0  0  0  0  0  # atno 11005 bound_to 11000
  144.7561  139.7070  143.7253 LP  0  0  0  0  0  0  0  0  0  0  0  0  # atno 17320 bound_to 7965
  146.1960  139.5227  142.9774 LP  0  0  0  0  0  0  0  0  0  0  0  0  # atno 17321 bound_to 7965
  139.5375  144.2739  152.1282 LP  0  0  0  0  0  0  0  0  0  0  0  0  # atno 17342 bound_to 10162
  140.1942  144.4721  150.6463 LP  0  0  0  0  0  0  0  0  0  0  0  0  # atno 17343 bound_to 10162
  155.9695  130.4197  150.4387 LP  0  0  0  0  0  0  0  0  0  0  0  0  # atno 17370 bound_to 10713
  157.2418  131.0527  151.2432 LP  0  0  0  0  0  0  0  0  0  0  0  0  # atno 17371 bound_to 10713
  140.0741  134.5822  155.8610 LP  0  0  0  0  0  0  0  0  0  0  0  0  # atno 17394 bound_to 11000
  141.2025  133.6625  156.6010 LP  0  0  0  0  0  0  0  0  0  0  0  0  # atno 17395 bound_to 11000

$$$$
