AV-unprocessed.smi:2325|AV-procd|sdf|9295|dock9
  -GOLD-   2272012513D 1   1.00000     0.00000
 Structure written by MMmdl.
 40 41  0  0  0  0  0  0  0  0  1 V2000
  147.0423  133.0410  151.8286 C   0  0  0  0  0  0  0  0  0  0  0  0
  145.8752  133.5805  151.1579 N   0  0  0  0  0  0  0  0  0  0  0  0
  145.0060  132.7694  150.5105 N   0  0  0  0  0  0  0  0  0  0  0  0
  144.0968  133.6259  150.0442 C   0  0  0  0  0  0  0  0  0  0  0  0
  144.3072  134.9426  150.3398 N   0  0  0  0  0  0  0  0  0  0  0  0
  145.4344  134.8361  151.0365 C   0  0  0  0  0  0  0  0  0  0  0  0
  146.1573  135.9058  151.6289 N   0  0  0  0  0  0  0  0  0  0  0  0
  145.6737  136.9105  152.3784 C   0  0  0  0  0  0  0  0  0  0  0  0
  144.4875  137.0781  152.6615 O   0  0  0  0  0  0  0  0  0  0  0  0
  146.6568  137.7223  152.7916 N   0  0  0  0  0  0  0  0  0  0  0  0
  146.4779  138.8935  153.6472 C   0  0  2  0  0  0  0  0  0  0  0  0
  147.2459  140.0890  153.1194 C   0  0  0  0  0  0  0  0  0  0  0  0
  147.4414  140.9566  154.3682 C   0  0  0  0  0  0  0  0  0  0  0  0
  148.7939  141.6852  154.3647 C   0  0  0  0  0  0  0  0  0  0  0  0
  146.2821  141.9478  154.5682 C   0  0  0  0  0  0  0  0  0  0  0  0
  147.4195  140.0487  155.4687 O   0  0  0  0  0  0  0  0  0  0  0  0
  147.0586  138.7272  155.0691 C   0  0  0  0  0  0  0  0  0  0  0  0
  146.0162  138.2035  156.0697 C   0  0  0  0  0  0  0  0  0  0  0  0
  148.3489  137.8834  155.1344 C   0  0  0  0  0  0  0  0  0  0  0  0
  147.9411  133.5289  151.4504 H   0  0  0  0  0  0  0  0  0  0  0  0
  147.1239  131.9673  151.6535 H   0  0  0  0  0  0  0  0  0  0  0  0
  146.9634  133.2210  152.9010 H   0  0  0  0  0  0  0  0  0  0  0  0
  143.2479  133.2880  149.4683 H   0  0  0  0  0  0  0  0  0  0  0  0
  147.1541  135.8983  151.4715 H   0  0  0  0  0  0  0  0  0  0  0  0
  147.6019  137.5079  152.5095 H   0  0  0  0  0  0  0  0  0  0  0  0
  145.4221  139.1666  153.7010 H   0  0  0  0  0  0  0  0  0  0  0  0
  148.2124  139.7676  152.7274 H   0  0  0  0  0  0  0  0  0  0  0  0
  146.7236  140.6069  152.3141 H   0  0  0  0  0  0  0  0  0  0  0  0
  148.8688  142.3739  153.5226 H   0  0  0  0  0  0  0  0  0  0  0  0
  149.6225  140.9798  154.2936 H   0  0  0  0  0  0  0  0  0  0  0  0
  148.9329  142.2615  155.2798 H   0  0  0  0  0  0  0  0  0  0  0  0
  146.2305  142.6657  153.7490 H   0  0  0  0  0  0  0  0  0  0  0  0
  146.4024  142.5107  155.4945 H   0  0  0  0  0  0  0  0  0  0  0  0
  145.3213  141.4353  154.6208 H   0  0  0  0  0  0  0  0  0  0  0  0
  145.7031  137.1894  155.8221 H   0  0  0  0  0  0  0  0  0  0  0  0
  145.1265  138.8337  156.0807 H   0  0  0  0  0  0  0  0  0  0  0  0
  146.4177  138.1866  157.0832 H   0  0  0  0  0  0  0  0  0  0  0  0
  148.1590  136.8385  154.8876 H   0  0  0  0  0  0  0  0  0  0  0  0
  148.7780  137.9061  156.1363 H   0  0  0  0  0  0  0  0  0  0  0  0
  149.1090  138.2560  154.4475 H   0  0  0  0  0  0  0  0  0  0  0  0
  1  2  1  0  0  0  0
  1 20  1  0  0  0  0
  1 21  1  0  0  0  0
  1 22  1  0  0  0  0
  2  6  1  0  0  0  0
  2  3  1  0  0  0  0
  3  4  2  0  0  0  0
  4  5  1  0  0  0  0
  4 23  1  0  0  0  0
  5  6  2  0  0  0  0
  6  7  1  0  0  0  0
  7  8  1  0  0  0  0
  7 24  1  0  0  0  0
  8  9  2  0  0  0  0
  8 10  1  0  0  0  0
 10 11  1  0  0  0  0
 10 25  1  0  0  0  0
 11 17  1  0  0  0  0
 11 12  1  0  0  0  0
 11 26  1  0  0  0  0
 12 13  1  0  0  0  0
 12 27  1  0  0  0  0
 12 28  1  0  0  0  0
 13 14  1  0  0  0  0
 13 15  1  0  0  0  0
 13 16  1  0  0  0  0
 14 29  1  0  0  0  0
 14 30  1  0  0  0  0
 14 31  1  0  0  0  0
 15 32  1  0  0  0  0
 15 33  1  0  0  0  0
 15 34  1  0  0  0  0
 16 17  1  0  0  0  0
 17 18  1  0  0  0  0
 17 19  1  0  0  0  0
 18 35  1  0  0  0  0
 18 36  1  0  0  0  0
 18 37  1  0  0  0  0
 19 38  1  0  0  0  0
 19 39  1  0  0  0  0
 19 40  1  0  0  0  0
M  END
> <s_m_source_file>
AV-unprocessed.smi

> <i_m_source_file_index>
2325

> <i_lp_mmshare_version>
43012

> <i_f3d_flags>
0

> <s_epik_input>
W0NIM11uMW5bY0hdbmMxW05IXUMoPU8pW05IXVtDQEBIXShDKE8yKShbQ0gzXSlbQ0gzXSlbQ0gyXUMyKFtDSDNdKVtDSDNd

> <s_epik_cmdline>
J2VwaWtfcHl0aG9uJywgJy1waCcsICc3LjAnLCAnLXRuJywgJzgnLCAnLW1hJywgJzIwMCcsICctbWV0YWxfYmluZGluZycsICctaW1hZScsICc8aW5maWxlLm1hZT4nLCAnLW9tYWUnLCAnPG91dGZpbGUubWFlPic=

> <r_lp_tautomer_probability>
1

> <r_epik_Ionization_Penalty>
1.97832e-05

> <r_epik_Ionization_Penalty_Charging>
0

> <r_epik_Ionization_Penalty_Neutral>
1.97832e-05

> <r_epik_State_Penalty>
-0

> <r_epik_Charging_Adjusted_Penalty>
0

> <i_epik_Tot_Q>
0

> <i_epik_Tot_abs_Q>
0

> <r_epik_Metal_State_Penalty>
-0

> <b_epik_Metal_Only>
0

> <s_lp_Force_Field>
OPLS_2005

> <r_lp_Energy>
17.1508

> <b_lp_Chiralities_Consistent>
1

> <s_lp_Variant>
AV-unprocessed.smi:2325-1

> <Gold.Version>
5.8.1

> <Gold.Id.Protein>
6NUR|6NUR_protein|mol2

> <Gold.PLP.Fitness>
32.2615

> <Gold.PLP.PLP>
-24.7055

> <Gold.PLP.part.hbond>
-2.0000

> <Gold.PLP.part.metal>
0.0000

> <Gold.PLP.part.buried>
-3.0546

> <Gold.PLP.part.nonpolar>
-21.0528

> <Gold.PLP.part.repulsive>
0.6694

> <Gold.PLP.ligand.clash>
0.0000

> <Gold.PLP.ligand.torsion>
0.5343

> <Gold.PLP.Chemscore.Hbond>
2.0000

> <Gold.PLP.Chemscore.CHOScore>
0.8712

> <Gold.PLP.Chemscore.Metal>
0.0000

> <Gold.Chemscore.Hbonds>
donor molecule, donor type, donor heavy atom, donor atom, acceptor molecule, acceptor atom, score
      L1  H     7    24       P1  7948  1.00
      L1  H    10    25       P1  7948  1.00
      L1  C     4    23       P1 10186  0.86

> <Gold.PLP.Chemscore.Internal.Correction>
0.0111

> <Gold.Rescore>
     Score         DG    S(hbond)    S(metal)    S(lipo)     H(rot)  DE(clash)    DE(int)     intcor
     13.65     -14.24       1.96        0.00      40.82       1.00       0.10       0.50       ----

> <Gold.Chemscore.Fitness>
13.6464

> <Gold.Chemscore.DG>
-14.2419

> <Gold.Chemscore.ZeroCoef>
-5.4800

> <Gold.Chemscore.Hbond>
1.9598

> <Gold.Chemscore.Metal>
0.0000

> <Gold.Chemscore.Lipo>
40.8212

> <Gold.Chemscore.Internal_Hbond>
0.0000

> <Gold.Chemscore.DEClash>
0.0971

> <Gold.Chemscore.DEInternal>
0.4983

> <Gold.Chemscore.Rot>
1.0000

> <Gold.Chemscore.Internal.Correction>
   9.000000E+99

> <Gold.Chemscore.Hbonds>
donor molecule, donor type, donor heavy atom, donor atom, acceptor molecule, acceptor atom, score
      L1  H     7    24       P1  7948  0.99
      L1  H    10    25       P1  7948  0.94

> <Gold.Chemscore.Hbond.Weighted>
-6.5458

> <Gold.Chemscore.Metal.Weighted>
-0.0000

> <Gold.Chemscore.Lipo.Weighted>
-4.7761

> <Gold.Chemscore.Internal_Hbond.Weighted>
0.0000

> <Gold.Chemscore.DEClash.Weighted>
0.0971

> <Gold.Chemscore.DEInternal.Weighted>
0.4983

> <Gold.Chemscore.Rot.Weighted>
2.5600

> <Gold.Chemscore.Internal.Correction.Weighted>
   9.000000E+99

> <Gold.Protein.RotatedTorsions>
[ 6907 6896 6895 6894 ] final   92.57 input  -60.11 | X-H torsion
[ 7974 7965 7964 7962 ] final  146.29 input  175.53 | X-H torsion
[ 8008 7997 7996 7995 ] final  -73.66 input   59.86 | X-H torsion
[ 10167 10162 10161 10158 ] final   41.64 input  -65.29 | X-H torsion
[ 10718 10713 10712 10709 ] final    1.90 input   66.30 | X-H torsion
[ 10763 10752 10751 10750 ] final -136.33 input  -60.55 | X-H torsion
[ 11005 11000 10999 10996 ] final -157.84 input  -57.11 | X-H torsion

> <Gold.Protein.ActiveResidues>
 VAL166  LYS551  ARG553  GLY616  TRP617  ASP618  TYR619  PRO620  LYS621  CYS622 
 ASP623  PHE694  ASN695  SER759  ASP760  ASP761  ALA762  ILE779  LEU786  VAL792 
 PHE793  MET794  SER795  GLU796  ALA797  LYS798  CYS799  TRP800  GLU811  SER814 

> <Gold.Protein.RotatedAtoms>
  152.5452  134.1482  159.8507 H   0  0  0  0  0  0  0  0  0  0  0  0  # atno 6907 bound_to 6896
  151.1512  133.4899  159.2602 H   0  0  0  0  0  0  0  0  0  0  0  0  # atno 6908 bound_to 6896
  151.1471  135.0219  159.8706 H   0  0  0  0  0  0  0  0  0  0  0  0  # atno 6909 bound_to 6896
  144.8683  139.5887  143.5899 H   0  0  0  0  0  0  0  0  0  0  0  0  # atno 7974 bound_to 7965
  154.5265  140.0775  156.8268 H   0  0  0  0  0  0  0  0  0  0  0  0  # atno 8008 bound_to 7997
  155.3464  140.3410  155.4221 H   0  0  0  0  0  0  0  0  0  0  0  0  # atno 8009 bound_to 7997
  156.1737  140.1628  156.8388 H   0  0  0  0  0  0  0  0  0  0  0  0  # atno 8010 bound_to 7997
  140.3623  144.2212  150.6137 H   0  0  0  0  0  0  0  0  0  0  0  0  # atno 10167 bound_to 10162
  156.8550  130.5567  149.5667 H   0  0  0  0  0  0  0  0  0  0  0  0  # atno 10718 bound_to 10713
  154.8686  135.3676  154.5044 H   0  0  0  0  0  0  0  0  0  0  0  0  # atno 10763 bound_to 10752
  153.5683  135.7021  153.5521 H   0  0  0  0  0  0  0  0  0  0  0  0  # atno 10764 bound_to 10752
  153.3565  135.4058  155.1649 H   0  0  0  0  0  0  0  0  0  0  0  0  # atno 10765 bound_to 10752
  140.6602  134.4358  157.5234 H   0  0  0  0  0  0  0  0  0  0  0  0  # atno 11005 bound_to 11000
  146.2912  139.7144  142.9160 LP  0  0  0  0  0  0  0  0  0  0  0  0  # atno 17320 bound_to 7965
  145.4179  141.0403  143.2980 LP  0  0  0  0  0  0  0  0  0  0  0  0  # atno 17321 bound_to 7965
  140.5114  143.2289  151.8529 LP  0  0  0  0  0  0  0  0  0  0  0  0  # atno 17342 bound_to 10162
  139.4812  144.4945  151.9142 LP  0  0  0  0  0  0  0  0  0  0  0  0  # atno 17343 bound_to 10162
  156.0807  130.5818  150.9558 LP  0  0  0  0  0  0  0  0  0  0  0  0  # atno 17370 bound_to 10713
  157.6282  131.0923  150.8492 LP  0  0  0  0  0  0  0  0  0  0  0  0  # atno 17371 bound_to 10713
  139.9016  134.8544  156.1874 LP  0  0  0  0  0  0  0  0  0  0  0  0  # atno 17394 bound_to 11000
  141.0471  133.6907  156.1703 LP  0  0  0  0  0  0  0  0  0  0  0  0  # atno 17395 bound_to 11000

$$$$
