AV-unprocessed.smi:1742|AV-procd|sdf|7020|dock4
  -GOLD-   22720 8233D 1   1.00000     0.00000
 Structure written by MMmdl.
 34 35  0  0  0  0  0  0  0  0  1 V2000
  143.7889  132.7428  148.4899 C   0  0  0  0  0  0  0  0  0  0  0  0
  144.5256  132.5882  149.8258 C   0  0  0  0  0  0  0  0  0  0  0  0
  144.3977  133.7724  150.6525 N   0  0  0  0  0  0  0  0  0  0  0  0
  145.0797  134.9680  150.5420 C   0  0  0  0  0  0  0  0  0  0  0  0
  144.6028  135.7593  151.5486 C   0  0  0  0  0  0  0  0  0  0  0  0
  144.9555  137.0882  151.8931 N   0  0  0  0  0  0  0  0  0  0  0  0
  145.7973  137.4886  152.8649 C   0  0  0  0  0  0  0  0  0  0  0  0
  146.3990  136.7284  153.6207 O   0  0  0  0  0  0  0  0  0  0  0  0
  145.9342  138.8232  152.9654 N   0  0  0  0  0  0  0  0  0  0  0  0
  146.7622  139.5816  153.9048 C   0  0  2  0  0  0  0  0  0  0  0  0
  147.1558  140.9478  153.3127 C   0  0  0  0  0  0  0  0  0  0  0  0
  148.2877  141.5457  154.1580 C   0  0  0  0  0  0  0  0  0  0  0  0
  149.2328  140.1231  154.8240 S   0  0  0  0  0  0  0  0  0  0  0  0
  150.4975  139.9795  154.0873 O   0  0  0  0  0  0  0  0  0  0  0  0
  149.2146  140.1870  156.2932 O   0  0  0  0  0  0  0  0  0  0  0  0
  148.0595  138.8357  154.2579 C   0  0  0  0  0  0  0  0  0  0  0  0
  143.6335  134.9781  152.2295 C   0  0  0  0  0  0  0  0  0  0  0  0
  143.5146  133.7782  151.6819 N   0  0  0  0  0  0  0  0  0  0  0  0
  143.8818  131.8377  147.8897 H   0  0  0  0  0  0  0  0  0  0  0  0
  144.1952  133.5703  147.9075 H   0  0  0  0  0  0  0  0  0  0  0  0
  142.7264  132.9315  148.6458 H   0  0  0  0  0  0  0  0  0  0  0  0
  144.1291  131.7344  150.3763 H   0  0  0  0  0  0  0  0  0  0  0  0
  145.5849  132.3912  149.6554 H   0  0  0  0  0  0  0  0  0  0  0  0
  145.8213  135.1366  149.7752 H   0  0  0  0  0  0  0  0  0  0  0  0
  144.5173  137.8141  151.3453 H   0  0  0  0  0  0  0  0  0  0  0  0
  145.3784  139.3763  152.3288 H   0  0  0  0  0  0  0  0  0  0  0  0
  146.2032  139.7735  154.8226 H   0  0  0  0  0  0  0  0  0  0  0  0
  147.5215  140.8057  152.2946 H   0  0  0  0  0  0  0  0  0  0  0  0
  146.3030  141.6248  153.2520 H   0  0  0  0  0  0  0  0  0  0  0  0
  148.9448  142.2010  153.5858 H   0  0  0  0  0  0  0  0  0  0  0  0
  147.8860  142.1066  155.0023 H   0  0  0  0  0  0  0  0  0  0  0  0
  147.9282  138.0821  155.0345 H   0  0  0  0  0  0  0  0  0  0  0  0
  148.4909  138.3570  153.3780 H   0  0  0  0  0  0  0  0  0  0  0  0
  143.0251  135.2355  153.0840 H   0  0  0  0  0  0  0  0  0  0  0  0
  1  2  1  0  0  0  0
  1 19  1  0  0  0  0
  1 20  1  0  0  0  0
  1 21  1  0  0  0  0
  2  3  1  0  0  0  0
  2 22  1  0  0  0  0
  2 23  1  0  0  0  0
  3 18  1  0  0  0  0
  3  4  1  0  0  0  0
  4  5  2  0  0  0  0
  4 24  1  0  0  0  0
  5  6  1  0  0  0  0
  5 17  1  0  0  0  0
  6  7  1  0  0  0  0
  6 25  1  0  0  0  0
  7  8  2  0  0  0  0
  7  9  1  0  0  0  0
  9 10  1  0  0  0  0
  9 26  1  0  0  0  0
 10 16  1  0  0  0  0
 10 11  1  0  0  0  0
 10 27  1  0  0  0  0
 11 12  1  0  0  0  0
 11 28  1  0  0  0  0
 11 29  1  0  0  0  0
 12 13  1  0  0  0  0
 12 30  1  0  0  0  0
 12 31  1  0  0  0  0
 13 14  2  0  0  0  0
 13 15  2  0  0  0  0
 13 16  1  0  0  0  0
 16 32  1  0  0  0  0
 16 33  1  0  0  0  0
 17 18  2  0  0  0  0
 17 34  1  0  0  0  0
M  END
> <s_m_source_file>
AV-unprocessed.smi

> <i_m_source_file_index>
1742

> <i_lp_mmshare_version>
43012

> <i_f3d_flags>
0

> <s_epik_input>
W0NIM11bQ0gyXW4xW2NIXWMoW2NIXW4xKVtOSF1DKD1PKVtOSF1bQ0BASF0oW0NIMl0yKVtDSDJdW0NIMl1TMig9Tyk9Tw==

> <s_epik_cmdline>
J2VwaWtfcHl0aG9uJywgJy1waCcsICc3LjAnLCAnLXRuJywgJzgnLCAnLW1hJywgJzIwMCcsICctbWV0YWxfYmluZGluZycsICctaW1hZScsICc8aW5maWxlLm1hZT4nLCAnLW9tYWUnLCAnPG91dGZpbGUubWFlPic=

> <r_lp_tautomer_probability>
1

> <r_epik_Ionization_Penalty>
0.000152028

> <r_epik_Ionization_Penalty_Charging>
0

> <r_epik_Ionization_Penalty_Neutral>
0.000152028

> <r_epik_State_Penalty>
-0

> <r_epik_Charging_Adjusted_Penalty>
0

> <i_epik_Tot_Q>
0

> <i_epik_Tot_abs_Q>
0

> <r_epik_Metal_State_Penalty>
-0

> <b_epik_Metal_Only>
0

> <s_lp_Force_Field>
OPLS_2005

> <r_lp_Energy>
18.8919

> <b_lp_Chiralities_Consistent>
1

> <s_lp_Variant>
AV-unprocessed.smi:1742-1

> <Gold.Version>
5.8.1

> <Gold.Id.Protein>
6NUR|6NUR_protein|mol2

> <Gold.PLP.Fitness>
41.2636

> <Gold.PLP.PLP>
-32.7896

> <Gold.PLP.part.hbond>
-2.9472

> <Gold.PLP.part.metal>
0.0000

> <Gold.PLP.part.buried>
-4.8760

> <Gold.PLP.part.nonpolar>
-25.2084

> <Gold.PLP.part.repulsive>
0.9210

> <Gold.PLP.ligand.clash>
0.0000

> <Gold.PLP.ligand.torsion>
1.3431

> <Gold.PLP.Chemscore.Hbond>
2.7200

> <Gold.PLP.Chemscore.CHOScore>
1.0000

> <Gold.PLP.Chemscore.Metal>
0.0000

> <Gold.Chemscore.Hbonds>
donor molecule, donor type, donor heavy atom, donor atom, acceptor molecule, acceptor atom, score
      L1  H     6    25       P1 10171  1.00
      L1  H     9    26       P1 10175  0.72
      P1  H  7989  7998       L1    14  1.00
      L1  C     4    24       P1  7921  1.00

> <Gold.PLP.Chemscore.Internal.Correction>
0.0003

> <Gold.Rescore>
     Score         DG    S(hbond)    S(metal)    S(lipo)     H(rot)  DE(clash)    DE(int)     intcor
     16.10     -18.96       2.76        0.00      63.86       1.26       0.08       2.78       ----

> <Gold.Chemscore.Fitness>
16.1047

> <Gold.Chemscore.DG>
-18.9600

> <Gold.Chemscore.ZeroCoef>
-5.4800

> <Gold.Chemscore.Hbond>
2.7612

> <Gold.Chemscore.Metal>
0.0000

> <Gold.Chemscore.Lipo>
63.8575

> <Gold.Chemscore.Internal_Hbond>
0.0000

> <Gold.Chemscore.DEClash>
0.0799

> <Gold.Chemscore.DEInternal>
2.7754

> <Gold.Chemscore.Rot>
1.2554

> <Gold.Chemscore.Internal.Correction>
   9.000000E+99

> <Gold.Chemscore.Hbonds>
donor molecule, donor type, donor heavy atom, donor atom, acceptor molecule, acceptor atom, score
      L1  H     6    25       P1 10171  0.99
      L1  H     9    26       P1 10175  0.68
      P1  H  7989  7998       L1    14  0.94

> <Gold.Chemscore.Hbond.Weighted>
-9.2225

> <Gold.Chemscore.Metal.Weighted>
-0.0000

> <Gold.Chemscore.Lipo.Weighted>
-7.4713

> <Gold.Chemscore.Internal_Hbond.Weighted>
0.0000

> <Gold.Chemscore.DEClash.Weighted>
0.0799

> <Gold.Chemscore.DEInternal.Weighted>
2.7754

> <Gold.Chemscore.Rot.Weighted>
3.2139

> <Gold.Chemscore.Internal.Correction.Weighted>
   9.000000E+99

> <Gold.Protein.RotatedTorsions>
[ 6907 6896 6895 6894 ] final  -41.01 input  -60.11 | X-H torsion
[ 7974 7965 7964 7962 ] final   23.74 input  175.53 | X-H torsion
[ 8008 7997 7996 7995 ] final -178.56 input   59.86 | X-H torsion
[ 10167 10162 10161 10158 ] final   67.53 input  -65.29 | X-H torsion
[ 10718 10713 10712 10709 ] final   83.64 input   66.30 | X-H torsion
[ 10763 10752 10751 10750 ] final  140.86 input  -60.55 | X-H torsion
[ 11005 11000 10999 10996 ] final  100.20 input  -57.11 | X-H torsion

> <Gold.Protein.ActiveResidues>
 VAL166  LYS551  ARG553  GLY616  TRP617  ASP618  TYR619  PRO620  LYS621  CYS622 
 ASP623  PHE694  ASN695  SER759  ASP760  ASP761  ALA762  ILE779  LEU786  VAL792 
 PHE793  MET794  SER795  GLU796  ALA797  LYS798  CYS799  TRP800  GLU811  SER814 

> <Gold.Protein.RotatedAtoms>
  150.9717  134.9089  159.7791 H   0  0  0  0  0  0  0  0  0  0  0  0  # atno 6907 bound_to 6896
  152.5192  134.3531  159.9268 H   0  0  0  0  0  0  0  0  0  0  0  0  # atno 6908 bound_to 6896
  151.3540  133.3873  159.2717 H   0  0  0  0  0  0  0  0  0  0  0  0  # atno 6909 bound_to 6896
  146.1970  139.7702  142.8790 H   0  0  0  0  0  0  0  0  0  0  0  0  # atno 7974 bound_to 7965
  156.0203  140.1259  157.0365 H   0  0  0  0  0  0  0  0  0  0  0  0  # atno 8008 bound_to 7997
  154.4309  140.1070  156.6023 H   0  0  0  0  0  0  0  0  0  0  0  0  # atno 8009 bound_to 7997
  155.5955  140.3470  155.4581 H   0  0  0  0  0  0  0  0  0  0  0  0  # atno 8010 bound_to 7997
  140.0885  144.5008  150.7114 H   0  0  0  0  0  0  0  0  0  0  0  0  # atno 10167 bound_to 10162
  157.6883  131.0099  150.2553 H   0  0  0  0  0  0  0  0  0  0  0  0  # atno 10718 bound_to 10713
  153.9297  135.2991  155.3446 H   0  0  0  0  0  0  0  0  0  0  0  0  # atno 10763 bound_to 10752
  154.7533  135.4970  153.9332 H   0  0  0  0  0  0  0  0  0  0  0  0  # atno 10764 bound_to 10752
  153.1098  135.6756  153.9625 H   0  0  0  0  0  0  0  0  0  0  0  0  # atno 10765 bound_to 10752
  139.8771  134.9129  156.4720 H   0  0  0  0  0  0  0  0  0  0  0  0  # atno 11005 bound_to 11000
  145.3610  141.0326  143.3284 LP  0  0  0  0  0  0  0  0  0  0  0  0  # atno 17320 bound_to 7965
  144.8601  139.5189  143.6816 LP  0  0  0  0  0  0  0  0  0  0  0  0  # atno 17321 bound_to 7965
  140.7041  143.2455  151.4779 LP  0  0  0  0  0  0  0  0  0  0  0  0  # atno 17342 bound_to 10162
  139.5738  144.1866  152.1874 LP  0  0  0  0  0  0  0  0  0  0  0  0  # atno 17343 bound_to 10162
  156.3142  130.3776  149.7633 LP  0  0  0  0  0  0  0  0  0  0  0  0  # atno 17370 bound_to 10713
  156.5224  130.8221  151.3208 LP  0  0  0  0  0  0  0  0  0  0  0  0  # atno 17371 bound_to 10713
  140.8789  133.7932  155.9445 LP  0  0  0  0  0  0  0  0  0  0  0  0  # atno 17394 bound_to 11000
  140.8875  134.2536  157.5112 LP  0  0  0  0  0  0  0  0  0  0  0  0  # atno 17395 bound_to 11000

$$$$
