AV-unprocessed.smi:3199|AV-procd|sdf|12231|dock5
  -GOLD-   2272018 63D 1   1.00000     0.00000
 Structure written by MMmdl.
 35 36  0  0  0  0  0  0  0  0  1 V2000
  151.6892  143.9618  157.9395 C   0  0  0  0  0  0  0  0  0  0  0  0
  152.1553  143.5827  159.3295 C   0  0  0  0  0  0  0  0  0  0  0  0
  152.9313  142.4237  159.5422 C   0  0  0  0  0  0  0  0  0  0  0  0
  153.3385  142.1212  160.8559 C   0  0  0  0  0  0  0  0  0  0  0  0
  152.9548  142.9844  161.9026 C   0  0  0  0  0  0  0  0  0  0  0  0
  153.3730  142.7088  163.3334 C   0  0  0  0  0  0  0  0  0  0  0  0
  154.0232  143.9367  163.9912 C   0  0  0  0  0  0  0  0  0  0  0  0
  154.5981  143.6116  165.2909 N   0  0  0  0  0  0  0  0  0  0  0  0
  155.9036  143.6679  165.5969 C   0  0  0  0  0  0  0  0  0  0  0  0
  156.7656  144.0189  164.7907 O   0  0  0  0  0  0  0  0  0  0  0  0
  156.2680  143.2723  167.0355 C   0  0  2  0  0  0  0  0  0  0  0  0
  155.0829  143.0400  167.9969 C   0  0  0  0  0  0  0  0  0  0  0  0
  155.2131  144.1620  169.0089 C   0  0  0  0  0  0  0  0  0  0  0  0
  156.7102  144.4332  168.9909 C   0  0  0  0  0  0  0  0  0  0  0  0
  157.0302  144.3316  167.6131 O   0  0  0  0  0  0  0  0  0  0  0  0
  152.1771  144.1174  161.5828 C   0  0  0  0  0  0  0  0  0  0  0  0
  151.7827  144.4158  160.3262 N   0  0  0  0  0  0  0  0  0  0  0  0
  152.0670  143.2643  157.1913 H   0  0  0  0  0  0  0  0  0  0  0  0
  152.0404  144.9610  157.6801 H   0  0  0  0  0  0  0  0  0  0  0  0
  150.5999  143.9564  157.8907 H   0  0  0  0  0  0  0  0  0  0  0  0
  153.2105  141.7808  158.7203 H   0  0  0  0  0  0  0  0  0  0  0  0
  153.9361  141.2433  161.0533 H   0  0  0  0  0  0  0  0  0  0  0  0
  152.4944  142.3955  163.8991 H   0  0  0  0  0  0  0  0  0  0  0  0
  154.0650  141.8656  163.3475 H   0  0  0  0  0  0  0  0  0  0  0  0
  154.8241  144.3169  163.3565 H   0  0  0  0  0  0  0  0  0  0  0  0
  153.2986  144.7461  164.0951 H   0  0  0  0  0  0  0  0  0  0  0  0
  153.9578  143.3101  166.0113 H   0  0  0  0  0  0  0  0  0  0  0  0
  156.8869  142.3741  167.0037 H   0  0  0  0  0  0  0  0  0  0  0  0
  154.0984  143.0334  167.5288 H   0  0  0  0  0  0  0  0  0  0  0  0
  155.2041  142.0772  168.4951 H   0  0  0  0  0  0  0  0  0  0  0  0
  154.6709  145.0431  168.6635 H   0  0  0  0  0  0  0  0  0  0  0  0
  154.8392  143.8932  169.9974 H   0  0  0  0  0  0  0  0  0  0  0  0
  156.9681  145.4129  169.3931 H   0  0  0  0  0  0  0  0  0  0  0  0
  157.2539  143.6716  169.5519 H   0  0  0  0  0  0  0  0  0  0  0  0
  151.8655  144.8052  162.3551 H   0  0  0  0  0  0  0  0  0  0  0  0
  1  2  1  0  0  0  0
  1 18  1  0  0  0  0
  1 19  1  0  0  0  0
  1 20  1  0  0  0  0
  2 17  1  0  0  0  0
  2  3  2  0  0  0  0
  3  4  1  0  0  0  0
  3 21  1  0  0  0  0
  4  5  2  0  0  0  0
  4 22  1  0  0  0  0
  5  6  1  0  0  0  0
  5 16  1  0  0  0  0
  6  7  1  0  0  0  0
  6 23  1  0  0  0  0
  6 24  1  0  0  0  0
  7  8  1  0  0  0  0
  7 25  1  0  0  0  0
  7 26  1  0  0  0  0
  8  9  1  0  0  0  0
  8 27  1  0  0  0  0
  9 10  2  0  0  0  0
  9 11  1  0  0  0  0
 11 15  1  0  0  0  0
 11 12  1  0  0  0  0
 11 28  1  0  0  0  0
 12 13  1  0  0  0  0
 12 29  1  0  0  0  0
 12 30  1  0  0  0  0
 13 14  1  0  0  0  0
 13 31  1  0  0  0  0
 13 32  1  0  0  0  0
 14 15  1  0  0  0  0
 14 33  1  0  0  0  0
 14 34  1  0  0  0  0
 16 17  2  0  0  0  0
 16 35  1  0  0  0  0
M  END
> <s_m_source_file>
AV-unprocessed.smi

> <i_m_source_file_index>
3199

> <i_lp_mmshare_version>
43012

> <i_f3d_flags>
0

> <s_epik_input>
W0NIM11jMVtjSF1bY0hdYyhbY0hdbjEpW0NIMl1bQ0gyXVtOSF1DKD1PKVtDQEBIXTJbQ0gyXVtDSDJdW0NIMl1PMg==

> <s_epik_cmdline>
J2VwaWtfcHl0aG9uJywgJy1waCcsICc3LjAnLCAnLXRuJywgJzgnLCAnLW1hJywgJzIwMCcsICctbWV0YWxfYmluZGluZycsICctaW1hZScsICc8aW5maWxlLm1hZT4nLCAnLW9tYWUnLCAnPG91dGZpbGUubWFlPic=

> <r_epik_Ionization_Penalty>
0.0519155

> <r_epik_Ionization_Penalty_Charging>
0

> <r_epik_Ionization_Penalty_Neutral>
0.0519155

> <r_epik_State_Penalty>
0.0445047

> <r_epik_Charging_Adjusted_Penalty>
0.0445047

> <i_epik_Tot_Q>
0

> <i_epik_Tot_abs_Q>
0

> <r_epik_Metal_State_Penalty>
0.0408967

> <b_epik_Metal_Only>
0

> <s_lp_Force_Field>
OPLS_2005

> <r_lp_Energy>
17.3487

> <b_lp_Chiralities_Consistent>
1

> <s_lp_Variant>
AV-unprocessed.smi:3199-1

> <Gold.Version>
5.8.1

> <Gold.Id.Protein>
6NUR|6NUR_protein|mol2

> <Gold.PLP.Fitness>
46.3401

> <Gold.PLP.PLP>
-46.7415

> <Gold.PLP.part.hbond>
-3.0000

> <Gold.PLP.part.metal>
0.0000

> <Gold.PLP.part.buried>
-7.2266

> <Gold.PLP.part.nonpolar>
-37.0943

> <Gold.PLP.part.repulsive>
0.2171

> <Gold.PLP.ligand.clash>
0.0000

> <Gold.PLP.ligand.torsion>
0.2089

> <Gold.PLP.Chemscore.Hbond>
0.0000

> <Gold.PLP.Chemscore.CHOScore>
0.0000

> <Gold.PLP.Chemscore.Metal>
0.0000

> <Gold.PLP.Chemscore.Internal.Correction>
0.0164

> <Gold.Rescore>
     Score         DG    S(hbond)    S(metal)    S(lipo)     H(rot)  DE(clash)    DE(int)     intcor
     14.94     -15.75       0.00        0.00     120.31       1.49       0.61       0.20       ----

> <Gold.Chemscore.Fitness>
14.9413

> <Gold.Chemscore.DG>
-15.7521

> <Gold.Chemscore.ZeroCoef>
-5.4800

> <Gold.Chemscore.Hbond>
0.0000

> <Gold.Chemscore.Metal>
0.0000

> <Gold.Chemscore.Lipo>
120.3076

> <Gold.Chemscore.Internal_Hbond>
0.0000

> <Gold.Chemscore.DEClash>
0.6078

> <Gold.Chemscore.DEInternal>
0.2030

> <Gold.Chemscore.Rot>
1.4859

> <Gold.Chemscore.Internal.Correction>
   9.000000E+99

> <Gold.Chemscore.Hbond.Weighted>
-0.0000

> <Gold.Chemscore.Metal.Weighted>
-0.0000

> <Gold.Chemscore.Lipo.Weighted>
-14.0760

> <Gold.Chemscore.Internal_Hbond.Weighted>
0.0000

> <Gold.Chemscore.DEClash.Weighted>
0.6078

> <Gold.Chemscore.DEInternal.Weighted>
0.2030

> <Gold.Chemscore.Rot.Weighted>
3.8039

> <Gold.Chemscore.Internal.Correction.Weighted>
   9.000000E+99

> <Gold.Protein.RotatedTorsions>
[ 6907 6896 6895 6894 ] final   57.58 input  -60.11 | X-H torsion
[ 7974 7965 7964 7962 ] final  112.97 input  175.53 | X-H torsion
[ 8008 7997 7996 7995 ] final   65.73 input   59.86 | X-H torsion
[ 10167 10162 10161 10158 ] final  136.13 input  -65.29 | X-H torsion
[ 10718 10713 10712 10709 ] final   90.42 input   66.30 | X-H torsion
[ 10763 10752 10751 10750 ] final  -53.26 input  -60.55 | X-H torsion
[ 11005 11000 10999 10996 ] final -110.74 input  -57.11 | X-H torsion

> <Gold.Protein.ActiveResidues>
 VAL166  LYS551  ARG553  GLY616  TRP617  ASP618  TYR619  PRO620  LYS621  CYS622 
 ASP623  PHE694  ASN695  SER759  ASP760  ASP761  ALA762  ILE779  LEU786  VAL792 
 PHE793  MET794  SER795  GLU796  ALA797  LYS798  CYS799  TRP800  GLU811  SER814 

> <Gold.Protein.RotatedAtoms>
  152.3745  134.6684  160.0164 H   0  0  0  0  0  0  0  0  0  0  0  0  # atno 6907 bound_to 6896
  151.6967  133.3305  159.3264 H   0  0  0  0  0  0  0  0  0  0  0  0  # atno 6908 bound_to 6896
  150.7699  134.6587  159.6372 H   0  0  0  0  0  0  0  0  0  0  0  0  # atno 6909 bound_to 6896
  145.2229  139.2854  143.4209 H   0  0  0  0  0  0  0  0  0  0  0  0  # atno 7974 bound_to 7965
  155.6663  140.3497  155.4801 H   0  0  0  0  0  0  0  0  0  0  0  0  # atno 8008 bound_to 7997
  155.9726  140.1158  157.0822 H   0  0  0  0  0  0  0  0  0  0  0  0  # atno 8009 bound_to 7997
  154.4170  140.1154  156.5313 H   0  0  0  0  0  0  0  0  0  0  0  0  # atno 8010 bound_to 7997
  139.5191  144.6480  151.5383 H   0  0  0  0  0  0  0  0  0  0  0  0  # atno 10167 bound_to 10162
  157.6959  131.0370  150.3574 H   0  0  0  0  0  0  0  0  0  0  0  0  # atno 10718 bound_to 10713
  154.1559  135.6482  153.4974 H   0  0  0  0  0  0  0  0  0  0  0  0  # atno 10763 bound_to 10752
  153.0124  135.5349  154.6760 H   0  0  0  0  0  0  0  0  0  0  0  0  # atno 10764 bound_to 10752
  154.6061  135.2949  155.0455 H   0  0  0  0  0  0  0  0  0  0  0  0  # atno 10765 bound_to 10752
  141.0774  133.9277  157.2360 H   0  0  0  0  0  0  0  0  0  0  0  0  # atno 11005 bound_to 11000
  146.3372  140.2540  142.8599 LP  0  0  0  0  0  0  0  0  0  0  0  0  # atno 17320 bound_to 7965
  144.9749  140.8404  143.5433 LP  0  0  0  0  0  0  0  0  0  0  0  0  # atno 17321 bound_to 7965
  140.6273  143.9143  150.6576 LP  0  0  0  0  0  0  0  0  0  0  0  0  # atno 17342 bound_to 10162
  140.2436  143.3645  152.1466 LP  0  0  0  0  0  0  0  0  0  0  0  0  # atno 17343 bound_to 10162
  156.4015  130.3916  149.6956 LP  0  0  0  0  0  0  0  0  0  0  0  0  # atno 17370 bound_to 10713
  156.4272  130.7797  151.2816 LP  0  0  0  0  0  0  0  0  0  0  0  0  # atno 17371 bound_to 10713
  139.9587  135.0159  156.9200 LP  0  0  0  0  0  0  0  0  0  0  0  0  # atno 17394 bound_to 11000
  140.5543  134.0597  155.7378 LP  0  0  0  0  0  0  0  0  0  0  0  0  # atno 17395 bound_to 11000

$$$$
