AV-unprocessed.smi:2703|AV-procd|sdf|10439|dock6
  -GOLD-   2272014483D 1   1.00000     0.00000
 Structure written by MMmdl.
 42 44  0  0  0  0  0  0  0  0  3 V2000
  154.3482  140.8782  161.9833 C   0  0  0  0  0  0  0  0  0  0  0  0
  153.5466  141.2248  160.7411 C   0  0  0  0  0  0  0  0  0  0  0  0
  153.2320  142.5778  160.4818 C   0  0  0  0  0  0  0  0  0  0  0  0
  152.4864  142.9422  159.3393 C   0  0  0  0  0  0  0  0  0  0  0  0
  152.0689  144.1866  158.8998 N   0  0  0  0  0  0  0  0  0  0  0  0
  151.4166  143.8711  157.7850 C   0  0  0  0  0  0  0  0  0  0  0  0
  151.3641  142.5682  157.4476 N   0  0  0  0  0  0  0  0  0  0  0  0
  150.7079  141.9966  156.2847 C   0  0  0  0  0  0  0  0  0  0  0  0
  149.3091  141.4402  156.6101 C   0  0  1  0  0  0  0  0  0  0  0  0
  148.4808  142.4855  157.0820 O   0  0  0  0  0  0  0  0  0  0  0  0
  148.6515  140.7865  155.3840 C   0  0  0  0  0  0  0  0  0  0  0  0
  149.8650  139.9449  154.3252 S   0  0  0  0  0  0  0  0  0  0  0  0
  150.7147  138.7363  155.3127 C   0  0  0  0  0  0  0  0  0  0  0  0
  150.0422  137.6452  155.9066 C   0  0  0  0  0  0  0  0  0  0  0  0
  150.7626  136.7183  156.6756 C   0  0  0  0  0  0  0  0  0  0  0  0
  152.1438  136.9008  156.8374 C   0  0  0  0  0  0  0  0  0  0  0  0
  152.7726  138.0037  156.2286 C   0  0  0  0  0  0  0  0  0  0  0  0
  152.0696  138.9071  155.4787 N   0  3  0  0  0  0  0  0  0  0  0  0
  152.6912  139.8986  154.9415 O   0  5  0  0  0  0  0  0  0  0  0  0
  152.0616  141.9080  158.4542 C   0  0  0  0  0  0  0  0  0  0  0  0
  152.3708  140.5584  158.7006 C   0  0  0  0  0  0  0  0  0  0  0  0
  153.1149  140.2114  159.8479 C   0  0  0  0  0  0  0  0  0  0  0  0
  153.4392  138.7507  160.1074 C   0  0  0  0  0  0  0  0  0  0  0  0
  154.5829  141.7684  162.5676 H   0  0  0  0  0  0  0  0  0  0  0  0
  155.2892  140.4011  161.7088 H   0  0  0  0  0  0  0  0  0  0  0  0
  153.7868  140.1970  162.6229 H   0  0  0  0  0  0  0  0  0  0  0  0
  153.5604  143.3502  161.1616 H   0  0  0  0  0  0  0  0  0  0  0  0
  150.9498  144.6312  157.1756 H   0  0  0  0  0  0  0  0  0  0  0  0
  150.6452  142.7560  155.5044 H   0  0  0  0  0  0  0  0  0  0  0  0
  151.3461  141.2026  155.8947 H   0  0  0  0  0  0  0  0  0  0  0  0
  149.3992  140.6962  157.4028 H   0  0  0  0  0  0  0  0  0  0  0  0
  148.7524  143.2913  156.6689 H   0  0  0  0  0  0  0  0  0  0  0  0
  147.8878  140.0736  155.6972 H   0  0  0  0  0  0  0  0  0  0  0  0
  148.1550  141.5501  154.7845 H   0  0  0  0  0  0  0  0  0  0  0  0
  148.9794  137.5080  155.7833 H   0  0  0  0  0  0  0  0  0  0  0  0
  150.2622  135.8787  157.1356 H   0  0  0  0  0  0  0  0  0  0  0  0
  152.7206  136.2017  157.4248 H   0  0  0  0  0  0  0  0  0  0  0  0
  153.8303  138.2092  156.3093 H   0  0  0  0  0  0  0  0  0  0  0  0
  152.0383  139.7962  158.0119 H   0  0  0  0  0  0  0  0  0  0  0  0
  153.0627  138.1110  159.3086 H   0  0  0  0  0  0  0  0  0  0  0  0
  152.9861  138.4208  161.0425 H   0  0  0  0  0  0  0  0  0  0  0  0
  154.5172  138.6026  160.1732 H   0  0  0  0  0  0  0  0  0  0  0  0
  1  2  1  0  0  0  0
  1 24  1  0  0  0  0
  1 25  1  0  0  0  0
  1 26  1  0  0  0  0
  2 22  1  0  0  0  0
  2  3  2  0  0  0  0
  3  4  1  0  0  0  0
  3 27  1  0  0  0  0
  4 20  2  0  0  0  0
  4  5  1  0  0  0  0
  5  6  2  0  0  0  0
  6  7  1  0  0  0  0
  6 28  1  0  0  0  0
  7  8  1  0  0  0  0
  7 20  1  0  0  0  0
  8  9  1  0  0  0  0
  8 29  1  0  0  0  0
  8 30  1  0  0  0  0
  9 10  1  0  0  0  0
  9 11  1  0  0  0  0
  9 31  1  0  0  0  0
 10 32  1  0  0  0  0
 11 12  1  0  0  0  0
 11 33  1  0  0  0  0
 11 34  1  0  0  0  0
 12 13  1  0  0  0  0
 13 18  1  0  0  0  0
 13 14  2  0  0  0  0
 14 15  1  0  0  0  0
 14 35  1  0  0  0  0
 15 16  2  0  0  0  0
 15 36  1  0  0  0  0
 16 17  1  0  0  0  0
 16 37  1  0  0  0  0
 17 18  2  0  0  0  0
 17 38  1  0  0  0  0
 18 19  1  0  0  0  0
 20 21  1  0  0  0  0
 21 22  2  0  0  0  0
 21 39  1  0  0  0  0
 22 23  1  0  0  0  0
 23 40  1  0  0  0  0
 23 41  1  0  0  0  0
 23 42  1  0  0  0  0
M  CHG  1  18   1
M  CHG  1  19  -1
M  END
> <s_m_source_file>
AV-unprocessed.smi

> <i_m_source_file_index>
2703

> <i_lp_mmshare_version>
43012

> <i_f3d_flags>
0

> <s_epik_input>
W0NIM11jKFtjSF0xKWMoW0NIM10pW2NIXWMoYzEyKW4oW2NIXW4yKVtDSDJdW0NASF0oW09IXSlbQ0gyXVNjM1tjSF1bY0hdW2NIXVtjSF1bbitdM1tPLV0=

> <s_epik_cmdline>
J2VwaWtfcHl0aG9uJywgJy1waCcsICc3LjAnLCAnLXRuJywgJzgnLCAnLW1hJywgJzIwMCcsICctbWV0YWxfYmluZGluZycsICctaW1hZScsICc8aW5maWxlLm1hZT4nLCAnLW9tYWUnLCAnPG91dGZpbGUubWFlPic=

> <r_epik_Ionization_Penalty>
0.106001

> <r_epik_Ionization_Penalty_Charging>
1.39204e-07

> <r_epik_Ionization_Penalty_Neutral>
0.106001

> <r_epik_State_Penalty>
0.0958598

> <r_epik_Charging_Adjusted_Penalty>
0.0958599

> <i_epik_Tot_Q>
0

> <i_epik_Tot_abs_Q>
2

> <r_epik_Metal_State_Penalty>
0.000104041

> <b_epik_Metal_Only>
0

> <s_lp_Force_Field>
OPLS_2005

> <r_lp_Energy>
17.7295

> <b_lp_Chiralities_Consistent>
1

> <s_lp_Variant>
AV-unprocessed.smi:2703-2

> <Gold.Version>
5.8.1

> <Gold.Id.Protein>
6NUR|6NUR_protein|mol2

> <Gold.PLP.Fitness>
54.9268

> <Gold.PLP.PLP>
-45.5740

> <Gold.PLP.part.hbond>
-3.0000

> <Gold.PLP.part.metal>
0.0000

> <Gold.PLP.part.buried>
-3.7023

> <Gold.PLP.part.nonpolar>
-39.2284

> <Gold.PLP.part.repulsive>
0.0599

> <Gold.PLP.ligand.clash>
0.0000

> <Gold.PLP.ligand.torsion>
0.5840

> <Gold.PLP.Chemscore.Hbond>
2.4960

> <Gold.PLP.Chemscore.CHOScore>
1.0000

> <Gold.PLP.Chemscore.Metal>
0.0000

> <Gold.Chemscore.Hbonds>
donor molecule, donor type, donor heavy atom, donor atom, acceptor molecule, acceptor atom, score
      L1  H    10    32       P1  8028  1.00
      P1  H  7989  7998       L1    19  0.50
      P1  H  7997  8009       L1    19  1.00
      L1  C     6    28       P1  8028  1.00

> <Gold.PLP.Chemscore.Internal.Correction>
0.0328

> <Gold.Rescore>
     Score         DG    S(hbond)    S(metal)    S(lipo)     H(rot)  DE(clash)    DE(int)     intcor
     20.17     -20.67       2.14        0.00     118.04       2.26       0.03       0.46       ----

> <Gold.Chemscore.Fitness>
20.1727

> <Gold.Chemscore.DG>
-20.6713

> <Gold.Chemscore.ZeroCoef>
-5.4800

> <Gold.Chemscore.Hbond>
2.1423

> <Gold.Chemscore.Metal>
0.0000

> <Gold.Chemscore.Lipo>
118.0418

> <Gold.Chemscore.Internal_Hbond>
0.0000

> <Gold.Chemscore.DEClash>
0.0338

> <Gold.Chemscore.DEInternal>
0.4648

> <Gold.Chemscore.Rot>
2.2558

> <Gold.Chemscore.Internal.Correction>
   9.000000E+99

> <Gold.Chemscore.Hbonds>
donor molecule, donor type, donor heavy atom, donor atom, acceptor molecule, acceptor atom, score
      L1  H    10    32       P1  8028  0.78
      P1  H  7989  7998       L1    19  0.45
      P1  H  7997  8009       L1    19  0.74

> <Gold.Chemscore.Hbond.Weighted>
-7.1552

> <Gold.Chemscore.Metal.Weighted>
-0.0000

> <Gold.Chemscore.Lipo.Weighted>
-13.8109

> <Gold.Chemscore.Internal_Hbond.Weighted>
0.0000

> <Gold.Chemscore.DEClash.Weighted>
0.0338

> <Gold.Chemscore.DEInternal.Weighted>
0.4648

> <Gold.Chemscore.Rot.Weighted>
5.7748

> <Gold.Chemscore.Internal.Correction.Weighted>
   9.000000E+99

> <Gold.Protein.RotatedTorsions>
[ 6907 6896 6895 6894 ] final -142.01 input  -60.11 | X-H torsion
[ 7974 7965 7964 7962 ] final -109.98 input  175.53 | X-H torsion
[ 8008 7997 7996 7995 ] final -133.67 input   59.86 | X-H torsion
[ 10167 10162 10161 10158 ] final  -76.82 input  -65.29 | X-H torsion
[ 10718 10713 10712 10709 ] final  155.43 input   66.30 | X-H torsion
[ 10763 10752 10751 10750 ] final -162.38 input  -60.55 | X-H torsion
[ 11005 11000 10999 10996 ] final   72.81 input  -57.11 | X-H torsion

> <Gold.Protein.ActiveResidues>
 VAL166  LYS551  ARG553  GLY616  TRP617  ASP618  TYR619  PRO620  LYS621  CYS622 
 ASP623  PHE694  ASN695  SER759  ASP760  ASP761  ALA762  ILE779  LEU786  VAL792 
 PHE793  MET794  SER795  GLU796  ALA797  LYS798  CYS799  TRP800  GLU811  SER814 

> <Gold.Protein.RotatedAtoms>
  151.0814  133.5387  159.2620 H   0  0  0  0  0  0  0  0  0  0  0  0  # atno 6907 bound_to 6896
  151.2289  135.0546  159.8990 H   0  0  0  0  0  0  0  0  0  0  0  0  # atno 6908 bound_to 6896
  152.5424  134.0605  159.8204 H   0  0  0  0  0  0  0  0  0  0  0  0  # atno 6909 bound_to 6896
  145.1738  140.8939  143.3519 H   0  0  0  0  0  0  0  0  0  0  0  0  # atno 7974 bound_to 7965
  155.3494  140.0476  157.3046 H   0  0  0  0  0  0  0  0  0  0  0  0  # atno 8008 bound_to 7997
  154.5235  140.2233  155.8897 H   0  0  0  0  0  0  0  0  0  0  0  0  # atno 8009 bound_to 7997
  156.1715  140.3095  155.8988 H   0  0  0  0  0  0  0  0  0  0  0  0  # atno 8010 bound_to 7997
  140.4824  143.2399  151.8037 H   0  0  0  0  0  0  0  0  0  0  0  0  # atno 10167 bound_to 10162
  157.2184  131.0713  151.1927 H   0  0  0  0  0  0  0  0  0  0  0  0  # atno 10718 bound_to 10713
  154.7219  135.3027  154.9033 H   0  0  0  0  0  0  0  0  0  0  0  0  # atno 10763 bound_to 10752
  153.9902  135.6719  153.4758 H   0  0  0  0  0  0  0  0  0  0  0  0  # atno 10764 bound_to 10752
  153.0841  135.4993  154.8480 H   0  0  0  0  0  0  0  0  0  0  0  0  # atno 10765 bound_to 10752
  139.9471  134.7293  156.0952 H   0  0  0  0  0  0  0  0  0  0  0  0  # atno 11005 bound_to 11000
  145.0205  139.3428  143.6075 LP  0  0  0  0  0  0  0  0  0  0  0  0  # atno 17320 bound_to 7965
  146.3464  139.9504  142.8729 LP  0  0  0  0  0  0  0  0  0  0  0  0  # atno 17321 bound_to 7965
  139.4836  144.4756  151.9371 LP  0  0  0  0  0  0  0  0  0  0  0  0  # atno 17342 bound_to 10162
  140.3841  144.2698  150.5905 LP  0  0  0  0  0  0  0  0  0  0  0  0  # atno 17343 bound_to 10162
  157.3601  130.7127  149.6496 LP  0  0  0  0  0  0  0  0  0  0  0  0  # atno 17370 bound_to 10713
  155.9684  130.4228  150.4532 LP  0  0  0  0  0  0  0  0  0  0  0  0  # atno 17371 bound_to 10713
  141.1125  133.6638  156.3013 LP  0  0  0  0  0  0  0  0  0  0  0  0  # atno 17394 bound_to 11000
  140.5807  134.5748  157.5479 LP  0  0  0  0  0  0  0  0  0  0  0  0  # atno 17395 bound_to 11000

$$$$
