AV-unprocessed.smi:1|AV-procd|sdf|13|dock5
  -GOLD-   2262015103D 1   1.00000     0.00000
 Structure written by MMmdl.
 57 62  0  0  0  0  0  0  0  0  1 V2000
  154.4949  140.2317  159.6017 O   0  0  0  0  0  0  0  0  0  0  0  0
  153.2876  140.3752  159.3900 C   0  0  0  0  0  0  0  0  0  0  0  0
  152.3994  139.4968  158.7833 N   0  0  0  0  0  0  0  0  0  0  0  0
  152.8076  138.3317  158.3803 C   0  0  0  0  0  0  0  0  0  0  0  0
  154.0560  137.6988  158.4272 N   0  0  0  0  0  0  0  0  0  0  0  0
  154.3475  136.4174  157.9364 C   0  0  0  0  0  0  0  0  0  0  0  0
  153.4841  135.6254  157.3592 N   0  0  0  0  0  0  0  0  0  0  0  0
  152.2237  136.2016  157.2886 C   0  0  0  0  0  0  0  0  0  0  0  0
  151.8179  137.4423  157.7338 C   0  0  0  0  0  0  0  0  0  0  0  0
  150.4665  137.6433  157.4774 N   0  0  0  0  0  0  0  0  0  0  0  0
  150.1116  136.5071  156.8842 C   0  0  0  0  0  0  0  0  0  0  0  0
  151.0957  135.6018  156.7274 N   0  0  0  0  0  0  0  0  0  0  0  0
  150.9454  134.2502  156.1010 C   0  0  2  0  0  0  0  0  0  0  0  0
  150.4302  134.3953  154.8102 O   0  0  0  0  0  0  0  0  0  0  0  0
  149.1575  133.7632  154.6990 C   0  0  1  0  0  0  0  0  0  0  0  0
  148.9320  133.2243  153.2817 C   0  0  0  0  0  0  0  0  0  0  0  0
  147.5998  133.5076  152.8878 O   0  0  0  0  0  0  0  0  0  0  0  0
  146.8753  132.5763  152.2391 C   0  0  0  0  0  0  0  0  0  0  0  0
  147.0255  131.3630  152.3970 O   0  0  0  0  0  0  0  0  0  0  0  0
  145.8725  133.1680  151.3069 C   0  0  0  0  0  0  0  0  0  0  0  0
  145.1760  132.3232  150.4112 C   0  0  0  0  0  0  0  0  0  0  0  0
  144.2265  132.8536  149.5161 C   0  0  0  0  0  0  0  0  0  0  0  0
  143.9620  134.2354  149.5058 C   0  0  0  0  0  0  0  0  0  0  0  0
  144.6481  135.0864  150.3919 C   0  0  0  0  0  0  0  0  0  0  0  0
  145.5977  134.5580  151.2880 C   0  0  0  0  0  0  0  0  0  0  0  0
  149.1732  132.6927  155.7888 C   0  0  1  0  0  0  0  0  0  0  0  0
  149.8626  131.5292  155.3613 O   0  0  0  0  0  0  0  0  0  0  0  0
  150.8443  131.0099  156.6091 S   0  0  0  0  0  0  0  0  0  0  0  0
  150.1871  129.8736  157.2725 O   0  0  0  0  0  0  0  0  0  0  0  0
  152.2268  130.9463  156.1109 O   0  0  0  0  0  0  0  0  0  0  0  0
  150.7032  132.3477  157.6018 O   0  0  0  0  0  0  0  0  0  0  0  0
  149.9902  133.3533  156.9028 C   0  0  1  0  0  0  0  0  0  0  0  0
  152.6424  141.6402  159.8538 C   0  0  0  0  0  0  0  0  0  0  0  0
  151.6268  142.2415  159.0806 C   0  0  0  0  0  0  0  0  0  0  0  0
  151.0232  143.4379  159.5151 C   0  0  0  0  0  0  0  0  0  0  0  0
  151.4344  144.0372  160.7216 C   0  0  0  0  0  0  0  0  0  0  0  0
  152.4502  143.4406  161.4936 C   0  0  0  0  0  0  0  0  0  0  0  0
  153.0544  142.2442  161.0606 C   0  0  0  0  0  0  0  0  0  0  0  0
  155.3863  136.1148  158.0745 H   0  0  0  0  0  0  0  0  0  0  0  0
  149.0999  136.3284  156.5508 H   0  0  0  0  0  0  0  0  0  0  0  0
  151.9595  133.8532  156.0374 H   0  0  0  0  0  0  0  0  0  0  0  0
  148.3803  134.4879  154.9390 H   0  0  0  0  0  0  0  0  0  0  0  0
  149.6417  133.6689  152.5828 H   0  0  0  0  0  0  0  0  0  0  0  0
  149.0850  132.1443  153.2676 H   0  0  0  0  0  0  0  0  0  0  0  0
  145.3633  131.2591  150.4001 H   0  0  0  0  0  0  0  0  0  0  0  0
  143.7016  132.1988  148.8363 H   0  0  0  0  0  0  0  0  0  0  0  0
  143.2346  134.6421  148.8189 H   0  0  0  0  0  0  0  0  0  0  0  0
  144.4466  136.1475  150.3843 H   0  0  0  0  0  0  0  0  0  0  0  0
  146.1070  135.2396  151.9535 H   0  0  0  0  0  0  0  0  0  0  0  0
  148.1707  132.4139  156.1151 H   0  0  0  0  0  0  0  0  0  0  0  0
  149.3573  133.9420  157.5673 H   0  0  0  0  0  0  0  0  0  0  0  0
  151.3082  141.7891  158.1526 H   0  0  0  0  0  0  0  0  0  0  0  0
  150.2466  143.8969  158.9216 H   0  0  0  0  0  0  0  0  0  0  0  0
  150.9724  144.9551  161.0536 H   0  0  0  0  0  0  0  0  0  0  0  0
  152.7672  143.9018  162.4173 H   0  0  0  0  0  0  0  0  0  0  0  0
  153.8350  141.7939  161.6566 H   0  0  0  0  0  0  0  0  0  0  0  0
  154.8138  138.2137  158.8527 H   0  0  0  0  0  0  0  0  0  0  0  0
  1  2  2  0  0  0  0
  2  3  1  0  0  0  0
  2 33  1  0  0  0  0
  3  4  2  0  0  0  0
  4  9  1  0  0  0  0
  4  5  1  0  0  0  0
  5  6  1  0  0  0  0
  5 57  1  0  0  0  0
  6  7  2  0  0  0  0
  6 39  1  0  0  0  0
  7  8  1  0  0  0  0
  8 12  1  0  0  0  0
  8  9  2  0  0  0  0
  9 10  1  0  0  0  0
 10 11  2  0  0  0  0
 11 12  1  0  0  0  0
 11 40  1  0  0  0  0
 12 13  1  0  0  0  0
 13 32  1  0  0  0  0
 13 14  1  0  0  0  0
 13 41  1  0  0  0  0
 14 15  1  0  0  0  0
 15 16  1  0  0  0  0
 15 26  1  0  0  0  0
 15 42  1  0  0  0  0
 16 17  1  0  0  0  0
 16 43  1  0  0  0  0
 16 44  1  0  0  0  0
 17 18  1  0  0  0  0
 18 19  2  0  0  0  0
 18 20  1  0  0  0  0
 20 25  1  0  0  0  0
 20 21  2  0  0  0  0
 21 22  1  0  0  0  0
 21 45  1  0  0  0  0
 22 23  2  0  0  0  0
 22 46  1  0  0  0  0
 23 24  1  0  0  0  0
 23 47  1  0  0  0  0
 24 25  2  0  0  0  0
 24 48  1  0  0  0  0
 25 49  1  0  0  0  0
 26 32  1  0  0  0  0
 26 27  1  0  0  0  0
 26 50  1  0  0  0  0
 27 28  1  0  0  0  0
 28 29  2  0  0  0  0
 28 30  2  0  0  0  0
 28 31  1  0  0  0  0
 31 32  1  0  0  0  0
 32 51  1  0  0  0  0
 33 38  1  0  0  0  0
 33 34  2  0  0  0  0
 34 35  1  0  0  0  0
 34 52  1  0  0  0  0
 35 36  2  0  0  0  0
 35 53  1  0  0  0  0
 36 37  1  0  0  0  0
 36 54  1  0  0  0  0
 37 38  2  0  0  0  0
 37 55  1  0  0  0  0
 38 56  1  0  0  0  0
M  END
> <s_m_source_file>
AV-unprocessed.smi

> <i_m_source_file_index>
1

> <i_lp_mmshare_version>
43012

> <i_f3d_flags>
0

> <s_epik_input>
W2NIXTFbY0hdW2NIXVtjSF1bY0hdYzFDKD1PKVtOSF1jKG5bY0hdbjIpYyhjMjMpbltjSF1uM1tDQEBIXShbQ0BIXShbQ0BIXTQ1KU9TKE81KSg9Tyk9TylPW0NASF00W0NIMl1PQyg9TyljNltjSF1bY0hdW2NIXVtjSF1bY0hdNg==

> <s_epik_cmdline>
J2VwaWtfcHl0aG9uJywgJy1waCcsICc3LjAnLCAnLXRuJywgJzgnLCAnLW1hJywgJzIwMCcsICctbWV0YWxfYmluZGluZycsICctaW1hZScsICc8aW5maWxlLm1hZT4nLCAnLW9tYWUnLCAnPG91dGZpbGUubWFlPic=

> <r_epik_Ionization_Penalty>
0.122545

> <r_epik_Ionization_Penalty_Charging>
0.122545

> <r_epik_Ionization_Penalty_Neutral>
7.8935e-16

> <r_epik_State_Penalty>
2.69178

> <r_epik_Charging_Adjusted_Penalty>
2.81433

> <i_epik_Tot_Q>
0

> <i_epik_Tot_abs_Q>
0

> <r_epik_Metal_State_Penalty>
3.02665

> <b_epik_Metal_Only>
0

> <s_epik_Chemistry_Notes>
This compound has an ester and may undergo hydrolysis at high or low pH. This compound contains an acetal/aminal-like group ( X-CH(R)-Y where X, Y are N, S, or O) that may be acid/base labile, releasing an aldehyde.

> <s_lp_Force_Field>
OPLS_2005

> <r_lp_Energy>
62.4827

> <b_lp_Chiralities_Consistent>
1

> <s_lp_Variant>
AV-unprocessed.smi:1-13

> <Gold.Version>
5.8.1

> <Gold.Id.Protein>
6NUR|6NUR_protein|mol2

> <Gold.PLP.Fitness>
54.0387

> <Gold.PLP.PLP>
-52.0212

> <Gold.PLP.part.hbond>
-3.0000

> <Gold.PLP.part.metal>
0.0000

> <Gold.PLP.part.buried>
-5.1147

> <Gold.PLP.part.nonpolar>
-44.7494

> <Gold.PLP.part.repulsive>
0.9246

> <Gold.PLP.ligand.clash>
0.0000

> <Gold.PLP.ligand.torsion>
1.9032

> <Gold.PLP.Chemscore.Hbond>
1.8960

> <Gold.PLP.Chemscore.CHOScore>
0.0000

> <Gold.PLP.Chemscore.Metal>
0.0000

> <Gold.Chemscore.Hbonds>
donor molecule, donor type, donor heavy atom, donor atom, acceptor molecule, acceptor atom, score
      P1  H  7997  8010       L1     1  0.15
      P1  H 10752 10764       L1     7  0.96

> <Gold.PLP.Chemscore.Internal.Correction>
0.1359

> <Gold.Rescore>
     Score         DG    S(hbond)    S(metal)    S(lipo)     H(rot)  DE(clash)    DE(int)     intcor
     14.21     -17.83       0.85        0.00     127.89       2.13       2.04       1.58       ----

> <Gold.Chemscore.Fitness>
14.2055

> <Gold.Chemscore.DG>
-17.8252

> <Gold.Chemscore.ZeroCoef>
-5.4800

> <Gold.Chemscore.Hbond>
0.8512

> <Gold.Chemscore.Metal>
0.0000

> <Gold.Chemscore.Lipo>
127.8940

> <Gold.Chemscore.Internal_Hbond>
0.0000

> <Gold.Chemscore.DEClash>
2.0384

> <Gold.Chemscore.DEInternal>
1.5813

> <Gold.Chemscore.Rot>
2.1333

> <Gold.Chemscore.Internal.Correction>
   9.000000E+99

> <Gold.Chemscore.Hbonds>
donor molecule, donor type, donor heavy atom, donor atom, acceptor molecule, acceptor atom, score
      P1  H  7997  8010       L1     1  0.03
      P1  H 10752 10764       L1     7  0.32

> <Gold.Chemscore.Hbond.Weighted>
-2.8430

> <Gold.Chemscore.Metal.Weighted>
-0.0000

> <Gold.Chemscore.Lipo.Weighted>
-14.9636

> <Gold.Chemscore.Internal_Hbond.Weighted>
0.0000

> <Gold.Chemscore.DEClash.Weighted>
2.0384

> <Gold.Chemscore.DEInternal.Weighted>
1.5813

> <Gold.Chemscore.Rot.Weighted>
5.4614

> <Gold.Chemscore.Internal.Correction.Weighted>
   9.000000E+99

> <Gold.Protein.RotatedTorsions>
[ 6907 6896 6895 6894 ] final -104.89 input  -60.11 | X-H torsion
[ 7974 7965 7964 7962 ] final -160.34 input  175.53 | X-H torsion
[ 8008 7997 7996 7995 ] final   -4.03 input   59.86 | X-H torsion
[ 10167 10162 10161 10158 ] final  143.35 input  -65.29 | X-H torsion
[ 10718 10713 10712 10709 ] final    7.28 input   66.30 | X-H torsion
[ 10763 10752 10751 10750 ] final   26.49 input  -60.55 | X-H torsion
[ 11005 11000 10999 10996 ] final -126.95 input  -57.11 | X-H torsion

> <Gold.Protein.ActiveResidues>
 VAL166  LYS551  ARG553  GLY616  TRP617  ASP618  TYR619  PRO620  LYS621  CYS622 
 ASP623  PHE694  ASN695  SER759  ASP760  ASP761  ALA762  ILE779  LEU786  VAL792 
 PHE793  MET794  SER795  GLU796  ALA797  LYS798  CYS799  TRP800  GLU811  SER814 

> <Gold.Protein.RotatedAtoms>
  150.7309  134.0209  159.3700 H   0  0  0  0  0  0  0  0  0  0  0  0  # atno 6907 bound_to 6896
  151.8174  135.0660  160.0430 H   0  0  0  0  0  0  0  0  0  0  0  0  # atno 6908 bound_to 6896
  152.3028  133.5637  159.5666 H   0  0  0  0  0  0  0  0  0  0  0  0  # atno 6909 bound_to 6896
  144.7431  140.3556  143.6107 H   0  0  0  0  0  0  0  0  0  0  0  0  # atno 7974 bound_to 7965
  154.6186  140.2494  155.7578 H   0  0  0  0  0  0  0  0  0  0  0  0  # atno 8008 bound_to 7997
  156.2413  140.2931  156.0402 H   0  0  0  0  0  0  0  0  0  0  0  0  # atno 8009 bound_to 7997
  155.1934  140.0392  157.2895 H   0  0  0  0  0  0  0  0  0  0  0  0  # atno 8010 bound_to 7997
  139.4972  144.6046  151.6407 H   0  0  0  0  0  0  0  0  0  0  0  0  # atno 10167 bound_to 10162
  156.9346  130.5838  149.5650 H   0  0  0  0  0  0  0  0  0  0  0  0  # atno 10718 bound_to 10713
  153.0619  135.6559  154.0444 H   0  0  0  0  0  0  0  0  0  0  0  0  # atno 10763 bound_to 10752
  154.0110  135.2928  155.3394 H   0  0  0  0  0  0  0  0  0  0  0  0  # atno 10764 bound_to 10752
  154.6960  135.5263  153.8527 H   0  0  0  0  0  0  0  0  0  0  0  0  # atno 10765 bound_to 10752
  140.9639  134.0898  157.3940 H   0  0  0  0  0  0  0  0  0  0  0  0  # atno 11005 bound_to 11000
  145.7231  139.1715  143.2473 LP  0  0  0  0  0  0  0  0  0  0  0  0  # atno 17320 bound_to 7965
  146.1262  140.7244  142.9434 LP  0  0  0  0  0  0  0  0  0  0  0  0  # atno 17321 bound_to 7965
  140.5704  144.0118  150.6214 LP  0  0  0  0  0  0  0  0  0  0  0  0  # atno 17342 bound_to 10162
  140.3234  143.3123  152.0761 LP  0  0  0  0  0  0  0  0  0  0  0  0  # atno 17343 bound_to 10162
  156.0432  130.5511  150.8819 LP  0  0  0  0  0  0  0  0  0  0  0  0  # atno 17370 bound_to 10713
  157.5825  131.0946  150.9249 LP  0  0  0  0  0  0  0  0  0  0  0  0  # atno 17371 bound_to 10713
  139.8888  135.0100  156.6640 LP  0  0  0  0  0  0  0  0  0  0  0  0  # atno 17394 bound_to 11000
  140.7427  133.8964  155.8289 LP  0  0  0  0  0  0  0  0  0  0  0  0  # atno 17395 bound_to 11000

$$$$
