AV-unprocessed.smi:1196|AV-procd|sdf|5003|dock4
  -GOLD-   22720 4 13D 1   1.00000     0.00000
 Structure written by MMmdl.
 36 37  0  0  0  0  0  0  0  0  2 V2000
  149.6531  141.9450  155.5625 C   0  0  0  0  0  0  0  0  0  0  0  0
  150.9646  141.2374  155.9388 C   0  0  1  0  0  0  0  0  0  0  0  0
  151.1956  141.2503  157.4622 C   0  0  0  0  0  0  0  0  0  0  0  0
  151.7585  142.5070  157.9244 N   0  0  0  0  0  0  0  0  0  0  0  0
  151.3219  143.7878  157.6597 C   0  0  0  0  0  0  0  0  0  0  0  0
  152.1668  144.6460  158.3033 C   0  0  0  0  0  0  0  0  0  0  0  0
  153.1026  143.7843  158.9412 C   0  0  0  0  0  0  0  0  0  0  0  0
  152.8540  142.5045  158.7151 N   0  0  0  0  0  0  0  0  0  0  0  0
  150.9498  139.8623  155.4444 N   0  0  0  0  0  0  0  0  0  0  0  0
  152.0001  139.2065  154.9284 C   0  0  0  0  0  0  0  0  0  0  0  0
  153.1129  139.7163  154.7922 O   0  0  0  0  0  0  0  0  0  0  0  0
  151.7382  137.7582  154.5041 C   0  0  0  0  0  0  0  0  0  0  0  0
  150.7993  136.9963  155.4599 C   0  0  0  0  0  0  0  0  0  0  0  0
  150.7842  135.4754  155.1991 C   0  0  1  0  0  0  0  0  0  0  0  0
  151.8803  134.8059  155.8782 N   0  5  0  0  0  0  0  0  0  0  0  0
  151.3627  133.8757  156.7146 C   0  0  0  0  0  0  0  0  0  0  0  0
  151.9731  133.1019  157.4488 O   0  0  0  0  0  0  0  0  0  0  0  0
  150.0267  133.8829  156.6622 N   0  0  0  0  0  0  0  0  0  0  0  0
  149.5733  134.7973  155.8110 C   0  0  0  0  0  0  0  0  0  0  0  0
  148.3999  135.0595  155.5499 O   0  0  0  0  0  0  0  0  0  0  0  0
  149.6504  142.9771  155.9139 H   0  0  0  0  0  0  0  0  0  0  0  0
  148.7905  141.4425  156.0012 H   0  0  0  0  0  0  0  0  0  0  0  0
  149.5118  141.9675  154.4813 H   0  0  0  0  0  0  0  0  0  0  0  0
  151.7882  141.7792  155.4696 H   0  0  0  0  0  0  0  0  0  0  0  0
  150.2498  141.0995  157.9842 H   0  0  0  0  0  0  0  0  0  0  0  0
  151.8496  140.4296  157.7622 H   0  0  0  0  0  0  0  0  0  0  0  0
  150.4576  143.9788  157.0408 H   0  0  0  0  0  0  0  0  0  0  0  0
  152.1242  145.7249  158.3149 H   0  0  0  0  0  0  0  0  0  0  0  0
  153.9483  144.0491  159.5587 H   0  0  0  0  0  0  0  0  0  0  0  0
  150.0763  139.3612  155.5228 H   0  0  0  0  0  0  0  0  0  0  0  0
  151.3089  137.7600  153.5012 H   0  0  0  0  0  0  0  0  0  0  0  0
  152.6971  137.2441  154.4331 H   0  0  0  0  0  0  0  0  0  0  0  0
  151.0815  137.1936  156.4961 H   0  0  0  0  0  0  0  0  0  0  0  0
  149.7872  137.3877  155.3424 H   0  0  0  0  0  0  0  0  0  0  0  0
  150.7784  135.2804  154.1259 H   0  0  0  0  0  0  0  0  0  0  0  0
  149.4364  133.2746  157.2095 H   0  0  0  0  0  0  0  0  0  0  0  0
  1  2  1  0  0  0  0
  1 21  1  0  0  0  0
  1 22  1  0  0  0  0
  1 23  1  0  0  0  0
  2  3  1  0  0  0  0
  2  9  1  0  0  0  0
  2 24  1  0  0  0  0
  3  4  1  0  0  0  0
  3 25  1  0  0  0  0
  3 26  1  0  0  0  0
  4  8  1  0  0  0  0
  4  5  1  0  0  0  0
  5  6  2  0  0  0  0
  5 27  1  0  0  0  0
  6  7  1  0  0  0  0
  6 28  1  0  0  0  0
  7  8  2  0  0  0  0
  7 29  1  0  0  0  0
  9 10  1  0  0  0  0
  9 30  1  0  0  0  0
 10 11  2  0  0  0  0
 10 12  1  0  0  0  0
 12 13  1  0  0  0  0
 12 31  1  0  0  0  0
 12 32  1  0  0  0  0
 13 14  1  0  0  0  0
 13 33  1  0  0  0  0
 13 34  1  0  0  0  0
 14 19  1  0  0  0  0
 14 15  1  0  0  0  0
 14 35  1  0  0  0  0
 15 16  1  0  0  0  0
 16 17  2  0  0  0  0
 16 18  1  0  0  0  0
 18 19  1  0  0  0  0
 18 36  1  0  0  0  0
 19 20  2  0  0  0  0
M  CHG  1  15  -1
M  END
> <s_m_source_file>
AV-unprocessed.smi

> <i_m_source_file_index>
1196

> <i_lp_mmshare_version>
43012

> <i_f3d_flags>
0

> <s_epik_input>
bjFbY0hdW2NIXVtjSF1uMVtDSDJdW0NAQEhdKFtDSDNdKVtOSF1DKD1PKVtDSDJdW0NIMl1bQ0BASF0yW05IXUMoPU8pW05IXUMyPU8=

> <s_epik_cmdline>
J2VwaWtfcHl0aG9uJywgJy1waCcsICc3LjAnLCAnLXRuJywgJzgnLCAnLW1hJywgJzIwMCcsICctbWV0YWxfYmluZGluZycsICctaW1hZScsICc8aW5maWxlLm1hZT4nLCAnLW9tYWUnLCAnPG91dGZpbGUubWFlPic=

> <r_lp_tautomer_probability>
1

> <r_epik_Ionization_Penalty>
5.79547

> <r_epik_Ionization_Penalty_Charging>
5.79516

> <r_epik_Ionization_Penalty_Neutral>
0.000313087

> <r_epik_State_Penalty>
5.80096

> <r_epik_Charging_Adjusted_Penalty>
11.5961

> <i_epik_Tot_Q>
-1

> <i_epik_Tot_abs_Q>
1

> <r_epik_Metal_State_Penalty>
2.14443

> <b_epik_Metal_Only>
1

> <s_lp_Force_Field>
OPLS_2005

> <r_lp_Energy>
12.8227

> <b_lp_Chiralities_Consistent>
1

> <s_lp_Variant>
AV-unprocessed.smi:1196-8

> <Gold.Version>
5.8.1

> <Gold.Id.Protein>
6NUR|6NUR_protein|mol2

> <Gold.PLP.Fitness>
47.9162

> <Gold.PLP.PLP>
-36.6199

> <Gold.PLP.part.hbond>
-4.0000

> <Gold.PLP.part.metal>
0.0000

> <Gold.PLP.part.buried>
-0.3123

> <Gold.PLP.part.nonpolar>
-31.6532

> <Gold.PLP.part.repulsive>
0.3056

> <Gold.PLP.ligand.clash>
0.0000

> <Gold.PLP.ligand.torsion>
1.2088

> <Gold.PLP.Chemscore.Hbond>
3.5600

> <Gold.PLP.Chemscore.CHOScore>
1.0000

> <Gold.PLP.Chemscore.Metal>
0.0000

> <Gold.Chemscore.Hbonds>
donor molecule, donor type, donor heavy atom, donor atom, acceptor molecule, acceptor atom, score
      P1  H  6896  6907       L1    17  0.69
      P1  H  7997  8010       L1    11  1.00
      P1  H 10752 10764       L1    15  1.25
      L1  C     5    27       P1  8028  1.00

> <Gold.PLP.Chemscore.Internal.Correction>
0.0340

> <Gold.Rescore>
     Score         DG    S(hbond)    S(metal)    S(lipo)     H(rot)  DE(clash)    DE(int)     intcor
     12.16     -13.89       2.11        0.00      74.96       2.89       0.70       1.04       ----

> <Gold.Chemscore.Fitness>
12.1579

> <Gold.Chemscore.DG>
-13.8881

> <Gold.Chemscore.ZeroCoef>
-5.4800

> <Gold.Chemscore.Hbond>
2.1102

> <Gold.Chemscore.Metal>
0.0000

> <Gold.Chemscore.Lipo>
74.9583

> <Gold.Chemscore.Internal_Hbond>
0.0000

> <Gold.Chemscore.DEClash>
0.6951

> <Gold.Chemscore.DEInternal>
1.0351

> <Gold.Chemscore.Rot>
2.8946

> <Gold.Chemscore.Internal.Correction>
   9.000000E+99

> <Gold.Chemscore.Hbonds>
donor molecule, donor type, donor heavy atom, donor atom, acceptor molecule, acceptor atom, score
      P1  H  6896  6907       L1    17  0.44
      P1  H  7997  8010       L1    11  1.00
      P1  H 10752 10764       L1    15  0.09

> <Gold.Chemscore.Hbond.Weighted>
-7.0481

> <Gold.Chemscore.Metal.Weighted>
-0.0000

> <Gold.Chemscore.Lipo.Weighted>
-8.7701

> <Gold.Chemscore.Internal_Hbond.Weighted>
0.0000

> <Gold.Chemscore.DEClash.Weighted>
0.6951

> <Gold.Chemscore.DEInternal.Weighted>
1.0351

> <Gold.Chemscore.Rot.Weighted>
7.4101

> <Gold.Chemscore.Internal.Correction.Weighted>
   9.000000E+99

> <Gold.Protein.RotatedTorsions>
[ 6907 6896 6895 6894 ] final -161.46 input  -60.11 | X-H torsion
[ 7974 7965 7964 7962 ] final  -24.83 input  175.53 | X-H torsion
[ 8008 7997 7996 7995 ] final  104.22 input   59.86 | X-H torsion
[ 10167 10162 10161 10158 ] final   70.31 input  -65.29 | X-H torsion
[ 10718 10713 10712 10709 ] final   84.21 input   66.30 | X-H torsion
[ 10763 10752 10751 10750 ] final  -37.46 input  -60.55 | X-H torsion
[ 11005 11000 10999 10996 ] final  117.08 input  -57.11 | X-H torsion

> <Gold.Protein.ActiveResidues>
 VAL166  LYS551  ARG553  GLY616  TRP617  ASP618  TYR619  PRO620  LYS621  CYS622 
 ASP623  PHE694  ASN695  SER759  ASP760  ASP761  ALA762  ILE779  LEU786  VAL792 
 PHE793  MET794  SER795  GLU796  ALA797  LYS798  CYS799  TRP800  GLU811  SER814 

> <Gold.Protein.RotatedAtoms>
  151.3650  133.3875  159.2693 H   0  0  0  0  0  0  0  0  0  0  0  0  # atno 6907 bound_to 6896
  150.9695  134.9072  159.7790 H   0  0  0  0  0  0  0  0  0  0  0  0  # atno 6908 bound_to 6896
  152.5179  134.3612  159.9337 H   0  0  0  0  0  0  0  0  0  0  0  0  # atno 6909 bound_to 6896
  146.1530  140.4804  142.8603 H   0  0  0  0  0  0  0  0  0  0  0  0  # atno 7974 bound_to 7965
  156.1554  140.3151  155.8717 H   0  0  0  0  0  0  0  0  0  0  0  0  # atno 8008 bound_to 7997
  155.3889  140.0492  157.3058 H   0  0  0  0  0  0  0  0  0  0  0  0  # atno 8009 bound_to 7997
  154.5096  140.2160  155.9193 H   0  0  0  0  0  0  0  0  0  0  0  0  # atno 8010 bound_to 7997
  140.0583  144.5254  150.7313 H   0  0  0  0  0  0  0  0  0  0  0  0  # atno 10167 bound_to 10162
  157.6894  131.0124  150.2639 H   0  0  0  0  0  0  0  0  0  0  0  0  # atno 10718 bound_to 10713
  153.8966  135.6806  153.4757 H   0  0  0  0  0  0  0  0  0  0  0  0  # atno 10763 bound_to 10752
  153.1152  135.4765  154.9101 H   0  0  0  0  0  0  0  0  0  0  0  0  # atno 10764 bound_to 10752
  154.7596  135.3207  154.8357 H   0  0  0  0  0  0  0  0  0  0  0  0  # atno 10765 bound_to 10752
  139.9062  134.9606  156.7296 H   0  0  0  0  0  0  0  0  0  0  0  0  # atno 11005 bound_to 11000
  144.7927  140.6064  143.6530 LP  0  0  0  0  0  0  0  0  0  0  0  0  # atno 17320 bound_to 7965
  145.4777  139.1498  143.3779 LP  0  0  0  0  0  0  0  0  0  0  0  0  # atno 17321 bound_to 7965
  140.7184  143.2565  151.4359 LP  0  0  0  0  0  0  0  0  0  0  0  0  # atno 17342 bound_to 10162
  139.5910  144.1500  152.2087 LP  0  0  0  0  0  0  0  0  0  0  0  0  # atno 17343 bound_to 10162
  156.3214  130.3786  149.7572 LP  0  0  0  0  0  0  0  0  0  0  0  0  # atno 17370 bound_to 10713
  156.5141  130.8185  151.3179 LP  0  0  0  0  0  0  0  0  0  0  0  0  # atno 17371 bound_to 10713
  140.6936  133.9368  155.7981 LP  0  0  0  0  0  0  0  0  0  0  0  0  # atno 17394 bound_to 11000
  141.0423  134.0603  157.3886 LP  0  0  0  0  0  0  0  0  0  0  0  0  # atno 17395 bound_to 11000

$$$$
