AV-unprocessed.smi:2768|AV-procd|sdf|10652|dock8
  -GOLD-   2272015103D 1   1.00000     0.00000
 Structure written by MMmdl.
 34 35  0  0  0  0  0  0  0  0  2 V2000
  152.8619  139.4341  155.4241 O   0  0  0  0  0  0  0  0  0  0  0  0
  151.7225  139.5219  155.8967 C   0  0  0  0  0  0  0  0  0  0  0  0
  151.2694  140.2659  156.9467 N   0  5  0  0  0  0  0  0  0  0  0  0
  151.9434  141.4551  157.4720 C   0  0  2  0  0  0  0  0  0  0  0  0
  152.3222  141.2166  158.9551 C   0  0  0  0  0  0  0  0  0  0  0  0
  152.9094  142.4695  159.6523 C   0  0  0  0  0  0  0  0  0  0  0  0
  151.9692  143.6891  159.5656 C   0  0  0  0  0  0  0  0  0  0  0  0
  151.5989  143.9497  158.0909 C   0  0  0  0  0  0  0  0  0  0  0  0
  151.0102  142.6965  157.3888 C   0  0  1  0  0  0  0  0  0  0  0  0
  150.7669  143.0267  156.0350 O   0  0  0  0  0  0  0  0  0  0  0  0
  150.6019  138.6753  155.2550 C   0  0  0  0  0  0  0  0  0  0  0  0
  151.1091  137.8536  154.3291 F   0  0  0  0  0  0  0  0  0  0  0  0
  150.0524  137.9112  156.2025 F   0  0  0  0  0  0  0  0  0  0  0  0
  149.5255  139.5762  154.6527 C   0  0  0  0  0  0  0  0  0  0  0  0
  148.3180  139.0278  154.1626 C   0  0  0  0  0  0  0  0  0  0  0  0
  147.3489  139.8965  153.6257 C   0  0  0  0  0  0  0  0  0  0  0  0
  147.6172  141.2779  153.5966 C   0  0  0  0  0  0  0  0  0  0  0  0
  148.8485  141.7304  154.1101 C   0  0  0  0  0  0  0  0  0  0  0  0
  149.7845  140.9060  154.6257 N   0  0  0  0  0  0  0  0  0  0  0  0
  152.8630  141.6872  156.9311 H   0  0  0  0  0  0  0  0  0  0  0  0
  150.0502  142.4620  157.8521 H   0  0  0  0  0  0  0  0  0  0  0  0
  151.4397  140.8922  159.5092 H   0  0  0  0  0  0  0  0  0  0  0  0
  153.0394  140.3977  159.0229 H   0  0  0  0  0  0  0  0  0  0  0  0
  153.1083  142.2407  160.6998 H   0  0  0  0  0  0  0  0  0  0  0  0
  153.8769  142.7243  159.2150 H   0  0  0  0  0  0  0  0  0  0  0  0
  151.0643  143.4981  160.1439 H   0  0  0  0  0  0  0  0  0  0  0  0
  152.4441  144.5688  160.0006 H   0  0  0  0  0  0  0  0  0  0  0  0
  150.8783  144.7668  158.0430 H   0  0  0  0  0  0  0  0  0  0  0  0
  152.4845  144.3028  157.5579 H   0  0  0  0  0  0  0  0  0  0  0  0
  150.0107  143.5923  156.0035 H   0  0  0  0  0  0  0  0  0  0  0  0
  148.1351  137.9642  154.2049 H   0  0  0  0  0  0  0  0  0  0  0  0
  146.4155  139.5094  153.2449 H   0  0  0  0  0  0  0  0  0  0  0  0
  146.8970  141.9738  153.1932 H   0  0  0  0  0  0  0  0  0  0  0  0
  149.0891  142.7832  154.1046 H   0  0  0  0  0  0  0  0  0  0  0  0
  1  2  2  0  0  0  0
  2  3  1  0  0  0  0
  2 11  1  0  0  0  0
  3  4  1  0  0  0  0
  4 20  1  0  0  0  0
  4  9  1  0  0  0  0
  4  5  1  0  0  0  0
  5  6  1  0  0  0  0
  5 22  1  0  0  0  0
  5 23  1  0  0  0  0
  6  7  1  0  0  0  0
  6 24  1  0  0  0  0
  6 25  1  0  0  0  0
  7  8  1  0  0  0  0
  7 26  1  0  0  0  0
  7 27  1  0  0  0  0
  8  9  1  0  0  0  0
  8 28  1  0  0  0  0
  8 29  1  0  0  0  0
  9 21  1  0  0  0  0
  9 10  1  0  0  0  0
 10 30  1  0  0  0  0
 11 12  1  0  0  0  0
 11 13  1  0  0  0  0
 11 14  1  0  0  0  0
 14 19  1  0  0  0  0
 14 15  2  0  0  0  0
 15 16  1  0  0  0  0
 15 31  1  0  0  0  0
 16 17  2  0  0  0  0
 16 32  1  0  0  0  0
 17 18  1  0  0  0  0
 17 33  1  0  0  0  0
 18 19  2  0  0  0  0
 18 34  1  0  0  0  0
M  CHG  1   3  -1
M  END
> <s_m_source_file>
AV-unprocessed.smi

> <i_m_source_file_index>
2768

> <i_lp_mmshare_version>
43012

> <i_f3d_flags>
0

> <s_epik_input>
bjFbY0hdW2NIXVtjSF1bY0hdYzFDKEYpKEYpQyg9TylbTkhdW0NAQEhdMltDSDJdW0NIMl1bQ0gyXVtDSDJdW0NASF0yW09IXQ==

> <s_epik_cmdline>
J2VwaWtfcHl0aG9uJywgJy1waCcsICc3LjAnLCAnLXRuJywgJzgnLCAnLW1hJywgJzIwMCcsICctbWV0YWxfYmluZGluZycsICctaW1hZScsICc8aW5maWxlLm1hZT4nLCAnLW9tYWUnLCAnPG91dGZpbGUubWFlPic=

> <r_lp_tautomer_probability>
1

> <r_epik_Ionization_Penalty>
5.70553

> <r_epik_Ionization_Penalty_Charging>
5.70553

> <r_epik_Ionization_Penalty_Neutral>
5.5493e-06

> <r_epik_State_Penalty>
5.70549

> <r_epik_Charging_Adjusted_Penalty>
11.411

> <i_epik_Tot_Q>
-1

> <i_epik_Tot_abs_Q>
1

> <r_epik_Metal_State_Penalty>
1.6859

> <b_epik_Metal_Only>
1

> <s_lp_Force_Field>
OPLS_2005

> <r_lp_Energy>
26.6713

> <b_lp_Chiralities_Consistent>
1

> <s_lp_Variant>
AV-unprocessed.smi:2768-5

> <Gold.Version>
5.8.1

> <Gold.Id.Protein>
6NUR|6NUR_protein|mol2

> <Gold.PLP.Fitness>
49.5299

> <Gold.PLP.PLP>
-39.8382

> <Gold.PLP.part.hbond>
-3.0000

> <Gold.PLP.part.metal>
0.0000

> <Gold.PLP.part.buried>
-3.0385

> <Gold.PLP.part.nonpolar>
-33.3081

> <Gold.PLP.part.repulsive>
0.1238

> <Gold.PLP.ligand.clash>
0.0000

> <Gold.PLP.ligand.torsion>
0.2957

> <Gold.PLP.Chemscore.Hbond>
2.4177

> <Gold.PLP.Chemscore.CHOScore>
1.0000

> <Gold.PLP.Chemscore.Metal>
0.0000

> <Gold.Chemscore.Hbonds>
donor molecule, donor type, donor heavy atom, donor atom, acceptor molecule, acceptor atom, score
      L1  H    10    30       P1  8028  1.00
      P1  H  7989  7998       L1    19  0.46
      P1  H  7997  8008       L1     1  1.00
      L1  C    18    34       P1  8028  1.00

> <Gold.PLP.Chemscore.Internal.Correction>
0.0301

> <Gold.Rescore>
     Score         DG    S(hbond)    S(metal)    S(lipo)     H(rot)  DE(clash)    DE(int)     intcor
     15.46     -19.39       2.36        0.00      94.14       1.95       0.72       3.20       ----

> <Gold.Chemscore.Fitness>
15.4599

> <Gold.Chemscore.DG>
-19.3870

> <Gold.Chemscore.ZeroCoef>
-5.4800

> <Gold.Chemscore.Hbond>
2.3607

> <Gold.Chemscore.Metal>
0.0000

> <Gold.Chemscore.Lipo>
94.1442

> <Gold.Chemscore.Internal_Hbond>
0.0000

> <Gold.Chemscore.DEClash>
0.7247

> <Gold.Chemscore.DEInternal>
3.2023

> <Gold.Chemscore.Rot>
1.9503

> <Gold.Chemscore.Internal.Correction>
   9.000000E+99

> <Gold.Chemscore.Hbonds>
donor molecule, donor type, donor heavy atom, donor atom, acceptor molecule, acceptor atom, score
      L1  H    10    30       P1  8028  0.99
      P1  H  7989  7998       L1    19  0.10
      P1  H  7997  8008       L1     1  1.00

> <Gold.Chemscore.Hbond.Weighted>
-7.8849

> <Gold.Chemscore.Metal.Weighted>
-0.0000

> <Gold.Chemscore.Lipo.Weighted>
-11.0149

> <Gold.Chemscore.Internal_Hbond.Weighted>
0.0000

> <Gold.Chemscore.DEClash.Weighted>
0.7247

> <Gold.Chemscore.DEInternal.Weighted>
3.2023

> <Gold.Chemscore.Rot.Weighted>
4.9928

> <Gold.Chemscore.Internal.Correction.Weighted>
   9.000000E+99

> <Gold.Protein.RotatedTorsions>
[ 6907 6896 6895 6894 ] final   26.81 input  -60.11 | X-H torsion
[ 7974 7965 7964 7962 ] final  -39.19 input  175.53 | X-H torsion
[ 8008 7997 7996 7995 ] final  -22.39 input   59.86 | X-H torsion
[ 10167 10162 10161 10158 ] final  127.46 input  -65.29 | X-H torsion
[ 10718 10713 10712 10709 ] final -136.71 input   66.30 | X-H torsion
[ 10763 10752 10751 10750 ] final -132.03 input  -60.55 | X-H torsion
[ 11005 11000 10999 10996 ] final  -86.99 input  -57.11 | X-H torsion

> <Gold.Protein.ActiveResidues>
 VAL166  LYS551  ARG553  GLY616  TRP617  ASP618  TYR619  PRO620  LYS621  CYS622 
 ASP623  PHE694  ASN695  SER759  ASP760  ASP761  ALA762  ILE779  LEU786  VAL792 
 PHE793  MET794  SER795  GLU796  ALA797  LYS798  CYS799  TRP800  GLU811  SER814 

> <Gold.Protein.RotatedAtoms>
  151.9930  134.9969  160.0562 H   0  0  0  0  0  0  0  0  0  0  0  0  # atno 6907 bound_to 6896
  152.1590  133.4565  159.4860 H   0  0  0  0  0  0  0  0  0  0  0  0  # atno 6908 bound_to 6896
  150.6885  134.2013  159.4366 H   0  0  0  0  0  0  0  0  0  0  0  0  # atno 6909 bound_to 6896
  146.0418  140.6598  142.9083 H   0  0  0  0  0  0  0  0  0  0  0  0  # atno 7974 bound_to 7965
  154.4647  140.2009  156.0150 H   0  0  0  0  0  0  0  0  0  0  0  0  # atno 8008 bound_to 7997
  156.0905  140.3258  155.7781 H   0  0  0  0  0  0  0  0  0  0  0  0  # atno 8009 bound_to 7997
  155.4964  140.0550  157.2936 H   0  0  0  0  0  0  0  0  0  0  0  0  # atno 8010 bound_to 7997
  139.5577  144.6860  151.4134 H   0  0  0  0  0  0  0  0  0  0  0  0  # atno 10167 bound_to 10162
  156.2800  130.7315  151.1310 H   0  0  0  0  0  0  0  0  0  0  0  0  # atno 10718 bound_to 10713
  154.8746  135.3811  154.4343 H   0  0  0  0  0  0  0  0  0  0  0  0  # atno 10763 bound_to 10752
  153.5034  135.7030  153.5824 H   0  0  0  0  0  0  0  0  0  0  0  0  # atno 10764 bound_to 10752
  153.4146  135.3916  155.2039 H   0  0  0  0  0  0  0  0  0  0  0  0  # atno 10765 bound_to 10752
  141.1623  133.7485  156.9241 H   0  0  0  0  0  0  0  0  0  0  0  0  # atno 11005 bound_to 11000
  144.7078  140.3922  143.7104 LP  0  0  0  0  0  0  0  0  0  0  0  0  # atno 17320 bound_to 7965
  145.6871  139.1631  143.2668 LP  0  0  0  0  0  0  0  0  0  0  0  0  # atno 17321 bound_to 7965
  140.6852  143.7989  150.7176 LP  0  0  0  0  0  0  0  0  0  0  0  0  # atno 17342 bound_to 10162
  140.1455  143.4403  152.2166 LP  0  0  0  0  0  0  0  0  0  0  0  0  # atno 17343 bound_to 10162
  157.7311  131.0610  150.5692 LP  0  0  0  0  0  0  0  0  0  0  0  0  # atno 17370 bound_to 10713
  156.5797  130.4301  149.5983 LP  0  0  0  0  0  0  0  0  0  0  0  0  # atno 17371 bound_to 10713
  140.1431  134.9280  157.2493 LP  0  0  0  0  0  0  0  0  0  0  0  0  # atno 17394 bound_to 11000
  140.2812  134.3347  155.7342 LP  0  0  0  0  0  0  0  0  0  0  0  0  # atno 17395 bound_to 11000

$$$$
