AV-unprocessed.smi:798|AV-procd|sdf|3774|dock7
  -GOLD-   22720 1203D 1   1.00000     0.00000
 Structure written by MMmdl.
 34 36  0  0  0  0  0  0  0  0  1 V2000
  147.0602  133.6218  155.1998 O   0  0  0  0  0  0  0  0  0  0  0  0
  147.5386  134.2779  154.2742 C   0  0  0  0  0  0  0  0  0  0  0  0
  148.6266  135.0631  154.3599 N   0  0  0  0  0  0  0  0  0  0  0  0
  149.4461  135.3112  155.4926 C   0  0  0  0  0  0  0  0  0  0  0  0
  149.2477  134.7465  156.6939 N   0  0  0  0  0  0  0  0  0  0  0  0
  150.1920  135.1600  157.6248 N   0  0  0  0  0  0  0  0  0  0  0  0
  151.0637  136.0194  157.0897 C   0  0  0  0  0  0  0  0  0  0  0  0
  150.8158  136.4089  155.3965 S   0  0  0  0  0  0  0  0  0  0  0  0
  147.0278  134.2961  153.0352 N   0  0  0  0  0  0  0  0  0  0  0  0
  145.8622  133.5360  152.5897 C   0  0  1  0  0  0  0  0  0  0  0  0
  144.7730  134.4868  152.0456 C   0  0  2  0  0  0  0  0  0  0  0  0
  143.4433  133.7166  151.9602 C   0  0  0  0  0  0  0  0  0  0  0  0
  143.6841  132.7696  150.7696 C   0  0  0  0  0  0  0  0  0  0  0  0
  145.1227  133.1209  150.3321 C   0  0  1  0  0  0  0  0  0  0  0  0
  145.1427  134.6251  150.5714 C   0  0  0  0  0  0  0  0  0  0  0  0
  146.1740  132.6416  151.3617 C   0  0  2  0  0  0  0  0  0  0  0  0
  146.1668  131.1263  151.6419 C   0  0  0  0  0  0  0  0  0  0  0  0
  147.2736  130.7751  152.4441 O   0  0  0  0  0  0  0  0  0  0  0  0
  148.9024  135.5388  153.5139 H   0  0  0  0  0  0  0  0  0  0  0  0
  151.8586  136.4270  157.6964 H   0  0  0  0  0  0  0  0  0  0  0  0
  147.4865  134.8667  152.3404 H   0  0  0  0  0  0  0  0  0  0  0  0
  145.4602  132.9537  153.4215 H   0  0  0  0  0  0  0  0  0  0  0  0
  144.6890  135.4270  152.5918 H   0  0  0  0  0  0  0  0  0  0  0  0
  143.2095  133.1808  152.8809 H   0  0  0  0  0  0  0  0  0  0  0  0
  142.6150  134.3940  151.7491 H   0  0  0  0  0  0  0  0  0  0  0  0
  143.5565  131.7205  151.0338 H   0  0  0  0  0  0  0  0  0  0  0  0
  142.9791  132.9881  149.9666 H   0  0  0  0  0  0  0  0  0  0  0  0
  145.3513  132.8221  149.3088 H   0  0  0  0  0  0  0  0  0  0  0  0
  144.3977  135.1687  149.9875 H   0  0  0  0  0  0  0  0  0  0  0  0
  146.1219  135.0790  150.4089 H   0  0  0  0  0  0  0  0  0  0  0  0
  147.1540  132.9016  150.9556 H   0  0  0  0  0  0  0  0  0  0  0  0
  145.2531  130.8145  152.1474 H   0  0  0  0  0  0  0  0  0  0  0  0
  146.2310  130.5679  150.7078 H   0  0  0  0  0  0  0  0  0  0  0  0
  148.0087  130.5889  151.8803 H   0  0  0  0  0  0  0  0  0  0  0  0
  1  2  2  0  0  0  0
  2  3  1  0  0  0  0
  2  9  1  0  0  0  0
  3  4  1  0  0  0  0
  3 19  1  0  0  0  0
  4  8  1  0  0  0  0
  4  5  2  0  0  0  0
  5  6  1  0  0  0  0
  6  7  2  0  0  0  0
  7  8  1  0  0  0  0
  7 20  1  0  0  0  0
  9 10  1  0  0  0  0
  9 21  1  0  0  0  0
 10 16  1  0  0  0  0
 10 11  1  0  0  0  0
 10 22  1  0  0  0  0
 11 15  1  0  0  0  0
 11 12  1  0  0  0  0
 11 23  1  0  0  0  0
 12 13  1  0  0  0  0
 12 24  1  0  0  0  0
 12 25  1  0  0  0  0
 13 14  1  0  0  0  0
 13 26  1  0  0  0  0
 13 27  1  0  0  0  0
 14 15  1  0  0  0  0
 14 16  1  0  0  0  0
 14 28  1  0  0  0  0
 15 29  1  0  0  0  0
 15 30  1  0  0  0  0
 16 17  1  0  0  0  0
 16 31  1  0  0  0  0
 17 18  1  0  0  0  0
 17 32  1  0  0  0  0
 17 33  1  0  0  0  0
 18 34  1  0  0  0  0
M  END
> <s_m_source_file>
AV-unprocessed.smi

> <i_m_source_file_index>
798

> <i_lp_mmshare_version>
43012

> <i_f3d_flags>
0

> <s_epik_input>
W0NIMl0xW0NIMl1bQ0BASF0oW0NIMl0yKVtDQEBIXShbQ0gyXVtPSF0pW0NAQEhdKFtDQEhdMTIpW05IXUMoPU8pW05IXWMzbm5bY0hdczM=

> <s_epik_cmdline>
J2VwaWtfcHl0aG9uJywgJy1waCcsICc3LjAnLCAnLXRuJywgJzgnLCAnLW1hJywgJzIwMCcsICctbWV0YWxfYmluZGluZycsICctaW1hZScsICc8aW5maWxlLm1hZT4nLCAnLW9tYWUnLCAnPG91dGZpbGUubWFlPic=

> <r_lp_tautomer_probability>
1

> <r_epik_Ionization_Penalty>
0.000329046

> <r_epik_Ionization_Penalty_Charging>
0

> <r_epik_Ionization_Penalty_Neutral>
0.000329046

> <r_epik_State_Penalty>
-0

> <r_epik_Charging_Adjusted_Penalty>
0

> <i_epik_Tot_Q>
0

> <i_epik_Tot_abs_Q>
0

> <r_epik_Metal_State_Penalty>
0.173433

> <b_epik_Metal_Only>
0

> <s_lp_Force_Field>
OPLS_2005

> <r_lp_Energy>
48.4277

> <b_lp_Chiralities_Consistent>
1

> <s_lp_Variant>
AV-unprocessed.smi:798-6

> <Gold.Version>
5.8.1

> <Gold.Id.Protein>
6NUR|6NUR_protein|mol2

> <Gold.PLP.Fitness>
36.5860

> <Gold.PLP.PLP>
-25.5301

> <Gold.PLP.part.hbond>
-4.0000

> <Gold.PLP.part.metal>
0.0000

> <Gold.PLP.part.buried>
-3.0246

> <Gold.PLP.part.nonpolar>
-18.9433

> <Gold.PLP.part.repulsive>
0.0265

> <Gold.PLP.ligand.clash>
0.0000

> <Gold.PLP.ligand.torsion>
0.0528

> <Gold.PLP.Chemscore.Hbond>
3.7137

> <Gold.PLP.Chemscore.CHOScore>
0.0000

> <Gold.PLP.Chemscore.Metal>
0.0000

> <Gold.Chemscore.Hbonds>
donor molecule, donor type, donor heavy atom, donor atom, acceptor molecule, acceptor atom, score
      L1  H     3    19       P1  7948  1.00
      L1  H     9    21       P1  7948  1.00
      L1  H    18    34       P1 10747  1.00
      P1  H  6896  6909       L1     6  0.70

> <Gold.PLP.Chemscore.Internal.Correction>
0.0205

> <Gold.Rescore>
     Score         DG    S(hbond)    S(metal)    S(lipo)     H(rot)  DE(clash)    DE(int)     intcor
     17.55     -19.08       3.48        0.00      59.26       1.94       0.19       1.34       ----

> <Gold.Chemscore.Fitness>
17.5489

> <Gold.Chemscore.DG>
-19.0761

> <Gold.Chemscore.ZeroCoef>
-5.4800

> <Gold.Chemscore.Hbond>
3.4848

> <Gold.Chemscore.Metal>
0.0000

> <Gold.Chemscore.Lipo>
59.2638

> <Gold.Chemscore.Internal_Hbond>
0.0000

> <Gold.Chemscore.DEClash>
0.1913

> <Gold.Chemscore.DEInternal>
1.3359

> <Gold.Chemscore.Rot>
1.9442

> <Gold.Chemscore.Internal.Correction>
   9.000000E+99

> <Gold.Chemscore.Hbonds>
donor molecule, donor type, donor heavy atom, donor atom, acceptor molecule, acceptor atom, score
      L1  H     3    19       P1  7948  0.85
      L1  H     9    21       P1  7948  0.83
      L1  H    18    34       P1 10747  0.96
      P1  H  6896  6909       L1     6  0.62

> <Gold.Chemscore.Hbond.Weighted>
-11.6393

> <Gold.Chemscore.Metal.Weighted>
-0.0000

> <Gold.Chemscore.Lipo.Weighted>
-6.9339

> <Gold.Chemscore.Internal_Hbond.Weighted>
0.0000

> <Gold.Chemscore.DEClash.Weighted>
0.1913

> <Gold.Chemscore.DEInternal.Weighted>
1.3359

> <Gold.Chemscore.Rot.Weighted>
4.9771

> <Gold.Chemscore.Internal.Correction.Weighted>
   9.000000E+99

> <Gold.Protein.RotatedTorsions>
[ 6907 6896 6895 6894 ] final   36.38 input  -60.11 | X-H torsion
[ 7974 7965 7964 7962 ] final   54.09 input  175.53 | X-H torsion
[ 8008 7997 7996 7995 ] final  -82.08 input   59.86 | X-H torsion
[ 10167 10162 10161 10158 ] final  -96.28 input  -65.29 | X-H torsion
[ 10718 10713 10712 10709 ] final -115.77 input   66.30 | X-H torsion
[ 10763 10752 10751 10750 ] final   74.06 input  -60.55 | X-H torsion
[ 11005 11000 10999 10996 ] final  155.77 input  -57.11 | X-H torsion

> <Gold.Protein.ActiveResidues>
 VAL166  LYS551  ARG553  GLY616  TRP617  ASP618  TYR619  PRO620  LYS621  CYS622 
 ASP623  PHE694  ASN695  SER759  ASP760  ASP761  ALA762  ILE779  LEU786  VAL792 
 PHE793  MET794  SER795  GLU796  ALA797  LYS798  CYS799  TRP800  GLU811  SER814 

> <Gold.Protein.RotatedAtoms>
  152.1290  134.9149  160.0559 H   0  0  0  0  0  0  0  0  0  0  0  0  # atno 6907 bound_to 6896
  152.0261  133.3913  159.4286 H   0  0  0  0  0  0  0  0  0  0  0  0  # atno 6908 bound_to 6896
  150.6855  134.3494  159.4946 H   0  0  0  0  0  0  0  0  0  0  0  0  # atno 6909 bound_to 6896
  145.9644  139.4090  143.0228 H   0  0  0  0  0  0  0  0  0  0  0  0  # atno 7974 bound_to 7965
  154.6049  140.0638  156.9418 H   0  0  0  0  0  0  0  0  0  0  0  0  # atno 8008 bound_to 7997
  155.2069  140.3319  155.4316 H   0  0  0  0  0  0  0  0  0  0  0  0  # atno 8009 bound_to 7997
  156.2341  140.1855  156.7148 H   0  0  0  0  0  0  0  0  0  0  0  0  # atno 8010 bound_to 7997
  140.2954  143.3195  152.0303 H   0  0  0  0  0  0  0  0  0  0  0  0  # atno 10167 bound_to 10162
  156.0918  130.6099  150.8948 H   0  0  0  0  0  0  0  0  0  0  0  0  # atno 10718 bound_to 10713
  153.0562  135.5040  154.7986 H   0  0  0  0  0  0  0  0  0  0  0  0  # atno 10763 bound_to 10752
  154.6810  135.2968  154.9615 H   0  0  0  0  0  0  0  0  0  0  0  0  # atno 10764 bound_to 10752
  154.0401  135.6718  153.4842 H   0  0  0  0  0  0  0  0  0  0  0  0  # atno 10765 bound_to 10752
  140.1612  134.8608  157.2577 H   0  0  0  0  0  0  0  0  0  0  0  0  # atno 11005 bound_to 11000
  145.7994  140.9778  143.1007 LP  0  0  0  0  0  0  0  0  0  0  0  0  # atno 17320 bound_to 7965
  144.6822  139.9782  143.7483 LP  0  0  0  0  0  0  0  0  0  0  0  0  # atno 17321 bound_to 7965
  139.4928  144.6495  151.6707 LP  0  0  0  0  0  0  0  0  0  0  0  0  # atno 17342 bound_to 10162
  140.5697  144.0130  150.6210 LP  0  0  0  0  0  0  0  0  0  0  0  0  # atno 17343 bound_to 10162
  157.6069  131.0938  150.8864 LP  0  0  0  0  0  0  0  0  0  0  0  0  # atno 17370 bound_to 10713
  156.9011  130.5247  149.5283 LP  0  0  0  0  0  0  0  0  0  0  0  0  # atno 17371 bound_to 10713
  140.2487  134.3708  155.7451 LP  0  0  0  0  0  0  0  0  0  0  0  0  # atno 17394 bound_to 11000
  141.2209  133.7305  156.8902 LP  0  0  0  0  0  0  0  0  0  0  0  0  # atno 17395 bound_to 11000

$$$$
