AV-unprocessed.smi:3172|AV-procd|sdf|12116|dock7
  -GOLD-   2272017553D 1   1.00000     0.00000
 Structure written by MMmdl.
 43 44  0  0  0  0  0  0  0  0  2 V2000
  153.6796  136.7137  157.2699 C   0  0  0  0  0  0  0  0  0  0  0  0
  152.7637  137.8329  156.8821 C   0  0  0  0  0  0  0  0  0  0  0  0
  152.8934  138.4829  155.6574 N   0  0  0  0  0  0  0  0  0  0  0  0
  151.9271  139.3896  155.6766 C   0  0  0  0  0  0  0  0  0  0  0  0
  151.1907  139.3953  156.7967 N   0  0  0  0  0  0  0  0  0  0  0  0
  150.0758  140.2796  157.0936 C   0  0  0  0  0  0  0  0  0  0  0  0
  150.1820  141.6455  156.3851 C   0  0  1  0  0  0  0  0  0  0  0  0
  149.4656  141.6736  155.0240 C   0  0  0  0  0  0  0  0  0  0  0  0
  149.6327  142.7007  157.2662 N   0  3  0  0  0  0  0  0  0  0  0  0
  150.5348  143.1903  158.3332 C   0  0  0  0  0  0  0  0  0  0  0  0
  149.7402  144.0608  159.3253 C   0  0  0  0  0  0  0  0  0  0  0  0
  150.6409  144.6129  160.4417 C   0  0  0  0  0  0  0  0  0  0  0  0
  151.8262  145.3989  159.8608 C   0  0  0  0  0  0  0  0  0  0  0  0
  152.6273  144.5398  158.8703 C   0  0  0  0  0  0  0  0  0  0  0  0
  151.7258  143.9855  157.7549 C   0  0  0  0  0  0  0  0  0  0  0  0
  151.7156  138.3786  157.5929 C   0  0  0  0  0  0  0  0  0  0  0  0
  151.1823  138.0210  158.9433 C   0  0  0  0  0  0  0  0  0  0  0  0
  153.1286  135.7809  157.3914 H   0  0  0  0  0  0  0  0  0  0  0  0
  154.1825  136.9274  158.2135 H   0  0  0  0  0  0  0  0  0  0  0  0
  154.4504  136.5451  156.5169 H   0  0  0  0  0  0  0  0  0  0  0  0
  151.7551  140.0720  154.8568 H   0  0  0  0  0  0  0  0  0  0  0  0
  149.1519  139.7767  156.8028 H   0  0  0  0  0  0  0  0  0  0  0  0
  150.0228  140.4150  158.1745 H   0  0  0  0  0  0  0  0  0  0  0  0
  151.2389  141.8454  156.2071 H   0  0  0  0  0  0  0  0  0  0  0  0
  149.9082  140.9644  154.3241 H   0  0  0  0  0  0  0  0  0  0  0  0
  149.5294  142.6596  154.5630 H   0  0  0  0  0  0  0  0  0  0  0  0
  148.4090  141.4244  155.1271 H   0  0  0  0  0  0  0  0  0  0  0  0
  149.3355  143.4826  156.7000 H   0  0  0  0  0  0  0  0  0  0  0  0
  150.9142  142.3245  158.8788 H   0  0  0  0  0  0  0  0  0  0  0  0
  149.2710  144.8919  158.7964 H   0  0  0  0  0  0  0  0  0  0  0  0
  148.9298  143.4791  159.7664 H   0  0  0  0  0  0  0  0  0  0  0  0
  150.0600  145.2533  161.1058 H   0  0  0  0  0  0  0  0  0  0  0  0
  151.0125  143.7898  161.0537 H   0  0  0  0  0  0  0  0  0  0  0  0
  151.4600  146.2940  159.3562 H   0  0  0  0  0  0  0  0  0  0  0  0
  152.4759  145.7416  160.6665 H   0  0  0  0  0  0  0  0  0  0  0  0
  153.4357  145.1293  158.4369 H   0  0  0  0  0  0  0  0  0  0  0  0
  153.0994  143.7132  159.4029 H   0  0  0  0  0  0  0  0  0  0  0  0
  152.3243  143.3562  157.0959 H   0  0  0  0  0  0  0  0  0  0  0  0
  151.3578  144.8107  157.1432 H   0  0  0  0  0  0  0  0  0  0  0  0
  151.6175  137.0877  159.3009 H   0  0  0  0  0  0  0  0  0  0  0  0
  150.1003  137.8912  158.9173 H   0  0  0  0  0  0  0  0  0  0  0  0
  151.4165  138.7964  159.6725 H   0  0  0  0  0  0  0  0  0  0  0  0
  148.8180  142.3133  157.7203 H   0  0  0  0  0  0  0  0  0  0  0  0
  1  2  1  0  0  0  0
  1 18  1  0  0  0  0
  1 19  1  0  0  0  0
  1 20  1  0  0  0  0
  2 16  2  0  0  0  0
  2  3  1  0  0  0  0
  3  4  2  0  0  0  0
  4  5  1  0  0  0  0
  4 21  1  0  0  0  0
  5  6  1  0  0  0  0
  5 16  1  0  0  0  0
  6  7  1  0  0  0  0
  6 22  1  0  0  0  0
  6 23  1  0  0  0  0
  7  8  1  0  0  0  0
  7  9  1  0  0  0  0
  7 24  1  0  0  0  0
  8 25  1  0  0  0  0
  8 26  1  0  0  0  0
  8 27  1  0  0  0  0
  9 10  1  0  0  0  0
  9 28  1  0  0  0  0
  9 43  1  0  0  0  0
 10 15  1  0  0  0  0
 10 11  1  0  0  0  0
 10 29  1  0  0  0  0
 11 12  1  0  0  0  0
 11 30  1  0  0  0  0
 11 31  1  0  0  0  0
 12 13  1  0  0  0  0
 12 32  1  0  0  0  0
 12 33  1  0  0  0  0
 13 14  1  0  0  0  0
 13 34  1  0  0  0  0
 13 35  1  0  0  0  0
 14 15  1  0  0  0  0
 14 36  1  0  0  0  0
 14 37  1  0  0  0  0
 15 38  1  0  0  0  0
 15 39  1  0  0  0  0
 16 17  1  0  0  0  0
 17 40  1  0  0  0  0
 17 41  1  0  0  0  0
 17 42  1  0  0  0  0
M  CHG  1   9   1
M  END
> <s_m_source_file>
AV-unprocessed.smi

> <i_m_source_file_index>
3172

> <i_lp_mmshare_version>
43012

> <i_f3d_flags>
0

> <s_epik_input>
W0NIM11jMW5bY0hdbihjMVtDSDNdKVtDSDJdW0NASF0oW0NIM10pW05IXVtDSF0yW0NIMl1bQ0gyXVtDSDJdW0NIMl1bQ0gyXTI=

> <s_epik_cmdline>
J2VwaWtfcHl0aG9uJywgJy1waCcsICc3LjAnLCAnLXRuJywgJzgnLCAnLW1hJywgJzIwMCcsICctbWV0YWxfYmluZGluZycsICctaW1hZScsICc8aW5maWxlLm1hZT4nLCAnLW9tYWUnLCAnPG91dGZpbGUubWFlPic=

> <r_lp_tautomer_probability>
1

> <r_epik_Ionization_Penalty>
0.328572

> <r_epik_Ionization_Penalty_Charging>
0.328572

> <r_epik_Ionization_Penalty_Neutral>
3.58496e-13

> <r_epik_State_Penalty>
0.596179

> <r_epik_Charging_Adjusted_Penalty>
0.924751

> <i_epik_Tot_Q>
1

> <i_epik_Tot_abs_Q>
1

> <r_epik_Metal_State_Penalty>
0.00102252

> <b_epik_Metal_Only>
0

> <s_lp_Force_Field>
OPLS_2005

> <r_lp_Energy>
17.121

> <b_lp_Chiralities_Consistent>
1

> <s_lp_Variant>
AV-unprocessed.smi:3172-4

> <Gold.Version>
5.8.1

> <Gold.Id.Protein>
6NUR|6NUR_protein|mol2

> <Gold.PLP.Fitness>
42.6521

> <Gold.PLP.PLP>
-36.8444

> <Gold.PLP.part.hbond>
-2.0000

> <Gold.PLP.part.metal>
0.0000

> <Gold.PLP.part.buried>
-3.5906

> <Gold.PLP.part.nonpolar>
-32.0651

> <Gold.PLP.part.repulsive>
0.0160

> <Gold.PLP.ligand.clash>
0.0000

> <Gold.PLP.ligand.torsion>
1.1041

> <Gold.PLP.Chemscore.Hbond>
2.6608

> <Gold.PLP.Chemscore.CHOScore>
0.0000

> <Gold.PLP.Chemscore.Metal>
0.0000

> <Gold.Chemscore.Hbonds>
donor molecule, donor type, donor heavy atom, donor atom, acceptor molecule, acceptor atom, score
      L1  H     9    28       P1  8028  2.00
      P1  H  7997  8008       L1     3  0.13

> <Gold.PLP.Chemscore.Internal.Correction>
0.0335

> <Gold.Rescore>
     Score         DG    S(hbond)    S(metal)    S(lipo)     H(rot)  DE(clash)    DE(int)     intcor
     16.28     -17.36       0.99        0.00     106.09       1.50       0.14       0.93       ----

> <Gold.Chemscore.Fitness>
16.2829

> <Gold.Chemscore.DG>
-17.3563

> <Gold.Chemscore.ZeroCoef>
-5.4800

> <Gold.Chemscore.Hbond>
0.9890

> <Gold.Chemscore.Metal>
0.0000

> <Gold.Chemscore.Lipo>
106.0915

> <Gold.Chemscore.Internal_Hbond>
0.0000

> <Gold.Chemscore.DEClash>
0.1442

> <Gold.Chemscore.DEInternal>
0.9293

> <Gold.Chemscore.Rot>
1.4999

> <Gold.Chemscore.Internal.Correction>
   9.000000E+99

> <Gold.Chemscore.Hbonds>
donor molecule, donor type, donor heavy atom, donor atom, acceptor molecule, acceptor atom, score
      L1  H     9    28       P1  8028  0.98

> <Gold.Chemscore.Hbond.Weighted>
-3.3033

> <Gold.Chemscore.Metal.Weighted>
-0.0000

> <Gold.Chemscore.Lipo.Weighted>
-12.4127

> <Gold.Chemscore.Internal_Hbond.Weighted>
0.0000

> <Gold.Chemscore.DEClash.Weighted>
0.1442

> <Gold.Chemscore.DEInternal.Weighted>
0.9293

> <Gold.Chemscore.Rot.Weighted>
3.8397

> <Gold.Chemscore.Internal.Correction.Weighted>
   9.000000E+99

> <Gold.Protein.RotatedTorsions>
[ 6907 6896 6895 6894 ] final   90.55 input  -60.11 | X-H torsion
[ 7974 7965 7964 7962 ] final -109.55 input  175.53 | X-H torsion
[ 8008 7997 7996 7995 ] final  -15.31 input   59.86 | X-H torsion
[ 10167 10162 10161 10158 ] final   34.36 input  -65.29 | X-H torsion
[ 10718 10713 10712 10709 ] final    6.30 input   66.30 | X-H torsion
[ 10763 10752 10751 10750 ] final  -49.55 input  -60.55 | X-H torsion
[ 11005 11000 10999 10996 ] final   64.99 input  -57.11 | X-H torsion

> <Gold.Protein.ActiveResidues>
 VAL166  LYS551  ARG553  GLY616  TRP617  ASP618  TYR619  PRO620  LYS621  CYS622 
 ASP623  PHE694  ASN695  SER759  ASP760  ASP761  ALA762  ILE779  LEU786  VAL792 
 PHE793  MET794  SER795  GLU796  ALA797  LYS798  CYS799  TRP800  GLU811  SER814 

> <Gold.Protein.RotatedAtoms>
  152.5445  134.1794  159.8629 H   0  0  0  0  0  0  0  0  0  0  0  0  # atno 6907 bound_to 6896
  151.1798  133.4725  159.2601 H   0  0  0  0  0  0  0  0  0  0  0  0  # atno 6908 bound_to 6896
  151.1190  135.0080  159.8585 H   0  0  0  0  0  0  0  0  0  0  0  0  # atno 6909 bound_to 6896
  145.1791  140.8962  143.3490 H   0  0  0  0  0  0  0  0  0  0  0  0  # atno 7974 bound_to 7965
  154.5140  140.2200  155.9101 H   0  0  0  0  0  0  0  0  0  0  0  0  # atno 8008 bound_to 7997
  156.1586  140.3147  155.8734 H   0  0  0  0  0  0  0  0  0  0  0  0  # atno 8009 bound_to 7997
  155.3796  140.0471  157.3034 H   0  0  0  0  0  0  0  0  0  0  0  0  # atno 8010 bound_to 7997
  140.4322  144.1308  150.6161 H   0  0  0  0  0  0  0  0  0  0  0  0  # atno 10167 bound_to 10162
  156.9201  130.5788  149.5648 H   0  0  0  0  0  0  0  0  0  0  0  0  # atno 10718 bound_to 10713
  154.0960  135.6570  153.4860 H   0  0  0  0  0  0  0  0  0  0  0  0  # atno 10763 bound_to 10752
  153.0305  135.5213  154.7334 H   0  0  0  0  0  0  0  0  0  0  0  0  # atno 10764 bound_to 10752
  154.6471  135.2996  155.0001 H   0  0  0  0  0  0  0  0  0  0  0  0  # atno 10765 bound_to 10752
  139.9923  134.6572  156.0069 H   0  0  0  0  0  0  0  0  0  0  0  0  # atno 11005 bound_to 11000
  145.0154  139.3471  143.6099 LP  0  0  0  0  0  0  0  0  0  0  0  0  # atno 17320 bound_to 7965
  146.3456  139.9434  142.8738 LP  0  0  0  0  0  0  0  0  0  0  0  0  # atno 17321 bound_to 7965
  140.4414  143.2525  151.9468 LP  0  0  0  0  0  0  0  0  0  0  0  0  # atno 17342 bound_to 10162
  139.4785  144.5650  151.8178 LP  0  0  0  0  0  0  0  0  0  0  0  0  # atno 17343 bound_to 10162
  156.0495  130.5566  150.8957 LP  0  0  0  0  0  0  0  0  0  0  0  0  # atno 17370 bound_to 10713
  157.5913  131.0944  150.9114 LP  0  0  0  0  0  0  0  0  0  0  0  0  # atno 17371 bound_to 10713
  141.1576  133.6541  156.4212 LP  0  0  0  0  0  0  0  0  0  0  0  0  # atno 17394 bound_to 11000
  140.4884  134.6598  157.5200 LP  0  0  0  0  0  0  0  0  0  0  0  0  # atno 17395 bound_to 11000

$$$$
