AV-unprocessed.smi:3331|AV-procd|sdf|12822|dock5
  -GOLD-   2272019193D 1   1.00000     0.00000
 Structure written by MMmdl.
 47 48  0  0  0  0  0  0  0  0  2 V2000
  151.6324  138.1753  154.7231 C   0  0  0  0  0  0  0  0  0  0  0  0
  150.4761  139.1334  155.0411 C   0  0  1  0  0  0  0  0  0  0  0  0
  150.9757  140.3992  155.7751 C   0  0  0  0  0  0  0  0  0  0  0  0
  149.8637  141.4515  155.9892 C   0  0  2  0  0  0  0  0  0  0  0  0
  148.9195  141.0733  157.1448 C   0  0  0  0  0  0  0  0  0  0  0  0
  149.1164  141.7010  154.6606 C   0  0  0  0  0  0  0  0  0  0  0  0
  148.5988  140.4280  154.1388 N   0  0  0  0  0  0  0  0  0  0  0  0
  147.2965  140.0497  154.0856 C   0  0  0  0  0  0  0  0  0  0  0  0
  146.3883  140.7799  154.4875 O   0  0  0  0  0  0  0  0  0  0  0  0
  146.9113  138.6696  153.5099 C   0  0  1  0  0  0  0  0  0  0  0  0
  147.4986  137.5503  154.3846 C   0  0  0  0  0  0  0  0  0  0  0  0
  145.4415  138.5051  153.4166 N   0  3  0  0  0  0  0  0  0  0  0  0
  144.9907  137.1810  152.9363 C   0  0  0  0  0  0  0  0  0  0  0  0
  145.7157  136.7889  151.6417 C   0  0  0  0  0  0  0  0  0  0  0  0
  145.3422  135.4597  151.1986 N   0  0  0  0  0  0  0  0  0  0  0  0
  146.1316  134.3326  151.1060 C   0  0  0  0  0  0  0  0  0  0  0  0
  145.3426  133.3223  150.6349 C   0  0  0  0  0  0  0  0  0  0  0  0
  144.0711  133.9378  150.4635 C   0  0  0  0  0  0  0  0  0  0  0  0
  144.0745  135.2178  150.8003 N   0  0  0  0  0  0  0  0  0  0  0  0
  149.6963  139.5246  153.7679 C   0  0  0  0  0  0  0  0  0  0  0  0
  152.3574  138.6364  154.0517 H   0  0  0  0  0  0  0  0  0  0  0  0
  151.2679  137.2654  154.2453 H   0  0  0  0  0  0  0  0  0  0  0  0
  152.1589  137.8812  155.6315 H   0  0  0  0  0  0  0  0  0  0  0  0
  149.7910  138.6040  155.7048 H   0  0  0  0  0  0  0  0  0  0  0  0
  151.4324  140.1308  156.7286 H   0  0  0  0  0  0  0  0  0  0  0  0
  151.7700  140.8551  155.1822 H   0  0  0  0  0  0  0  0  0  0  0  0
  150.3477  142.3860  156.2764 H   0  0  0  0  0  0  0  0  0  0  0  0
  148.3935  140.1378  156.9551 H   0  0  0  0  0  0  0  0  0  0  0  0
  148.1696  141.8479  157.3062 H   0  0  0  0  0  0  0  0  0  0  0  0
  149.4721  140.9557  158.0774 H   0  0  0  0  0  0  0  0  0  0  0  0
  148.3610  142.4742  154.7829 H   0  0  0  0  0  0  0  0  0  0  0  0
  149.8119  142.1160  153.9291 H   0  0  0  0  0  0  0  0  0  0  0  0
  147.2892  138.5556  152.4953 H   0  0  0  0  0  0  0  0  0  0  0  0
  148.5845  137.6222  154.4541 H   0  0  0  0  0  0  0  0  0  0  0  0
  147.2645  136.5684  153.9719 H   0  0  0  0  0  0  0  0  0  0  0  0
  147.1003  137.5854  155.3995 H   0  0  0  0  0  0  0  0  0  0  0  0
  145.0520  138.6441  154.3379 H   0  0  0  0  0  0  0  0  0  0  0  0
  145.1757  136.4270  153.7024 H   0  0  0  0  0  0  0  0  0  0  0  0
  143.9130  137.2095  152.7686 H   0  0  0  0  0  0  0  0  0  0  0  0
  145.4889  137.4977  150.8437 H   0  0  0  0  0  0  0  0  0  0  0  0
  146.7961  136.8127  151.7908 H   0  0  0  0  0  0  0  0  0  0  0  0
  147.1764  134.3413  151.3798 H   0  0  0  0  0  0  0  0  0  0  0  0
  145.6303  132.2998  150.4405 H   0  0  0  0  0  0  0  0  0  0  0  0
  143.1529  133.4952  150.1063 H   0  0  0  0  0  0  0  0  0  0  0  0
  150.3561  140.0275  153.0590 H   0  0  0  0  0  0  0  0  0  0  0  0
  149.3489  138.6263  153.2554 H   0  0  0  0  0  0  0  0  0  0  0  0
  145.0797  139.2203  152.8016 H   0  0  0  0  0  0  0  0  0  0  0  0
  1  2  1  0  0  0  0
  1 21  1  0  0  0  0
  1 22  1  0  0  0  0
  1 23  1  0  0  0  0
  2 20  1  0  0  0  0
  2  3  1  0  0  0  0
  2 24  1  0  0  0  0
  3  4  1  0  0  0  0
  3 25  1  0  0  0  0
  3 26  1  0  0  0  0
  4  5  1  0  0  0  0
  4  6  1  0  0  0  0
  4 27  1  0  0  0  0
  5 28  1  0  0  0  0
  5 29  1  0  0  0  0
  5 30  1  0  0  0  0
  6  7  1  0  0  0  0
  6 31  1  0  0  0  0
  6 32  1  0  0  0  0
  7  8  1  0  0  0  0
  7 20  1  0  0  0  0
  8  9  2  0  0  0  0
  8 10  1  0  0  0  0
 10 11  1  0  0  0  0
 10 12  1  0  0  0  0
 10 33  1  0  0  0  0
 11 34  1  0  0  0  0
 11 35  1  0  0  0  0
 11 36  1  0  0  0  0
 12 13  1  0  0  0  0
 12 37  1  0  0  0  0
 12 47  1  0  0  0  0
 13 14  1  0  0  0  0
 13 38  1  0  0  0  0
 13 39  1  0  0  0  0
 14 15  1  0  0  0  0
 14 40  1  0  0  0  0
 14 41  1  0  0  0  0
 15 19  1  0  0  0  0
 15 16  1  0  0  0  0
 16 17  2  0  0  0  0
 16 42  1  0  0  0  0
 17 18  1  0  0  0  0
 17 43  1  0  0  0  0
 18 19  2  0  0  0  0
 18 44  1  0  0  0  0
 20 45  1  0  0  0  0
 20 46  1  0  0  0  0
M  CHG  1  12   1
M  END
> <s_m_source_file>
AV-unprocessed.smi

> <i_m_source_file_index>
3331

> <i_lp_mmshare_version>
43012

> <i_f3d_flags>
0

> <s_epik_input>
W0NIM11bQ0BASF0xW0NIMl1bQ0BASF0oW0NIM10pW0NIMl1OKFtDSDJdMSlDKD1PKVtDQEhdKFtDSDNdKVtOSF1bQ0gyXVtDSDJdbjJbY0hdW2NIXVtjSF1uMg==

> <s_epik_cmdline>
J2VwaWtfcHl0aG9uJywgJy1waCcsICc3LjAnLCAnLXRuJywgJzgnLCAnLW1hJywgJzIwMCcsICctbWV0YWxfYmluZGluZycsICctaW1hZScsICc8aW5maWxlLm1hZT4nLCAnLW9tYWUnLCAnPG91dGZpbGUubWFlPic=

> <r_lp_tautomer_probability>
1

> <r_epik_Ionization_Penalty>
0.189706

> <r_epik_Ionization_Penalty_Charging>
0.189703

> <r_epik_Ionization_Penalty_Neutral>
2.45875e-06

> <r_epik_State_Penalty>
0.179341

> <r_epik_Charging_Adjusted_Penalty>
0.369044

> <i_epik_Tot_Q>
1

> <i_epik_Tot_abs_Q>
1

> <r_epik_Metal_State_Penalty>
0.179578

> <b_epik_Metal_Only>
0

> <s_lp_Force_Field>
OPLS_2005

> <r_lp_Energy>
28.0969

> <b_lp_Chiralities_Consistent>
1

> <s_lp_Variant>
AV-unprocessed.smi:3331-6

> <Gold.Version>
5.8.1

> <Gold.Id.Protein>
6NUR|6NUR_protein|mol2

> <Gold.PLP.Fitness>
44.3623

> <Gold.PLP.PLP>
-32.5234

> <Gold.PLP.part.hbond>
-1.0000

> <Gold.PLP.part.metal>
0.0000

> <Gold.PLP.part.buried>
1.6387

> <Gold.PLP.part.nonpolar>
-33.6615

> <Gold.PLP.part.repulsive>
0.3360

> <Gold.PLP.ligand.clash>
0.0000

> <Gold.PLP.ligand.torsion>
0.1142

> <Gold.PLP.Chemscore.Hbond>
2.0000

> <Gold.PLP.Chemscore.CHOScore>
1.9972

> <Gold.PLP.Chemscore.Metal>
0.0000

> <Gold.Chemscore.Hbonds>
donor molecule, donor type, donor heavy atom, donor atom, acceptor molecule, acceptor atom, score
      L1  H    12    47       P1 10175  1.86
      L1  C    16    42       P1  7948  0.88
      L1  C    18    44       P1 10186  1.00

> <Gold.PLP.Chemscore.Internal.Correction>
0.0757

> <Gold.Rescore>
     Score         DG    S(hbond)    S(metal)    S(lipo)     H(rot)  DE(clash)    DE(int)     intcor
     12.27     -14.42       0.94        0.00      87.29       1.73       1.97       0.19       ----

> <Gold.Chemscore.Fitness>
12.2680

> <Gold.Chemscore.DG>
-14.4245

> <Gold.Chemscore.ZeroCoef>
-5.4800

> <Gold.Chemscore.Hbond>
0.9427

> <Gold.Chemscore.Metal>
0.0000

> <Gold.Chemscore.Lipo>
87.2908

> <Gold.Chemscore.Internal_Hbond>
0.0000

> <Gold.Chemscore.DEClash>
1.9662

> <Gold.Chemscore.DEInternal>
0.1903

> <Gold.Chemscore.Rot>
1.7254

> <Gold.Chemscore.Internal.Correction>
   9.000000E+99

> <Gold.Chemscore.Hbonds>
donor molecule, donor type, donor heavy atom, donor atom, acceptor molecule, acceptor atom, score
      L1  H    12    47       P1 10175  0.91

> <Gold.Chemscore.Hbond.Weighted>
-3.1486

> <Gold.Chemscore.Metal.Weighted>
-0.0000

> <Gold.Chemscore.Lipo.Weighted>
-10.2130

> <Gold.Chemscore.Internal_Hbond.Weighted>
0.0000

> <Gold.Chemscore.DEClash.Weighted>
1.9662

> <Gold.Chemscore.DEInternal.Weighted>
0.1903

> <Gold.Chemscore.Rot.Weighted>
4.4170

> <Gold.Chemscore.Internal.Correction.Weighted>
   9.000000E+99

> <Gold.Protein.RotatedTorsions>
[ 6907 6896 6895 6894 ] final  -15.21 input  -60.11 | X-H torsion
[ 7974 7965 7964 7962 ] final  -44.41 input  175.53 | X-H torsion
[ 8008 7997 7996 7995 ] final  159.12 input   59.86 | X-H torsion
[ 10167 10162 10161 10158 ] final  160.80 input  -65.29 | X-H torsion
[ 10718 10713 10712 10709 ] final   28.95 input   66.30 | X-H torsion
[ 10763 10752 10751 10750 ] final  -28.60 input  -60.55 | X-H torsion
[ 11005 11000 10999 10996 ] final  122.91 input  -57.11 | X-H torsion

> <Gold.Protein.ActiveResidues>
 VAL166  LYS551  ARG553  GLY616  TRP617  ASP618  TYR619  PRO620  LYS621  CYS622 
 ASP623  PHE694  ASN695  SER759  ASP760  ASP761  ALA762  ILE779  LEU786  VAL792 
 PHE793  MET794  SER795  GLU796  ALA797  LYS798  CYS799  TRP800  GLU811  SER814 

> <Gold.Protein.RotatedAtoms>
  151.3274  135.0833  159.9326 H   0  0  0  0  0  0  0  0  0  0  0  0  # atno 6907 bound_to 6896
  152.5242  133.9577  159.7712 H   0  0  0  0  0  0  0  0  0  0  0  0  # atno 6908 bound_to 6896
  150.9910  133.6097  159.2738 H   0  0  0  0  0  0  0  0  0  0  0  0  # atno 6909 bound_to 6896
  145.9923  140.7167  142.9311 H   0  0  0  0  0  0  0  0  0  0  0  0  # atno 7974 bound_to 7965
  156.2259  140.1840  156.7364 H   0  0  0  0  0  0  0  0  0  0  0  0  # atno 8008 bound_to 7997
  154.5940  140.0646  156.9307 H   0  0  0  0  0  0  0  0  0  0  0  0  # atno 8009 bound_to 7997
  155.2287  140.3313  155.4308 H   0  0  0  0  0  0  0  0  0  0  0  0  # atno 8010 bound_to 7997
  139.4843  144.4599  151.8718 H   0  0  0  0  0  0  0  0  0  0  0  0  # atno 10167 bound_to 10162
  157.2402  130.7066  149.6355 H   0  0  0  0  0  0  0  0  0  0  0  0  # atno 10718 bound_to 10713
  153.7510  135.6926  153.4946 H   0  0  0  0  0  0  0  0  0  0  0  0  # atno 10763 bound_to 10752
  153.2003  135.4439  155.0257 H   0  0  0  0  0  0  0  0  0  0  0  0  # atno 10764 bound_to 10752
  154.8187  135.3411  154.7030 H   0  0  0  0  0  0  0  0  0  0  0  0  # atno 10765 bound_to 10752
  139.9289  134.9641  156.8181 H   0  0  0  0  0  0  0  0  0  0  0  0  # atno 11005 bound_to 11000
  144.6893  140.3091  143.7251 LP  0  0  0  0  0  0  0  0  0  0  0  0  # atno 17320 bound_to 7965
  145.7611  139.1825  143.2266 LP  0  0  0  0  0  0  0  0  0  0  0  0  # atno 17321 bound_to 7965
  140.4061  144.2430  150.5890 LP  0  0  0  0  0  0  0  0  0  0  0  0  # atno 17342 bound_to 10162
  140.5011  143.2317  151.8677 LP  0  0  0  0  0  0  0  0  0  0  0  0  # atno 17343 bound_to 10162
  155.9670  130.4460  150.5525 LP  0  0  0  0  0  0  0  0  0  0  0  0  # atno 17370 bound_to 10713
  157.3386  131.0712  151.1805 LP  0  0  0  0  0  0  0  0  0  0  0  0  # atno 17371 bound_to 10713
  140.6257  133.9952  155.7638 LP  0  0  0  0  0  0  0  0  0  0  0  0  # atno 17394 bound_to 11000
  141.0865  133.9982  157.3305 LP  0  0  0  0  0  0  0  0  0  0  0  0  # atno 17395 bound_to 11000

$$$$
