AV-unprocessed.smi:72|AV-procd|sdf|664|dock3
  -GOLD-   2262016563D 1   1.00000     0.00000
 Structure written by MMmdl.
 29 30  0  0  0  0  0  0  0  0  1 V2000
  146.7636  139.9377  151.8877 N   0  0  0  0  0  0  0  0  0  0  0  0
  146.3079  138.7419  151.7685 C   0  0  0  0  0  0  0  0  0  0  0  0
  146.5512  137.8866  150.6832 N   0  0  0  0  0  0  0  0  0  0  0  0
  146.0255  136.7006  150.6948 C   0  0  0  0  0  0  0  0  0  0  0  0
  145.1919  136.2324  151.7932 N   0  0  0  0  0  0  0  0  0  0  0  0
  144.5787  134.8445  151.8090 C   0  0  1  0  0  0  0  0  0  0  0  0
  143.9877  134.5751  150.5678 O   0  0  0  0  0  0  0  0  0  0  0  0
  144.6999  133.5308  149.9148 C   0  0  2  0  0  0  0  0  0  0  0  0
  143.8152  132.8434  148.8593 C   0  0  0  0  0  0  0  0  0  0  0  0
  143.2668  133.7664  147.9411 O   0  0  0  0  0  0  0  0  0  0  0  0
  145.2181  132.6676  151.0655 C   0  0  1  0  0  0  0  0  0  0  0  0
  146.2841  131.8164  150.6878 O   0  0  0  0  0  0  0  0  0  0  0  0
  145.6094  133.7224  152.0969 C   0  0  1  0  0  0  0  0  0  0  0  0
  146.9588  134.1414  151.9531 O   0  0  0  0  0  0  0  0  0  0  0  0
  144.9452  137.0804  152.8996 C   0  0  0  0  0  0  0  0  0  0  0  0
  144.2664  136.7256  153.8631 O   0  0  0  0  0  0  0  0  0  0  0  0
  145.5110  138.3050  152.8352 N   0  0  0  0  0  0  0  0  0  0  0  0
  143.7743  134.8839  152.5454 H   0  0  0  0  0  0  0  0  0  0  0  0
  145.5481  133.9920  149.4057 H   0  0  0  0  0  0  0  0  0  0  0  0
  144.4121  132.0611  151.4795 H   0  0  0  0  0  0  0  0  0  0  0  0
  145.4734  133.3542  153.1142 H   0  0  0  0  0  0  0  0  0  0  0  0
  147.3264  140.1846  151.0869 H   0  0  0  0  0  0  0  0  0  0  0  0
  146.1789  135.9868  149.8858 H   0  0  0  0  0  0  0  0  0  0  0  0
  144.3823  132.0837  148.3209 H   0  0  0  0  0  0  0  0  0  0  0  0
  142.9872  132.3328  149.3516 H   0  0  0  0  0  0  0  0  0  0  0  0
  142.5281  134.1929  148.3481 H   0  0  0  0  0  0  0  0  0  0  0  0
  146.1673  131.5744  149.7820 H   0  0  0  0  0  0  0  0  0  0  0  0
  146.9753  135.0845  151.8997 H   0  0  0  0  0  0  0  0  0  0  0  0
  145.3496  138.9330  153.6087 H   0  0  0  0  0  0  0  0  0  0  0  0
  1  2  2  0  0  0  0
  1 22  1  0  0  0  0
  2 17  1  0  0  0  0
  2  3  1  0  0  0  0
  3  4  2  0  0  0  0
  4  5  1  0  0  0  0
  4 23  1  0  0  0  0
  5  6  1  0  0  0  0
  5 15  1  0  0  0  0
  6 18  1  0  0  0  0
  6 13  1  0  0  0  0
  6  7  1  0  0  0  0
  7  8  1  0  0  0  0
  8 19  1  0  0  0  0
  8  9  1  0  0  0  0
  8 11  1  0  0  0  0
  9 10  1  0  0  0  0
  9 24  1  0  0  0  0
  9 25  1  0  0  0  0
 10 26  1  0  0  0  0
 11 20  1  0  0  0  0
 11 12  1  0  0  0  0
 11 13  1  0  0  0  0
 12 27  1  0  0  0  0
 13 21  1  0  0  0  0
 13 14  1  0  0  0  0
 14 28  1  0  0  0  0
 15 16  2  0  0  0  0
 15 17  1  0  0  0  0
 17 29  1  0  0  0  0
M  END
> <s_m_source_file>
AV-unprocessed.smi

> <i_m_source_file_index>
72

> <i_lp_mmshare_version>
43012

> <i_f3d_flags>
0

> <s_epik_input>
W05IMl1jMW5bY0hdbihjKD1PKW4xKVtDQEBIXTJPW0NASF0oW0NIMl1bT0hdKVtDQEBIXShbT0hdKVtDQEhdMltPSF0=

> <s_epik_cmdline>
J2VwaWtfcHl0aG9uJywgJy1waCcsICc3LjAnLCAnLXRuJywgJzgnLCAnLW1hJywgJzIwMCcsICctbWV0YWxfYmluZGluZycsICctaW1hZScsICc8aW5maWxlLm1hZT4nLCAnLW9tYWUnLCAnPG91dGZpbGUubWFlPic=

> <r_lp_tautomer_probability>
7.17554e-07

> <r_epik_Ionization_Penalty>
0.0066451

> <r_epik_Ionization_Penalty_Charging>
0.00663793

> <r_epik_Ionization_Penalty_Neutral>
7.17052e-06

> <r_epik_State_Penalty>
0.419231

> <r_epik_Charging_Adjusted_Penalty>
0.425868

> <i_epik_Tot_Q>
0

> <i_epik_Tot_abs_Q>
0

> <r_epik_Metal_State_Penalty>
1.44144

> <b_epik_Metal_Only>
0

> <s_epik_Chemistry_Notes>
This compound contains an acetal/aminal-like group ( X-CH(R)-Y where X, Y are N, S, or O) that may be acid/base labile, releasing an aldehyde.

> <s_lp_Force_Field>
OPLS_2005

> <r_lp_Energy>
49.4302

> <b_lp_Chiralities_Consistent>
1

> <s_lp_Variant>
AV-unprocessed.smi:72-2

> <Gold.Version>
5.8.1

> <Gold.Id.Protein>
6NUR|6NUR_protein|mol2

> <Gold.PLP.Fitness>
39.7145

> <Gold.PLP.PLP>
-29.1043

> <Gold.PLP.part.hbond>
-9.0000

> <Gold.PLP.part.metal>
0.0000

> <Gold.PLP.part.buried>
-2.4096

> <Gold.PLP.part.nonpolar>
-20.7811

> <Gold.PLP.part.repulsive>
2.2638

> <Gold.PLP.ligand.clash>
0.0000

> <Gold.PLP.ligand.torsion>
0.3498

> <Gold.PLP.Chemscore.Hbond>
2.7538

> <Gold.PLP.Chemscore.CHOScore>
1.0000

> <Gold.PLP.Chemscore.Metal>
0.0000

> <Gold.Chemscore.Hbonds>
donor molecule, donor type, donor heavy atom, donor atom, acceptor molecule, acceptor atom, score
      L1  H     1    22       P1  7957  0.23
      L1  H    10    26       P1 10186  1.00
      L1  H    14    28       P1  7948  0.18
      P1  H  7954  7966       L1     3  1.00
      L1  C     4    23       P1  7921  1.00

> <Gold.PLP.Chemscore.Internal.Correction>
0.0484

> <Gold.Rescore>
     Score         DG    S(hbond)    S(metal)    S(lipo)     H(rot)  DE(clash)    DE(int)     intcor
      4.53      -7.74       2.62        0.00      33.31       4.06       1.83       1.38       ----

> <Gold.Chemscore.Fitness>
4.5322

> <Gold.Chemscore.DG>
-7.7432

> <Gold.Chemscore.ZeroCoef>
-5.4800

> <Gold.Chemscore.Hbond>
2.6228

> <Gold.Chemscore.Metal>
0.0000

> <Gold.Chemscore.Lipo>
33.3057

> <Gold.Chemscore.Internal_Hbond>
0.0000

> <Gold.Chemscore.DEClash>
1.8298

> <Gold.Chemscore.DEInternal>
1.3812

> <Gold.Chemscore.Rot>
4.0600

> <Gold.Chemscore.Internal.Correction>
   9.000000E+99

> <Gold.Chemscore.Hbonds>
donor molecule, donor type, donor heavy atom, donor atom, acceptor molecule, acceptor atom, score
      L1  H     1    22       P1  7957  0.23
      L1  H    10    26       P1 10186  0.99
      L1  H    14    28       P1  7948  0.18
      P1  H  7954  7966       L1     3  0.75

> <Gold.Chemscore.Hbond.Weighted>
-8.7600

> <Gold.Chemscore.Metal.Weighted>
-0.0000

> <Gold.Chemscore.Lipo.Weighted>
-3.8968

> <Gold.Chemscore.Internal_Hbond.Weighted>
0.0000

> <Gold.Chemscore.DEClash.Weighted>
1.8298

> <Gold.Chemscore.DEInternal.Weighted>
1.3812

> <Gold.Chemscore.Rot.Weighted>
10.3936

> <Gold.Chemscore.Internal.Correction.Weighted>
   9.000000E+99

> <Gold.Protein.RotatedTorsions>
[ 6907 6896 6895 6894 ] final -102.45 input  -60.11 | X-H torsion
[ 7974 7965 7964 7962 ] final  -49.02 input  175.53 | X-H torsion
[ 8008 7997 7996 7995 ] final  -74.00 input   59.86 | X-H torsion
[ 10167 10162 10161 10158 ] final   77.83 input  -65.29 | X-H torsion
[ 10718 10713 10712 10709 ] final  -32.75 input   66.30 | X-H torsion
[ 10763 10752 10751 10750 ] final  -95.03 input  -60.55 | X-H torsion
[ 11005 11000 10999 10996 ] final  -39.86 input  -57.11 | X-H torsion

> <Gold.Protein.ActiveResidues>
 VAL166  LYS551  ARG553  GLY616  TRP617  ASP618  TYR619  PRO620  LYS621  CYS622 
 ASP623  PHE694  ASN695  SER759  ASP760  ASP761  ALA762  ILE779  LEU786  VAL792 
 PHE793  MET794  SER795  GLU796  ALA797  LYS798  CYS799  TRP800  GLU811  SER814 

> <Gold.Protein.RotatedAtoms>
  150.7196  134.0580  159.3821 H   0  0  0  0  0  0  0  0  0  0  0  0  # atno 6907 bound_to 6896
  151.8559  135.0539  160.0473 H   0  0  0  0  0  0  0  0  0  0  0  0  # atno 6908 bound_to 6896
  152.2755  133.5385  159.5501 H   0  0  0  0  0  0  0  0  0  0  0  0  # atno 6909 bound_to 6896
  145.9450  140.7626  142.9533 H   0  0  0  0  0  0  0  0  0  0  0  0  # atno 7974 bound_to 7965
  154.5294  140.0769  156.8317 H   0  0  0  0  0  0  0  0  0  0  0  0  # atno 8008 bound_to 7997
  155.3407  140.3407  155.4221 H   0  0  0  0  0  0  0  0  0  0  0  0  # atno 8009 bound_to 7997
  156.1765  140.1637  156.8339 H   0  0  0  0  0  0  0  0  0  0  0  0  # atno 8010 bound_to 7997
  139.9774  144.5851  150.7931 H   0  0  0  0  0  0  0  0  0  0  0  0  # atno 10167 bound_to 10162
  156.3710  130.4339  149.7545 H   0  0  0  0  0  0  0  0  0  0  0  0  # atno 10718 bound_to 10713
  154.7111  135.5135  153.8667 H   0  0  0  0  0  0  0  0  0  0  0  0  # atno 10763 bound_to 10752
  153.0781  135.6623  154.0111 H   0  0  0  0  0  0  0  0  0  0  0  0  # atno 10764 bound_to 10752
  153.9953  135.3016  155.3387 H   0  0  0  0  0  0  0  0  0  0  0  0  # atno 10765 bound_to 10752
  141.0133  133.6897  156.2244 H   0  0  0  0  0  0  0  0  0  0  0  0  # atno 11005 bound_to 11000
  144.6785  140.2342  143.7351 LP  0  0  0  0  0  0  0  0  0  0  0  0  # atno 17320 bound_to 7965
  145.8248  139.2059  143.1917 LP  0  0  0  0  0  0  0  0  0  0  0  0  # atno 17321 bound_to 7965
  140.7501  143.2949  151.3230 LP  0  0  0  0  0  0  0  0  0  0  0  0  # atno 17342 bound_to 10162
  139.6435  144.0494  152.2573 LP  0  0  0  0  0  0  0  0  0  0  0  0  # atno 17343 bound_to 10162
  156.4672  130.7979  151.2998 LP  0  0  0  0  0  0  0  0  0  0  0  0  # atno 17370 bound_to 10713
  157.7484  131.0047  150.3086 LP  0  0  0  0  0  0  0  0  0  0  0  0  # atno 17371 bound_to 10713
  140.6697  134.4880  157.5587 LP  0  0  0  0  0  0  0  0  0  0  0  0  # atno 17394 bound_to 11000
  139.9102  134.8361  156.1556 LP  0  0  0  0  0  0  0  0  0  0  0  0  # atno 17395 bound_to 11000

$$$$
