AV-unprocessed.smi:3145|AV-procd|sdf|11980|dock8
  -GOLD-   2272017383D 1   1.00000     0.00000
 Structure written by MMmdl.
 35 35  0  0  0  0  0  0  0  0  2 V2000
  145.5633  136.1880  150.4026 C   0  0  0  0  0  0  0  0  0  0  0  0
  145.5940  135.8128  151.8905 C   0  0  1  0  0  0  0  0  0  0  0  0
  146.0792  134.3590  152.0744 C   0  0  0  0  0  0  0  0  0  0  0  0
  145.2070  133.3851  151.4432 N   0  0  0  0  0  0  0  0  0  0  0  0
  145.5432  132.1760  150.8716 C   0  0  0  0  0  0  0  0  0  0  0  0
  144.3908  131.6168  150.3986 C   0  0  0  0  0  0  0  0  0  0  0  0
  143.3885  132.5689  150.7354 C   0  0  0  0  0  0  0  0  0  0  0  0
  143.8805  133.6272  151.3596 N   0  0  0  0  0  0  0  0  0  0  0  0
  146.4636  136.7650  152.6181 N   0  3  0  0  0  0  0  0  0  0  0  0
  146.2646  138.1890  152.2722 C   0  0  0  0  0  0  0  0  0  0  0  0
  147.1676  139.1044  153.0988 C   0  0  0  0  0  0  0  0  0  0  0  0
  146.6988  140.0807  153.6848 O   0  0  0  0  0  0  0  0  0  0  0  0
  148.4646  138.7693  153.1505 N   0  0  0  0  0  0  0  0  0  0  0  0
  149.4768  139.5111  153.8901 C   0  0  0  0  0  0  0  0  0  0  0  0
  150.7757  138.7038  153.9840 C   0  0  0  0  0  0  0  0  0  0  0  0
  151.7380  139.2877  154.9306 C   0  0  0  0  0  0  0  0  0  0  0  0
  152.4949  139.7472  155.6750 N   0  0  0  0  0  0  0  0  0  0  0  0
  144.9081  135.5202  149.8425 H   0  0  0  0  0  0  0  0  0  0  0  0
  146.5568  136.1286  149.9564 H   0  0  0  0  0  0  0  0  0  0  0  0
  145.1937  137.2042  150.2598 H   0  0  0  0  0  0  0  0  0  0  0  0
  144.5733  135.8982  152.2674 H   0  0  0  0  0  0  0  0  0  0  0  0
  147.0737  134.2408  151.6420 H   0  0  0  0  0  0  0  0  0  0  0  0
  146.1744  134.1173  153.1346 H   0  0  0  0  0  0  0  0  0  0  0  0
  146.5626  131.8192  150.8470 H   0  0  0  0  0  0  0  0  0  0  0  0
  144.2801  130.6697  149.8914 H   0  0  0  0  0  0  0  0  0  0  0  0
  142.3261  132.5230  150.5454 H   0  0  0  0  0  0  0  0  0  0  0  0
  146.3145  136.6445  153.6099 H   0  0  0  0  0  0  0  0  0  0  0  0
  146.4849  138.3380  151.2146 H   0  0  0  0  0  0  0  0  0  0  0  0
  145.2234  138.4721  152.4275 H   0  0  0  0  0  0  0  0  0  0  0  0
  148.7715  137.9504  152.6451 H   0  0  0  0  0  0  0  0  0  0  0  0
  149.6687  140.4651  153.3963 H   0  0  0  0  0  0  0  0  0  0  0  0
  149.1024  139.7339  154.8903 H   0  0  0  0  0  0  0  0  0  0  0  0
  150.5692  137.6829  154.3060 H   0  0  0  0  0  0  0  0  0  0  0  0
  151.2610  138.6464  153.0094 H   0  0  0  0  0  0  0  0  0  0  0  0
  147.4264  136.5391  152.4126 H   0  0  0  0  0  0  0  0  0  0  0  0
  1  2  1  0  0  0  0
  1 18  1  0  0  0  0
  1 19  1  0  0  0  0
  1 20  1  0  0  0  0
  2  3  1  0  0  0  0
  2  9  1  0  0  0  0
  2 21  1  0  0  0  0
  3  4  1  0  0  0  0
  3 22  1  0  0  0  0
  3 23  1  0  0  0  0
  4  8  1  0  0  0  0
  4  5  1  0  0  0  0
  5  6  2  0  0  0  0
  5 24  1  0  0  0  0
  6  7  1  0  0  0  0
  6 25  1  0  0  0  0
  7  8  2  0  0  0  0
  7 26  1  0  0  0  0
  9 10  1  0  0  0  0
  9 27  1  0  0  0  0
  9 35  1  0  0  0  0
 10 11  1  0  0  0  0
 10 28  1  0  0  0  0
 10 29  1  0  0  0  0
 11 12  2  0  0  0  0
 11 13  1  0  0  0  0
 13 14  1  0  0  0  0
 13 30  1  0  0  0  0
 14 15  1  0  0  0  0
 14 31  1  0  0  0  0
 14 32  1  0  0  0  0
 15 16  1  0  0  0  0
 15 33  1  0  0  0  0
 15 34  1  0  0  0  0
 16 17  3  0  0  0  0
M  CHG  1   9   1
M  END
> <s_m_source_file>
AV-unprocessed.smi

> <i_m_source_file_index>
3145

> <i_lp_mmshare_version>
43012

> <i_f3d_flags>
0

> <s_epik_input>
bjFbY0hdW2NIXVtjSF1uMVtDSDJdW0NAQEhdKFtDSDNdKVtOSF1bQ0gyXUMoPU8pW05IXVtDSDJdW0NIMl1DI04=

> <s_epik_cmdline>
J2VwaWtfcHl0aG9uJywgJy1waCcsICc3LjAnLCAnLXRuJywgJzgnLCAnLW1hJywgJzIwMCcsICctbWV0YWxfYmluZGluZycsICctaW1hZScsICc8aW5maWxlLm1hZT4nLCAnLW9tYWUnLCAnPG91dGZpbGUubWFlPic=

> <r_lp_tautomer_probability>
1

> <r_epik_Ionization_Penalty>
0.190162

> <r_epik_Ionization_Penalty_Charging>
0.190142

> <r_epik_Ionization_Penalty_Neutral>
2.0165e-05

> <r_epik_State_Penalty>
0.179787

> <r_epik_Charging_Adjusted_Penalty>
0.369929

> <i_epik_Tot_Q>
1

> <i_epik_Tot_abs_Q>
1

> <r_epik_Metal_State_Penalty>
0.191786

> <b_epik_Metal_Only>
0

> <s_lp_Force_Field>
OPLS_2005

> <r_lp_Energy>
4.60732

> <b_lp_Chiralities_Consistent>
1

> <s_lp_Variant>
AV-unprocessed.smi:3145-2

> <Gold.Version>
5.8.1

> <Gold.Id.Protein>
6NUR|6NUR_protein|mol2

> <Gold.PLP.Fitness>
50.3267

> <Gold.PLP.PLP>
-32.9026

> <Gold.PLP.part.hbond>
-4.0000

> <Gold.PLP.part.metal>
0.0000

> <Gold.PLP.part.buried>
-1.5615

> <Gold.PLP.part.nonpolar>
-28.6057

> <Gold.PLP.part.repulsive>
0.3696

> <Gold.PLP.ligand.clash>
0.0000

> <Gold.PLP.ligand.torsion>
0.6686

> <Gold.PLP.Chemscore.Hbond>
4.0000

> <Gold.PLP.Chemscore.CHOScore>
2.2157

> <Gold.PLP.Chemscore.Metal>
0.0000

> <Gold.Chemscore.Hbonds>
donor molecule, donor type, donor heavy atom, donor atom, acceptor molecule, acceptor atom, score
      L1  H     9    35       P1  7948  2.00
      L1  H    13    30       P1  7948  1.00
      P1  H  7997  8010       L1    17  1.00
      L1  C     5    24       P1 10747  0.68
      L1  C     7    26       P1 10186  0.89
      L1  C     7    26       P1 10952  0.31

> <Gold.PLP.Chemscore.Internal.Correction>
0.1142

> <Gold.Rescore>
     Score         DG    S(hbond)    S(metal)    S(lipo)     H(rot)  DE(clash)    DE(int)     intcor
     14.37     -16.43       2.96        0.00      72.27       2.89       1.38       0.68       ----

> <Gold.Chemscore.Fitness>
14.3720

> <Gold.Chemscore.DG>
-16.4305

> <Gold.Chemscore.ZeroCoef>
-5.4800

> <Gold.Chemscore.Hbond>
2.9617

> <Gold.Chemscore.Metal>
0.0000

> <Gold.Chemscore.Lipo>
72.2670

> <Gold.Chemscore.Internal_Hbond>
0.0000

> <Gold.Chemscore.DEClash>
1.3790

> <Gold.Chemscore.DEInternal>
0.6794

> <Gold.Chemscore.Rot>
2.8894

> <Gold.Chemscore.Internal.Correction>
   9.000000E+99

> <Gold.Chemscore.Hbonds>
donor molecule, donor type, donor heavy atom, donor atom, acceptor molecule, acceptor atom, score
      L1  H     9    35       P1  7948  1.00
      L1  H    13    30       P1  7948  1.00
      P1  H  7997  8010       L1    17  0.98

> <Gold.Chemscore.Hbond.Weighted>
-9.8920

> <Gold.Chemscore.Metal.Weighted>
-0.0000

> <Gold.Chemscore.Lipo.Weighted>
-8.4552

> <Gold.Chemscore.Internal_Hbond.Weighted>
0.0000

> <Gold.Chemscore.DEClash.Weighted>
1.3790

> <Gold.Chemscore.DEInternal.Weighted>
0.6794

> <Gold.Chemscore.Rot.Weighted>
7.3968

> <Gold.Chemscore.Internal.Correction.Weighted>
   9.000000E+99

> <Gold.Protein.RotatedTorsions>
[ 6907 6896 6895 6894 ] final -139.35 input  -60.11 | X-H torsion
[ 7974 7965 7964 7962 ] final  -26.82 input  175.53 | X-H torsion
[ 8008 7997 7996 7995 ] final   83.63 input   59.86 | X-H torsion
[ 10167 10162 10161 10158 ] final   94.40 input  -65.29 | X-H torsion
[ 10718 10713 10712 10709 ] final  -41.99 input   66.30 | X-H torsion
[ 10763 10752 10751 10750 ] final   61.96 input  -60.55 | X-H torsion
[ 11005 11000 10999 10996 ] final    7.09 input  -57.11 | X-H torsion

> <Gold.Protein.ActiveResidues>
 VAL166  LYS551  ARG553  GLY616  TRP617  ASP618  TYR619  PRO620  LYS621  CYS622 
 ASP623  PHE694  ASN695  SER759  ASP760  ASP761  ALA762  ILE779  LEU786  VAL792 
 PHE793  MET794  SER795  GLU796  ALA797  LYS798  CYS799  TRP800  GLU811  SER814 

> <Gold.Protein.RotatedAtoms>
  151.0467  133.5659  159.2645 H   0  0  0  0  0  0  0  0  0  0  0  0  # atno 6907 bound_to 6896
  151.2686  135.0676  159.9135 H   0  0  0  0  0  0  0  0  0  0  0  0  # atno 6908 bound_to 6896
  152.5374  134.0201  159.8031 H   0  0  0  0  0  0  0  0  0  0  0  0  # atno 6909 bound_to 6896
  146.1400  140.5070  142.8656 H   0  0  0  0  0  0  0  0  0  0  0  0  # atno 7974 bound_to 7965
  155.9264  140.3418  155.6214 H   0  0  0  0  0  0  0  0  0  0  0  0  # atno 8008 bound_to 7997
  155.7211  140.0783  157.2349 H   0  0  0  0  0  0  0  0  0  0  0  0  # atno 8009 bound_to 7997
  154.4078  140.1605  156.2390 H   0  0  0  0  0  0  0  0  0  0  0  0  # atno 8010 bound_to 7997
  139.8087  144.6783  150.9669 H   0  0  0  0  0  0  0  0  0  0  0  0  # atno 10167 bound_to 10162
  156.2644  130.4200  149.8506 H   0  0  0  0  0  0  0  0  0  0  0  0  # atno 10718 bound_to 10713
  152.9967  135.5482  154.6118 H   0  0  0  0  0  0  0  0  0  0  0  0  # atno 10763 bound_to 10752
  154.5437  135.2821  155.1075 H   0  0  0  0  0  0  0  0  0  0  0  0  # atno 10764 bound_to 10752
  154.2342  135.6428  153.5238 H   0  0  0  0  0  0  0  0  0  0  0  0  # atno 10765 bound_to 10752
  140.5521  134.0273  155.7941 H   0  0  0  0  0  0  0  0  0  0  0  0  # atno 11005 bound_to 11000
  144.7782  140.5784  143.6624 LP  0  0  0  0  0  0  0  0  0  0  0  0  # atno 17320 bound_to 7965
  145.5069  139.1481  143.3626 LP  0  0  0  0  0  0  0  0  0  0  0  0  # atno 17321 bound_to 7965
  140.7818  143.4207  151.0846 LP  0  0  0  0  0  0  0  0  0  0  0  0  # atno 17342 bound_to 10162
  139.7875  143.8266  152.3147 LP  0  0  0  0  0  0  0  0  0  0  0  0  # atno 17343 bound_to 10162
  156.6010  130.8547  151.3432 LP  0  0  0  0  0  0  0  0  0  0  0  0  # atno 17370 bound_to 10713
  157.7262  130.9626  150.1646 LP  0  0  0  0  0  0  0  0  0  0  0  0  # atno 17371 bound_to 10713
  141.1165  133.9532  157.2812 LP  0  0  0  0  0  0  0  0  0  0  0  0  # atno 17394 bound_to 11000
  139.9450  135.0185  156.8823 LP  0  0  0  0  0  0  0  0  0  0  0  0  # atno 17395 bound_to 11000

$$$$
