AV-unprocessed.smi:2678|AV-procd|sdf|10369|dock10
  -GOLD-   2272014393D 1   1.00000     0.00000
 Structure written by MMmdl.
 46 47  0  0  0  0  0  0  0  0  1 V2000
  152.9271  129.2520  154.8221 C   0  0  0  0  0  0  0  0  0  0  0  0
  153.0633  130.4030  155.8275 C   0  0  0  0  0  0  0  0  0  0  0  0
  153.4454  129.8923  157.2258 C   0  0  0  0  0  0  0  0  0  0  0  0
  151.8108  131.1516  155.8804 N   0  0  0  0  0  0  0  0  0  0  0  0
  151.4696  132.0331  156.8340 C   0  0  0  0  0  0  0  0  0  0  0  0
  152.2000  132.2983  157.7888 O   0  0  0  0  0  0  0  0  0  0  0  0
  150.0970  132.7138  156.6734 C   0  0  1  0  0  0  0  0  0  0  0  0
  150.1764  134.2547  156.7804 C   0  0  0  0  0  0  0  0  0  0  0  0
  150.7108  134.9334  155.5059 C   0  0  0  0  0  0  0  0  0  0  0  0
  149.9105  134.5027  154.2676 C   0  0  0  0  0  0  0  0  0  0  0  0
  149.9207  132.9733  154.1010 C   0  0  2  0  0  0  0  0  0  0  0  0
  149.1243  132.6031  152.9291 N   0  0  0  0  0  0  0  0  0  0  0  0
  147.8714  132.9852  152.6197 C   0  0  0  0  0  0  0  0  0  0  0  0
  147.2306  133.7235  153.3643 O   0  0  0  0  0  0  0  0  0  0  0  0
  147.4090  132.4709  151.4631 N   0  0  0  0  0  0  0  0  0  0  0  0
  146.1415  132.6506  150.8479 C   0  0  0  0  0  0  0  0  0  0  0  0
  145.0737  133.3868  151.4158 C   0  0  0  0  0  0  0  0  0  0  0  0
  143.8709  133.5050  150.6928 C   0  0  0  0  0  0  0  0  0  0  0  0
  143.7822  132.8902  149.4287 C   0  0  0  0  0  0  0  0  0  0  0  0
  144.7964  132.1968  148.8700 N   0  0  0  0  0  0  0  0  0  0  0  0
  145.9469  132.0888  149.5683 C   0  0  0  0  0  0  0  0  0  0  0  0
  149.3730  132.2864  155.3751 C   0  0  0  0  0  0  0  0  0  0  0  0
  153.8599  128.6931  154.7396 H   0  0  0  0  0  0  0  0  0  0  0  0
  152.6781  129.6249  153.8280 H   0  0  0  0  0  0  0  0  0  0  0  0
  152.1461  128.5521  155.1217 H   0  0  0  0  0  0  0  0  0  0  0  0
  153.8553  131.0635  155.4696 H   0  0  0  0  0  0  0  0  0  0  0  0
  154.3821  129.3352  157.1958 H   0  0  0  0  0  0  0  0  0  0  0  0
  152.6782  129.2313  157.6304 H   0  0  0  0  0  0  0  0  0  0  0  0
  153.5785  130.7163  157.9276 H   0  0  0  0  0  0  0  0  0  0  0  0
  151.1542  130.9904  155.1304 H   0  0  0  0  0  0  0  0  0  0  0  0
  149.4814  132.3701  157.5067 H   0  0  0  0  0  0  0  0  0  0  0  0
  149.1786  134.6417  156.9906 H   0  0  0  0  0  0  0  0  0  0  0  0
  150.7912  134.5433  157.6343 H   0  0  0  0  0  0  0  0  0  0  0  0
  150.6596  136.0166  155.6183 H   0  0  0  0  0  0  0  0  0  0  0  0
  151.7650  134.6954  155.3639 H   0  0  0  0  0  0  0  0  0  0  0  0
  148.8838  134.8605  154.3578 H   0  0  0  0  0  0  0  0  0  0  0  0
  150.3272  134.9788  153.3792 H   0  0  0  0  0  0  0  0  0  0  0  0
  150.9539  132.6713  153.9282 H   0  0  0  0  0  0  0  0  0  0  0  0
  149.5703  131.9687  152.2824 H   0  0  0  0  0  0  0  0  0  0  0  0
  148.0261  131.8220  150.9962 H   0  0  0  0  0  0  0  0  0  0  0  0
  145.1545  133.8715  152.3759 H   0  0  0  0  0  0  0  0  0  0  0  0
  143.0364  134.0584  151.0972 H   0  0  0  0  0  0  0  0  0  0  0  0
  142.8740  132.9623  148.8488 H   0  0  0  0  0  0  0  0  0  0  0  0
  146.7380  131.5294  149.0898 H   0  0  0  0  0  0  0  0  0  0  0  0
  149.4215  131.2017  155.2697 H   0  0  0  0  0  0  0  0  0  0  0  0
  148.3131  132.5233  155.4774 H   0  0  0  0  0  0  0  0  0  0  0  0
  1  2  1  0  0  0  0
  1 23  1  0  0  0  0
  1 24  1  0  0  0  0
  1 25  1  0  0  0  0
  2  3  1  0  0  0  0
  2  4  1  0  0  0  0
  2 26  1  0  0  0  0
  3 27  1  0  0  0  0
  3 28  1  0  0  0  0
  3 29  1  0  0  0  0
  4  5  1  0  0  0  0
  4 30  1  0  0  0  0
  5  6  2  0  0  0  0
  5  7  1  0  0  0  0
  7 22  1  0  0  0  0
  7  8  1  0  0  0  0
  7 31  1  0  0  0  0
  8  9  1  0  0  0  0
  8 32  1  0  0  0  0
  8 33  1  0  0  0  0
  9 10  1  0  0  0  0
  9 34  1  0  0  0  0
  9 35  1  0  0  0  0
 10 11  1  0  0  0  0
 10 36  1  0  0  0  0
 10 37  1  0  0  0  0
 11 12  1  0  0  0  0
 11 22  1  0  0  0  0
 11 38  1  0  0  0  0
 12 13  1  0  0  0  0
 12 39  1  0  0  0  0
 13 14  2  0  0  0  0
 13 15  1  0  0  0  0
 15 16  1  0  0  0  0
 15 40  1  0  0  0  0
 16 21  1  0  0  0  0
 16 17  2  0  0  0  0
 17 18  1  0  0  0  0
 17 41  1  0  0  0  0
 18 19  2  0  0  0  0
 18 42  1  0  0  0  0
 19 20  1  0  0  0  0
 19 43  1  0  0  0  0
 20 21  2  0  0  0  0
 21 44  1  0  0  0  0
 22 45  1  0  0  0  0
 22 46  1  0  0  0  0
M  END
> <s_m_source_file>
AV-unprocessed.smi

> <i_m_source_file_index>
2678

> <i_lp_mmshare_version>
43012

> <i_f3d_flags>
0

> <s_epik_input>
W0NIM11bQ0hdKFtDSDNdKVtOSF1DKD1PKVtDQEBIXTFbQ0gyXVtDSDJdW0NIMl1bQ0BIXShbQ0gyXTEpW05IXUMoPU8pW05IXWMyW2NIXVtjSF1bY0hdbltjSF0y

> <s_epik_cmdline>
J2VwaWtfcHl0aG9uJywgJy1waCcsICc3LjAnLCAnLXRuJywgJzgnLCAnLW1hJywgJzIwMCcsICctbWV0YWxfYmluZGluZycsICctaW1hZScsICc8aW5maWxlLm1hZT4nLCAnLW9tYWUnLCAnPG91dGZpbGUubWFlPic=

> <r_epik_Ionization_Penalty>
0.00482944

> <r_epik_Ionization_Penalty_Charging>
0

> <r_epik_Ionization_Penalty_Neutral>
0.00482944

> <r_epik_State_Penalty>
0.00347168

> <r_epik_Charging_Adjusted_Penalty>
0.00347168

> <i_epik_Tot_Q>
0

> <i_epik_Tot_abs_Q>
0

> <r_epik_Metal_State_Penalty>
-0

> <b_epik_Metal_Only>
0

> <s_lp_Force_Field>
OPLS_2005

> <r_lp_Energy>
20.538

> <b_lp_Chiralities_Consistent>
1

> <s_lp_Variant>
AV-unprocessed.smi:2678-4

> <Gold.Version>
5.8.1

> <Gold.Id.Protein>
6NUR|6NUR_protein|mol2

> <Gold.PLP.Fitness>
47.4510

> <Gold.PLP.PLP>
-37.6802

> <Gold.PLP.part.hbond>
-3.3005

> <Gold.PLP.part.metal>
0.0000

> <Gold.PLP.part.buried>
-3.1725

> <Gold.PLP.part.nonpolar>
-30.2464

> <Gold.PLP.part.repulsive>
0.3601

> <Gold.PLP.ligand.clash>
0.5086

> <Gold.PLP.ligand.torsion>
0.4039

> <Gold.PLP.Chemscore.Hbond>
2.1498

> <Gold.PLP.Chemscore.CHOScore>
1.5273

> <Gold.PLP.Chemscore.Metal>
0.0000

> <Gold.Chemscore.Hbonds>
donor molecule, donor type, donor heavy atom, donor atom, acceptor molecule, acceptor atom, score
      L1  H    12    39       P1 10747  0.18
      L1  H    15    40       P1 10747  1.00
      P1  H  6896  6908       L1     6  1.00
      L1  C    19    43       P1 10186  0.85
      L1  C    21    44       P1 10747  0.77

> <Gold.PLP.Chemscore.Internal.Correction>
0.0559

> <Gold.Rescore>
     Score         DG    S(hbond)    S(metal)    S(lipo)     H(rot)  DE(clash)    DE(int)     intcor
     15.22     -18.94       1.95        0.00      91.34       1.46       0.26       3.46       ----

> <Gold.Chemscore.Fitness>
15.2154

> <Gold.Chemscore.DG>
-18.9377

> <Gold.Chemscore.ZeroCoef>
-5.4800

> <Gold.Chemscore.Hbond>
1.9487

> <Gold.Chemscore.Metal>
0.0000

> <Gold.Chemscore.Lipo>
91.3442

> <Gold.Chemscore.Internal_Hbond>
0.0000

> <Gold.Chemscore.DEClash>
0.2649

> <Gold.Chemscore.DEInternal>
3.4574

> <Gold.Chemscore.Rot>
1.4603

> <Gold.Chemscore.Internal.Correction>
   9.000000E+99

> <Gold.Chemscore.Hbonds>
donor molecule, donor type, donor heavy atom, donor atom, acceptor molecule, acceptor atom, score
      L1  H    12    39       P1 10747  0.03
      L1  H    15    40       P1 10747  0.93
      P1  H  6896  6908       L1     6  0.94

> <Gold.Chemscore.Hbond.Weighted>
-6.5088

> <Gold.Chemscore.Metal.Weighted>
-0.0000

> <Gold.Chemscore.Lipo.Weighted>
-10.6873

> <Gold.Chemscore.Internal_Hbond.Weighted>
0.0000

> <Gold.Chemscore.DEClash.Weighted>
0.2649

> <Gold.Chemscore.DEInternal.Weighted>
3.4574

> <Gold.Chemscore.Rot.Weighted>
3.7383

> <Gold.Chemscore.Internal.Correction.Weighted>
   9.000000E+99

> <Gold.Protein.RotatedTorsions>
[ 6907 6896 6895 6894 ] final   36.22 input  -60.11 | X-H torsion
[ 7974 7965 7964 7962 ] final   38.64 input  175.53 | X-H torsion
[ 8008 7997 7996 7995 ] final  -65.70 input   59.86 | X-H torsion
[ 10167 10162 10161 10158 ] final  171.46 input  -65.29 | X-H torsion
[ 10718 10713 10712 10709 ] final   49.11 input   66.30 | X-H torsion
[ 10763 10752 10751 10750 ] final   73.43 input  -60.55 | X-H torsion
[ 11005 11000 10999 10996 ] final    9.27 input  -57.11 | X-H torsion

> <Gold.Protein.ActiveResidues>
 VAL166  LYS551  ARG553  GLY616  TRP617  ASP618  TYR619  PRO620  LYS621  CYS622 
 ASP623  PHE694  ASN695  SER759  ASP760  ASP761  ALA762  ILE779  LEU786  VAL792 
 PHE793  MET794  SER795  GLU796  ALA797  LYS798  CYS799  TRP800  GLU811  SER814 

> <Gold.Protein.RotatedAtoms>
  152.1268  134.9165  160.0560 H   0  0  0  0  0  0  0  0  0  0  0  0  # atno 6907 bound_to 6896
  152.0285  133.3922  159.4295 H   0  0  0  0  0  0  0  0  0  0  0  0  # atno 6908 bound_to 6896
  150.6853  134.3469  159.4935 H   0  0  0  0  0  0  0  0  0  0  0  0  # atno 6909 bound_to 6896
  146.1046  139.5747  142.9392 H   0  0  0  0  0  0  0  0  0  0  0  0  # atno 7974 bound_to 7965
  154.4688  140.0928  156.7090 H   0  0  0  0  0  0  0  0  0  0  0  0  # atno 8008 bound_to 7997
  155.4782  140.3467  155.4317 H   0  0  0  0  0  0  0  0  0  0  0  0  # atno 8009 bound_to 7997
  156.1003  140.1420  156.9465 H   0  0  0  0  0  0  0  0  0  0  0  0  # atno 8010 bound_to 7997
  139.5047  144.3483  151.9948 H   0  0  0  0  0  0  0  0  0  0  0  0  # atno 10167 bound_to 10162
  157.4754  130.8281  149.8034 H   0  0  0  0  0  0  0  0  0  0  0  0  # atno 10718 bound_to 10713
  153.0521  135.5063  154.7893 H   0  0  0  0  0  0  0  0  0  0  0  0  # atno 10763 bound_to 10752
  154.6747  135.2958  154.9697 H   0  0  0  0  0  0  0  0  0  0  0  0  # atno 10764 bound_to 10752
  154.0503  135.6705  153.4852 H   0  0  0  0  0  0  0  0  0  0  0  0  # atno 10765 bound_to 10752
  140.5276  134.0497  155.7863 H   0  0  0  0  0  0  0  0  0  0  0  0  # atno 11005 bound_to 11000
  145.5786  141.0385  143.2134 LP  0  0  0  0  0  0  0  0  0  0  0  0  # atno 17320 bound_to 7965
  144.7460  139.7319  143.7292 LP  0  0  0  0  0  0  0  0  0  0  0  0  # atno 17321 bound_to 7965
  140.2920  144.3743  150.6085 LP  0  0  0  0  0  0  0  0  0  0  0  0  # atno 17342 bound_to 10162
  140.5939  143.2167  151.7201 LP  0  0  0  0  0  0  0  0  0  0  0  0  # atno 17343 bound_to 10162
  156.0094  130.3840  150.2316 LP  0  0  0  0  0  0  0  0  0  0  0  0  # atno 17370 bound_to 10713
  157.0500  131.0060  151.3256 LP  0  0  0  0  0  0  0  0  0  0  0  0  # atno 17371 bound_to 10713
  141.1299  133.9319  157.2557 LP  0  0  0  0  0  0  0  0  0  0  0  0  # atno 17394 bound_to 11000
  139.9571  135.0163  156.9159 LP  0  0  0  0  0  0  0  0  0  0  0  0  # atno 17395 bound_to 11000

$$$$
