AV-unprocessed.smi:2761|AV-procd|sdf|10632|dock5
  -GOLD-   2272015 83D 1   1.00000     0.00000
 Structure written by MMmdl.
 27 28  0  0  0  0  0  0  0  0  1 V2000
  152.9178  141.0775  159.1784 O   0  0  0  0  0  0  0  0  0  0  0  0
  152.0453  141.7230  158.5936 C   0  0  0  0  0  0  0  0  0  0  0  0
  151.4978  141.3833  157.4057 N   0  0  0  0  0  0  0  0  0  0  0  0
  151.7688  140.2631  156.6122 C   0  0  0  0  0  0  0  0  0  0  0  0
  150.8002  140.1167  155.5524 C   0  0  0  0  0  0  0  0  0  0  0  0
  150.9454  139.0707  154.7104 C   0  0  0  0  0  0  0  0  0  0  0  0
  152.0465  138.1213  154.8689 C   0  0  0  0  0  0  0  0  0  0  0  0
  152.2407  137.1496  154.1425 O   0  0  0  0  0  0  0  0  0  0  0  0
  152.8609  138.4128  155.9176 N   0  0  0  0  0  0  0  0  0  0  0  0
  152.7751  139.4648  156.8220 N   0  0  0  0  0  0  0  0  0  0  0  0
  151.5282  143.0312  159.2133 C   0  0  2  0  0  0  0  0  0  0  0  0
  151.6131  144.2290  158.2389 C   0  0  0  0  0  0  0  0  0  0  0  0
  151.1542  145.4039  158.8948 O   0  0  0  0  0  0  0  0  0  0  0  0
  151.9354  145.6950  160.0449 C   0  0  0  0  0  0  0  0  0  0  0  0
  151.8401  144.5130  161.0223 C   0  0  0  0  0  0  0  0  0  0  0  0
  152.3028  143.3372  160.3718 O   0  0  0  0  0  0  0  0  0  0  0  0
  150.7983  142.0244  157.0607 H   0  0  0  0  0  0  0  0  0  0  0  0
  149.9747  140.7982  155.4052 H   0  0  0  0  0  0  0  0  0  0  0  0
  150.2384  138.9307  153.9061 H   0  0  0  0  0  0  0  0  0  0  0  0
  153.6456  137.8013  156.0918 H   0  0  0  0  0  0  0  0  0  0  0  0
  150.4899  142.8679  159.5073 H   0  0  0  0  0  0  0  0  0  0  0  0
  152.6338  144.3760  157.8810 H   0  0  0  0  0  0  0  0  0  0  0  0
  150.9860  144.0613  157.3626 H   0  0  0  0  0  0  0  0  0  0  0  0
  152.9718  145.8837  159.7608 H   0  0  0  0  0  0  0  0  0  0  0  0
  151.5578  146.6049  160.5115 H   0  0  0  0  0  0  0  0  0  0  0  0
  152.4554  144.6985  161.9028 H   0  0  0  0  0  0  0  0  0  0  0  0
  150.8149  144.3745  161.3688 H   0  0  0  0  0  0  0  0  0  0  0  0
  1  2  2  0  0  0  0
  2  3  1  0  0  0  0
  2 11  1  0  0  0  0
  3 17  1  0  0  0  0
  3  4  1  0  0  0  0
  4  5  1  0  0  0  0
  4 10  2  0  0  0  0
  5  6  2  0  0  0  0
  5 18  1  0  0  0  0
  6  7  1  0  0  0  0
  6 19  1  0  0  0  0
  7  8  2  0  0  0  0
  7  9  1  0  0  0  0
  9 10  1  0  0  0  0
  9 20  1  0  0  0  0
 11 16  1  0  0  0  0
 11 12  1  0  0  0  0
 11 21  1  0  0  0  0
 12 13  1  0  0  0  0
 12 22  1  0  0  0  0
 12 23  1  0  0  0  0
 13 14  1  0  0  0  0
 14 15  1  0  0  0  0
 14 24  1  0  0  0  0
 14 25  1  0  0  0  0
 15 16  1  0  0  0  0
 15 26  1  0  0  0  0
 15 27  1  0  0  0  0
M  END
> <s_m_source_file>
AV-unprocessed.smi

> <i_m_source_file_index>
2761

> <i_lp_mmshare_version>
43012

> <i_f3d_flags>
0

> <s_epik_input>
TzFbQ0gyXVtDSDJdT1tDSDJdW0NASF0xQyg9TylbTkhdYzJbY0hdW2NIXWMoW09IXSlubjI=

> <s_epik_cmdline>
J2VwaWtfcHl0aG9uJywgJy1waCcsICc3LjAnLCAnLXRuJywgJzgnLCAnLW1hJywgJzIwMCcsICctbWV0YWxfYmluZGluZycsICctaW1hZScsICc8aW5maWxlLm1hZT4nLCAnLW9tYWUnLCAnPG91dGZpbGUubWFlPic=

> <r_lp_tautomer_probability>
1

> <r_epik_Ionization_Penalty>
0.000593199

> <r_epik_Ionization_Penalty_Charging>
0.000590119

> <r_epik_Ionization_Penalty_Neutral>
3.08036e-06

> <r_epik_State_Penalty>
-0

> <r_epik_Charging_Adjusted_Penalty>
0.000590119

> <i_epik_Tot_Q>
0

> <i_epik_Tot_abs_Q>
0

> <r_epik_Metal_State_Penalty>
0.240077

> <b_epik_Metal_Only>
0

> <s_lp_Force_Field>
OPLS_2005

> <r_lp_Energy>
26.3482

> <b_lp_Chiralities_Consistent>
1

> <s_lp_Variant>
AV-unprocessed.smi:2761-1

> <Gold.Version>
5.8.1

> <Gold.Id.Protein>
6NUR|6NUR_protein|mol2

> <Gold.PLP.Fitness>
37.2707

> <Gold.PLP.PLP>
-31.5658

> <Gold.PLP.part.hbond>
-2.5733

> <Gold.PLP.part.metal>
0.0000

> <Gold.PLP.part.buried>
-6.6445

> <Gold.PLP.part.nonpolar>
-25.5498

> <Gold.PLP.part.repulsive>
1.8926

> <Gold.PLP.ligand.clash>
0.0000

> <Gold.PLP.ligand.torsion>
0.1123

> <Gold.PLP.Chemscore.Hbond>
1.9760

> <Gold.PLP.Chemscore.CHOScore>
0.0000

> <Gold.PLP.Chemscore.Metal>
0.0000

> <Gold.Chemscore.Hbonds>
donor molecule, donor type, donor heavy atom, donor atom, acceptor molecule, acceptor atom, score
      P1  H  7997  8008       L1    10  0.85
      P1  H 10752 10764       L1     8  0.90

> <Gold.PLP.Chemscore.Internal.Correction>
0.0015

> <Gold.Rescore>
     Score         DG    S(hbond)    S(metal)    S(lipo)     H(rot)  DE(clash)    DE(int)     intcor
     13.69     -15.28       1.64        0.00      58.83       1.00       0.19       1.40       ----

> <Gold.Chemscore.Fitness>
13.6876

> <Gold.Chemscore.DG>
-15.2830

> <Gold.Chemscore.ZeroCoef>
-5.4800

> <Gold.Chemscore.Hbond>
1.6408

> <Gold.Chemscore.Metal>
0.0000

> <Gold.Chemscore.Lipo>
58.8264

> <Gold.Chemscore.Internal_Hbond>
0.0000

> <Gold.Chemscore.DEClash>
0.1906

> <Gold.Chemscore.DEInternal>
1.4049

> <Gold.Chemscore.Rot>
1.0000

> <Gold.Chemscore.Internal.Correction>
   9.000000E+99

> <Gold.Chemscore.Hbonds>
donor molecule, donor type, donor heavy atom, donor atom, acceptor molecule, acceptor atom, score
      P1  H  7997  8008       L1    10  0.14
      P1  H 10752 10764       L1     8  0.88

> <Gold.Chemscore.Hbond.Weighted>
-5.4803

> <Gold.Chemscore.Metal.Weighted>
-0.0000

> <Gold.Chemscore.Lipo.Weighted>
-6.8827

> <Gold.Chemscore.Internal_Hbond.Weighted>
0.0000

> <Gold.Chemscore.DEClash.Weighted>
0.1906

> <Gold.Chemscore.DEInternal.Weighted>
1.4049

> <Gold.Chemscore.Rot.Weighted>
2.5600

> <Gold.Chemscore.Internal.Correction.Weighted>
   9.000000E+99

> <Gold.Protein.RotatedTorsions>
[ 6907 6896 6895 6894 ] final -157.04 input  -60.11 | X-H torsion
[ 7974 7965 7964 7962 ] final -162.43 input  175.53 | X-H torsion
[ 8008 7997 7996 7995 ] final  -57.88 input   59.86 | X-H torsion
[ 10167 10162 10161 10158 ] final -108.48 input  -65.29 | X-H torsion
[ 10718 10713 10712 10709 ] final -103.77 input   66.30 | X-H torsion
[ 10763 10752 10751 10750 ] final  -87.30 input  -60.55 | X-H torsion
[ 11005 11000 10999 10996 ] final  -44.19 input  -57.11 | X-H torsion

> <Gold.Protein.ActiveResidues>
 VAL166  LYS551  ARG553  GLY616  TRP617  ASP618  TYR619  PRO620  LYS621  CYS622 
 ASP623  PHE694  ASN695  SER759  ASP760  ASP761  ALA762  ILE779  LEU786  VAL792 
 PHE793  MET794  SER795  GLU796  ALA797  LYS798  CYS799  TRP800  GLU811  SER814 

> <Gold.Protein.RotatedAtoms>
  151.2967  133.4140  159.2636 H   0  0  0  0  0  0  0  0  0  0  0  0  # atno 6907 bound_to 6896
  151.0230  134.9484  159.8080 H   0  0  0  0  0  0  0  0  0  0  0  0  # atno 6908 bound_to 6896
  152.5328  134.2930  159.9102 H   0  0  0  0  0  0  0  0  0  0  0  0  # atno 6909 bound_to 6896
  144.7358  140.3254  143.6163 H   0  0  0  0  0  0  0  0  0  0  0  0  # atno 7974 bound_to 7965
  154.4286  140.1097  156.5868 H   0  0  0  0  0  0  0  0  0  0  0  0  # atno 8008 bound_to 7997
  155.6054  140.3493  155.4587 H   0  0  0  0  0  0  0  0  0  0  0  0  # atno 8009 bound_to 7997
  156.0141  140.1225  157.0414 H   0  0  0  0  0  0  0  0  0  0  0  0  # atno 8010 bound_to 7997
  140.1657  143.4084  152.1392 H   0  0  0  0  0  0  0  0  0  0  0  0  # atno 10167 bound_to 10162
  156.0278  130.5483  150.7301 H   0  0  0  0  0  0  0  0  0  0  0  0  # atno 10718 bound_to 10713
  154.6321  135.5418  153.7693 H   0  0  0  0  0  0  0  0  0  0  0  0  # atno 10763 bound_to 10752
  153.0290  135.6438  154.1285 H   0  0  0  0  0  0  0  0  0  0  0  0  # atno 10764 bound_to 10752
  154.1214  135.2920  155.3187 H   0  0  0  0  0  0  0  0  0  0  0  0  # atno 10765 bound_to 10752
  141.0434  133.6771  156.2838 H   0  0  0  0  0  0  0  0  0  0  0  0  # atno 11005 bound_to 11000
  145.7526  139.1798  143.2313 LP  0  0  0  0  0  0  0  0  0  0  0  0  # atno 17320 bound_to 7965
  146.1049  140.7499  142.9531 LP  0  0  0  0  0  0  0  0  0  0  0  0  # atno 17321 bound_to 7965
  139.5361  144.7210  151.4890 LP  0  0  0  0  0  0  0  0  0  0  0  0  # atno 17342 bound_to 10162
  140.6615  143.8489  150.6893 LP  0  0  0  0  0  0  0  0  0  0  0  0  # atno 17343 bound_to 10162
  157.4895  131.0909  151.0443 LP  0  0  0  0  0  0  0  0  0  0  0  0  # atno 17370 bound_to 10713
  157.0854  130.5920  149.5429 LP  0  0  0  0  0  0  0  0  0  0  0  0  # atno 17371 bound_to 10713
  140.6192  134.5379  157.5545 LP  0  0  0  0  0  0  0  0  0  0  0  0  # atno 17394 bound_to 11000
  139.9293  134.7995  156.0977 LP  0  0  0  0  0  0  0  0  0  0  0  0  # atno 17395 bound_to 11000

$$$$
