AV-unprocessed.smi:1784|AV-procd|sdf|7196|dock5
  -GOLD-   22720 8433D 1   1.00000     0.00000
 Structure written by MMmdl.
 43 45  0  0  0  0  0  0  0  0  1 V2000
  151.8400  141.7898  157.5085 O   0  0  0  0  0  0  0  0  0  0  0  0
  150.9915  142.5885  157.1116 C   0  0  0  0  0  0  0  0  0  0  0  0
  150.9001  143.8483  157.5548 N   0  0  0  0  0  0  0  0  0  0  0  0
  151.7680  144.4290  158.5692 C   0  0  0  0  0  0  0  0  0  0  0  0
  151.7369  143.5861  159.8511 C   0  0  2  0  0  0  0  0  0  0  0  0
  152.1382  144.3585  161.1055 C   0  0  0  0  0  0  0  0  0  0  0  0
  152.5880  143.2400  162.0172 C   0  0  0  0  0  0  0  0  0  0  0  0
  153.2923  142.3026  161.0401 C   0  0  0  0  0  0  0  0  0  0  0  0
  152.6713  142.5118  159.7736 O   0  0  0  0  0  0  0  0  0  0  0  0
  150.0573  142.3349  156.1801 N   0  0  0  0  0  0  0  0  0  0  0  0
  149.8168  141.1249  155.4682 C   0  0  0  0  0  0  0  0  0  0  0  0
  150.7768  140.0887  155.3646 C   0  0  0  0  0  0  0  0  0  0  0  0
  150.4474  138.9165  154.6600 C   0  0  0  0  0  0  0  0  0  0  0  0
  149.1658  138.8167  154.0900 C   0  0  0  0  0  0  0  0  0  0  0  0
  148.2348  139.7868  154.1929 N   0  0  0  0  0  0  0  0  0  0  0  0
  148.5467  140.9184  154.8707 C   0  0  0  0  0  0  0  0  0  0  0  0
  147.5557  141.9114  154.9725 N   0  0  0  0  0  0  0  0  0  0  0  0
  147.1007  142.4826  153.7158 C   0  0  0  0  0  0  0  0  0  0  0  0
  145.8075  143.2273  154.0551 C   0  0  0  0  0  0  0  0  0  0  0  0
  145.3019  142.5701  155.3451 C   0  0  0  0  0  0  0  0  0  0  0  0
  146.3570  141.5160  155.6929 C   0  0  0  0  0  0  0  0  0  0  0  0
  150.1763  144.4416  157.1763 H   0  0  0  0  0  0  0  0  0  0  0  0
  152.7875  144.4998  158.1865 H   0  0  0  0  0  0  0  0  0  0  0  0
  151.4326  145.4445  158.7858 H   0  0  0  0  0  0  0  0  0  0  0  0
  150.7435  143.1594  159.9998 H   0  0  0  0  0  0  0  0  0  0  0  0
  152.9744  145.0275  160.8963 H   0  0  0  0  0  0  0  0  0  0  0  0
  151.3215  144.9489  161.5216 H   0  0  0  0  0  0  0  0  0  0  0  0
  153.2351  143.5774  162.8273 H   0  0  0  0  0  0  0  0  0  0  0  0
  151.7202  142.7444  162.4545 H   0  0  0  0  0  0  0  0  0  0  0  0
  154.3477  142.5633  160.9540 H   0  0  0  0  0  0  0  0  0  0  0  0
  153.2259  141.2590  161.3481 H   0  0  0  0  0  0  0  0  0  0  0  0
  149.4944  143.1216  155.8914 H   0  0  0  0  0  0  0  0  0  0  0  0
  151.7507  140.1632  155.8232 H   0  0  0  0  0  0  0  0  0  0  0  0
  151.1596  138.1105  154.5632 H   0  0  0  0  0  0  0  0  0  0  0  0
  148.8779  137.9319  153.5421 H   0  0  0  0  0  0  0  0  0  0  0  0
  147.8512  143.1514  153.2933 H   0  0  0  0  0  0  0  0  0  0  0  0
  146.8989  141.6980  152.9854 H   0  0  0  0  0  0  0  0  0  0  0  0
  146.0159  144.2826  154.2352 H   0  0  0  0  0  0  0  0  0  0  0  0
  145.0822  143.1653  153.2434 H   0  0  0  0  0  0  0  0  0  0  0  0
  145.2299  143.3147  156.1389 H   0  0  0  0  0  0  0  0  0  0  0  0
  144.3161  142.1208  155.2208 H   0  0  0  0  0  0  0  0  0  0  0  0
  146.0232  140.5293  155.3683 H   0  0  0  0  0  0  0  0  0  0  0  0
  146.5415  141.4721  156.7668 H   0  0  0  0  0  0  0  0  0  0  0  0
  1  2  2  0  0  0  0
  2  3  1  0  0  0  0
  2 10  1  0  0  0  0
  3  4  1  0  0  0  0
  3 22  1  0  0  0  0
  4  5  1  0  0  0  0
  4 23  1  0  0  0  0
  4 24  1  0  0  0  0
  5  9  1  0  0  0  0
  5  6  1  0  0  0  0
  5 25  1  0  0  0  0
  6  7  1  0  0  0  0
  6 26  1  0  0  0  0
  6 27  1  0  0  0  0
  7  8  1  0  0  0  0
  7 28  1  0  0  0  0
  7 29  1  0  0  0  0
  8  9  1  0  0  0  0
  8 30  1  0  0  0  0
  8 31  1  0  0  0  0
 10 11  1  0  0  0  0
 10 32  1  0  0  0  0
 11 16  1  0  0  0  0
 11 12  2  0  0  0  0
 12 13  1  0  0  0  0
 12 33  1  0  0  0  0
 13 14  2  0  0  0  0
 13 34  1  0  0  0  0
 14 15  1  0  0  0  0
 14 35  1  0  0  0  0
 15 16  2  0  0  0  0
 16 17  1  0  0  0  0
 17 21  1  0  0  0  0
 17 18  1  0  0  0  0
 18 19  1  0  0  0  0
 18 36  1  0  0  0  0
 18 37  1  0  0  0  0
 19 20  1  0  0  0  0
 19 38  1  0  0  0  0
 19 39  1  0  0  0  0
 20 21  1  0  0  0  0
 20 40  1  0  0  0  0
 20 41  1  0  0  0  0
 21 42  1  0  0  0  0
 21 43  1  0  0  0  0
M  END
> <s_m_source_file>
AV-unprocessed.smi

> <i_m_source_file_index>
1784

> <i_lp_mmshare_version>
43012

> <i_f3d_flags>
0

> <s_epik_input>
TzFbQ0gyXVtDSDJdW0NIMl1bQ0BIXTFbQ0gyXVtOSF1DKD1PKVtOSF1jMltjSF1bY0hdW2NIXW5jMk4zW0NIMl1bQ0gyXVtDSDJdW0NIMl0z

> <s_epik_cmdline>
J2VwaWtfcHl0aG9uJywgJy1waCcsICc3LjAnLCAnLXRuJywgJzgnLCAnLW1hJywgJzIwMCcsICctbWV0YWxfYmluZGluZycsICctaW1hZScsICc8aW5maWxlLm1hZT4nLCAnLW9tYWUnLCAnPG91dGZpbGUubWFlPic=

> <r_lp_tautomer_probability>
1

> <r_epik_Ionization_Penalty>
0.0982482

> <r_epik_Ionization_Penalty_Charging>
0

> <r_epik_Ionization_Penalty_Neutral>
0.0982482

> <r_epik_State_Penalty>
0.0877864

> <r_epik_Charging_Adjusted_Penalty>
0.0877864

> <i_epik_Tot_Q>
0

> <i_epik_Tot_abs_Q>
0

> <r_epik_Metal_State_Penalty>
0.0752567

> <b_epik_Metal_Only>
0

> <s_lp_Force_Field>
OPLS_2005

> <r_lp_Energy>
47.4963

> <b_lp_Chiralities_Consistent>
1

> <s_lp_Variant>
AV-unprocessed.smi:1784-1

> <Gold.Version>
5.8.1

> <Gold.Id.Protein>
6NUR|6NUR_protein|mol2

> <Gold.PLP.Fitness>
55.3510

> <Gold.PLP.PLP>
-47.2061

> <Gold.PLP.part.hbond>
-2.0000

> <Gold.PLP.part.metal>
0.0000

> <Gold.PLP.part.buried>
-6.1129

> <Gold.PLP.part.nonpolar>
-39.1292

> <Gold.PLP.part.repulsive>
0.3878

> <Gold.PLP.ligand.clash>
0.0000

> <Gold.PLP.ligand.torsion>
0.3659

> <Gold.PLP.Chemscore.Hbond>
1.9440

> <Gold.PLP.Chemscore.CHOScore>
1.0000

> <Gold.PLP.Chemscore.Metal>
0.0000

> <Gold.Chemscore.Hbonds>
donor molecule, donor type, donor heavy atom, donor atom, acceptor molecule, acceptor atom, score
      L1  H     3    22       P1  8028  0.94
      L1  H    10    32       P1  8028  1.00
      L1  C    14    35       P1  7948  1.00

> <Gold.PLP.Chemscore.Internal.Correction>
0.0448

> <Gold.Rescore>
     Score         DG    S(hbond)    S(metal)    S(lipo)     H(rot)  DE(clash)    DE(int)     intcor
     17.11     -20.58       1.90        0.00     105.09       1.38       0.39       3.08       ----

> <Gold.Chemscore.Fitness>
17.1135

> <Gold.Chemscore.DG>
-20.5850

> <Gold.Chemscore.ZeroCoef>
-5.4800

> <Gold.Chemscore.Hbond>
1.8986

> <Gold.Chemscore.Metal>
0.0000

> <Gold.Chemscore.Lipo>
105.0890

> <Gold.Chemscore.Internal_Hbond>
0.0000

> <Gold.Chemscore.DEClash>
0.3904

> <Gold.Chemscore.DEInternal>
3.0811

> <Gold.Chemscore.Rot>
1.3796

> <Gold.Chemscore.Internal.Correction>
   9.000000E+99

> <Gold.Chemscore.Hbonds>
donor molecule, donor type, donor heavy atom, donor atom, acceptor molecule, acceptor atom, score
      L1  H     3    22       P1  8028  0.54
      L1  H    10    32       P1  8028  1.00

> <Gold.Chemscore.Hbond.Weighted>
-6.3413

> <Gold.Chemscore.Metal.Weighted>
-0.0000

> <Gold.Chemscore.Lipo.Weighted>
-12.2954

> <Gold.Chemscore.Internal_Hbond.Weighted>
0.0000

> <Gold.Chemscore.DEClash.Weighted>
0.3904

> <Gold.Chemscore.DEInternal.Weighted>
3.0811

> <Gold.Chemscore.Rot.Weighted>
3.5317

> <Gold.Chemscore.Internal.Correction.Weighted>
   9.000000E+99

> <Gold.Protein.RotatedTorsions>
[ 6907 6896 6895 6894 ] final   14.77 input  -60.11 | X-H torsion
[ 7974 7965 7964 7962 ] final   43.70 input  175.53 | X-H torsion
[ 8008 7997 7996 7995 ] final  -73.10 input   59.86 | X-H torsion
[ 10167 10162 10161 10158 ] final   51.27 input  -65.29 | X-H torsion
[ 10718 10713 10712 10709 ] final   90.91 input   66.30 | X-H torsion
[ 10763 10752 10751 10750 ] final   74.61 input  -60.55 | X-H torsion
[ 11005 11000 10999 10996 ] final  104.89 input  -57.11 | X-H torsion

> <Gold.Protein.ActiveResidues>
 VAL166  LYS551  ARG553  GLY616  TRP617  ASP618  TYR619  PRO620  LYS621  CYS622 
 ASP623  PHE694  ASN695  SER759  ASP760  ASP761  ALA762  ILE779  LEU786  VAL792 
 PHE793  MET794  SER795  GLU796  ALA797  LYS798  CYS799  TRP800  GLU811  SER814 

> <Gold.Protein.RotatedAtoms>
  151.8075  135.0690  160.0408 H   0  0  0  0  0  0  0  0  0  0  0  0  # atno 6907 bound_to 6896
  152.3044  133.5684  159.5648 H   0  0  0  0  0  0  0  0  0  0  0  0  # atno 6908 bound_to 6896
  150.7289  134.0160  159.3727 H   0  0  0  0  0  0  0  0  0  0  0  0  # atno 6909 bound_to 6896
  146.0632  139.5157  142.9644 H   0  0  0  0  0  0  0  0  0  0  0  0  # atno 7974 bound_to 7965
  154.5220  140.0785  156.8189 H   0  0  0  0  0  0  0  0  0  0  0  0  # atno 8008 bound_to 7997
  155.3556  140.3415  155.4222 H   0  0  0  0  0  0  0  0  0  0  0  0  # atno 8009 bound_to 7997
  156.1691  140.1614  156.8466 H   0  0  0  0  0  0  0  0  0  0  0  0  # atno 8010 bound_to 7997
  140.2637  144.3344  150.6310 H   0  0  0  0  0  0  0  0  0  0  0  0  # atno 10167 bound_to 10162
  157.6960  131.0388  150.3649 H   0  0  0  0  0  0  0  0  0  0  0  0  # atno 10718 bound_to 10713
  153.0598  135.5019  154.8068 H   0  0  0  0  0  0  0  0  0  0  0  0  # atno 10763 bound_to 10752
  154.6865  135.2977  154.9542 H   0  0  0  0  0  0  0  0  0  0  0  0  # atno 10764 bound_to 10752
  154.0311  135.6729  153.4833 H   0  0  0  0  0  0  0  0  0  0  0  0  # atno 10765 bound_to 10752
  139.8796  134.9316  156.5431 H   0  0  0  0  0  0  0  0  0  0  0  0  # atno 11005 bound_to 11000
  145.6523  141.0260  143.1754 LP  0  0  0  0  0  0  0  0  0  0  0  0  # atno 17320 bound_to 7965
  144.7187  139.8105  143.7389 LP  0  0  0  0  0  0  0  0  0  0  0  0  # atno 17321 bound_to 7965
  140.5945  143.2167  151.7190 LP  0  0  0  0  0  0  0  0  0  0  0  0  # atno 17342 bound_to 10162
  139.5009  144.3888  152.0301 LP  0  0  0  0  0  0  0  0  0  0  0  0  # atno 17343 bound_to 10162
  156.4081  130.3929  149.6911 LP  0  0  0  0  0  0  0  0  0  0  0  0  # atno 17370 bound_to 10713
  156.4205  130.7766  151.2783 LP  0  0  0  0  0  0  0  0  0  0  0  0  # atno 17371 bound_to 10713
  140.8296  133.8289  155.8971 LP  0  0  0  0  0  0  0  0  0  0  0  0  # atno 17394 bound_to 11000
  140.9341  134.1984  157.4843 LP  0  0  0  0  0  0  0  0  0  0  0  0  # atno 17395 bound_to 11000

$$$$
