AV-unprocessed.smi:771|AV-procd|sdf|3683|dock4
  -GOLD-   22720 1103D 1   1.00000     0.00000
 Structure written by MMmdl.
 41 42  0  0  0  0  0  0  0  0  3 V2000
  145.7659  138.6908  154.5311 O   0  0  0  0  0  0  0  0  0  0  0  0
  146.7192  138.3835  153.8138 C   0  0  0  0  0  0  0  0  0  0  0  0
  147.5658  139.4605  153.1200 C   0  0  0  0  0  0  0  0  0  0  0  0
  148.7295  139.8930  153.9126 N   0  0  0  0  0  0  0  0  0  0  0  0
  149.8124  138.9959  153.9996 C   0  0  0  0  0  0  0  0  0  0  0  0
  150.9254  139.2834  154.7027 C   0  0  0  0  0  0  0  0  0  0  0  0
  152.0263  138.3488  154.7844 N   0  3  0  0  0  0  0  0  0  0  0  0
  151.8469  137.1946  154.4092 O   0  0  0  0  0  0  0  0  0  0  0  0
  153.1045  138.7351  155.2256 O   0  5  0  0  0  0  0  0  0  0  0  0
  150.9829  140.5644  155.3798 C   0  0  0  0  0  0  0  0  0  0  0  0
  149.9487  141.4249  155.3039 C   0  0  0  0  0  0  0  0  0  0  0  0
  148.7365  141.1079  154.5417 C   0  0  0  0  0  0  0  0  0  0  0  0
  147.7855  141.8868  154.4742 O   0  0  0  0  0  0  0  0  0  0  0  0
  147.1007  137.1146  153.6016 N   0  0  0  0  0  0  0  0  0  0  0  0
  146.4574  135.9286  154.1605 C   0  0  0  0  0  0  0  0  0  0  0  0
  145.5590  135.2033  153.1329 C   0  0  2  0  0  0  0  0  0  0  0  0
  146.2439  133.9279  152.5970 C   0  0  0  0  0  0  0  0  0  0  0  0
  145.3315  133.1534  151.6325 C   0  0  0  0  0  0  0  0  0  0  0  0
  144.8720  134.0406  150.4667 C   0  0  0  0  0  0  0  0  0  0  0  0
  144.1859  135.3191  150.9767 C   0  0  0  0  0  0  0  0  0  0  0  0
  145.0716  136.1023  151.9655 C   0  0  2  0  0  0  0  0  0  0  0  0
  146.1649  136.6660  151.2655 O   0  0  0  0  0  0  0  0  0  0  0  0
  147.8887  139.0695  152.1540 H   0  0  0  0  0  0  0  0  0  0  0  0
  146.9309  140.3160  152.8820 H   0  0  0  0  0  0  0  0  0  0  0  0
  149.6688  138.0675  153.4657 H   0  0  0  0  0  0  0  0  0  0  0  0
  151.8545  140.8429  155.9535 H   0  0  0  0  0  0  0  0  0  0  0  0
  150.0122  142.3730  155.8173 H   0  0  0  0  0  0  0  0  0  0  0  0
  147.8980  136.9564  153.0022 H   0  0  0  0  0  0  0  0  0  0  0  0
  147.1927  135.2415  154.5825 H   0  0  0  0  0  0  0  0  0  0  0  0
  145.8482  136.2622  155.0012 H   0  0  0  0  0  0  0  0  0  0  0  0
  144.6684  134.8763  153.6722 H   0  0  0  0  0  0  0  0  0  0  0  0
  147.1730  134.1901  152.0890 H   0  0  0  0  0  0  0  0  0  0  0  0
  146.5226  133.2786  153.4274 H   0  0  0  0  0  0  0  0  0  0  0  0
  145.8556  132.2779  151.2480 H   0  0  0  0  0  0  0  0  0  0  0  0
  144.4611  132.7794  152.1729 H   0  0  0  0  0  0  0  0  0  0  0  0
  145.7307  134.3039  149.8480 H   0  0  0  0  0  0  0  0  0  0  0  0
  144.1893  133.4848  149.8232 H   0  0  0  0  0  0  0  0  0  0  0  0
  143.9049  135.9541  150.1357 H   0  0  0  0  0  0  0  0  0  0  0  0
  143.2543  135.0456  151.4738 H   0  0  0  0  0  0  0  0  0  0  0  0
  144.4840  136.9310  152.3608 H   0  0  0  0  0  0  0  0  0  0  0  0
  146.9542  136.5018  151.7599 H   0  0  0  0  0  0  0  0  0  0  0  0
  1  2  2  0  0  0  0
  2  3  1  0  0  0  0
  2 14  1  0  0  0  0
  3  4  1  0  0  0  0
  3 23  1  0  0  0  0
  3 24  1  0  0  0  0
  4 12  1  0  0  0  0
  4  5  1  0  0  0  0
  5  6  2  0  0  0  0
  5 25  1  0  0  0  0
  6  7  1  0  0  0  0
  6 10  1  0  0  0  0
  7  8  2  0  0  0  0
  7  9  1  0  0  0  0
 10 11  2  0  0  0  0
 10 26  1  0  0  0  0
 11 12  1  0  0  0  0
 11 27  1  0  0  0  0
 12 13  2  0  0  0  0
 14 15  1  0  0  0  0
 14 28  1  0  0  0  0
 15 16  1  0  0  0  0
 15 29  1  0  0  0  0
 15 30  1  0  0  0  0
 16 21  1  0  0  0  0
 16 17  1  0  0  0  0
 16 31  1  0  0  0  0
 17 18  1  0  0  0  0
 17 32  1  0  0  0  0
 17 33  1  0  0  0  0
 18 19  1  0  0  0  0
 18 34  1  0  0  0  0
 18 35  1  0  0  0  0
 19 20  1  0  0  0  0
 19 36  1  0  0  0  0
 19 37  1  0  0  0  0
 20 21  1  0  0  0  0
 20 38  1  0  0  0  0
 20 39  1  0  0  0  0
 21 22  1  0  0  0  0
 21 40  1  0  0  0  0
 22 41  1  0  0  0  0
M  CHG  1   7   1
M  CHG  1   9  -1
M  END
> <s_m_source_file>
AV-unprocessed.smi

> <i_m_source_file_index>
771

> <i_lp_mmshare_version>
43012

> <i_f3d_flags>
0

> <s_epik_input>
Tz1jMVtjSF1bY0hdYyhbTitdKD1PKVtPLV0pW2NIXW4xW0NIMl1DKD1PKVtOSF1bQ0gyXVtDQEBIXTJbQ0gyXVtDSDJdW0NIMl1bQ0gyXVtDQEhdMltPSF0=

> <s_epik_cmdline>
J2VwaWtfcHl0aG9uJywgJy1waCcsICc3LjAnLCAnLXRuJywgJzgnLCAnLW1hJywgJzIwMCcsICctbWV0YWxfYmluZGluZycsICctaW1hZScsICc8aW5maWxlLm1hZT4nLCAnLW9tYWUnLCAnPG91dGZpbGUubWFlPic=

> <r_lp_tautomer_probability>
1

> <r_epik_Ionization_Penalty>
3.77175e-07

> <r_epik_Ionization_Penalty_Charging>
7.70067e-11

> <r_epik_Ionization_Penalty_Neutral>
3.77098e-07

> <r_epik_State_Penalty>
-0

> <r_epik_Charging_Adjusted_Penalty>
7.70067e-11

> <i_epik_Tot_Q>
0

> <i_epik_Tot_abs_Q>
2

> <r_epik_Metal_State_Penalty>
-0

> <b_epik_Metal_Only>
0

> <s_lp_Force_Field>
OPLS_2005

> <r_lp_Energy>
25.3676

> <b_lp_Chiralities_Consistent>
1

> <s_lp_Variant>
AV-unprocessed.smi:771-3

> <Gold.Version>
5.8.1

> <Gold.Id.Protein>
6NUR|6NUR_protein|mol2

> <Gold.PLP.Fitness>
49.2015

> <Gold.PLP.PLP>
-37.1353

> <Gold.PLP.part.hbond>
-4.1512

> <Gold.PLP.part.metal>
0.0000

> <Gold.PLP.part.buried>
-0.4319

> <Gold.PLP.part.nonpolar>
-32.3035

> <Gold.PLP.part.repulsive>
0.3789

> <Gold.PLP.ligand.clash>
0.0000

> <Gold.PLP.ligand.torsion>
1.2993

> <Gold.PLP.Chemscore.Hbond>
3.9913

> <Gold.PLP.Chemscore.CHOScore>
0.8887

> <Gold.PLP.Chemscore.Metal>
0.0000

> <Gold.Chemscore.Hbonds>
donor molecule, donor type, donor heavy atom, donor atom, acceptor molecule, acceptor atom, score
      L1  H    14    28       P1  7948  1.00
      L1  H    22    41       P1  7948  0.99
      P1  H  7997  8010       L1     9  0.88
      P1  H 10752 10765       L1     8  1.00
      L1  C     5    25       P1  7948  1.00

> <Gold.PLP.Chemscore.Internal.Correction>
0.0250

> <Gold.Rescore>
     Score         DG    S(hbond)    S(metal)    S(lipo)     H(rot)  DE(clash)    DE(int)     intcor
     16.29     -19.73       3.81        0.00      67.34       2.48       0.16       3.28       ----

> <Gold.Chemscore.Fitness>
16.2874

> <Gold.Chemscore.DG>
-19.7336

> <Gold.Chemscore.ZeroCoef>
-5.4800

> <Gold.Chemscore.Hbond>
3.8059

> <Gold.Chemscore.Metal>
0.0000

> <Gold.Chemscore.Lipo>
67.3409

> <Gold.Chemscore.Internal_Hbond>
0.0000

> <Gold.Chemscore.DEClash>
0.1625

> <Gold.Chemscore.DEInternal>
3.2838

> <Gold.Chemscore.Rot>
2.4753

> <Gold.Chemscore.Internal.Correction>
   9.000000E+99

> <Gold.Chemscore.Hbonds>
donor molecule, donor type, donor heavy atom, donor atom, acceptor molecule, acceptor atom, score
      L1  H    14    28       P1  7948  1.00
      L1  H    22    41       P1  7948  0.91
      P1  H  7997  8010       L1     9  0.84
      P1  H 10752 10765       L1     8  0.96

> <Gold.Chemscore.Hbond.Weighted>
-12.7116

> <Gold.Chemscore.Metal.Weighted>
-0.0000

> <Gold.Chemscore.Lipo.Weighted>
-7.8789

> <Gold.Chemscore.Internal_Hbond.Weighted>
0.0000

> <Gold.Chemscore.DEClash.Weighted>
0.1625

> <Gold.Chemscore.DEInternal.Weighted>
3.2838

> <Gold.Chemscore.Rot.Weighted>
6.3369

> <Gold.Chemscore.Internal.Correction.Weighted>
   9.000000E+99

> <Gold.Protein.RotatedTorsions>
[ 6907 6896 6895 6894 ] final  -52.59 input  -60.11 | X-H torsion
[ 7974 7965 7964 7962 ] final  147.31 input  175.53 | X-H torsion
[ 8008 7997 7996 7995 ] final  100.66 input   59.86 | X-H torsion
[ 10167 10162 10161 10158 ] final  128.78 input  -65.29 | X-H torsion
[ 10718 10713 10712 10709 ] final  174.56 input   66.30 | X-H torsion
[ 10763 10752 10751 10750 ] final  165.31 input  -60.55 | X-H torsion
[ 11005 11000 10999 10996 ] final   83.73 input  -57.11 | X-H torsion

> <Gold.Protein.ActiveResidues>
 VAL166  LYS551  ARG553  GLY616  TRP617  ASP618  TYR619  PRO620  LYS621  CYS622 
 ASP623  PHE694  ASN695  SER759  ASP760  ASP761  ALA762  ILE779  LEU786  VAL792 
 PHE793  MET794  SER795  GLU796  ALA797  LYS798  CYS799  TRP800  GLU811  SER814 

> <Gold.Protein.RotatedAtoms>
  150.8504  134.7827  159.7003 H   0  0  0  0  0  0  0  0  0  0  0  0  # atno 6907 bound_to 6896
  152.4570  134.5266  159.9808 H   0  0  0  0  0  0  0  0  0  0  0  0  # atno 6908 bound_to 6896
  151.5388  133.3398  159.2967 H   0  0  0  0  0  0  0  0  0  0  0  0  # atno 6909 bound_to 6896
  144.8601  139.6013  143.5934 H   0  0  0  0  0  0  0  0  0  0  0  0  # atno 7974 bound_to 7965
  156.1225  140.3210  155.8228 H   0  0  0  0  0  0  0  0  0  0  0  0  # atno 8008 bound_to 7997
  155.4479  140.0530  157.3021 H   0  0  0  0  0  0  0  0  0  0  0  0  # atno 8009 bound_to 7997
  154.4838  140.2064  155.9716 H   0  0  0  0  0  0  0  0  0  0  0  0  # atno 8010 bound_to 7997
  139.5510  144.6813  151.4324 H   0  0  0  0  0  0  0  0  0  0  0  0  # atno 10167 bound_to 10162
  156.9478  131.0021  151.2955 H   0  0  0  0  0  0  0  0  0  0  0  0  # atno 10718 bound_to 10713
  154.3220  135.2756  155.2514 H   0  0  0  0  0  0  0  0  0  0  0  0  # atno 10763 bound_to 10752
  154.4864  135.5845  153.6430 H   0  0  0  0  0  0  0  0  0  0  0  0  # atno 10764 bound_to 10752
  152.9875  135.6124  154.3406 H   0  0  0  0  0  0  0  0  0  0  0  0  # atno 10765 bound_to 10752
  139.9022  134.8165  156.2348 H   0  0  0  0  0  0  0  0  0  0  0  0  # atno 11005 bound_to 11000
  146.2854  139.6990  142.9199 LP  0  0  0  0  0  0  0  0  0  0  0  0  # atno 17320 bound_to 7965
  145.4328  141.0416  143.2901 LP  0  0  0  0  0  0  0  0  0  0  0  0  # atno 17321 bound_to 7965
  140.6772  143.8162  150.7074 LP  0  0  0  0  0  0  0  0  0  0  0  0  # atno 17342 bound_to 10162
  140.1605  143.4280  152.2070 LP  0  0  0  0  0  0  0  0  0  0  0  0  # atno 17343 bound_to 10162
  157.5742  130.8331  149.8433 LP  0  0  0  0  0  0  0  0  0  0  0  0  # atno 17370 bound_to 10713
  156.0376  130.3747  150.1519 LP  0  0  0  0  0  0  0  0  0  0  0  0  # atno 17371 bound_to 10713
  141.0322  133.6982  156.1450 LP  0  0  0  0  0  0  0  0  0  0  0  0  # atno 17394 bound_to 11000
  140.7079  134.4493  157.5583 LP  0  0  0  0  0  0  0  0  0  0  0  0  # atno 17395 bound_to 11000

$$$$
