AV-unprocessed.smi:33|AV-procd|sdf|200|dock4
  -GOLD-   2262015473D 1   1.00000     0.00000
 Structure written by MMmdl.
 67 72  0  0  0  0  0  0  0  0  1 V2000
  153.7500  139.7513  158.9671 O   0  0  0  0  0  0  0  0  0  0  0  0
  153.0427  140.7580  158.8910 C   0  0  0  0  0  0  0  0  0  0  0  0
  152.3343  141.0904  157.7940 O   0  0  0  0  0  0  0  0  0  0  0  0
  151.8429  140.0781  156.9311 C   0  0  0  0  0  0  0  0  0  0  0  0
  151.0505  140.7296  155.7859 C   0  0  1  0  0  0  0  0  0  0  0  0
  150.8663  139.7990  154.7211 O   0  0  0  0  0  0  0  0  0  0  0  0
  149.6541  139.1129  154.8554 C   0  0  1  0  0  0  0  0  0  0  0  0
  149.9444  137.6720  155.1537 N   0  0  0  0  0  0  0  0  0  0  0  0
  151.1557  137.0494  155.3739 C   0  0  0  0  0  0  0  0  0  0  0  0
  151.0920  135.7621  155.5863 N   0  0  0  0  0  0  0  0  0  0  0  0
  149.7375  135.4708  155.4868 C   0  0  0  0  0  0  0  0  0  0  0  0
  148.9663  134.2817  155.6014 C   0  0  0  0  0  0  0  0  0  0  0  0
  149.5094  133.0701  155.8731 N   0  0  0  0  0  0  0  0  0  0  0  0
  150.7003  133.0471  156.7358 C   0  0  0  0  0  0  0  0  0  0  0  0
  150.8903  133.9661  157.5348 O   0  0  0  0  0  0  0  0  0  0  0  0
  151.6563  131.8890  156.6833 C   0  0  0  0  0  0  0  0  0  0  0  0
  151.7359  131.0895  155.5219 C   0  0  0  0  0  0  0  0  0  0  0  0
  152.6217  129.9956  155.4721 C   0  0  0  0  0  0  0  0  0  0  0  0
  153.4189  129.6825  156.5895 C   0  0  0  0  0  0  0  0  0  0  0  0
  153.3231  130.4576  157.7607 C   0  0  0  0  0  0  0  0  0  0  0  0
  152.4385  131.5522  157.8110 C   0  0  0  0  0  0  0  0  0  0  0  0
  148.8533  131.8874  155.2931 C   0  0  0  0  0  0  0  0  0  0  0  0
  148.9783  130.7924  155.8445 O   0  0  0  0  0  0  0  0  0  0  0  0
  147.9875  132.0152  154.0711 C   0  0  0  0  0  0  0  0  0  0  0  0
  146.8298  131.2170  153.9396 C   0  0  0  0  0  0  0  0  0  0  0  0
  146.0214  131.3216  152.7910 C   0  0  0  0  0  0  0  0  0  0  0  0
  146.3746  132.2113  151.7588 C   0  0  0  0  0  0  0  0  0  0  0  0
  147.5427  132.9890  151.8705 C   0  0  0  0  0  0  0  0  0  0  0  0
  148.3522  132.8845  153.0181 C   0  0  0  0  0  0  0  0  0  0  0  0
  147.6218  134.3783  155.4277 N   0  0  0  0  0  0  0  0  0  0  0  0
  147.0685  135.5636  155.1547 C   0  0  0  0  0  0  0  0  0  0  0  0
  147.6624  136.7519  155.0205 N   0  0  0  0  0  0  0  0  0  0  0  0
  149.0119  136.6587  155.1997 C   0  0  0  0  0  0  0  0  0  0  0  0
  148.8421  139.8137  155.9700 C   0  0  1  0  0  0  0  0  0  0  0  0
  148.7430  139.0888  157.1839 O   0  0  0  0  0  0  0  0  0  0  0  0
  149.6222  141.0994  156.1847 C   0  0  2  0  0  0  0  0  0  0  0  0
  149.1632  142.0420  155.3596 F   0  0  0  0  0  0  0  0  0  0  0  0
  152.8815  141.7369  160.0045 C   0  0  0  0  0  0  0  0  0  0  0  0
  152.1657  142.9352  159.7755 C   0  0  0  0  0  0  0  0  0  0  0  0
  152.0015  143.8811  160.8060 C   0  0  0  0  0  0  0  0  0  0  0  0
  152.5519  143.6407  162.0784 C   0  0  0  0  0  0  0  0  0  0  0  0
  153.2656  142.4523  162.3192 C   0  0  0  0  0  0  0  0  0  0  0  0
  153.4299  141.5046  161.2901 C   0  0  0  0  0  0  0  0  0  0  0  0
  152.6569  139.4654  156.5429 H   0  0  0  0  0  0  0  0  0  0  0  0
  151.1913  139.4213  157.5086 H   0  0  0  0  0  0  0  0  0  0  0  0
  151.5886  141.6093  155.4304 H   0  0  0  0  0  0  0  0  0  0  0  0
  149.1374  139.0896  153.8950 H   0  0  0  0  0  0  0  0  0  0  0  0
  152.0985  137.5763  155.3723 H   0  0  0  0  0  0  0  0  0  0  0  0
  151.1291  131.3208  154.6582 H   0  0  0  0  0  0  0  0  0  0  0  0
  152.6888  129.3963  154.5762 H   0  0  0  0  0  0  0  0  0  0  0  0
  154.0983  128.8439  156.5505 H   0  0  0  0  0  0  0  0  0  0  0  0
  153.9271  130.2124  158.6217 H   0  0  0  0  0  0  0  0  0  0  0  0
  152.3698  132.1371  158.7171 H   0  0  0  0  0  0  0  0  0  0  0  0
  146.5486  130.5310  154.7256 H   0  0  0  0  0  0  0  0  0  0  0  0
  145.1299  130.7182  152.7019 H   0  0  0  0  0  0  0  0  0  0  0  0
  145.7538  132.2918  150.8787 H   0  0  0  0  0  0  0  0  0  0  0  0
  147.8191  133.6654  151.0750 H   0  0  0  0  0  0  0  0  0  0  0  0
  149.2492  133.4827  153.0897 H   0  0  0  0  0  0  0  0  0  0  0  0
  145.9961  135.5597  155.0272 H   0  0  0  0  0  0  0  0  0  0  0  0
  147.8310  140.0108  155.6118 H   0  0  0  0  0  0  0  0  0  0  0  0
  148.1194  139.5285  157.7424 H   0  0  0  0  0  0  0  0  0  0  0  0
  149.5413  141.5020  157.1954 H   0  0  0  0  0  0  0  0  0  0  0  0
  151.7354  143.1428  158.8064 H   0  0  0  0  0  0  0  0  0  0  0  0
  151.4536  144.7929  160.6190 H   0  0  0  0  0  0  0  0  0  0  0  0
  152.4268  144.3665  162.8684 H   0  0  0  0  0  0  0  0  0  0  0  0
  153.6893  142.2669  163.2953 H   0  0  0  0  0  0  0  0  0  0  0  0
  153.9845  140.6038  161.5087 H   0  0  0  0  0  0  0  0  0  0  0  0
  1  2  2  0  0  0  0
  2  3  1  0  0  0  0
  2 38  1  0  0  0  0
  3  4  1  0  0  0  0
  4  5  1  0  0  0  0
  4 44  1  0  0  0  0
  4 45  1  0  0  0  0
  5 36  1  0  0  0  0
  5  6  1  0  0  0  0
  5 46  1  0  0  0  0
  6  7  1  0  0  0  0
  7  8  1  0  0  0  0
  7 34  1  0  0  0  0
  7 47  1  0  0  0  0
  8 33  1  0  0  0  0
  8  9  1  0  0  0  0
  9 10  2  0  0  0  0
  9 48  1  0  0  0  0
 10 11  1  0  0  0  0
 11 33  2  0  0  0  0
 11 12  1  0  0  0  0
 12 13  1  0  0  0  0
 12 30  2  0  0  0  0
 13 14  1  0  0  0  0
 13 22  1  0  0  0  0
 14 15  2  0  0  0  0
 14 16  1  0  0  0  0
 16 21  1  0  0  0  0
 16 17  2  0  0  0  0
 17 18  1  0  0  0  0
 17 49  1  0  0  0  0
 18 19  2  0  0  0  0
 18 50  1  0  0  0  0
 19 20  1  0  0  0  0
 19 51  1  0  0  0  0
 20 21  2  0  0  0  0
 20 52  1  0  0  0  0
 21 53  1  0  0  0  0
 22 23  2  0  0  0  0
 22 24  1  0  0  0  0
 24 29  1  0  0  0  0
 24 25  2  0  0  0  0
 25 26  1  0  0  0  0
 25 54  1  0  0  0  0
 26 27  2  0  0  0  0
 26 55  1  0  0  0  0
 27 28  1  0  0  0  0
 27 56  1  0  0  0  0
 28 29  2  0  0  0  0
 28 57  1  0  0  0  0
 29 58  1  0  0  0  0
 30 31  1  0  0  0  0
 31 32  2  0  0  0  0
 31 59  1  0  0  0  0
 32 33  1  0  0  0  0
 34 35  1  0  0  0  0
 34 36  1  0  0  0  0
 34 60  1  0  0  0  0
 35 61  1  0  0  0  0
 36 37  1  0  0  0  0
 36 62  1  0  0  0  0
 38 43  1  0  0  0  0
 38 39  2  0  0  0  0
 39 40  1  0  0  0  0
 39 63  1  0  0  0  0
 40 41  2  0  0  0  0
 40 64  1  0  0  0  0
 41 42  1  0  0  0  0
 41 65  1  0  0  0  0
 42 43  2  0  0  0  0
 42 66  1  0  0  0  0
 43 67  1  0  0  0  0
M  END
> <s_m_source_file>
AV-unprocessed.smi

> <i_m_source_file_index>
33

> <i_lp_mmshare_version>
43012

> <i_f3d_flags>
0

> <s_epik_input>
W2NIXTFbY0hdW2NIXVtjSF1bY0hdYzFDKD1PKU9bQ0gyXVtDQEBIXTJPW0NASF0oW0NAQEhdKFtPSF0pW0NAQEhdMkYpbihbY0hdbjMpYyhjMzQpbltjSF1uYzROKEMoPU8pYzVbY0hdW2NIXVtjSF1bY0hdW2NIXTUpQyg9TyljNltjSF1bY0hdW2NIXVtjSF1bY0hdNg==

> <s_epik_cmdline>
J2VwaWtfcHl0aG9uJywgJy1waCcsICc3LjAnLCAnLXRuJywgJzgnLCAnLW1hJywgJzIwMCcsICctbWV0YWxfYmluZGluZycsICctaW1hZScsICc8aW5maWxlLm1hZT4nLCAnLW9tYWUnLCAnPG91dGZpbGUubWFlPic=

> <r_lp_tautomer_probability>
1

> <r_epik_Ionization_Penalty>
0.00067664

> <r_epik_Ionization_Penalty_Charging>
0

> <r_epik_Ionization_Penalty_Neutral>
0.00067664

> <r_epik_State_Penalty>
0.000428095

> <r_epik_Charging_Adjusted_Penalty>
0.000428095

> <i_epik_Tot_Q>
0

> <i_epik_Tot_abs_Q>
0

> <r_epik_Metal_State_Penalty>
-0

> <b_epik_Metal_Only>
0

> <s_epik_Chemistry_Notes>
This compound has an ester and may undergo hydrolysis at high or low pH. This compound contains an acetal/aminal-like group ( X-CH(R)-Y where X, Y are N, S, or O) that may be acid/base labile, releasing an aldehyde.

> <s_lp_Force_Field>
OPLS_2005

> <r_lp_Energy>
73.7321

> <b_lp_Chiralities_Consistent>
1

> <s_lp_Variant>
AV-unprocessed.smi:33-2

> <Gold.Version>
5.8.1

> <Gold.Id.Protein>
6NUR|6NUR_protein|mol2

> <Gold.PLP.Fitness>
71.1417

> <Gold.PLP.PLP>
-62.8645

> <Gold.PLP.part.hbond>
-4.1288

> <Gold.PLP.part.metal>
0.0000

> <Gold.PLP.part.buried>
-1.3401

> <Gold.PLP.part.nonpolar>
-57.9848

> <Gold.PLP.part.repulsive>
0.3053

> <Gold.PLP.ligand.clash>
0.0366

> <Gold.PLP.ligand.torsion>
2.3559

> <Gold.PLP.Chemscore.Hbond>
3.0940

> <Gold.PLP.Chemscore.CHOScore>
0.0000

> <Gold.PLP.Chemscore.Metal>
0.0000

> <Gold.Chemscore.Hbonds>
donor molecule, donor type, donor heavy atom, donor atom, acceptor molecule, acceptor atom, score
      P1  H  6896  6909       L1    15  0.54
      P1  H  7989  7998       L1     6  0.70
      P1  H  7997  8010       L1     1  0.82
      P1  H 10752 10764       L1    10  0.50

> <Gold.PLP.Chemscore.Internal.Correction>
3.7436

> <Gold.Rescore>
     Score         DG    S(hbond)    S(metal)    S(lipo)     H(rot)  DE(clash)    DE(int)     intcor
      6.56     -20.89       1.16        0.00     153.91       2.52       1.11      13.21       ----

> <Gold.Chemscore.Fitness>
6.5634

> <Gold.Chemscore.DG>
-20.8904

> <Gold.Chemscore.ZeroCoef>
-5.4800

> <Gold.Chemscore.Hbond>
1.1576

> <Gold.Chemscore.Metal>
0.0000

> <Gold.Chemscore.Lipo>
153.9094

> <Gold.Chemscore.Internal_Hbond>
0.0000

> <Gold.Chemscore.DEClash>
1.1139

> <Gold.Chemscore.DEInternal>
13.2130

> <Gold.Chemscore.Rot>
2.5247

> <Gold.Chemscore.Internal.Correction>
   9.000000E+99

> <Gold.Chemscore.Hbonds>
donor molecule, donor type, donor heavy atom, donor atom, acceptor molecule, acceptor atom, score
      P1  H  6896  6909       L1    15  0.55
      P1  H  7989  7998       L1     6  0.07
      P1  H  7997  8010       L1     1  0.15
      P1  H 10752 10764       L1    10  0.03

> <Gold.Chemscore.Hbond.Weighted>
-3.8662

> <Gold.Chemscore.Metal.Weighted>
-0.0000

> <Gold.Chemscore.Lipo.Weighted>
-18.0074

> <Gold.Chemscore.Internal_Hbond.Weighted>
0.0000

> <Gold.Chemscore.DEClash.Weighted>
1.1139

> <Gold.Chemscore.DEInternal.Weighted>
13.2130

> <Gold.Chemscore.Rot.Weighted>
6.4633

> <Gold.Chemscore.Internal.Correction.Weighted>
   9.000000E+99

> <Gold.Protein.RotatedTorsions>
[ 6907 6896 6895 6894 ] final  -11.29 input  -60.11 | X-H torsion
[ 7974 7965 7964 7962 ] final  -12.05 input  175.53 | X-H torsion
[ 8008 7997 7996 7995 ] final   15.92 input   59.86 | X-H torsion
[ 10167 10162 10161 10158 ] final   36.11 input  -65.29 | X-H torsion
[ 10718 10713 10712 10709 ] final -105.74 input   66.30 | X-H torsion
[ 10763 10752 10751 10750 ] final  -44.51 input  -60.55 | X-H torsion
[ 11005 11000 10999 10996 ] final   43.07 input  -57.11 | X-H torsion

> <Gold.Protein.ActiveResidues>
 VAL166  LYS551  ARG553  GLY616  TRP617  ASP618  TYR619  PRO620  LYS621  CYS622 
 ASP623  PHE694  ASN695  SER759  ASP760  ASP761  ALA762  ILE779  LEU786  VAL792 
 PHE793  MET794  SER795  GLU796  ALA797  LYS798  CYS799  TRP800  GLU811  SER814 

> <Gold.Protein.RotatedAtoms>
  151.3886  135.0952  159.9518 H   0  0  0  0  0  0  0  0  0  0  0  0  # atno 6907 bound_to 6896
  152.5087  133.9002  159.7447 H   0  0  0  0  0  0  0  0  0  0  0  0  # atno 6908 bound_to 6896
  150.9451  133.6557  159.2811 H   0  0  0  0  0  0  0  0  0  0  0  0  # atno 6909 bound_to 6896
  146.2166  140.3001  142.8374 H   0  0  0  0  0  0  0  0  0  0  0  0  # atno 7974 bound_to 7965
  154.8696  140.2957  155.5489 H   0  0  0  0  0  0  0  0  0  0  0  0  # atno 8008 bound_to 7997
  156.3021  140.2462  156.3616 H   0  0  0  0  0  0  0  0  0  0  0  0  # atno 8009 bound_to 7997
  154.8831  140.0397  157.1783 H   0  0  0  0  0  0  0  0  0  0  0  0  # atno 8010 bound_to 7997
  140.4159  144.1528  150.6143 H   0  0  0  0  0  0  0  0  0  0  0  0  # atno 10167 bound_to 10162
  156.0359  130.5578  150.7582 H   0  0  0  0  0  0  0  0  0  0  0  0  # atno 10718 bound_to 10713
  154.0133  135.6678  153.4767 H   0  0  0  0  0  0  0  0  0  0  0  0  # atno 10763 bound_to 10752
  153.0611  135.5027  154.8092 H   0  0  0  0  0  0  0  0  0  0  0  0  # atno 10764 bound_to 10752
  154.6982  135.3074  154.9344 H   0  0  0  0  0  0  0  0  0  0  0  0  # atno 10765 bound_to 10752
  140.1679  134.4258  155.8275 H   0  0  0  0  0  0  0  0  0  0  0  0  # atno 11005 bound_to 11000
  144.9064  140.7704  143.5835 LP  0  0  0  0  0  0  0  0  0  0  0  0  # atno 17320 bound_to 7965
  145.2929  139.1877  143.4730 LP  0  0  0  0  0  0  0  0  0  0  0  0  # atno 17321 bound_to 7965
  140.4587  143.2457  151.9249 LP  0  0  0  0  0  0  0  0  0  0  0  0  # atno 17342 bound_to 10162
  139.4782  144.5489  151.8416 LP  0  0  0  0  0  0  0  0  0  0  0  0  # atno 17343 bound_to 10162
  157.5108  131.0925  151.0200 LP  0  0  0  0  0  0  0  0  0  0  0  0  # atno 17370 bound_to 10713
  157.0556  130.5804  149.5377 LP  0  0  0  0  0  0  0  0  0  0  0  0  # atno 17371 bound_to 10713
  141.2215  133.6943  156.7712 LP  0  0  0  0  0  0  0  0  0  0  0  0  # atno 17394 bound_to 11000
  140.2411  134.8612  157.3575 LP  0  0  0  0  0  0  0  0  0  0  0  0  # atno 17395 bound_to 11000

$$$$
