AV-unprocessed.smi:3330|AV-procd|sdf|12807|dock9
  -GOLD-   2272019173D 1   1.00000     0.00000
 Structure written by MMmdl.
 38 39  0  0  0  0  0  0  0  0  1 V2000
  150.5714  143.9418  158.6359 C   0  0  0  0  0  0  0  0  0  0  0  0
  151.3238  142.9539  157.7169 C   0  0  2  0  0  0  0  0  0  0  0  0
  150.7628  141.6159  157.8810 N   0  0  0  0  0  0  0  0  0  0  0  0
  150.4692  140.9608  156.6152 C   0  0  0  0  0  0  0  0  0  0  0  0
  151.4210  139.7689  156.4314 C   0  0  0  0  0  0  0  0  0  0  0  0
  150.7837  138.6919  155.6695 N   0  0  0  0  0  0  0  0  0  0  0  0
  150.8367  137.3962  156.0049 C   0  0  0  0  0  0  0  0  0  0  0  0
  151.4110  136.8940  156.9705 O   0  0  0  0  0  0  0  0  0  0  0  0
  150.0492  136.6046  154.9837 C   0  0  0  0  0  0  0  0  0  0  0  0
  149.6090  137.6901  154.1342 N   0  0  0  0  0  0  0  0  0  0  0  0
  150.0482  138.8820  154.5590 C   0  0  0  0  0  0  0  0  0  0  0  0
  149.8074  139.9598  154.0174 O   0  0  0  0  0  0  0  0  0  0  0  0
  152.8460  142.8802  158.0155 C   0  0  1  0  0  0  0  0  0  0  0  0
  153.5755  144.2008  157.7053 C   0  0  0  0  0  0  0  0  0  0  0  0
  153.1124  142.4894  159.3947 N   0  0  0  0  0  0  0  0  0  0  0  0
  152.8517  143.1905  160.5554 C   0  0  0  0  0  0  0  0  0  0  0  0
  153.2685  142.4189  161.6018 C   0  0  0  0  0  0  0  0  0  0  0  0
  153.7787  141.2480  160.9753 C   0  0  0  0  0  0  0  0  0  0  0  0
  153.6859  141.2937  159.6566 N   0  0  0  0  0  0  0  0  0  0  0  0
  150.9417  144.9605  158.5212 H   0  0  0  0  0  0  0  0  0  0  0  0
  150.6834  143.6678  159.6855 H   0  0  0  0  0  0  0  0  0  0  0  0
  149.5056  143.9790  158.4142 H   0  0  0  0  0  0  0  0  0  0  0  0
  151.1965  143.2694  156.6803 H   0  0  0  0  0  0  0  0  0  0  0  0
  149.9383  141.6505  158.4636 H   0  0  0  0  0  0  0  0  0  0  0  0
  149.4364  140.6139  156.5960 H   0  0  0  0  0  0  0  0  0  0  0  0
  150.5938  141.6704  155.7959 H   0  0  0  0  0  0  0  0  0  0  0  0
  152.3311  140.0910  155.9213 H   0  0  0  0  0  0  0  0  0  0  0  0
  151.7444  139.3953  157.4049 H   0  0  0  0  0  0  0  0  0  0  0  0
  150.6832  135.9014  154.4427 H   0  0  0  0  0  0  0  0  0  0  0  0
  149.2076  136.0821  155.4395 H   0  0  0  0  0  0  0  0  0  0  0  0
  149.0319  137.5511  153.3173 H   0  0  0  0  0  0  0  0  0  0  0  0
  153.2783  142.1094  157.3738 H   0  0  0  0  0  0  0  0  0  0  0  0
  153.4978  144.4627  156.6502 H   0  0  0  0  0  0  0  0  0  0  0  0
  154.6374  144.1251  157.9415 H   0  0  0  0  0  0  0  0  0  0  0  0
  153.1643  145.0297  158.2822 H   0  0  0  0  0  0  0  0  0  0  0  0
  152.3941  144.1687  160.5397 H   0  0  0  0  0  0  0  0  0  0  0  0
  153.2160  142.6548  162.6542 H   0  0  0  0  0  0  0  0  0  0  0  0
  154.2105  140.3719  161.4360 H   0  0  0  0  0  0  0  0  0  0  0  0
  1  2  1  0  0  0  0
  1 20  1  0  0  0  0
  1 21  1  0  0  0  0
  1 22  1  0  0  0  0
  2  3  1  0  0  0  0
  2 13  1  0  0  0  0
  2 23  1  0  0  0  0
  3  4  1  0  0  0  0
  3 24  1  0  0  0  0
  4  5  1  0  0  0  0
  4 25  1  0  0  0  0
  4 26  1  0  0  0  0
  5  6  1  0  0  0  0
  5 27  1  0  0  0  0
  5 28  1  0  0  0  0
  6 11  1  0  0  0  0
  6  7  1  0  0  0  0
  7  8  2  0  0  0  0
  7  9  1  0  0  0  0
  9 10  1  0  0  0  0
  9 29  1  0  0  0  0
  9 30  1  0  0  0  0
 10 11  1  0  0  0  0
 10 31  1  0  0  0  0
 11 12  2  0  0  0  0
 13 14  1  0  0  0  0
 13 15  1  0  0  0  0
 13 32  1  0  0  0  0
 14 33  1  0  0  0  0
 14 34  1  0  0  0  0
 14 35  1  0  0  0  0
 15 19  1  0  0  0  0
 15 16  1  0  0  0  0
 16 17  2  0  0  0  0
 16 36  1  0  0  0  0
 17 18  1  0  0  0  0
 17 37  1  0  0  0  0
 18 19  2  0  0  0  0
 18 38  1  0  0  0  0
M  END
> <s_m_source_file>
AV-unprocessed.smi

> <i_m_source_file_index>
3330

> <i_lp_mmshare_version>
43012

> <i_f3d_flags>
0

> <s_epik_input>
bjFbY0hdW2NIXVtjSF1uMVtDQEBIXShbQ0gzXSlbQ0BIXShbQ0gzXSlbTkhdW0NIMl1bQ0gyXU4yQyg9TylbQ0gyXVtOSF1DMj1P

> <s_epik_cmdline>
J2VwaWtfcHl0aG9uJywgJy1waCcsICc3LjAnLCAnLXRuJywgJzgnLCAnLW1hJywgJzIwMCcsICctbWV0YWxfYmluZGluZycsICctaW1hZScsICc8aW5maWxlLm1hZT4nLCAnLW9tYWUnLCAnPG91dGZpbGUubWFlPic=

> <r_lp_tautomer_probability>
1

> <r_epik_Ionization_Penalty>
2.2997

> <r_epik_Ionization_Penalty_Charging>
0

> <r_epik_Ionization_Penalty_Neutral>
2.2997

> <r_epik_State_Penalty>
2.44917

> <r_epik_Charging_Adjusted_Penalty>
2.44917

> <i_epik_Tot_Q>
0

> <i_epik_Tot_abs_Q>
0

> <r_epik_Metal_State_Penalty>
2.52438

> <b_epik_Metal_Only>
0

> <s_lp_Force_Field>
OPLS_2005

> <r_lp_Energy>
27.6633

> <b_lp_Chiralities_Consistent>
1

> <s_lp_Variant>
AV-unprocessed.smi:3330-7

> <Gold.Version>
5.8.1

> <Gold.Id.Protein>
6NUR|6NUR_protein|mol2

> <Gold.PLP.Fitness>
45.8225

> <Gold.PLP.PLP>
-42.9683

> <Gold.PLP.part.hbond>
-2.5977

> <Gold.PLP.part.metal>
0.0000

> <Gold.PLP.part.buried>
-6.7655

> <Gold.PLP.part.nonpolar>
-36.0470

> <Gold.PLP.part.repulsive>
1.7111

> <Gold.PLP.ligand.clash>
0.0000

> <Gold.PLP.ligand.torsion>
1.4958

> <Gold.PLP.Chemscore.Hbond>
1.9028

> <Gold.PLP.Chemscore.CHOScore>
0.0000

> <Gold.PLP.Chemscore.Metal>
0.0000

> <Gold.Chemscore.Hbonds>
donor molecule, donor type, donor heavy atom, donor atom, acceptor molecule, acceptor atom, score
      L1  H    10    31       P1  7948  0.70
      P1  H  7989  7998       L1    12  0.74

> <Gold.PLP.Chemscore.Internal.Correction>
0.1375

> <Gold.Rescore>
     Score         DG    S(hbond)    S(metal)    S(lipo)     H(rot)  DE(clash)    DE(int)     intcor
      9.15     -12.53       0.88        0.00      91.80       2.60       0.06       3.32       ----

> <Gold.Chemscore.Fitness>
9.1498

> <Gold.Chemscore.DG>
-12.5262

> <Gold.Chemscore.ZeroCoef>
-5.4800

> <Gold.Chemscore.Hbond>
0.8830

> <Gold.Chemscore.Metal>
0.0000

> <Gold.Chemscore.Lipo>
91.8006

> <Gold.Chemscore.Internal_Hbond>
0.0000

> <Gold.Chemscore.DEClash>
0.0589

> <Gold.Chemscore.DEInternal>
3.3175

> <Gold.Chemscore.Rot>
2.5952

> <Gold.Chemscore.Internal.Correction>
   9.000000E+99

> <Gold.Chemscore.Hbonds>
donor molecule, donor type, donor heavy atom, donor atom, acceptor molecule, acceptor atom, score
      L1  H    10    31       P1  7948  0.69
      P1  H  7989  7998       L1    12  0.51

> <Gold.Chemscore.Hbond.Weighted>
-2.9492

> <Gold.Chemscore.Metal.Weighted>
-0.0000

> <Gold.Chemscore.Lipo.Weighted>
-10.7407

> <Gold.Chemscore.Internal_Hbond.Weighted>
0.0000

> <Gold.Chemscore.DEClash.Weighted>
0.0589

> <Gold.Chemscore.DEInternal.Weighted>
3.3175

> <Gold.Chemscore.Rot.Weighted>
6.6437

> <Gold.Chemscore.Internal.Correction.Weighted>
   9.000000E+99

> <Gold.Protein.RotatedTorsions>
[ 6907 6896 6895 6894 ] final  118.41 input  -60.11 | X-H torsion
[ 7974 7965 7964 7962 ] final   43.60 input  175.53 | X-H torsion
[ 8008 7997 7996 7995 ] final    2.09 input   59.86 | X-H torsion
[ 10167 10162 10161 10158 ] final -127.63 input  -65.29 | X-H torsion
[ 10718 10713 10712 10709 ] final   40.80 input   66.30 | X-H torsion
[ 10763 10752 10751 10750 ] final  152.07 input  -60.55 | X-H torsion
[ 11005 11000 10999 10996 ] final  -18.95 input  -57.11 | X-H torsion

> <Gold.Protein.ActiveResidues>
 VAL166  LYS551  ARG553  GLY616  TRP617  ASP618  TYR619  PRO620  LYS621  CYS622 
 ASP623  PHE694  ASN695  SER759  ASP760  ASP761  ALA762  ILE779  LEU786  VAL792 
 PHE793  MET794  SER795  GLU796  ALA797  LYS798  CYS799  TRP800  GLU811  SER814 

> <Gold.Protein.RotatedAtoms>
  152.4545  133.7694  159.6790 H   0  0  0  0  0  0  0  0  0  0  0  0  # atno 6907 bound_to 6896
  150.8466  133.7841  159.3047 H   0  0  0  0  0  0  0  0  0  0  0  0  # atno 6908 bound_to 6896
  151.5450  135.1071  159.9987 H   0  0  0  0  0  0  0  0  0  0  0  0  # atno 6909 bound_to 6896
  146.0641  139.5168  142.9639 H   0  0  0  0  0  0  0  0  0  0  0  0  # atno 7974 bound_to 7965
  154.6875  140.2646  155.6846 H   0  0  0  0  0  0  0  0  0  0  0  0  # atno 8008 bound_to 7997
  156.2720  140.2798  156.1364 H   0  0  0  0  0  0  0  0  0  0  0  0  # atno 8009 bound_to 7997
  155.0944  140.0374  157.2668 H   0  0  0  0  0  0  0  0  0  0  0  0  # atno 8010 bound_to 7997
  139.9588  143.5973  152.2452 H   0  0  0  0  0  0  0  0  0  0  0  0  # atno 10167 bound_to 10162
  157.3863  130.7781  149.7233 H   0  0  0  0  0  0  0  0  0  0  0  0  # atno 10718 bound_to 10713
  154.1141  135.2837  155.3224 H   0  0  0  0  0  0  0  0  0  0  0  0  # atno 10763 bound_to 10752
  154.6469  135.5382  153.7859 H   0  0  0  0  0  0  0  0  0  0  0  0  # atno 10764 bound_to 10752
  153.0335  135.6500  154.1298 H   0  0  0  0  0  0  0  0  0  0  0  0  # atno 10765 bound_to 10752
  140.8318  133.7991  155.9767 H   0  0  0  0  0  0  0  0  0  0  0  0  # atno 11005 bound_to 11000
  145.6507  141.0263  143.1761 LP  0  0  0  0  0  0  0  0  0  0  0  0  # atno 17320 bound_to 7965
  144.7192  139.8088  143.7388 LP  0  0  0  0  0  0  0  0  0  0  0  0  # atno 17321 bound_to 7965
  139.6570  144.7662  151.2036 LP  0  0  0  0  0  0  0  0  0  0  0  0  # atno 17342 bound_to 10162
  140.7560  143.6070  150.8643 LP  0  0  0  0  0  0  0  0  0  0  0  0  # atno 17343 bound_to 10162
  155.9787  130.4048  150.3630 LP  0  0  0  0  0  0  0  0  0  0  0  0  # atno 17370 bound_to 10713
  157.1740  131.0376  151.2781 LP  0  0  0  0  0  0  0  0  0  0  0  0  # atno 17371 bound_to 10713
  140.8990  134.2402  157.5052 LP  0  0  0  0  0  0  0  0  0  0  0  0  # atno 17394 bound_to 11000
  139.8705  134.9697  156.4677 LP  0  0  0  0  0  0  0  0  0  0  0  0  # atno 17395 bound_to 11000

$$$$
