AV-unprocessed.smi:521|AV-procd|sdf|2799|dock3
  -GOLD-   2262023273D 1   1.00000     0.00000
 Structure written by MMmdl.
 40 42  0  0  0  0  0  0  0  0  1 V2000
  154.4652  139.8726  160.5018 C   0  0  0  0  0  0  0  0  0  0  0  0
  153.6435  140.7689  159.7697 O   0  0  0  0  0  0  0  0  0  0  0  0
  153.1645  141.8934  160.4103 C   0  0  0  0  0  0  0  0  0  0  0  0
  153.4242  142.1954  161.7710 C   0  0  0  0  0  0  0  0  0  0  0  0
  152.9010  143.3637  162.3548 C   0  0  0  0  0  0  0  0  0  0  0  0
  152.1159  144.2417  161.5883 C   0  0  0  0  0  0  0  0  0  0  0  0
  151.8519  143.9519  160.2374 C   0  0  0  0  0  0  0  0  0  0  0  0
  152.3731  142.7766  159.6407 C   0  0  0  0  0  0  0  0  0  0  0  0
  152.1555  142.4245  158.3265 O   0  0  0  0  0  0  0  0  0  0  0  0
  151.0129  142.9373  157.6565 C   0  0  0  0  0  0  0  0  0  0  0  0
  149.9366  141.8434  157.6084 C   0  0  0  0  0  0  0  0  0  0  0  0
  149.8670  141.2020  156.3025 N   0  0  0  0  0  0  0  0  0  0  0  0
  150.7865  140.3966  155.7139 C   0  0  0  0  0  0  0  0  0  0  0  0
  152.0824  140.0459  156.3781 C   0  0  0  0  0  0  0  0  0  0  0  0
  152.9629  139.3514  155.5211 O   0  0  0  0  0  0  0  0  0  0  0  0
  150.4652  139.9349  154.5047 N   0  0  0  0  0  0  0  0  0  0  0  0
  149.2177  140.4877  154.2904 C   0  0  0  0  0  0  0  0  0  0  0  0
  148.3388  140.3717  153.1896 C   0  0  0  0  0  0  0  0  0  0  0  0
  147.0927  141.0323  153.1981 C   0  0  0  0  0  0  0  0  0  0  0  0
  146.7090  141.8182  154.3039 C   0  0  0  0  0  0  0  0  0  0  0  0
  147.5722  141.9516  155.4081 C   0  0  0  0  0  0  0  0  0  0  0  0
  148.8138  141.2877  155.3966 C   0  0  0  0  0  0  0  0  0  0  0  0
  154.7676  139.0524  159.8509 H   0  0  0  0  0  0  0  0  0  0  0  0
  153.9297  139.4421  161.3489 H   0  0  0  0  0  0  0  0  0  0  0  0
  155.3722  140.3629  160.8575 H   0  0  0  0  0  0  0  0  0  0  0  0
  154.0228  141.5449  162.3899 H   0  0  0  0  0  0  0  0  0  0  0  0
  153.1025  143.5859  163.3924 H   0  0  0  0  0  0  0  0  0  0  0  0
  151.7143  145.1386  162.0364 H   0  0  0  0  0  0  0  0  0  0  0  0
  151.2443  144.6473  159.6790 H   0  0  0  0  0  0  0  0  0  0  0  0
  150.6245  143.8081  158.1863 H   0  0  0  0  0  0  0  0  0  0  0  0
  151.2730  143.2445  156.6425 H   0  0  0  0  0  0  0  0  0  0  0  0
  150.1489  141.0795  158.3572 H   0  0  0  0  0  0  0  0  0  0  0  0
  148.9619  142.2575  157.8651 H   0  0  0  0  0  0  0  0  0  0  0  0
  152.5683  140.9508  156.7428 H   0  0  0  0  0  0  0  0  0  0  0  0
  151.8831  139.4234  157.2511 H   0  0  0  0  0  0  0  0  0  0  0  0
  152.4971  139.1268  154.7305 H   0  0  0  0  0  0  0  0  0  0  0  0
  148.6230  139.7711  152.3381 H   0  0  0  0  0  0  0  0  0  0  0  0
  146.4275  140.9344  152.3527 H   0  0  0  0  0  0  0  0  0  0  0  0
  145.7516  142.3183  154.3046 H   0  0  0  0  0  0  0  0  0  0  0  0
  147.2793  142.5497  156.2584 H   0  0  0  0  0  0  0  0  0  0  0  0
  1  2  1  0  0  0  0
  1 23  1  0  0  0  0
  1 24  1  0  0  0  0
  1 25  1  0  0  0  0
  2  3  1  0  0  0  0
  3  8  1  0  0  0  0
  3  4  2  0  0  0  0
  4  5  1  0  0  0  0
  4 26  1  0  0  0  0
  5  6  2  0  0  0  0
  5 27  1  0  0  0  0
  6  7  1  0  0  0  0
  6 28  1  0  0  0  0
  7  8  2  0  0  0  0
  7 29  1  0  0  0  0
  8  9  1  0  0  0  0
  9 10  1  0  0  0  0
 10 11  1  0  0  0  0
 10 30  1  0  0  0  0
 10 31  1  0  0  0  0
 11 12  1  0  0  0  0
 11 32  1  0  0  0  0
 11 33  1  0  0  0  0
 12 22  1  0  0  0  0
 12 13  1  0  0  0  0
 13 14  1  0  0  0  0
 13 16  2  0  0  0  0
 14 15  1  0  0  0  0
 14 34  1  0  0  0  0
 14 35  1  0  0  0  0
 15 36  1  0  0  0  0
 16 17  1  0  0  0  0
 17 22  2  0  0  0  0
 17 18  1  0  0  0  0
 18 19  2  0  0  0  0
 18 37  1  0  0  0  0
 19 20  1  0  0  0  0
 19 38  1  0  0  0  0
 20 21  2  0  0  0  0
 20 39  1  0  0  0  0
 21 22  1  0  0  0  0
 21 40  1  0  0  0  0
M  END
> <s_m_source_file>
AV-unprocessed.smi

> <i_m_source_file_index>
521

> <i_lp_mmshare_version>
43012

> <i_f3d_flags>
0

> <s_epik_input>
W0NIM11PYzFbY0hdW2NIXVtjSF1bY0hdYzFPW0NIMl1bQ0gyXW4oYyhuMilbQ0gyXVtPSF0pYyhjMjMpW2NIXVtjSF1bY0hdW2NIXTM=

> <s_epik_cmdline>
J2VwaWtfcHl0aG9uJywgJy1waCcsICc3LjAnLCAnLXRuJywgJzgnLCAnLW1hJywgJzIwMCcsICctbWV0YWxfYmluZGluZycsICctaW1hZScsICc8aW5maWxlLm1hZT4nLCAnLW9tYWUnLCAnPG91dGZpbGUubWFlPic=

> <r_lp_tautomer_probability>
1

> <r_epik_Ionization_Penalty>
0.048627

> <r_epik_Ionization_Penalty_Charging>
0

> <r_epik_Ionization_Penalty_Neutral>
0.048627

> <r_epik_State_Penalty>
0.0414172

> <r_epik_Charging_Adjusted_Penalty>
0.0414172

> <i_epik_Tot_Q>
0

> <i_epik_Tot_abs_Q>
0

> <r_epik_Metal_State_Penalty>
4.28976e-05

> <b_epik_Metal_Only>
0

> <s_lp_Force_Field>
OPLS_2005

> <r_lp_Energy>
18.4761

> <b_lp_Chiralities_Consistent>
1

> <s_lp_Variant>
AV-unprocessed.smi:521-1

> <Gold.Version>
5.8.1

> <Gold.Id.Protein>
6NUR|6NUR_protein|mol2

> <Gold.PLP.Fitness>
53.9389

> <Gold.PLP.PLP>
-49.9512

> <Gold.PLP.part.hbond>
-2.0000

> <Gold.PLP.part.metal>
0.0000

> <Gold.PLP.part.buried>
0.9161

> <Gold.PLP.part.nonpolar>
-47.3279

> <Gold.PLP.part.repulsive>
0.1103

> <Gold.PLP.ligand.clash>
0.0000

> <Gold.PLP.ligand.torsion>
1.0515

> <Gold.PLP.Chemscore.Hbond>
2.0000

> <Gold.PLP.Chemscore.CHOScore>
0.0000

> <Gold.PLP.Chemscore.Metal>
0.0000

> <Gold.Chemscore.Hbonds>
donor molecule, donor type, donor heavy atom, donor atom, acceptor molecule, acceptor atom, score
      P1  H  7989  7998       L1    16  1.00
      P1  H  7997  8009       L1    15  1.00

> <Gold.PLP.Chemscore.Internal.Correction>
0.0907

> <Gold.Rescore>
     Score         DG    S(hbond)    S(metal)    S(lipo)     H(rot)  DE(clash)    DE(int)     intcor
     15.84     -19.02       1.17        0.00     136.24       2.46       1.93       1.25       ----

> <Gold.Chemscore.Fitness>
15.8372

> <Gold.Chemscore.DG>
-19.0234

> <Gold.Chemscore.ZeroCoef>
-5.4800

> <Gold.Chemscore.Hbond>
1.1652

> <Gold.Chemscore.Metal>
0.0000

> <Gold.Chemscore.Lipo>
136.2375

> <Gold.Chemscore.Internal_Hbond>
0.0000

> <Gold.Chemscore.DEClash>
1.9341

> <Gold.Chemscore.DEInternal>
1.2521

> <Gold.Chemscore.Rot>
2.4562

> <Gold.Chemscore.Internal.Correction>
   9.000000E+99

> <Gold.Chemscore.Hbonds>
donor molecule, donor type, donor heavy atom, donor atom, acceptor molecule, acceptor atom, score
      P1  H  7989  7998       L1    16  0.14
      P1  H  7997  8009       L1    15  0.34

> <Gold.Chemscore.Hbond.Weighted>
-3.8916

> <Gold.Chemscore.Metal.Weighted>
-0.0000

> <Gold.Chemscore.Lipo.Weighted>
-15.9398

> <Gold.Chemscore.Internal_Hbond.Weighted>
0.0000

> <Gold.Chemscore.DEClash.Weighted>
1.9341

> <Gold.Chemscore.DEInternal.Weighted>
1.2521

> <Gold.Chemscore.Rot.Weighted>
6.2880

> <Gold.Chemscore.Internal.Correction.Weighted>
   9.000000E+99

> <Gold.Protein.RotatedTorsions>
[ 6907 6896 6895 6894 ] final  -37.27 input  -60.11 | X-H torsion
[ 7974 7965 7964 7962 ] final  -89.17 input  175.53 | X-H torsion
[ 8008 7997 7996 7995 ] final -129.32 input   59.86 | X-H torsion
[ 10167 10162 10161 10158 ] final  -63.76 input  -65.29 | X-H torsion
[ 10718 10713 10712 10709 ] final  161.17 input   66.30 | X-H torsion
[ 10763 10752 10751 10750 ] final  130.88 input  -60.55 | X-H torsion
[ 11005 11000 10999 10996 ] final  112.20 input  -57.11 | X-H torsion

> <Gold.Protein.ActiveResidues>
 VAL166  LYS551  ARG553  GLY616  TRP617  ASP618  TYR619  PRO620  LYS621  CYS622 
 ASP623  PHE694  ASN695  SER759  ASP760  ASP761  ALA762  ILE779  LEU786  VAL792 
 PHE793  MET794  SER795  GLU796  ALA797  LYS798  CYS799  TRP800  GLU811  SER814 

> <Gold.Protein.RotatedAtoms>
  151.0168  134.9439  159.8037 H   0  0  0  0  0  0  0  0  0  0  0  0  # atno 6907 bound_to 6896
  152.5316  134.2956  159.9069 H   0  0  0  0  0  0  0  0  0  0  0  0  # atno 6908 bound_to 6896
  151.2962  133.4101  159.2670 H   0  0  0  0  0  0  0  0  0  0  0  0  # atno 6909 bound_to 6896
  145.4434  140.9559  143.2063 H   0  0  0  0  0  0  0  0  0  0  0  0  # atno 7974 bound_to 7965
  155.2772  140.0442  157.3012 H   0  0  0  0  0  0  0  0  0  0  0  0  # atno 8008 bound_to 7997
  154.5618  140.2348  155.8292 H   0  0  0  0  0  0  0  0  0  0  0  0  # atno 8009 bound_to 7997
  156.2053  140.3014  155.9621 H   0  0  0  0  0  0  0  0  0  0  0  0  # atno 8010 bound_to 7997
  140.5848  143.2332  151.6265 H   0  0  0  0  0  0  0  0  0  0  0  0  # atno 10167 bound_to 10162
  157.1402  131.0538  151.2330 H   0  0  0  0  0  0  0  0  0  0  0  0  # atno 10718 bound_to 10713
  153.7653  135.3190  155.3343 H   0  0  0  0  0  0  0  0  0  0  0  0  # atno 10763 bound_to 10752
  154.8216  135.4599  154.0798 H   0  0  0  0  0  0  0  0  0  0  0  0  # atno 10764 bound_to 10752
  153.2041  135.6926  153.8279 H   0  0  0  0  0  0  0  0  0  0  0  0  # atno 10765 bound_to 10752
  139.8921  134.9525  156.6549 H   0  0  0  0  0  0  0  0  0  0  0  0  # atno 11005 bound_to 11000
  144.8107  139.5967  143.7030 LP  0  0  0  0  0  0  0  0  0  0  0  0  # atno 17320 bound_to 7965
  146.2544  139.6270  142.9405 LP  0  0  0  0  0  0  0  0  0  0  0  0  # atno 17321 bound_to 7965
  139.5191  144.3263  152.0866 LP  0  0  0  0  0  0  0  0  0  0  0  0  # atno 17342 bound_to 10162
  140.2418  144.4261  150.6257 LP  0  0  0  0  0  0  0  0  0  0  0  0  # atno 17343 bound_to 10162
  157.4314  130.7492  149.6993 LP  0  0  0  0  0  0  0  0  0  0  0  0  # atno 17370 bound_to 10713
  155.9790  130.4045  150.3614 LP  0  0  0  0  0  0  0  0  0  0  0  0  # atno 17371 bound_to 10713
  140.7492  133.8912  155.8334 LP  0  0  0  0  0  0  0  0  0  0  0  0  # atno 17394 bound_to 11000
  141.0015  134.1144  157.4313 LP  0  0  0  0  0  0  0  0  0  0  0  0  # atno 17395 bound_to 11000

$$$$
