AV-unprocessed.smi:1312|AV-procd|sdf|5449|dock6
  -GOLD-   22720 5 23D 1   1.00000     0.00000
 Structure written by MMmdl.
 50 51  0  0  0  0  0  0  0  0  2 V2000
  149.1797  131.6687  153.3613 C   0  0  0  0  0  0  0  0  0  0  0  0
  149.3419  133.1247  153.8260 C   0  0  0  0  0  0  0  0  0  0  0  0
  148.0093  133.8747  154.1095 C   0  0  1  0  0  0  0  0  0  0  0  0
  148.2734  135.0739  155.0667 C   0  0  0  0  0  0  0  0  0  0  0  0
  148.8817  136.2364  154.4293 N   0  0  0  0  0  0  0  0  0  0  0  0
  149.5676  137.1969  155.0706 C   0  0  0  0  0  0  0  0  0  0  0  0
  149.7452  137.1948  156.2881 O   0  0  0  0  0  0  0  0  0  0  0  0
  150.1108  138.3522  154.2241 C   0  0  0  0  0  0  0  0  0  0  0  0
  150.7886  139.3894  155.0877 C   0  0  0  0  0  0  0  0  0  0  0  0
  152.0846  139.3098  155.6781 C   0  0  0  0  0  0  0  0  0  0  0  0
  153.0828  138.1904  155.5907 C   0  0  0  0  0  0  0  0  0  0  0  0
  152.3874  140.3899  156.3780 N   0  0  0  0  0  0  0  0  0  0  0  0
  151.3100  141.1909  156.2599 N   0  0  0  0  0  0  0  0  0  0  0  0
  151.3097  142.4821  156.9200 C   0  0  0  0  0  0  0  0  0  0  0  0
  150.3216  140.6146  155.4854 C   0  0  0  0  0  0  0  0  0  0  0  0
  149.0288  141.3101  155.2007 C   0  0  0  0  0  0  0  0  0  0  0  0
  147.3413  134.3292  152.8445 N   0  3  0  0  0  0  0  0  0  0  0  0
  147.1644  133.3132  151.7818 C   0  0  0  0  0  0  0  0  0  0  0  0
  146.1172  133.8968  150.8419 C   0  0  0  0  0  0  0  0  0  0  0  0
  145.1547  134.5912  151.7957 C   0  0  0  0  0  0  0  0  0  0  0  0
  146.0147  134.9820  153.0051 C   0  0  0  0  0  0  0  0  0  0  0  0
  150.1351  131.2684  153.0213 H   0  0  0  0  0  0  0  0  0  0  0  0
  148.4782  131.5948  152.5300 H   0  0  0  0  0  0  0  0  0  0  0  0
  148.8313  131.0151  154.1599 H   0  0  0  0  0  0  0  0  0  0  0  0
  149.9840  133.1560  154.7070 H   0  0  0  0  0  0  0  0  0  0  0  0
  149.8949  133.6210  153.0298 H   0  0  0  0  0  0  0  0  0  0  0  0
  147.3432  133.1622  154.5984 H   0  0  0  0  0  0  0  0  0  0  0  0
  147.3532  135.4159  155.5384 H   0  0  0  0  0  0  0  0  0  0  0  0
  148.9248  134.7573  155.8818 H   0  0  0  0  0  0  0  0  0  0  0  0
  148.7942  136.3099  153.4258 H   0  0  0  0  0  0  0  0  0  0  0  0
  150.7903  137.9399  153.4784 H   0  0  0  0  0  0  0  0  0  0  0  0
  149.2872  138.7950  153.6625 H   0  0  0  0  0  0  0  0  0  0  0  0
  152.9566  137.6175  154.6720 H   0  0  0  0  0  0  0  0  0  0  0  0
  152.9706  137.5024  156.4285 H   0  0  0  0  0  0  0  0  0  0  0  0
  154.1063  138.5666  155.6023 H   0  0  0  0  0  0  0  0  0  0  0  0
  151.0002  143.2560  156.2177 H   0  0  0  0  0  0  0  0  0  0  0  0
  152.3059  142.7247  157.2920 H   0  0  0  0  0  0  0  0  0  0  0  0
  150.6135  142.4625  157.7587 H   0  0  0  0  0  0  0  0  0  0  0  0
  148.3046  140.6360  154.7447 H   0  0  0  0  0  0  0  0  0  0  0  0
  149.1837  142.1454  154.5176 H   0  0  0  0  0  0  0  0  0  0  0  0
  148.5857  141.7000  156.1174 H   0  0  0  0  0  0  0  0  0  0  0  0
  148.0971  133.0973  151.2595 H   0  0  0  0  0  0  0  0  0  0  0  0
  146.7859  132.3862  152.2161 H   0  0  0  0  0  0  0  0  0  0  0  0
  146.5795  134.6299  150.1793 H   0  0  0  0  0  0  0  0  0  0  0  0
  145.6317  133.1409  150.2237 H   0  0  0  0  0  0  0  0  0  0  0  0
  144.6627  135.4492  151.3361 H   0  0  0  0  0  0  0  0  0  0  0  0
  144.3776  133.8922  152.1082 H   0  0  0  0  0  0  0  0  0  0  0  0
  145.5163  134.6593  153.9199 H   0  0  0  0  0  0  0  0  0  0  0  0
  146.1447  136.0635  153.0570 H   0  0  0  0  0  0  0  0  0  0  0  0
  147.9464  135.0273  152.4366 H   0  0  0  0  0  0  0  0  0  0  0  0
  1  2  1  0  0  0  0
  1 22  1  0  0  0  0
  1 23  1  0  0  0  0
  1 24  1  0  0  0  0
  2  3  1  0  0  0  0
  2 25  1  0  0  0  0
  2 26  1  0  0  0  0
  3  4  1  0  0  0  0
  3 17  1  0  0  0  0
  3 27  1  0  0  0  0
  4  5  1  0  0  0  0
  4 28  1  0  0  0  0
  4 29  1  0  0  0  0
  5  6  1  0  0  0  0
  5 30  1  0  0  0  0
  6  7  2  0  0  0  0
  6  8  1  0  0  0  0
  8  9  1  0  0  0  0
  8 31  1  0  0  0  0
  8 32  1  0  0  0  0
  9 15  2  0  0  0  0
  9 10  1  0  0  0  0
 10 11  1  0  0  0  0
 10 12  2  0  0  0  0
 11 33  1  0  0  0  0
 11 34  1  0  0  0  0
 11 35  1  0  0  0  0
 12 13  1  0  0  0  0
 13 14  1  0  0  0  0
 13 15  1  0  0  0  0
 14 36  1  0  0  0  0
 14 37  1  0  0  0  0
 14 38  1  0  0  0  0
 15 16  1  0  0  0  0
 16 39  1  0  0  0  0
 16 40  1  0  0  0  0
 16 41  1  0  0  0  0
 17 21  1  0  0  0  0
 17 18  1  0  0  0  0
 17 50  1  0  0  0  0
 18 19  1  0  0  0  0
 18 42  1  0  0  0  0
 18 43  1  0  0  0  0
 19 20  1  0  0  0  0
 19 44  1  0  0  0  0
 19 45  1  0  0  0  0
 20 21  1  0  0  0  0
 20 46  1  0  0  0  0
 20 47  1  0  0  0  0
 21 48  1  0  0  0  0
 21 49  1  0  0  0  0
M  CHG  1  17   1
M  END
> <s_m_source_file>
AV-unprocessed.smi

> <i_m_source_file_index>
1312

> <i_lp_mmshare_version>
43012

> <i_f3d_flags>
0

> <s_epik_input>
W0NIMl0xW0NIMl1bQ0gyXVtDSDJdTjFbQ0BIXShbQ0gyXVtDSDNdKVtDSDJdW05IXUMoPU8pW0NIMl1jMmMoW0NIM10pbm4oW0NIM10pYzJbQ0gzXQ==

> <s_epik_cmdline>
J2VwaWtfcHl0aG9uJywgJy1waCcsICc3LjAnLCAnLXRuJywgJzgnLCAnLW1hJywgJzIwMCcsICctbWV0YWxfYmluZGluZycsICctaW1hZScsICc8aW5maWxlLm1hZT4nLCAnLW9tYWUnLCAnPG91dGZpbGUubWFlPic=

> <r_lp_tautomer_probability>
1

> <r_epik_Ionization_Penalty>
0.00585463

> <r_epik_Ionization_Penalty_Charging>
0.00366302

> <r_epik_Ionization_Penalty_Neutral>
0.00219161

> <r_epik_State_Penalty>
-0

> <r_epik_Charging_Adjusted_Penalty>
0.00366302

> <i_epik_Tot_Q>
1

> <i_epik_Tot_abs_Q>
1

> <r_epik_Metal_State_Penalty>
-0

> <b_epik_Metal_Only>
0

> <s_lp_Force_Field>
OPLS_2005

> <r_lp_Energy>
35.2401

> <b_lp_Chiralities_Consistent>
1

> <s_lp_Variant>
AV-unprocessed.smi:1312-2

> <Gold.Version>
5.8.1

> <Gold.Id.Protein>
6NUR|6NUR_protein|mol2

> <Gold.PLP.Fitness>
47.0808

> <Gold.PLP.PLP>
-36.3902

> <Gold.PLP.part.hbond>
-3.0000

> <Gold.PLP.part.metal>
0.0000

> <Gold.PLP.part.buried>
-2.2886

> <Gold.PLP.part.nonpolar>
-31.2653

> <Gold.PLP.part.repulsive>
0.0200

> <Gold.PLP.ligand.clash>
0.0000

> <Gold.PLP.ligand.torsion>
0.7185

> <Gold.PLP.Chemscore.Hbond>
3.9833

> <Gold.PLP.Chemscore.CHOScore>
0.0000

> <Gold.PLP.Chemscore.Metal>
0.0000

> <Gold.Chemscore.Hbonds>
donor molecule, donor type, donor heavy atom, donor atom, acceptor molecule, acceptor atom, score
      L1  H     5    30       P1  7948  1.00
      L1  H    17    50       P1  7948  2.00
      P1  H  7997  8008       L1    12  0.88

> <Gold.PLP.Chemscore.Internal.Correction>
0.1778

> <Gold.Rescore>
     Score         DG    S(hbond)    S(metal)    S(lipo)     H(rot)  DE(clash)    DE(int)     intcor
     18.68     -19.90       2.68        0.00      84.29       1.72       0.41       0.81       ----

> <Gold.Chemscore.Fitness>
18.6849

> <Gold.Chemscore.DG>
-19.8960

> <Gold.Chemscore.ZeroCoef>
-5.4800

> <Gold.Chemscore.Hbond>
2.6827

> <Gold.Chemscore.Metal>
0.0000

> <Gold.Chemscore.Lipo>
84.2925

> <Gold.Chemscore.Internal_Hbond>
0.0000

> <Gold.Chemscore.DEClash>
0.4056

> <Gold.Chemscore.DEInternal>
0.8056

> <Gold.Chemscore.Rot>
1.7213

> <Gold.Chemscore.Internal.Correction>
   9.000000E+99

> <Gold.Chemscore.Hbonds>
donor molecule, donor type, donor heavy atom, donor atom, acceptor molecule, acceptor atom, score
      L1  H     5    30       P1  7948  0.96
      L1  H    17    50       P1  7948  0.88
      P1  H  7997  8008       L1    12  0.19

> <Gold.Chemscore.Hbond.Weighted>
-8.9604

> <Gold.Chemscore.Metal.Weighted>
-0.0000

> <Gold.Chemscore.Lipo.Weighted>
-9.8622

> <Gold.Chemscore.Internal_Hbond.Weighted>
0.0000

> <Gold.Chemscore.DEClash.Weighted>
0.4056

> <Gold.Chemscore.DEInternal.Weighted>
0.8056

> <Gold.Chemscore.Rot.Weighted>
4.4065

> <Gold.Chemscore.Internal.Correction.Weighted>
   9.000000E+99

> <Gold.Protein.RotatedTorsions>
[ 6907 6896 6895 6894 ] final -162.55 input  -60.11 | X-H torsion
[ 7974 7965 7964 7962 ] final    4.25 input  175.53 | X-H torsion
[ 8008 7997 7996 7995 ] final  -54.37 input   59.86 | X-H torsion
[ 10167 10162 10161 10158 ] final  -75.83 input  -65.29 | X-H torsion
[ 10718 10713 10712 10709 ] final  -89.22 input   66.30 | X-H torsion
[ 10763 10752 10751 10750 ] final  -45.92 input  -60.55 | X-H torsion
[ 11005 11000 10999 10996 ] final   59.77 input  -57.11 | X-H torsion

> <Gold.Protein.ActiveResidues>
 VAL166  LYS551  ARG553  GLY616  TRP617  ASP618  TYR619  PRO620  LYS621  CYS622 
 ASP623  PHE694  ASN695  SER759  ASP760  ASP761  ALA762  ILE779  LEU786  VAL792 
 PHE793  MET794  SER795  GLU796  ALA797  LYS798  CYS799  TRP800  GLU811  SER814 

> <Gold.Protein.RotatedAtoms>
  151.3820  133.3818  159.2710 H   0  0  0  0  0  0  0  0  0  0  0  0  # atno 6907 bound_to 6896
  150.9570  134.8964  159.7718 H   0  0  0  0  0  0  0  0  0  0  0  0  # atno 6908 bound_to 6896
  152.5134  134.3778  159.9393 H   0  0  0  0  0  0  0  0  0  0  0  0  # atno 6909 bound_to 6896
  146.2444  140.0563  142.8371 H   0  0  0  0  0  0  0  0  0  0  0  0  # atno 7974 bound_to 7965
  154.4161  140.1178  156.5304 H   0  0  0  0  0  0  0  0  0  0  0  0  # atno 8008 bound_to 7997
  155.6611  140.3496  155.4764 H   0  0  0  0  0  0  0  0  0  0  0  0  # atno 8009 bound_to 7997
  155.9712  140.1142  157.0800 H   0  0  0  0  0  0  0  0  0  0  0  0  # atno 8010 bound_to 7997
  140.4909  143.2380  151.7908 H   0  0  0  0  0  0  0  0  0  0  0  0  # atno 10167 bound_to 10162
  155.9984  130.4864  150.5138 H   0  0  0  0  0  0  0  0  0  0  0  0  # atno 10718 bound_to 10713
  154.0365  135.6650  153.4786 H   0  0  0  0  0  0  0  0  0  0  0  0  # atno 10763 bound_to 10752
  153.0519  135.5079  154.7883 H   0  0  0  0  0  0  0  0  0  0  0  0  # atno 10764 bound_to 10752
  154.6845  135.3050  154.9532 H   0  0  0  0  0  0  0  0  0  0  0  0  # atno 10765 bound_to 10752
  140.0280  134.6054  155.9546 H   0  0  0  0  0  0  0  0  0  0  0  0  # atno 11005 bound_to 11000
  145.0939  140.9302  143.4752 LP  0  0  0  0  0  0  0  0  0  0  0  0  # atno 17320 bound_to 7965
  145.0742  139.3008  143.5816 LP  0  0  0  0  0  0  0  0  0  0  0  0  # atno 17321 bound_to 7965
  139.4851  144.4650  151.9495 LP  0  0  0  0  0  0  0  0  0  0  0  0  # atno 17342 bound_to 10162
  140.3737  144.2824  150.5917 LP  0  0  0  0  0  0  0  0  0  0  0  0  # atno 17343 bound_to 10162
  157.3108  131.0663  151.2002 LP  0  0  0  0  0  0  0  0  0  0  0  0  # atno 17370 bound_to 10713
  157.2949  130.6814  149.6133 LP  0  0  0  0  0  0  0  0  0  0  0  0  # atno 17371 bound_to 10713
  141.1814  133.6547  156.5036 LP  0  0  0  0  0  0  0  0  0  0  0  0  # atno 17394 bound_to 11000
  140.4274  134.7133  157.4923 LP  0  0  0  0  0  0  0  0  0  0  0  0  # atno 17395 bound_to 11000

$$$$
