AV-unprocessed.smi:69|AV-procd|sdf|649|dock4
  -GOLD-   2262016543D 1   1.00000     0.00000
 Structure written by MMmdl.
 32 34  0  0  0  0  0  0  0  0  1 V2000
  152.7690  140.3093  159.3548 N   0  0  0  0  0  0  0  0  0  0  0  0
  152.3979  139.9149  158.1290 C   0  0  0  0  0  0  0  0  0  0  0  0
  153.0371  138.8602  157.5734 N   0  0  0  0  0  0  0  0  0  0  0  0
  152.6809  138.4459  156.3544 C   0  0  0  0  0  0  0  0  0  0  0  0
  151.7378  138.9392  155.5489 N   0  0  0  0  0  0  0  0  0  0  0  0
  151.0892  140.0053  156.1051 C   0  0  0  0  0  0  0  0  0  0  0  0
  151.3658  140.5491  157.3919 C   0  0  0  0  0  0  0  0  0  0  0  0
  150.5237  141.6202  157.6468 N   0  0  0  0  0  0  0  0  0  0  0  0
  149.7854  141.6970  156.5737 C   0  0  0  0  0  0  0  0  0  0  0  0
  150.0608  140.7763  155.5844 N   0  0  0  0  0  0  0  0  0  0  0  0
  149.3240  140.6447  154.2768 C   0  0  2  0  0  0  0  0  0  0  0  0
  148.5810  141.8037  154.0742 O   0  0  0  0  0  0  0  0  0  0  0  0
  147.2519  141.6093  154.5349 C   0  0  1  0  0  0  0  0  0  0  0  0
  146.3103  142.5991  153.8330 C   0  0  0  0  0  0  0  0  0  0  0  0
  144.9834  142.4031  154.2732 O   0  0  0  0  0  0  0  0  0  0  0  0
  146.9732  140.1422  154.1725 C   0  0  2  0  0  0  0  0  0  0  0  0
  146.0845  139.5654  155.1081 O   0  0  0  0  0  0  0  0  0  0  0  0
  148.3430  139.4587  154.2309 C   0  0  1  0  0  0  0  0  0  0  0  0
  148.5410  138.6717  153.0730 O   0  0  0  0  0  0  0  0  0  0  0  0
  150.1200  140.5779  153.5333 H   0  0  0  0  0  0  0  0  0  0  0  0
  147.2171  141.7537  155.6148 H   0  0  0  0  0  0  0  0  0  0  0  0
  146.5486  140.0767  153.1692 H   0  0  0  0  0  0  0  0  0  0  0  0
  148.4719  138.8150  155.1003 H   0  0  0  0  0  0  0  0  0  0  0  0
  152.3049  141.0924  159.7921 H   0  0  0  0  0  0  0  0  0  0  0  0
  153.5046  139.8177  159.8411 H   0  0  0  0  0  0  0  0  0  0  0  0
  153.2278  137.5980  155.9691 H   0  0  0  0  0  0  0  0  0  0  0  0
  149.0058  142.4384  156.4748 H   0  0  0  0  0  0  0  0  0  0  0  0
  146.6197  143.6308  154.0015 H   0  0  0  0  0  0  0  0  0  0  0  0
  146.3245  142.4278  152.7563 H   0  0  0  0  0  0  0  0  0  0  0  0
  144.6598  141.5962  153.9032 H   0  0  0  0  0  0  0  0  0  0  0  0
  145.5274  140.2475  155.4509 H   0  0  0  0  0  0  0  0  0  0  0  0
  148.7729  139.2441  152.3577 H   0  0  0  0  0  0  0  0  0  0  0  0
  1  2  1  0  0  0  0
  1 24  1  0  0  0  0
  1 25  1  0  0  0  0
  2  7  1  0  0  0  0
  2  3  2  0  0  0  0
  3  4  1  0  0  0  0
  4  5  2  0  0  0  0
  4 26  1  0  0  0  0
  5  6  1  0  0  0  0
  6 10  1  0  0  0  0
  6  7  2  0  0  0  0
  7  8  1  0  0  0  0
  8  9  2  0  0  0  0
  9 10  1  0  0  0  0
  9 27  1  0  0  0  0
 10 11  1  0  0  0  0
 11 20  1  0  0  0  0
 11 18  1  0  0  0  0
 11 12  1  0  0  0  0
 12 13  1  0  0  0  0
 13 21  1  0  0  0  0
 13 14  1  0  0  0  0
 13 16  1  0  0  0  0
 14 15  1  0  0  0  0
 14 28  1  0  0  0  0
 14 29  1  0  0  0  0
 15 30  1  0  0  0  0
 16 22  1  0  0  0  0
 16 17  1  0  0  0  0
 16 18  1  0  0  0  0
 17 31  1  0  0  0  0
 18 23  1  0  0  0  0
 18 19  1  0  0  0  0
 19 32  1  0  0  0  0
M  END
> <s_m_source_file>
AV-unprocessed.smi

> <i_m_source_file_index>
69

> <i_lp_mmshare_version>
43012

> <i_f3d_flags>
0

> <s_epik_input>
bjFbY0hdbmMoW05IMl0pYyhjMTIpbltjSF1uMltDQEBIXTNPW0NASF0oW0NIMl1bT0hdKVtDQEBIXShbT0hdKVtDQEhdM1tPSF0=

> <s_epik_cmdline>
J2VwaWtfcHl0aG9uJywgJy1waCcsICc3LjAnLCAnLXRuJywgJzgnLCAnLW1hJywgJzIwMCcsICctbWV0YWxfYmluZGluZycsICctaW1hZScsICc8aW5maWxlLm1hZT4nLCAnLW9tYWUnLCAnPG91dGZpbGUubWFlPic=

> <r_lp_tautomer_probability>
1

> <r_epik_Ionization_Penalty>
0.000428445

> <r_epik_Ionization_Penalty_Charging>
0

> <r_epik_Ionization_Penalty_Neutral>
0.000428445

> <r_epik_State_Penalty>
-0

> <r_epik_Charging_Adjusted_Penalty>
0

> <i_epik_Tot_Q>
0

> <i_epik_Tot_abs_Q>
0

> <r_epik_Metal_State_Penalty>
-0

> <b_epik_Metal_Only>
0

> <s_epik_Chemistry_Notes>
This compound contains an acetal/aminal-like group ( X-CH(R)-Y where X, Y are N, S, or O) that may be acid/base labile, releasing an aldehyde.

> <s_lp_Force_Field>
OPLS_2005

> <r_lp_Energy>
31.8637

> <b_lp_Chiralities_Consistent>
1

> <s_lp_Variant>
AV-unprocessed.smi:69-7

> <Gold.Version>
5.8.1

> <Gold.Id.Protein>
6NUR|6NUR_protein|mol2

> <Gold.PLP.Fitness>
39.1100

> <Gold.PLP.PLP>
-29.2728

> <Gold.PLP.part.hbond>
-5.5486

> <Gold.PLP.part.metal>
0.0000

> <Gold.PLP.part.buried>
-1.5763

> <Gold.PLP.part.nonpolar>
-22.4147

> <Gold.PLP.part.repulsive>
0.3470

> <Gold.PLP.ligand.clash>
0.0000

> <Gold.PLP.ligand.torsion>
0.3637

> <Gold.PLP.Chemscore.Hbond>
2.5147

> <Gold.PLP.Chemscore.CHOScore>
1.0000

> <Gold.PLP.Chemscore.Metal>
0.0000

> <Gold.Chemscore.Hbonds>
donor molecule, donor type, donor heavy atom, donor atom, acceptor molecule, acceptor atom, score
      L1  H    15    30       P1 10175  0.85
      L1  H    19    32       P1  7957  1.00
      P1  H  7997  8008       L1     3  0.33
      P1  H  8011  8017       L1    12  0.20
      L1  C     9    27       P1  8028  1.00

> <Gold.PLP.Chemscore.Internal.Correction>
0.0206

> <Gold.Rescore>
     Score         DG    S(hbond)    S(metal)    S(lipo)     H(rot)  DE(clash)    DE(int)     intcor
      2.65      -3.37       1.49        0.00      27.63       4.03       0.46       0.27       ----

> <Gold.Chemscore.Fitness>
2.6480

> <Gold.Chemscore.DG>
-3.3706

> <Gold.Chemscore.ZeroCoef>
-5.4800

> <Gold.Chemscore.Hbond>
1.4877

> <Gold.Chemscore.Metal>
0.0000

> <Gold.Chemscore.Lipo>
27.6304

> <Gold.Chemscore.Internal_Hbond>
0.0000

> <Gold.Chemscore.DEClash>
0.4558

> <Gold.Chemscore.DEInternal>
0.2668

> <Gold.Chemscore.Rot>
4.0277

> <Gold.Chemscore.Internal.Correction>
   9.000000E+99

> <Gold.Chemscore.Hbonds>
donor molecule, donor type, donor heavy atom, donor atom, acceptor molecule, acceptor atom, score
      L1  H    15    30       P1 10175  0.13
      L1  H    19    32       P1  7957  1.00
      P1  H  8011  8017       L1    12  0.02

> <Gold.Chemscore.Hbond.Weighted>
-4.9688

> <Gold.Chemscore.Metal.Weighted>
-0.0000

> <Gold.Chemscore.Lipo.Weighted>
-3.2328

> <Gold.Chemscore.Internal_Hbond.Weighted>
0.0000

> <Gold.Chemscore.DEClash.Weighted>
0.4558

> <Gold.Chemscore.DEInternal.Weighted>
0.2668

> <Gold.Chemscore.Rot.Weighted>
10.3110

> <Gold.Chemscore.Internal.Correction.Weighted>
   9.000000E+99

> <Gold.Protein.RotatedTorsions>
[ 6907 6896 6895 6894 ] final  123.39 input  -60.11 | X-H torsion
[ 7974 7965 7964 7962 ] final  -81.23 input  175.53 | X-H torsion
[ 8008 7997 7996 7995 ] final  -68.66 input   59.86 | X-H torsion
[ 10167 10162 10161 10158 ] final -124.83 input  -65.29 | X-H torsion
[ 10718 10713 10712 10709 ] final   62.36 input   66.30 | X-H torsion
[ 10763 10752 10751 10750 ] final  -20.07 input  -60.55 | X-H torsion
[ 11005 11000 10999 10996 ] final  105.88 input  -57.11 | X-H torsion

> <Gold.Protein.ActiveResidues>
 VAL166  LYS551  ARG553  GLY616  TRP617  ASP618  TYR619  PRO620  LYS621  CYS622 
 ASP623  PHE694  ASN695  SER759  ASP760  ASP761  ALA762  ILE779  LEU786  VAL792 
 PHE793  MET794  SER795  GLU796  ALA797  LYS798  CYS799  TRP800  GLU811  SER814 

> <Gold.Protein.RotatedAtoms>
  152.4165  133.7047  159.6443 H   0  0  0  0  0  0  0  0  0  0  0  0  # atno 6907 bound_to 6896
  150.8042  133.8530  159.3219 H   0  0  0  0  0  0  0  0  0  0  0  0  # atno 6908 bound_to 6896
  151.6259  135.1029  160.0163 H   0  0  0  0  0  0  0  0  0  0  0  0  # atno 6909 bound_to 6896
  145.5493  140.9499  143.1508 H   0  0  0  0  0  0  0  0  0  0  0  0  # atno 7974 bound_to 7965
  154.4884  140.0868  156.7538 H   0  0  0  0  0  0  0  0  0  0  0  0  # atno 8008 bound_to 7997
  155.4293  140.3449  155.4260 H   0  0  0  0  0  0  0  0  0  0  0  0  # atno 8009 bound_to 7997
  156.1294  140.1497  156.9075 H   0  0  0  0  0  0  0  0  0  0  0  0  # atno 8010 bound_to 7997
  139.9886  143.5665  152.2351 H   0  0  0  0  0  0  0  0  0  0  0  0  # atno 10167 bound_to 10162
  157.5895  130.9046  149.9578 H   0  0  0  0  0  0  0  0  0  0  0  0  # atno 10718 bound_to 10713
  153.6147  135.6995  153.5333 H   0  0  0  0  0  0  0  0  0  0  0  0  # atno 10763 bound_to 10752
  153.2988  135.4135  155.1233 H   0  0  0  0  0  0  0  0  0  0  0  0  # atno 10764 bound_to 10752
  154.8556  135.3643  154.5686 H   0  0  0  0  0  0  0  0  0  0  0  0  # atno 10765 bound_to 10752
  139.8807  134.9351  156.5582 H   0  0  0  0  0  0  0  0  0  0  0  0  # atno 11005 bound_to 11000
  144.7537  139.7128  143.7263 LP  0  0  0  0  0  0  0  0  0  0  0  0  # atno 17320 bound_to 7965
  146.1927  139.5177  142.9794 LP  0  0  0  0  0  0  0  0  0  0  0  0  # atno 17321 bound_to 7965
  139.6356  144.7649  151.2444 LP  0  0  0  0  0  0  0  0  0  0  0  0  # atno 17342 bound_to 10162
  140.7463  143.6403  150.8341 LP  0  0  0  0  0  0  0  0  0  0  0  0  # atno 17343 bound_to 10162
  156.0948  130.3660  150.0327 LP  0  0  0  0  0  0  0  0  0  0  0  0  # atno 17370 bound_to 10713
  156.8453  130.9440  151.3629 LP  0  0  0  0  0  0  0  0  0  0  0  0  # atno 17371 bound_to 10713
  140.8189  133.8369  155.8877 LP  0  0  0  0  0  0  0  0  0  0  0  0  # atno 17394 bound_to 11000
  140.9437  134.1868  157.4779 LP  0  0  0  0  0  0  0  0  0  0  0  0  # atno 17395 bound_to 11000

$$$$
