AV-unprocessed.smi:3282|AV-procd|sdf|12562|dock4
  -GOLD-   2272018483D 1   1.00000     0.00000
 Structure written by MMmdl.
 34 35  0  0  0  0  0  0  0  0  1 V2000
  152.1427  145.4299  159.1665 C   0  0  0  0  0  0  0  0  0  0  0  0
  151.5777  144.4530  160.2104 C   0  0  0  0  0  0  0  0  0  0  0  0
  152.0383  142.9992  160.0109 C   0  0  0  0  0  0  0  0  0  0  0  0
  152.6583  142.4239  160.9068 O   0  0  0  0  0  0  0  0  0  0  0  0
  151.7425  142.3919  158.8429 N   0  0  0  0  0  0  0  0  0  0  0  0
  152.1070  141.0108  158.5389 C   0  0  0  0  0  0  0  0  0  0  0  0
  151.3777  140.6592  157.2424 C   0  0  0  0  0  0  0  0  0  0  0  0
  151.1353  142.0025  156.5600 C   0  0  1  0  0  0  0  0  0  0  0  0
  149.9288  141.9782  155.7389 N   0  0  0  0  0  0  0  0  0  0  0  0
  149.6308  141.0396  154.8284 C   0  0  0  0  0  0  0  0  0  0  0  0
  150.3803  140.0822  154.6116 O   0  0  0  0  0  0  0  0  0  0  0  0
  148.3964  141.2989  154.2537 N   0  0  0  0  0  0  0  0  0  0  0  0
  147.8355  140.3833  153.5249 C   0  0  0  0  0  0  0  0  0  0  0  0
  148.2094  139.0866  153.1808 N   0  0  0  0  0  0  0  0  0  0  0  0
  147.2287  138.5569  152.3896 C   0  0  0  0  0  0  0  0  0  0  0  0
  146.2788  139.4752  152.2401 C   0  0  0  0  0  0  0  0  0  0  0  0
  146.6220  140.6030  152.9235 O   0  0  0  0  0  0  0  0  0  0  0  0
  151.0292  143.0003  157.7214 C   0  0  0  0  0  0  0  0  0  0  0  0
  151.7969  146.4450  159.3627 H   0  0  0  0  0  0  0  0  0  0  0  0
  151.8240  145.1641  158.1578 H   0  0  0  0  0  0  0  0  0  0  0  0
  153.2332  145.4454  159.1839 H   0  0  0  0  0  0  0  0  0  0  0  0
  151.8756  144.7871  161.2048 H   0  0  0  0  0  0  0  0  0  0  0  0
  150.4883  144.4840  160.1764 H   0  0  0  0  0  0  0  0  0  0  0  0
  153.1871  140.9532  158.3967 H   0  0  0  0  0  0  0  0  0  0  0  0
  151.8342  140.3270  159.3442 H   0  0  0  0  0  0  0  0  0  0  0  0
  151.9406  139.9650  156.6178 H   0  0  0  0  0  0  0  0  0  0  0  0
  150.4264  140.1845  157.4893 H   0  0  0  0  0  0  0  0  0  0  0  0
  152.0080  142.2456  155.9508 H   0  0  0  0  0  0  0  0  0  0  0  0
  149.2667  142.7279  155.8775 H   0  0  0  0  0  0  0  0  0  0  0  0
  149.0461  138.5859  153.4440 H   0  0  0  0  0  0  0  0  0  0  0  0
  147.3184  137.5509  152.0073 H   0  0  0  0  0  0  0  0  0  0  0  0
  145.3413  139.4800  151.7041 H   0  0  0  0  0  0  0  0  0  0  0  0
  149.9889  143.1551  158.0132 H   0  0  0  0  0  0  0  0  0  0  0  0
  151.4500  143.9670  157.4411 H   0  0  0  0  0  0  0  0  0  0  0  0
  1  2  1  0  0  0  0
  1 19  1  0  0  0  0
  1 20  1  0  0  0  0
  1 21  1  0  0  0  0
  2  3  1  0  0  0  0
  2 22  1  0  0  0  0
  2 23  1  0  0  0  0
  3  4  2  0  0  0  0
  3  5  1  0  0  0  0
  5 18  1  0  0  0  0
  5  6  1  0  0  0  0
  6  7  1  0  0  0  0
  6 24  1  0  0  0  0
  6 25  1  0  0  0  0
  7  8  1  0  0  0  0
  7 26  1  0  0  0  0
  7 27  1  0  0  0  0
  8  9  1  0  0  0  0
  8 18  1  0  0  0  0
  8 28  1  0  0  0  0
  9 29  1  0  0  0  0
  9 10  1  0  0  0  0
 10 12  1  0  0  0  0
 10 11  2  0  0  0  0
 12 13  2  0  0  0  0
 13 17  1  0  0  0  0
 13 14  1  0  0  0  0
 14 30  1  0  0  0  0
 14 15  1  0  0  0  0
 15 31  1  0  0  0  0
 15 16  2  0  0  0  0
 16 32  1  0  0  0  0
 16 17  1  0  0  0  0
 18 33  1  0  0  0  0
 18 34  1  0  0  0  0
M  END
> <s_m_source_file>
AV-unprocessed.smi

> <i_m_source_file_index>
3282

> <i_lp_mmshare_version>
43012

> <i_f3d_flags>
0

> <s_epik_input>
W0NIM11bQ0gyXUMoPU8pTjFbQ0gyXVtDSDJdW0NASF0oW0NIMl0xKVtOSF1DKD1PKVtOSF1jMm5bY0hdW2NIXW8y

> <s_epik_cmdline>
J2VwaWtfcHl0aG9uJywgJy1waCcsICc3LjAnLCAnLXRuJywgJzgnLCAnLW1hJywgJzIwMCcsICctbWV0YWxfYmluZGluZycsICctaW1hZScsICc8aW5maWxlLm1hZT4nLCAnLW9tYWUnLCAnPG91dGZpbGUubWFlPic=

> <r_lp_tautomer_probability>
0.107061

> <r_epik_Ionization_Penalty>
0.434703

> <r_epik_Ionization_Penalty_Charging>
0.434345

> <r_epik_Ionization_Penalty_Neutral>
0.000358141

> <r_epik_State_Penalty>
2.49584

> <r_epik_Charging_Adjusted_Penalty>
2.93019

> <i_epik_Tot_Q>
0

> <i_epik_Tot_abs_Q>
0

> <r_epik_Metal_State_Penalty>
4.06361

> <b_epik_Metal_Only>
0

> <s_lp_Force_Field>
OPLS_2005

> <r_lp_Energy>
50.3275

> <b_lp_Chiralities_Consistent>
1

> <s_lp_Variant>
AV-unprocessed.smi:3282-3

> <Gold.Version>
5.8.1

> <Gold.Id.Protein>
6NUR|6NUR_protein|mol2

> <Gold.PLP.Fitness>
45.6474

> <Gold.PLP.PLP>
-31.5852

> <Gold.PLP.part.hbond>
-3.4028

> <Gold.PLP.part.metal>
0.0000

> <Gold.PLP.part.buried>
1.8003

> <Gold.PLP.part.nonpolar>
-31.7402

> <Gold.PLP.part.repulsive>
1.5438

> <Gold.PLP.ligand.clash>
0.0000

> <Gold.PLP.ligand.torsion>
0.1553

> <Gold.PLP.Chemscore.Hbond>
1.9600

> <Gold.PLP.Chemscore.CHOScore>
2.8276

> <Gold.PLP.Chemscore.Metal>
0.0000

> <Gold.Chemscore.Hbonds>
donor molecule, donor type, donor heavy atom, donor atom, acceptor molecule, acceptor atom, score
      L1  H     9    29       P1  8028  0.90
      P1  H  7989  7998       L1    11  1.00
      L1  C    15    31       P1  7948  1.00
      L1  C    16    32       P1 10171  1.00
      L1  C    16    32       P1 10175  0.84

> <Gold.PLP.Chemscore.Internal.Correction>
0.0099

> <Gold.Rescore>
     Score         DG    S(hbond)    S(metal)    S(lipo)     H(rot)  DE(clash)    DE(int)     intcor
     12.44     -16.08       1.62        0.00      73.17       1.32       2.12       1.52       ----

> <Gold.Chemscore.Fitness>
12.4358

> <Gold.Chemscore.DG>
-16.0781

> <Gold.Chemscore.ZeroCoef>
-5.4800

> <Gold.Chemscore.Hbond>
1.6217

> <Gold.Chemscore.Metal>
0.0000

> <Gold.Chemscore.Lipo>
73.1665

> <Gold.Chemscore.Internal_Hbond>
0.0000

> <Gold.Chemscore.DEClash>
2.1243

> <Gold.Chemscore.DEInternal>
1.5180

> <Gold.Chemscore.Rot>
1.3199

> <Gold.Chemscore.Internal.Correction>
   9.000000E+99

> <Gold.Chemscore.Hbonds>
donor molecule, donor type, donor heavy atom, donor atom, acceptor molecule, acceptor atom, score
      L1  H     9    29       P1  8028  0.84
      P1  H  7989  7998       L1    11  0.25

> <Gold.Chemscore.Hbond.Weighted>
-5.4166

> <Gold.Chemscore.Metal.Weighted>
-0.0000

> <Gold.Chemscore.Lipo.Weighted>
-8.5605

> <Gold.Chemscore.Internal_Hbond.Weighted>
0.0000

> <Gold.Chemscore.DEClash.Weighted>
2.1243

> <Gold.Chemscore.DEInternal.Weighted>
1.5180

> <Gold.Chemscore.Rot.Weighted>
3.3789

> <Gold.Chemscore.Internal.Correction.Weighted>
   9.000000E+99

> <Gold.Protein.RotatedTorsions>
[ 6907 6896 6895 6894 ] final   33.49 input  -60.11 | X-H torsion
[ 7974 7965 7964 7962 ] final   40.17 input  175.53 | X-H torsion
[ 8008 7997 7996 7995 ] final   17.20 input   59.86 | X-H torsion
[ 10167 10162 10161 10158 ] final  160.79 input  -65.29 | X-H torsion
[ 10718 10713 10712 10709 ] final  106.32 input   66.30 | X-H torsion
[ 10763 10752 10751 10750 ] final  -91.56 input  -60.55 | X-H torsion
[ 11005 11000 10999 10996 ] final -114.86 input  -57.11 | X-H torsion

> <Gold.Protein.ActiveResidues>
 VAL166  LYS551  ARG553  GLY616  TRP617  ASP618  TYR619  PRO620  LYS621  CYS622 
 ASP623  PHE694  ASN695  SER759  ASP760  ASP761  ALA762  ILE779  LEU786  VAL792 
 PHE793  MET794  SER795  GLU796  ALA797  LYS798  CYS799  TRP800  GLU811  SER814 

> <Gold.Protein.RotatedAtoms>
  152.0893  134.9418  160.0571 H   0  0  0  0  0  0  0  0  0  0  0  0  # atno 6907 bound_to 6896
  152.0676  133.4086  159.4453 H   0  0  0  0  0  0  0  0  0  0  0  0  # atno 6908 bound_to 6896
  150.6836  134.3049  159.4765 H   0  0  0  0  0  0  0  0  0  0  0  0  # atno 6909 bound_to 6896
  146.0926  139.5564  142.9466 H   0  0  0  0  0  0  0  0  0  0  0  0  # atno 7974 bound_to 7965
  154.8879  140.2982  155.5387 H   0  0  0  0  0  0  0  0  0  0  0  0  # atno 8008 bound_to 7997
  156.3021  140.2430  156.3825 H   0  0  0  0  0  0  0  0  0  0  0  0  # atno 8009 bound_to 7997
  154.8649  140.0404  157.1677 H   0  0  0  0  0  0  0  0  0  0  0  0  # atno 8010 bound_to 7997
  139.4843  144.4600  151.8717 H   0  0  0  0  0  0  0  0  0  0  0  0  # atno 10167 bound_to 10162
  157.6672  131.0848  150.5989 H   0  0  0  0  0  0  0  0  0  0  0  0  # atno 10718 bound_to 10713
  154.6773  135.5263  153.8217 H   0  0  0  0  0  0  0  0  0  0  0  0  # atno 10763 bound_to 10752
  153.0541  135.6544  154.0630 H   0  0  0  0  0  0  0  0  0  0  0  0  # atno 10764 bound_to 10752
  154.0522  135.2968  155.3318 H   0  0  0  0  0  0  0  0  0  0  0  0  # atno 10765 bound_to 10752
  141.0525  133.9665  157.2811 H   0  0  0  0  0  0  0  0  0  0  0  0  # atno 11005 bound_to 11000
  145.6010  141.0355  143.2018 LP  0  0  0  0  0  0  0  0  0  0  0  0  # atno 17320 bound_to 7965
  144.7371  139.7554  143.7325 LP  0  0  0  0  0  0  0  0  0  0  0  0  # atno 17321 bound_to 7965
  140.4062  144.2429  150.5890 LP  0  0  0  0  0  0  0  0  0  0  0  0  # atno 17342 bound_to 10162
  140.5010  143.2318  151.8678 LP  0  0  0  0  0  0  0  0  0  0  0  0  # atno 17343 bound_to 10162
  156.6290  130.4426  149.5794 LP  0  0  0  0  0  0  0  0  0  0  0  0  # atno 17370 bound_to 10713
  156.2297  130.6787  151.1451 LP  0  0  0  0  0  0  0  0  0  0  0  0  # atno 17371 bound_to 10713
  139.9362  135.0196  156.8564 LP  0  0  0  0  0  0  0  0  0  0  0  0  # atno 17394 bound_to 11000
  140.6028  134.0156  155.7544 LP  0  0  0  0  0  0  0  0  0  0  0  0  # atno 17395 bound_to 11000

$$$$
