AV-unprocessed.smi:2310|AV-procd|sdf|9258|dock6
  -GOLD-   2272012483D 1   1.00000     0.00000
 Structure written by MMmdl.
 46 47  0  0  0  0  0  0  0  0  2 V2000
  145.2132  135.1478  150.1201 C   0  0  0  0  0  0  0  0  0  0  0  0
  145.7565  136.4265  150.7746 C   0  0  0  0  0  0  0  0  0  0  0  0
  144.7069  137.1961  151.5977 C   0  0  1  0  0  0  0  0  0  0  0  0
  144.1811  136.3490  152.7670 C   0  0  0  0  0  0  0  0  0  0  0  0
  142.9873  136.9222  153.4092 C   0  0  0  0  0  0  0  0  0  0  0  0
  142.0493  137.3716  153.9156 N   0  0  0  0  0  0  0  0  0  0  0  0
  145.2828  138.4397  152.1108 N   0  0  0  0  0  0  0  0  0  0  0  0
  146.5102  138.5790  152.6325 C   0  0  0  0  0  0  0  0  0  0  0  0
  147.3141  137.6539  152.7450 O   0  0  0  0  0  0  0  0  0  0  0  0
  146.7286  139.8452  153.0264 N   0  0  0  0  0  0  0  0  0  0  0  0
  147.8794  140.3788  153.6702 C   0  0  0  0  0  0  0  0  0  0  0  0
  149.0872  139.6533  153.8186 C   0  0  0  0  0  0  0  0  0  0  0  0
  150.1883  140.2530  154.4618 C   0  0  0  0  0  0  0  0  0  0  0  0
  150.0822  141.5766  154.9478 C   0  0  0  0  0  0  0  0  0  0  0  0
  151.1395  142.2385  155.6018 N   0  0  0  0  0  0  0  0  0  0  0  0
  151.9517  141.5611  156.5993 C   0  0  0  0  0  0  0  0  0  0  0  0
  152.8208  142.6612  157.2071 C   0  0  0  0  0  0  0  0  0  0  0  0
  151.9243  143.8962  157.1231 C   0  0  0  0  0  0  0  0  0  0  0  0
  151.1054  143.6752  155.8462 C   0  0  0  0  0  0  0  0  0  0  0  0
  148.9170  142.2403  154.7603 N   0  3  0  0  0  0  0  0  0  0  0  0
  147.8342  141.7093  154.1495 C   0  0  0  0  0  0  0  0  0  0  0  0
  146.6033  142.5881  154.0214 C   0  0  0  0  0  0  0  0  0  0  0  0
  146.0065  134.6158  149.5947 H   0  0  0  0  0  0  0  0  0  0  0  0
  144.4299  135.3683  149.3947 H   0  0  0  0  0  0  0  0  0  0  0  0
  144.7976  134.4705  150.8667 H   0  0  0  0  0  0  0  0  0  0  0  0
  146.5898  136.1565  151.4241 H   0  0  0  0  0  0  0  0  0  0  0  0
  146.1725  137.0777  150.0049 H   0  0  0  0  0  0  0  0  0  0  0  0
  143.8627  137.4088  150.9391 H   0  0  0  0  0  0  0  0  0  0  0  0
  143.9115  135.3515  152.4194 H   0  0  0  0  0  0  0  0  0  0  0  0
  144.9497  136.2251  153.5305 H   0  0  0  0  0  0  0  0  0  0  0  0
  144.6938  139.2585  152.0667 H   0  0  0  0  0  0  0  0  0  0  0  0
  145.9458  140.4772  152.9428 H   0  0  0  0  0  0  0  0  0  0  0  0
  149.1950  138.6488  153.4390 H   0  0  0  0  0  0  0  0  0  0  0  0
  151.1021  139.6876  154.5692 H   0  0  0  0  0  0  0  0  0  0  0  0
  151.3034  141.1207  157.3584 H   0  0  0  0  0  0  0  0  0  0  0  0
  152.5580  140.7696  156.1575 H   0  0  0  0  0  0  0  0  0  0  0  0
  153.1434  142.4342  158.2237 H   0  0  0  0  0  0  0  0  0  0  0  0
  153.7120  142.8110  156.5959 H   0  0  0  0  0  0  0  0  0  0  0  0
  151.2575  143.9192  157.9862 H   0  0  0  0  0  0  0  0  0  0  0  0
  152.4862  144.8307  157.1105 H   0  0  0  0  0  0  0  0  0  0  0  0
  151.5654  144.1853  154.9993 H   0  0  0  0  0  0  0  0  0  0  0  0
  150.0907  144.0569  155.9645 H   0  0  0  0  0  0  0  0  0  0  0  0
  145.7587  142.1348  154.5409 H   0  0  0  0  0  0  0  0  0  0  0  0
  146.3345  142.7157  152.9725 H   0  0  0  0  0  0  0  0  0  0  0  0
  146.7726  143.5769  154.4488 H   0  0  0  0  0  0  0  0  0  0  0  0
  148.8508  143.1991  155.1018 H   0  0  0  0  0  0  0  0  0  0  0  0
  1  2  1  0  0  0  0
  1 23  1  0  0  0  0
  1 24  1  0  0  0  0
  1 25  1  0  0  0  0
  2  3  1  0  0  0  0
  2 26  1  0  0  0  0
  2 27  1  0  0  0  0
  3  4  1  0  0  0  0
  3  7  1  0  0  0  0
  3 28  1  0  0  0  0
  4  5  1  0  0  0  0
  4 29  1  0  0  0  0
  4 30  1  0  0  0  0
  5  6  3  0  0  0  0
  7  8  1  0  0  0  0
  7 31  1  0  0  0  0
  8  9  2  0  0  0  0
  8 10  1  0  0  0  0
 10 11  1  0  0  0  0
 10 32  1  0  0  0  0
 11 21  1  0  0  0  0
 11 12  2  0  0  0  0
 12 13  1  0  0  0  0
 12 33  1  0  0  0  0
 13 14  2  0  0  0  0
 13 34  1  0  0  0  0
 14 15  1  0  0  0  0
 14 20  1  0  0  0  0
 15 19  1  0  0  0  0
 15 16  1  0  0  0  0
 16 17  1  0  0  0  0
 16 35  1  0  0  0  0
 16 36  1  0  0  0  0
 17 18  1  0  0  0  0
 17 37  1  0  0  0  0
 17 38  1  0  0  0  0
 18 19  1  0  0  0  0
 18 39  1  0  0  0  0
 18 40  1  0  0  0  0
 19 41  1  0  0  0  0
 19 42  1  0  0  0  0
 20 21  2  0  0  0  0
 20 46  1  0  0  0  0
 21 22  1  0  0  0  0
 22 43  1  0  0  0  0
 22 44  1  0  0  0  0
 22 45  1  0  0  0  0
M  CHG  1  20   1
M  END
> <s_m_source_file>
AV-unprocessed.smi

> <i_m_source_file_index>
2310

> <i_lp_mmshare_version>
43012

> <i_f3d_flags>
0

> <s_epik_input>
TiNDW0NIMl1bQ0BASF0oW0NIMl1bQ0gzXSlbTkhdQyg9TylbTkhdYzFbY0hdW2NIXWMobmMxW0NIM10pTjJbQ0gyXVtDSDJdW0NIMl1bQ0gyXTI=

> <s_epik_cmdline>
J2VwaWtfcHl0aG9uJywgJy1waCcsICc3LjAnLCAnLXRuJywgJzgnLCAnLW1hJywgJzIwMCcsICctbWV0YWxfYmluZGluZycsICctaW1hZScsICc8aW5maWxlLm1hZT4nLCAnLW9tYWUnLCAnPG91dGZpbGUubWFlPic=

> <r_lp_tautomer_probability>
0.999994

> <r_epik_Ionization_Penalty>
0.577302

> <r_epik_Ionization_Penalty_Charging>
0.577278

> <r_epik_Ionization_Penalty_Neutral>
2.39253e-05

> <r_epik_State_Penalty>
0.589738

> <r_epik_Charging_Adjusted_Penalty>
1.16702

> <i_epik_Tot_Q>
1

> <i_epik_Tot_abs_Q>
1

> <r_epik_Metal_State_Penalty>
0.784556

> <b_epik_Metal_Only>
0

> <s_lp_Force_Field>
OPLS_2005

> <r_lp_Energy>
35.6243

> <b_lp_Chiralities_Consistent>
1

> <s_lp_Variant>
AV-unprocessed.smi:2310-4

> <Gold.Version>
5.8.1

> <Gold.Id.Protein>
6NUR|6NUR_protein|mol2

> <Gold.PLP.Fitness>
44.3982

> <Gold.PLP.PLP>
-35.9748

> <Gold.PLP.part.hbond>
-3.6654

> <Gold.PLP.part.metal>
0.0000

> <Gold.PLP.part.buried>
-0.0473

> <Gold.PLP.part.nonpolar>
-35.9433

> <Gold.PLP.part.repulsive>
1.8870

> <Gold.PLP.ligand.clash>
0.0000

> <Gold.PLP.ligand.torsion>
0.7327

> <Gold.PLP.Chemscore.Hbond>
3.2143

> <Gold.PLP.Chemscore.CHOScore>
0.0000

> <Gold.PLP.Chemscore.Metal>
0.0000

> <Gold.Chemscore.Hbonds>
donor molecule, donor type, donor heavy atom, donor atom, acceptor molecule, acceptor atom, score
      L1  H     7    31       P1 10175  1.00
      L1  H    10    32       P1 10175  0.26
      L1  H    20    46       P1  8028  2.00

> <Gold.PLP.Chemscore.Internal.Correction>
0.2459

> <Gold.Rescore>
     Score         DG    S(hbond)    S(metal)    S(lipo)     H(rot)  DE(clash)    DE(int)     intcor
     15.34     -20.54       2.63        0.00      85.88       1.47       2.16       3.04       ----

> <Gold.Chemscore.Fitness>
15.3353

> <Gold.Chemscore.DG>
-20.5389

> <Gold.Chemscore.ZeroCoef>
-5.4800

> <Gold.Chemscore.Hbond>
2.6261

> <Gold.Chemscore.Metal>
0.0000

> <Gold.Chemscore.Lipo>
85.8831

> <Gold.Chemscore.Internal_Hbond>
0.0000

> <Gold.Chemscore.DEClash>
2.1640

> <Gold.Chemscore.DEInternal>
3.0396

> <Gold.Chemscore.Rot>
1.4690

> <Gold.Chemscore.Internal.Correction>
   9.000000E+99

> <Gold.Chemscore.Hbonds>
donor molecule, donor type, donor heavy atom, donor atom, acceptor molecule, acceptor atom, score
      L1  H     7    31       P1 10175  0.99
      L1  H    10    32       P1 10175  0.20
      L1  H    20    46       P1  8028  0.99

> <Gold.Chemscore.Hbond.Weighted>
-8.7712

> <Gold.Chemscore.Metal.Weighted>
-0.0000

> <Gold.Chemscore.Lipo.Weighted>
-10.0483

> <Gold.Chemscore.Internal_Hbond.Weighted>
0.0000

> <Gold.Chemscore.DEClash.Weighted>
2.1640

> <Gold.Chemscore.DEInternal.Weighted>
3.0396

> <Gold.Chemscore.Rot.Weighted>
3.7606

> <Gold.Chemscore.Internal.Correction.Weighted>
   9.000000E+99

> <Gold.Protein.RotatedTorsions>
[ 6907 6896 6895 6894 ] final  160.41 input  -60.11 | X-H torsion
[ 7974 7965 7964 7962 ] final  -52.16 input  175.53 | X-H torsion
[ 8008 7997 7996 7995 ] final  -38.33 input   59.86 | X-H torsion
[ 10167 10162 10161 10158 ] final  124.40 input  -65.29 | X-H torsion
[ 10718 10713 10712 10709 ] final  175.73 input   66.30 | X-H torsion
[ 10763 10752 10751 10750 ] final   44.15 input  -60.55 | X-H torsion
[ 11005 11000 10999 10996 ] final  -81.77 input  -57.11 | X-H torsion

> <Gold.Protein.ActiveResidues>
 VAL166  LYS551  ARG553  GLY616  TRP617  ASP618  TYR619  PRO620  LYS621  CYS622 
 ASP623  PHE694  ASN695  SER759  ASP760  ASP761  ALA762  ILE779  LEU786  VAL792 
 PHE793  MET794  SER795  GLU796  ALA797  LYS798  CYS799  TRP800  GLU811  SER814 

> <Gold.Protein.RotatedAtoms>
  151.9710  133.3726  159.4070 H   0  0  0  0  0  0  0  0  0  0  0  0  # atno 6907 bound_to 6896
  150.6949  134.4140  159.5184 H   0  0  0  0  0  0  0  0  0  0  0  0  # atno 6908 bound_to 6896
  152.1844  134.8726  160.0574 H   0  0  0  0  0  0  0  0  0  0  0  0  # atno 6909 bound_to 6896
  145.9110  140.7915  142.9695 H   0  0  0  0  0  0  0  0  0  0  0  0  # atno 7974 bound_to 7965
  154.4038  140.1580  156.2682 H   0  0  0  0  0  0  0  0  0  0  0  0  # atno 8008 bound_to 7997
  155.8976  140.3435  155.5980 H   0  0  0  0  0  0  0  0  0  0  0  0  # atno 8009 bound_to 7997
  155.7485  140.0802  157.2203 H   0  0  0  0  0  0  0  0  0  0  0  0  # atno 8010 bound_to 7997
  139.5744  144.6955  151.3693 H   0  0  0  0  0  0  0  0  0  0  0  0  # atno 10167 bound_to 10162
  156.9305  130.9969  151.2988 H   0  0  0  0  0  0  0  0  0  0  0  0  # atno 10718 bound_to 10713
  152.9846  135.6079  154.3226 H   0  0  0  0  0  0  0  0  0  0  0  0  # atno 10763 bound_to 10752
  154.2935  135.2774  155.2646 H   0  0  0  0  0  0  0  0  0  0  0  0  # atno 10764 bound_to 10752
  154.4930  135.5887  153.6530 H   0  0  0  0  0  0  0  0  0  0  0  0  # atno 10765 bound_to 10752
  141.1665  133.7212  156.8473 H   0  0  0  0  0  0  0  0  0  0  0  0  # atno 11005 bound_to 11000
  144.6743  140.1825  143.7404 LP  0  0  0  0  0  0  0  0  0  0  0  0  # atno 17320 bound_to 7965
  145.8671  139.2253  143.1682 LP  0  0  0  0  0  0  0  0  0  0  0  0  # atno 17321 bound_to 7965
  140.7027  143.7592  150.7429 LP  0  0  0  0  0  0  0  0  0  0  0  0  # atno 17342 bound_to 10162
  140.1107  143.4702  152.2372 LP  0  0  0  0  0  0  0  0  0  0  0  0  # atno 17343 bound_to 10162
  157.5850  130.8403  149.8576 LP  0  0  0  0  0  0  0  0  0  0  0  0  # atno 17370 bound_to 10713
  156.0449  130.3730  150.1342 LP  0  0  0  0  0  0  0  0  0  0  0  0  # atno 17371 bound_to 10713
  140.1941  134.8944  157.3094 LP  0  0  0  0  0  0  0  0  0  0  0  0  # atno 17394 bound_to 11000
  140.2258  134.3968  155.7544 LP  0  0  0  0  0  0  0  0  0  0  0  0  # atno 17395 bound_to 11000

$$$$
