AV-unprocessed.smi:2082|AV-procd|sdf|8489|dock10
  -GOLD-   2272011193D 1   1.00000     0.00000
 Structure written by MMmdl.
 39 40  0  0  0  0  0  0  0  0  1 V2000
  152.6941  142.6611  160.3160 C   0  0  0  0  0  0  0  0  0  0  0  0
  151.6897  142.6102  159.3184 O   0  0  0  0  0  0  0  0  0  0  0  0
  152.0221  141.7307  158.2569 C   0  0  0  0  0  0  0  0  0  0  0  0
  150.8568  141.6795  157.2648 C   0  0  0  0  0  0  0  0  0  0  0  0
  151.2142  140.8221  156.1849 O   0  0  0  0  0  0  0  0  0  0  0  0
  150.2113  140.1585  155.5090 C   0  0  0  0  0  0  0  0  0  0  0  0
  148.9240  140.1227  156.0811 C   0  0  0  0  0  0  0  0  0  0  0  0
  147.8937  139.4472  155.3995 C   0  0  0  0  0  0  0  0  0  0  0  0
  148.1882  138.8187  154.1662 C   0  0  0  0  0  0  0  0  0  0  0  0
  147.2337  138.1284  153.3722 N   0  0  0  0  0  0  0  0  0  0  0  0
  145.8888  138.1454  153.4607 C   0  0  0  0  0  0  0  0  0  0  0  0
  145.2821  138.7523  154.3438 O   0  0  0  0  0  0  0  0  0  0  0  0
  145.2572  137.3927  152.5219 N   0  0  0  0  0  0  0  0  0  0  0  0
  145.9141  136.6434  151.4400 C   0  0  0  0  0  0  0  0  0  0  0  0
  145.7732  135.1414  151.7416 C   0  0  0  0  0  0  0  0  0  0  0  0
  144.4070  134.7841  152.1275 N   0  0  0  0  0  0  0  0  0  0  0  0
  143.4554  135.6542  152.5144 C   0  0  0  0  0  0  0  0  0  0  0  0
  142.3234  135.2807  152.8122 O   0  0  0  0  0  0  0  0  0  0  0  0
  143.8054  137.1538  152.5814 C   0  0  0  0  0  0  0  0  0  0  0  0
  149.5047  138.9252  153.6726 C   0  0  0  0  0  0  0  0  0  0  0  0
  150.4969  139.5702  154.3212 N   0  0  0  0  0  0  0  0  0  0  0  0
  152.3930  143.3514  161.1040 H   0  0  0  0  0  0  0  0  0  0  0  0
  153.6422  143.0111  159.9055 H   0  0  0  0  0  0  0  0  0  0  0  0
  152.8489  141.6809  160.7689 H   0  0  0  0  0  0  0  0  0  0  0  0
  152.9151  142.1013  157.7516 H   0  0  0  0  0  0  0  0  0  0  0  0
  152.2475  140.7307  158.6310 H   0  0  0  0  0  0  0  0  0  0  0  0
  149.9504  141.3347  157.7655 H   0  0  0  0  0  0  0  0  0  0  0  0
  150.6679  142.6839  156.8824 H   0  0  0  0  0  0  0  0  0  0  0  0
  148.7286  140.6102  157.0247 H   0  0  0  0  0  0  0  0  0  0  0  0
  146.9028  139.4381  155.8261 H   0  0  0  0  0  0  0  0  0  0  0  0
  147.6194  137.5074  152.6758 H   0  0  0  0  0  0  0  0  0  0  0  0
  145.4028  136.8776  150.5047 H   0  0  0  0  0  0  0  0  0  0  0  0
  146.9587  136.9024  151.2666 H   0  0  0  0  0  0  0  0  0  0  0  0
  146.0681  134.5509  150.8740 H   0  0  0  0  0  0  0  0  0  0  0  0
  146.4408  134.8617  152.5574 H   0  0  0  0  0  0  0  0  0  0  0  0
  144.1638  133.8045  152.0935 H   0  0  0  0  0  0  0  0  0  0  0  0
  143.3397  137.5640  153.4787 H   0  0  0  0  0  0  0  0  0  0  0  0
  143.3346  137.6573  151.7364 H   0  0  0  0  0  0  0  0  0  0  0  0
  149.7744  138.4749  152.7284 H   0  0  0  0  0  0  0  0  0  0  0  0
  1  2  1  0  0  0  0
  1 22  1  0  0  0  0
  1 23  1  0  0  0  0
  1 24  1  0  0  0  0
  2  3  1  0  0  0  0
  3  4  1  0  0  0  0
  3 25  1  0  0  0  0
  3 26  1  0  0  0  0
  4  5  1  0  0  0  0
  4 27  1  0  0  0  0
  4 28  1  0  0  0  0
  5  6  1  0  0  0  0
  6 21  1  0  0  0  0
  6  7  2  0  0  0  0
  7  8  1  0  0  0  0
  7 29  1  0  0  0  0
  8  9  2  0  0  0  0
  8 30  1  0  0  0  0
  9 10  1  0  0  0  0
  9 20  1  0  0  0  0
 10 11  1  0  0  0  0
 10 31  1  0  0  0  0
 11 12  2  0  0  0  0
 11 13  1  0  0  0  0
 13 19  1  0  0  0  0
 13 14  1  0  0  0  0
 14 15  1  0  0  0  0
 14 32  1  0  0  0  0
 14 33  1  0  0  0  0
 15 16  1  0  0  0  0
 15 34  1  0  0  0  0
 15 35  1  0  0  0  0
 16 17  1  0  0  0  0
 16 36  1  0  0  0  0
 17 18  2  0  0  0  0
 17 19  1  0  0  0  0
 19 37  1  0  0  0  0
 19 38  1  0  0  0  0
 20 21  2  0  0  0  0
 20 39  1  0  0  0  0
M  END
> <s_m_source_file>
AV-unprocessed.smi

> <i_m_source_file_index>
2082

> <i_lp_mmshare_version>
43012

> <i_f3d_flags>
0

> <s_epik_input>
W0NIM11PW0NIMl1bQ0gyXU9jMVtjSF1bY0hdYyhbY0hdbjEpW05IXUMoPU8pTjJbQ0gyXVtDSDJdW05IXUMoPU8pW0NIMl0y

> <s_epik_cmdline>
J2VwaWtfcHl0aG9uJywgJy1waCcsICc3LjAnLCAnLXRuJywgJzgnLCAnLW1hJywgJzIwMCcsICctbWV0YWxfYmluZGluZycsICctaW1hZScsICc8aW5maWxlLm1hZT4nLCAnLW9tYWUnLCAnPG91dGZpbGUubWFlPic=

> <r_lp_tautomer_probability>
1

> <r_epik_Ionization_Penalty>
5.92413e-05

> <r_epik_Ionization_Penalty_Charging>
0

> <r_epik_Ionization_Penalty_Neutral>
5.92413e-05

> <r_epik_State_Penalty>
-0

> <r_epik_Charging_Adjusted_Penalty>
0

> <i_epik_Tot_Q>
0

> <i_epik_Tot_abs_Q>
0

> <r_epik_Metal_State_Penalty>
-0

> <b_epik_Metal_Only>
0

> <s_lp_Force_Field>
OPLS_2005

> <r_lp_Energy>
31.1837

> <b_lp_Chiralities_Consistent>
1

> <s_lp_Variant>
AV-unprocessed.smi:2082-1

> <Gold.Version>
5.8.1

> <Gold.Id.Protein>
6NUR|6NUR_protein|mol2

> <Gold.PLP.Fitness>
34.9448

> <Gold.PLP.PLP>
-25.1134

> <Gold.PLP.part.hbond>
-2.0000

> <Gold.PLP.part.metal>
0.0000

> <Gold.PLP.part.buried>
-1.1244

> <Gold.PLP.part.nonpolar>
-23.0757

> <Gold.PLP.part.repulsive>
0.4739

> <Gold.PLP.ligand.clash>
0.0157

> <Gold.PLP.ligand.torsion>
0.3966

> <Gold.PLP.Chemscore.Hbond>
2.0000

> <Gold.PLP.Chemscore.CHOScore>
1.5358

> <Gold.PLP.Chemscore.Metal>
0.0000

> <Gold.Chemscore.Hbonds>
donor molecule, donor type, donor heavy atom, donor atom, acceptor molecule, acceptor atom, score
      L1  H    10    31       P1  7948  1.00
      P1  H  7989  7998       L1    21  1.00
      L1  C    20    39       P1  7948  0.95
      L1  C    20    39       P1  7957  0.58

> <Gold.PLP.Chemscore.Internal.Correction>
0.0328

> <Gold.Rescore>
     Score         DG    S(hbond)    S(metal)    S(lipo)     H(rot)  DE(clash)    DE(int)     intcor
      9.90     -13.80       1.82        0.00      58.60       1.81       2.12       1.78       ----

> <Gold.Chemscore.Fitness>
9.8954

> <Gold.Chemscore.DG>
-13.7958

> <Gold.Chemscore.ZeroCoef>
-5.4800

> <Gold.Chemscore.Hbond>
1.8239

> <Gold.Chemscore.Metal>
0.0000

> <Gold.Chemscore.Lipo>
58.5998

> <Gold.Chemscore.Internal_Hbond>
0.0000

> <Gold.Chemscore.DEClash>
2.1241

> <Gold.Chemscore.DEInternal>
1.7764

> <Gold.Chemscore.Rot>
1.8095

> <Gold.Chemscore.Internal.Correction>
   9.000000E+99

> <Gold.Chemscore.Hbonds>
donor molecule, donor type, donor heavy atom, donor atom, acceptor molecule, acceptor atom, score
      L1  H    10    31       P1  7948  0.94
      P1  H  7989  7998       L1    21  0.39

> <Gold.Chemscore.Hbond.Weighted>
-6.0919

> <Gold.Chemscore.Metal.Weighted>
-0.0000

> <Gold.Chemscore.Lipo.Weighted>
-6.8562

> <Gold.Chemscore.Internal_Hbond.Weighted>
0.0000

> <Gold.Chemscore.DEClash.Weighted>
2.1241

> <Gold.Chemscore.DEInternal.Weighted>
1.7764

> <Gold.Chemscore.Rot.Weighted>
4.6322

> <Gold.Chemscore.Internal.Correction.Weighted>
   9.000000E+99

> <Gold.Protein.RotatedTorsions>
[ 6907 6896 6895 6894 ] final  -31.97 input  -60.11 | X-H torsion
[ 7974 7965 7964 7962 ] final    5.99 input  175.53 | X-H torsion
[ 8008 7997 7996 7995 ] final  -51.87 input   59.86 | X-H torsion
[ 10167 10162 10161 10158 ] final   40.49 input  -65.29 | X-H torsion
[ 10718 10713 10712 10709 ] final   87.19 input   66.30 | X-H torsion
[ 10763 10752 10751 10750 ] final   41.08 input  -60.55 | X-H torsion
[ 11005 11000 10999 10996 ] final   21.70 input  -57.11 | X-H torsion

> <Gold.Protein.ActiveResidues>
 VAL166  LYS551  ARG553  GLY616  TRP617  ASP618  TYR619  PRO620  LYS621  CYS622 
 ASP623  PHE694  ASN695  SER759  ASP760  ASP761  ALA762  ILE779  LEU786  VAL792 
 PHE793  MET794  SER795  GLU796  ALA797  LYS798  CYS799  TRP800  GLU811  SER814 

> <Gold.Protein.RotatedAtoms>
  151.0849  134.9881  159.8374 H   0  0  0  0  0  0  0  0  0  0  0  0  # atno 6907 bound_to 6896
  152.5423  134.2136  159.8770 H   0  0  0  0  0  0  0  0  0  0  0  0  # atno 6908 bound_to 6896
  151.2168  133.4481  159.2633 H   0  0  0  0  0  0  0  0  0  0  0  0  # atno 6909 bound_to 6896
  146.2437  140.0300  142.8390 H   0  0  0  0  0  0  0  0  0  0  0  0  # atno 7974 bound_to 7965
  154.4093  140.1237  156.4899 H   0  0  0  0  0  0  0  0  0  0  0  0  # atno 8008 bound_to 7997
  155.7000  140.3495  155.4909 H   0  0  0  0  0  0  0  0  0  0  0  0  # atno 8009 bound_to 7997
  155.9393  140.1084  157.1059 H   0  0  0  0  0  0  0  0  0  0  0  0  # atno 8010 bound_to 7997
  140.3736  144.2072  150.6132 H   0  0  0  0  0  0  0  0  0  0  0  0  # atno 10167 bound_to 10162
  157.6937  131.0246  150.3087 H   0  0  0  0  0  0  0  0  0  0  0  0  # atno 10718 bound_to 10713
  152.9918  135.6172  154.2730 H   0  0  0  0  0  0  0  0  0  0  0  0  # atno 10763 bound_to 10752
  154.2462  135.2787  155.2836 H   0  0  0  0  0  0  0  0  0  0  0  0  # atno 10764 bound_to 10752
  154.5327  135.5783  153.6830 H   0  0  0  0  0  0  0  0  0  0  0  0  # atno 10765 bound_to 10752
  140.3886  134.1843  155.7663 H   0  0  0  0  0  0  0  0  0  0  0  0  # atno 11005 bound_to 11000
  145.1163  140.9435  143.4627 LP  0  0  0  0  0  0  0  0  0  0  0  0  # atno 17320 bound_to 7965
  145.0526  139.3170  143.5921 LP  0  0  0  0  0  0  0  0  0  0  0  0  # atno 17321 bound_to 7965
  140.5008  143.2318  151.8681 LP  0  0  0  0  0  0  0  0  0  0  0  0  # atno 17342 bound_to 10162
  139.4801  144.5061  151.8995 LP  0  0  0  0  0  0  0  0  0  0  0  0  # atno 17343 bound_to 10162
  156.3591  130.3844  149.7266 LP  0  0  0  0  0  0  0  0  0  0  0  0  # atno 17370 bound_to 10713
  156.4718  130.8000  151.3017 LP  0  0  0  0  0  0  0  0  0  0  0  0  # atno 17371 bound_to 10713
  141.1898  133.8229  157.0941 LP  0  0  0  0  0  0  0  0  0  0  0  0  # atno 17394 bound_to 11000
  140.0423  134.9848  157.0985 LP  0  0  0  0  0  0  0  0  0  0  0  0  # atno 17395 bound_to 11000

$$$$
