AV-unprocessed.smi:1203|AV-procd|sdf|5035|dock3
  -GOLD-   22720 4 63D 1   1.00000     0.00000
 Structure written by MMmdl.
 40 41  0  0  0  0  0  0  0  0  2 V2000
  145.0478  142.1243  156.7206 C   0  0  0  0  0  0  0  0  0  0  0  0
  146.7603  141.8066  157.3110 S   0  0  0  0  0  0  0  0  0  0  0  0
  147.2390  143.0053  158.0162 O   0  0  0  0  0  0  0  0  0  0  0  0
  146.8026  140.4974  157.9795 O   0  0  0  0  0  0  0  0  0  0  0  0
  147.6599  141.6778  155.8390 N   0  0  0  0  0  0  0  0  0  0  0  0
  146.9924  142.0131  154.5742 C   0  0  0  0  0  0  0  0  0  0  0  0
  147.7726  141.2753  153.4902 C   0  0  0  0  0  0  0  0  0  0  0  0
  148.2591  140.0261  154.2105 C   0  0  0  0  0  0  0  0  0  0  0  0
  148.5243  140.5002  155.6503 C   0  0  1  0  0  0  0  0  0  0  0  0
  150.0033  140.7990  155.9277 C   0  0  0  0  0  0  0  0  0  0  0  0
  150.8691  140.5080  155.1020 O   0  0  0  0  0  0  0  0  0  0  0  0
  150.2743  141.4039  157.0939 N   0  0  0  0  0  0  0  0  0  0  0  0
  151.6033  141.7920  157.5559 C   0  0  0  0  0  0  0  0  0  0  0  0
  151.6891  143.2730  157.9773 C   0  0  0  0  0  0  0  0  0  0  0  0
  152.0122  143.4742  159.4484 C   0  0  0  0  0  0  0  0  0  0  0  0
  152.5626  142.4232  160.2148 C   0  0  0  0  0  0  0  0  0  0  0  0
  152.8461  142.6372  161.5796 C   0  0  0  0  0  0  0  0  0  0  0  0
  152.5767  143.8995  162.1468 C   0  0  0  0  0  0  0  0  0  0  0  0
  152.0529  144.8822  161.3818 N   0  3  0  0  0  0  0  0  0  0  0  0
  151.7627  144.7157  160.0729 C   0  0  0  0  0  0  0  0  0  0  0  0
  144.3975  142.3038  157.5766 H   0  0  0  0  0  0  0  0  0  0  0  0
  144.6840  141.2563  156.1709 H   0  0  0  0  0  0  0  0  0  0  0  0
  145.0408  142.9946  156.0662 H   0  0  0  0  0  0  0  0  0  0  0  0
  145.9621  141.6560  154.6021 H   0  0  0  0  0  0  0  0  0  0  0  0
  146.9773  143.0914  154.4153 H   0  0  0  0  0  0  0  0  0  0  0  0
  147.1671  141.0498  152.6120 H   0  0  0  0  0  0  0  0  0  0  0  0
  148.6238  141.8769  153.1683 H   0  0  0  0  0  0  0  0  0  0  0  0
  147.4710  139.2716  154.2133 H   0  0  0  0  0  0  0  0  0  0  0  0
  149.1291  139.5823  153.7241 H   0  0  0  0  0  0  0  0  0  0  0  0
  148.2028  139.7088  156.3301 H   0  0  0  0  0  0  0  0  0  0  0  0
  149.4994  141.6140  157.7067 H   0  0  0  0  0  0  0  0  0  0  0  0
  151.8425  141.1584  158.4101 H   0  0  0  0  0  0  0  0  0  0  0  0
  152.3488  141.5696  156.7909 H   0  0  0  0  0  0  0  0  0  0  0  0
  152.4462  143.7808  157.3791 H   0  0  0  0  0  0  0  0  0  0  0  0
  150.7460  143.7721  157.7510 H   0  0  0  0  0  0  0  0  0  0  0  0
  152.7622  141.4620  159.7636 H   0  0  0  0  0  0  0  0  0  0  0  0
  153.2637  141.8444  162.1828 H   0  0  0  0  0  0  0  0  0  0  0  0
  152.7614  144.1505  163.1811 H   0  0  0  0  0  0  0  0  0  0  0  0
  151.3386  145.5731  159.5706 H   0  0  0  0  0  0  0  0  0  0  0  0
  151.8656  145.7881  161.8115 H   0  0  0  0  0  0  0  0  0  0  0  0
  1  2  1  0  0  0  0
  1 21  1  0  0  0  0
  1 22  1  0  0  0  0
  1 23  1  0  0  0  0
  2  3  2  0  0  0  0
  2  4  2  0  0  0  0
  2  5  1  0  0  0  0
  5  9  1  0  0  0  0
  5  6  1  0  0  0  0
  6  7  1  0  0  0  0
  6 24  1  0  0  0  0
  6 25  1  0  0  0  0
  7  8  1  0  0  0  0
  7 26  1  0  0  0  0
  7 27  1  0  0  0  0
  8  9  1  0  0  0  0
  8 28  1  0  0  0  0
  8 29  1  0  0  0  0
  9 10  1  0  0  0  0
  9 30  1  0  0  0  0
 10 11  2  0  0  0  0
 10 12  1  0  0  0  0
 12 13  1  0  0  0  0
 12 31  1  0  0  0  0
 13 14  1  0  0  0  0
 13 32  1  0  0  0  0
 13 33  1  0  0  0  0
 14 15  1  0  0  0  0
 14 34  1  0  0  0  0
 14 35  1  0  0  0  0
 15 20  1  0  0  0  0
 15 16  2  0  0  0  0
 16 17  1  0  0  0  0
 16 36  1  0  0  0  0
 17 18  2  0  0  0  0
 17 37  1  0  0  0  0
 18 19  1  0  0  0  0
 18 38  1  0  0  0  0
 19 20  2  0  0  0  0
 19 40  1  0  0  0  0
 20 39  1  0  0  0  0
M  CHG  1  19   1
M  END
> <s_m_source_file>
AV-unprocessed.smi

> <i_m_source_file_index>
1203

> <i_lp_mmshare_version>
43012

> <i_f3d_flags>
0

> <s_epik_input>
W0NIM11TKD1PKSg9TylOMVtDSDJdW0NIMl1bQ0gyXVtDQEhdMUMoPU8pW05IXVtDSDJdW0NIMl1jMltjSF1bY0hdW2NIXW5bY0hdMg==

> <s_epik_cmdline>
J2VwaWtfcHl0aG9uJywgJy1waCcsICc3LjAnLCAnLXRuJywgJzgnLCAnLW1hJywgJzIwMCcsICctbWV0YWxfYmluZGluZycsICctaW1hZScsICc8aW5maWxlLm1hZT4nLCAnLW9tYWUnLCAnPG91dGZpbGUubWFlPic=

> <r_epik_Ionization_Penalty>
2.2835

> <r_epik_Ionization_Penalty_Charging>
2.2835

> <r_epik_Ionization_Penalty_Neutral>
1.4017e-07

> <r_epik_State_Penalty>
2.43297

> <r_epik_Charging_Adjusted_Penalty>
4.71647

> <i_epik_Tot_Q>
1

> <i_epik_Tot_abs_Q>
1

> <r_epik_Metal_State_Penalty>
2.44558

> <b_epik_Metal_Only>
0

> <s_lp_Force_Field>
OPLS_2005

> <r_lp_Energy>
11.8017

> <b_lp_Chiralities_Consistent>
1

> <s_lp_Variant>
AV-unprocessed.smi:1203-3

> <Gold.Version>
5.8.1

> <Gold.Id.Protein>
6NUR|6NUR_protein|mol2

> <Gold.PLP.Fitness>
40.7812

> <Gold.PLP.PLP>
-39.3627

> <Gold.PLP.part.hbond>
-2.7047

> <Gold.PLP.part.metal>
0.0000

> <Gold.PLP.part.buried>
-5.9113

> <Gold.PLP.part.nonpolar>
-31.0629

> <Gold.PLP.part.repulsive>
0.4405

> <Gold.PLP.ligand.clash>
0.0000

> <Gold.PLP.ligand.torsion>
1.0315

> <Gold.PLP.Chemscore.Hbond>
0.9920

> <Gold.PLP.Chemscore.CHOScore>
0.0000

> <Gold.PLP.Chemscore.Metal>
0.0000

> <Gold.Chemscore.Hbonds>
donor molecule, donor type, donor heavy atom, donor atom, acceptor molecule, acceptor atom, score
      P1  H  7989  7998       L1    11  1.00

> <Gold.PLP.Chemscore.Internal.Correction>
0.5056

> <Gold.Rescore>
     Score         DG    S(hbond)    S(metal)    S(lipo)     H(rot)  DE(clash)    DE(int)     intcor
     14.35     -15.45       0.99        0.00     100.91       2.00       0.10       1.00       ----

> <Gold.Chemscore.Fitness>
14.3467

> <Gold.Chemscore.DG>
-15.4458

> <Gold.Chemscore.ZeroCoef>
-5.4800

> <Gold.Chemscore.Hbond>
0.9850

> <Gold.Chemscore.Metal>
0.0000

> <Gold.Chemscore.Lipo>
100.9112

> <Gold.Chemscore.Internal_Hbond>
0.0000

> <Gold.Chemscore.DEClash>
0.1023

> <Gold.Chemscore.DEInternal>
0.9968

> <Gold.Chemscore.Rot>
2.0043

> <Gold.Chemscore.Internal.Correction>
   9.000000E+99

> <Gold.Chemscore.Hbonds>
donor molecule, donor type, donor heavy atom, donor atom, acceptor molecule, acceptor atom, score
      P1  H  7989  7998       L1    11  0.94

> <Gold.Chemscore.Hbond.Weighted>
-3.2901

> <Gold.Chemscore.Metal.Weighted>
-0.0000

> <Gold.Chemscore.Lipo.Weighted>
-11.8066

> <Gold.Chemscore.Internal_Hbond.Weighted>
0.0000

> <Gold.Chemscore.DEClash.Weighted>
0.1023

> <Gold.Chemscore.DEInternal.Weighted>
0.9968

> <Gold.Chemscore.Rot.Weighted>
5.1309

> <Gold.Chemscore.Internal.Correction.Weighted>
   9.000000E+99

> <Gold.Protein.RotatedTorsions>
[ 6907 6896 6895 6894 ] final   93.57 input  -60.11 | X-H torsion
[ 7974 7965 7964 7962 ] final  126.13 input  175.53 | X-H torsion
[ 8008 7997 7996 7995 ] final   61.89 input   59.86 | X-H torsion
[ 10167 10162 10161 10158 ] final  129.03 input  -65.29 | X-H torsion
[ 10718 10713 10712 10709 ] final  167.37 input   66.30 | X-H torsion
[ 10763 10752 10751 10750 ] final  120.40 input  -60.55 | X-H torsion
[ 11005 11000 10999 10996 ] final  -51.81 input  -57.11 | X-H torsion

> <Gold.Protein.ActiveResidues>
 VAL166  LYS551  ARG553  GLY616  TRP617  ASP618  TYR619  PRO620  LYS621  CYS622 
 ASP623  PHE694  ASN695  SER759  ASP760  ASP761  ALA762  ILE779  LEU786  VAL792 
 PHE793  MET794  SER795  GLU796  ALA797  LYS798  CYS799  TRP800  GLU811  SER814 

> <Gold.Protein.RotatedAtoms>
  152.5452  134.1327  159.8445 H   0  0  0  0  0  0  0  0  0  0  0  0  # atno 6907 bound_to 6896
  151.1371  133.4989  159.2605 H   0  0  0  0  0  0  0  0  0  0  0  0  # atno 6908 bound_to 6896
  151.1612  135.0284  159.8766 H   0  0  0  0  0  0  0  0  0  0  0  0  # atno 6909 bound_to 6896
  145.0652  139.3774  143.4986 H   0  0  0  0  0  0  0  0  0  0  0  0  # atno 7974 bound_to 7965
  155.6055  140.3494  155.4606 H   0  0  0  0  0  0  0  0  0  0  0  0  # atno 8008 bound_to 7997
  156.0195  140.1250  157.0396 H   0  0  0  0  0  0  0  0  0  0  0  0  # atno 8009 bound_to 7997
  154.4310  140.1065  156.5929 H   0  0  0  0  0  0  0  0  0  0  0  0  # atno 8010 bound_to 7997
  139.5497  144.6803  151.4361 H   0  0  0  0  0  0  0  0  0  0  0  0  # atno 10167 bound_to 10162
  157.0525  131.0317  151.2676 H   0  0  0  0  0  0  0  0  0  0  0  0  # atno 10718 bound_to 10713
  153.5978  135.3453  155.2934 H   0  0  0  0  0  0  0  0  0  0  0  0  # atno 10763 bound_to 10752
  154.8641  135.4220  154.2445 H   0  0  0  0  0  0  0  0  0  0  0  0  # atno 10764 bound_to 10752
  153.3267  135.7041  153.7054 H   0  0  0  0  0  0  0  0  0  0  0  0  # atno 10765 bound_to 10752
  141.0891  133.6636  156.3932 H   0  0  0  0  0  0  0  0  0  0  0  0  # atno 11005 bound_to 11000
  146.3526  140.0369  142.8646 LP  0  0  0  0  0  0  0  0  0  0  0  0  # atno 17320 bound_to 7965
  145.1360  140.9545  143.4516 LP  0  0  0  0  0  0  0  0  0  0  0  0  # atno 17321 bound_to 7965
  140.6757  143.8196  150.7055 LP  0  0  0  0  0  0  0  0  0  0  0  0  # atno 17342 bound_to 10162
  140.1634  143.4256  152.2051 LP  0  0  0  0  0  0  0  0  0  0  0  0  # atno 17343 bound_to 10162
  157.5019  130.7885  149.7613 LP  0  0  0  0  0  0  0  0  0  0  0  0  # atno 17370 bound_to 10713
  156.0003  130.3884  150.2632 LP  0  0  0  0  0  0  0  0  0  0  0  0  # atno 17371 bound_to 10713
  140.5294  134.6227  157.5345 LP  0  0  0  0  0  0  0  0  0  0  0  0  # atno 17394 bound_to 11000
  139.9714  134.7287  156.0035 LP  0  0  0  0  0  0  0  0  0  0  0  0  # atno 17395 bound_to 11000

$$$$
