AV-unprocessed.smi:1280|AV-procd|sdf|5358|dock2
  -GOLD-   22720 4493D 1   1.00000     0.00000
 Structure written by MMmdl.
 44 45  0  0  0  0  0  0  0  0  2 V2000
  147.4048  136.6231  163.4522 C   0  0  0  0  0  0  0  0  0  0  0  0
  147.3138  136.2019  161.6666 S   0  0  0  0  0  0  0  0  0  0  0  0
  147.2971  134.7316  161.6015 O   0  0  0  0  0  0  0  0  0  0  0  0
  146.1332  136.9116  161.1481 O   0  0  0  0  0  0  0  0  0  0  0  0
  148.7085  136.8366  161.1390 N   0  5  0  0  0  0  0  0  0  0  0  0
  149.2103  136.4555  159.8293 C   0  0  0  0  0  0  0  0  0  0  0  0
  148.1739  135.5877  159.0868 C   0  0  0  0  0  0  0  0  0  0  0  0
  148.6719  134.9514  157.7692 C   0  0  0  0  0  0  0  0  0  0  0  0
  148.0466  135.5833  156.6124 N   0  0  0  0  0  0  0  0  0  0  0  0
  148.6713  135.8893  155.4634 C   0  0  0  0  0  0  0  0  0  0  0  0
  149.8702  135.6938  155.2648 O   0  0  0  0  0  0  0  0  0  0  0  0
  147.8254  136.5715  154.4213 C   0  0  0  0  0  0  0  0  0  0  0  0
  146.8051  135.8271  153.7886 C   0  0  0  0  0  0  0  0  0  0  0  0
  146.0104  136.4362  152.8015 C   0  0  0  0  0  0  0  0  0  0  0  0
  146.2605  137.7822  152.4846 C   0  0  0  0  0  0  0  0  0  0  0  0
  147.2136  138.5170  153.0923 N   0  0  0  0  0  0  0  0  0  0  0  0
  147.9824  137.9411  154.0507 C   0  0  0  0  0  0  0  0  0  0  0  0
  148.9054  138.7819  154.7051 N   0  0  0  0  0  0  0  0  0  0  0  0
  150.3195  138.4454  154.5736 C   0  0  0  0  0  0  0  0  0  0  0  0
  151.1568  139.3372  155.5053 C   0  0  0  0  0  0  0  0  0  0  0  0
  150.9016  140.7064  155.2053 O   0  0  0  0  0  0  0  0  0  0  0  0
  149.5344  141.0531  155.4066 C   0  0  0  0  0  0  0  0  0  0  0  0
  148.6376  140.1996  154.4928 C   0  0  0  0  0  0  0  0  0  0  0  0
  146.5130  136.2514  163.9556 H   0  0  0  0  0  0  0  0  0  0  0  0
  147.4628  137.7051  163.5678 H   0  0  0  0  0  0  0  0  0  0  0  0
  148.2887  136.1609  163.8908 H   0  0  0  0  0  0  0  0  0  0  0  0
  149.4241  137.3338  159.2196 H   0  0  0  0  0  0  0  0  0  0  0  0
  150.1501  135.9062  159.8951 H   0  0  0  0  0  0  0  0  0  0  0  0
  147.7992  134.8126  159.7570 H   0  0  0  0  0  0  0  0  0  0  0  0
  147.3171  136.2199  158.8544 H   0  0  0  0  0  0  0  0  0  0  0  0
  149.7507  135.0779  157.6615 H   0  0  0  0  0  0  0  0  0  0  0  0
  148.4834  133.8756  157.7449 H   0  0  0  0  0  0  0  0  0  0  0  0
  147.0638  135.8014  156.6885 H   0  0  0  0  0  0  0  0  0  0  0  0
  146.6373  134.7911  154.0451 H   0  0  0  0  0  0  0  0  0  0  0  0
  145.2311  135.8836  152.2979 H   0  0  0  0  0  0  0  0  0  0  0  0
  145.6742  138.2854  151.7301 H   0  0  0  0  0  0  0  0  0  0  0  0
  150.4741  137.3941  154.8201 H   0  0  0  0  0  0  0  0  0  0  0  0
  150.6422  138.5902  153.5415 H   0  0  0  0  0  0  0  0  0  0  0  0
  150.9264  139.1328  156.5523 H   0  0  0  0  0  0  0  0  0  0  0  0
  152.2185  139.1346  155.3657 H   0  0  0  0  0  0  0  0  0  0  0  0
  149.2665  140.9138  156.4542 H   0  0  0  0  0  0  0  0  0  0  0  0
  149.3989  142.1114  155.1832 H   0  0  0  0  0  0  0  0  0  0  0  0
  148.8275  140.4459  153.4473 H   0  0  0  0  0  0  0  0  0  0  0  0
  147.5890  140.4257  154.6891 H   0  0  0  0  0  0  0  0  0  0  0  0
  1  2  1  0  0  0  0
  1 24  1  0  0  0  0
  1 25  1  0  0  0  0
  1 26  1  0  0  0  0
  2  3  2  0  0  0  0
  2  4  2  0  0  0  0
  2  5  1  0  0  0  0
  5  6  1  0  0  0  0
  6  7  1  0  0  0  0
  6 27  1  0  0  0  0
  6 28  1  0  0  0  0
  7  8  1  0  0  0  0
  7 29  1  0  0  0  0
  7 30  1  0  0  0  0
  8  9  1  0  0  0  0
  8 31  1  0  0  0  0
  8 32  1  0  0  0  0
  9 10  1  0  0  0  0
  9 33  1  0  0  0  0
 10 11  2  0  0  0  0
 10 12  1  0  0  0  0
 12 17  1  0  0  0  0
 12 13  2  0  0  0  0
 13 14  1  0  0  0  0
 13 34  1  0  0  0  0
 14 15  2  0  0  0  0
 14 35  1  0  0  0  0
 15 16  1  0  0  0  0
 15 36  1  0  0  0  0
 16 17  2  0  0  0  0
 17 18  1  0  0  0  0
 18 23  1  0  0  0  0
 18 19  1  0  0  0  0
 19 20  1  0  0  0  0
 19 37  1  0  0  0  0
 19 38  1  0  0  0  0
 20 21  1  0  0  0  0
 20 39  1  0  0  0  0
 20 40  1  0  0  0  0
 21 22  1  0  0  0  0
 22 23  1  0  0  0  0
 22 41  1  0  0  0  0
 22 42  1  0  0  0  0
 23 43  1  0  0  0  0
 23 44  1  0  0  0  0
M  CHG  1   5  -1
M  END
> <s_m_source_file>
AV-unprocessed.smi

> <i_m_source_file_index>
1280

> <i_lp_mmshare_version>
43012

> <i_f3d_flags>
0

> <s_epik_input>
W0NIM11TKD1PKSg9TylbTkhdW0NIMl1bQ0gyXVtDSDJdW05IXUMoPU8pYzFbY0hdW2NIXVtjSF1uYzFOMltDSDJdW0NIMl1PW0NIMl1bQ0gyXTI=

> <s_epik_cmdline>
J2VwaWtfcHl0aG9uJywgJy1waCcsICc3LjAnLCAnLXRuJywgJzgnLCAnLW1hJywgJzIwMCcsICctbWV0YWxfYmluZGluZycsICctaW1hZScsICc8aW5maWxlLm1hZT4nLCAnLW9tYWUnLCAnPG91dGZpbGUubWFlPic=

> <r_lp_tautomer_probability>
1

> <r_epik_Ionization_Penalty>
6.65739

> <r_epik_Ionization_Penalty_Charging>
6.65737

> <r_epik_Ionization_Penalty_Neutral>
1.70916e-05

> <r_epik_State_Penalty>
6.65736

> <r_epik_Charging_Adjusted_Penalty>
13.3147

> <i_epik_Tot_Q>
-1

> <i_epik_Tot_abs_Q>
1

> <r_epik_Metal_State_Penalty>
2.58004

> <b_epik_Metal_Only>
1

> <s_lp_Force_Field>
OPLS_2005

> <r_lp_Energy>
24.7135

> <b_lp_Chiralities_Consistent>
1

> <s_lp_Variant>
AV-unprocessed.smi:1280-2

> <Gold.Version>
5.8.1

> <Gold.Id.Protein>
6NUR|6NUR_protein|mol2

> <Gold.PLP.Fitness>
39.4954

> <Gold.PLP.PLP>
-25.8605

> <Gold.PLP.part.hbond>
-2.9457

> <Gold.PLP.part.metal>
0.0000

> <Gold.PLP.part.buried>
-1.2667

> <Gold.PLP.part.nonpolar>
-23.4753

> <Gold.PLP.part.repulsive>
0.5833

> <Gold.PLP.ligand.clash>
0.0000

> <Gold.PLP.ligand.torsion>
2.6744

> <Gold.PLP.Chemscore.Hbond>
4.0000

> <Gold.PLP.Chemscore.CHOScore>
1.9163

> <Gold.PLP.Chemscore.Metal>
0.0000

> <Gold.Chemscore.Hbonds>
donor molecule, donor type, donor heavy atom, donor atom, acceptor molecule, acceptor atom, score
      P1  H  6931  6943       L1     5  2.00
      P1  H  6934  6947       L1     4  0.15
      P1  H  7989  7998       L1    21  0.88
      L1  C    15    36       P1 10171  0.72

> <Gold.PLP.Chemscore.Internal.Correction>
1.2347

> <Gold.Rescore>
     Score         DG    S(hbond)    S(metal)    S(lipo)     H(rot)  DE(clash)    DE(int)     intcor
      7.32     -12.84       1.70        0.00      61.51       2.16       0.14       5.38       ----

> <Gold.Chemscore.Fitness>
7.3163

> <Gold.Chemscore.DG>
-12.8440

> <Gold.Chemscore.ZeroCoef>
-5.4800

> <Gold.Chemscore.Hbond>
1.7021

> <Gold.Chemscore.Metal>
0.0000

> <Gold.Chemscore.Lipo>
61.5095

> <Gold.Chemscore.Internal_Hbond>
0.0000

> <Gold.Chemscore.DEClash>
0.1437

> <Gold.Chemscore.DEInternal>
5.3840

> <Gold.Chemscore.Rot>
2.1554

> <Gold.Chemscore.Internal.Correction>
   9.000000E+99

> <Gold.Chemscore.Hbonds>
donor molecule, donor type, donor heavy atom, donor atom, acceptor molecule, acceptor atom, score
      P1  H  6931  6943       L1     5  0.81
      P1  H  6934  6947       L1     4  0.03
      P1  H  7989  7998       L1    21  0.33

> <Gold.Chemscore.Hbond.Weighted>
-5.6851

> <Gold.Chemscore.Metal.Weighted>
-0.0000

> <Gold.Chemscore.Lipo.Weighted>
-7.1966

> <Gold.Chemscore.Internal_Hbond.Weighted>
0.0000

> <Gold.Chemscore.DEClash.Weighted>
0.1437

> <Gold.Chemscore.DEInternal.Weighted>
5.3840

> <Gold.Chemscore.Rot.Weighted>
5.5178

> <Gold.Chemscore.Internal.Correction.Weighted>
   9.000000E+99

> <Gold.Protein.RotatedTorsions>
[ 6907 6896 6895 6894 ] final  172.96 input  -60.11 | X-H torsion
[ 7974 7965 7964 7962 ] final  -12.68 input  175.53 | X-H torsion
[ 8008 7997 7996 7995 ] final  -38.12 input   59.86 | X-H torsion
[ 10167 10162 10161 10158 ] final -115.83 input  -65.29 | X-H torsion
[ 10718 10713 10712 10709 ] final  163.40 input   66.30 | X-H torsion
[ 10763 10752 10751 10750 ] final   26.21 input  -60.55 | X-H torsion
[ 11005 11000 10999 10996 ] final  -94.12 input  -57.11 | X-H torsion

> <Gold.Protein.ActiveResidues>
 VAL166  LYS551  ARG553  GLY616  TRP617  ASP618  TYR619  PRO620  LYS621  CYS622 
 ASP623  PHE694  ASN695  SER759  ASP760  ASP761  ALA762  ILE779  LEU786  VAL792 
 PHE793  MET794  SER795  GLU796  ALA797  LYS798  CYS799  TRP800  GLU811  SER814 

> <Gold.Protein.RotatedAtoms>
  151.7759  133.3345  159.3457 H   0  0  0  0  0  0  0  0  0  0  0  0  # atno 6907 bound_to 6896
  150.7444  134.5975  159.6029 H   0  0  0  0  0  0  0  0  0  0  0  0  # atno 6908 bound_to 6896
  152.3309  134.7262  160.0341 H   0  0  0  0  0  0  0  0  0  0  0  0  # atno 6909 bound_to 6896
  146.2143  140.3093  142.8381 H   0  0  0  0  0  0  0  0  0  0  0  0  # atno 7974 bound_to 7965
  154.4042  140.1586  156.2648 H   0  0  0  0  0  0  0  0  0  0  0  0  # atno 8008 bound_to 7997
  155.9004  140.3433  155.6000 H   0  0  0  0  0  0  0  0  0  0  0  0  # atno 8009 bound_to 7997
  155.7454  140.0798  157.2217 H   0  0  0  0  0  0  0  0  0  0  0  0  # atno 8010 bound_to 7997
  140.0858  143.4746  152.1899 H   0  0  0  0  0  0  0  0  0  0  0  0  # atno 10167 bound_to 10162
  157.1090  131.0463  151.2465 H   0  0  0  0  0  0  0  0  0  0  0  0  # atno 10718 bound_to 10713
  153.0638  135.6565  154.0401 H   0  0  0  0  0  0  0  0  0  0  0  0  # atno 10763 bound_to 10752
  154.0062  135.2932  155.3399 H   0  0  0  0  0  0  0  0  0  0  0  0  # atno 10764 bound_to 10752
  154.6988  135.5253  153.8565 H   0  0  0  0  0  0  0  0  0  0  0  0  # atno 10765 bound_to 10752
  141.1479  133.7934  157.0253 H   0  0  0  0  0  0  0  0  0  0  0  0  # atno 11005 bound_to 11000
  144.9000  140.7631  143.5873 LP  0  0  0  0  0  0  0  0  0  0  0  0  # atno 17320 bound_to 7965
  145.3018  139.1848  143.4685 LP  0  0  0  0  0  0  0  0  0  0  0  0  # atno 17321 bound_to 7965
  139.5753  144.7484  151.3781 LP  0  0  0  0  0  0  0  0  0  0  0  0  # atno 17342 bound_to 10162
  140.7054  143.7526  150.7474 LP  0  0  0  0  0  0  0  0  0  0  0  0  # atno 17343 bound_to 10162
  157.4575  130.7634  149.7206 LP  0  0  0  0  0  0  0  0  0  0  0  0  # atno 17370 bound_to 10713
  155.9855  130.3982  150.3259 LP  0  0  0  0  0  0  0  0  0  0  0  0  # atno 17371 bound_to 10713
  140.0789  134.9660  157.1591 LP  0  0  0  0  0  0  0  0  0  0  0  0  # atno 17394 bound_to 11000
  140.3605  134.2499  155.7187 LP  0  0  0  0  0  0  0  0  0  0  0  0  # atno 17395 bound_to 11000

$$$$
