AV-unprocessed.smi:2556|AV-procd|sdf|10024|dock5
  -GOLD-   2272014 73D 1   1.00000     0.00000
 Structure written by MMmdl.
 35 37  0  0  0  0  0  0  0  0  1 V2000
  151.7824  137.8092  154.0554 C   0  0  0  0  0  0  0  0  0  0  0  0
  151.6969  138.2769  155.4404 N   0  0  0  0  0  0  0  0  0  0  0  0
  152.1407  137.5149  156.4940 C   0  0  0  0  0  0  0  0  0  0  0  0
  152.6396  136.4001  156.3438 O   0  0  0  0  0  0  0  0  0  0  0  0
  152.0147  138.0359  157.7539 N   0  0  0  0  0  0  0  0  0  0  0  0
  151.4984  139.2402  158.1007 C   0  0  0  0  0  0  0  0  0  0  0  0
  151.4182  139.6417  159.2599 O   0  0  0  0  0  0  0  0  0  0  0  0
  151.0453  140.0201  156.9453 C   0  0  0  0  0  0  0  0  0  0  0  0
  151.1376  139.5649  155.6689 C   0  0  0  0  0  0  0  0  0  0  0  0
  150.6395  140.4978  154.7660 N   0  0  0  0  0  0  0  0  0  0  0  0
  150.2649  141.4934  155.5725 C   0  0  0  0  0  0  0  0  0  0  0  0
  150.4747  141.2881  156.8894 N   0  0  0  0  0  0  0  0  0  0  0  0
  150.1619  142.2043  157.9748 C   0  0  0  0  0  0  0  0  0  0  0  0
  151.2093  143.3252  158.1289 C   0  0  1  0  0  0  0  0  0  0  0  0
  150.6145  144.5811  157.8619 O   0  0  0  0  0  0  0  0  0  0  0  0
  151.8691  143.2771  159.4983 C   0  0  0  0  0  0  0  0  0  0  0  0
  151.6888  144.3288  160.4241 C   0  0  0  0  0  0  0  0  0  0  0  0
  152.2966  144.2697  161.6933 C   0  0  0  0  0  0  0  0  0  0  0  0
  153.0851  143.1579  162.0461 C   0  0  0  0  0  0  0  0  0  0  0  0
  153.2650  142.1048  161.1288 C   0  0  0  0  0  0  0  0  0  0  0  0
  152.6577  142.1634  159.8592 C   0  0  0  0  0  0  0  0  0  0  0  0
  152.3452  137.4561  158.5114 H   0  0  0  0  0  0  0  0  0  0  0  0
  152.1821  136.8001  153.9503 H   0  0  0  0  0  0  0  0  0  0  0  0
  152.4214  138.4764  153.4762 H   0  0  0  0  0  0  0  0  0  0  0  0
  150.7922  137.8142  153.5986 H   0  0  0  0  0  0  0  0  0  0  0  0
  149.8257  142.4043  155.1923 H   0  0  0  0  0  0  0  0  0  0  0  0
  149.1751  142.6323  157.7923 H   0  0  0  0  0  0  0  0  0  0  0  0
  150.0786  141.6296  158.8978 H   0  0  0  0  0  0  0  0  0  0  0  0
  151.9862  143.1897  157.3759 H   0  0  0  0  0  0  0  0  0  0  0  0
  150.1217  144.5131  157.0582 H   0  0  0  0  0  0  0  0  0  0  0  0
  151.0811  145.1839  160.1658 H   0  0  0  0  0  0  0  0  0  0  0  0
  152.1557  145.0767  162.3970 H   0  0  0  0  0  0  0  0  0  0  0  0
  153.5497  143.1122  163.0200 H   0  0  0  0  0  0  0  0  0  0  0  0
  153.8676  141.2505  161.4001 H   0  0  0  0  0  0  0  0  0  0  0  0
  152.7978  141.3483  159.1641 H   0  0  0  0  0  0  0  0  0  0  0  0
  1  2  1  0  0  0  0
  1 23  1  0  0  0  0
  1 24  1  0  0  0  0
  1 25  1  0  0  0  0
  2  9  1  0  0  0  0
  2  3  1  0  0  0  0
  3  4  2  0  0  0  0
  3  5  1  0  0  0  0
  5 22  1  0  0  0  0
  5  6  1  0  0  0  0
  6  7  2  0  0  0  0
  6  8  1  0  0  0  0
  8 12  1  0  0  0  0
  8  9  2  0  0  0  0
  9 10  1  0  0  0  0
 10 11  2  0  0  0  0
 11 12  1  0  0  0  0
 11 26  1  0  0  0  0
 12 13  1  0  0  0  0
 13 14  1  0  0  0  0
 13 27  1  0  0  0  0
 13 28  1  0  0  0  0
 14 15  1  0  0  0  0
 14 16  1  0  0  0  0
 14 29  1  0  0  0  0
 15 30  1  0  0  0  0
 16 21  1  0  0  0  0
 16 17  2  0  0  0  0
 17 18  1  0  0  0  0
 17 31  1  0  0  0  0
 18 19  2  0  0  0  0
 18 32  1  0  0  0  0
 19 20  1  0  0  0  0
 19 33  1  0  0  0  0
 20 21  2  0  0  0  0
 20 34  1  0  0  0  0
 21 35  1  0  0  0  0
M  END
> <s_m_source_file>
AV-unprocessed.smi

> <i_m_source_file_index>
2556

> <i_lp_mmshare_version>
43012

> <i_f3d_flags>
0

> <s_epik_input>
Tz1jMVtuSF1jKD1PKW4oW0NIM10pYyhjMTIpbltjSF1uMltDSDJdW0NASF0oW09IXSljM1tjSF1bY0hdW2NIXVtjSF1bY0hdMw==

> <s_epik_cmdline>
J2VwaWtfcHl0aG9uJywgJy1waCcsICc3LjAnLCAnLXRuJywgJzgnLCAnLW1hJywgJzIwMCcsICctbWV0YWxfYmluZGluZycsICctaW1hZScsICc8aW5maWxlLm1hZT4nLCAnLW9tYWUnLCAnPG91dGZpbGUubWFlPic=

> <r_lp_tautomer_probability>
1

> <r_epik_Ionization_Penalty>
0.000177505

> <r_epik_Ionization_Penalty_Charging>
0.000176585

> <r_epik_Ionization_Penalty_Neutral>
9.19728e-07

> <r_epik_State_Penalty>
-0

> <r_epik_Charging_Adjusted_Penalty>
0.000176585

> <i_epik_Tot_Q>
0

> <i_epik_Tot_abs_Q>
0

> <r_epik_Metal_State_Penalty>
0.122509

> <b_epik_Metal_Only>
0

> <s_lp_Force_Field>
OPLS_2005

> <r_lp_Energy>
28.4521

> <b_lp_Chiralities_Consistent>
1

> <s_lp_Variant>
AV-unprocessed.smi:2556-2

> <Gold.Version>
5.8.1

> <Gold.Id.Protein>
6NUR|6NUR_protein|mol2

> <Gold.PLP.Fitness>
54.1466

> <Gold.PLP.PLP>
-44.3340

> <Gold.PLP.part.hbond>
-3.4993

> <Gold.PLP.part.metal>
0.0000

> <Gold.PLP.part.buried>
-5.1578

> <Gold.PLP.part.nonpolar>
-35.4744

> <Gold.PLP.part.repulsive>
0.1572

> <Gold.PLP.ligand.clash>
0.0000

> <Gold.PLP.ligand.torsion>
1.1049

> <Gold.PLP.Chemscore.Hbond>
3.0000

> <Gold.PLP.Chemscore.CHOScore>
1.0000

> <Gold.PLP.Chemscore.Metal>
0.0000

> <Gold.Chemscore.Hbonds>
donor molecule, donor type, donor heavy atom, donor atom, acceptor molecule, acceptor atom, score
      L1  H    15    30       P1  8028  1.00
      P1  H  7989  7998       L1    10  1.00
      P1  H 10752 10763       L1     4  1.00
      L1  C    11    26       P1  8028  0.98

> <Gold.PLP.Chemscore.Internal.Correction>
0.0224

> <Gold.Rescore>
     Score         DG    S(hbond)    S(metal)    S(lipo)     H(rot)  DE(clash)    DE(int)     intcor
     18.73     -19.84       2.69        0.00      96.62       2.31       0.07       1.04       ----

> <Gold.Chemscore.Fitness>
18.7298

> <Gold.Chemscore.DG>
-19.8390

> <Gold.Chemscore.ZeroCoef>
-5.4800

> <Gold.Chemscore.Hbond>
2.6862

> <Gold.Chemscore.Metal>
0.0000

> <Gold.Chemscore.Lipo>
96.6198

> <Gold.Chemscore.Internal_Hbond>
0.0000

> <Gold.Chemscore.DEClash>
0.0712

> <Gold.Chemscore.DEInternal>
1.0380

> <Gold.Chemscore.Rot>
2.3115

> <Gold.Chemscore.Internal.Correction>
   9.000000E+99

> <Gold.Chemscore.Hbonds>
donor molecule, donor type, donor heavy atom, donor atom, acceptor molecule, acceptor atom, score
      L1  H    15    30       P1  8028  0.60
      P1  H  7989  7998       L1    10  0.84
      P1  H 10752 10763       L1     4  0.98

> <Gold.Chemscore.Hbond.Weighted>
-8.9719

> <Gold.Chemscore.Metal.Weighted>
-0.0000

> <Gold.Chemscore.Lipo.Weighted>
-11.3045

> <Gold.Chemscore.Internal_Hbond.Weighted>
0.0000

> <Gold.Chemscore.DEClash.Weighted>
0.0712

> <Gold.Chemscore.DEInternal.Weighted>
1.0380

> <Gold.Chemscore.Rot.Weighted>
5.9174

> <Gold.Chemscore.Internal.Correction.Weighted>
   9.000000E+99

> <Gold.Protein.RotatedTorsions>
[ 6907 6896 6895 6894 ] final   16.37 input  -60.11 | X-H torsion
[ 7974 7965 7964 7962 ] final  -88.68 input  175.53 | X-H torsion
[ 8008 7997 7996 7995 ] final   -8.64 input   59.86 | X-H torsion
[ 10167 10162 10161 10158 ] final -150.81 input  -65.29 | X-H torsion
[ 10718 10713 10712 10709 ] final   99.45 input   66.30 | X-H torsion
[ 10763 10752 10751 10750 ] final   93.60 input  -60.55 | X-H torsion
[ 11005 11000 10999 10996 ] final  -26.75 input  -57.11 | X-H torsion

> <Gold.Protein.ActiveResidues>
 VAL166  LYS551  ARG553  GLY616  TRP617  ASP618  TYR619  PRO620  LYS621  CYS622 
 ASP623  PHE694  ASN695  SER759  ASP760  ASP761  ALA762  ILE779  LEU786  VAL792 
 PHE793  MET794  SER795  GLU796  ALA797  LYS798  CYS799  TRP800  GLU811  SER814 

> <Gold.Protein.RotatedAtoms>
  151.8328  135.0616  160.0438 H   0  0  0  0  0  0  0  0  0  0  0  0  # atno 6907 bound_to 6896
  152.2868  133.5518  159.5540 H   0  0  0  0  0  0  0  0  0  0  0  0  # atno 6908 bound_to 6896
  150.7212  134.0402  159.3805 H   0  0  0  0  0  0  0  0  0  0  0  0  # atno 6909 bound_to 6896
  145.4500  140.9560  143.2028 H   0  0  0  0  0  0  0  0  0  0  0  0  # atno 7974 bound_to 7965
  154.5722  140.2376  155.8175 H   0  0  0  0  0  0  0  0  0  0  0  0  # atno 8008 bound_to 7997
  156.2116  140.3024  155.9702 H   0  0  0  0  0  0  0  0  0  0  0  0  # atno 8009 bound_to 7997
  155.2691  140.0417  157.2996 H   0  0  0  0  0  0  0  0  0  0  0  0  # atno 8010 bound_to 7997
  139.7322  143.8790  152.2538 H   0  0  0  0  0  0  0  0  0  0  0  0  # atno 10167 bound_to 10162
  157.6875  131.0670  150.4951 H   0  0  0  0  0  0  0  0  0  0  0  0  # atno 10718 bound_to 10713
  153.2322  135.4319  155.0607 H   0  0  0  0  0  0  0  0  0  0  0  0  # atno 10763 bound_to 10752
  154.8302  135.3382  154.6771 H   0  0  0  0  0  0  0  0  0  0  0  0  # atno 10764 bound_to 10752
  153.7198  135.7017  153.5072 H   0  0  0  0  0  0  0  0  0  0  0  0  # atno 10765 bound_to 10752
  140.9057  133.7494  156.0603 H   0  0  0  0  0  0  0  0  0  0  0  0  # atno 11005 bound_to 11000
  144.8068  139.6037  143.7047 LP  0  0  0  0  0  0  0  0  0  0  0  0  # atno 17320 bound_to 7965
  146.2510  139.6199  142.9427 LP  0  0  0  0  0  0  0  0  0  0  0  0  # atno 17321 bound_to 7965
  139.8717  144.7065  150.8980 LP  0  0  0  0  0  0  0  0  0  0  0  0  # atno 17342 bound_to 10162
  140.7773  143.3733  151.1610 LP  0  0  0  0  0  0  0  0  0  0  0  0  # atno 17343 bound_to 10162
  156.5275  130.4177  149.6218 LP  0  0  0  0  0  0  0  0  0  0  0  0  # atno 17370 bound_to 10713
  156.3099  130.7223  151.2113 LP  0  0  0  0  0  0  0  0  0  0  0  0  # atno 17371 bound_to 10713
  140.8173  134.3330  157.5393 LP  0  0  0  0  0  0  0  0  0  0  0  0  # atno 17394 bound_to 11000
  139.8749  134.9289  156.3463 LP  0  0  0  0  0  0  0  0  0  0  0  0  # atno 17395 bound_to 11000

$$$$
