AV-unprocessed.smi:1885|AV-procd|sdf|7652|dock4
  -GOLD-   22720 9383D 1   1.00000     0.00000
 Structure written by MMmdl.
 44 46  0  0  0  0  0  0  0  0  2 V2000
  150.6647  129.9683  154.5434 C   0  0  0  0  0  0  0  0  0  0  0  0
  149.7686  130.9772  154.1014 O   0  0  0  0  0  0  0  0  0  0  0  0
  149.9193  132.2481  154.6133 C   0  0  0  0  0  0  0  0  0  0  0  0
  150.8731  132.6021  155.6006 C   0  0  0  0  0  0  0  0  0  0  0  0
  150.9569  133.9281  156.0684 C   0  0  0  0  0  0  0  0  0  0  0  0
  150.0986  134.9213  155.5556 C   0  0  0  0  0  0  0  0  0  0  0  0
  150.1853  136.3425  156.0800 C   0  0  0  0  0  0  0  0  0  0  0  0
  150.4360  137.2803  155.0458 O   0  0  0  0  0  0  0  0  0  0  0  0
  151.8132  137.5810  154.8947 C   0  0  0  0  0  0  0  0  0  0  0  0
  152.0181  139.0851  155.1221 C   0  0  2  0  0  0  0  0  0  0  0  0
  153.3353  139.4289  154.7407 O   0  0  0  0  0  0  0  0  0  0  0  0
  151.7802  139.4960  156.5890 C   0  0  0  0  0  0  0  0  0  0  0  0
  151.2976  140.8766  156.7195 N   0  0  0  0  0  0  0  0  0  0  0  0
  150.5299  141.6218  155.8789 C   0  0  0  0  0  0  0  0  0  0  0  0
  150.3553  142.8429  156.4568 N   0  3  0  0  0  0  0  0  0  0  0  0
  151.0215  142.8777  157.6841 C   0  0  0  0  0  0  0  0  0  0  0  0
  151.1363  143.8889  158.6324 C   0  0  0  0  0  0  0  0  0  0  0  0
  151.8919  143.5945  159.7867 C   0  0  0  0  0  0  0  0  0  0  0  0
  152.0349  144.5435  160.7419 F   0  0  0  0  0  0  0  0  0  0  0  0
  152.5000  142.3333  159.9646 C   0  0  0  0  0  0  0  0  0  0  0  0
  153.2166  142.0919  161.0878 F   0  0  0  0  0  0  0  0  0  0  0  0
  152.3776  141.3162  158.9950 C   0  0  0  0  0  0  0  0  0  0  0  0
  151.6287  141.6170  157.8586 C   0  0  0  0  0  0  0  0  0  0  0  0
  149.1416  134.5720  154.5805 C   0  0  0  0  0  0  0  0  0  0  0  0
  149.0585  133.2463  154.1135 C   0  0  0  0  0  0  0  0  0  0  0  0
  150.4210  129.0287  154.0477 H   0  0  0  0  0  0  0  0  0  0  0  0
  150.5821  129.8046  155.6188 H   0  0  0  0  0  0  0  0  0  0  0  0
  151.6973  130.2150  154.2928 H   0  0  0  0  0  0  0  0  0  0  0  0
  151.5517  131.8736  156.0174 H   0  0  0  0  0  0  0  0  0  0  0  0
  151.6859  134.1805  156.8245 H   0  0  0  0  0  0  0  0  0  0  0  0
  149.2451  136.5812  156.5796 H   0  0  0  0  0  0  0  0  0  0  0  0
  150.9780  136.4031  156.8278 H   0  0  0  0  0  0  0  0  0  0  0  0
  152.4126  137.0026  155.5998 H   0  0  0  0  0  0  0  0  0  0  0  0
  152.1321  137.3064  153.8878 H   0  0  0  0  0  0  0  0  0  0  0  0
  151.3374  139.6338  154.4702 H   0  0  0  0  0  0  0  0  0  0  0  0
  153.7609  138.6563  154.4015 H   0  0  0  0  0  0  0  0  0  0  0  0
  151.0583  138.8347  157.0702 H   0  0  0  0  0  0  0  0  0  0  0  0
  152.7045  139.4141  157.1627 H   0  0  0  0  0  0  0  0  0  0  0  0
  150.1289  141.3015  154.9280 H   0  0  0  0  0  0  0  0  0  0  0  0
  150.6723  144.8554  158.5006 H   0  0  0  0  0  0  0  0  0  0  0  0
  152.8450  140.3535  159.1403 H   0  0  0  0  0  0  0  0  0  0  0  0
  148.4664  135.3169  154.1859 H   0  0  0  0  0  0  0  0  0  0  0  0
  148.3231  132.9919  153.3642 H   0  0  0  0  0  0  0  0  0  0  0  0
  149.8188  143.5943  156.0418 H   0  0  0  0  0  0  0  0  0  0  0  0
  1  2  1  0  0  0  0
  1 26  1  0  0  0  0
  1 27  1  0  0  0  0
  1 28  1  0  0  0  0
  2  3  1  0  0  0  0
  3 25  1  0  0  0  0
  3  4  2  0  0  0  0
  4  5  1  0  0  0  0
  4 29  1  0  0  0  0
  5  6  2  0  0  0  0
  5 30  1  0  0  0  0
  6  7  1  0  0  0  0
  6 24  1  0  0  0  0
  7  8  1  0  0  0  0
  7 31  1  0  0  0  0
  7 32  1  0  0  0  0
  8  9  1  0  0  0  0
  9 10  1  0  0  0  0
  9 33  1  0  0  0  0
  9 34  1  0  0  0  0
 10 11  1  0  0  0  0
 10 12  1  0  0  0  0
 10 35  1  0  0  0  0
 11 36  1  0  0  0  0
 12 13  1  0  0  0  0
 12 37  1  0  0  0  0
 12 38  1  0  0  0  0
 13 23  1  0  0  0  0
 13 14  1  0  0  0  0
 14 15  2  0  0  0  0
 14 39  1  0  0  0  0
 15 16  1  0  0  0  0
 15 44  1  0  0  0  0
 16 23  2  0  0  0  0
 16 17  1  0  0  0  0
 17 18  2  0  0  0  0
 17 40  1  0  0  0  0
 18 19  1  0  0  0  0
 18 20  1  0  0  0  0
 20 21  1  0  0  0  0
 20 22  2  0  0  0  0
 22 23  1  0  0  0  0
 22 41  1  0  0  0  0
 24 25  2  0  0  0  0
 24 42  1  0  0  0  0
 25 43  1  0  0  0  0
M  CHG  1  15   1
M  END
> <s_m_source_file>
AV-unprocessed.smi

> <i_m_source_file_index>
1885

> <i_lp_mmshare_version>
43012

> <i_f3d_flags>
0

> <s_epik_input>
W0NIM11PYzFbY0hdW2NIXWMoW2NIXVtjSF0xKVtDSDJdT1tDSDJdW0NASF0oW09IXSlbQ0gyXW4oW2NIXW4yKWMoYzIzKVtjSF1jKEYpYyhGKVtjSF0z

> <s_epik_cmdline>
J2VwaWtfcHl0aG9uJywgJy1waCcsICc3LjAnLCAnLXRuJywgJzgnLCAnLW1hJywgJzIwMCcsICctbWV0YWxfYmluZGluZycsICctaW1hZScsICc8aW5maWxlLm1hZT4nLCAnLW9tYWUnLCAnPG91dGZpbGUubWFlPic=

> <r_lp_tautomer_probability>
1

> <r_epik_Ionization_Penalty>
2.14697

> <r_epik_Ionization_Penalty_Charging>
2.14697

> <r_epik_Ionization_Penalty_Neutral>
9.74819e-07

> <r_epik_State_Penalty>
2.28651

> <r_epik_Charging_Adjusted_Penalty>
4.43348

> <i_epik_Tot_Q>
1

> <i_epik_Tot_abs_Q>
1

> <r_epik_Metal_State_Penalty>
6.36664

> <b_epik_Metal_Only>
0

> <s_lp_Force_Field>
OPLS_2005

> <r_lp_Energy>
20.6569

> <b_lp_Chiralities_Consistent>
1

> <s_lp_Variant>
AV-unprocessed.smi:1885-3

> <Gold.Version>
5.8.1

> <Gold.Id.Protein>
6NUR|6NUR_protein|mol2

> <Gold.PLP.Fitness>
62.2046

> <Gold.PLP.PLP>
-55.9200

> <Gold.PLP.part.hbond>
-2.9152

> <Gold.PLP.part.metal>
0.0000

> <Gold.PLP.part.buried>
-7.5881

> <Gold.PLP.part.nonpolar>
-46.9025

> <Gold.PLP.part.repulsive>
0.2766

> <Gold.PLP.ligand.clash>
0.0000

> <Gold.PLP.ligand.torsion>
1.3908

> <Gold.PLP.Chemscore.Hbond>
3.0000

> <Gold.PLP.Chemscore.CHOScore>
0.0000

> <Gold.PLP.Chemscore.Metal>
0.0000

> <Gold.Chemscore.Hbonds>
donor molecule, donor type, donor heavy atom, donor atom, acceptor molecule, acceptor atom, score
      L1  H    15    44       P1  8028  1.89
      P1  H  7997  8008       L1    11  1.00

> <Gold.PLP.Chemscore.Internal.Correction>
0.0662

> <Gold.Rescore>
     Score         DG    S(hbond)    S(metal)    S(lipo)     H(rot)  DE(clash)    DE(int)     intcor
     17.07     -18.58       1.94        0.00     122.85       3.03       0.05       1.46       ----

> <Gold.Chemscore.Fitness>
17.0688

> <Gold.Chemscore.DG>
-18.5797

> <Gold.Chemscore.ZeroCoef>
-5.4800

> <Gold.Chemscore.Hbond>
1.9394

> <Gold.Chemscore.Metal>
0.0000

> <Gold.Chemscore.Lipo>
122.8484

> <Gold.Chemscore.Internal_Hbond>
0.0000

> <Gold.Chemscore.DEClash>
0.0492

> <Gold.Chemscore.DEInternal>
1.4617

> <Gold.Chemscore.Rot>
3.0278

> <Gold.Chemscore.Internal.Correction>
   9.000000E+99

> <Gold.Chemscore.Hbonds>
donor molecule, donor type, donor heavy atom, donor atom, acceptor molecule, acceptor atom, score
      L1  H    15    44       P1  8028  0.90
      P1  H  7997  8008       L1    11  0.50

> <Gold.Chemscore.Hbond.Weighted>
-6.4776

> <Gold.Chemscore.Metal.Weighted>
-0.0000

> <Gold.Chemscore.Lipo.Weighted>
-14.3733

> <Gold.Chemscore.Internal_Hbond.Weighted>
0.0000

> <Gold.Chemscore.DEClash.Weighted>
0.0492

> <Gold.Chemscore.DEInternal.Weighted>
1.4617

> <Gold.Chemscore.Rot.Weighted>
7.7512

> <Gold.Chemscore.Internal.Correction.Weighted>
   9.000000E+99

> <Gold.Protein.RotatedTorsions>
[ 6907 6896 6895 6894 ] final  -86.29 input  -60.11 | X-H torsion
[ 7974 7965 7964 7962 ] final  127.53 input  175.53 | X-H torsion
[ 8008 7997 7996 7995 ] final   -7.06 input   59.86 | X-H torsion
[ 10167 10162 10161 10158 ] final  -10.55 input  -65.29 | X-H torsion
[ 10718 10713 10712 10709 ] final  162.63 input   66.30 | X-H torsion
[ 10763 10752 10751 10750 ] final   80.49 input  -60.55 | X-H torsion
[ 11005 11000 10999 10996 ] final   52.78 input  -57.11 | X-H torsion

> <Gold.Protein.ActiveResidues>
 VAL166  LYS551  ARG553  GLY616  TRP617  ASP618  TYR619  PRO620  LYS621  CYS622 
 ASP623  PHE694  ASN695  SER759  ASP760  ASP761  ALA762  ILE779  LEU786  VAL792 
 PHE793  MET794  SER795  GLU796  ALA797  LYS798  CYS799  TRP800  GLU811  SER814 

> <Gold.Protein.RotatedAtoms>
  150.6867  134.3073  159.4731 H   0  0  0  0  0  0  0  0  0  0  0  0  # atno 6907 bound_to 6896
  152.0962  134.9370  160.0580 H   0  0  0  0  0  0  0  0  0  0  0  0  # atno 6908 bound_to 6896
  152.0667  133.4052  159.4478 H   0  0  0  0  0  0  0  0  0  0  0  0  # atno 6909 bound_to 6896
  145.0495  139.3894  143.5061 H   0  0  0  0  0  0  0  0  0  0  0  0  # atno 7974 bound_to 7965
  154.5875  140.2416  155.7966 H   0  0  0  0  0  0  0  0  0  0  0  0  # atno 8008 bound_to 7997
  156.2224  140.2993  155.9939 H   0  0  0  0  0  0  0  0  0  0  0  0  # atno 8009 bound_to 7997
  155.2432  140.0408  157.2968 H   0  0  0  0  0  0  0  0  0  0  0  0  # atno 8010 bound_to 7997
  140.7117  143.5735  150.9067 H   0  0  0  0  0  0  0  0  0  0  0  0  # atno 10167 bound_to 10162
  157.1198  131.0489  151.2420 H   0  0  0  0  0  0  0  0  0  0  0  0  # atno 10718 bound_to 10713
  153.1038  135.4800  154.8914 H   0  0  0  0  0  0  0  0  0  0  0  0  # atno 10763 bound_to 10752
  154.7408  135.3082  154.8735 H   0  0  0  0  0  0  0  0  0  0  0  0  # atno 10764 bound_to 10752
  153.9343  135.6841  153.4798 H   0  0  0  0  0  0  0  0  0  0  0  0  # atno 10765 bound_to 10752
  140.0821  134.5324  155.8936 H   0  0  0  0  0  0  0  0  0  0  0  0  # atno 11005 bound_to 11000
  146.3517  140.0138  142.8664 LP  0  0  0  0  0  0  0  0  0  0  0  0  # atno 17320 bound_to 7965
  145.1545  140.9640  143.4413 LP  0  0  0  0  0  0  0  0  0  0  0  0  # atno 17321 bound_to 7965
  139.9461  143.6325  152.3041 LP  0  0  0  0  0  0  0  0  0  0  0  0  # atno 17342 bound_to 10162
  139.6827  144.7654  151.1579 LP  0  0  0  0  0  0  0  0  0  0  0  0  # atno 17343 bound_to 10162
  157.4486  130.7585  149.7132 LP  0  0  0  0  0  0  0  0  0  0  0  0  # atno 17370 bound_to 10713
  155.9831  130.4003  150.3381 LP  0  0  0  0  0  0  0  0  0  0  0  0  # atno 17371 bound_to 10713
  141.2050  133.6644  156.6156 LP  0  0  0  0  0  0  0  0  0  0  0  0  # atno 17394 bound_to 11000
  140.3472  134.7799  157.4441 LP  0  0  0  0  0  0  0  0  0  0  0  0  # atno 17395 bound_to 11000

$$$$
