AV-unprocessed.smi:3286|AV-procd|sdf|12589|dock4
  -GOLD-   2272018513D 1   1.00000     0.00000
 Structure written by MMmdl.
 43 44  0  0  0  0  0  0  0  0  2 V2000
  154.8144  140.6545  162.5196 C   0  0  0  0  0  0  0  0  0  0  0  0
  153.9704  141.6175  161.7112 C   0  0  0  0  0  0  0  0  0  0  0  0
  153.1604  142.5822  162.3470 C   0  0  0  0  0  0  0  0  0  0  0  0
  152.3958  143.4503  161.5443 C   0  0  0  0  0  0  0  0  0  0  0  0
  152.4694  143.3213  160.1418 C   0  0  0  0  0  0  0  0  0  0  0  0
  151.6712  144.2338  159.2321 C   0  0  0  0  0  0  0  0  0  0  0  0
  151.8898  143.9036  157.7501 C   0  0  0  0  0  0  0  0  0  0  0  0
  150.6569  143.3673  157.1390 N   0  3  0  0  0  0  0  0  0  0  0  0
  150.8404  142.1213  156.3597 C   0  0  1  0  0  0  0  0  0  0  0  0
  151.3899  141.0376  157.3031 C   0  0  0  0  0  0  0  0  0  0  0  0
  149.5098  141.7155  155.6724 C   0  0  0  0  0  0  0  0  0  0  0  0
  148.3868  141.3946  156.6809 C   0  0  0  0  0  0  0  0  0  0  0  0
  147.1146  140.9066  155.9682 C   0  0  0  0  0  0  0  0  0  0  0  0
  147.4095  139.7704  155.1658 O   0  0  0  0  0  0  0  0  0  0  0  0
  148.3444  140.0565  154.1340 C   0  0  0  0  0  0  0  0  0  0  0  0
  149.6839  140.4893  154.7506 C   0  0  0  0  0  0  0  0  0  0  0  0
  153.3103  142.3226  159.6066 C   0  0  0  0  0  0  0  0  0  0  0  0
  154.0480  141.4874  160.3685 N   0  0  0  0  0  0  0  0  0  0  0  0
  154.6912  140.8214  163.5901 H   0  0  0  0  0  0  0  0  0  0  0  0
  155.8696  140.7782  162.2752 H   0  0  0  0  0  0  0  0  0  0  0  0
  154.5292  139.6251  162.3009 H   0  0  0  0  0  0  0  0  0  0  0  0
  153.1237  142.6567  163.4240 H   0  0  0  0  0  0  0  0  0  0  0  0
  151.7666  144.2012  161.9993 H   0  0  0  0  0  0  0  0  0  0  0  0
  150.6133  144.1472  159.4841 H   0  0  0  0  0  0  0  0  0  0  0  0
  151.9526  145.2686  159.4326 H   0  0  0  0  0  0  0  0  0  0  0  0
  152.1987  144.8004  157.2113 H   0  0  0  0  0  0  0  0  0  0  0  0
  152.6900  143.1695  157.6439 H   0  0  0  0  0  0  0  0  0  0  0  0
  149.9902  143.1863  157.8757 H   0  0  0  0  0  0  0  0  0  0  0  0
  151.5904  142.2900  155.5846 H   0  0  0  0  0  0  0  0  0  0  0  0
  151.6791  140.1369  156.7621 H   0  0  0  0  0  0  0  0  0  0  0  0
  150.6544  140.7559  158.0576 H   0  0  0  0  0  0  0  0  0  0  0  0
  152.2811  141.3894  157.8242 H   0  0  0  0  0  0  0  0  0  0  0  0
  149.1744  142.5533  155.0584 H   0  0  0  0  0  0  0  0  0  0  0  0
  148.7244  140.6304  157.3822 H   0  0  0  0  0  0  0  0  0  0  0  0
  148.1347  142.2741  157.2729 H   0  0  0  0  0  0  0  0  0  0  0  0
  146.3574  140.6300  156.7022 H   0  0  0  0  0  0  0  0  0  0  0  0
  146.6853  141.6988  155.3527 H   0  0  0  0  0  0  0  0  0  0  0  0
  148.4837  139.1607  153.5280 H   0  0  0  0  0  0  0  0  0  0  0  0
  147.9505  140.8297  153.4722 H   0  0  0  0  0  0  0  0  0  0  0  0
  150.3887  140.7051  153.9474 H   0  0  0  0  0  0  0  0  0  0  0  0
  150.1032  139.6566  155.3168 H   0  0  0  0  0  0  0  0  0  0  0  0
  153.3970  142.1920  158.5379 H   0  0  0  0  0  0  0  0  0  0  0  0
  150.2707  144.0701  156.5250 H   0  0  0  0  0  0  0  0  0  0  0  0
  1  2  1  0  0  0  0
  1 19  1  0  0  0  0
  1 20  1  0  0  0  0
  1 21  1  0  0  0  0
  2 18  1  0  0  0  0
  2  3  2  0  0  0  0
  3  4  1  0  0  0  0
  3 22  1  0  0  0  0
  4  5  2  0  0  0  0
  4 23  1  0  0  0  0
  5  6  1  0  0  0  0
  5 17  1  0  0  0  0
  6  7  1  0  0  0  0
  6 24  1  0  0  0  0
  6 25  1  0  0  0  0
  7  8  1  0  0  0  0
  7 26  1  0  0  0  0
  7 27  1  0  0  0  0
  8  9  1  0  0  0  0
  8 28  1  0  0  0  0
  8 43  1  0  0  0  0
  9 10  1  0  0  0  0
  9 11  1  0  0  0  0
  9 29  1  0  0  0  0
 10 30  1  0  0  0  0
 10 31  1  0  0  0  0
 10 32  1  0  0  0  0
 11 16  1  0  0  0  0
 11 12  1  0  0  0  0
 11 33  1  0  0  0  0
 12 13  1  0  0  0  0
 12 34  1  0  0  0  0
 12 35  1  0  0  0  0
 13 14  1  0  0  0  0
 13 36  1  0  0  0  0
 13 37  1  0  0  0  0
 14 15  1  0  0  0  0
 15 16  1  0  0  0  0
 15 38  1  0  0  0  0
 15 39  1  0  0  0  0
 16 40  1  0  0  0  0
 16 41  1  0  0  0  0
 17 18  2  0  0  0  0
 17 42  1  0  0  0  0
M  CHG  1   8   1
M  END
> <s_m_source_file>
AV-unprocessed.smi

> <i_m_source_file_index>
3286

> <i_lp_mmshare_version>
43012

> <i_f3d_flags>
0

> <s_epik_input>
W0NIM11jMVtjSF1bY0hdYyhbY0hdbjEpW0NIMl1bQ0gyXVtOSF1bQ0BIXShbQ0gzXSlbQ0hdMltDSDJdW0NIMl1PW0NIMl1bQ0gyXTI=

> <s_epik_cmdline>
J2VwaWtfcHl0aG9uJywgJy1waCcsICc3LjAnLCAnLXRuJywgJzgnLCAnLW1hJywgJzIwMCcsICctbWV0YWxfYmluZGluZycsICctaW1hZScsICc8aW5maWxlLm1hZT4nLCAnLW9tYWUnLCAnPG91dGZpbGUubWFlPic=

> <r_lp_tautomer_probability>
1

> <r_epik_Ionization_Penalty>
0.00336271

> <r_epik_Ionization_Penalty_Charging>
0.000752246

> <r_epik_Ionization_Penalty_Neutral>
0.00261046

> <r_epik_State_Penalty>
-0

> <r_epik_Charging_Adjusted_Penalty>
0.000752246

> <i_epik_Tot_Q>
1

> <i_epik_Tot_abs_Q>
1

> <r_epik_Metal_State_Penalty>
-0

> <b_epik_Metal_Only>
0

> <s_lp_Force_Field>
OPLS_2005

> <r_lp_Energy>
16.504

> <b_lp_Chiralities_Consistent>
1

> <s_lp_Variant>
AV-unprocessed.smi:3286-2

> <Gold.Version>
5.8.1

> <Gold.Id.Protein>
6NUR|6NUR_protein|mol2

> <Gold.PLP.Fitness>
48.4552

> <Gold.PLP.PLP>
-43.8242

> <Gold.PLP.part.hbond>
-1.0000

> <Gold.PLP.part.metal>
0.0000

> <Gold.PLP.part.buried>
-2.0703

> <Gold.PLP.part.nonpolar>
-39.5110

> <Gold.PLP.part.repulsive>
0.0448

> <Gold.PLP.ligand.clash>
0.0000

> <Gold.PLP.ligand.torsion>
0.7250

> <Gold.PLP.Chemscore.Hbond>
2.0000

> <Gold.PLP.Chemscore.CHOScore>
0.0000

> <Gold.PLP.Chemscore.Metal>
0.0000

> <Gold.Chemscore.Hbonds>
donor molecule, donor type, donor heavy atom, donor atom, acceptor molecule, acceptor atom, score
      L1  H     8    43       P1  8028  2.00

> <Gold.PLP.Chemscore.Internal.Correction>
0.0811

> <Gold.Rescore>
     Score         DG    S(hbond)    S(metal)    S(lipo)     H(rot)  DE(clash)    DE(int)     intcor
     19.65     -20.43       0.99        0.00     130.88       1.43       0.08       0.70       ----

> <Gold.Chemscore.Fitness>
19.6515

> <Gold.Chemscore.DG>
-20.4308

> <Gold.Chemscore.ZeroCoef>
-5.4800

> <Gold.Chemscore.Hbond>
0.9887

> <Gold.Chemscore.Metal>
0.0000

> <Gold.Chemscore.Lipo>
130.8849

> <Gold.Chemscore.Internal_Hbond>
0.0000

> <Gold.Chemscore.DEClash>
0.0779

> <Gold.Chemscore.DEInternal>
0.7014

> <Gold.Chemscore.Rot>
1.4317

> <Gold.Chemscore.Internal.Correction>
   9.000000E+99

> <Gold.Chemscore.Hbonds>
donor molecule, donor type, donor heavy atom, donor atom, acceptor molecule, acceptor atom, score
      L1  H     8    43       P1  8028  0.94

> <Gold.Chemscore.Hbond.Weighted>
-3.3023

> <Gold.Chemscore.Metal.Weighted>
-0.0000

> <Gold.Chemscore.Lipo.Weighted>
-15.3135

> <Gold.Chemscore.Internal_Hbond.Weighted>
0.0000

> <Gold.Chemscore.DEClash.Weighted>
0.0779

> <Gold.Chemscore.DEInternal.Weighted>
0.7014

> <Gold.Chemscore.Rot.Weighted>
3.6651

> <Gold.Chemscore.Internal.Correction.Weighted>
   9.000000E+99

> <Gold.Protein.RotatedTorsions>
[ 6907 6896 6895 6894 ] final  116.90 input  -60.11 | X-H torsion
[ 7974 7965 7964 7962 ] final -127.21 input  175.53 | X-H torsion
[ 8008 7997 7996 7995 ] final   79.78 input   59.86 | X-H torsion
[ 10167 10162 10161 10158 ] final  179.44 input  -65.29 | X-H torsion
[ 10718 10713 10712 10709 ] final  -88.27 input   66.30 | X-H torsion
[ 10763 10752 10751 10750 ] final    1.81 input  -60.55 | X-H torsion
[ 11005 11000 10999 10996 ] final    5.46 input  -57.11 | X-H torsion

> <Gold.Protein.ActiveResidues>
 VAL166  LYS551  ARG553  GLY616  TRP617  ASP618  TYR619  PRO620  LYS621  CYS622 
 ASP623  PHE694  ASN695  SER759  ASP760  ASP761  ALA762  ILE779  LEU786  VAL792 
 PHE793  MET794  SER795  GLU796  ALA797  LYS798  CYS799  TRP800  GLU811  SER814 

> <Gold.Protein.RotatedAtoms>
  152.4647  133.7898  159.6895 H   0  0  0  0  0  0  0  0  0  0  0  0  # atno 6907 bound_to 6896
  150.8607  133.7639  159.3000 H   0  0  0  0  0  0  0  0  0  0  0  0  # atno 6908 bound_to 6896
  151.5205  135.1070  159.9929 H   0  0  0  0  0  0  0  0  0  0  0  0  # atno 6909 bound_to 6896
  144.9794  140.7625  143.4621 H   0  0  0  0  0  0  0  0  0  0  0  0  # atno 7974 bound_to 7965
  155.8745  140.3447  155.5844 H   0  0  0  0  0  0  0  0  0  0  0  0  # atno 8008 bound_to 7997
  155.7790  140.0856  157.2088 H   0  0  0  0  0  0  0  0  0  0  0  0  # atno 8009 bound_to 7997
  154.4020  140.1504  156.3017 H   0  0  0  0  0  0  0  0  0  0  0  0  # atno 8010 bound_to 7997
  139.5337  144.2560  152.0746 H   0  0  0  0  0  0  0  0  0  0  0  0  # atno 10167 bound_to 10162
  155.9984  130.4830  150.4994 H   0  0  0  0  0  0  0  0  0  0  0  0  # atno 10718 bound_to 10713
  153.3034  135.6957  153.7182 H   0  0  0  0  0  0  0  0  0  0  0  0  # atno 10763 bound_to 10752
  153.6087  135.3448  155.2972 H   0  0  0  0  0  0  0  0  0  0  0  0  # atno 10764 bound_to 10752
  154.8557  135.4358  154.2152 H   0  0  0  0  0  0  0  0  0  0  0  0  # atno 10765 bound_to 10752
  140.5704  134.0107  155.8006 H   0  0  0  0  0  0  0  0  0  0  0  0  # atno 11005 bound_to 11000
  145.2443  139.2059  143.4976 LP  0  0  0  0  0  0  0  0  0  0  0  0  # atno 17320 bound_to 7965
  146.3404  140.2344  142.8594 LP  0  0  0  0  0  0  0  0  0  0  0  0  # atno 17321 bound_to 7965
  140.2027  144.4641  150.6423 LP  0  0  0  0  0  0  0  0  0  0  0  0  # atno 17342 bound_to 10162
  140.6530  143.2230  151.6033 LP  0  0  0  0  0  0  0  0  0  0  0  0  # atno 17343 bound_to 10162
  157.2980  131.0639  151.2088 LP  0  0  0  0  0  0  0  0  0  0  0  0  # atno 17370 bound_to 10713
  157.3077  130.6874  149.6198 LP  0  0  0  0  0  0  0  0  0  0  0  0  # atno 17371 bound_to 10713
  141.1059  133.9694  157.2997 LP  0  0  0  0  0  0  0  0  0  0  0  0  # atno 17394 bound_to 11000
  139.9364  135.0196  156.8570 LP  0  0  0  0  0  0  0  0  0  0  0  0  # atno 17395 bound_to 11000

$$$$
