AV-unprocessed.smi:736|AV-procd|sdf|3535|dock2
  -GOLD-   22720 0523D 1   1.00000     0.00000
 Structure written by MMmdl.
 46 47  0  0  0  0  0  0  0  0  1 V2000
  149.3511  141.6390  157.4427 C   0  0  0  0  0  0  0  0  0  0  0  0
  150.4451  140.7712  156.9948 N   0  0  0  0  0  0  0  0  0  0  0  0
  151.5190  140.5804  157.9718 C   0  0  0  0  0  0  0  0  0  0  0  0
  150.5393  140.2340  155.7537 C   0  0  0  0  0  0  0  0  0  0  0  0
  151.5470  139.6488  155.3533 O   0  0  0  0  0  0  0  0  0  0  0  0
  149.3625  140.3678  154.8287 C   0  0  0  0  0  0  0  0  0  0  0  0
  148.8849  139.2519  154.1033 C   0  0  0  0  0  0  0  0  0  0  0  0
  147.7922  139.4142  153.2268 C   0  0  0  0  0  0  0  0  0  0  0  0
  147.3428  138.2582  152.5287 N   0  0  0  0  0  0  0  0  0  0  0  0
  146.0921  137.8770  152.2138 C   0  0  0  0  0  0  0  0  0  0  0  0
  145.0623  138.4881  152.4963 O   0  0  0  0  0  0  0  0  0  0  0  0
  146.0995  136.7199  151.5356 N   0  0  0  0  0  0  0  0  0  0  0  0
  144.9176  136.0224  151.0314 C   0  0  0  0  0  0  0  0  0  0  0  0
  144.9122  134.5105  151.3719 C   0  0  0  0  0  0  0  0  0  0  0  0
  145.1725  134.2861  152.8780 C   0  0  0  0  0  0  0  0  0  0  0  0
  143.5527  133.8750  150.9796 C   0  0  0  0  0  0  0  0  0  0  0  0
  143.8422  132.7974  149.9303 C   0  0  0  0  0  0  0  0  0  0  0  0
  145.2974  132.4120  150.1639 C   0  0  0  0  0  0  0  0  0  0  0  0
  145.9571  133.7379  150.5337 C   0  0  0  0  0  0  0  0  0  0  0  0
  147.2185  140.7036  153.1147 C   0  0  0  0  0  0  0  0  0  0  0  0
  147.7743  141.7559  153.8677 C   0  0  0  0  0  0  0  0  0  0  0  0
  148.8230  141.6006  154.7020 N   0  0  0  0  0  0  0  0  0  0  0  0
  148.5286  141.0412  157.8359 H   0  0  0  0  0  0  0  0  0  0  0  0
  148.9678  142.2690  156.6389 H   0  0  0  0  0  0  0  0  0  0  0  0
  149.6777  142.3152  158.2336 H   0  0  0  0  0  0  0  0  0  0  0  0
  151.9101  139.5619  157.9467 H   0  0  0  0  0  0  0  0  0  0  0  0
  151.1743  140.7599  158.9909 H   0  0  0  0  0  0  0  0  0  0  0  0
  152.3416  141.2669  157.7675 H   0  0  0  0  0  0  0  0  0  0  0  0
  149.3547  138.2850  154.2146 H   0  0  0  0  0  0  0  0  0  0  0  0
  148.0777  137.6488  152.2015 H   0  0  0  0  0  0  0  0  0  0  0  0
  146.9917  136.2868  151.3474 H   0  0  0  0  0  0  0  0  0  0  0  0
  144.0031  136.4924  151.3977 H   0  0  0  0  0  0  0  0  0  0  0  0
  144.9019  136.1552  149.9490 H   0  0  0  0  0  0  0  0  0  0  0  0
  145.1198  133.2283  153.1380 H   0  0  0  0  0  0  0  0  0  0  0  0
  144.4378  134.8123  153.4881 H   0  0  0  0  0  0  0  0  0  0  0  0
  146.1599  134.6381  153.1767 H   0  0  0  0  0  0  0  0  0  0  0  0
  143.0755  133.4143  151.8458 H   0  0  0  0  0  0  0  0  0  0  0  0
  142.8413  134.6064  150.5936 H   0  0  0  0  0  0  0  0  0  0  0  0
  143.1650  131.9462  150.0049 H   0  0  0  0  0  0  0  0  0  0  0  0
  143.7336  133.2220  148.9311 H   0  0  0  0  0  0  0  0  0  0  0  0
  145.3690  131.7132  150.9985 H   0  0  0  0  0  0  0  0  0  0  0  0
  145.7537  131.9427  149.2918 H   0  0  0  0  0  0  0  0  0  0  0  0
  146.1802  134.2797  149.6134 H   0  0  0  0  0  0  0  0  0  0  0  0
  146.9047  133.5962  151.0550 H   0  0  0  0  0  0  0  0  0  0  0  0
  146.3743  140.9152  152.4787 H   0  0  0  0  0  0  0  0  0  0  0  0
  147.3622  142.7518  153.7996 H   0  0  0  0  0  0  0  0  0  0  0  0
  1  2  1  0  0  0  0
  1 23  1  0  0  0  0
  1 24  1  0  0  0  0
  1 25  1  0  0  0  0
  2  3  1  0  0  0  0
  2  4  1  0  0  0  0
  3 26  1  0  0  0  0
  3 27  1  0  0  0  0
  3 28  1  0  0  0  0
  4  5  2  0  0  0  0
  4  6  1  0  0  0  0
  6 22  1  0  0  0  0
  6  7  2  0  0  0  0
  7  8  1  0  0  0  0
  7 29  1  0  0  0  0
  8  9  1  0  0  0  0
  8 20  2  0  0  0  0
  9 10  1  0  0  0  0
  9 30  1  0  0  0  0
 10 11  2  0  0  0  0
 10 12  1  0  0  0  0
 12 13  1  0  0  0  0
 12 31  1  0  0  0  0
 13 14  1  0  0  0  0
 13 32  1  0  0  0  0
 13 33  1  0  0  0  0
 14 19  1  0  0  0  0
 14 15  1  0  0  0  0
 14 16  1  0  0  0  0
 15 34  1  0  0  0  0
 15 35  1  0  0  0  0
 15 36  1  0  0  0  0
 16 17  1  0  0  0  0
 16 37  1  0  0  0  0
 16 38  1  0  0  0  0
 17 18  1  0  0  0  0
 17 39  1  0  0  0  0
 17 40  1  0  0  0  0
 18 19  1  0  0  0  0
 18 41  1  0  0  0  0
 18 42  1  0  0  0  0
 19 43  1  0  0  0  0
 19 44  1  0  0  0  0
 20 21  1  0  0  0  0
 20 45  1  0  0  0  0
 21 22  2  0  0  0  0
 21 46  1  0  0  0  0
M  END
> <s_m_source_file>
AV-unprocessed.smi

> <i_m_source_file_index>
736

> <i_lp_mmshare_version>
43012

> <i_f3d_flags>
0

> <s_epik_input>
W0NIM11OKFtDSDNdKUMoPU8pYzFbY0hdYyhbY0hdW2NIXW4xKVtOSF1DKD1PKVtOSF1bQ0gyXUMyKFtDSDNdKVtDSDJdW0NIMl1bQ0gyXVtDSDJdMg==

> <s_epik_cmdline>
J2VwaWtfcHl0aG9uJywgJy1waCcsICc3LjAnLCAnLXRuJywgJzgnLCAnLW1hJywgJzIwMCcsICctbWV0YWxfYmluZGluZycsICctaW1hZScsICc8aW5maWxlLm1hZT4nLCAnLW9tYWUnLCAnPG91dGZpbGUubWFlPic=

> <r_lp_tautomer_probability>
1

> <r_epik_Ionization_Penalty>
0.000119665

> <r_epik_Ionization_Penalty_Charging>
0

> <r_epik_Ionization_Penalty_Neutral>
0.000119665

> <r_epik_State_Penalty>
-0

> <r_epik_Charging_Adjusted_Penalty>
0

> <i_epik_Tot_Q>
0

> <i_epik_Tot_abs_Q>
0

> <r_epik_Metal_State_Penalty>
-0

> <b_epik_Metal_Only>
0

> <s_lp_Force_Field>
OPLS_2005

> <r_lp_Energy>
46.6669

> <b_lp_Chiralities_Consistent>
1

> <s_lp_Variant>
AV-unprocessed.smi:736-1

> <Gold.Version>
5.8.1

> <Gold.Id.Protein>
6NUR|6NUR_protein|mol2

> <Gold.PLP.Fitness>
48.4162

> <Gold.PLP.PLP>
-40.8292

> <Gold.PLP.part.hbond>
-3.5847

> <Gold.PLP.part.metal>
0.0000

> <Gold.PLP.part.buried>
-3.6394

> <Gold.PLP.part.nonpolar>
-36.5369

> <Gold.PLP.part.repulsive>
3.0014

> <Gold.PLP.ligand.clash>
0.0000

> <Gold.PLP.ligand.torsion>
1.2697

> <Gold.PLP.Chemscore.Hbond>
2.9280

> <Gold.PLP.Chemscore.CHOScore>
0.0000

> <Gold.PLP.Chemscore.Metal>
0.0000

> <Gold.Chemscore.Hbonds>
donor molecule, donor type, donor heavy atom, donor atom, acceptor molecule, acceptor atom, score
      L1  H     9    30       P1  7948  1.00
      L1  H    12    31       P1  7948  0.93
      P1  H  7989  7998       L1     5  0.35

> <Gold.PLP.Chemscore.Internal.Correction>
1.3423

> <Gold.Rescore>
     Score         DG    S(hbond)    S(metal)    S(lipo)     H(rot)  DE(clash)    DE(int)     intcor
     18.35     -21.69       2.77        0.00      85.35       1.18       0.68       2.66       ----

> <Gold.Chemscore.Fitness>
18.3511

> <Gold.Chemscore.DG>
-21.6887

> <Gold.Chemscore.ZeroCoef>
-5.4800

> <Gold.Chemscore.Hbond>
2.7694

> <Gold.Chemscore.Metal>
0.0000

> <Gold.Chemscore.Lipo>
85.3475

> <Gold.Chemscore.Internal_Hbond>
0.0000

> <Gold.Chemscore.DEClash>
0.6802

> <Gold.Chemscore.DEInternal>
2.6575

> <Gold.Chemscore.Rot>
1.1824

> <Gold.Chemscore.Internal.Correction>
   9.000000E+99

> <Gold.Chemscore.Hbonds>
donor molecule, donor type, donor heavy atom, donor atom, acceptor molecule, acceptor atom, score
      L1  H     9    30       P1  7948  1.00
      L1  H    12    31       P1  7948  0.87
      P1  H  7989  7998       L1     5  0.03

> <Gold.Chemscore.Hbond.Weighted>
-9.2499

> <Gold.Chemscore.Metal.Weighted>
-0.0000

> <Gold.Chemscore.Lipo.Weighted>
-9.9857

> <Gold.Chemscore.Internal_Hbond.Weighted>
0.0000

> <Gold.Chemscore.DEClash.Weighted>
0.6802

> <Gold.Chemscore.DEInternal.Weighted>
2.6575

> <Gold.Chemscore.Rot.Weighted>
3.0268

> <Gold.Chemscore.Internal.Correction.Weighted>
   9.000000E+99

> <Gold.Protein.RotatedTorsions>
[ 6907 6896 6895 6894 ] final   13.30 input  -60.11 | X-H torsion
[ 7974 7965 7964 7962 ] final  167.57 input  175.53 | X-H torsion
[ 8008 7997 7996 7995 ] final   72.76 input   59.86 | X-H torsion
[ 10167 10162 10161 10158 ] final  -60.62 input  -65.29 | X-H torsion
[ 10718 10713 10712 10709 ] final -129.70 input   66.30 | X-H torsion
[ 10763 10752 10751 10750 ] final -128.43 input  -60.55 | X-H torsion
[ 11005 11000 10999 10996 ] final  -98.85 input  -57.11 | X-H torsion

> <Gold.Protein.ActiveResidues>
 VAL166  LYS551  ARG553  GLY616  TRP617  ASP618  TYR619  PRO620  LYS621  CYS622 
 ASP623  PHE694  ASN695  SER759  ASP760  ASP761  ALA762  ILE779  LEU786  VAL792 
 PHE793  MET794  SER795  GLU796  ALA797  LYS798  CYS799  TRP800  GLU811  SER814 

> <Gold.Protein.RotatedAtoms>
  151.7841  135.0753  160.0377 H   0  0  0  0  0  0  0  0  0  0  0  0  # atno 6907 bound_to 6896
  152.3202  133.5841  159.5748 H   0  0  0  0  0  0  0  0  0  0  0  0  # atno 6908 bound_to 6896
  150.7366  133.9938  159.3657 H   0  0  0  0  0  0  0  0  0  0  0  0  # atno 6909 bound_to 6896
  144.7419  139.8780  143.6394 H   0  0  0  0  0  0  0  0  0  0  0  0  # atno 7974 bound_to 7965
  155.7736  140.3483  155.5260 H   0  0  0  0  0  0  0  0  0  0  0  0  # atno 8008 bound_to 7997
  155.8797  140.1000  157.1514 H   0  0  0  0  0  0  0  0  0  0  0  0  # atno 8009 bound_to 7997
  154.4024  140.1325  156.4168 H   0  0  0  0  0  0  0  0  0  0  0  0  # atno 8010 bound_to 7997
  140.6059  143.2373  151.5822 H   0  0  0  0  0  0  0  0  0  0  0  0  # atno 10167 bound_to 10162
  156.2072  130.6895  151.0608 H   0  0  0  0  0  0  0  0  0  0  0  0  # atno 10718 bound_to 10713
  154.8756  135.3929  154.3756 H   0  0  0  0  0  0  0  0  0  0  0  0  # atno 10763 bound_to 10752
  153.4510  135.7028  153.6114 H   0  0  0  0  0  0  0  0  0  0  0  0  # atno 10764 bound_to 10752
  153.4654  135.3802  155.2330 H   0  0  0  0  0  0  0  0  0  0  0  0  # atno 10765 bound_to 10752
  141.1330  133.8276  157.0894 H   0  0  0  0  0  0  0  0  0  0  0  0  # atno 11005 bound_to 11000
  146.1232  139.4253  143.0215 LP  0  0  0  0  0  0  0  0  0  0  0  0  # atno 17320 bound_to 7965
  145.7274  141.0054  143.1370 LP  0  0  0  0  0  0  0  0  0  0  0  0  # atno 17321 bound_to 7965
  139.5325  144.2876  152.1178 LP  0  0  0  0  0  0  0  0  0  0  0  0  # atno 17342 bound_to 10162
  140.2066  144.4605  150.6406 LP  0  0  0  0  0  0  0  0  0  0  0  0  # atno 17343 bound_to 10162
  157.7018  131.0772  150.6794 LP  0  0  0  0  0  0  0  0  0  0  0  0  # atno 17370 bound_to 10713
  156.6853  130.4579  149.5616 LP  0  0  0  0  0  0  0  0  0  0  0  0  # atno 17371 bound_to 10713
  140.0402  134.9858  157.0947 LP  0  0  0  0  0  0  0  0  0  0  0  0  # atno 17394 bound_to 11000
  140.4147  134.1943  155.7163 LP  0  0  0  0  0  0  0  0  0  0  0  0  # atno 17395 bound_to 11000

$$$$
