AV-unprocessed.smi:3031|AV-procd|sdf|11556|dock1
  -GOLD-   2272016523D 1   1.00000     0.00000
 Structure written by MMmdl.
 46 47  0  0  0  0  0  0  0  0  1 V2000
  152.2021  145.0338  158.8538 C   0  0  0  0  0  0  0  0  0  0  0  0
  151.8866  143.5939  158.5692 C   0  0  0  0  0  0  0  0  0  0  0  0
  152.6032  142.4411  158.9982 C   0  0  0  0  0  0  0  0  0  0  0  0
  152.0675  141.3120  158.5650 N   0  0  0  0  0  0  0  0  0  0  0  0
  150.9816  141.6993  157.8620 N   0  0  0  0  0  0  0  0  0  0  0  0
  150.1527  140.7022  157.2046 C   0  0  0  0  0  0  0  0  0  0  0  0
  149.9050  140.9859  155.7026 C   0  0  1  0  0  0  0  0  0  0  0  0
  150.2903  139.7653  154.8550 C   0  0  0  0  0  0  0  0  0  0  0  0
  148.5118  141.3347  155.4053 N   0  0  0  0  0  0  0  0  0  0  0  0
  148.2030  141.6450  154.0104 C   0  0  0  0  0  0  0  0  0  0  0  0
  146.6873  141.8144  153.7948 C   0  0  1  0  0  0  0  0  0  0  0  0
  146.0925  140.5527  154.0132 O   0  0  0  0  0  0  0  0  0  0  0  0
  146.0193  142.7988  154.7823 C   0  0  0  0  0  0  0  0  0  0  0  0
  145.0089  143.6914  154.2120 N   0  0  0  0  0  0  0  0  0  0  0  0
  145.5538  144.4693  153.1055 C   0  0  0  0  0  0  0  0  0  0  0  0
  144.4954  145.3956  152.4819 C   0  0  0  0  0  0  0  0  0  0  0  0
  143.9596  146.2511  153.4862 O   0  0  0  0  0  0  0  0  0  0  0  0
  143.3798  145.5313  154.5694 C   0  0  0  0  0  0  0  0  0  0  0  0
  144.4349  144.6043  155.1982 C   0  0  0  0  0  0  0  0  0  0  0  0
  150.8593  143.0732  157.8344 C   0  0  0  0  0  0  0  0  0  0  0  0
  152.7230  145.1533  159.8038 H   0  0  0  0  0  0  0  0  0  0  0  0
  151.2998  145.6435  158.9045 H   0  0  0  0  0  0  0  0  0  0  0  0
  152.8395  145.4645  158.0814 H   0  0  0  0  0  0  0  0  0  0  0  0
  153.4963  142.3925  159.6035 H   0  0  0  0  0  0  0  0  0  0  0  0
  150.6690  139.7482  157.3196 H   0  0  0  0  0  0  0  0  0  0  0  0
  149.2053  140.5998  157.7369 H   0  0  0  0  0  0  0  0  0  0  0  0
  150.5522  141.8027  155.3819 H   0  0  0  0  0  0  0  0  0  0  0  0
  151.3406  139.5065  154.9925 H   0  0  0  0  0  0  0  0  0  0  0  0
  150.1397  139.9602  153.7925 H   0  0  0  0  0  0  0  0  0  0  0  0
  149.6942  138.8916  155.1213 H   0  0  0  0  0  0  0  0  0  0  0  0
  147.9043  140.5826  155.7173 H   0  0  0  0  0  0  0  0  0  0  0  0
  148.7014  142.5699  153.7255 H   0  0  0  0  0  0  0  0  0  0  0  0
  148.5843  140.8637  153.3518 H   0  0  0  0  0  0  0  0  0  0  0  0
  146.4785  142.0853  152.7598 H   0  0  0  0  0  0  0  0  0  0  0  0
  145.2898  140.5109  153.5160 H   0  0  0  0  0  0  0  0  0  0  0  0
  145.5710  142.2338  155.6014 H   0  0  0  0  0  0  0  0  0  0  0  0
  146.8069  143.4016  155.2373 H   0  0  0  0  0  0  0  0  0  0  0  0
  146.3973  145.0677  153.4534 H   0  0  0  0  0  0  0  0  0  0  0  0
  145.9422  143.7991  152.3376 H   0  0  0  0  0  0  0  0  0  0  0  0
  144.9397  146.0041  151.6943 H   0  0  0  0  0  0  0  0  0  0  0  0
  143.6936  144.8131  152.0249 H   0  0  0  0  0  0  0  0  0  0  0  0
  143.0057  146.2389  155.3093 H   0  0  0  0  0  0  0  0  0  0  0  0
  142.5234  144.9550  154.2150 H   0  0  0  0  0  0  0  0  0  0  0  0
  143.9657  144.0455  156.0068 H   0  0  0  0  0  0  0  0  0  0  0  0
  145.2242  145.2070  155.6499 H   0  0  0  0  0  0  0  0  0  0  0  0
  150.0587  143.5632  157.2999 H   0  0  0  0  0  0  0  0  0  0  0  0
  1  2  1  0  0  0  0
  1 21  1  0  0  0  0
  1 22  1  0  0  0  0
  1 23  1  0  0  0  0
  2 20  2  0  0  0  0
  2  3  1  0  0  0  0
  3  4  2  0  0  0  0
  3 24  1  0  0  0  0
  4  5  1  0  0  0  0
  5  6  1  0  0  0  0
  5 20  1  0  0  0  0
  6  7  1  0  0  0  0
  6 25  1  0  0  0  0
  6 26  1  0  0  0  0
  7  8  1  0  0  0  0
  7  9  1  0  0  0  0
  7 27  1  0  0  0  0
  8 28  1  0  0  0  0
  8 29  1  0  0  0  0
  8 30  1  0  0  0  0
  9 10  1  0  0  0  0
  9 31  1  0  0  0  0
 10 11  1  0  0  0  0
 10 32  1  0  0  0  0
 10 33  1  0  0  0  0
 11 12  1  0  0  0  0
 11 13  1  0  0  0  0
 11 34  1  0  0  0  0
 12 35  1  0  0  0  0
 13 14  1  0  0  0  0
 13 36  1  0  0  0  0
 13 37  1  0  0  0  0
 14 19  1  0  0  0  0
 14 15  1  0  0  0  0
 15 16  1  0  0  0  0
 15 38  1  0  0  0  0
 15 39  1  0  0  0  0
 16 17  1  0  0  0  0
 16 40  1  0  0  0  0
 16 41  1  0  0  0  0
 17 18  1  0  0  0  0
 18 19  1  0  0  0  0
 18 42  1  0  0  0  0
 18 43  1  0  0  0  0
 19 44  1  0  0  0  0
 19 45  1  0  0  0  0
 20 46  1  0  0  0  0
M  END
> <s_m_source_file>
AV-unprocessed.smi

> <i_m_source_file_index>
3031

> <i_lp_mmshare_version>
43012

> <i_f3d_flags>
0

> <s_epik_input>
W0NIM11jMVtjSF1ubihbY0hdMSlbQ0gyXVtDQEhdKFtDSDNdKVtOSF1bQ0gyXVtDQEhdKFtPSF0pW0NIMl1OMltDSDJdW0NIMl1PW0NIMl1bQ0gyXTI=

> <s_epik_cmdline>
J2VwaWtfcHl0aG9uJywgJy1waCcsICc3LjAnLCAnLXRuJywgJzgnLCAnLW1hJywgJzIwMCcsICctbWV0YWxfYmluZGluZycsICctaW1hZScsICc8aW5maWxlLm1hZT4nLCAnLW9tYWUnLCAnPG91dGZpbGUubWFlPic=

> <r_lp_tautomer_probability>
1

> <r_epik_Ionization_Penalty>
2.8101

> <r_epik_Ionization_Penalty_Charging>
0

> <r_epik_Ionization_Penalty_Neutral>
2.8101

> <r_epik_State_Penalty>
2.12351

> <r_epik_Charging_Adjusted_Penalty>
2.12351

> <i_epik_Tot_Q>
0

> <i_epik_Tot_abs_Q>
0

> <r_epik_Metal_State_Penalty>
2.12345

> <b_epik_Metal_Only>
0

> <s_lp_Force_Field>
OPLS_2005

> <r_lp_Energy>
29.6213

> <b_lp_Chiralities_Consistent>
1

> <s_lp_Variant>
AV-unprocessed.smi:3031-16

> <Gold.Version>
5.8.1

> <Gold.Id.Protein>
6NUR|6NUR_protein|mol2

> <Gold.PLP.Fitness>
46.4862

> <Gold.PLP.PLP>
-43.0596

> <Gold.PLP.part.hbond>
-3.0000

> <Gold.PLP.part.metal>
0.0000

> <Gold.PLP.part.buried>
-1.6407

> <Gold.PLP.part.nonpolar>
-38.6904

> <Gold.PLP.part.repulsive>
0.2823

> <Gold.PLP.ligand.clash>
0.0000

> <Gold.PLP.ligand.torsion>
1.4427

> <Gold.PLP.Chemscore.Hbond>
0.9913

> <Gold.PLP.Chemscore.CHOScore>
1.0000

> <Gold.PLP.Chemscore.Metal>
0.0000

> <Gold.Chemscore.Hbonds>
donor molecule, donor type, donor heavy atom, donor atom, acceptor molecule, acceptor atom, score
      L1  H    12    35       P1 10175  1.00
      L1  C    20    46       P1  8028  1.00

> <Gold.PLP.Chemscore.Internal.Correction>
0.3383

> <Gold.Rescore>
     Score         DG    S(hbond)    S(metal)    S(lipo)     H(rot)  DE(clash)    DE(int)     intcor
     13.02     -15.25       0.96        0.00     111.40       2.53       0.68       1.54       ----

> <Gold.Chemscore.Fitness>
13.0223

> <Gold.Chemscore.DG>
-15.2490

> <Gold.Chemscore.ZeroCoef>
-5.4800

> <Gold.Chemscore.Hbond>
0.9641

> <Gold.Chemscore.Metal>
0.0000

> <Gold.Chemscore.Lipo>
111.4027

> <Gold.Chemscore.Internal_Hbond>
0.0000

> <Gold.Chemscore.DEClash>
0.6829

> <Gold.Chemscore.DEInternal>
1.5438

> <Gold.Chemscore.Rot>
2.5333

> <Gold.Chemscore.Internal.Correction>
   9.000000E+99

> <Gold.Chemscore.Hbonds>
donor molecule, donor type, donor heavy atom, donor atom, acceptor molecule, acceptor atom, score
      L1  H    12    35       P1 10175  0.98

> <Gold.Chemscore.Hbond.Weighted>
-3.2200

> <Gold.Chemscore.Metal.Weighted>
-0.0000

> <Gold.Chemscore.Lipo.Weighted>
-13.0341

> <Gold.Chemscore.Internal_Hbond.Weighted>
0.0000

> <Gold.Chemscore.DEClash.Weighted>
0.6829

> <Gold.Chemscore.DEInternal.Weighted>
1.5438

> <Gold.Chemscore.Rot.Weighted>
6.4852

> <Gold.Chemscore.Internal.Correction.Weighted>
   9.000000E+99

> <Gold.Protein.RotatedTorsions>
[ 6907 6896 6895 6894 ] final  172.95 input  -60.11 | X-H torsion
[ 7974 7965 7964 7962 ] final   52.35 input  175.53 | X-H torsion
[ 8008 7997 7996 7995 ] final  114.02 input   59.86 | X-H torsion
[ 10167 10162 10161 10158 ] final  -70.82 input  -65.29 | X-H torsion
[ 10718 10713 10712 10709 ] final    1.10 input   66.30 | X-H torsion
[ 10763 10752 10751 10750 ] final   17.95 input  -60.55 | X-H torsion
[ 11005 11000 10999 10996 ] final -110.11 input  -57.11 | X-H torsion

> <Gold.Protein.ActiveResidues>
 VAL166  LYS551  ARG553  GLY616  TRP617  ASP618  TYR619  PRO620  LYS621  CYS622 
 ASP623  PHE694  ASN695  SER759  ASP760  ASP761  ALA762  ILE779  LEU786  VAL792 
 PHE793  MET794  SER795  GLU796  ALA797  LYS798  CYS799  TRP800  GLU811  SER814 

> <Gold.Protein.RotatedAtoms>
  151.7760  133.3345  159.3457 H   0  0  0  0  0  0  0  0  0  0  0  0  # atno 6907 bound_to 6896
  150.7444  134.5974  159.6028 H   0  0  0  0  0  0  0  0  0  0  0  0  # atno 6908 bound_to 6896
  152.3308  134.7263  160.0341 H   0  0  0  0  0  0  0  0  0  0  0  0  # atno 6909 bound_to 6896
  145.9822  139.4253  143.0125 H   0  0  0  0  0  0  0  0  0  0  0  0  # atno 7974 bound_to 7965
  156.2295  140.2967  156.0152 H   0  0  0  0  0  0  0  0  0  0  0  0  # atno 8008 bound_to 7997
  155.2264  140.0417  157.2973 H   0  0  0  0  0  0  0  0  0  0  0  0  # atno 8009 bound_to 7997
  154.5971  140.2417  155.7849 H   0  0  0  0  0  0  0  0  0  0  0  0  # atno 8010 bound_to 7997
  140.5322  143.2321  151.7242 H   0  0  0  0  0  0  0  0  0  0  0  0  # atno 10167 bound_to 10162
  156.8431  130.5528  149.5676 H   0  0  0  0  0  0  0  0  0  0  0  0  # atno 10718 bound_to 10713
  153.1292  135.6736  153.9205 H   0  0  0  0  0  0  0  0  0  0  0  0  # atno 10763 bound_to 10752
  153.8697  135.3071  155.3443 H   0  0  0  0  0  0  0  0  0  0  0  0  # atno 10764 bound_to 10752
  154.7692  135.4948  153.9697 H   0  0  0  0  0  0  0  0  0  0  0  0  # atno 10765 bound_to 10752
  141.0810  133.9219  157.2288 H   0  0  0  0  0  0  0  0  0  0  0  0  # atno 11005 bound_to 11000
  145.7753  140.9879  143.1128 LP  0  0  0  0  0  0  0  0  0  0  0  0  # atno 17320 bound_to 7965
  144.6864  139.9497  143.7477 LP  0  0  0  0  0  0  0  0  0  0  0  0  # atno 17321 bound_to 7965
  139.4958  144.4097  152.0094 LP  0  0  0  0  0  0  0  0  0  0  0  0  # atno 17342 bound_to 10162
  140.3200  144.3439  150.6012 LP  0  0  0  0  0  0  0  0  0  0  0  0  # atno 17343 bound_to 10162
  156.0869  130.5865  150.9664 LP  0  0  0  0  0  0  0  0  0  0  0  0  # atno 17370 bound_to 10713
  157.6344  131.0917  150.8377 LP  0  0  0  0  0  0  0  0  0  0  0  0  # atno 17371 bound_to 10713
  139.9624  135.0151  156.9297 LP  0  0  0  0  0  0  0  0  0  0  0  0  # atno 17394 bound_to 11000
  140.5468  134.0666  155.7357 LP  0  0  0  0  0  0  0  0  0  0  0  0  # atno 17395 bound_to 11000

$$$$
