AV-unprocessed.smi:1226|AV-procd|sdf|5144|dock1
  -GOLD-   22720 4213D 1   1.00000     0.00000
 Structure written by MMmdl.
 37 38  0  0  0  0  0  0  0  0  1 V2000
  146.2654  129.5103  152.2001 C   0  0  0  0  0  0  0  0  0  0  0  0
  146.9653  130.8088  152.4134 C   0  0  0  0  0  0  0  0  0  0  0  0
  148.1080  130.9288  153.0940 N   0  0  0  0  0  0  0  0  0  0  0  0
  148.5640  132.2494  153.1534 C   0  0  0  0  0  0  0  0  0  0  0  0
  149.8386  132.5676  153.8741 C   0  0  0  0  0  0  0  0  0  0  0  0
  149.6638  133.7146  154.8836 C   0  0  0  0  0  0  0  0  0  0  0  0
  150.0038  135.0056  154.2970 N   0  0  0  0  0  0  0  0  0  0  0  0
  150.9747  135.8167  154.7392 C   0  0  0  0  0  0  0  0  0  0  0  0
  151.7025  135.5632  155.6991 O   0  0  0  0  0  0  0  0  0  0  0  0
  151.0519  136.9409  154.0145 N   0  0  0  0  0  0  0  0  0  0  0  0
  151.9894  138.0309  154.2616 C   0  0  0  0  0  0  0  0  0  0  0  0
  151.6514  138.8049  155.5482 C   0  0  2  0  0  0  0  0  0  0  0  0
  150.1848  138.7307  155.9767 C   0  0  0  0  0  0  0  0  0  0  0  0
  149.9665  140.0259  156.7449 C   0  0  0  0  0  0  0  0  0  0  0  0
  151.2124  140.8615  156.4384 C   0  0  0  0  0  0  0  0  0  0  0  0
  151.8451  140.1960  155.3549 O   0  0  0  0  0  0  0  0  0  0  0  0
  147.7408  133.1355  152.5039 C   0  0  0  0  0  0  0  0  0  0  0  0
  146.3627  132.3408  151.7932 S   0  0  0  0  0  0  0  0  0  0  0  0
  146.9046  128.6770  152.4934 H   0  0  0  0  0  0  0  0  0  0  0  0
  146.0039  129.3957  151.1481 H   0  0  0  0  0  0  0  0  0  0  0  0
  145.3527  129.4777  152.7948 H   0  0  0  0  0  0  0  0  0  0  0  0
  150.2021  131.6802  154.3938 H   0  0  0  0  0  0  0  0  0  0  0  0
  150.6131  132.8273  153.1512 H   0  0  0  0  0  0  0  0  0  0  0  0
  148.6421  133.7368  155.2666 H   0  0  0  0  0  0  0  0  0  0  0  0
  150.3143  133.5530  155.7436 H   0  0  0  0  0  0  0  0  0  0  0  0
  149.4588  135.3028  153.5009 H   0  0  0  0  0  0  0  0  0  0  0  0
  150.4109  137.0577  153.2436 H   0  0  0  0  0  0  0  0  0  0  0  0
  153.0085  137.6440  154.3105 H   0  0  0  0  0  0  0  0  0  0  0  0
  151.9565  138.7039  153.4044 H   0  0  0  0  0  0  0  0  0  0  0  0
  152.2935  138.4780  156.3684 H   0  0  0  0  0  0  0  0  0  0  0  0
  149.5344  138.7129  155.1012 H   0  0  0  0  0  0  0  0  0  0  0  0
  149.9698  137.8433  156.5729 H   0  0  0  0  0  0  0  0  0  0  0  0
  149.0579  140.5250  156.4059 H   0  0  0  0  0  0  0  0  0  0  0  0
  149.8720  139.8497  157.8169 H   0  0  0  0  0  0  0  0  0  0  0  0
  150.9733  141.8939  156.1826 H   0  0  0  0  0  0  0  0  0  0  0  0
  151.8876  140.8708  157.2953 H   0  0  0  0  0  0  0  0  0  0  0  0
  147.8612  134.2036  152.3996 H   0  0  0  0  0  0  0  0  0  0  0  0
  1  2  1  0  0  0  0
  1 19  1  0  0  0  0
  1 20  1  0  0  0  0
  1 21  1  0  0  0  0
  2 18  1  0  0  0  0
  2  3  2  0  0  0  0
  3  4  1  0  0  0  0
  4  5  1  0  0  0  0
  4 17  2  0  0  0  0
  5  6  1  0  0  0  0
  5 22  1  0  0  0  0
  5 23  1  0  0  0  0
  6  7  1  0  0  0  0
  6 24  1  0  0  0  0
  6 25  1  0  0  0  0
  7  8  1  0  0  0  0
  7 26  1  0  0  0  0
  8  9  2  0  0  0  0
  8 10  1  0  0  0  0
 10 11  1  0  0  0  0
 10 27  1  0  0  0  0
 11 12  1  0  0  0  0
 11 28  1  0  0  0  0
 11 29  1  0  0  0  0
 12 16  1  0  0  0  0
 12 13  1  0  0  0  0
 12 30  1  0  0  0  0
 13 14  1  0  0  0  0
 13 31  1  0  0  0  0
 13 32  1  0  0  0  0
 14 15  1  0  0  0  0
 14 33  1  0  0  0  0
 14 34  1  0  0  0  0
 15 16  1  0  0  0  0
 15 35  1  0  0  0  0
 15 36  1  0  0  0  0
 17 18  1  0  0  0  0
 17 37  1  0  0  0  0
M  END
> <s_m_source_file>
AV-unprocessed.smi

> <i_m_source_file_index>
1226

> <i_lp_mmshare_version>
43012

> <i_f3d_flags>
0

> <s_epik_input>
W0NIM11jMW5jKFtjSF1zMSlbQ0gyXVtDSDJdW05IXUMoPU8pW05IXVtDSDJdW0NAQEhdMltDSDJdW0NIMl1bQ0gyXU8y

> <s_epik_cmdline>
J2VwaWtfcHl0aG9uJywgJy1waCcsICc3LjAnLCAnLXRuJywgJzgnLCAnLW1hJywgJzIwMCcsICctbWV0YWxfYmluZGluZycsICctaW1hZScsICc8aW5maWxlLm1hZT4nLCAnLW9tYWUnLCAnPG91dGZpbGUubWFlPic=

> <r_epik_Ionization_Penalty>
0.00199722

> <r_epik_Ionization_Penalty_Charging>
0

> <r_epik_Ionization_Penalty_Neutral>
0.00199722

> <r_epik_State_Penalty>
0.00132705

> <r_epik_Charging_Adjusted_Penalty>
0.00132705

> <i_epik_Tot_Q>
0

> <i_epik_Tot_abs_Q>
0

> <r_epik_Metal_State_Penalty>
-0

> <b_epik_Metal_Only>
0

> <s_lp_Force_Field>
OPLS_2005

> <r_lp_Energy>
9.02747

> <b_lp_Chiralities_Consistent>
1

> <s_lp_Variant>
AV-unprocessed.smi:1226-1

> <Gold.Version>
5.8.1

> <Gold.Id.Protein>
6NUR|6NUR_protein|mol2

> <Gold.PLP.Fitness>
45.7211

> <Gold.PLP.PLP>
-34.4246

> <Gold.PLP.part.hbond>
-5.1162

> <Gold.PLP.part.metal>
0.0000

> <Gold.PLP.part.buried>
-3.1541

> <Gold.PLP.part.nonpolar>
-26.0804

> <Gold.PLP.part.repulsive>
0.3033

> <Gold.PLP.ligand.clash>
0.0000

> <Gold.PLP.ligand.torsion>
0.8636

> <Gold.PLP.Chemscore.Hbond>
3.3282

> <Gold.PLP.Chemscore.CHOScore>
1.0000

> <Gold.PLP.Chemscore.Metal>
0.0000

> <Gold.Chemscore.Hbonds>
donor molecule, donor type, donor heavy atom, donor atom, acceptor molecule, acceptor atom, score
      L1  H     7    26       P1  7948  0.75
      L1  H    10    27       P1  7948  0.36
      P1  H  7989  7998       L1    16  0.83
      P1  H 10752 10765       L1     9  1.00
      L1  C    17    37       P1  7948  1.00

> <Gold.PLP.Chemscore.Internal.Correction>
0.0389

> <Gold.Rescore>
     Score         DG    S(hbond)    S(metal)    S(lipo)     H(rot)  DE(clash)    DE(int)     intcor
     16.35     -17.34       2.44        0.00      69.89       1.75       0.11       0.88       ----

> <Gold.Chemscore.Fitness>
16.3454

> <Gold.Chemscore.DG>
-17.3409

> <Gold.Chemscore.ZeroCoef>
-5.4800

> <Gold.Chemscore.Hbond>
2.4434

> <Gold.Chemscore.Metal>
0.0000

> <Gold.Chemscore.Lipo>
69.8868

> <Gold.Chemscore.Internal_Hbond>
0.0000

> <Gold.Chemscore.DEClash>
0.1135

> <Gold.Chemscore.DEInternal>
0.8820

> <Gold.Chemscore.Rot>
1.7487

> <Gold.Chemscore.Internal.Correction>
   9.000000E+99

> <Gold.Chemscore.Hbonds>
donor molecule, donor type, donor heavy atom, donor atom, acceptor molecule, acceptor atom, score
      L1  H     7    26       P1  7948  0.09
      L1  H    10    27       P1  7948  0.01
      P1  H  7989  7998       L1    16  0.76
      P1  H 10752 10765       L1     9  0.43

> <Gold.Chemscore.Hbond.Weighted>
-8.1610

> <Gold.Chemscore.Metal.Weighted>
-0.0000

> <Gold.Chemscore.Lipo.Weighted>
-8.1767

> <Gold.Chemscore.Internal_Hbond.Weighted>
0.0000

> <Gold.Chemscore.DEClash.Weighted>
0.1135

> <Gold.Chemscore.DEInternal.Weighted>
0.8820

> <Gold.Chemscore.Rot.Weighted>
4.4768

> <Gold.Chemscore.Internal.Correction.Weighted>
   9.000000E+99

> <Gold.Protein.RotatedTorsions>
[ 6907 6896 6895 6894 ] final   62.07 input  -60.11 | X-H torsion
[ 7974 7965 7964 7962 ] final  -56.85 input  175.53 | X-H torsion
[ 8008 7997 7996 7995 ] final   17.92 input   59.86 | X-H torsion
[ 10167 10162 10161 10158 ] final  158.05 input  -65.29 | X-H torsion
[ 10718 10713 10712 10709 ] final   12.76 input   66.30 | X-H torsion
[ 10763 10752 10751 10750 ] final -148.07 input  -60.55 | X-H torsion
[ 11005 11000 10999 10996 ] final   81.46 input  -57.11 | X-H torsion

> <Gold.Protein.ActiveResidues>
 VAL166  LYS551  ARG553  GLY616  TRP617  ASP618  TYR619  PRO620  LYS621  CYS622 
 ASP623  PHE694  ASN695  SER759  ASP760  ASP761  ALA762  ILE779  LEU786  VAL792 
 PHE793  MET794  SER795  GLU796  ALA797  LYS798  CYS799  TRP800  GLU811  SER814 

> <Gold.Protein.RotatedAtoms>
  152.4141  134.6072  160.0015 H   0  0  0  0  0  0  0  0  0  0  0  0  # atno 6907 bound_to 6896
  151.6240  133.3331  159.3102 H   0  0  0  0  0  0  0  0  0  0  0  0  # atno 6908 bound_to 6896
  150.8031  134.7177  159.6685 H   0  0  0  0  0  0  0  0  0  0  0  0  # atno 6909 bound_to 6896
  145.8579  140.8306  142.9952 H   0  0  0  0  0  0  0  0  0  0  0  0  # atno 7974 bound_to 7965
  154.8984  140.2997  155.5331 H   0  0  0  0  0  0  0  0  0  0  0  0  # atno 8008 bound_to 7997
  156.3019  140.2411  156.3943 H   0  0  0  0  0  0  0  0  0  0  0  0  # atno 8009 bound_to 7997
  154.8546  140.0408  157.1615 H   0  0  0  0  0  0  0  0  0  0  0  0  # atno 8010 bound_to 7997
  139.4825  144.4861  151.8376 H   0  0  0  0  0  0  0  0  0  0  0  0  # atno 10167 bound_to 10162
  157.0148  130.6131  149.5713 H   0  0  0  0  0  0  0  0  0  0  0  0  # atno 10718 bound_to 10713
  154.8252  135.3344  154.6917 H   0  0  0  0  0  0  0  0  0  0  0  0  # atno 10763 bound_to 10752
  153.7544  135.6937  153.4943 H   0  0  0  0  0  0  0  0  0  0  0  0  # atno 10764 bound_to 10752
  153.2154  135.4467  155.0378 H   0  0  0  0  0  0  0  0  0  0  0  0  # atno 10765 bound_to 10752
  139.9097  134.7998  156.2045 H   0  0  0  0  0  0  0  0  0  0  0  0  # atno 11005 bound_to 11000
  144.6727  140.1051  143.7458 LP  0  0  0  0  0  0  0  0  0  0  0  0  # atno 17320 bound_to 7965
  145.9282  139.2589  143.1341 LP  0  0  0  0  0  0  0  0  0  0  0  0  # atno 17321 bound_to 7965
  140.4341  144.2076  150.5889 LP  0  0  0  0  0  0  0  0  0  0  0  0  # atno 17342 bound_to 10162
  140.4750  143.2399  151.9036 LP  0  0  0  0  0  0  0  0  0  0  0  0  # atno 17343 bound_to 10162
  156.0123  130.5215  150.8027 LP  0  0  0  0  0  0  0  0  0  0  0  0  # atno 17370 bound_to 10713
  157.5293  131.0936  150.9975 LP  0  0  0  0  0  0  0  0  0  0  0  0  # atno 17371 bound_to 10713
  141.0504  133.6891  156.1761 LP  0  0  0  0  0  0  0  0  0  0  0  0  # atno 17394 bound_to 11000
  140.6819  134.4758  157.5589 LP  0  0  0  0  0  0  0  0  0  0  0  0  # atno 17395 bound_to 11000

$$$$
