AV-unprocessed.smi:2229|AV-procd|sdf|9029|dock5
  -GOLD-   2272012233D 1   1.00000     0.00000
 Structure written by MMmdl.
 44 45  0  0  0  0  0  0  0  0  1 V2000
  150.8530  145.2465  159.7637 C   0  0  0  0  0  0  0  0  0  0  0  0
  152.2276  144.5934  159.5545 C   0  0  0  0  0  0  0  0  0  0  0  0
  152.6739  144.7387  158.0895 C   0  0  0  0  0  0  0  0  0  0  0  0
  152.2110  143.1254  160.0300 C   0  0  0  0  0  0  0  0  0  0  0  0
  153.5505  142.3957  159.8315 C   0  0  0  0  0  0  0  0  0  0  0  0
  153.6311  141.0242  160.5428 C   0  0  2  0  0  0  0  0  0  0  0  0
  155.0616  140.5225  160.7705 C   0  0  0  0  0  0  0  0  0  0  0  0
  154.8978  139.0276  161.0242 C   0  0  0  0  0  0  0  0  0  0  0  0
  153.7802  138.5968  160.0733 C   0  0  0  0  0  0  0  0  0  0  0  0
  152.9124  139.8494  159.8294 C   0  0  2  0  0  0  0  0  0  0  0  0
  152.7474  140.1141  158.4043 N   0  0  0  0  0  0  0  0  0  0  0  0
  151.6526  139.8843  157.6635 C   0  0  0  0  0  0  0  0  0  0  0  0
  150.6460  139.3363  158.1098 O   0  0  0  0  0  0  0  0  0  0  0  0
  151.6704  140.3619  156.2007 C   0  0  0  0  0  0  0  0  0  0  0  0
  152.0131  139.3200  155.2250 N   0  0  0  0  0  0  0  0  0  0  0  0
  153.1833  138.5910  155.2778 C   0  0  0  0  0  0  0  0  0  0  0  0
  153.2300  137.6872  154.3594 N   0  0  0  0  0  0  0  0  0  0  0  0
  152.0520  137.8627  153.7144 N   0  0  0  0  0  0  0  0  0  0  0  0
  151.2926  138.8382  154.2157 C   0  0  0  0  0  0  0  0  0  0  0  0
  150.1754  139.1900  153.8425 O   0  0  0  0  0  0  0  0  0  0  0  0
  151.8229  137.2645  152.9335 H   0  0  0  0  0  0  0  0  0  0  0  0
  150.0853  144.7538  159.1661 H   0  0  0  0  0  0  0  0  0  0  0  0
  150.8702  146.2994  159.4808 H   0  0  0  0  0  0  0  0  0  0  0  0
  150.5460  145.1948  160.8087 H   0  0  0  0  0  0  0  0  0  0  0  0
  152.9407  145.1395  160.1735 H   0  0  0  0  0  0  0  0  0  0  0  0
  152.0324  144.1636  157.4212 H   0  0  0  0  0  0  0  0  0  0  0  0
  153.6997  144.4011  157.9437 H   0  0  0  0  0  0  0  0  0  0  0  0
  152.6348  145.7806  157.7708 H   0  0  0  0  0  0  0  0  0  0  0  0
  151.9578  143.1100  161.0905 H   0  0  0  0  0  0  0  0  0  0  0  0
  151.4158  142.5789  159.5213 H   0  0  0  0  0  0  0  0  0  0  0  0
  153.7115  142.2408  158.7646 H   0  0  0  0  0  0  0  0  0  0  0  0
  154.3607  143.0402  160.1758 H   0  0  0  0  0  0  0  0  0  0  0  0
  153.1647  141.1280  161.5241 H   0  0  0  0  0  0  0  0  0  0  0  0
  155.6626  140.6786  159.8733 H   0  0  0  0  0  0  0  0  0  0  0  0
  155.5592  141.0280  161.5984 H   0  0  0  0  0  0  0  0  0  0  0  0
  155.8215  138.4706  160.8649 H   0  0  0  0  0  0  0  0  0  0  0  0
  154.5851  138.8644  162.0563 H   0  0  0  0  0  0  0  0  0  0  0  0
  154.2219  138.2432  159.1400 H   0  0  0  0  0  0  0  0  0  0  0  0
  153.1983  137.7710  160.4835 H   0  0  0  0  0  0  0  0  0  0  0  0
  151.9253  139.7172  160.2765 H   0  0  0  0  0  0  0  0  0  0  0  0
  153.5289  140.5584  157.9449 H   0  0  0  0  0  0  0  0  0  0  0  0
  150.6859  140.7661  155.9604 H   0  0  0  0  0  0  0  0  0  0  0  0
  152.3698  141.1951  156.1133 H   0  0  0  0  0  0  0  0  0  0  0  0
  153.9249  138.8158  156.0463 H   0  0  0  0  0  0  0  0  0  0  0  0
  1  2  1  0  0  0  0
  1 22  1  0  0  0  0
  1 23  1  0  0  0  0
  1 24  1  0  0  0  0
  2  3  1  0  0  0  0
  2  4  1  0  0  0  0
  2 25  1  0  0  0  0
  3 26  1  0  0  0  0
  3 27  1  0  0  0  0
  3 28  1  0  0  0  0
  4  5  1  0  0  0  0
  4 29  1  0  0  0  0
  4 30  1  0  0  0  0
  5  6  1  0  0  0  0
  5 31  1  0  0  0  0
  5 32  1  0  0  0  0
  6 10  1  0  0  0  0
  6  7  1  0  0  0  0
  6 33  1  0  0  0  0
  7  8  1  0  0  0  0
  7 34  1  0  0  0  0
  7 35  1  0  0  0  0
  8  9  1  0  0  0  0
  8 36  1  0  0  0  0
  8 37  1  0  0  0  0
  9 10  1  0  0  0  0
  9 38  1  0  0  0  0
  9 39  1  0  0  0  0
 10 11  1  0  0  0  0
 10 40  1  0  0  0  0
 11 12  1  0  0  0  0
 11 41  1  0  0  0  0
 12 13  2  0  0  0  0
 12 14  1  0  0  0  0
 14 15  1  0  0  0  0
 14 42  1  0  0  0  0
 14 43  1  0  0  0  0
 15 19  1  0  0  0  0
 15 16  1  0  0  0  0
 16 17  2  0  0  0  0
 16 44  1  0  0  0  0
 17 18  1  0  0  0  0
 18 21  1  0  0  0  0
 18 19  1  0  0  0  0
 19 20  2  0  0  0  0
M  END
> <s_m_source_file>
AV-unprocessed.smi

> <i_m_source_file_index>
2229

> <i_lp_mmshare_version>
43012

> <i_f3d_flags>
0

> <s_epik_input>
W0NIM11bQ0hdKFtDSDNdKVtDSDJdW0NIMl1bQ0BASF0xW0NIMl1bQ0gyXVtDSDJdW0NASF0xW05IXUMoPU8pW0NIMl1uMltjSF1uW25IXWMyPU8=

> <s_epik_cmdline>
J2VwaWtfcHl0aG9uJywgJy1waCcsICc3LjAnLCAnLXRuJywgJzgnLCAnLW1hJywgJzIwMCcsICctbWV0YWxfYmluZGluZycsICctaW1hZScsICc8aW5maWxlLm1hZT4nLCAnLW9tYWUnLCAnPG91dGZpbGUubWFlPic=

> <r_lp_tautomer_probability>
1

> <r_epik_Ionization_Penalty>
4.14174e-05

> <r_epik_Ionization_Penalty_Charging>
4.13165e-05

> <r_epik_Ionization_Penalty_Neutral>
1.00911e-07

> <r_epik_State_Penalty>
-0

> <r_epik_Charging_Adjusted_Penalty>
4.13165e-05

> <i_epik_Tot_Q>
0

> <i_epik_Tot_abs_Q>
0

> <r_epik_Metal_State_Penalty>
0.0399369

> <b_epik_Metal_Only>
0

> <s_lp_Force_Field>
OPLS_2005

> <r_lp_Energy>
36.2175

> <b_lp_Chiralities_Consistent>
1

> <s_lp_Variant>
AV-unprocessed.smi:2229-3

> <Gold.Version>
5.8.1

> <Gold.Id.Protein>
6NUR|6NUR_protein|mol2

> <Gold.PLP.Fitness>
50.5820

> <Gold.PLP.PLP>
-47.1515

> <Gold.PLP.part.hbond>
-2.0000

> <Gold.PLP.part.metal>
0.0000

> <Gold.PLP.part.buried>
-6.7781

> <Gold.PLP.part.nonpolar>
-39.6083

> <Gold.PLP.part.repulsive>
0.9049

> <Gold.PLP.ligand.clash>
0.0000

> <Gold.PLP.ligand.torsion>
0.7581

> <Gold.PLP.Chemscore.Hbond>
1.6240

> <Gold.PLP.Chemscore.CHOScore>
0.0000

> <Gold.PLP.Chemscore.Metal>
0.0000

> <Gold.Chemscore.Hbonds>
donor molecule, donor type, donor heavy atom, donor atom, acceptor molecule, acceptor atom, score
      L1  H    18    21       P1  7949  1.00
      P1  H 10752 10764       L1    17  0.11

> <Gold.PLP.Chemscore.Internal.Correction>
0.0747

> <Gold.Rescore>
     Score         DG    S(hbond)    S(metal)    S(lipo)     H(rot)  DE(clash)    DE(int)     intcor
     13.21     -14.15       0.97        0.00     104.22       2.64       0.05       0.90       ----

> <Gold.Chemscore.Fitness>
13.2068

> <Gold.Chemscore.DG>
-14.1546

> <Gold.Chemscore.ZeroCoef>
-5.4800

> <Gold.Chemscore.Hbond>
0.9674

> <Gold.Chemscore.Metal>
0.0000

> <Gold.Chemscore.Lipo>
104.2187

> <Gold.Chemscore.Internal_Hbond>
0.0000

> <Gold.Chemscore.DEClash>
0.0474

> <Gold.Chemscore.DEInternal>
0.9004

> <Gold.Chemscore.Rot>
2.6368

> <Gold.Chemscore.Internal.Correction>
   9.000000E+99

> <Gold.Chemscore.Hbonds>
donor molecule, donor type, donor heavy atom, donor atom, acceptor molecule, acceptor atom, score
      L1  H    18    21       P1  7949  0.93

> <Gold.Chemscore.Hbond.Weighted>
-3.2311

> <Gold.Chemscore.Metal.Weighted>
-0.0000

> <Gold.Chemscore.Lipo.Weighted>
-12.1936

> <Gold.Chemscore.Internal_Hbond.Weighted>
0.0000

> <Gold.Chemscore.DEClash.Weighted>
0.0474

> <Gold.Chemscore.DEInternal.Weighted>
0.9004

> <Gold.Chemscore.Rot.Weighted>
6.7501

> <Gold.Chemscore.Internal.Correction.Weighted>
   9.000000E+99

> <Gold.Protein.RotatedTorsions>
[ 6907 6896 6895 6894 ] final   62.43 input  -60.11 | X-H torsion
[ 7974 7965 7964 7962 ] final   65.83 input  175.53 | X-H torsion
[ 8008 7997 7996 7995 ] final   66.17 input   59.86 | X-H torsion
[ 10167 10162 10161 10158 ] final  159.91 input  -65.29 | X-H torsion
[ 10718 10713 10712 10709 ] final  159.65 input   66.30 | X-H torsion
[ 10763 10752 10751 10750 ] final  -85.84 input  -60.55 | X-H torsion
[ 11005 11000 10999 10996 ] final  -78.89 input  -57.11 | X-H torsion

> <Gold.Protein.ActiveResidues>
 VAL166  LYS551  ARG553  GLY616  TRP617  ASP618  TYR619  PRO620  LYS621  CYS622 
 ASP623  PHE694  ASN695  SER759  ASP760  ASP761  ALA762  ILE779  LEU786  VAL792 
 PHE793  MET794  SER795  GLU796  ALA797  LYS798  CYS799  TRP800  GLU811  SER814 

> <Gold.Protein.RotatedAtoms>
  152.4171  134.6022  160.0002 H   0  0  0  0  0  0  0  0  0  0  0  0  # atno 6907 bound_to 6896
  151.6182  133.3335  159.3090 H   0  0  0  0  0  0  0  0  0  0  0  0  # atno 6908 bound_to 6896
  150.8059  134.7223  159.6710 H   0  0  0  0  0  0  0  0  0  0  0  0  # atno 6909 bound_to 6896
  145.8338  139.3155  143.0972 H   0  0  0  0  0  0  0  0  0  0  0  0  # atno 7974 bound_to 7965
  155.6732  140.3497  155.4826 H   0  0  0  0  0  0  0  0  0  0  0  0  # atno 8008 bound_to 7997
  155.9671  140.1148  157.0868 H   0  0  0  0  0  0  0  0  0  0  0  0  # atno 8009 bound_to 7997
  154.4157  140.1164  156.5242 H   0  0  0  0  0  0  0  0  0  0  0  0  # atno 8010 bound_to 7997
  139.4836  144.4685  151.8609 H   0  0  0  0  0  0  0  0  0  0  0  0  # atno 10167 bound_to 10162
  157.1613  131.0588  151.2230 H   0  0  0  0  0  0  0  0  0  0  0  0  # atno 10718 bound_to 10713
  154.6157  135.5470  153.7520 H   0  0  0  0  0  0  0  0  0  0  0  0  # atno 10763 bound_to 10752
  153.0215  135.6400  154.1514 H   0  0  0  0  0  0  0  0  0  0  0  0  # atno 10764 bound_to 10752
  154.1450  135.2906  155.3130 H   0  0  0  0  0  0  0  0  0  0  0  0  # atno 10765 bound_to 10752
  141.1666  133.7082  156.8039 H   0  0  0  0  0  0  0  0  0  0  0  0  # atno 11005 bound_to 11000
  145.9541  140.8886  143.0244 LP  0  0  0  0  0  0  0  0  0  0  0  0  # atno 17320 bound_to 7965
  144.6738  140.1721  143.7413 LP  0  0  0  0  0  0  0  0  0  0  0  0  # atno 17321 bound_to 7965
  140.4152  144.2317  150.5888 LP  0  0  0  0  0  0  0  0  0  0  0  0  # atno 17342 bound_to 10162
  140.4928  143.2342  151.8794 LP  0  0  0  0  0  0  0  0  0  0  0  0  # atno 17343 bound_to 10162
  157.4130  130.7395  149.6853 LP  0  0  0  0  0  0  0  0  0  0  0  0  # atno 17370 bound_to 10713
  155.9753  130.4090  150.3857 LP  0  0  0  0  0  0  0  0  0  0  0  0  # atno 17371 bound_to 10713
  140.2236  134.8738  157.3403 LP  0  0  0  0  0  0  0  0  0  0  0  0  # atno 17394 bound_to 11000
  140.1962  134.4310  155.7688 LP  0  0  0  0  0  0  0  0  0  0  0  0  # atno 17395 bound_to 11000

$$$$
