AV-unprocessed.smi:21|AV-procd|sdf|133|dock2
  -GOLD-   2262015323D 1   1.00000     0.00000
 Structure written by MMmdl.
 62 65  0  0  0  0  0  0  0  0  2 V2000
  145.4031  132.0732  149.5538 C   0  0  0  0  0  0  0  0  0  0  0  0
  145.9822  132.0814  150.8485 O   0  0  0  0  0  0  0  0  0  0  0  0
  145.5953  133.2006  151.6314 C   0  0  1  0  0  0  0  0  0  0  0  0
  146.3687  133.2303  152.9425 C   0  0  0  0  0  0  0  0  0  0  0  0
  146.2625  134.6979  153.3627 C   0  0  1  0  0  0  0  0  0  0  0  0
  147.3696  135.1402  154.3458 C   0  0  0  0  0  0  0  0  0  0  0  0
  147.2390  136.5262  154.7940 N   0  0  0  0  0  0  0  0  0  0  0  0
  145.9479  136.9257  155.3342 C   0  0  0  0  0  0  0  0  0  0  0  0
  148.2724  137.0780  155.4722 C   0  0  0  0  0  0  0  0  0  0  0  0
  148.7754  136.3659  156.5111 N   0  0  0  0  0  0  0  0  0  0  0  0
  149.7692  136.8674  157.2501 C   0  0  0  0  0  0  0  0  0  0  0  0
  150.3906  138.0420  157.1256 N   0  0  0  0  0  0  0  0  0  0  0  0
  149.8997  138.7533  156.0710 C   0  0  0  0  0  0  0  0  0  0  0  0
  148.8554  138.3481  155.1928 C   0  0  0  0  0  0  0  0  0  0  0  0
  148.6339  139.3346  154.2377 N   0  0  0  0  0  0  0  0  0  0  0  0
  149.4866  140.2741  154.5425 C   0  0  0  0  0  0  0  0  0  0  0  0
  150.2723  140.0148  155.6417 N   0  0  0  0  0  0  0  0  0  0  0  0
  151.2737  140.8958  156.2147 C   0  0  0  0  0  0  0  0  0  0  0  0
  150.6902  142.2172  156.7837 C   0  0  1  0  0  0  0  0  0  0  0  0
  149.4206  141.9855  157.6444 C   0  0  0  0  0  0  0  0  0  0  0  0
  148.2387  142.0286  156.8704 O   0  0  0  0  0  0  0  0  0  0  0  0
  151.7731  142.9829  157.5881 C   0  0  1  0  0  0  0  0  0  0  0  0
  151.3227  144.3161  158.1628 C   0  0  0  0  0  0  0  0  0  0  0  0
  152.3692  144.5719  159.2390 C   0  0  0  0  0  0  0  0  0  0  0  0
  152.6722  143.2898  159.7715 O   0  0  0  0  0  0  0  0  0  0  0  0
  152.2529  142.2743  158.8637 C   0  0  0  0  0  0  0  0  0  0  0  0
  146.3162  135.4649  152.0966 N   0  3  2  0  0  0  0  0  0  0  0  0
  145.5266  136.7159  152.1159 C   0  0  0  0  0  0  0  0  0  0  0  0
  145.9584  134.5466  150.9890 C   0  0  0  0  0  0  0  0  0  0  0  0
  144.5274  133.1674  151.8578 H   0  0  0  0  0  0  0  0  0  0  0  0
  145.2724  134.8492  153.7953 H   0  0  0  0  0  0  0  0  0  0  0  0
  145.7316  131.1852  149.0139 H   0  0  0  0  0  0  0  0  0  0  0  0
  145.7030  132.9469  148.9740 H   0  0  0  0  0  0  0  0  0  0  0  0
  144.3140  132.0469  149.6093 H   0  0  0  0  0  0  0  0  0  0  0  0
  145.9641  132.5446  153.6876 H   0  0  0  0  0  0  0  0  0  0  0  0
  147.4117  132.9610  152.7674 H   0  0  0  0  0  0  0  0  0  0  0  0
  147.3468  134.4925  155.2231 H   0  0  0  0  0  0  0  0  0  0  0  0
  148.3548  134.9988  153.9022 H   0  0  0  0  0  0  0  0  0  0  0  0
  145.8581  138.0120  155.3766 H   0  0  0  0  0  0  0  0  0  0  0  0
  145.8137  136.5294  156.3415 H   0  0  0  0  0  0  0  0  0  0  0  0
  145.1376  136.5495  154.7091 H   0  0  0  0  0  0  0  0  0  0  0  0
  150.1098  136.2413  158.0619 H   0  0  0  0  0  0  0  0  0  0  0  0
  149.5563  141.1948  153.9814 H   0  0  0  0  0  0  0  0  0  0  0  0
  151.8081  140.3551  156.9966 H   0  0  0  0  0  0  0  0  0  0  0  0
  152.0032  141.1021  155.4317 H   0  0  0  0  0  0  0  0  0  0  0  0
  150.4099  142.8512  155.9409 H   0  0  0  0  0  0  0  0  0  0  0  0
  149.4784  141.0327  158.1715 H   0  0  0  0  0  0  0  0  0  0  0  0
  149.3125  142.7566  158.4059 H   0  0  0  0  0  0  0  0  0  0  0  0
  148.3240  142.7280  156.2408 H   0  0  0  0  0  0  0  0  0  0  0  0
  152.6379  143.1640  156.9473 H   0  0  0  0  0  0  0  0  0  0  0  0
  151.2893  145.1164  157.4230 H   0  0  0  0  0  0  0  0  0  0  0  0
  150.3343  144.2245  158.6162 H   0  0  0  0  0  0  0  0  0  0  0  0
  153.2741  144.9918  158.7980 H   0  0  0  0  0  0  0  0  0  0  0  0
  152.0187  145.2553  160.0129 H   0  0  0  0  0  0  0  0  0  0  0  0
  151.4400  141.7172  159.3312 H   0  0  0  0  0  0  0  0  0  0  0  0
  153.0678  141.5769  158.6673 H   0  0  0  0  0  0  0  0  0  0  0  0
  144.4639  136.5095  152.2510 H   0  0  0  0  0  0  0  0  0  0  0  0
  145.6535  137.2604  151.1798 H   0  0  0  0  0  0  0  0  0  0  0  0
  145.8543  137.3653  152.9279 H   0  0  0  0  0  0  0  0  0  0  0  0
  146.8373  134.4398  150.3523 H   0  0  0  0  0  0  0  0  0  0  0  0
  145.1467  134.9255  150.3661 H   0  0  0  0  0  0  0  0  0  0  0  0
  147.2825  135.7203  151.9498 H   0  0  0  0  0  0  0  0  0  0  0  0
  1  2  1  0  0  0  0
  1 32  1  0  0  0  0
  1 33  1  0  0  0  0
  1 34  1  0  0  0  0
  2  3  1  0  0  0  0
  3 30  1  0  0  0  0
  3 29  1  0  0  0  0
  3  4  1  0  0  0  0
  4  5  1  0  0  0  0
  4 35  1  0  0  0  0
  4 36  1  0  0  0  0
  5 31  1  0  0  0  0
  5  6  1  0  0  0  0
  5 27  1  0  0  0  0
  6  7  1  0  0  0  0
  6 37  1  0  0  0  0
  6 38  1  0  0  0  0
  7  8  1  0  0  0  0
  7  9  1  0  0  0  0
  8 39  1  0  0  0  0
  8 40  1  0  0  0  0
  8 41  1  0  0  0  0
  9 14  1  0  0  0  0
  9 10  2  0  0  0  0
 10 11  1  0  0  0  0
 11 12  2  0  0  0  0
 11 42  1  0  0  0  0
 12 13  1  0  0  0  0
 13 17  1  0  0  0  0
 13 14  2  0  0  0  0
 14 15  1  0  0  0  0
 15 16  2  0  0  0  0
 16 17  1  0  0  0  0
 16 43  1  0  0  0  0
 17 18  1  0  0  0  0
 18 19  1  0  0  0  0
 18 44  1  0  0  0  0
 18 45  1  0  0  0  0
 19 20  1  0  0  0  0
 19 22  1  0  0  0  0
 19 46  1  0  0  0  0
 20 21  1  0  0  0  0
 20 47  1  0  0  0  0
 20 48  1  0  0  0  0
 21 49  1  0  0  0  0
 22 26  1  0  0  0  0
 22 23  1  0  0  0  0
 22 50  1  0  0  0  0
 23 24  1  0  0  0  0
 23 51  1  0  0  0  0
 23 52  1  0  0  0  0
 24 25  1  0  0  0  0
 24 53  1  0  0  0  0
 24 54  1  0  0  0  0
 25 26  1  0  0  0  0
 26 55  1  0  0  0  0
 26 56  1  0  0  0  0
 27 28  1  0  0  0  0
 27 29  1  0  0  0  0
 27 62  1  0  0  0  0
 28 57  1  0  0  0  0
 28 58  1  0  0  0  0
 28 59  1  0  0  0  0
 29 60  1  0  0  0  0
 29 61  1  0  0  0  0
M  CHG  1  27   1
M  END
> <s_m_source_file>
AV-unprocessed.smi

> <i_m_source_file_index>
21

> <i_lp_mmshare_version>
43012

> <i_f3d_flags>
0

> <s_epik_input>
W0NIM11PW0NASF0xW0NIMl1bQ0BIXShOKFtDSDNdKVtDSDJdMSlbQ0gyXU4oW0NIM10pYyhuW2NIXW4yKWMoYzIzKW5bY0hdbjNbQ0gyXVtDQEhdKFtDSDJdW09IXSlbQ0BASF00W0NIMl1bQ0gyXU9bQ0gyXTQ=

> <s_epik_cmdline>
J2VwaWtfcHl0aG9uJywgJy1waCcsICc3LjAnLCAnLXRuJywgJzgnLCAnLW1hJywgJzIwMCcsICctbWV0YWxfYmluZGluZycsICctaW1hZScsICc8aW5maWxlLm1hZT4nLCAnLW9tYWUnLCAnPG91dGZpbGUubWFlPic=

> <r_lp_tautomer_probability>
1

> <r_epik_Ionization_Penalty>
0.0157465

> <r_epik_Ionization_Penalty_Charging>
0.015354

> <r_epik_Ionization_Penalty_Neutral>
0.000392529

> <r_epik_State_Penalty>
0.0120612

> <r_epik_Charging_Adjusted_Penalty>
0.0274152

> <i_epik_Tot_Q>
1

> <i_epik_Tot_abs_Q>
1

> <r_epik_Metal_State_Penalty>
0.0121253

> <b_epik_Metal_Only>
0

> <s_lp_Force_Field>
OPLS_2005

> <r_lp_Energy>
58.1484

> <b_lp_Chiralities_Consistent>
1

> <s_lp_Variant>
AV-unprocessed.smi:21-13

> <Gold.Version>
5.8.1

> <Gold.Id.Protein>
6NUR|6NUR_protein|mol2

> <Gold.PLP.Fitness>
48.1611

> <Gold.PLP.PLP>
-40.5856

> <Gold.PLP.part.hbond>
-2.0000

> <Gold.PLP.part.metal>
0.0000

> <Gold.PLP.part.buried>
-5.8316

> <Gold.PLP.part.nonpolar>
-33.4422

> <Gold.PLP.part.repulsive>
0.4241

> <Gold.PLP.ligand.clash>
0.0000

> <Gold.PLP.ligand.torsion>
1.0603

> <Gold.PLP.Chemscore.Hbond>
3.0000

> <Gold.PLP.Chemscore.CHOScore>
0.0000

> <Gold.PLP.Chemscore.Metal>
0.0000

> <Gold.Chemscore.Hbonds>
donor molecule, donor type, donor heavy atom, donor atom, acceptor molecule, acceptor atom, score
      L1  H    21    49       P1  8028  0.73
      L1  H    27    62       P1  7948  2.00

> <Gold.PLP.Chemscore.Internal.Correction>
0.6962

> <Gold.Rescore>
     Score         DG    S(hbond)    S(metal)    S(lipo)     H(rot)  DE(clash)    DE(int)     intcor
     14.14     -15.62       1.94        0.00     104.43       3.35       0.22       1.27       ----

> <Gold.Chemscore.Fitness>
14.1407

> <Gold.Chemscore.DG>
-15.6245

> <Gold.Chemscore.ZeroCoef>
-5.4800

> <Gold.Chemscore.Hbond>
1.9430

> <Gold.Chemscore.Metal>
0.0000

> <Gold.Chemscore.Lipo>
104.4307

> <Gold.Chemscore.Internal_Hbond>
0.0000

> <Gold.Chemscore.DEClash>
0.2187

> <Gold.Chemscore.DEInternal>
1.2650

> <Gold.Chemscore.Rot>
3.3452

> <Gold.Chemscore.Internal.Correction>
   9.000000E+99

> <Gold.Chemscore.Hbonds>
donor molecule, donor type, donor heavy atom, donor atom, acceptor molecule, acceptor atom, score
      L1  H    21    49       P1  8028  0.62
      L1  H    27    62       P1  7948  1.00

> <Gold.Chemscore.Hbond.Weighted>
-6.4898

> <Gold.Chemscore.Metal.Weighted>
-0.0000

> <Gold.Chemscore.Lipo.Weighted>
-12.2184

> <Gold.Chemscore.Internal_Hbond.Weighted>
0.0000

> <Gold.Chemscore.DEClash.Weighted>
0.2187

> <Gold.Chemscore.DEInternal.Weighted>
1.2650

> <Gold.Chemscore.Rot.Weighted>
8.5636

> <Gold.Chemscore.Internal.Correction.Weighted>
   9.000000E+99

> <Gold.Protein.RotatedTorsions>
[ 6907 6896 6895 6894 ] final -131.79 input  -60.11 | X-H torsion
[ 7974 7965 7964 7962 ] final  -31.65 input  175.53 | X-H torsion
[ 8008 7997 7996 7995 ] final   94.41 input   59.86 | X-H torsion
[ 10167 10162 10161 10158 ] final   37.05 input  -65.29 | X-H torsion
[ 10718 10713 10712 10709 ] final   63.15 input   66.30 | X-H torsion
[ 10763 10752 10751 10750 ] final  -43.55 input  -60.55 | X-H torsion
[ 11005 11000 10999 10996 ] final  147.47 input  -57.11 | X-H torsion

> <Gold.Protein.ActiveResidues>
 VAL166  LYS551  ARG553  GLY616  TRP617  ASP618  TYR619  PRO620  LYS621  CYS622 
 ASP623  PHE694  ASN695  SER759  ASP760  ASP761  ALA762  ILE779  LEU786  VAL792 
 PHE793  MET794  SER795  GLU796  ALA797  LYS798  CYS799  TRP800  GLU811  SER814 

> <Gold.Protein.RotatedAtoms>
  150.9550  133.6508  159.2764 H   0  0  0  0  0  0  0  0  0  0  0  0  # atno 6907 bound_to 6896
  151.3851  135.0945  159.9518 H   0  0  0  0  0  0  0  0  0  0  0  0  # atno 6908 bound_to 6896
  152.5125  133.9076  159.7526 H   0  0  0  0  0  0  0  0  0  0  0  0  # atno 6909 bound_to 6896
  146.1051  140.5694  142.8803 H   0  0  0  0  0  0  0  0  0  0  0  0  # atno 7974 bound_to 7965
  156.0576  140.3300  155.7424 H   0  0  0  0  0  0  0  0  0  0  0  0  # atno 8008 bound_to 7997
  155.5504  140.0610  157.2868 H   0  0  0  0  0  0  0  0  0  0  0  0  # atno 8009 bound_to 7997
  154.4466  140.1895  156.0669 H   0  0  0  0  0  0  0  0  0  0  0  0  # atno 8010 bound_to 7997
  140.4070  144.1646  150.6137 H   0  0  0  0  0  0  0  0  0  0  0  0  # atno 10167 bound_to 10162
  157.5951  130.9089  149.9679 H   0  0  0  0  0  0  0  0  0  0  0  0  # atno 10718 bound_to 10713
  153.9974  135.6698  153.4757 H   0  0  0  0  0  0  0  0  0  0  0  0  # atno 10763 bound_to 10752
  153.0678  135.4991  154.8234 H   0  0  0  0  0  0  0  0  0  0  0  0  # atno 10764 bound_to 10752
  154.7073  135.3090  154.9213 H   0  0  0  0  0  0  0  0  0  0  0  0  # atno 10765 bound_to 10752
  140.0878  134.9059  157.1603 H   0  0  0  0  0  0  0  0  0  0  0  0  # atno 11005 bound_to 11000
  144.7464  140.5079  143.6833 LP  0  0  0  0  0  0  0  0  0  0  0  0  # atno 17320 bound_to 7965
  145.5777  139.1487  143.3253 LP  0  0  0  0  0  0  0  0  0  0  0  0  # atno 17321 bound_to 7965
  140.4679  143.2424  151.9129 LP  0  0  0  0  0  0  0  0  0  0  0  0  # atno 17342 bound_to 10162
  139.4783  144.5400  151.8542 LP  0  0  0  0  0  0  0  0  0  0  0  0  # atno 17343 bound_to 10162
  156.1012  130.3655  150.0214 LP  0  0  0  0  0  0  0  0  0  0  0  0  # atno 17370 bound_to 10713
  156.8329  130.9399  151.3636 LP  0  0  0  0  0  0  0  0  0  0  0  0  # atno 17371 bound_to 10713
  140.3395  134.2720  155.7214 LP  0  0  0  0  0  0  0  0  0  0  0  0  # atno 17394 bound_to 11000
  141.2068  133.7823  157.0155 LP  0  0  0  0  0  0  0  0  0  0  0  0  # atno 17395 bound_to 11000

$$$$
