AV-unprocessed.smi:2392|AV-procd|sdf|9487|dock2
  -GOLD-   2272013113D 1   1.00000     0.00000
 Structure written by MMmdl.
 42 43  0  0  0  0  0  0  0  0  2 V2000
  153.7041  141.2146  159.7825 C   0  0  0  0  0  0  0  0  0  0  0  0
  152.8906  142.3720  159.2431 C   0  0  0  0  0  0  0  0  0  0  0  0
  153.0084  143.6613  159.7984 C   0  0  0  0  0  0  0  0  0  0  0  0
  152.2205  144.6916  159.2546 C   0  0  0  0  0  0  0  0  0  0  0  0
  151.3521  144.3920  158.1871 C   0  0  0  0  0  0  0  0  0  0  0  0
  151.2932  143.0712  157.6891 C   0  0  0  0  0  0  0  0  0  0  0  0
  150.3825  142.8714  156.6176 N   0  0  0  0  0  0  0  0  0  0  0  0
  150.1194  141.7322  155.9536 C   0  0  0  0  0  0  0  0  0  0  0  0
  150.6677  140.6471  156.1498 O   0  0  0  0  0  0  0  0  0  0  0  0
  149.1714  141.9182  155.0236 N   0  0  0  0  0  0  0  0  0  0  0  0
  148.6564  140.8768  154.1425 C   0  0  0  0  0  0  0  0  0  0  0  0
  147.2334  141.2055  153.6527 C   0  0  0  0  0  0  0  0  0  0  0  0
  146.4810  139.9889  153.2573 N   0  3  0  0  0  0  0  0  0  0  0  0
  147.1089  139.2859  152.1081 C   0  0  0  0  0  0  0  0  0  0  0  0
  146.2351  138.1145  151.6284 C   0  0  0  0  0  0  0  0  0  0  0  0
  145.9532  137.1344  152.7743 C   0  0  0  0  0  0  0  0  0  0  0  0
  145.3406  137.8834  153.9649 C   0  0  0  0  0  0  0  0  0  0  0  0
  146.2318  139.0615  154.3941 C   0  0  0  0  0  0  0  0  0  0  0  0
  152.0583  142.0846  158.2191 N   0  0  0  0  0  0  0  0  0  0  0  0
  154.4823  141.5622  160.4627 H   0  0  0  0  0  0  0  0  0  0  0  0
  154.1844  140.6711  158.9681 H   0  0  0  0  0  0  0  0  0  0  0  0
  153.0600  140.5221  160.3251 H   0  0  0  0  0  0  0  0  0  0  0  0
  153.6825  143.8580  160.6191 H   0  0  0  0  0  0  0  0  0  0  0  0
  152.2794  145.6947  159.6503 H   0  0  0  0  0  0  0  0  0  0  0  0
  150.7385  145.1719  157.7594 H   0  0  0  0  0  0  0  0  0  0  0  0
  149.8627  143.6883  156.3335 H   0  0  0  0  0  0  0  0  0  0  0  0
  148.7724  142.8405  154.9262 H   0  0  0  0  0  0  0  0  0  0  0  0
  149.3460  140.7395  153.3091 H   0  0  0  0  0  0  0  0  0  0  0  0
  148.6506  139.9377  154.6965 H   0  0  0  0  0  0  0  0  0  0  0  0
  146.7081  141.7086  154.4659 H   0  0  0  0  0  0  0  0  0  0  0  0
  147.2530  141.9098  152.8197 H   0  0  0  0  0  0  0  0  0  0  0  0
  147.2531  139.9830  151.2817 H   0  0  0  0  0  0  0  0  0  0  0  0
  148.0983  138.9266  152.3966 H   0  0  0  0  0  0  0  0  0  0  0  0
  145.2934  138.4977  151.2334 H   0  0  0  0  0  0  0  0  0  0  0  0
  146.7266  137.5944  150.8057 H   0  0  0  0  0  0  0  0  0  0  0  0
  145.2816  136.3436  152.4389 H   0  0  0  0  0  0  0  0  0  0  0  0
  146.8806  136.6490  153.0810 H   0  0  0  0  0  0  0  0  0  0  0  0
  144.3498  138.2521  153.6962 H   0  0  0  0  0  0  0  0  0  0  0  0
  145.1995  137.1986  154.8018 H   0  0  0  0  0  0  0  0  0  0  0  0
  147.1837  138.6898  154.7768 H   0  0  0  0  0  0  0  0  0  0  0  0
  145.7481  139.5881  155.2160 H   0  0  0  0  0  0  0  0  0  0  0  0
  145.5791  140.3058  152.9313 H   0  0  0  0  0  0  0  0  0  0  0  0
  1  2  1  0  0  0  0
  1 20  1  0  0  0  0
  1 21  1  0  0  0  0
  1 22  1  0  0  0  0
  2 19  1  0  0  0  0
  2  3  2  0  0  0  0
  3  4  1  0  0  0  0
  3 23  1  0  0  0  0
  4  5  2  0  0  0  0
  4 24  1  0  0  0  0
  5  6  1  0  0  0  0
  5 25  1  0  0  0  0
  6  7  1  0  0  0  0
  6 19  2  0  0  0  0
  7  8  1  0  0  0  0
  7 26  1  0  0  0  0
  8  9  2  0  0  0  0
  8 10  1  0  0  0  0
 10 11  1  0  0  0  0
 10 27  1  0  0  0  0
 11 12  1  0  0  0  0
 11 28  1  0  0  0  0
 11 29  1  0  0  0  0
 12 13  1  0  0  0  0
 12 30  1  0  0  0  0
 12 31  1  0  0  0  0
 13 18  1  0  0  0  0
 13 14  1  0  0  0  0
 13 42  1  0  0  0  0
 14 15  1  0  0  0  0
 14 32  1  0  0  0  0
 14 33  1  0  0  0  0
 15 16  1  0  0  0  0
 15 34  1  0  0  0  0
 15 35  1  0  0  0  0
 16 17  1  0  0  0  0
 16 36  1  0  0  0  0
 16 37  1  0  0  0  0
 17 18  1  0  0  0  0
 17 38  1  0  0  0  0
 17 39  1  0  0  0  0
 18 40  1  0  0  0  0
 18 41  1  0  0  0  0
M  CHG  1  13   1
M  END
> <s_m_source_file>
AV-unprocessed.smi

> <i_m_source_file_index>
2392

> <i_lp_mmshare_version>
43012

> <i_f3d_flags>
0

> <s_epik_input>
W0NIM11jMVtjSF1bY0hdW2NIXWMobjEpW05IXUMoPU8pW05IXVtDSDJdW0NIMl1OMltDSDJdW0NIMl1bQ0gyXVtDSDJdW0NIMl0y

> <s_epik_cmdline>
J2VwaWtfcHl0aG9uJywgJy1waCcsICc3LjAnLCAnLXRuJywgJzgnLCAnLW1hJywgJzIwMCcsICctbWV0YWxfYmluZGluZycsICctaW1hZScsICc8aW5maWxlLm1hZT4nLCAnLW9tYWUnLCAnPG91dGZpbGUubWFlPic=

> <r_epik_Ionization_Penalty>
0.00217954

> <r_epik_Ionization_Penalty_Charging>
0.00211816

> <r_epik_Ionization_Penalty_Neutral>
6.13832e-05

> <r_epik_State_Penalty>
0.00145254

> <r_epik_Charging_Adjusted_Penalty>
0.0035707

> <i_epik_Tot_Q>
1

> <i_epik_Tot_abs_Q>
1

> <r_epik_Metal_State_Penalty>
-0

> <b_epik_Metal_Only>
0

> <s_lp_Force_Field>
OPLS_2005

> <r_lp_Energy>
16.6108

> <b_lp_Chiralities_Consistent>
1

> <s_lp_Variant>
AV-unprocessed.smi:2392-1

> <Gold.Version>
5.8.1

> <Gold.Id.Protein>
6NUR|6NUR_protein|mol2

> <Gold.PLP.Fitness>
52.4752

> <Gold.PLP.PLP>
-41.4229

> <Gold.PLP.part.hbond>
-3.0000

> <Gold.PLP.part.metal>
0.0000

> <Gold.PLP.part.buried>
-1.7213

> <Gold.PLP.part.nonpolar>
-38.6750

> <Gold.PLP.part.repulsive>
0.2778

> <Gold.PLP.ligand.clash>
0.0000

> <Gold.PLP.ligand.torsion>
0.3098

> <Gold.PLP.Chemscore.Hbond>
3.8800

> <Gold.PLP.Chemscore.CHOScore>
0.0000

> <Gold.PLP.Chemscore.Metal>
0.0000

> <Gold.Chemscore.Hbonds>
donor molecule, donor type, donor heavy atom, donor atom, acceptor molecule, acceptor atom, score
      L1  H     7    26       P1  8028  1.00
      L1  H    10    27       P1  8028  0.88
      L1  H    13    42       P1 10175  2.00

> <Gold.PLP.Chemscore.Internal.Correction>
0.0319

> <Gold.Rescore>
     Score         DG    S(hbond)    S(metal)    S(lipo)     H(rot)  DE(clash)    DE(int)     intcor
     20.89     -22.68       2.84        0.00      98.07       1.47       0.20       1.59       ----

> <Gold.Chemscore.Fitness>
20.8917

> <Gold.Chemscore.DG>
-22.6842

> <Gold.Chemscore.ZeroCoef>
-5.4800

> <Gold.Chemscore.Hbond>
2.8421

> <Gold.Chemscore.Metal>
0.0000

> <Gold.Chemscore.Lipo>
98.0705

> <Gold.Chemscore.Internal_Hbond>
0.0000

> <Gold.Chemscore.DEClash>
0.2041

> <Gold.Chemscore.DEInternal>
1.5884

> <Gold.Chemscore.Rot>
1.4698

> <Gold.Chemscore.Internal.Correction>
   9.000000E+99

> <Gold.Chemscore.Hbonds>
donor molecule, donor type, donor heavy atom, donor atom, acceptor molecule, acceptor atom, score
      L1  H     7    26       P1  8028  0.97
      L1  H    10    27       P1  8028  0.83
      L1  H    13    42       P1 10175  0.93

> <Gold.Chemscore.Hbond.Weighted>
-9.4926

> <Gold.Chemscore.Metal.Weighted>
-0.0000

> <Gold.Chemscore.Lipo.Weighted>
-11.4742

> <Gold.Chemscore.Internal_Hbond.Weighted>
0.0000

> <Gold.Chemscore.DEClash.Weighted>
0.2041

> <Gold.Chemscore.DEInternal.Weighted>
1.5884

> <Gold.Chemscore.Rot.Weighted>
3.7626

> <Gold.Chemscore.Internal.Correction.Weighted>
   9.000000E+99

> <Gold.Protein.RotatedTorsions>
[ 6907 6896 6895 6894 ] final  129.70 input  -60.11 | X-H torsion
[ 7974 7965 7964 7962 ] final  -65.43 input  175.53 | X-H torsion
[ 8008 7997 7996 7995 ] final  168.82 input   59.86 | X-H torsion
[ 10167 10162 10161 10158 ] final   67.26 input  -65.29 | X-H torsion
[ 10718 10713 10712 10709 ] final -176.54 input   66.30 | X-H torsion
[ 10763 10752 10751 10750 ] final   23.66 input  -60.55 | X-H torsion
[ 11005 11000 10999 10996 ] final  143.48 input  -57.11 | X-H torsion

> <Gold.Protein.ActiveResidues>
 VAL166  LYS551  ARG553  GLY616  TRP617  ASP618  TYR619  PRO620  LYS621  CYS622 
 ASP623  PHE694  ASN695  SER759  ASP760  ASP761  ALA762  ILE779  LEU786  VAL792 
 PHE793  MET794  SER795  GLU796  ALA797  LYS798  CYS799  TRP800  GLU811  SER814 

> <Gold.Protein.RotatedAtoms>
  152.3598  133.6283  159.6006 H   0  0  0  0  0  0  0  0  0  0  0  0  # atno 6907 bound_to 6896
  150.7593  133.9441  159.3474 H   0  0  0  0  0  0  0  0  0  0  0  0  # atno 6908 bound_to 6896
  151.7281  135.0881  160.0346 H   0  0  0  0  0  0  0  0  0  0  0  0  # atno 6909 bound_to 6896
  145.7544  140.8892  143.0463 H   0  0  0  0  0  0  0  0  0  0  0  0  # atno 7974 bound_to 7965
  156.1512  140.1580  156.8766 H   0  0  0  0  0  0  0  0  0  0  0  0  # atno 8008 bound_to 7997
  154.5073  140.0810  156.7957 H   0  0  0  0  0  0  0  0  0  0  0  0  # atno 8009 bound_to 7997
  155.3891  140.3409  155.4253 H   0  0  0  0  0  0  0  0  0  0  0  0  # atno 8010 bound_to 7997
  140.0914  144.4984  150.7096 H   0  0  0  0  0  0  0  0  0  0  0  0  # atno 10167 bound_to 10162
  156.8162  130.9603  151.3114 H   0  0  0  0  0  0  0  0  0  0  0  0  # atno 10718 bound_to 10713
  153.0821  135.6622  154.0023 H   0  0  0  0  0  0  0  0  0  0  0  0  # atno 10763 bound_to 10752
  153.9642  135.2971  155.3433 H   0  0  0  0  0  0  0  0  0  0  0  0  # atno 10764 bound_to 10752
  154.7223  135.5159  153.8902 H   0  0  0  0  0  0  0  0  0  0  0  0  # atno 10765 bound_to 10752
  140.0557  134.9232  157.1096 H   0  0  0  0  0  0  0  0  0  0  0  0  # atno 11005 bound_to 11000
  144.6843  139.9636  143.7481 LP  0  0  0  0  0  0  0  0  0  0  0  0  # atno 17320 bound_to 7965
  146.0325  139.3348  143.0746 LP  0  0  0  0  0  0  0  0  0  0  0  0  # atno 17321 bound_to 7965
  140.7026  143.2445  151.4819 LP  0  0  0  0  0  0  0  0  0  0  0  0  # atno 17342 bound_to 10162
  139.5722  144.1901  152.1853 LP  0  0  0  0  0  0  0  0  0  0  0  0  # atno 17343 bound_to 10162
  157.6480  130.8861  149.9577 LP  0  0  0  0  0  0  0  0  0  0  0  0  # atno 17370 bound_to 10713
  156.1015  130.3655  150.0209 LP  0  0  0  0  0  0  0  0  0  0  0  0  # atno 17371 bound_to 10713
  140.3848  134.2248  155.7169 LP  0  0  0  0  0  0  0  0  0  0  0  0  # atno 17394 bound_to 11000
  141.1951  133.8114  157.0730 LP  0  0  0  0  0  0  0  0  0  0  0  0  # atno 17395 bound_to 11000

$$$$
