AV-unprocessed.smi:2299|AV-procd|sdf|9230|dock8
  -GOLD-   2272012453D 1   1.00000     0.00000
 Structure written by MMmdl.
 42 43  0  0  0  0  0  0  0  0  1 V2000
  148.8171  135.2100  156.8024 C   0  0  0  0  0  0  0  0  0  0  0  0
  150.3327  134.9766  156.7148 C   0  0  0  0  0  0  0  0  0  0  0  0
  151.0156  135.9855  155.7795 C   0  0  0  0  0  0  0  0  0  0  0  0
  150.6520  133.5570  156.3271 C   0  0  0  0  0  0  0  0  0  0  0  0
  151.2778  132.7089  157.1397 N   0  0  0  0  0  0  0  0  0  0  0  0
  151.3920  131.5312  156.4145 C   0  0  0  0  0  0  0  0  0  0  0  0
  150.8269  131.7059  155.1764 C   0  0  0  0  0  0  0  0  0  0  0  0
  150.3405  133.0138  155.1288 N   0  0  0  0  0  0  0  0  0  0  0  0
  149.6552  133.6800  154.0188 C   0  0  0  0  0  0  0  0  0  0  0  0
  148.4428  132.9211  153.4706 C   0  0  0  0  0  0  0  0  0  0  0  0
  148.1616  131.8076  153.9132 O   0  0  0  0  0  0  0  0  0  0  0  0
  147.7379  133.5376  152.5088 N   0  0  0  0  0  0  0  0  0  0  0  0
  146.5256  133.0225  151.8715 C   0  0  2  0  0  0  0  0  0  0  0  0
  146.6317  133.1616  150.3365 C   0  0  0  0  0  0  0  0  0  0  0  0
  145.7182  132.2023  149.5564 C   0  0  0  0  0  0  0  0  0  0  0  0
  144.2145  132.4111  149.7894 C   0  0  0  0  0  0  0  0  0  0  0  0
  143.7649  132.1076  151.2288 C   0  0  0  0  0  0  0  0  0  0  0  0
  144.0606  133.1980  152.1500 N   0  0  0  0  0  0  0  0  0  0  0  0
  145.2704  133.6726  152.4838 C   0  0  0  0  0  0  0  0  0  0  0  0
  145.3761  134.6181  153.2649 O   0  0  0  0  0  0  0  0  0  0  0  0
  148.3563  134.5234  157.5132 H   0  0  0  0  0  0  0  0  0  0  0  0
  148.3346  135.0622  155.8357 H   0  0  0  0  0  0  0  0  0  0  0  0
  148.5946  136.2251  157.1324 H   0  0  0  0  0  0  0  0  0  0  0  0
  150.7260  135.1675  157.7118 H   0  0  0  0  0  0  0  0  0  0  0  0
  152.0976  135.8488  155.7793 H   0  0  0  0  0  0  0  0  0  0  0  0
  150.8127  137.0102  156.0917 H   0  0  0  0  0  0  0  0  0  0  0  0
  150.6658  135.8765  154.7524 H   0  0  0  0  0  0  0  0  0  0  0  0
  151.8714  130.6585  156.8330 H   0  0  0  0  0  0  0  0  0  0  0  0
  150.7381  131.0124  154.3531 H   0  0  0  0  0  0  0  0  0  0  0  0
  149.3256  134.6646  154.3530 H   0  0  0  0  0  0  0  0  0  0  0  0
  150.3749  133.8366  153.2140 H   0  0  0  0  0  0  0  0  0  0  0  0
  148.0418  134.4549  152.2149 H   0  0  0  0  0  0  0  0  0  0  0  0
  146.4659  131.9605  152.1176 H   0  0  0  0  0  0  0  0  0  0  0  0
  146.4327  134.1923  150.0388 H   0  0  0  0  0  0  0  0  0  0  0  0
  147.6564  132.9580  150.0224 H   0  0  0  0  0  0  0  0  0  0  0  0
  145.9230  132.3202  148.4918 H   0  0  0  0  0  0  0  0  0  0  0  0
  145.9841  131.1720  149.7963 H   0  0  0  0  0  0  0  0  0  0  0  0
  143.9223  133.4230  149.5050 H   0  0  0  0  0  0  0  0  0  0  0  0
  143.6750  131.7447  149.1155 H   0  0  0  0  0  0  0  0  0  0  0  0
  142.6841  131.9655  151.2417 H   0  0  0  0  0  0  0  0  0  0  0  0
  144.1996  131.1744  151.5897 H   0  0  0  0  0  0  0  0  0  0  0  0
  143.2619  133.6479  152.5738 H   0  0  0  0  0  0  0  0  0  0  0  0
  1  2  1  0  0  0  0
  1 21  1  0  0  0  0
  1 22  1  0  0  0  0
  1 23  1  0  0  0  0
  2  3  1  0  0  0  0
  2  4  1  0  0  0  0
  2 24  1  0  0  0  0
  3 25  1  0  0  0  0
  3 26  1  0  0  0  0
  3 27  1  0  0  0  0
  4  8  1  0  0  0  0
  4  5  2  0  0  0  0
  5  6  1  0  0  0  0
  6  7  2  0  0  0  0
  6 28  1  0  0  0  0
  7  8  1  0  0  0  0
  7 29  1  0  0  0  0
  8  9  1  0  0  0  0
  9 10  1  0  0  0  0
  9 30  1  0  0  0  0
  9 31  1  0  0  0  0
 10 11  2  0  0  0  0
 10 12  1  0  0  0  0
 12 13  1  0  0  0  0
 12 32  1  0  0  0  0
 13 19  1  0  0  0  0
 13 14  1  0  0  0  0
 13 33  1  0  0  0  0
 14 15  1  0  0  0  0
 14 34  1  0  0  0  0
 14 35  1  0  0  0  0
 15 16  1  0  0  0  0
 15 36  1  0  0  0  0
 15 37  1  0  0  0  0
 16 17  1  0  0  0  0
 16 38  1  0  0  0  0
 16 39  1  0  0  0  0
 17 18  1  0  0  0  0
 17 40  1  0  0  0  0
 17 41  1  0  0  0  0
 18 19  1  0  0  0  0
 18 42  1  0  0  0  0
 19 20  2  0  0  0  0
M  END
> <s_m_source_file>
AV-unprocessed.smi

> <i_m_source_file_index>
2299

> <i_lp_mmshare_version>
43012

> <i_f3d_flags>
0

> <s_epik_input>
W0NIM11bQ0hdKFtDSDNdKWMxbltjSF1bY0hdbjFbQ0gyXUMoPU8pW05IXVtDQEBIXTJbQ0gyXVtDSDJdW0NIMl1bQ0gyXVtOSF1DMj1P

> <s_epik_cmdline>
J2VwaWtfcHl0aG9uJywgJy1waCcsICc3LjAnLCAnLXRuJywgJzgnLCAnLW1hJywgJzIwMCcsICctbWV0YWxfYmluZGluZycsICctaW1hZScsICc8aW5maWxlLm1hZT4nLCAnLW9tYWUnLCAnPG91dGZpbGUubWFlPic=

> <r_lp_tautomer_probability>
1

> <r_epik_Ionization_Penalty>
0.557868

> <r_epik_Ionization_Penalty_Charging>
0.557868

> <r_epik_Ionization_Penalty_Neutral>
1.99744e-07

> <r_epik_State_Penalty>
0.568774

> <r_epik_Charging_Adjusted_Penalty>
1.12664

> <i_epik_Tot_Q>
0

> <i_epik_Tot_abs_Q>
0

> <r_epik_Metal_State_Penalty>
0.289303

> <b_epik_Metal_Only>
0

> <s_lp_Force_Field>
OPLS_2005

> <r_lp_Energy>
12.6328

> <b_lp_Chiralities_Consistent>
1

> <s_lp_Variant>
AV-unprocessed.smi:2299-3

> <Gold.Version>
5.8.1

> <Gold.Id.Protein>
6NUR|6NUR_protein|mol2

> <Gold.PLP.Fitness>
39.2049

> <Gold.PLP.PLP>
-33.7625

> <Gold.PLP.part.hbond>
-2.0000

> <Gold.PLP.part.metal>
0.0000

> <Gold.PLP.part.buried>
-4.8194

> <Gold.PLP.part.nonpolar>
-26.7515

> <Gold.PLP.part.repulsive>
0.1463

> <Gold.PLP.ligand.clash>
0.0000

> <Gold.PLP.ligand.torsion>
0.3143

> <Gold.PLP.Chemscore.Hbond>
2.0000

> <Gold.PLP.Chemscore.CHOScore>
0.0000

> <Gold.PLP.Chemscore.Metal>
0.0000

> <Gold.Chemscore.Hbonds>
donor molecule, donor type, donor heavy atom, donor atom, acceptor molecule, acceptor atom, score
      L1  H    12    32       P1  7948  0.95
      P1  H  6896  6907       L1     5  0.65

> <Gold.PLP.Chemscore.Internal.Correction>
0.0710

> <Gold.Rescore>
     Score         DG    S(hbond)    S(metal)    S(lipo)     H(rot)  DE(clash)    DE(int)     intcor
     13.81     -14.81       1.76        0.00      66.69       1.70       0.06       0.95       ----

> <Gold.Chemscore.Fitness>
13.8069

> <Gold.Chemscore.DG>
-14.8124

> <Gold.Chemscore.ZeroCoef>
-5.4800

> <Gold.Chemscore.Hbond>
1.7612

> <Gold.Chemscore.Metal>
0.0000

> <Gold.Chemscore.Lipo>
66.6920

> <Gold.Chemscore.Internal_Hbond>
0.0000

> <Gold.Chemscore.DEClash>
0.0601

> <Gold.Chemscore.DEInternal>
0.9454

> <Gold.Chemscore.Rot>
1.7004

> <Gold.Chemscore.Internal.Correction>
   9.000000E+99

> <Gold.Chemscore.Hbonds>
donor molecule, donor type, donor heavy atom, donor atom, acceptor molecule, acceptor atom, score
      L1  H    12    32       P1  7948  0.21
      P1  H  6896  6907       L1     5  0.51

> <Gold.Chemscore.Hbond.Weighted>
-5.8825

> <Gold.Chemscore.Metal.Weighted>
-0.0000

> <Gold.Chemscore.Lipo.Weighted>
-7.8030

> <Gold.Chemscore.Internal_Hbond.Weighted>
0.0000

> <Gold.Chemscore.DEClash.Weighted>
0.0601

> <Gold.Chemscore.DEInternal.Weighted>
0.9454

> <Gold.Chemscore.Rot.Weighted>
4.3530

> <Gold.Chemscore.Internal.Correction.Weighted>
   9.000000E+99

> <Gold.Protein.RotatedTorsions>
[ 6907 6896 6895 6894 ] final -156.83 input  -60.11 | X-H torsion
[ 7974 7965 7964 7962 ] final  142.05 input  175.53 | X-H torsion
[ 8008 7997 7996 7995 ] final   53.67 input   59.86 | X-H torsion
[ 10167 10162 10161 10158 ] final   18.52 input  -65.29 | X-H torsion
[ 10718 10713 10712 10709 ] final -112.03 input   66.30 | X-H torsion
[ 10763 10752 10751 10750 ] final -111.55 input  -60.55 | X-H torsion
[ 11005 11000 10999 10996 ] final   46.90 input  -57.11 | X-H torsion

> <Gold.Protein.ActiveResidues>
 VAL166  LYS551  ARG553  GLY616  TRP617  ASP618  TYR619  PRO620  LYS621  CYS622 
 ASP623  PHE694  ASN695  SER759  ASP760  ASP761  ALA762  ILE779  LEU786  VAL792 
 PHE793  MET794  SER795  GLU796  ALA797  LYS798  CYS799  TRP800  GLU811  SER814 

> <Gold.Protein.RotatedAtoms>
  151.2936  133.4154  159.2634 H   0  0  0  0  0  0  0  0  0  0  0  0  # atno 6907 bound_to 6896
  151.0256  134.9502  159.8093 H   0  0  0  0  0  0  0  0  0  0  0  0  # atno 6908 bound_to 6896
  152.5334  134.2898  159.9091 H   0  0  0  0  0  0  0  0  0  0  0  0  # atno 6909 bound_to 6896
  144.9042  139.5381  143.5739 H   0  0  0  0  0  0  0  0  0  0  0  0  # atno 7974 bound_to 7965
  155.4721  140.3465  155.4327 H   0  0  0  0  0  0  0  0  0  0  0  0  # atno 8008 bound_to 7997
  156.1094  140.1457  156.9388 H   0  0  0  0  0  0  0  0  0  0  0  0  # atno 8009 bound_to 7997
  154.4746  140.0889  156.7208 H   0  0  0  0  0  0  0  0  0  0  0  0  # atno 8010 bound_to 7997
  140.5647  143.9273  150.6668 H   0  0  0  0  0  0  0  0  0  0  0  0  # atno 10167 bound_to 10162
  156.0682  130.5898  150.8454 H   0  0  0  0  0  0  0  0  0  0  0  0  # atno 10718 bound_to 10713
  154.8306  135.4523  154.1056 H   0  0  0  0  0  0  0  0  0  0  0  0  # atno 10763 bound_to 10752
  153.2333  135.6908  153.7872 H   0  0  0  0  0  0  0  0  0  0  0  0  # atno 10764 bound_to 10752
  153.7246  135.3336  155.3250 H   0  0  0  0  0  0  0  0  0  0  0  0  # atno 10765 bound_to 10752
  140.1327  134.4684  155.8509 H   0  0  0  0  0  0  0  0  0  0  0  0  # atno 11005 bound_to 11000
  146.3124  139.7796  142.9009 LP  0  0  0  0  0  0  0  0  0  0  0  0  # atno 17320 bound_to 7965
  145.3564  141.0317  143.3309 LP  0  0  0  0  0  0  0  0  0  0  0  0  # atno 17321 bound_to 7965
  140.2733  143.3441  152.1218 LP  0  0  0  0  0  0  0  0  0  0  0  0  # atno 17342 bound_to 10162
  139.5087  144.6854  151.5900 LP  0  0  0  0  0  0  0  0  0  0  0  0  # atno 17343 bound_to 10162
  157.5736  131.0946  150.9379 LP  0  0  0  0  0  0  0  0  0  0  0  0  # atno 17370 bound_to 10713
  156.9590  130.5448  149.5285 LP  0  0  0  0  0  0  0  0  0  0  0  0  # atno 17371 bound_to 10713
  141.2173  133.6802  156.7100 LP  0  0  0  0  0  0  0  0  0  0  0  0  # atno 17394 bound_to 11000
  140.2821  134.8308  157.3943 LP  0  0  0  0  0  0  0  0  0  0  0  0  # atno 17395 bound_to 11000

$$$$
