AV-unprocessed.smi:2083|AV-procd|sdf|8493|dock4
  -GOLD-   2272011203D 1   1.00000     0.00000
 Structure written by MMmdl.
 45 46  0  0  0  0  0  0  0  0  2 V2000
  151.5916  140.7145  156.1910 C   0  0  0  0  0  0  0  0  0  0  0  0
  151.3255  139.2993  155.8072 C   0  0  0  0  0  0  0  0  0  0  0  0
  150.3332  138.7027  155.0810 C   0  0  0  0  0  0  0  0  0  0  0  0
  150.6972  137.3303  155.1095 C   0  0  0  0  0  0  0  0  0  0  0  0
  149.9004  136.3514  154.4620 N   0  0  0  0  0  0  0  0  0  0  0  0
  149.5118  135.1609  154.9497 C   0  0  0  0  0  0  0  0  0  0  0  0
  149.8328  134.7031  156.0467 O   0  0  0  0  0  0  0  0  0  0  0  0
  148.7157  134.5133  154.0865 N   0  0  0  0  0  0  0  0  0  0  0  0
  148.1241  133.1989  154.3203 C   0  0  0  0  0  0  0  0  0  0  0  0
  148.6853  132.1088  153.3756 C   0  0  1  0  0  0  0  0  0  0  0  0
  149.4806  131.0178  154.1254 C   0  0  0  0  0  0  0  0  0  0  0  0
  147.6043  131.5521  152.5096 N   0  3  2  0  0  0  0  0  0  0  0  0
  146.8151  132.5605  151.7500 C   0  0  0  0  0  0  0  0  0  0  0  0
  145.9105  131.8770  150.7132 C   0  0  0  0  0  0  0  0  0  0  0  0
  144.9867  130.8499  151.3839 C   0  0  0  0  0  0  0  0  0  0  0  0
  145.7886  129.8431  152.2301 C   0  0  1  0  0  0  0  0  0  0  0  0
  146.5412  128.8120  151.3708 C   0  0  0  0  0  0  0  0  0  0  0  0
  146.7241  130.5791  153.2126 C   0  0  0  0  0  0  0  0  0  0  0  0
  151.8101  137.1086  155.7920 N   0  0  0  0  0  0  0  0  0  0  0  0
  152.2183  138.3695  156.2428 O   0  0  0  0  0  0  0  0  0  0  0  0
  150.8919  141.3901  155.6988 H   0  0  0  0  0  0  0  0  0  0  0  0
  152.6019  141.0089  155.9069 H   0  0  0  0  0  0  0  0  0  0  0  0
  151.4899  140.8475  157.2682 H   0  0  0  0  0  0  0  0  0  0  0  0
  149.4853  139.1756  154.6080 H   0  0  0  0  0  0  0  0  0  0  0  0
  149.5803  136.5913  153.5355 H   0  0  0  0  0  0  0  0  0  0  0  0
  148.5058  134.9583  153.2046 H   0  0  0  0  0  0  0  0  0  0  0  0
  148.3183  132.9433  155.3613 H   0  0  0  0  0  0  0  0  0  0  0  0
  147.0396  133.2670  154.2185 H   0  0  0  0  0  0  0  0  0  0  0  0
  149.3872  132.6121  152.7095 H   0  0  0  0  0  0  0  0  0  0  0  0
  150.3518  131.4410  154.6258 H   0  0  0  0  0  0  0  0  0  0  0  0
  149.8504  130.2502  153.4460 H   0  0  0  0  0  0  0  0  0  0  0  0
  148.8770  130.5284  154.8900 H   0  0  0  0  0  0  0  0  0  0  0  0
  146.2020  133.1483  152.4344 H   0  0  0  0  0  0  0  0  0  0  0  0
  147.4757  133.2586  151.2376 H   0  0  0  0  0  0  0  0  0  0  0  0
  145.3128  132.6256  150.1920 H   0  0  0  0  0  0  0  0  0  0  0  0
  146.5217  131.3908  149.9521 H   0  0  0  0  0  0  0  0  0  0  0  0
  144.2790  131.3752  152.0270 H   0  0  0  0  0  0  0  0  0  0  0  0
  144.3887  130.3310  150.6340 H   0  0  0  0  0  0  0  0  0  0  0  0
  145.0712  129.2774  152.8260 H   0  0  0  0  0  0  0  0  0  0  0  0
  147.3058  129.2782  150.7495 H   0  0  0  0  0  0  0  0  0  0  0  0
  145.8563  128.2797  150.7099 H   0  0  0  0  0  0  0  0  0  0  0  0
  147.0348  128.0679  151.9965 H   0  0  0  0  0  0  0  0  0  0  0  0
  147.3253  129.8476  153.7543 H   0  0  0  0  0  0  0  0  0  0  0  0
  146.1285  131.1058  153.9596 H   0  0  0  0  0  0  0  0  0  0  0  0
  148.0897  131.0029  151.8146 H   0  0  0  0  0  0  0  0  0  0  0  0
  1  2  1  0  0  0  0
  1 21  1  0  0  0  0
  1 22  1  0  0  0  0
  1 23  1  0  0  0  0
  2 20  1  0  0  0  0
  2  3  2  0  0  0  0
  3  4  1  0  0  0  0
  3 24  1  0  0  0  0
  4  5  1  0  0  0  0
  4 19  2  0  0  0  0
  5  6  1  0  0  0  0
  5 25  1  0  0  0  0
  6  7  2  0  0  0  0
  6  8  1  0  0  0  0
  8  9  1  0  0  0  0
  8 26  1  0  0  0  0
  9 10  1  0  0  0  0
  9 27  1  0  0  0  0
  9 28  1  0  0  0  0
 10 11  1  0  0  0  0
 10 12  1  0  0  0  0
 10 29  1  0  0  0  0
 11 30  1  0  0  0  0
 11 31  1  0  0  0  0
 11 32  1  0  0  0  0
 12 18  1  0  0  0  0
 12 13  1  0  0  0  0
 12 45  1  0  0  0  0
 13 14  1  0  0  0  0
 13 33  1  0  0  0  0
 13 34  1  0  0  0  0
 14 15  1  0  0  0  0
 14 35  1  0  0  0  0
 14 36  1  0  0  0  0
 15 16  1  0  0  0  0
 15 37  1  0  0  0  0
 15 38  1  0  0  0  0
 16 17  1  0  0  0  0
 16 18  1  0  0  0  0
 16 39  1  0  0  0  0
 17 40  1  0  0  0  0
 17 41  1  0  0  0  0
 17 42  1  0  0  0  0
 18 43  1  0  0  0  0
 18 44  1  0  0  0  0
 19 20  1  0  0  0  0
M  CHG  1  12   1
M  END
> <s_m_source_file>
AV-unprocessed.smi

> <i_m_source_file_index>
2083

> <i_lp_mmshare_version>
43012

> <i_f3d_flags>
0

> <s_epik_input>
W0NIM11jMVtjSF1jKG5vMSlbTkhdQyg9TylbTkhdW0NIMl1bQ0BIXShbQ0gzXSlOMltDSDJdW0NIMl1bQ0gyXVtDQEBIXShbQ0gzXSlbQ0gyXTI=

> <s_epik_cmdline>
J2VwaWtfcHl0aG9uJywgJy1waCcsICc3LjAnLCAnLXRuJywgJzgnLCAnLW1hJywgJzIwMCcsICctbWV0YWxfYmluZGluZycsICctaW1hZScsICc8aW5maWxlLm1hZT4nLCAnLW9tYWUnLCAnPG91dGZpbGUubWFlPic=

> <r_epik_Ionization_Penalty>
0.00216453

> <r_epik_Ionization_Penalty_Charging>
0.00212879

> <r_epik_Ionization_Penalty_Neutral>
3.57418e-05

> <r_epik_State_Penalty>
0.00146033

> <r_epik_Charging_Adjusted_Penalty>
0.00358912

> <i_epik_Tot_Q>
1

> <i_epik_Tot_abs_Q>
1

> <r_epik_Metal_State_Penalty>
0.0215827

> <b_epik_Metal_Only>
0

> <s_lp_Force_Field>
OPLS_2005

> <r_lp_Energy>
19.7178

> <b_lp_Chiralities_Consistent>
1

> <s_lp_Variant>
AV-unprocessed.smi:2083-4

> <Gold.Version>
5.8.1

> <Gold.Id.Protein>
6NUR|6NUR_protein|mol2

> <Gold.PLP.Fitness>
45.8836

> <Gold.PLP.PLP>
-36.3125

> <Gold.PLP.part.hbond>
-4.7536

> <Gold.PLP.part.metal>
0.0000

> <Gold.PLP.part.buried>
-3.3096

> <Gold.PLP.part.nonpolar>
-28.5108

> <Gold.PLP.part.repulsive>
0.1198

> <Gold.PLP.ligand.clash>
0.0000

> <Gold.PLP.ligand.torsion>
1.2588

> <Gold.PLP.Chemscore.Hbond>
3.9920

> <Gold.PLP.Chemscore.CHOScore>
0.0000

> <Gold.PLP.Chemscore.Metal>
0.0000

> <Gold.Chemscore.Hbonds>
donor molecule, donor type, donor heavy atom, donor atom, acceptor molecule, acceptor atom, score
      L1  H     5    25       P1  7948  1.00
      L1  H     8    26       P1  7948  0.99
      L1  H    12    45       P1 10747  1.00
      P1  H 10752 10765       L1    19  0.59

> <Gold.PLP.Chemscore.Internal.Correction>
0.1127

> <Gold.Rescore>
     Score         DG    S(hbond)    S(metal)    S(lipo)     H(rot)  DE(clash)    DE(int)     intcor
     20.73     -23.54       3.47        0.00      89.17       1.55       1.54       1.27       ----

> <Gold.Chemscore.Fitness>
20.7273

> <Gold.Chemscore.DG>
-23.5366

> <Gold.Chemscore.ZeroCoef>
-5.4800

> <Gold.Chemscore.Hbond>
3.4685

> <Gold.Chemscore.Metal>
0.0000

> <Gold.Chemscore.Lipo>
89.1721

> <Gold.Chemscore.Internal_Hbond>
0.0000

> <Gold.Chemscore.DEClash>
1.5363

> <Gold.Chemscore.DEInternal>
1.2730

> <Gold.Chemscore.Rot>
1.5474

> <Gold.Chemscore.Internal.Correction>
   9.000000E+99

> <Gold.Chemscore.Hbonds>
donor molecule, donor type, donor heavy atom, donor atom, acceptor molecule, acceptor atom, score
      L1  H     5    25       P1  7948  0.64
      L1  H     8    26       P1  7948  0.65
      L1  H    12    45       P1 10747  0.96
      P1  H 10752 10765       L1    19  0.49

> <Gold.Chemscore.Hbond.Weighted>
-11.5847

> <Gold.Chemscore.Metal.Weighted>
-0.0000

> <Gold.Chemscore.Lipo.Weighted>
-10.4331

> <Gold.Chemscore.Internal_Hbond.Weighted>
0.0000

> <Gold.Chemscore.DEClash.Weighted>
1.5363

> <Gold.Chemscore.DEInternal.Weighted>
1.2730

> <Gold.Chemscore.Rot.Weighted>
3.9612

> <Gold.Chemscore.Internal.Correction.Weighted>
   9.000000E+99

> <Gold.Protein.RotatedTorsions>
[ 6907 6896 6895 6894 ] final  153.83 input  -60.11 | X-H torsion
[ 7974 7965 7964 7962 ] final  173.60 input  175.53 | X-H torsion
[ 8008 7997 7996 7995 ] final   81.63 input   59.86 | X-H torsion
[ 10167 10162 10161 10158 ] final  -16.55 input  -65.29 | X-H torsion
[ 10718 10713 10712 10709 ] final  166.84 input   66.30 | X-H torsion
[ 10763 10752 10751 10750 ] final -157.26 input  -60.55 | X-H torsion
[ 11005 11000 10999 10996 ] final  -87.96 input  -57.11 | X-H torsion

> <Gold.Protein.ActiveResidues>
 VAL166  LYS551  ARG553  GLY616  TRP617  ASP618  TYR619  PRO620  LYS621  CYS622 
 ASP623  PHE694  ASN695  SER759  ASP760  ASP761  ALA762  ILE779  LEU786  VAL792 
 PHE793  MET794  SER795  GLU796  ALA797  LYS798  CYS799  TRP800  GLU811  SER814 

> <Gold.Protein.RotatedAtoms>
  152.0671  133.4089  159.4442 H   0  0  0  0  0  0  0  0  0  0  0  0  # atno 6907 bound_to 6896
  150.6864  134.3134  159.4765 H   0  0  0  0  0  0  0  0  0  0  0  0  # atno 6908 bound_to 6896
  152.0961  134.9373  160.0621 H   0  0  0  0  0  0  0  0  0  0  0  0  # atno 6909 bound_to 6896
  144.7240  139.9671  143.6436 H   0  0  0  0  0  0  0  0  0  0  0  0  # atno 7974 bound_to 7965
  155.8998  140.3434  155.6018 H   0  0  0  0  0  0  0  0  0  0  0  0  # atno 8008 bound_to 7997
  155.7514  140.0820  157.2218 H   0  0  0  0  0  0  0  0  0  0  0  0  # atno 8009 bound_to 7997
  154.4042  140.1552  156.2715 H   0  0  0  0  0  0  0  0  0  0  0  0  # atno 8010 bound_to 7997
  140.7235  143.5105  150.9756 H   0  0  0  0  0  0  0  0  0  0  0  0  # atno 10167 bound_to 10162
  157.0600  131.0337  151.2650 H   0  0  0  0  0  0  0  0  0  0  0  0  # atno 10718 bound_to 10713
  154.7650  135.3128  154.8304 H   0  0  0  0  0  0  0  0  0  0  0  0  # atno 10763 bound_to 10752
  153.9054  135.6811  153.4757 H   0  0  0  0  0  0  0  0  0  0  0  0  # atno 10764 bound_to 10752
  153.1255  135.4803  154.9198 H   0  0  0  0  0  0  0  0  0  0  0  0  # atno 10765 bound_to 10752
  141.1609  133.7541  156.9382 H   0  0  0  0  0  0  0  0  0  0  0  0  # atno 11005 bound_to 11000
  146.0592  139.3586  143.0592 LP  0  0  0  0  0  0  0  0  0  0  0  0  # atno 17320 bound_to 7965
  145.8115  140.9723  143.0946 LP  0  0  0  0  0  0  0  0  0  0  0  0  # atno 17321 bound_to 7965
  139.8818  143.7062  152.3156 LP  0  0  0  0  0  0  0  0  0  0  0  0  # atno 17342 bound_to 10162
  139.7347  144.7574  151.0746 LP  0  0  0  0  0  0  0  0  0  0  0  0  # atno 17343 bound_to 10162
  157.4962  130.7852  149.7558 LP  0  0  0  0  0  0  0  0  0  0  0  0  # atno 17370 bound_to 10713
  155.9981  130.3896  150.2714 LP  0  0  0  0  0  0  0  0  0  0  0  0  # atno 17371 bound_to 10713
  140.1340  134.9337  157.2376 LP  0  0  0  0  0  0  0  0  0  0  0  0  # atno 17394 bound_to 11000
  140.2918  134.3231  155.7313 LP  0  0  0  0  0  0  0  0  0  0  0  0  # atno 17395 bound_to 11000

$$$$
