AV-unprocessed.smi:2137|AV-procd|sdf|8709|dock2
  -GOLD-   2272011473D 1   1.00000     0.00000
 Structure written by MMmdl.
 50 51  0  0  0  0  0  0  0  0  2 V2000
  144.6889  132.8532  147.8435 C   0  0  0  0  0  0  0  0  0  0  0  0
  145.1135  133.0086  149.3105 C   0  0  1  0  0  0  0  0  0  0  0  0
  146.4683  132.3318  149.5782 C   0  0  0  0  0  0  0  0  0  0  0  0
  146.8789  132.5259  151.0431 C   0  0  0  0  0  0  0  0  0  0  0  0
  146.8865  134.0160  151.4195 C   0  0  0  0  0  0  0  0  0  0  0  0
  145.5653  134.6422  151.1546 N   0  3  1  0  0  0  0  0  0  0  0  0
  145.5025  136.0465  151.6334 C   0  0  0  0  0  0  0  0  0  0  0  0
  145.4474  136.1415  153.1681 C   0  0  0  0  0  0  0  0  0  0  0  0
  144.7963  137.4454  153.6476 C   0  0  0  0  0  0  0  0  0  0  0  0
  145.7509  138.5447  153.5852 N   0  0  0  0  0  0  0  0  0  0  0  0
  146.9957  138.5091  154.0819 C   0  0  0  0  0  0  0  0  0  0  0  0
  147.4583  137.5358  154.6778 O   0  0  0  0  0  0  0  0  0  0  0  0
  147.8362  139.7786  153.8928 C   0  0  0  0  0  0  0  0  0  0  0  0
  149.0447  139.7840  154.7268 N   0  0  0  0  0  0  0  0  0  0  0  0
  149.9919  138.7884  154.5703 C   0  0  0  0  0  0  0  0  0  0  0  0
  151.1301  138.7230  155.2950 C   0  0  0  0  0  0  0  0  0  0  0  0
  151.4321  139.7281  156.3068 C   0  0  0  0  0  0  0  0  0  0  0  0
  152.4449  139.6940  157.0069 O   0  0  0  0  0  0  0  0  0  0  0  0
  150.4565  140.7455  156.4335 N   0  0  0  0  0  0  0  0  0  0  0  0
  150.6711  141.7760  157.4286 C   0  0  0  0  0  0  0  0  0  0  0  0
  149.2590  140.7986  155.6849 C   0  0  0  0  0  0  0  0  0  0  0  0
  148.4200  141.6871  155.8541 O   0  0  0  0  0  0  0  0  0  0  0  0
  145.1666  134.4919  149.7286 C   0  0  0  0  0  0  0  0  0  0  0  0
  145.4040  133.3280  147.1705 H   0  0  0  0  0  0  0  0  0  0  0  0
  143.7131  133.3065  147.6659 H   0  0  0  0  0  0  0  0  0  0  0  0
  144.6177  131.8013  147.5651 H   0  0  0  0  0  0  0  0  0  0  0  0
  144.3599  132.5122  149.9242 H   0  0  0  0  0  0  0  0  0  0  0  0
  146.4131  131.2675  149.3461 H   0  0  0  0  0  0  0  0  0  0  0  0
  147.2328  132.7544  148.9245 H   0  0  0  0  0  0  0  0  0  0  0  0
  146.1885  131.9858  151.6927 H   0  0  0  0  0  0  0  0  0  0  0  0
  147.8653  132.0932  151.2130 H   0  0  0  0  0  0  0  0  0  0  0  0
  147.1374  134.1136  152.4767 H   0  0  0  0  0  0  0  0  0  0  0  0
  147.6605  134.5432  150.8593 H   0  0  0  0  0  0  0  0  0  0  0  0
  146.3928  136.5810  151.2985 H   0  0  0  0  0  0  0  0  0  0  0  0
  144.6506  136.5558  151.1801 H   0  0  0  0  0  0  0  0  0  0  0  0
  144.8892  135.3014  153.5812 H   0  0  0  0  0  0  0  0  0  0  0  0
  146.4583  136.0704  153.5720 H   0  0  0  0  0  0  0  0  0  0  0  0
  143.9344  137.6926  153.0266 H   0  0  0  0  0  0  0  0  0  0  0  0
  144.4303  137.3142  154.6676 H   0  0  0  0  0  0  0  0  0  0  0  0
  145.4506  139.3892  153.1199 H   0  0  0  0  0  0  0  0  0  0  0  0
  148.1064  139.8987  152.8420 H   0  0  0  0  0  0  0  0  0  0  0  0
  147.2105  140.6385  154.1353 H   0  0  0  0  0  0  0  0  0  0  0  0
  149.8155  138.0210  153.8307 H   0  0  0  0  0  0  0  0  0  0  0  0
  151.8263  137.9149  155.1249 H   0  0  0  0  0  0  0  0  0  0  0  0
  150.2615  142.7191  157.0634 H   0  0  0  0  0  0  0  0  0  0  0  0
  151.7401  141.9169  157.5929 H   0  0  0  0  0  0  0  0  0  0  0  0
  150.1681  141.4469  158.3389 H   0  0  0  0  0  0  0  0  0  0  0  0
  145.8690  135.0373  149.0959 H   0  0  0  0  0  0  0  0  0  0  0  0
  144.1867  134.9389  149.5652 H   0  0  0  0  0  0  0  0  0  0  0  0
  144.8958  134.1230  151.7045 H   0  0  0  0  0  0  0  0  0  0  0  0
  1  2  1  0  0  0  0
  1 24  1  0  0  0  0
  1 25  1  0  0  0  0
  1 26  1  0  0  0  0
  2 23  1  0  0  0  0
  2  3  1  0  0  0  0
  2 27  1  0  0  0  0
  3  4  1  0  0  0  0
  3 28  1  0  0  0  0
  3 29  1  0  0  0  0
  4  5  1  0  0  0  0
  4 30  1  0  0  0  0
  4 31  1  0  0  0  0
  5  6  1  0  0  0  0
  5 32  1  0  0  0  0
  5 33  1  0  0  0  0
  6  7  1  0  0  0  0
  6 23  1  0  0  0  0
  6 50  1  0  0  0  0
  7  8  1  0  0  0  0
  7 34  1  0  0  0  0
  7 35  1  0  0  0  0
  8  9  1  0  0  0  0
  8 36  1  0  0  0  0
  8 37  1  0  0  0  0
  9 10  1  0  0  0  0
  9 38  1  0  0  0  0
  9 39  1  0  0  0  0
 10 11  1  0  0  0  0
 10 40  1  0  0  0  0
 11 12  2  0  0  0  0
 11 13  1  0  0  0  0
 13 14  1  0  0  0  0
 13 41  1  0  0  0  0
 13 42  1  0  0  0  0
 14 21  1  0  0  0  0
 14 15  1  0  0  0  0
 15 16  2  0  0  0  0
 15 43  1  0  0  0  0
 16 17  1  0  0  0  0
 16 44  1  0  0  0  0
 17 18  2  0  0  0  0
 17 19  1  0  0  0  0
 19 20  1  0  0  0  0
 19 21  1  0  0  0  0
 20 45  1  0  0  0  0
 20 46  1  0  0  0  0
 20 47  1  0  0  0  0
 21 22  2  0  0  0  0
 23 48  1  0  0  0  0
 23 49  1  0  0  0  0
M  CHG  1   6   1
M  END
> <s_m_source_file>
AV-unprocessed.smi

> <i_m_source_file_index>
2137

> <i_lp_mmshare_version>
43012

> <i_f3d_flags>
0

> <s_epik_input>
W0NIM11bQ0BASF0xW0NIMl1bQ0gyXVtDSDJdTihbQ0gyXTEpW0NIMl1bQ0gyXVtDSDJdW05IXUMoPU8pW0NIMl1uMltjSF1bY0hdYyg9TyluKFtDSDNdKWMyPU8=

> <s_epik_cmdline>
J2VwaWtfcHl0aG9uJywgJy1waCcsICc3LjAnLCAnLXRuJywgJzgnLCAnLW1hJywgJzIwMCcsICctbWV0YWxfYmluZGluZycsICctaW1hZScsICc8aW5maWxlLm1hZT4nLCAnLW9tYWUnLCAnPG91dGZpbGUubWFlPic=

> <r_lp_tautomer_probability>
1

> <r_epik_Ionization_Penalty>
0.000384839

> <r_epik_Ionization_Penalty_Charging>
0.000384812

> <r_epik_Ionization_Penalty_Neutral>
2.6907e-08

> <r_epik_State_Penalty>
0.000235226

> <r_epik_Charging_Adjusted_Penalty>
0.000620038

> <i_epik_Tot_Q>
1

> <i_epik_Tot_abs_Q>
1

> <r_epik_Metal_State_Penalty>
-0

> <b_epik_Metal_Only>
0

> <s_lp_Force_Field>
OPLS_2005

> <r_lp_Energy>
25.3587

> <b_lp_Chiralities_Consistent>
1

> <s_lp_Variant>
AV-unprocessed.smi:2137-4

> <Gold.Version>
5.8.1

> <Gold.Id.Protein>
6NUR|6NUR_protein|mol2

> <Gold.PLP.Fitness>
51.9673

> <Gold.PLP.PLP>
-44.0129

> <Gold.PLP.part.hbond>
-2.0000

> <Gold.PLP.part.metal>
0.0000

> <Gold.PLP.part.buried>
-4.8250

> <Gold.PLP.part.nonpolar>
-39.0197

> <Gold.PLP.part.repulsive>
0.8220

> <Gold.PLP.ligand.clash>
0.0000

> <Gold.PLP.ligand.torsion>
0.5583

> <Gold.PLP.Chemscore.Hbond>
1.9760

> <Gold.PLP.Chemscore.CHOScore>
1.0000

> <Gold.PLP.Chemscore.Metal>
0.0000

> <Gold.Chemscore.Hbonds>
donor molecule, donor type, donor heavy atom, donor atom, acceptor molecule, acceptor atom, score
      L1  H    10    40       P1 10175  0.55
      P1  H  7997  8008       L1    18  1.00
      L1  C    15    43       P1  7948  0.42

> <Gold.PLP.Chemscore.Internal.Correction>
0.1430

> <Gold.Rescore>
     Score         DG    S(hbond)    S(metal)    S(lipo)     H(rot)  DE(clash)    DE(int)     intcor
     13.84     -15.54       1.94        0.00      80.38       2.27       0.02       1.67       ----

> <Gold.Chemscore.Fitness>
13.8428

> <Gold.Chemscore.DG>
-15.5382

> <Gold.Chemscore.ZeroCoef>
-5.4800

> <Gold.Chemscore.Hbond>
1.9392

> <Gold.Chemscore.Metal>
0.0000

> <Gold.Chemscore.Lipo>
80.3824

> <Gold.Chemscore.Internal_Hbond>
0.0000

> <Gold.Chemscore.DEClash>
0.0224

> <Gold.Chemscore.DEInternal>
1.6730

> <Gold.Chemscore.Rot>
2.2748

> <Gold.Chemscore.Internal.Correction>
   9.000000E+99

> <Gold.Chemscore.Hbonds>
donor molecule, donor type, donor heavy atom, donor atom, acceptor molecule, acceptor atom, score
      L1  H    10    40       P1 10175  0.55
      P1  H  7997  8008       L1    18  0.93

> <Gold.Chemscore.Hbond.Weighted>
-6.4769

> <Gold.Chemscore.Metal.Weighted>
-0.0000

> <Gold.Chemscore.Lipo.Weighted>
-9.4047

> <Gold.Chemscore.Internal_Hbond.Weighted>
0.0000

> <Gold.Chemscore.DEClash.Weighted>
0.0224

> <Gold.Chemscore.DEInternal.Weighted>
1.6730

> <Gold.Chemscore.Rot.Weighted>
5.8234

> <Gold.Chemscore.Internal.Correction.Weighted>
   9.000000E+99

> <Gold.Protein.RotatedTorsions>
[ 6907 6896 6895 6894 ] final  129.48 input  -60.11 | X-H torsion
[ 7974 7965 7964 7962 ] final   82.07 input  175.53 | X-H torsion
[ 8008 7997 7996 7995 ] final  -45.52 input   59.86 | X-H torsion
[ 10167 10162 10161 10158 ] final  130.57 input  -65.29 | X-H torsion
[ 10718 10713 10712 10709 ] final  132.45 input   66.30 | X-H torsion
[ 10763 10752 10751 10750 ] final   92.69 input  -60.55 | X-H torsion
[ 11005 11000 10999 10996 ] final  170.11 input  -57.11 | X-H torsion

> <Gold.Protein.ActiveResidues>
 VAL166  LYS551  ARG553  GLY616  TRP617  ASP618  TYR619  PRO620  LYS621  CYS622 
 ASP623  PHE694  ASN695  SER759  ASP760  ASP761  ALA762  ILE779  LEU786  VAL792 
 PHE793  MET794  SER795  GLU796  ALA797  LYS798  CYS799  TRP800  GLU811  SER814 

> <Gold.Protein.RotatedAtoms>
  152.3620  133.6309  159.6021 H   0  0  0  0  0  0  0  0  0  0  0  0  # atno 6907 bound_to 6896
  150.7607  133.9408  159.3464 H   0  0  0  0  0  0  0  0  0  0  0  0  # atno 6908 bound_to 6896
  151.7245  135.0888  160.0341 H   0  0  0  0  0  0  0  0  0  0  0  0  # atno 6909 bound_to 6896
  145.6298  139.2402  143.2091 H   0  0  0  0  0  0  0  0  0  0  0  0  # atno 7974 bound_to 7965
  154.4001  140.1394  156.3861 H   0  0  0  0  0  0  0  0  0  0  0  0  # atno 8008 bound_to 7997
  155.7958  140.3477  155.5354 H   0  0  0  0  0  0  0  0  0  0  0  0  # atno 8009 bound_to 7997
  155.8533  140.0945  157.1651 H   0  0  0  0  0  0  0  0  0  0  0  0  # atno 8010 bound_to 7997
  139.5424  144.6742  151.4582 H   0  0  0  0  0  0  0  0  0  0  0  0  # atno 10167 bound_to 10162
  157.4869  131.1088  150.9608 H   0  0  0  0  0  0  0  0  0  0  0  0  # atno 10718 bound_to 10713
  153.2220  135.4352  155.0499 H   0  0  0  0  0  0  0  0  0  0  0  0  # atno 10763 bound_to 10752
  154.8254  135.3358  154.6913 H   0  0  0  0  0  0  0  0  0  0  0  0  # atno 10764 bound_to 10752
  153.7345  135.7009  153.5037 H   0  0  0  0  0  0  0  0  0  0  0  0  # atno 10765 bound_to 10752
  140.3049  134.7565  157.3945 H   0  0  0  0  0  0  0  0  0  0  0  0  # atno 11005 bound_to 11000
  146.1365  140.7115  142.9387 LP  0  0  0  0  0  0  0  0  0  0  0  0  # atno 17320 bound_to 7965
  144.7198  140.4334  143.7017 LP  0  0  0  0  0  0  0  0  0  0  0  0  # atno 17321 bound_to 7965
  140.6659  143.8399  150.6941 LP  0  0  0  0  0  0  0  0  0  0  0  0  # atno 17342 bound_to 10162
  140.1808  143.4116  152.1934 LP  0  0  0  0  0  0  0  0  0  0  0  0  # atno 17343 bound_to 10162
  157.0322  130.5716  149.5344 LP  0  0  0  0  0  0  0  0  0  0  0  0  # atno 17370 bound_to 10713
  156.0152  130.5246  150.8112 LP  0  0  0  0  0  0  0  0  0  0  0  0  # atno 17371 bound_to 10713
  140.1076  134.5388  155.8295 LP  0  0  0  0  0  0  0  0  0  0  0  0  # atno 17394 bound_to 11000
  141.2120  133.6714  156.6629 LP  0  0  0  0  0  0  0  0  0  0  0  0  # atno 17395 bound_to 11000

$$$$
