AV-unprocessed.smi:81|AV-procd|sdf|786|dock8
  -GOLD-   2262017153D 1   1.00000     0.00000
 Structure written by MMmdl.
 64 67  0  0  0  0  0  0  0  0  2 V2000
  147.3420  128.0998  156.1395 C   0  0  0  0  0  0  0  0  0  0  0  0
  147.5072  129.2463  155.1282 C   0  0  0  0  0  0  0  0  0  0  0  0
  148.9829  129.4121  154.7398 C   0  0  0  0  0  0  0  0  0  0  0  0
  146.9407  130.5787  155.6702 C   0  0  0  0  0  0  0  0  0  0  0  0
  147.2729  131.7482  154.8508 N   0  0  0  0  0  0  0  0  0  0  0  0
  147.6073  132.8571  155.5563 C   0  0  0  0  0  0  0  0  0  0  0  0
  147.0013  133.1151  156.7454 N   0  0  0  0  0  0  0  0  0  0  0  0
  147.3453  134.1973  157.4500 C   0  0  0  0  0  0  0  0  0  0  0  0
  148.2563  135.1280  157.1583 N   0  0  0  0  0  0  0  0  0  0  0  0
  148.8739  134.8636  155.9712 C   0  0  0  0  0  0  0  0  0  0  0  0
  148.6073  133.7623  155.1118 C   0  0  0  0  0  0  0  0  0  0  0  0
  149.4247  133.8221  153.9907 N   0  0  0  0  0  0  0  0  0  0  0  0
  150.1409  134.8967  154.1797 C   0  0  0  0  0  0  0  0  0  0  0  0
  149.8845  135.5760  155.3499 N   0  0  0  0  0  0  0  0  0  0  0  0
  150.5450  136.7845  155.8194 C   0  0  0  0  0  0  0  0  0  0  0  0
  150.3768  137.9883  154.8549 C   0  0  1  0  0  0  0  0  0  0  0  0
  151.0879  137.6972  153.6632 O   0  0  0  0  0  0  0  0  0  0  0  0
  148.9261  138.2674  154.4727 C   0  0  0  0  0  0  0  0  0  0  0  0
  148.9357  139.7572  154.1673 C   0  0  0  0  0  0  0  0  0  0  0  0
  149.7903  140.2712  155.1734 O   0  0  0  0  0  0  0  0  0  0  0  0
  150.8745  139.3668  155.3739 C   0  0  1  0  0  0  0  0  0  0  0  0
  151.2698  139.4451  156.8566 C   0  0  0  0  0  0  0  0  0  0  0  0
  146.4465  131.9646  153.6543 C   0  0  2  0  0  0  0  0  0  0  0  0
  146.1117  130.6694  152.8848 C   0  0  0  0  0  0  0  0  0  0  0  0
  145.1763  130.9612  151.7002 C   0  0  0  0  0  0  0  0  0  0  0  0
  145.7708  131.9701  150.7884 N   0  3  1  0  0  0  0  0  0  0  0  0
  144.9518  132.1833  149.5759 C   0  0  0  0  0  0  0  0  0  0  0  0
  146.0816  133.2405  151.4901 C   0  0  0  0  0  0  0  0  0  0  0  0
  147.0344  133.0018  152.6729 C   0  0  0  0  0  0  0  0  0  0  0  0
  147.8610  128.3175  157.0734 H   0  0  0  0  0  0  0  0  0  0  0  0
  147.7457  127.1672  155.7443 H   0  0  0  0  0  0  0  0  0  0  0  0
  146.2929  127.9238  156.3761 H   0  0  0  0  0  0  0  0  0  0  0  0
  146.9720  128.9719  154.2184 H   0  0  0  0  0  0  0  0  0  0  0  0
  149.5921  129.6858  155.6019 H   0  0  0  0  0  0  0  0  0  0  0  0
  149.1050  130.1898  153.9854 H   0  0  0  0  0  0  0  0  0  0  0  0
  149.3874  128.4881  154.3257 H   0  0  0  0  0  0  0  0  0  0  0  0
  145.8558  130.4988  155.7470 H   0  0  0  0  0  0  0  0  0  0  0  0
  147.3013  130.7415  156.6868 H   0  0  0  0  0  0  0  0  0  0  0  0
  146.8190  134.3352  158.3831 H   0  0  0  0  0  0  0  0  0  0  0  0
  150.8886  135.2201  153.4701 H   0  0  0  0  0  0  0  0  0  0  0  0
  150.1351  137.0205  156.8016 H   0  0  0  0  0  0  0  0  0  0  0  0
  151.6020  136.5608  155.9698 H   0  0  0  0  0  0  0  0  0  0  0  0
  150.4648  137.5771  152.9630 H   0  0  0  0  0  0  0  0  0  0  0  0
  148.5624  137.6599  153.6426 H   0  0  0  0  0  0  0  0  0  0  0  0
  148.2719  138.0884  155.3269 H   0  0  0  0  0  0  0  0  0  0  0  0
  149.3615  139.9553  153.1824 H   0  0  0  0  0  0  0  0  0  0  0  0
  147.9431  140.2053  154.2135 H   0  0  0  0  0  0  0  0  0  0  0  0
  151.7171  139.7181  154.7751 H   0  0  0  0  0  0  0  0  0  0  0  0
  152.1057  138.7829  157.0820 H   0  0  0  0  0  0  0  0  0  0  0  0
  150.4370  139.1792  157.5079 H   0  0  0  0  0  0  0  0  0  0  0  0
  151.5775  140.4577  157.1181 H   0  0  0  0  0  0  0  0  0  0  0  0
  145.4998  132.3642  154.0203 H   0  0  0  0  0  0  0  0  0  0  0  0
  147.0201  130.1979  152.5079 H   0  0  0  0  0  0  0  0  0  0  0  0
  145.6380  129.9495  153.5531 H   0  0  0  0  0  0  0  0  0  0  0  0
  144.9870  130.0383  151.1509 H   0  0  0  0  0  0  0  0  0  0  0  0
  144.2111  131.3187  152.0627 H   0  0  0  0  0  0  0  0  0  0  0  0
  143.9741  132.5945  149.8310 H   0  0  0  0  0  0  0  0  0  0  0  0
  144.7994  131.2441  149.0434 H   0  0  0  0  0  0  0  0  0  0  0  0
  145.4465  132.8751  148.8935 H   0  0  0  0  0  0  0  0  0  0  0  0
  146.5403  133.9407  150.7906 H   0  0  0  0  0  0  0  0  0  0  0  0
  145.1568  133.7020  151.8401 H   0  0  0  0  0  0  0  0  0  0  0  0
  147.2205  133.9483  153.1810 H   0  0  0  0  0  0  0  0  0  0  0  0
  147.9960  132.6611  152.2885 H   0  0  0  0  0  0  0  0  0  0  0  0
  146.6531  131.5905  150.4751 H   0  0  0  0  0  0  0  0  0  0  0  0
  1  2  1  0  0  0  0
  1 30  1  0  0  0  0
  1 31  1  0  0  0  0
  1 32  1  0  0  0  0
  2  3  1  0  0  0  0
  2  4  1  0  0  0  0
  2 33  1  0  0  0  0
  3 34  1  0  0  0  0
  3 35  1  0  0  0  0
  3 36  1  0  0  0  0
  4  5  1  0  0  0  0
  4 37  1  0  0  0  0
  4 38  1  0  0  0  0
  5  6  1  0  0  0  0
  5 23  1  0  0  0  0
  6 11  1  0  0  0  0
  6  7  2  0  0  0  0
  7  8  1  0  0  0  0
  8  9  2  0  0  0  0
  8 39  1  0  0  0  0
  9 10  1  0  0  0  0
 10 14  1  0  0  0  0
 10 11  2  0  0  0  0
 11 12  1  0  0  0  0
 12 13  2  0  0  0  0
 13 14  1  0  0  0  0
 13 40  1  0  0  0  0
 14 15  1  0  0  0  0
 15 16  1  0  0  0  0
 15 41  1  0  0  0  0
 15 42  1  0  0  0  0
 16 21  1  0  0  0  0
 16 17  1  0  0  0  0
 16 18  1  0  0  0  0
 17 43  1  0  0  0  0
 18 19  1  0  0  0  0
 18 44  1  0  0  0  0
 18 45  1  0  0  0  0
 19 20  1  0  0  0  0
 19 46  1  0  0  0  0
 19 47  1  0  0  0  0
 20 21  1  0  0  0  0
 21 22  1  0  0  0  0
 21 48  1  0  0  0  0
 22 49  1  0  0  0  0
 22 50  1  0  0  0  0
 22 51  1  0  0  0  0
 23 29  1  0  0  0  0
 23 24  1  0  0  0  0
 23 52  1  0  0  0  0
 24 25  1  0  0  0  0
 24 53  1  0  0  0  0
 24 54  1  0  0  0  0
 25 26  1  0  0  0  0
 25 55  1  0  0  0  0
 25 56  1  0  0  0  0
 26 27  1  0  0  0  0
 26 28  1  0  0  0  0
 26 64  1  0  0  0  0
 27 57  1  0  0  0  0
 27 58  1  0  0  0  0
 27 59  1  0  0  0  0
 28 29  1  0  0  0  0
 28 60  1  0  0  0  0
 28 61  1  0  0  0  0
 29 62  1  0  0  0  0
 29 63  1  0  0  0  0
M  CHG  1  26   1
M  END
> <s_m_source_file>
AV-unprocessed.smi

> <i_m_source_file_index>
81

> <i_lp_mmshare_version>
43012

> <i_f3d_flags>
0

> <s_epik_input>
W0NIMl0xW0NIMl1OKFtDSDNdKVtDSDJdW0NIMl1bQ0hdMU4oW0NIMl1bQ0hdKFtDSDNdKVtDSDNdKWMobltjSF1uMiljKGMyMyluW2NIXW4zW0NIMl1bQ0BAXTQoW09IXSlbQ0gyXVtDSDJdT1tDQEhdNFtDSDNd

> <s_epik_cmdline>
J2VwaWtfcHl0aG9uJywgJy1waCcsICc3LjAnLCAnLXRuJywgJzgnLCAnLW1hJywgJzIwMCcsICctbWV0YWxfYmluZGluZycsICctaW1hZScsICc8aW5maWxlLm1hZT4nLCAnLW9tYWUnLCAnPG91dGZpbGUubWFlPic=

> <r_lp_tautomer_probability>
1

> <r_epik_Ionization_Penalty>
0.00272708

> <r_epik_Ionization_Penalty_Charging>
0.00158983

> <r_epik_Ionization_Penalty_Neutral>
0.00113725

> <r_epik_State_Penalty>
-0

> <r_epik_Charging_Adjusted_Penalty>
0.00158983

> <i_epik_Tot_Q>
1

> <i_epik_Tot_abs_Q>
1

> <r_epik_Metal_State_Penalty>
-0

> <b_epik_Metal_Only>
0

> <s_lp_Force_Field>
OPLS_2005

> <r_lp_Energy>
44.8479

> <b_lp_Chiralities_Consistent>
1

> <s_lp_Variant>
AV-unprocessed.smi:81-1

> <Gold.Version>
5.8.1

> <Gold.Id.Protein>
6NUR|6NUR_protein|mol2

> <Gold.PLP.Fitness>
42.7131

> <Gold.PLP.PLP>
-33.0165

> <Gold.PLP.part.hbond>
-3.9192

> <Gold.PLP.part.metal>
0.0000

> <Gold.PLP.part.buried>
-2.8050

> <Gold.PLP.part.nonpolar>
-26.3365

> <Gold.PLP.part.repulsive>
0.3117

> <Gold.PLP.ligand.clash>
0.0000

> <Gold.PLP.ligand.torsion>
1.1761

> <Gold.PLP.Chemscore.Hbond>
2.8324

> <Gold.PLP.Chemscore.CHOScore>
0.8704

> <Gold.PLP.Chemscore.Metal>
0.0000

> <Gold.Chemscore.Hbonds>
donor molecule, donor type, donor heavy atom, donor atom, acceptor molecule, acceptor atom, score
      L1  H    17    43       P1  7948  0.21
      L1  C    13    40       P1  7949  0.57

> <Gold.PLP.Chemscore.Internal.Correction>
0.9401

> <Gold.Rescore>
     Score         DG    S(hbond)    S(metal)    S(lipo)     H(rot)  DE(clash)    DE(int)     intcor
     13.32     -17.37       2.26        0.00      93.62       2.58       1.43       2.62       ----

> <Gold.Chemscore.Fitness>
13.3157

> <Gold.Chemscore.DG>
-17.3708

> <Gold.Chemscore.ZeroCoef>
-5.4800

> <Gold.Chemscore.Hbond>
2.2562

> <Gold.Chemscore.Metal>
0.0000

> <Gold.Chemscore.Lipo>
93.6174

> <Gold.Chemscore.Internal_Hbond>
0.0000

> <Gold.Chemscore.DEClash>
1.4325

> <Gold.Chemscore.DEInternal>
2.6225

> <Gold.Chemscore.Rot>
2.5774

> <Gold.Chemscore.Internal.Correction>
   9.000000E+99

> <Gold.Chemscore.Hbonds>
donor molecule, donor type, donor heavy atom, donor atom, acceptor molecule, acceptor atom, score
      L1  H    17    43       P1  7948  0.01
      L1  H    26    64       P1 10747  0.06

> <Gold.Chemscore.Hbond.Weighted>
-7.5358

> <Gold.Chemscore.Metal.Weighted>
-0.0000

> <Gold.Chemscore.Lipo.Weighted>
-10.9532

> <Gold.Chemscore.Internal_Hbond.Weighted>
0.0000

> <Gold.Chemscore.DEClash.Weighted>
1.4325

> <Gold.Chemscore.DEInternal.Weighted>
2.6225

> <Gold.Chemscore.Rot.Weighted>
6.5982

> <Gold.Chemscore.Internal.Correction.Weighted>
   9.000000E+99

> <Gold.Protein.RotatedTorsions>
[ 6907 6896 6895 6894 ] final   51.04 input  -60.11 | X-H torsion
[ 7974 7965 7964 7962 ] final  -85.96 input  175.53 | X-H torsion
[ 8008 7997 7996 7995 ] final -177.21 input   59.86 | X-H torsion
[ 10167 10162 10161 10158 ] final  -47.11 input  -65.29 | X-H torsion
[ 10718 10713 10712 10709 ] final  -77.26 input   66.30 | X-H torsion
[ 10763 10752 10751 10750 ] final -100.55 input  -60.55 | X-H torsion
[ 11005 11000 10999 10996 ] final  -86.42 input  -57.11 | X-H torsion

> <Gold.Protein.ActiveResidues>
 VAL166  LYS551  ARG553  GLY616  TRP617  ASP618  TYR619  PRO620  LYS621  CYS622 
 ASP623  PHE694  ASN695  SER759  ASP760  ASP761  ALA762  ILE779  LEU786  VAL792 
 PHE793  MET794  SER795  GLU796  ALA797  LYS798  CYS799  TRP800  GLU811  SER814 

> <Gold.Protein.RotatedAtoms>
  152.3084  134.7527  160.0341 H   0  0  0  0  0  0  0  0  0  0  0  0  # atno 6907 bound_to 6896
  151.8016  133.3365  159.3537 H   0  0  0  0  0  0  0  0  0  0  0  0  # atno 6908 bound_to 6896
  150.7308  134.5678  159.5919 H   0  0  0  0  0  0  0  0  0  0  0  0  # atno 6909 bound_to 6896
  145.4862  140.9555  143.1837 H   0  0  0  0  0  0  0  0  0  0  0  0  # atno 7974 bound_to 7965
  156.0042  140.1227  157.0518 H   0  0  0  0  0  0  0  0  0  0  0  0  # atno 8008 bound_to 7997
  154.4253  140.1101  156.5808 H   0  0  0  0  0  0  0  0  0  0  0  0  # atno 8009 bound_to 7997
  155.6170  140.3472  155.4642 H   0  0  0  0  0  0  0  0  0  0  0  0  # atno 8010 bound_to 7997
  140.6789  143.2799  151.3880 H   0  0  0  0  0  0  0  0  0  0  0  0  # atno 10167 bound_to 10162
  156.0150  130.4487  150.3318 H   0  0  0  0  0  0  0  0  0  0  0  0  # atno 10718 bound_to 10713
  154.7588  135.4931  153.9424 H   0  0  0  0  0  0  0  0  0  0  0  0  # atno 10763 bound_to 10752
  153.1227  135.6735  153.9317 H   0  0  0  0  0  0  0  0  0  0  0  0  # atno 10764 bound_to 10752
  153.9044  135.3106  155.3427 H   0  0  0  0  0  0  0  0  0  0  0  0  # atno 10765 bound_to 10752
  141.1630  133.7453  156.9158 H   0  0  0  0  0  0  0  0  0  0  0  0  # atno 11005 bound_to 11000
  144.7860  139.6426  143.7134 LP  0  0  0  0  0  0  0  0  0  0  0  0  # atno 17320 bound_to 7965
  146.2311  139.5816  142.9554 LP  0  0  0  0  0  0  0  0  0  0  0  0  # atno 17321 bound_to 7965
  139.6098  144.1122  152.2287 LP  0  0  0  0  0  0  0  0  0  0  0  0  # atno 17342 bound_to 10162
  140.0532  144.5916  150.7320 LP  0  0  0  0  0  0  0  0  0  0  0  0  # atno 17343 bound_to 10162
  157.1416  131.0298  151.2925 LP  0  0  0  0  0  0  0  0  0  0  0  0  # atno 17370 bound_to 10713
  157.4467  130.7575  149.7115 LP  0  0  0  0  0  0  0  0  0  0  0  0  # atno 17371 bound_to 10713
  140.1485  134.9246  157.2562 LP  0  0  0  0  0  0  0  0  0  0  0  0  # atno 17394 bound_to 11000
  140.2751  134.3415  155.7361 LP  0  0  0  0  0  0  0  0  0  0  0  0  # atno 17395 bound_to 11000

$$$$
