AV-unprocessed.smi:332|AV-procd|sdf|2357|dock5
  -GOLD-   2262022273D 1   1.00000     0.00000
 Structure written by MMmdl.
 42 44  0  0  0  0  0  0  0  0  1 V2000
  148.6591  145.3594  160.8259 C   0  0  0  0  0  0  0  0  0  0  0  0
  148.9563  144.2556  159.7980 C   0  0  1  0  0  0  0  0  0  0  0  0
  147.8017  144.0967  158.9158 N   0  0  0  0  0  0  0  0  0  0  0  0
  146.7844  143.2406  159.0967 C   0  0  0  0  0  0  0  0  0  0  0  0
  146.7111  142.4702  160.0552 O   0  0  0  0  0  0  0  0  0  0  0  0
  145.6904  143.2757  158.0190 C   0  0  0  0  0  0  0  0  0  0  0  0
  146.1738  142.9351  156.6702 N   0  0  0  0  0  0  0  0  0  0  0  0
  147.3162  142.1139  156.5901 C   0  0  0  0  0  0  0  0  0  0  0  0
  147.8435  141.7432  155.4126 C   0  0  0  0  0  0  0  0  0  0  0  0
  147.2068  142.2081  154.2033 C   0  0  0  0  0  0  0  0  0  0  0  0
  146.1113  142.9907  154.2682 C   0  0  0  0  0  0  0  0  0  0  0  0
  145.5314  143.3986  155.5533 C   0  0  0  0  0  0  0  0  0  0  0  0
  144.5303  144.1123  155.6214 O   0  0  0  0  0  0  0  0  0  0  0  0
  150.2113  144.5574  158.9455 C   0  0  2  0  0  0  0  0  0  0  0  0
  150.8031  143.3306  158.2129 C   0  0  0  0  0  0  0  0  0  0  0  0
  152.2999  143.4032  158.5675 C   0  0  2  0  0  0  0  0  0  0  0  0
  152.4912  142.9747  160.0339 C   0  0  0  0  0  0  0  0  0  0  0  0
  151.9279  144.1773  160.8123 C   0  0  0  0  0  0  0  0  0  0  0  0
  151.4490  145.1199  159.6888 C   0  0  1  0  0  0  0  0  0  0  0  0
  152.5403  144.9066  158.6442 C   0  0  0  0  0  0  0  0  0  0  0  0
  149.4742  145.4654  161.5415 H   0  0  0  0  0  0  0  0  0  0  0  0
  147.7572  145.1330  161.3956 H   0  0  0  0  0  0  0  0  0  0  0  0
  148.5126  146.3252  160.3409 H   0  0  0  0  0  0  0  0  0  0  0  0
  149.1176  143.3213  160.3366 H   0  0  0  0  0  0  0  0  0  0  0  0
  147.7754  144.6892  158.0987 H   0  0  0  0  0  0  0  0  0  0  0  0
  144.8853  142.6013  158.3160 H   0  0  0  0  0  0  0  0  0  0  0  0
  145.2403  144.2697  158.0155 H   0  0  0  0  0  0  0  0  0  0  0  0
  147.7279  141.8035  157.5397 H   0  0  0  0  0  0  0  0  0  0  0  0
  148.7183  141.1111  155.3708 H   0  0  0  0  0  0  0  0  0  0  0  0
  147.6096  141.9258  153.2418 H   0  0  0  0  0  0  0  0  0  0  0  0
  145.6472  143.3273  153.3526 H   0  0  0  0  0  0  0  0  0  0  0  0
  149.9272  145.2934  158.1907 H   0  0  0  0  0  0  0  0  0  0  0  0
  150.3597  142.3863  158.5325 H   0  0  0  0  0  0  0  0  0  0  0  0
  150.6502  143.4178  157.1365 H   0  0  0  0  0  0  0  0  0  0  0  0
  152.9417  142.8664  157.8683 H   0  0  0  0  0  0  0  0  0  0  0  0
  151.9680  142.0463  160.2662 H   0  0  0  0  0  0  0  0  0  0  0  0
  153.5475  142.8303  160.2645 H   0  0  0  0  0  0  0  0  0  0  0  0
  151.1424  143.8991  161.5135 H   0  0  0  0  0  0  0  0  0  0  0  0
  152.7204  144.6533  161.3916 H   0  0  0  0  0  0  0  0  0  0  0  0
  151.3320  146.1553  160.0098 H   0  0  0  0  0  0  0  0  0  0  0  0
  153.5389  145.1679  158.9990 H   0  0  0  0  0  0  0  0  0  0  0  0
  152.3496  145.4239  157.7022 H   0  0  0  0  0  0  0  0  0  0  0  0
  1  2  1  0  0  0  0
  1 21  1  0  0  0  0
  1 22  1  0  0  0  0
  1 23  1  0  0  0  0
  2  3  1  0  0  0  0
  2 14  1  0  0  0  0
  2 24  1  0  0  0  0
  3  4  1  0  0  0  0
  3 25  1  0  0  0  0
  4  5  2  0  0  0  0
  4  6  1  0  0  0  0
  6  7  1  0  0  0  0
  6 26  1  0  0  0  0
  6 27  1  0  0  0  0
  7 12  1  0  0  0  0
  7  8  1  0  0  0  0
  8  9  2  0  0  0  0
  8 28  1  0  0  0  0
  9 10  1  0  0  0  0
  9 29  1  0  0  0  0
 10 11  2  0  0  0  0
 10 30  1  0  0  0  0
 11 12  1  0  0  0  0
 11 31  1  0  0  0  0
 12 13  2  0  0  0  0
 14 19  1  0  0  0  0
 14 15  1  0  0  0  0
 14 32  1  0  0  0  0
 15 16  1  0  0  0  0
 15 33  1  0  0  0  0
 15 34  1  0  0  0  0
 16 20  1  0  0  0  0
 16 17  1  0  0  0  0
 16 35  1  0  0  0  0
 17 18  1  0  0  0  0
 17 36  1  0  0  0  0
 17 37  1  0  0  0  0
 18 19  1  0  0  0  0
 18 38  1  0  0  0  0
 18 39  1  0  0  0  0
 19 20  1  0  0  0  0
 19 40  1  0  0  0  0
 20 41  1  0  0  0  0
 20 42  1  0  0  0  0
M  END
> <s_m_source_file>
AV-unprocessed.smi

> <i_m_source_file_index>
332

> <i_lp_mmshare_version>
43012

> <i_f3d_flags>
0

> <s_epik_input>
W0NIMl0xW0NIMl1bQ0BIXShbQ0gyXTIpW0NAQEhdKFtDSDJdW0NAQEhdMTIpW0NASF0oW0NIM10pW05IXUMoPU8pW0NIMl1uM1tjSF1bY0hdW2NIXVtjSF1jMz1P

> <s_epik_cmdline>
J2VwaWtfcHl0aG9uJywgJy1waCcsICc3LjAnLCAnLXRuJywgJzgnLCAnLW1hJywgJzIwMCcsICctbWV0YWxfYmluZGluZycsICctaW1hZScsICc8aW5maWxlLm1hZT4nLCAnLW9tYWUnLCAnPG91dGZpbGUubWFlPic=

> <r_lp_tautomer_probability>
1

> <r_epik_Ionization_Penalty>
4.05802e-07

> <r_epik_Ionization_Penalty_Charging>
3.84175e-07

> <r_epik_Ionization_Penalty_Neutral>
2.16269e-08

> <r_epik_State_Penalty>
-0

> <r_epik_Charging_Adjusted_Penalty>
3.84175e-07

> <i_epik_Tot_Q>
0

> <i_epik_Tot_abs_Q>
0

> <r_epik_Metal_State_Penalty>
-0

> <b_epik_Metal_Only>
0

> <s_lp_Force_Field>
OPLS_2005

> <r_lp_Energy>
60.6372

> <b_lp_Chiralities_Consistent>
1

> <s_lp_Variant>
AV-unprocessed.smi:332-6

> <Gold.Version>
5.8.1

> <Gold.Id.Protein>
6NUR|6NUR_protein|mol2

> <Gold.PLP.Fitness>
49.0432

> <Gold.PLP.PLP>
-43.8107

> <Gold.PLP.part.hbond>
-2.8374

> <Gold.PLP.part.metal>
0.0000

> <Gold.PLP.part.buried>
-3.5342

> <Gold.PLP.part.nonpolar>
-37.2698

> <Gold.PLP.part.repulsive>
0.2398

> <Gold.PLP.ligand.clash>
0.0000

> <Gold.PLP.ligand.torsion>
0.9828

> <Gold.PLP.Chemscore.Hbond>
2.3937

> <Gold.PLP.Chemscore.CHOScore>
0.0000

> <Gold.PLP.Chemscore.Metal>
0.0000

> <Gold.Chemscore.Hbonds>
donor molecule, donor type, donor heavy atom, donor atom, acceptor molecule, acceptor atom, score
      L1  H     3    25       P1  8029  0.93
      P1  H  6933  6944       L1     5  0.31
      P1  H  6934  6946       L1     5  1.00

> <Gold.PLP.Chemscore.Internal.Correction>
0.0169

> <Gold.Rescore>
     Score         DG    S(hbond)    S(metal)    S(lipo)     H(rot)  DE(clash)    DE(int)     intcor
     21.66     -22.75       2.53        0.00     108.98       1.54       0.40       0.68       ----

> <Gold.Chemscore.Fitness>
21.6646

> <Gold.Chemscore.DG>
-22.7453

> <Gold.Chemscore.ZeroCoef>
-5.4800

> <Gold.Chemscore.Hbond>
2.5320

> <Gold.Chemscore.Metal>
0.0000

> <Gold.Chemscore.Lipo>
108.9780

> <Gold.Chemscore.Internal_Hbond>
0.0000

> <Gold.Chemscore.DEClash>
0.3988

> <Gold.Chemscore.DEInternal>
0.6819

> <Gold.Chemscore.Rot>
1.5398

> <Gold.Chemscore.Internal.Correction>
   9.000000E+99

> <Gold.Chemscore.Hbonds>
donor molecule, donor type, donor heavy atom, donor atom, acceptor molecule, acceptor atom, score
      L1  H     3    25       P1  8029  0.62
      P1  H  6933  6944       L1     5  0.29
      P1  H  6934  6946       L1     5  0.97

> <Gold.Chemscore.Hbond.Weighted>
-8.4568

> <Gold.Chemscore.Metal.Weighted>
-0.0000

> <Gold.Chemscore.Lipo.Weighted>
-12.7504

> <Gold.Chemscore.Internal_Hbond.Weighted>
0.0000

> <Gold.Chemscore.DEClash.Weighted>
0.3988

> <Gold.Chemscore.DEInternal.Weighted>
0.6819

> <Gold.Chemscore.Rot.Weighted>
3.9419

> <Gold.Chemscore.Internal.Correction.Weighted>
   9.000000E+99

> <Gold.Protein.RotatedTorsions>
[ 6907 6896 6895 6894 ] final  -51.48 input  -60.11 | X-H torsion
[ 7974 7965 7964 7962 ] final  -37.52 input  175.53 | X-H torsion
[ 8008 7997 7996 7995 ] final   72.22 input   59.86 | X-H torsion
[ 10167 10162 10161 10158 ] final   92.61 input  -65.29 | X-H torsion
[ 10718 10713 10712 10709 ] final -112.38 input   66.30 | X-H torsion
[ 10763 10752 10751 10750 ] final  142.98 input  -60.55 | X-H torsion
[ 11005 11000 10999 10996 ] final   79.47 input  -57.11 | X-H torsion

> <Gold.Protein.ActiveResidues>
 VAL166  LYS551  ARG553  GLY616  TRP617  ASP618  TYR619  PRO620  LYS621  CYS622 
 ASP623  PHE694  ASN695  SER759  ASP760  ASP761  ALA762  ILE779  LEU786  VAL792 
 PHE793  MET794  SER795  GLU796  ALA797  LYS798  CYS799  TRP800  GLU811  SER814 

> <Gold.Protein.RotatedAtoms>
  150.8607  134.7958  159.7080 H   0  0  0  0  0  0  0  0  0  0  0  0  # atno 6907 bound_to 6896
  152.4645  134.5104  159.9762 H   0  0  0  0  0  0  0  0  0  0  0  0  # atno 6908 bound_to 6896
  151.5209  133.3428  159.2937 H   0  0  0  0  0  0  0  0  0  0  0  0  # atno 6909 bound_to 6896
  146.0567  140.6406  142.9016 H   0  0  0  0  0  0  0  0  0  0  0  0  # atno 7974 bound_to 7965
  155.7655  140.3485  155.5220 H   0  0  0  0  0  0  0  0  0  0  0  0  # atno 8008 bound_to 7997
  155.8872  140.1012  157.1465 H   0  0  0  0  0  0  0  0  0  0  0  0  # atno 8009 bound_to 7997
  154.4030  140.1311  156.4258 H   0  0  0  0  0  0  0  0  0  0  0  0  # atno 8010 bound_to 7997
  139.8260  144.6709  150.9459 H   0  0  0  0  0  0  0  0  0  0  0  0  # atno 10167 bound_to 10162
  156.0702  130.5917  150.8500 H   0  0  0  0  0  0  0  0  0  0  0  0  # atno 10718 bound_to 10713
  153.9647  135.2956  155.3431 H   0  0  0  0  0  0  0  0  0  0  0  0  # atno 10763 bound_to 10752
  154.7355  135.5048  153.9038 H   0  0  0  0  0  0  0  0  0  0  0  0  # atno 10764 bound_to 10752
  153.0929  135.6713  153.9930 H   0  0  0  0  0  0  0  0  0  0  0  0  # atno 10765 bound_to 10752
  139.9171  134.7845  156.1783 H   0  0  0  0  0  0  0  0  0  0  0  0  # atno 11005 bound_to 11000
  144.7152  140.4183  143.7050 LP  0  0  0  0  0  0  0  0  0  0  0  0  # atno 17320 bound_to 7965
  145.6631  139.1585  143.2797 LP  0  0  0  0  0  0  0  0  0  0  0  0  # atno 17321 bound_to 7965
  140.7810  143.4046  151.1092 LP  0  0  0  0  0  0  0  0  0  0  0  0  # atno 17342 bound_to 10162
  139.7703  143.8503  152.3119 LP  0  0  0  0  0  0  0  0  0  0  0  0  # atno 17343 bound_to 10162
  157.5768  131.0946  150.9332 LP  0  0  0  0  0  0  0  0  0  0  0  0  # atno 17370 bound_to 10713
  156.9536  130.5429  149.5283 LP  0  0  0  0  0  0  0  0  0  0  0  0  # atno 17371 bound_to 10713
  141.0658  133.6820  156.2042 LP  0  0  0  0  0  0  0  0  0  0  0  0  # atno 17394 bound_to 11000
  140.6587  134.4990  157.5582 LP  0  0  0  0  0  0  0  0  0  0  0  0  # atno 17395 bound_to 11000

$$$$
