AV-unprocessed.smi:1868|AV-procd|sdf|7588|dock5
  -GOLD-   22720 9303D 1   1.00000     0.00000
 Structure written by MMmdl.
 48 50  0  0  0  0  0  0  0  0  3 V2000
  149.5755  140.8720  154.6910 C   0  0  0  0  0  0  0  0  0  0  0  0
  150.3227  141.3962  155.8711 C   0  0  0  0  0  0  0  0  0  0  0  0
  150.1552  142.6211  156.4446 N   0  3  0  0  0  0  0  0  0  0  0  0
  151.0244  142.7589  157.5276 C   0  0  0  0  0  0  0  0  0  0  0  0
  151.2180  143.8149  158.4126 C   0  0  0  0  0  0  0  0  0  0  0  0
  152.1916  143.6291  159.4159 C   0  0  0  0  0  0  0  0  0  0  0  0
  152.9286  142.4305  159.5113 C   0  0  0  0  0  0  0  0  0  0  0  0
  152.7239  141.3666  158.6077 C   0  0  0  0  0  0  0  0  0  0  0  0
  151.7594  141.5589  157.6190 C   0  0  0  0  0  0  0  0  0  0  0  0
  151.2952  140.7492  156.5764 N   0  0  0  0  0  0  0  0  0  0  0  0
  151.8698  139.4063  156.3981 C   0  0  0  0  0  0  0  0  0  0  0  0
  150.8030  138.3143  156.1784 C   0  0  2  0  0  0  0  0  0  0  0  0
  151.0687  137.2302  157.0486 O   0  0  0  0  0  0  0  0  0  0  0  0
  150.8114  137.8093  154.7203 C   0  0  0  0  0  0  0  0  0  0  0  0
  149.8867  136.6691  154.4872 N   0  3  2  0  0  0  0  0  0  0  0  0
  148.6125  136.8225  155.2363 C   0  0  0  0  0  0  0  0  0  0  0  0
  147.6154  135.7084  154.8761 C   0  0  0  0  0  0  0  0  0  0  0  0
  148.2176  134.3166  155.1295 C   0  0  1  0  0  0  0  0  0  0  0  0
  147.2421  133.1954  154.7451 C   0  0  0  0  0  0  0  0  0  0  0  0
  149.5503  134.1978  154.3716 C   0  0  0  0  0  0  0  0  0  0  0  0
  150.5088  135.3421  154.7425 C   0  0  0  0  0  0  0  0  0  0  0  0
  148.8244  141.5909  154.3624 H   0  0  0  0  0  0  0  0  0  0  0  0
  149.0727  139.9393  154.9467 H   0  0  0  0  0  0  0  0  0  0  0  0
  150.2605  140.6840  153.8641 H   0  0  0  0  0  0  0  0  0  0  0  0
  150.6539  144.7335  158.3427 H   0  0  0  0  0  0  0  0  0  0  0  0
  152.3761  144.4214  160.1271 H   0  0  0  0  0  0  0  0  0  0  0  0
  153.6647  142.3250  160.2951 H   0  0  0  0  0  0  0  0  0  0  0  0
  153.2926  140.4526  158.6903 H   0  0  0  0  0  0  0  0  0  0  0  0
  152.5691  139.4419  155.5618 H   0  0  0  0  0  0  0  0  0  0  0  0
  152.4655  139.1809  157.2833 H   0  0  0  0  0  0  0  0  0  0  0  0
  149.8287  138.7257  156.4380 H   0  0  0  0  0  0  0  0  0  0  0  0
  151.9344  137.3324  157.4131 H   0  0  0  0  0  0  0  0  0  0  0  0
  150.5537  138.6189  154.0354 H   0  0  0  0  0  0  0  0  0  0  0  0
  151.8311  137.5136  154.4667 H   0  0  0  0  0  0  0  0  0  0  0  0
  148.8155  136.8152  156.3083 H   0  0  0  0  0  0  0  0  0  0  0  0
  148.1625  137.7889  155.0057 H   0  0  0  0  0  0  0  0  0  0  0  0
  146.7016  135.8322  155.4587 H   0  0  0  0  0  0  0  0  0  0  0  0
  147.3275  135.8028  153.8280 H   0  0  0  0  0  0  0  0  0  0  0  0
  148.4240  134.2238  156.1969 H   0  0  0  0  0  0  0  0  0  0  0  0
  146.9928  133.2318  153.6841 H   0  0  0  0  0  0  0  0  0  0  0  0
  146.3117  133.2738  155.3083 H   0  0  0  0  0  0  0  0  0  0  0  0
  147.6700  132.2144  154.9532 H   0  0  0  0  0  0  0  0  0  0  0  0
  150.0215  133.2398  154.5942 H   0  0  0  0  0  0  0  0  0  0  0  0
  149.3689  134.2089  153.2958 H   0  0  0  0  0  0  0  0  0  0  0  0
  151.4248  135.2305  154.1642 H   0  0  0  0  0  0  0  0  0  0  0  0
  150.7902  135.2667  155.7941 H   0  0  0  0  0  0  0  0  0  0  0  0
  149.6383  136.6974  153.5089 H   0  0  0  0  0  0  0  0  0  0  0  0
  149.4921  143.3119  156.1172 H   0  0  0  0  0  0  0  0  0  0  0  0
  1  2  1  0  0  0  0
  1 22  1  0  0  0  0
  1 23  1  0  0  0  0
  1 24  1  0  0  0  0
  2 10  1  0  0  0  0
  2  3  2  0  0  0  0
  3  4  1  0  0  0  0
  3 48  1  0  0  0  0
  4  9  2  0  0  0  0
  4  5  1  0  0  0  0
  5  6  2  0  0  0  0
  5 25  1  0  0  0  0
  6  7  1  0  0  0  0
  6 26  1  0  0  0  0
  7  8  2  0  0  0  0
  7 27  1  0  0  0  0
  8  9  1  0  0  0  0
  8 28  1  0  0  0  0
  9 10  1  0  0  0  0
 10 11  1  0  0  0  0
 11 12  1  0  0  0  0
 11 29  1  0  0  0  0
 11 30  1  0  0  0  0
 12 13  1  0  0  0  0
 12 14  1  0  0  0  0
 12 31  1  0  0  0  0
 13 32  1  0  0  0  0
 14 15  1  0  0  0  0
 14 33  1  0  0  0  0
 14 34  1  0  0  0  0
 15 21  1  0  0  0  0
 15 16  1  0  0  0  0
 15 47  1  0  0  0  0
 16 17  1  0  0  0  0
 16 35  1  0  0  0  0
 16 36  1  0  0  0  0
 17 18  1  0  0  0  0
 17 37  1  0  0  0  0
 17 38  1  0  0  0  0
 18 19  1  0  0  0  0
 18 20  1  0  0  0  0
 18 39  1  0  0  0  0
 19 40  1  0  0  0  0
 19 41  1  0  0  0  0
 19 42  1  0  0  0  0
 20 21  1  0  0  0  0
 20 43  1  0  0  0  0
 20 44  1  0  0  0  0
 21 45  1  0  0  0  0
 21 46  1  0  0  0  0
M  CHG  1   3   1
M  CHG  1  15   1
M  END
> <s_m_source_file>
AV-unprocessed.smi

> <i_m_source_file_index>
1868

> <i_lp_mmshare_version>
43012

> <i_f3d_flags>
0

> <s_epik_input>
W2NIXTFbY0hdW2NIXVtjSF1jKGMxMiluKGMobjIpW0NIM10pW0NIMl1bQ0BIXShbT0hdKVtDSDJdTjNbQ0gyXVtDSDJdW0NIXShbQ0gzXSlbQ0gyXVtDSDJdMw==

> <s_epik_cmdline>
J2VwaWtfcHl0aG9uJywgJy1waCcsICc3LjAnLCAnLXRuJywgJzgnLCAnLW1hJywgJzIwMCcsICctbWV0YWxfYmluZGluZycsICctaW1hZScsICc8aW5maWxlLm1hZT4nLCAnLW9tYWUnLCAnPG91dGZpbGUubWFlPic=

> <r_epik_Ionization_Penalty>
1.10901

> <r_epik_Ionization_Penalty_Charging>
1.10901

> <r_epik_Ionization_Penalty_Neutral>
6.90208e-07

> <r_epik_State_Penalty>
1.18788

> <r_epik_Charging_Adjusted_Penalty>
2.29689

> <i_epik_Tot_Q>
2

> <i_epik_Tot_abs_Q>
2

> <r_epik_Metal_State_Penalty>
5.19353

> <b_epik_Metal_Only>
0

> <s_lp_Force_Field>
OPLS_2005

> <r_lp_Energy>
30.2902

> <b_lp_Chiralities_Consistent>
1

> <s_lp_Variant>
AV-unprocessed.smi:1868-5

> <Gold.Version>
5.8.1

> <Gold.Id.Protein>
6NUR|6NUR_protein|mol2

> <Gold.PLP.Fitness>
47.2286

> <Gold.PLP.PLP>
-37.4717

> <Gold.PLP.part.hbond>
-2.0000

> <Gold.PLP.part.metal>
0.0000

> <Gold.PLP.part.buried>
-3.9730

> <Gold.PLP.part.nonpolar>
-31.7351

> <Gold.PLP.part.repulsive>
0.1185

> <Gold.PLP.ligand.clash>
0.0000

> <Gold.PLP.ligand.torsion>
1.1437

> <Gold.PLP.Chemscore.Hbond>
4.0000

> <Gold.PLP.Chemscore.CHOScore>
0.0000

> <Gold.PLP.Chemscore.Metal>
0.0000

> <Gold.Chemscore.Hbonds>
donor molecule, donor type, donor heavy atom, donor atom, acceptor molecule, acceptor atom, score
      L1  H     3    48       P1  8028  2.00
      L1  H    15    47       P1  7948  2.00

> <Gold.PLP.Chemscore.Internal.Correction>
0.0443

> <Gold.Rescore>
     Score         DG    S(hbond)    S(metal)    S(lipo)     H(rot)  DE(clash)    DE(int)     intcor
     17.54     -18.79       1.92        0.00     102.50       1.99       0.13       1.12       ----

> <Gold.Chemscore.Fitness>
17.5358

> <Gold.Chemscore.DG>
-18.7873

> <Gold.Chemscore.ZeroCoef>
-5.4800

> <Gold.Chemscore.Hbond>
1.9161

> <Gold.Chemscore.Metal>
0.0000

> <Gold.Chemscore.Lipo>
102.4995

> <Gold.Chemscore.Internal_Hbond>
0.0000

> <Gold.Chemscore.DEClash>
0.1328

> <Gold.Chemscore.DEInternal>
1.1187

> <Gold.Chemscore.Rot>
1.9863

> <Gold.Chemscore.Internal.Correction>
   9.000000E+99

> <Gold.Chemscore.Hbonds>
donor molecule, donor type, donor heavy atom, donor atom, acceptor molecule, acceptor atom, score
      L1  H     3    48       P1  8028  0.98
      L1  H    15    47       P1  7948  0.60

> <Gold.Chemscore.Hbond.Weighted>
-6.3999

> <Gold.Chemscore.Metal.Weighted>
-0.0000

> <Gold.Chemscore.Lipo.Weighted>
-11.9924

> <Gold.Chemscore.Internal_Hbond.Weighted>
0.0000

> <Gold.Chemscore.DEClash.Weighted>
0.1328

> <Gold.Chemscore.DEInternal.Weighted>
1.1187

> <Gold.Chemscore.Rot.Weighted>
5.0850

> <Gold.Chemscore.Internal.Correction.Weighted>
   9.000000E+99

> <Gold.Protein.RotatedTorsions>
[ 6907 6896 6895 6894 ] final   91.72 input  -60.11 | X-H torsion
[ 7974 7965 7964 7962 ] final  125.84 input  175.53 | X-H torsion
[ 8008 7997 7996 7995 ] final  -48.11 input   59.86 | X-H torsion
[ 10167 10162 10161 10158 ] final   49.76 input  -65.29 | X-H torsion
[ 10718 10713 10712 10709 ] final -178.31 input   66.30 | X-H torsion
[ 10763 10752 10751 10750 ] final  133.71 input  -60.55 | X-H torsion
[ 11005 11000 10999 10996 ] final  135.79 input  -57.11 | X-H torsion

> <Gold.Protein.ActiveResidues>
 VAL166  LYS551  ARG553  GLY616  TRP617  ASP618  TYR619  PRO620  LYS621  CYS622 
 ASP623  PHE694  ASN695  SER759  ASP760  ASP761  ALA762  ILE779  LEU786  VAL792 
 PHE793  MET794  SER795  GLU796  ALA797  LYS798  CYS799  TRP800  GLU811  SER814 

> <Gold.Protein.RotatedAtoms>
  152.5451  134.1614  159.8558 H   0  0  0  0  0  0  0  0  0  0  0  0  # atno 6907 bound_to 6896
  151.1632  133.4825  159.2601 H   0  0  0  0  0  0  0  0  0  0  0  0  # atno 6908 bound_to 6896
  151.1352  135.0162  159.8655 H   0  0  0  0  0  0  0  0  0  0  0  0  # atno 6909 bound_to 6896
  145.0685  139.3749  143.4970 H   0  0  0  0  0  0  0  0  0  0  0  0  # atno 7974 bound_to 7965
  154.4025  140.1329  156.4286 H   0  0  0  0  0  0  0  0  0  0  0  0  # atno 8008 bound_to 7997
  155.7573  140.3487  155.5160 H   0  0  0  0  0  0  0  0  0  0  0  0  # atno 8009 bound_to 7997
  155.8893  140.1000  157.1420 H   0  0  0  0  0  0  0  0  0  0  0  0  # atno 8010 bound_to 7997
  140.2795  144.3173  150.6268 H   0  0  0  0  0  0  0  0  0  0  0  0  # atno 10167 bound_to 10162
  156.8424  130.9691  151.3099 H   0  0  0  0  0  0  0  0  0  0  0  0  # atno 10718 bound_to 10713
  153.8115  135.3128  155.3401 H   0  0  0  0  0  0  0  0  0  0  0  0  # atno 10763 bound_to 10752
  154.8049  135.4704  154.0371 H   0  0  0  0  0  0  0  0  0  0  0  0  # atno 10764 bound_to 10752
  153.1750  135.6884  153.8644 H   0  0  0  0  0  0  0  0  0  0  0  0  # atno 10765 bound_to 10752
  140.0003  134.9481  157.0056 H   0  0  0  0  0  0  0  0  0  0  0  0  # atno 11005 bound_to 11000
  146.3528  140.0418  142.8642 LP  0  0  0  0  0  0  0  0  0  0  0  0  # atno 17320 bound_to 7965
  145.1321  140.9524  143.4538 LP  0  0  0  0  0  0  0  0  0  0  0  0  # atno 17321 bound_to 7965
  140.5823  143.2172  151.7405 LP  0  0  0  0  0  0  0  0  0  0  0  0  # atno 17342 bound_to 10162
  139.4966  144.4062  152.0130 LP  0  0  0  0  0  0  0  0  0  0  0  0  # atno 17343 bound_to 10162
  157.6348  130.8758  149.9339 LP  0  0  0  0  0  0  0  0  0  0  0  0  # atno 17370 bound_to 10713
  156.0873  130.3667  150.0463 LP  0  0  0  0  0  0  0  0  0  0  0  0  # atno 17371 bound_to 10713
  140.4741  134.1356  155.7207 LP  0  0  0  0  0  0  0  0  0  0  0  0  # atno 17394 bound_to 11000
  141.1636  133.8745  157.1778 LP  0  0  0  0  0  0  0  0  0  0  0  0  # atno 17395 bound_to 11000

$$$$
