AV-unprocessed.smi:2630|AV-procd|sdf|10247|dock6
  -GOLD-   2272014253D 1   1.00000     0.00000
 Structure written by MMmdl.
 34 35  0  0  0  0  0  0  0  0  2 V2000
  147.5447  136.1004  162.4914 C   0  0  0  0  0  0  0  0  0  0  0  0
  147.6438  136.9360  161.3524 O   0  0  0  0  0  0  0  0  0  0  0  0
  148.2789  136.2955  160.2586 C   0  0  0  0  0  0  0  0  0  0  0  0
  147.9172  137.0155  158.9482 C   0  0  0  0  0  0  0  0  0  0  0  0
  149.1111  137.2749  158.1153 N   0  0  0  0  0  0  0  0  0  0  0  0
  149.3765  138.6043  157.6922 C   0  0  0  0  0  0  0  0  0  0  0  0
  148.5217  139.6322  158.0555 N   0  0  0  0  0  0  0  0  0  0  0  0
  150.4710  138.8540  156.9390 C   0  0  0  0  0  0  0  0  0  0  0  0
  150.9786  140.4485  156.3339 S   0  0  0  0  0  0  0  0  0  0  0  0
  151.5689  141.1957  157.8169 C   0  0  0  0  0  0  0  0  0  0  0  0
  151.2064  142.5209  158.1298 C   0  0  0  0  0  0  0  0  0  0  0  0
  151.6749  143.1146  159.3183 C   0  0  0  0  0  0  0  0  0  0  0  0
  152.5056  142.3845  160.1913 C   0  0  0  0  0  0  0  0  0  0  0  0
  152.8693  141.0604  159.8760 C   0  0  0  0  0  0  0  0  0  0  0  0
  152.4017  140.4653  158.6881 C   0  0  0  0  0  0  0  0  0  0  0  0
  151.3739  137.7668  156.5559 C   0  0  0  0  0  0  0  0  0  0  0  0
  152.3689  137.9766  155.8605 O   0  0  0  0  0  0  0  0  0  0  0  0
  151.0566  136.5234  157.0085 N   0  5  0  0  0  0  0  0  0  0  0  0
  149.9604  136.2526  157.7784 C   0  0  0  0  0  0  0  0  0  0  0  0
  149.7190  135.1122  158.1758 O   0  0  0  0  0  0  0  0  0  0  0  0
  147.0483  136.6397  163.2980 H   0  0  0  0  0  0  0  0  0  0  0  0
  148.5306  135.7972  162.8453 H   0  0  0  0  0  0  0  0  0  0  0  0
  146.9590  135.2062  162.2743 H   0  0  0  0  0  0  0  0  0  0  0  0
  149.3598  136.3258  160.4024 H   0  0  0  0  0  0  0  0  0  0  0  0
  147.9893  135.2446  160.2121 H   0  0  0  0  0  0  0  0  0  0  0  0
  147.1593  136.4405  158.4141 H   0  0  0  0  0  0  0  0  0  0  0  0
  147.4112  137.9540  159.1749 H   0  0  0  0  0  0  0  0  0  0  0  0
  147.7025  139.4626  158.6211 H   0  0  0  0  0  0  0  0  0  0  0  0
  148.7450  140.5985  157.8666 H   0  0  0  0  0  0  0  0  0  0  0  0
  150.5685  143.0821  157.4630 H   0  0  0  0  0  0  0  0  0  0  0  0
  151.3968  144.1295  159.5606 H   0  0  0  0  0  0  0  0  0  0  0  0
  152.8636  142.8397  161.1029 H   0  0  0  0  0  0  0  0  0  0  0  0
  153.5057  140.5002  160.5450 H   0  0  0  0  0  0  0  0  0  0  0  0
  152.6795  139.4490  158.4494 H   0  0  0  0  0  0  0  0  0  0  0  0
  1  2  1  0  0  0  0
  1 21  1  0  0  0  0
  1 22  1  0  0  0  0
  1 23  1  0  0  0  0
  2  3  1  0  0  0  0
  3  4  1  0  0  0  0
  3 24  1  0  0  0  0
  3 25  1  0  0  0  0
  4  5  1  0  0  0  0
  4 26  1  0  0  0  0
  4 27  1  0  0  0  0
  5 19  1  0  0  0  0
  5  6  1  0  0  0  0
  6  7  1  0  0  0  0
  6  8  2  0  0  0  0
  7 28  1  0  0  0  0
  7 29  1  0  0  0  0
  8  9  1  0  0  0  0
  8 16  1  0  0  0  0
  9 10  1  0  0  0  0
 10 15  1  0  0  0  0
 10 11  2  0  0  0  0
 11 12  1  0  0  0  0
 11 30  1  0  0  0  0
 12 13  2  0  0  0  0
 12 31  1  0  0  0  0
 13 14  1  0  0  0  0
 13 32  1  0  0  0  0
 14 15  2  0  0  0  0
 14 33  1  0  0  0  0
 15 34  1  0  0  0  0
 16 17  2  0  0  0  0
 16 18  1  0  0  0  0
 18 19  1  0  0  0  0
 19 20  2  0  0  0  0
M  CHG  1  18  -1
M  END
> <s_m_source_file>
AV-unprocessed.smi

> <i_m_source_file_index>
2630

> <i_lp_mmshare_version>
43012

> <i_f3d_flags>
0

> <s_epik_input>
W0NIM11PW0NIMl1bQ0gyXW4xYyhbTkgyXSljKGMoPU8pW25IXWMxPU8pU2MyW2NIXVtjSF1bY0hdW2NIXVtjSF0y

> <s_epik_cmdline>
J2VwaWtfcHl0aG9uJywgJy1waCcsICc3LjAnLCAnLXRuJywgJzgnLCAnLW1hJywgJzIwMCcsICctbWV0YWxfYmluZGluZycsICctaW1hZScsICc8aW5maWxlLm1hZT4nLCAnLW9tYWUnLCAnPG91dGZpbGUubWFlPic=

> <r_lp_tautomer_probability>
1

> <r_epik_Ionization_Penalty>
6.52921

> <r_epik_Ionization_Penalty_Charging>
0.111036

> <r_epik_Ionization_Penalty_Neutral>
6.41817

> <r_epik_State_Penalty>
6.41816

> <r_epik_Charging_Adjusted_Penalty>
6.5292

> <i_epik_Tot_Q>
-1

> <i_epik_Tot_abs_Q>
1

> <r_epik_Metal_State_Penalty>
2.337

> <b_epik_Metal_Only>
1

> <s_epik_Chemistry_Notes>
This compound has an imine and may undergo hydrolysis.

> <s_lp_Force_Field>
OPLS_2005

> <r_lp_Energy>
30.4306

> <b_lp_Chiralities_Consistent>
1

> <s_lp_Variant>
AV-unprocessed.smi:2630-2

> <Gold.Version>
5.8.1

> <Gold.Id.Protein>
6NUR|6NUR_protein|mol2

> <Gold.PLP.Fitness>
39.3317

> <Gold.PLP.PLP>
-32.4085

> <Gold.PLP.part.hbond>
-3.0000

> <Gold.PLP.part.metal>
0.0000

> <Gold.PLP.part.buried>
-4.9520

> <Gold.PLP.part.nonpolar>
-24.7501

> <Gold.PLP.part.repulsive>
0.1884

> <Gold.PLP.ligand.clash>
0.0000

> <Gold.PLP.ligand.torsion>
0.8054

> <Gold.PLP.Chemscore.Hbond>
2.8320

> <Gold.PLP.Chemscore.CHOScore>
0.0000

> <Gold.PLP.Chemscore.Metal>
0.0000

> <Gold.Chemscore.Hbonds>
donor molecule, donor type, donor heavy atom, donor atom, acceptor molecule, acceptor atom, score
      P1  H  6896  6907       L1    20  1.00
      P1  H  6931  6943       L1     2  1.00
      P1  H  6934  6947       L1     2  0.56

> <Gold.PLP.Chemscore.Internal.Correction>
0.0380

> <Gold.Rescore>
     Score         DG    S(hbond)    S(metal)    S(lipo)     H(rot)  DE(clash)    DE(int)     intcor
     14.50     -16.62       2.05        0.00      81.07       2.02       0.08       2.04       ----

> <Gold.Chemscore.Fitness>
14.4965

> <Gold.Chemscore.DG>
-16.6171

> <Gold.Chemscore.ZeroCoef>
-5.4800

> <Gold.Chemscore.Hbond>
2.0453

> <Gold.Chemscore.Metal>
0.0000

> <Gold.Chemscore.Lipo>
81.0733

> <Gold.Chemscore.Internal_Hbond>
0.0000

> <Gold.Chemscore.DEClash>
0.0766

> <Gold.Chemscore.DEInternal>
2.0440

> <Gold.Chemscore.Rot>
2.0234

> <Gold.Chemscore.Internal.Correction>
   9.000000E+99

> <Gold.Chemscore.Hbonds>
donor molecule, donor type, donor heavy atom, donor atom, acceptor molecule, acceptor atom, score
      P1  H  6896  6907       L1    20  0.95
      P1  H  6931  6943       L1     2  0.11
      P1  H  6934  6947       L1     2  0.46

> <Gold.Chemscore.Hbond.Weighted>
-6.8313

> <Gold.Chemscore.Metal.Weighted>
-0.0000

> <Gold.Chemscore.Lipo.Weighted>
-9.4856

> <Gold.Chemscore.Internal_Hbond.Weighted>
0.0000

> <Gold.Chemscore.DEClash.Weighted>
0.0766

> <Gold.Chemscore.DEInternal.Weighted>
2.0440

> <Gold.Chemscore.Rot.Weighted>
5.1798

> <Gold.Chemscore.Internal.Correction.Weighted>
   9.000000E+99

> <Gold.Protein.RotatedTorsions>
[ 6907 6896 6895 6894 ] final  -90.87 input  -60.11 | X-H torsion
[ 7974 7965 7964 7962 ] final   80.06 input  175.53 | X-H torsion
[ 8008 7997 7996 7995 ] final  -55.96 input   59.86 | X-H torsion
[ 10167 10162 10161 10158 ] final  124.60 input  -65.29 | X-H torsion
[ 10718 10713 10712 10709 ] final  -92.21 input   66.30 | X-H torsion
[ 10763 10752 10751 10750 ] final -103.22 input  -60.55 | X-H torsion
[ 11005 11000 10999 10996 ] final  -20.10 input  -57.11 | X-H torsion

> <Gold.Protein.ActiveResidues>
 VAL166  LYS551  ARG553  GLY616  TRP617  ASP618  TYR619  PRO620  LYS621  CYS622 
 ASP623  PHE694  ASN695  SER759  ASP760  ASP761  ALA762  ILE779  LEU786  VAL792 
 PHE793  MET794  SER795  GLU796  ALA797  LYS798  CYS799  TRP800  GLU811  SER814 

> <Gold.Protein.RotatedAtoms>
  150.6886  134.2365  159.4454 H   0  0  0  0  0  0  0  0  0  0  0  0  # atno 6907 bound_to 6896
  152.0312  134.9764  160.0582 H   0  0  0  0  0  0  0  0  0  0  0  0  # atno 6908 bound_to 6896
  152.1303  133.4369  159.4754 H   0  0  0  0  0  0  0  0  0  0  0  0  # atno 6909 bound_to 6896
  145.6561  139.2459  143.1949 H   0  0  0  0  0  0  0  0  0  0  0  0  # atno 7974 bound_to 7965
  154.4213  140.1141  156.5561 H   0  0  0  0  0  0  0  0  0  0  0  0  # atno 8008 bound_to 7997
  155.6360  140.3496  155.4679 H   0  0  0  0  0  0  0  0  0  0  0  0  # atno 8009 bound_to 7997
  155.9910  140.1179  157.0628 H   0  0  0  0  0  0  0  0  0  0  0  0  # atno 8010 bound_to 7997
  139.5732  144.6950  151.3722 H   0  0  0  0  0  0  0  0  0  0  0  0  # atno 10167 bound_to 10162
  156.0000  130.4978  150.5592 H   0  0  0  0  0  0  0  0  0  0  0  0  # atno 10718 bound_to 10713
  154.7792  135.4831  153.9808 H   0  0  0  0  0  0  0  0  0  0  0  0  # atno 10763 bound_to 10752
  153.1470  135.6784  153.8947 H   0  0  0  0  0  0  0  0  0  0  0  0  # atno 10764 bound_to 10752
  153.8604  135.3156  155.3416 H   0  0  0  0  0  0  0  0  0  0  0  0  # atno 10765 bound_to 10752
  140.8431  133.7911  155.9883 H   0  0  0  0  0  0  0  0  0  0  0  0  # atno 11005 bound_to 11000
  146.1164  140.7364  142.9478 LP  0  0  0  0  0  0  0  0  0  0  0  0  # atno 17320 bound_to 7965
  144.7105  140.4021  143.7084 LP  0  0  0  0  0  0  0  0  0  0  0  0  # atno 17321 bound_to 7965
  140.7016  143.7618  150.7412 LP  0  0  0  0  0  0  0  0  0  0  0  0  # atno 17342 bound_to 10162
  140.1130  143.4682  152.2359 LP  0  0  0  0  0  0  0  0  0  0  0  0  # atno 17343 bound_to 10162
  157.3503  131.0732  151.1718 LP  0  0  0  0  0  0  0  0  0  0  0  0  # atno 17370 bound_to 10713
  157.2537  130.6626  149.5943 LP  0  0  0  0  0  0  0  0  0  0  0  0  # atno 17371 bound_to 10713
  140.8873  134.2538  157.5113 LP  0  0  0  0  0  0  0  0  0  0  0  0  # atno 17394 bound_to 11000
  139.8703  134.9644  156.4495 LP  0  0  0  0  0  0  0  0  0  0  0  0  # atno 17395 bound_to 11000

$$$$
