AV-unprocessed.smi:2895|AV-procd|sdf|11129|dock5
  -GOLD-   2272016 03D 1   1.00000     0.00000
 Structure written by MMmdl.
 53 56  0  0  0  0  0  0  0  0  2 V2000
  150.8882  136.8624  158.8047 O   0  0  0  0  0  0  0  0  0  0  0  0
  150.0498  137.7419  158.6000 C   0  0  0  0  0  0  0  0  0  0  0  0
  148.7427  137.5444  158.8492 N   0  0  0  0  0  0  0  0  0  0  0  0
  148.1596  136.3137  159.3711 C   0  0  0  0  0  0  0  0  0  0  0  0
  147.8911  136.4137  160.8807 C   0  0  0  0  0  0  0  0  0  0  0  0
  146.9304  135.3435  161.3608 C   0  0  0  0  0  0  0  0  0  0  0  0
  145.6619  135.6894  161.8700 C   0  0  0  0  0  0  0  0  0  0  0  0
  144.8065  134.6552  162.3000 C   0  0  0  0  0  0  0  0  0  0  0  0
  145.1389  133.3471  162.2479 N   0  0  0  0  0  0  0  0  0  0  0  0
  146.3546  133.0239  161.7570 C   0  0  0  0  0  0  0  0  0  0  0  0
  147.2847  133.9799  161.3016 C   0  0  0  0  0  0  0  0  0  0  0  0
  150.3680  138.9803  158.1348 N   0  0  0  0  0  0  0  0  0  0  0  0
  149.3510  140.0131  157.8260 C   0  0  0  0  0  0  0  0  0  0  0  0
  149.8265  141.1056  156.8534 C   0  0  0  0  0  0  0  0  0  0  0  0
  151.1586  141.6417  157.2147 N   0  3  0  0  0  0  0  0  0  0  0  0
  151.2165  142.4258  158.4891 C   0  0  1  0  0  0  0  0  0  0  0  0
  152.6735  142.6991  158.9482 C   0  0  0  0  0  0  0  0  0  0  0  0
  152.7126  144.2239  159.1414 C   0  0  2  0  0  0  0  0  0  0  0  0
  151.8497  144.6174  160.3525 C   0  0  0  0  0  0  0  0  0  0  0  0
  150.4196  144.4010  159.8277 C   0  0  0  0  0  0  0  0  0  0  0  0
  150.6529  143.8716  158.3988 C   0  0  1  0  0  0  0  0  0  0  0  0
  151.8628  144.6937  157.9692 C   0  0  0  0  0  0  0  0  0  0  0  0
  152.1391  140.5325  157.1484 C   0  0  0  0  0  0  0  0  0  0  0  0
  151.7930  139.3757  158.1059 C   0  0  0  0  0  0  0  0  0  0  0  0
  148.1059  138.3070  158.6701 H   0  0  0  0  0  0  0  0  0  0  0  0
  147.2407  136.0729  158.8336 H   0  0  0  0  0  0  0  0  0  0  0  0
  148.8571  135.4999  159.1707 H   0  0  0  0  0  0  0  0  0  0  0  0
  148.8263  136.3227  161.4348 H   0  0  0  0  0  0  0  0  0  0  0  0
  147.4813  137.3940  161.1285 H   0  0  0  0  0  0  0  0  0  0  0  0
  145.3484  136.7213  161.9304 H   0  0  0  0  0  0  0  0  0  0  0  0
  143.8284  134.8849  162.6963 H   0  0  0  0  0  0  0  0  0  0  0  0
  146.5940  131.9712  161.7256 H   0  0  0  0  0  0  0  0  0  0  0  0
  148.2449  133.6706  160.9156 H   0  0  0  0  0  0  0  0  0  0  0  0
  148.4543  139.5748  157.3857 H   0  0  0  0  0  0  0  0  0  0  0  0
  149.0386  140.4700  158.7660 H   0  0  0  0  0  0  0  0  0  0  0  0
  149.8990  140.6749  155.8536 H   0  0  0  0  0  0  0  0  0  0  0  0
  149.0789  141.8896  156.7567 H   0  0  0  0  0  0  0  0  0  0  0  0
  150.6782  141.8773  159.2629 H   0  0  0  0  0  0  0  0  0  0  0  0
  152.9310  142.1567  159.8587 H   0  0  0  0  0  0  0  0  0  0  0  0
  153.4015  142.4249  158.1837 H   0  0  0  0  0  0  0  0  0  0  0  0
  153.7224  144.6341  159.1716 H   0  0  0  0  0  0  0  0  0  0  0  0
  152.0687  144.0097  161.2314 H   0  0  0  0  0  0  0  0  0  0  0  0
  152.0059  145.6634  160.6199 H   0  0  0  0  0  0  0  0  0  0  0  0
  149.8479  143.7074  160.4454 H   0  0  0  0  0  0  0  0  0  0  0  0
  149.8764  145.3466  159.8039 H   0  0  0  0  0  0  0  0  0  0  0  0
  149.7697  144.0062  157.7788 H   0  0  0  0  0  0  0  0  0  0  0  0
  151.6790  145.7695  157.9726 H   0  0  0  0  0  0  0  0  0  0  0  0
  152.2631  144.4016  156.9970 H   0  0  0  0  0  0  0  0  0  0  0  0
  152.1517  140.1533  156.1255 H   0  0  0  0  0  0  0  0  0  0  0  0
  153.1538  140.8810  157.3372 H   0  0  0  0  0  0  0  0  0  0  0  0
  152.0780  139.6512  159.1221 H   0  0  0  0  0  0  0  0  0  0  0  0
  152.4311  138.5323  157.8358 H   0  0  0  0  0  0  0  0  0  0  0  0
  151.4101  142.2911  156.4830 H   0  0  0  0  0  0  0  0  0  0  0  0
  1  2  2  0  0  0  0
  2  3  1  0  0  0  0
  2 12  1  0  0  0  0
  3  4  1  0  0  0  0
  3 25  1  0  0  0  0
  4  5  1  0  0  0  0
  4 26  1  0  0  0  0
  4 27  1  0  0  0  0
  5  6  1  0  0  0  0
  5 28  1  0  0  0  0
  5 29  1  0  0  0  0
  6 11  1  0  0  0  0
  6  7  2  0  0  0  0
  7  8  1  0  0  0  0
  7 30  1  0  0  0  0
  8  9  2  0  0  0  0
  8 31  1  0  0  0  0
  9 10  1  0  0  0  0
 10 11  2  0  0  0  0
 10 32  1  0  0  0  0
 11 33  1  0  0  0  0
 12 24  1  0  0  0  0
 12 13  1  0  0  0  0
 13 14  1  0  0  0  0
 13 34  1  0  0  0  0
 13 35  1  0  0  0  0
 14 15  1  0  0  0  0
 14 36  1  0  0  0  0
 14 37  1  0  0  0  0
 15 16  1  0  0  0  0
 15 23  1  0  0  0  0
 15 53  1  0  0  0  0
 16 21  1  0  0  0  0
 16 17  1  0  0  0  0
 16 38  1  0  0  0  0
 17 18  1  0  0  0  0
 17 39  1  0  0  0  0
 17 40  1  0  0  0  0
 18 22  1  0  0  0  0
 18 19  1  0  0  0  0
 18 41  1  0  0  0  0
 19 20  1  0  0  0  0
 19 42  1  0  0  0  0
 19 43  1  0  0  0  0
 20 21  1  0  0  0  0
 20 44  1  0  0  0  0
 20 45  1  0  0  0  0
 21 22  1  0  0  0  0
 21 46  1  0  0  0  0
 22 47  1  0  0  0  0
 22 48  1  0  0  0  0
 23 24  1  0  0  0  0
 23 49  1  0  0  0  0
 23 50  1  0  0  0  0
 24 51  1  0  0  0  0
 24 52  1  0  0  0  0
M  CHG  1  15   1
M  END
> <s_m_source_file>
AV-unprocessed.smi

> <i_m_source_file_index>
2895

> <i_lp_mmshare_version>
43012

> <i_f3d_flags>
0

> <s_epik_input>
W0NIMl0xW0NIMl1bQ0BASF0oW0NIMl0yKVtDQEBIXShbQ0gyXVtDQEhdMTIpTihbQ0gyXVtDSDJdMylbQ0gyXVtDSDJdTjNDKD1PKVtOSF1bQ0gyXVtDSDJdYzRbY0hdW2NIXW5bY0hdW2NIXTQ=

> <s_epik_cmdline>
J2VwaWtfcHl0aG9uJywgJy1waCcsICc3LjAnLCAnLXRuJywgJzgnLCAnLW1hJywgJzIwMCcsICctbWV0YWxfYmluZGluZycsICctaW1hZScsICc8aW5maWxlLm1hZT4nLCAnLW9tYWUnLCAnPG91dGZpbGUubWFlPic=

> <r_epik_Ionization_Penalty>
0.0566172

> <r_epik_Ionization_Penalty_Charging>
0.00262064

> <r_epik_Ionization_Penalty_Neutral>
0.0539965

> <r_epik_State_Penalty>
0.0463959

> <r_epik_Charging_Adjusted_Penalty>
0.0490165

> <i_epik_Tot_Q>
1

> <i_epik_Tot_abs_Q>
1

> <r_epik_Metal_State_Penalty>
0.0424856

> <b_epik_Metal_Only>
0

> <s_lp_Force_Field>
OPLS_2005

> <r_lp_Energy>
101.263

> <b_lp_Chiralities_Consistent>
1

> <s_lp_Variant>
AV-unprocessed.smi:2895-2

> <Gold.Version>
5.8.1

> <Gold.Id.Protein>
6NUR|6NUR_protein|mol2

> <Gold.PLP.Fitness>
51.9352

> <Gold.PLP.PLP>
-50.2922

> <Gold.PLP.part.hbond>
-1.3898

> <Gold.PLP.part.metal>
0.0000

> <Gold.PLP.part.buried>
-6.6997

> <Gold.PLP.part.nonpolar>
-41.0234

> <Gold.PLP.part.repulsive>
0.3552

> <Gold.PLP.ligand.clash>
0.3384

> <Gold.PLP.ligand.torsion>
0.5758

> <Gold.PLP.Chemscore.Hbond>
1.0000

> <Gold.PLP.Chemscore.CHOScore>
0.0000

> <Gold.PLP.Chemscore.Metal>
0.0000

> <Gold.Chemscore.Hbonds>
donor molecule, donor type, donor heavy atom, donor atom, acceptor molecule, acceptor atom, score
      P1  H  6896  6907       L1     1  0.88

> <Gold.PLP.Chemscore.Internal.Correction>
0.1330

> <Gold.Rescore>
     Score         DG    S(hbond)    S(metal)    S(lipo)     H(rot)  DE(clash)    DE(int)     intcor
     22.01     -22.37       0.98        0.00     146.27       1.37       0.05       0.30       ----

> <Gold.Chemscore.Fitness>
22.0066

> <Gold.Chemscore.DG>
-22.3654

> <Gold.Chemscore.ZeroCoef>
-5.4800

> <Gold.Chemscore.Hbond>
0.9843

> <Gold.Chemscore.Metal>
0.0000

> <Gold.Chemscore.Lipo>
146.2650

> <Gold.Chemscore.Internal_Hbond>
0.0000

> <Gold.Chemscore.DEClash>
0.0541

> <Gold.Chemscore.DEInternal>
0.3047

> <Gold.Chemscore.Rot>
1.3731

> <Gold.Chemscore.Internal.Correction>
   9.000000E+99

> <Gold.Chemscore.Hbonds>
donor molecule, donor type, donor heavy atom, donor atom, acceptor molecule, acceptor atom, score
      P1  H  6896  6907       L1     1  0.81

> <Gold.Chemscore.Hbond.Weighted>
-3.2875

> <Gold.Chemscore.Metal.Weighted>
-0.0000

> <Gold.Chemscore.Lipo.Weighted>
-17.1130

> <Gold.Chemscore.Internal_Hbond.Weighted>
0.0000

> <Gold.Chemscore.DEClash.Weighted>
0.0541

> <Gold.Chemscore.DEInternal.Weighted>
0.3047

> <Gold.Chemscore.Rot.Weighted>
3.5152

> <Gold.Chemscore.Internal.Correction.Weighted>
   9.000000E+99

> <Gold.Protein.RotatedTorsions>
[ 6907 6896 6895 6894 ] final  -32.72 input  -60.11 | X-H torsion
[ 7974 7965 7964 7962 ] final  -15.15 input  175.53 | X-H torsion
[ 8008 7997 7996 7995 ] final  -73.25 input   59.86 | X-H torsion
[ 10167 10162 10161 10158 ] final   26.83 input  -65.29 | X-H torsion
[ 10718 10713 10712 10709 ] final   72.16 input   66.30 | X-H torsion
[ 10763 10752 10751 10750 ] final  129.41 input  -60.55 | X-H torsion
[ 11005 11000 10999 10996 ] final   39.21 input  -57.11 | X-H torsion

> <Gold.Protein.ActiveResidues>
 VAL166  LYS551  ARG553  GLY616  TRP617  ASP618  TYR619  PRO620  LYS621  CYS622 
 ASP623  PHE694  ASN695  SER759  ASP760  ASP761  ALA762  ILE779  LEU786  VAL792 
 PHE793  MET794  SER795  GLU796  ALA797  LYS798  CYS799  TRP800  GLU811  SER814 

> <Gold.Protein.RotatedAtoms>
  151.0751  134.9823  159.8327 H   0  0  0  0  0  0  0  0  0  0  0  0  # atno 6907 bound_to 6896
  152.5413  134.2251  159.8813 H   0  0  0  0  0  0  0  0  0  0  0  0  # atno 6908 bound_to 6896
  151.2278  133.4423  159.2636 H   0  0  0  0  0  0  0  0  0  0  0  0  # atno 6909 bound_to 6896
  146.2044  140.3452  142.8412 H   0  0  0  0  0  0  0  0  0  0  0  0  # atno 7974 bound_to 7965
  154.5232  140.0782  156.8211 H   0  0  0  0  0  0  0  0  0  0  0  0  # atno 8008 bound_to 7997
  155.3531  140.3414  155.4221 H   0  0  0  0  0  0  0  0  0  0  0  0  # atno 8009 bound_to 7997
  156.1704  140.1618  156.8445 H   0  0  0  0  0  0  0  0  0  0  0  0  # atno 8010 bound_to 7997
  140.4989  144.0346  150.6325 H   0  0  0  0  0  0  0  0  0  0  0  0  # atno 10167 bound_to 10162
  157.6487  130.9565  150.0890 H   0  0  0  0  0  0  0  0  0  0  0  0  # atno 10718 bound_to 10713
  153.7413  135.3224  155.3304 H   0  0  0  0  0  0  0  0  0  0  0  0  # atno 10763 bound_to 10752
  154.8294  135.4545  154.1024 H   0  0  0  0  0  0  0  0  0  0  0  0  # atno 10764 bound_to 10752
  153.2200  135.6947  153.8094 H   0  0  0  0  0  0  0  0  0  0  0  0  # atno 10765 bound_to 10752
  140.2050  134.3824  155.8077 H   0  0  0  0  0  0  0  0  0  0  0  0  # atno 11005 bound_to 11000
  144.8757  140.7334  143.6018 LP  0  0  0  0  0  0  0  0  0  0  0  0  # atno 17320 bound_to 7965
  145.3372  139.1742  143.4505 LP  0  0  0  0  0  0  0  0  0  0  0  0  # atno 17321 bound_to 7965
  140.3637  143.2893  152.0355 LP  0  0  0  0  0  0  0  0  0  0  0  0  # atno 17342 bound_to 10162
  139.4867  144.6283  151.7120 LP  0  0  0  0  0  0  0  0  0  0  0  0  # atno 17343 bound_to 10162
  156.1844  130.3651  149.8992 LP  0  0  0  0  0  0  0  0  0  0  0  0  # atno 17370 bound_to 10713
  156.6936  130.8905  151.3591 LP  0  0  0  0  0  0  0  0  0  0  0  0  # atno 17371 bound_to 10713
  141.2227  133.7113  156.8322 LP  0  0  0  0  0  0  0  0  0  0  0  0  # atno 17394 bound_to 11000
  140.2012  134.8895  157.3171 LP  0  0  0  0  0  0  0  0  0  0  0  0  # atno 17395 bound_to 11000

$$$$
