AV-unprocessed.smi:2969|AV-procd|sdf|11330|dock10
  -GOLD-   2272016243D 1   1.00000     0.00000
 Structure written by MMmdl.
 39 39  0  0  0  0  0  0  0  0  2 V2000
  147.6503  141.7540  154.4597 C   0  0  0  0  0  0  0  0  0  0  0  0
  148.3519  141.0102  155.6039 C   0  0  0  0  0  0  0  0  0  0  0  0
  148.3172  139.4719  155.4799 C   0  0  0  0  0  0  0  0  0  0  0  0
  148.8867  138.7837  156.6613 N   0  0  0  0  0  0  0  0  0  0  0  0
  148.1043  137.7983  157.3224 C   0  0  0  0  0  0  0  0  0  0  0  0
  146.8389  137.5039  156.8359 N   0  0  0  0  0  0  0  0  0  0  0  0
  148.5943  137.1662  158.4218 C   0  0  0  0  0  0  0  0  0  0  0  0
  147.8701  136.1749  159.1082 N   0  0  0  0  0  0  0  0  0  0  0  0
  147.4922  134.9824  158.3326 C   0  0  0  0  0  0  0  0  0  0  0  0
  148.4470  134.7156  157.1508 C   0  0  0  0  0  0  0  0  0  0  0  0
  149.5744  133.9490  157.5503 O   0  0  0  0  0  0  0  0  0  0  0  0
  150.3359  133.4345  156.4687 C   0  0  0  0  0  0  0  0  0  0  0  0
  147.6249  136.2427  160.4450 C   0  0  0  0  0  0  0  0  0  0  0  0
  147.9540  137.2266  161.1116 O   0  0  0  0  0  0  0  0  0  0  0  0
  146.9349  135.0714  161.1771 C   0  0  0  0  0  0  0  0  0  0  0  0
  145.6939  134.9071  160.7212 F   0  0  0  0  0  0  0  0  0  0  0  0
  147.6317  133.9469  161.0144 F   0  0  0  0  0  0  0  0  0  0  0  0
  146.8699  135.3365  162.4832 F   0  0  0  0  0  0  0  0  0  0  0  0
  149.9497  137.4886  158.8813 C   0  0  0  0  0  0  0  0  0  0  0  0
  150.4268  136.9033  159.8538 O   0  0  0  0  0  0  0  0  0  0  0  0
  150.6387  138.4402  158.1989 N   0  5  0  0  0  0  0  0  0  0  0  0
  150.1422  139.0958  157.1111 C   0  0  0  0  0  0  0  0  0  0  0  0
  150.7959  139.9625  156.5293 O   0  0  0  0  0  0  0  0  0  0  0  0
  147.6480  142.8287  154.6409 H   0  0  0  0  0  0  0  0  0  0  0  0
  146.6142  141.4308  154.3571 H   0  0  0  0  0  0  0  0  0  0  0  0
  148.1523  141.5838  153.5070 H   0  0  0  0  0  0  0  0  0  0  0  0
  149.3825  141.3581  155.6747 H   0  0  0  0  0  0  0  0  0  0  0  0
  147.8775  141.2926  156.5441 H   0  0  0  0  0  0  0  0  0  0  0  0
  147.2899  139.1429  155.3214 H   0  0  0  0  0  0  0  0  0  0  0  0
  148.8169  139.1791  154.5557 H   0  0  0  0  0  0  0  0  0  0  0  0
  146.4556  137.9685  156.0255 H   0  0  0  0  0  0  0  0  0  0  0  0
  146.2616  136.7919  157.2600 H   0  0  0  0  0  0  0  0  0  0  0  0
  147.4847  134.1048  158.9817 H   0  0  0  0  0  0  0  0  0  0  0  0
  146.4635  135.0936  157.9879 H   0  0  0  0  0  0  0  0  0  0  0  0
  147.9370  134.2367  156.3138 H   0  0  0  0  0  0  0  0  0  0  0  0
  148.8270  135.6650  156.7758 H   0  0  0  0  0  0  0  0  0  0  0  0
  151.2024  132.9004  156.8582 H   0  0  0  0  0  0  0  0  0  0  0  0
  150.7005  134.2367  155.8259 H   0  0  0  0  0  0  0  0  0  0  0  0
  149.7626  132.7340  155.8620 H   0  0  0  0  0  0  0  0  0  0  0  0
  1  2  1  0  0  0  0
  1 24  1  0  0  0  0
  1 25  1  0  0  0  0
  1 26  1  0  0  0  0
  2  3  1  0  0  0  0
  2 27  1  0  0  0  0
  2 28  1  0  0  0  0
  3  4  1  0  0  0  0
  3 29  1  0  0  0  0
  3 30  1  0  0  0  0
  4 22  1  0  0  0  0
  4  5  1  0  0  0  0
  5  6  1  0  0  0  0
  5  7  2  0  0  0  0
  6 31  1  0  0  0  0
  6 32  1  0  0  0  0
  7  8  1  0  0  0  0
  7 19  1  0  0  0  0
  8  9  1  0  0  0  0
  8 13  1  0  0  0  0
  9 10  1  0  0  0  0
  9 33  1  0  0  0  0
  9 34  1  0  0  0  0
 10 11  1  0  0  0  0
 10 35  1  0  0  0  0
 10 36  1  0  0  0  0
 11 12  1  0  0  0  0
 12 37  1  0  0  0  0
 12 38  1  0  0  0  0
 12 39  1  0  0  0  0
 13 14  2  0  0  0  0
 13 15  1  0  0  0  0
 15 16  1  0  0  0  0
 15 17  1  0  0  0  0
 15 18  1  0  0  0  0
 19 20  2  0  0  0  0
 19 21  1  0  0  0  0
 21 22  1  0  0  0  0
 22 23  2  0  0  0  0
M  CHG  1  21  -1
M  END
> <s_m_source_file>
AV-unprocessed.smi

> <i_m_source_file_index>
2969

> <i_lp_mmshare_version>
43012

> <i_f3d_flags>
0

> <s_epik_input>
W0NIM11bQ0gyXVtDSDJdbjFjKFtOSDJdKWMoYyg9TylbbkhdYzE9TylOKEMoPU8pQyhGKShGKUYpW0NIMl1bQ0gyXU9bQ0gzXQ==

> <s_epik_cmdline>
J2VwaWtfcHl0aG9uJywgJy1waCcsICc3LjAnLCAnLXRuJywgJzgnLCAnLW1hJywgJzIwMCcsICctbWV0YWxfYmluZGluZycsICctaW1hZScsICc8aW5maWxlLm1hZT4nLCAnLW9tYWUnLCAnPG91dGZpbGUubWFlPic=

> <r_lp_tautomer_probability>
1

> <r_epik_Ionization_Penalty>
4.29138

> <r_epik_Ionization_Penalty_Charging>
0.0262752

> <r_epik_Ionization_Penalty_Neutral>
4.26511

> <r_epik_State_Penalty>
4.26466

> <r_epik_Charging_Adjusted_Penalty>
4.29094

> <i_epik_Tot_Q>
-1

> <i_epik_Tot_abs_Q>
1

> <r_epik_Metal_State_Penalty>
0.502851

> <b_epik_Metal_Only>
1

> <s_epik_Chemistry_Notes>
This compound has an imine and may undergo hydrolysis.

> <s_lp_Force_Field>
OPLS_2005

> <r_lp_Energy>
42.256

> <b_lp_Chiralities_Consistent>
1

> <s_lp_Variant>
AV-unprocessed.smi:2969-2

> <Gold.Version>
5.8.1

> <Gold.Id.Protein>
6NUR|6NUR_protein|mol2

> <Gold.PLP.Fitness>
35.0534

> <Gold.PLP.PLP>
-26.1144

> <Gold.PLP.part.hbond>
-4.2259

> <Gold.PLP.part.metal>
0.0000

> <Gold.PLP.part.buried>
-4.1066

> <Gold.PLP.part.nonpolar>
-18.0105

> <Gold.PLP.part.repulsive>
0.0000

> <Gold.PLP.ligand.clash>
4.2858

> <Gold.PLP.ligand.torsion>
1.7204

> <Gold.PLP.Chemscore.Hbond>
3.6720

> <Gold.PLP.Chemscore.CHOScore>
0.0000

> <Gold.PLP.Chemscore.Metal>
0.0000

> <Gold.Chemscore.Hbonds>
donor molecule, donor type, donor heavy atom, donor atom, acceptor molecule, acceptor atom, score
      P1  H  6896  6908       L1    11  0.83
      P1  H  6896  6909       L1    20  0.83
      P1  H  6931  6943       L1    14  0.96
      P1  H  6934  6947       L1    14  0.74

> <Gold.PLP.Chemscore.Internal.Correction>
5.6496

> <Gold.Rescore>
     Score         DG    S(hbond)    S(metal)    S(lipo)     H(rot)  DE(clash)    DE(int)     intcor
      8.71     -15.20       3.46        0.00      33.35       2.24       0.01       6.49       ----

> <Gold.Chemscore.Fitness>
8.7068

> <Gold.Chemscore.DG>
-15.2019

> <Gold.Chemscore.ZeroCoef>
-5.4800

> <Gold.Chemscore.Hbond>
3.4567

> <Gold.Chemscore.Metal>
0.0000

> <Gold.Chemscore.Lipo>
33.3522

> <Gold.Chemscore.Internal_Hbond>
0.0000

> <Gold.Chemscore.DEClash>
0.0093

> <Gold.Chemscore.DEInternal>
6.4858

> <Gold.Chemscore.Rot>
2.2366

> <Gold.Chemscore.Internal.Correction>
   9.000000E+99

> <Gold.Chemscore.Hbonds>
donor molecule, donor type, donor heavy atom, donor atom, acceptor molecule, acceptor atom, score
      P1  H  6896  6908       L1    11  0.45
      P1  H  6896  6909       L1    20  0.79
      P1  H  6931  6943       L1    14  0.92
      P1  H  6934  6947       L1    14  0.73

> <Gold.Chemscore.Hbond.Weighted>
-11.5454

> <Gold.Chemscore.Metal.Weighted>
-0.0000

> <Gold.Chemscore.Lipo.Weighted>
-3.9022

> <Gold.Chemscore.Internal_Hbond.Weighted>
0.0000

> <Gold.Chemscore.DEClash.Weighted>
0.0093

> <Gold.Chemscore.DEInternal.Weighted>
6.4858

> <Gold.Chemscore.Rot.Weighted>
5.7257

> <Gold.Chemscore.Internal.Correction.Weighted>
   9.000000E+99

> <Gold.Protein.RotatedTorsions>
[ 6907 6896 6895 6894 ] final  119.79 input  -60.11 | X-H torsion
[ 7974 7965 7964 7962 ] final  155.31 input  175.53 | X-H torsion
[ 8008 7997 7996 7995 ] final  -55.63 input   59.86 | X-H torsion
[ 10167 10162 10161 10158 ] final  156.20 input  -65.29 | X-H torsion
[ 10718 10713 10712 10709 ] final -111.70 input   66.30 | X-H torsion
[ 10763 10752 10751 10750 ] final   95.36 input  -60.55 | X-H torsion
[ 11005 11000 10999 10996 ] final  162.44 input  -57.11 | X-H torsion

> <Gold.Protein.ActiveResidues>
 VAL166  LYS551  ARG553  GLY616  TRP617  ASP618  TYR619  PRO620  LYS621  CYS622 
 ASP623  PHE694  ASN695  SER759  ASP760  ASP761  ALA762  ILE779  LEU786  VAL792 
 PHE793  MET794  SER795  GLU796  ALA797  LYS798  CYS799  TRP800  GLU811  SER814 

> <Gold.Protein.RotatedAtoms>
  152.4446  133.7511  159.6694 H   0  0  0  0  0  0  0  0  0  0  0  0  # atno 6907 bound_to 6896
  150.8343  133.8029  159.3092 H   0  0  0  0  0  0  0  0  0  0  0  0  # atno 6908 bound_to 6896
  151.5674  135.1066  160.0039 H   0  0  0  0  0  0  0  0  0  0  0  0  # atno 6909 bound_to 6896
  144.8033  139.7051  143.6173 H   0  0  0  0  0  0  0  0  0  0  0  0  # atno 7974 bound_to 7965
  154.4202  140.1148  156.5508 H   0  0  0  0  0  0  0  0  0  0  0  0  # atno 8008 bound_to 7997
  155.6412  140.3496  155.4696 H   0  0  0  0  0  0  0  0  0  0  0  0  # atno 8009 bound_to 7997
  155.9869  140.1171  157.0664 H   0  0  0  0  0  0  0  0  0  0  0  0  # atno 8010 bound_to 7997
  139.4821  144.5030  151.8139 H   0  0  0  0  0  0  0  0  0  0  0  0  # atno 10167 bound_to 10162
  156.0662  130.5881  150.8409 H   0  0  0  0  0  0  0  0  0  0  0  0  # atno 10718 bound_to 10713
  153.2523  135.4257  155.0810 H   0  0  0  0  0  0  0  0  0  0  0  0  # atno 10763 bound_to 10752
  154.8386  135.3429  154.6495 H   0  0  0  0  0  0  0  0  0  0  0  0  # atno 10764 bound_to 10752
  153.6916  135.7033  153.5145 H   0  0  0  0  0  0  0  0  0  0  0  0  # atno 10765 bound_to 10752
  140.2257  134.8162  157.3266 H   0  0  0  0  0  0  0  0  0  0  0  0  # atno 11005 bound_to 11000
  146.2319  139.5830  142.9550 LP  0  0  0  0  0  0  0  0  0  0  0  0  # atno 17320 bound_to 7965
  145.5500  141.0414  143.2283 LP  0  0  0  0  0  0  0  0  0  0  0  0  # atno 17321 bound_to 7965
  140.4525  144.1835  150.5898 LP  0  0  0  0  0  0  0  0  0  0  0  0  # atno 17342 bound_to 10162
  140.4569  143.2464  151.9272 LP  0  0  0  0  0  0  0  0  0  0  0  0  # atno 17343 bound_to 10162
  157.5705  131.0946  150.9424 LP  0  0  0  0  0  0  0  0  0  0  0  0  # atno 17370 bound_to 10713
  156.9641  130.5466  149.5287 LP  0  0  0  0  0  0  0  0  0  0  0  0  # atno 17371 bound_to 10713
  140.1802  134.4499  155.7776 LP  0  0  0  0  0  0  0  0  0  0  0  0  # atno 17394 bound_to 11000
  141.2221  133.6980  156.7856 LP  0  0  0  0  0  0  0  0  0  0  0  0  # atno 17395 bound_to 11000

$$$$
