AV-unprocessed.smi:3168|AV-procd|sdf|12099|dock6
  -GOLD-   2272017533D 1   1.00000     0.00000
 Structure written by MMmdl.
 33 34  0  0  0  0  0  0  0  0  1 V2000
  150.4939  137.4233  155.0807 C   0  0  0  0  0  0  0  0  0  0  0  0
  150.9125  138.8427  154.6441 C   0  0  2  0  0  0  0  0  0  0  0  0
  151.8928  139.5098  155.6247 C   0  0  0  0  0  0  0  0  0  0  0  0
  153.0846  139.6315  155.3389 O   0  0  0  0  0  0  0  0  0  0  0  0
  151.3685  139.9504  156.7800 N   0  0  0  0  0  0  0  0  0  0  0  0
  152.1071  140.6113  157.8511 C   0  0  0  0  0  0  0  0  0  0  0  0
  151.3508  141.8345  158.3959 C   0  0  2  0  0  0  0  0  0  0  0  0
  151.2928  143.0367  157.4510 C   0  0  0  0  0  0  0  0  0  0  0  0
  151.1234  144.1809  158.4230 C   0  0  0  0  0  0  0  0  0  0  0  0
  152.0299  143.7433  159.5686 C   0  0  0  0  0  0  0  0  0  0  0  0
  151.9857  142.3186  159.5772 O   0  0  0  0  0  0  0  0  0  0  0  0
  149.7580  139.7024  154.4056 N   0  0  0  0  0  0  0  0  0  0  0  0
  148.6624  139.4485  153.6054 C   0  0  0  0  0  0  0  0  0  0  0  0
  147.8521  140.5461  153.6570 C   0  0  0  0  0  0  0  0  0  0  0  0
  148.5481  141.4391  154.5178 C   0  0  0  0  0  0  0  0  0  0  0  0
  149.6895  140.9361  154.9584 N   0  0  0  0  0  0  0  0  0  0  0  0
  151.3619  136.7716  155.1864 H   0  0  0  0  0  0  0  0  0  0  0  0
  149.8340  136.9686  154.3415 H   0  0  0  0  0  0  0  0  0  0  0  0
  149.9660  137.4272  156.0351 H   0  0  0  0  0  0  0  0  0  0  0  0
  151.4390  138.7426  153.6935 H   0  0  0  0  0  0  0  0  0  0  0  0
  150.3805  139.8105  156.9328 H   0  0  0  0  0  0  0  0  0  0  0  0
  152.2446  139.8851  158.6525 H   0  0  0  0  0  0  0  0  0  0  0  0
  153.1089  140.8946  157.5242 H   0  0  0  0  0  0  0  0  0  0  0  0
  150.3342  141.5490  158.6716 H   0  0  0  0  0  0  0  0  0  0  0  0
  152.2334  143.1479  156.9091 H   0  0  0  0  0  0  0  0  0  0  0  0
  150.4842  142.9691  156.7228 H   0  0  0  0  0  0  0  0  0  0  0  0
  151.4014  145.1479  158.0033 H   0  0  0  0  0  0  0  0  0  0  0  0
  150.0877  144.2368  158.7606 H   0  0  0  0  0  0  0  0  0  0  0  0
  153.0576  144.0551  159.3790 H   0  0  0  0  0  0  0  0  0  0  0  0
  151.7206  144.1596  160.5275 H   0  0  0  0  0  0  0  0  0  0  0  0
  148.5521  138.5168  153.0706 H   0  0  0  0  0  0  0  0  0  0  0  0
  146.9081  140.6906  153.1533 H   0  0  0  0  0  0  0  0  0  0  0  0
  148.2617  142.4324  154.8300 H   0  0  0  0  0  0  0  0  0  0  0  0
  1  2  1  0  0  0  0
  1 17  1  0  0  0  0
  1 18  1  0  0  0  0
  1 19  1  0  0  0  0
  2  3  1  0  0  0  0
  2 12  1  0  0  0  0
  2 20  1  0  0  0  0
  3  4  2  0  0  0  0
  3  5  1  0  0  0  0
  5  6  1  0  0  0  0
  5 21  1  0  0  0  0
  6  7  1  0  0  0  0
  6 22  1  0  0  0  0
  6 23  1  0  0  0  0
  7 11  1  0  0  0  0
  7  8  1  0  0  0  0
  7 24  1  0  0  0  0
  8  9  1  0  0  0  0
  8 25  1  0  0  0  0
  8 26  1  0  0  0  0
  9 10  1  0  0  0  0
  9 27  1  0  0  0  0
  9 28  1  0  0  0  0
 10 11  1  0  0  0  0
 10 29  1  0  0  0  0
 10 30  1  0  0  0  0
 12 16  1  0  0  0  0
 12 13  1  0  0  0  0
 13 14  2  0  0  0  0
 13 31  1  0  0  0  0
 14 15  1  0  0  0  0
 14 32  1  0  0  0  0
 15 16  2  0  0  0  0
 15 33  1  0  0  0  0
M  END
> <s_m_source_file>
AV-unprocessed.smi

> <i_m_source_file_index>
3168

> <i_lp_mmshare_version>
43012

> <i_f3d_flags>
0

> <s_epik_input>
bjFbY0hdW2NIXVtjSF1uMVtDQEhdKFtDSDNdKUMoPU8pW05IXVtDSDJdW0NAQEhdMltDSDJdW0NIMl1bQ0gyXU8y

> <s_epik_cmdline>
J2VwaWtfcHl0aG9uJywgJy1waCcsICc3LjAnLCAnLXRuJywgJzgnLCAnLW1hJywgJzIwMCcsICctbWV0YWxfYmluZGluZycsICctaW1hZScsICc8aW5maWxlLm1hZT4nLCAnLW9tYWUnLCAnPG91dGZpbGUubWFlPic=

> <r_lp_tautomer_probability>
1

> <r_epik_Ionization_Penalty>
4.14877e-05

> <r_epik_Ionization_Penalty_Charging>
0

> <r_epik_Ionization_Penalty_Neutral>
4.14877e-05

> <r_epik_State_Penalty>
-0

> <r_epik_Charging_Adjusted_Penalty>
0

> <i_epik_Tot_Q>
0

> <i_epik_Tot_abs_Q>
0

> <r_epik_Metal_State_Penalty>
-0

> <b_epik_Metal_Only>
0

> <s_lp_Force_Field>
OPLS_2005

> <r_lp_Energy>
21.6016

> <b_lp_Chiralities_Consistent>
1

> <s_lp_Variant>
AV-unprocessed.smi:3168-1

> <Gold.Version>
5.8.1

> <Gold.Id.Protein>
6NUR|6NUR_protein|mol2

> <Gold.PLP.Fitness>
40.2849

> <Gold.PLP.PLP>
-32.4649

> <Gold.PLP.part.hbond>
-1.9935

> <Gold.PLP.part.metal>
0.0000

> <Gold.PLP.part.buried>
-0.9044

> <Gold.PLP.part.nonpolar>
-29.5297

> <Gold.PLP.part.repulsive>
0.2175

> <Gold.PLP.ligand.clash>
0.0000

> <Gold.PLP.ligand.torsion>
0.4703

> <Gold.PLP.Chemscore.Hbond>
0.9920

> <Gold.PLP.Chemscore.CHOScore>
1.8911

> <Gold.PLP.Chemscore.Metal>
0.0000

> <Gold.Chemscore.Hbonds>
donor molecule, donor type, donor heavy atom, donor atom, acceptor molecule, acceptor atom, score
      P1  H  7997  8010       L1     4  0.93
      L1  C    13    31       P1  7948  0.85
      L1  C    13    31       P1  7957  0.01
      L1  C    15    33       P1  8028  1.00

> <Gold.PLP.Chemscore.Internal.Correction>
0.1115

> <Gold.Rescore>
     Score         DG    S(hbond)    S(metal)    S(lipo)     H(rot)  DE(clash)    DE(int)     intcor
     11.96     -14.21       1.00        0.00      81.32       1.61       0.04       2.22       ----

> <Gold.Chemscore.Fitness>
11.9602

> <Gold.Chemscore.DG>
-14.2138

> <Gold.Chemscore.ZeroCoef>
-5.4800

> <Gold.Chemscore.Hbond>
1.0000

> <Gold.Chemscore.Metal>
0.0000

> <Gold.Chemscore.Lipo>
81.3151

> <Gold.Chemscore.Internal_Hbond>
0.0000

> <Gold.Chemscore.DEClash>
0.0350

> <Gold.Chemscore.DEInternal>
2.2186

> <Gold.Chemscore.Rot>
1.6094

> <Gold.Chemscore.Internal.Correction>
   9.000000E+99

> <Gold.Chemscore.Hbonds>
donor molecule, donor type, donor heavy atom, donor atom, acceptor molecule, acceptor atom, score
      P1  H  7997  8010       L1     4  0.89

> <Gold.Chemscore.Hbond.Weighted>
-3.3400

> <Gold.Chemscore.Metal.Weighted>
-0.0000

> <Gold.Chemscore.Lipo.Weighted>
-9.5139

> <Gold.Chemscore.Internal_Hbond.Weighted>
0.0000

> <Gold.Chemscore.DEClash.Weighted>
0.0350

> <Gold.Chemscore.DEInternal.Weighted>
2.2186

> <Gold.Chemscore.Rot.Weighted>
4.1201

> <Gold.Chemscore.Internal.Correction.Weighted>
   9.000000E+99

> <Gold.Protein.RotatedTorsions>
[ 6907 6896 6895 6894 ] final  153.92 input  -60.11 | X-H torsion
[ 7974 7965 7964 7962 ] final  163.61 input  175.53 | X-H torsion
[ 8008 7997 7996 7995 ] final  121.25 input   59.86 | X-H torsion
[ 10167 10162 10161 10158 ] final   92.34 input  -65.29 | X-H torsion
[ 10718 10713 10712 10709 ] final  -43.39 input   66.30 | X-H torsion
[ 10763 10752 10751 10750 ] final   71.60 input  -60.55 | X-H torsion
[ 11005 11000 10999 10996 ] final -168.88 input  -57.11 | X-H torsion

> <Gold.Protein.ActiveResidues>
 VAL166  LYS551  ARG553  GLY616  TRP617  ASP618  TYR619  PRO620  LYS621  CYS622 
 ASP623  PHE694  ASN695  SER759  ASP760  ASP761  ALA762  ILE779  LEU786  VAL792 
 PHE793  MET794  SER795  GLU796  ALA797  LYS798  CYS799  TRP800  GLU811  SER814 

> <Gold.Protein.RotatedAtoms>
  152.0659  133.4084  159.4437 H   0  0  0  0  0  0  0  0  0  0  0  0  # atno 6907 bound_to 6896
  150.6865  134.3147  159.4770 H   0  0  0  0  0  0  0  0  0  0  0  0  # atno 6908 bound_to 6896
  152.0973  134.9365  160.0621 H   0  0  0  0  0  0  0  0  0  0  0  0  # atno 6909 bound_to 6896
  144.7582  139.8207  143.6342 H   0  0  0  0  0  0  0  0  0  0  0  0  # atno 7974 bound_to 7965
  156.2678  140.2812  156.1278 H   0  0  0  0  0  0  0  0  0  0  0  0  # atno 8008 bound_to 7997
  155.1087  140.0390  157.2735 H   0  0  0  0  0  0  0  0  0  0  0  0  # atno 8009 bound_to 7997
  154.6759  140.2598  155.6964 H   0  0  0  0  0  0  0  0  0  0  0  0  # atno 8010 bound_to 7997
  139.8286  144.6698  150.9428 H   0  0  0  0  0  0  0  0  0  0  0  0  # atno 10167 bound_to 10162
  156.2495  130.4187  149.8666 H   0  0  0  0  0  0  0  0  0  0  0  0  # atno 10718 bound_to 10713
  153.0408  135.5131  154.7617 H   0  0  0  0  0  0  0  0  0  0  0  0  # atno 10763 bound_to 10752
  154.6556  135.2931  154.9934 H   0  0  0  0  0  0  0  0  0  0  0  0  # atno 10764 bound_to 10752
  154.0803  135.6665  153.4889 H   0  0  0  0  0  0  0  0  0  0  0  0  # atno 10765 bound_to 10752
  140.5370  134.5560  157.5090 H   0  0  0  0  0  0  0  0  0  0  0  0  # atno 11005 bound_to 11000
  146.1616  139.4733  142.9984 LP  0  0  0  0  0  0  0  0  0  0  0  0  # atno 17320 bound_to 7965
  145.6707  141.0217  143.1659 LP  0  0  0  0  0  0  0  0  0  0  0  0  # atno 17321 bound_to 7965
  140.7808  143.4022  151.1130 LP  0  0  0  0  0  0  0  0  0  0  0  0  # atno 17342 bound_to 10162
  139.7678  143.8540  152.3114 LP  0  0  0  0  0  0  0  0  0  0  0  0  # atno 17343 bound_to 10162
  156.6220  130.8630  151.3477 LP  0  0  0  0  0  0  0  0  0  0  0  0  # atno 17370 bound_to 10713
  157.7208  130.9557  150.1433 LP  0  0  0  0  0  0  0  0  0  0  0  0  # atno 17371 bound_to 10713
  139.9524  134.7594  156.0418 LP  0  0  0  0  0  0  0  0  0  0  0  0  # atno 17394 bound_to 11000
  141.1249  133.6602  156.3310 LP  0  0  0  0  0  0  0  0  0  0  0  0  # atno 17395 bound_to 11000

$$$$
