AV-unprocessed.smi:1867|AV-procd|sdf|7567|dock1
  -GOLD-   22720 9283D 1   1.00000     0.00000
 Structure written by MMmdl.
 52 55  0  0  0  0  0  0  0  0  2 V2000
  146.7166  136.5460  155.9380 O   0  0  0  0  0  0  0  0  0  0  0  0
  147.2623  136.4482  154.8416 C   0  0  0  0  0  0  0  0  0  0  0  0
  148.3489  137.1469  154.4583 N   0  0  0  0  0  0  0  0  0  0  0  0
  149.0410  138.1675  155.1649 C   0  0  0  0  0  0  0  0  0  0  0  0
  148.9753  138.3543  156.5653 C   0  0  0  0  0  0  0  0  0  0  0  0
  149.6888  139.4199  157.1461 C   0  0  0  0  0  0  0  0  0  0  0  0
  150.4420  140.2817  156.3142 C   0  0  0  0  0  0  0  0  0  0  0  0
  151.1699  141.3592  156.8574 N   0  0  0  0  0  0  0  0  0  0  0  0
  151.9988  141.2036  158.0450 C   0  0  0  0  0  0  0  0  0  0  0  0
  152.0631  142.5925  158.6912 C   0  0  0  0  0  0  0  0  0  0  0  0
  151.7044  143.5504  157.5551 C   0  0  0  0  0  0  0  0  0  0  0  0
  150.7235  142.7362  156.7129 C   0  0  0  0  0  0  0  0  0  0  0  0
  150.5006  140.1030  154.9729 N   0  0  0  0  0  0  0  0  0  0  0  0
  149.8149  139.0803  154.4211 C   0  0  0  0  0  0  0  0  0  0  0  0
  146.8142  135.5753  153.9222 N   0  0  0  0  0  0  0  0  0  0  0  0
  145.6686  134.6702  154.0161 C   0  0  1  0  0  0  0  0  0  0  0  0
  144.3064  135.3868  154.1131 C   0  0  0  0  0  0  0  0  0  0  0  0
  143.3465  134.5697  153.2255 C   0  0  0  0  0  0  0  0  0  0  0  0
  144.1219  133.3906  152.7967 N   0  3  1  0  0  0  0  0  0  0  0  0
  143.6899  132.7128  151.5546 C   0  0  0  0  0  0  0  0  0  0  0  0
  144.5719  131.4691  151.3222 C   0  0  0  0  0  0  0  0  0  0  0  0
  146.0740  131.8207  151.3416 C   0  0  0  0  0  0  0  0  0  0  0  0
  146.4451  132.6089  152.6131 C   0  0  0  0  0  0  0  0  0  0  0  0
  145.5235  133.8323  152.7455 C   0  0  2  0  0  0  0  0  0  0  0  0
  148.7499  136.8911  153.5683 H   0  0  0  0  0  0  0  0  0  0  0  0
  148.3849  137.7154  157.2034 H   0  0  0  0  0  0  0  0  0  0  0  0
  149.6484  139.5594  158.2161 H   0  0  0  0  0  0  0  0  0  0  0  0
  151.5912  140.4700  158.7411 H   0  0  0  0  0  0  0  0  0  0  0  0
  152.9918  140.8736  157.7393 H   0  0  0  0  0  0  0  0  0  0  0  0
  151.3109  142.6643  159.4779 H   0  0  0  0  0  0  0  0  0  0  0  0
  153.0346  142.8062  159.1377 H   0  0  0  0  0  0  0  0  0  0  0  0
  151.2827  144.4922  157.9069 H   0  0  0  0  0  0  0  0  0  0  0  0
  152.5962  143.7767  156.9690 H   0  0  0  0  0  0  0  0  0  0  0  0
  150.7264  143.0545  155.6699 H   0  0  0  0  0  0  0  0  0  0  0  0
  149.7091  142.8329  157.1024 H   0  0  0  0  0  0  0  0  0  0  0  0
  149.8906  138.9872  153.3473 H   0  0  0  0  0  0  0  0  0  0  0  0
  147.3521  135.5142  153.0696 H   0  0  0  0  0  0  0  0  0  0  0  0
  145.7872  133.9976  154.8682 H   0  0  0  0  0  0  0  0  0  0  0  0
  143.9618  135.4282  155.1468 H   0  0  0  0  0  0  0  0  0  0  0  0
  144.3660  136.4132  153.7478 H   0  0  0  0  0  0  0  0  0  0  0  0
  142.4415  134.2696  153.7544 H   0  0  0  0  0  0  0  0  0  0  0  0
  143.0516  135.1589  152.3557 H   0  0  0  0  0  0  0  0  0  0  0  0
  142.6424  132.4218  151.6398 H   0  0  0  0  0  0  0  0  0  0  0  0
  143.7671  133.3990  150.7095 H   0  0  0  0  0  0  0  0  0  0  0  0
  144.3668  130.7321  152.1000 H   0  0  0  0  0  0  0  0  0  0  0  0
  144.3106  130.9962  150.3750 H   0  0  0  0  0  0  0  0  0  0  0  0
  146.6735  130.9124  151.2738 H   0  0  0  0  0  0  0  0  0  0  0  0
  146.3171  132.4173  150.4613 H   0  0  0  0  0  0  0  0  0  0  0  0
  146.3471  131.9663  153.4890 H   0  0  0  0  0  0  0  0  0  0  0  0
  147.4884  132.9230  152.5692 H   0  0  0  0  0  0  0  0  0  0  0  0
  145.6501  134.4786  151.8733 H   0  0  0  0  0  0  0  0  0  0  0  0
  144.0602  132.7161  153.5460 H   0  0  0  0  0  0  0  0  0  0  0  0
  1  2  2  0  0  0  0
  2  3  1  0  0  0  0
  2 15  1  0  0  0  0
  3  4  1  0  0  0  0
  3 25  1  0  0  0  0
  4 14  1  0  0  0  0
  4  5  2  0  0  0  0
  5  6  1  0  0  0  0
  5 26  1  0  0  0  0
  6  7  2  0  0  0  0
  6 27  1  0  0  0  0
  7  8  1  0  0  0  0
  7 13  1  0  0  0  0
  8 12  1  0  0  0  0
  8  9  1  0  0  0  0
  9 10  1  0  0  0  0
  9 28  1  0  0  0  0
  9 29  1  0  0  0  0
 10 11  1  0  0  0  0
 10 30  1  0  0  0  0
 10 31  1  0  0  0  0
 11 12  1  0  0  0  0
 11 32  1  0  0  0  0
 11 33  1  0  0  0  0
 12 34  1  0  0  0  0
 12 35  1  0  0  0  0
 13 14  2  0  0  0  0
 14 36  1  0  0  0  0
 15 16  1  0  0  0  0
 15 37  1  0  0  0  0
 16 24  1  0  0  0  0
 16 17  1  0  0  0  0
 16 38  1  0  0  0  0
 17 18  1  0  0  0  0
 17 39  1  0  0  0  0
 17 40  1  0  0  0  0
 18 19  1  0  0  0  0
 18 41  1  0  0  0  0
 18 42  1  0  0  0  0
 19 24  1  0  0  0  0
 19 20  1  0  0  0  0
 19 52  1  0  0  0  0
 20 21  1  0  0  0  0
 20 43  1  0  0  0  0
 20 44  1  0  0  0  0
 21 22  1  0  0  0  0
 21 45  1  0  0  0  0
 21 46  1  0  0  0  0
 22 23  1  0  0  0  0
 22 47  1  0  0  0  0
 22 48  1  0  0  0  0
 23 24  1  0  0  0  0
 23 49  1  0  0  0  0
 23 50  1  0  0  0  0
 24 51  1  0  0  0  0
M  CHG  1  19   1
M  END
> <s_m_source_file>
AV-unprocessed.smi

> <i_m_source_file_index>
1867

> <i_lp_mmshare_version>
43012

> <i_f3d_flags>
0

> <s_epik_input>
W0NIMl0xW0NIMl1bQ0gyXVtDSDJdW0NASF0oTjEyKVtDQEBIXShbQ0gyXVtDSDJdMilbTkhdQyg9TylbTkhdYzNbY0hdW2NIXWMobltjSF0zKU40W0NIMl1bQ0gyXVtDSDJdW0NIMl00

> <s_epik_cmdline>
J2VwaWtfcHl0aG9uJywgJy1waCcsICc3LjAnLCAnLXRuJywgJzgnLCAnLW1hJywgJzIwMCcsICctbWV0YWxfYmluZGluZycsICctaW1hZScsICc8aW5maWxlLm1hZT4nLCAnLW9tYWUnLCAnPG91dGZpbGUubWFlPic=

> <r_lp_tautomer_probability>
1

> <r_epik_Ionization_Penalty>
0.0751123

> <r_epik_Ionization_Penalty_Charging>
0.000974069

> <r_epik_Ionization_Penalty_Neutral>
0.0741382

> <r_epik_State_Penalty>
0.0647261

> <r_epik_Charging_Adjusted_Penalty>
0.0657002

> <i_epik_Tot_Q>
1

> <i_epik_Tot_abs_Q>
1

> <r_epik_Metal_State_Penalty>
0.0580571

> <b_epik_Metal_Only>
0

> <s_lp_Force_Field>
OPLS_2005

> <r_lp_Energy>
71.2543

> <b_lp_Chiralities_Consistent>
1

> <s_lp_Variant>
AV-unprocessed.smi:1867-8

> <Gold.Version>
5.8.1

> <Gold.Id.Protein>
6NUR|6NUR_protein|mol2

> <Gold.PLP.Fitness>
46.6749

> <Gold.PLP.PLP>
-33.5895

> <Gold.PLP.part.hbond>
-3.7353

> <Gold.PLP.part.metal>
0.0000

> <Gold.PLP.part.buried>
-4.9729

> <Gold.PLP.part.nonpolar>
-26.3140

> <Gold.PLP.part.repulsive>
0.0769

> <Gold.PLP.ligand.clash>
0.0000

> <Gold.PLP.ligand.torsion>
1.1928

> <Gold.PLP.Chemscore.Hbond>
4.0894

> <Gold.PLP.Chemscore.CHOScore>
1.0000

> <Gold.PLP.Chemscore.Metal>
0.0000

> <Gold.Chemscore.Hbonds>
donor molecule, donor type, donor heavy atom, donor atom, acceptor molecule, acceptor atom, score
      L1  H     3    25       P1  7948  1.00
      L1  H    15    37       P1  7948  0.78
      L1  H    19    52       P1 10957  1.43
      P1  H  7989  7998       L1    13  1.00
      L1  C    14    36       P1  7957  1.00

> <Gold.PLP.Chemscore.Internal.Correction>
0.2030

> <Gold.Rescore>
     Score         DG    S(hbond)    S(metal)    S(lipo)     H(rot)  DE(clash)    DE(int)     intcor
     20.88     -23.98       3.07        0.00      92.21       1.00       0.66       2.44       ----

> <Gold.Chemscore.Fitness>
20.8825

> <Gold.Chemscore.DG>
-23.9769

> <Gold.Chemscore.ZeroCoef>
-5.4800

> <Gold.Chemscore.Hbond>
3.0743

> <Gold.Chemscore.Metal>
0.0000

> <Gold.Chemscore.Lipo>
92.2107

> <Gold.Chemscore.Internal_Hbond>
0.0000

> <Gold.Chemscore.DEClash>
0.6551

> <Gold.Chemscore.DEInternal>
2.4392

> <Gold.Chemscore.Rot>
1.0000

> <Gold.Chemscore.Internal.Correction>
   9.000000E+99

> <Gold.Chemscore.Hbonds>
donor molecule, donor type, donor heavy atom, donor atom, acceptor molecule, acceptor atom, score
      L1  H     3    25       P1  7948  1.00
      L1  H    15    37       P1  7948  0.72
      L1  H    19    52       P1 10957  0.39
      P1  H  7989  7998       L1    13  0.52

> <Gold.Chemscore.Hbond.Weighted>
-10.2682

> <Gold.Chemscore.Metal.Weighted>
-0.0000

> <Gold.Chemscore.Lipo.Weighted>
-10.7887

> <Gold.Chemscore.Internal_Hbond.Weighted>
0.0000

> <Gold.Chemscore.DEClash.Weighted>
0.6551

> <Gold.Chemscore.DEInternal.Weighted>
2.4392

> <Gold.Chemscore.Rot.Weighted>
2.5600

> <Gold.Chemscore.Internal.Correction.Weighted>
   9.000000E+99

> <Gold.Protein.RotatedTorsions>
[ 6907 6896 6895 6894 ] final  155.44 input  -60.11 | X-H torsion
[ 7974 7965 7964 7962 ] final   23.68 input  175.53 | X-H torsion
[ 8008 7997 7996 7995 ] final  136.42 input   59.86 | X-H torsion
[ 10167 10162 10161 10158 ] final  111.23 input  -65.29 | X-H torsion
[ 10718 10713 10712 10709 ] final -126.14 input   66.30 | X-H torsion
[ 10763 10752 10751 10750 ] final  157.44 input  -60.55 | X-H torsion
[ 11005 11000 10999 10996 ] final  166.44 input  -57.11 | X-H torsion

> <Gold.Protein.ActiveResidues>
 VAL166  LYS551  ARG553  GLY616  TRP617  ASP618  TYR619  PRO620  LYS621  CYS622 
 ASP623  PHE694  ASN695  SER759  ASP760  ASP761  ALA762  ILE779  LEU786  VAL792 
 PHE793  MET794  SER795  GLU796  ALA797  LYS798  CYS799  TRP800  GLU811  SER814 

> <Gold.Protein.RotatedAtoms>
  152.0442  133.3990  159.4349 H   0  0  0  0  0  0  0  0  0  0  0  0  # atno 6907 bound_to 6896
  150.6874  134.3381  159.4865 H   0  0  0  0  0  0  0  0  0  0  0  0  # atno 6908 bound_to 6896
  152.1183  134.9224  160.0614 H   0  0  0  0  0  0  0  0  0  0  0  0  # atno 6909 bound_to 6896
  146.1973  139.7711  142.8788 H   0  0  0  0  0  0  0  0  0  0  0  0  # atno 7974 bound_to 7965
  156.3004  140.2445  156.3743 H   0  0  0  0  0  0  0  0  0  0  0  0  # atno 8008 bound_to 7997
  154.8760  140.0414  157.1773 H   0  0  0  0  0  0  0  0  0  0  0  0  # atno 8009 bound_to 7997
  154.8745  140.2940  155.5465 H   0  0  0  0  0  0  0  0  0  0  0  0  # atno 8010 bound_to 7997
  139.6627  144.7128  151.1834 H   0  0  0  0  0  0  0  0  0  0  0  0  # atno 10167 bound_to 10162
  156.1738  130.6686  151.0215 H   0  0  0  0  0  0  0  0  0  0  0  0  # atno 10718 bound_to 10713
  154.2002  135.2790  155.2993 H   0  0  0  0  0  0  0  0  0  0  0  0  # atno 10763 bound_to 10752
  154.5860  135.5574  153.7235 H   0  0  0  0  0  0  0  0  0  0  0  0  # atno 10764 bound_to 10752
  153.0090  135.6356  154.2140 H   0  0  0  0  0  0  0  0  0  0  0  0  # atno 10765 bound_to 10752
  140.2665  134.7861  157.3637 H   0  0  0  0  0  0  0  0  0  0  0  0  # atno 11005 bound_to 11000
  145.3601  141.0324  143.3289 LP  0  0  0  0  0  0  0  0  0  0  0  0  # atno 17320 bound_to 7965
  144.8607  139.5181  143.6813 LP  0  0  0  0  0  0  0  0  0  0  0  0  # atno 17321 bound_to 7965
  140.7587  143.5968  150.8740 LP  0  0  0  0  0  0  0  0  0  0  0  0  # atno 17342 bound_to 10162
  139.9627  143.6146  152.2997 LP  0  0  0  0  0  0  0  0  0  0  0  0  # atno 17343 bound_to 10162
  157.6821  131.0835  150.7341 LP  0  0  0  0  0  0  0  0  0  0  0  0  # atno 17370 bound_to 10713
  156.7399  130.4736  149.5480 LP  0  0  0  0  0  0  0  0  0  0  0  0  # atno 17371 bound_to 10713
  140.1414  134.4967  155.8028 LP  0  0  0  0  0  0  0  0  0  0  0  0  # atno 17394 bound_to 11000
  141.2183  133.6827  156.7217 LP  0  0  0  0  0  0  0  0  0  0  0  0  # atno 17395 bound_to 11000

$$$$
