AV-unprocessed.smi:1226|AV-procd|sdf|5145|dock9
  -GOLD-   22720 4213D 1   1.00000     0.00000
 Structure written by MMmdl.
 37 38  0  0  0  0  0  0  0  0  1 V2000
  153.7157  140.9179  159.4044 C   0  0  0  0  0  0  0  0  0  0  0  0
  152.6944  141.2812  158.3820 C   0  0  0  0  0  0  0  0  0  0  0  0
  152.4223  140.5313  157.3109 N   0  0  0  0  0  0  0  0  0  0  0  0
  151.4184  141.0827  156.5085 C   0  0  0  0  0  0  0  0  0  0  0  0
  150.9770  140.3712  155.2658 C   0  0  0  0  0  0  0  0  0  0  0  0
  151.8843  139.1762  154.9289 C   0  0  0  0  0  0  0  0  0  0  0  0
  151.1134  138.0278  154.4668 N   0  0  0  0  0  0  0  0  0  0  0  0
  151.2366  136.7817  154.9441 C   0  0  0  0  0  0  0  0  0  0  0  0
  152.0211  136.4610  155.8372 O   0  0  0  0  0  0  0  0  0  0  0  0
  150.4014  135.9298  154.3336 N   0  0  0  0  0  0  0  0  0  0  0  0
  150.2799  134.5103  154.6458 C   0  0  0  0  0  0  0  0  0  0  0  0
  149.3891  133.7845  153.6245 C   0  0  1  0  0  0  0  0  0  0  0  0
  149.3778  132.2664  153.7936 C   0  0  0  0  0  0  0  0  0  0  0  0
  148.0668  131.8975  153.1387 C   0  0  0  0  0  0  0  0  0  0  0  0
  147.1657  133.0500  153.5727 C   0  0  0  0  0  0  0  0  0  0  0  0
  148.0240  134.1717  153.7642 O   0  0  0  0  0  0  0  0  0  0  0  0
  150.9331  142.2726  156.9907 C   0  0  0  0  0  0  0  0  0  0  0  0
  151.7188  142.7424  158.4728 S   0  0  0  0  0  0  0  0  0  0  0  0
  154.4041  140.1697  159.0101 H   0  0  0  0  0  0  0  0  0  0  0  0
  153.2262  140.5120  160.2898 H   0  0  0  0  0  0  0  0  0  0  0  0
  154.2872  141.8000  159.6927 H   0  0  0  0  0  0  0  0  0  0  0  0
  149.9484  140.0284  155.3855 H   0  0  0  0  0  0  0  0  0  0  0  0
  150.9629  141.0668  154.4258 H   0  0  0  0  0  0  0  0  0  0  0  0
  152.5852  139.4515  154.1403 H   0  0  0  0  0  0  0  0  0  0  0  0
  152.4864  138.8980  155.7955 H   0  0  0  0  0  0  0  0  0  0  0  0
  150.4400  138.1948  153.7336 H   0  0  0  0  0  0  0  0  0  0  0  0
  149.7952  136.2910  153.6119 H   0  0  0  0  0  0  0  0  0  0  0  0
  151.2822  134.0819  154.6246 H   0  0  0  0  0  0  0  0  0  0  0  0
  149.9040  134.3634  155.6598 H   0  0  0  0  0  0  0  0  0  0  0  0
  149.7043  134.0263  152.6081 H   0  0  0  0  0  0  0  0  0  0  0  0
  150.2383  131.7799  153.3338 H   0  0  0  0  0  0  0  0  0  0  0  0
  149.3548  131.9959  154.8503 H   0  0  0  0  0  0  0  0  0  0  0  0
  148.1793  131.8948  152.0538 H   0  0  0  0  0  0  0  0  0  0  0  0
  147.6905  130.9218  153.4471 H   0  0  0  0  0  0  0  0  0  0  0  0
  146.3877  133.2652  152.8401 H   0  0  0  0  0  0  0  0  0  0  0  0
  146.6827  132.8206  154.5231 H   0  0  0  0  0  0  0  0  0  0  0  0
  150.1618  142.8980  156.5659 H   0  0  0  0  0  0  0  0  0  0  0  0
  1  2  1  0  0  0  0
  1 19  1  0  0  0  0
  1 20  1  0  0  0  0
  1 21  1  0  0  0  0
  2 18  1  0  0  0  0
  2  3  2  0  0  0  0
  3  4  1  0  0  0  0
  4  5  1  0  0  0  0
  4 17  2  0  0  0  0
  5  6  1  0  0  0  0
  5 22  1  0  0  0  0
  5 23  1  0  0  0  0
  6  7  1  0  0  0  0
  6 24  1  0  0  0  0
  6 25  1  0  0  0  0
  7  8  1  0  0  0  0
  7 26  1  0  0  0  0
  8  9  2  0  0  0  0
  8 10  1  0  0  0  0
 10 11  1  0  0  0  0
 10 27  1  0  0  0  0
 11 12  1  0  0  0  0
 11 28  1  0  0  0  0
 11 29  1  0  0  0  0
 12 16  1  0  0  0  0
 12 13  1  0  0  0  0
 12 30  1  0  0  0  0
 13 14  1  0  0  0  0
 13 31  1  0  0  0  0
 13 32  1  0  0  0  0
 14 15  1  0  0  0  0
 14 33  1  0  0  0  0
 14 34  1  0  0  0  0
 15 16  1  0  0  0  0
 15 35  1  0  0  0  0
 15 36  1  0  0  0  0
 17 18  1  0  0  0  0
 17 37  1  0  0  0  0
M  END
> <s_m_source_file>
AV-unprocessed.smi

> <i_m_source_file_index>
1226

> <i_lp_mmshare_version>
43012

> <i_f3d_flags>
0

> <s_epik_input>
W0NIM11jMW5jKFtjSF1zMSlbQ0gyXVtDSDJdW05IXUMoPU8pW05IXVtDSDJdW0NAQEhdMltDSDJdW0NIMl1bQ0gyXU8y

> <s_epik_cmdline>
J2VwaWtfcHl0aG9uJywgJy1waCcsICc3LjAnLCAnLXRuJywgJzgnLCAnLW1hJywgJzIwMCcsICctbWV0YWxfYmluZGluZycsICctaW1hZScsICc8aW5maWxlLm1hZT4nLCAnLW9tYWUnLCAnPG91dGZpbGUubWFlPic=

> <r_epik_Ionization_Penalty>
0.00199722

> <r_epik_Ionization_Penalty_Charging>
0

> <r_epik_Ionization_Penalty_Neutral>
0.00199722

> <r_epik_State_Penalty>
0.00132705

> <r_epik_Charging_Adjusted_Penalty>
0.00132705

> <i_epik_Tot_Q>
0

> <i_epik_Tot_abs_Q>
0

> <r_epik_Metal_State_Penalty>
-0

> <b_epik_Metal_Only>
0

> <s_lp_Force_Field>
OPLS_2005

> <r_lp_Energy>
8.90451

> <b_lp_Chiralities_Consistent>
1

> <s_lp_Variant>
AV-unprocessed.smi:1226-2

> <Gold.Version>
5.8.1

> <Gold.Id.Protein>
6NUR|6NUR_protein|mol2

> <Gold.PLP.Fitness>
41.4562

> <Gold.PLP.PLP>
-31.7356

> <Gold.PLP.part.hbond>
-3.4082

> <Gold.PLP.part.metal>
0.0000

> <Gold.PLP.part.buried>
-1.4349

> <Gold.PLP.part.nonpolar>
-27.0035

> <Gold.PLP.part.repulsive>
0.8409

> <Gold.PLP.ligand.clash>
0.0000

> <Gold.PLP.ligand.torsion>
0.4770

> <Gold.PLP.Chemscore.Hbond>
2.5522

> <Gold.PLP.Chemscore.CHOScore>
1.0000

> <Gold.PLP.Chemscore.Metal>
0.0000

> <Gold.Chemscore.Hbonds>
donor molecule, donor type, donor heavy atom, donor atom, acceptor molecule, acceptor atom, score
      L1  H    10    27       P1  7948  1.00
      P1  H  7997  8008       L1     3  0.55
      P1  H 10752 10763       L1     9  0.98
      L1  C    17    37       P1  8028  1.00

> <Gold.PLP.Chemscore.Internal.Correction>
0.0178

> <Gold.Rescore>
     Score         DG    S(hbond)    S(metal)    S(lipo)     H(rot)  DE(clash)    DE(int)     intcor
     15.08     -15.48       1.56        0.00      79.28       1.75       0.03       0.37       ----

> <Gold.Chemscore.Fitness>
15.0836

> <Gold.Chemscore.DG>
-15.4831

> <Gold.Chemscore.ZeroCoef>
-5.4800

> <Gold.Chemscore.Hbond>
1.5582

> <Gold.Chemscore.Metal>
0.0000

> <Gold.Chemscore.Lipo>
79.2770

> <Gold.Chemscore.Internal_Hbond>
0.0000

> <Gold.Chemscore.DEClash>
0.0255

> <Gold.Chemscore.DEInternal>
0.3740

> <Gold.Chemscore.Rot>
1.7487

> <Gold.Chemscore.Internal.Correction>
   9.000000E+99

> <Gold.Chemscore.Hbonds>
donor molecule, donor type, donor heavy atom, donor atom, acceptor molecule, acceptor atom, score
      L1  H    10    27       P1  7948  0.25
      P1  H  7997  8008       L1     3  0.09
      P1  H 10752 10763       L1     9  0.65

> <Gold.Chemscore.Hbond.Weighted>
-5.2045

> <Gold.Chemscore.Metal.Weighted>
-0.0000

> <Gold.Chemscore.Lipo.Weighted>
-9.2754

> <Gold.Chemscore.Internal_Hbond.Weighted>
0.0000

> <Gold.Chemscore.DEClash.Weighted>
0.0255

> <Gold.Chemscore.DEInternal.Weighted>
0.3740

> <Gold.Chemscore.Rot.Weighted>
4.4768

> <Gold.Chemscore.Internal.Correction.Weighted>
   9.000000E+99

> <Gold.Protein.RotatedTorsions>
[ 6907 6896 6895 6894 ] final  150.17 input  -60.11 | X-H torsion
[ 7974 7965 7964 7962 ] final -141.43 input  175.53 | X-H torsion
[ 8008 7997 7996 7995 ] final  -69.20 input   59.86 | X-H torsion
[ 10167 10162 10161 10158 ] final  -87.52 input  -65.29 | X-H torsion
[ 10718 10713 10712 10709 ] final  167.05 input   66.30 | X-H torsion
[ 10763 10752 10751 10750 ] final  100.52 input  -60.55 | X-H torsion
[ 11005 11000 10999 10996 ] final   81.48 input  -57.11 | X-H torsion

> <Gold.Protein.ActiveResidues>
 VAL166  LYS551  ARG553  GLY616  TRP617  ASP618  TYR619  PRO620  LYS621  CYS622 
 ASP623  PHE694  ASN695  SER759  ASP760  ASP761  ALA762  ILE779  LEU786  VAL792 
 PHE793  MET794  SER795  GLU796  ALA797  LYS798  CYS799  TRP800  GLU811  SER814 

> <Gold.Protein.RotatedAtoms>
  152.1180  133.4337  159.4661 H   0  0  0  0  0  0  0  0  0  0  0  0  # atno 6907 bound_to 6896
  150.6870  134.2569  159.4542 H   0  0  0  0  0  0  0  0  0  0  0  0  # atno 6908 bound_to 6896
  152.0443  134.9692  160.0625 H   0  0  0  0  0  0  0  0  0  0  0  0  # atno 6909 bound_to 6896
  144.8520  140.6081  143.5384 H   0  0  0  0  0  0  0  0  0  0  0  0  # atno 7974 bound_to 7965
  154.4921  140.0858  156.7618 H   0  0  0  0  0  0  0  0  0  0  0  0  # atno 8008 bound_to 7997
  155.4204  140.3445  155.4253 H   0  0  0  0  0  0  0  0  0  0  0  0  # atno 8009 bound_to 7997
  156.1344  140.1511  156.9004 H   0  0  0  0  0  0  0  0  0  0  0  0  # atno 8010 bound_to 7997
  140.3837  143.2737  151.9352 H   0  0  0  0  0  0  0  0  0  0  0  0  # atno 10167 bound_to 10162
  157.0570  131.0329  151.2660 H   0  0  0  0  0  0  0  0  0  0  0  0  # atno 10718 bound_to 10713
  153.3150  135.4076  155.1369 H   0  0  0  0  0  0  0  0  0  0  0  0  # atno 10763 bound_to 10752
  154.8586  135.3574  154.5672 H   0  0  0  0  0  0  0  0  0  0  0  0  # atno 10764 bound_to 10752
  153.6103  135.7068  153.5408 H   0  0  0  0  0  0  0  0  0  0  0  0  # atno 10765 bound_to 10752
  139.9096  134.8000  156.2047 H   0  0  0  0  0  0  0  0  0  0  0  0  # atno 11005 bound_to 11000
  145.4481  139.1527  143.3933 LP  0  0  0  0  0  0  0  0  0  0  0  0  # atno 17320 bound_to 7965
  146.2792  140.4606  142.8783 LP  0  0  0  0  0  0  0  0  0  0  0  0  # atno 17321 bound_to 7965
  139.4793  144.5794  151.7957 LP  0  0  0  0  0  0  0  0  0  0  0  0  # atno 17342 bound_to 10162
  140.4912  144.1308  150.5950 LP  0  0  0  0  0  0  0  0  0  0  0  0  # atno 17343 bound_to 10162
  157.4985  130.7865  149.7580 LP  0  0  0  0  0  0  0  0  0  0  0  0  # atno 17370 bound_to 10713
  155.9990  130.3891  150.2681 LP  0  0  0  0  0  0  0  0  0  0  0  0  # atno 17371 bound_to 10713
  141.0503  133.6892  156.1759 LP  0  0  0  0  0  0  0  0  0  0  0  0  # atno 17394 bound_to 11000
  140.6821  134.4756  157.5589 LP  0  0  0  0  0  0  0  0  0  0  0  0  # atno 17395 bound_to 11000

$$$$
