AV-unprocessed.smi:856|AV-procd|sdf|3960|dock3
  -GOLD-   22720 1433D 1   1.00000     0.00000
 Structure written by MMmdl.
 42 44  0  0  0  0  0  0  0  0  1 V2000
  154.6030  139.6872  160.2043 C   0  0  0  0  0  0  0  0  0  0  0  0
  153.7298  140.8689  160.0718 N   0  0  0  0  0  0  0  0  0  0  0  0
  153.0101  141.0158  158.9150 C   0  0  0  0  0  0  0  0  0  0  0  0
  153.0472  140.2397  157.9594 O   0  0  0  0  0  0  0  0  0  0  0  0
  152.1610  142.2117  158.8928 C   0  0  0  0  0  0  0  0  0  0  0  0
  152.1136  143.1004  159.9143 C   0  0  0  0  0  0  0  0  0  0  0  0
  151.2406  144.1462  159.6367 N   0  0  0  0  0  0  0  0  0  0  0  0
  150.7928  143.8195  158.4236 C   0  0  0  0  0  0  0  0  0  0  0  0
  151.2909  142.6775  157.9073 N   0  0  0  0  0  0  0  0  0  0  0  0
  150.9612  142.1061  156.6105 C   0  0  0  0  0  0  0  0  0  0  0  0
  149.5785  141.4212  156.5961 C   0  0  1  0  0  0  0  0  0  0  0  0
  148.5457  142.2934  157.0102 O   0  0  0  0  0  0  0  0  0  0  0  0
  149.2038  140.8290  155.2286 C   0  0  0  0  0  0  0  0  0  0  0  0
  148.8775  141.8785  154.3327 O   0  0  0  0  0  0  0  0  0  0  0  0
  147.7085  141.6218  153.5723 C   0  0  0  0  0  0  0  0  0  0  0  0
  146.6060  142.4640  154.1326 C   0  0  0  0  0  0  0  0  0  0  0  0
  145.8496  143.4753  153.6075 C   0  0  0  0  0  0  0  0  0  0  0  0
  144.9498  143.8812  154.6317 C   0  0  0  0  0  0  0  0  0  0  0  0
  145.2222  143.0871  155.7086 C   0  0  0  0  0  0  0  0  0  0  0  0
  146.2282  142.2176  155.4216 O   0  0  0  0  0  0  0  0  0  0  0  0
  152.9109  142.8618  161.0614 N   0  0  0  0  0  0  0  0  0  0  0  0
  152.8374  143.8478  162.1440 C   0  0  0  0  0  0  0  0  0  0  0  0
  153.7117  141.7480  161.1420 C   0  0  0  0  0  0  0  0  0  0  0  0
  154.3985  141.5376  162.1455 O   0  0  0  0  0  0  0  0  0  0  0  0
  154.5788  139.0005  159.3575 H   0  0  0  0  0  0  0  0  0  0  0  0
  154.3218  139.1021  161.0816 H   0  0  0  0  0  0  0  0  0  0  0  0
  155.6428  139.9945  160.3257 H   0  0  0  0  0  0  0  0  0  0  0  0
  150.0779  144.4313  157.8929 H   0  0  0  0  0  0  0  0  0  0  0  0
  151.0298  142.8834  155.8509 H   0  0  0  0  0  0  0  0  0  0  0  0
  151.7315  141.3772  156.3556 H   0  0  0  0  0  0  0  0  0  0  0  0
  149.5924  140.6074  157.3222 H   0  0  0  0  0  0  0  0  0  0  0  0
  148.7170  143.1497  156.6475 H   0  0  0  0  0  0  0  0  0  0  0  0
  150.0521  140.2712  154.8291 H   0  0  0  0  0  0  0  0  0  0  0  0
  148.3729  140.1280  155.3255 H   0  0  0  0  0  0  0  0  0  0  0  0
  147.8751  141.8686  152.5229 H   0  0  0  0  0  0  0  0  0  0  0  0
  147.4383  140.5666  153.6326 H   0  0  0  0  0  0  0  0  0  0  0  0
  145.9333  143.8735  152.6070 H   0  0  0  0  0  0  0  0  0  0  0  0
  144.1981  144.6553  154.5864 H   0  0  0  0  0  0  0  0  0  0  0  0
  144.8168  143.0095  156.7066 H   0  0  0  0  0  0  0  0  0  0  0  0
  153.4563  143.6141  163.0108 H   0  0  0  0  0  0  0  0  0  0  0  0
  151.8092  143.9376  162.4963 H   0  0  0  0  0  0  0  0  0  0  0  0
  153.1511  144.8255  161.7766 H   0  0  0  0  0  0  0  0  0  0  0  0
  1  2  1  0  0  0  0
  1 25  1  0  0  0  0
  1 26  1  0  0  0  0
  1 27  1  0  0  0  0
  2 23  1  0  0  0  0
  2  3  1  0  0  0  0
  3  4  2  0  0  0  0
  3  5  1  0  0  0  0
  5  9  1  0  0  0  0
  5  6  2  0  0  0  0
  6  7  1  0  0  0  0
  6 21  1  0  0  0  0
  7  8  2  0  0  0  0
  8  9  1  0  0  0  0
  8 28  1  0  0  0  0
  9 10  1  0  0  0  0
 10 11  1  0  0  0  0
 10 29  1  0  0  0  0
 10 30  1  0  0  0  0
 11 12  1  0  0  0  0
 11 13  1  0  0  0  0
 11 31  1  0  0  0  0
 12 32  1  0  0  0  0
 13 14  1  0  0  0  0
 13 33  1  0  0  0  0
 13 34  1  0  0  0  0
 14 15  1  0  0  0  0
 15 16  1  0  0  0  0
 15 35  1  0  0  0  0
 15 36  1  0  0  0  0
 16 20  1  0  0  0  0
 16 17  2  0  0  0  0
 17 18  1  0  0  0  0
 17 37  1  0  0  0  0
 18 19  2  0  0  0  0
 18 38  1  0  0  0  0
 19 20  1  0  0  0  0
 19 39  1  0  0  0  0
 21 22  1  0  0  0  0
 21 23  1  0  0  0  0
 22 40  1  0  0  0  0
 22 41  1  0  0  0  0
 22 42  1  0  0  0  0
 23 24  2  0  0  0  0
M  END
> <s_m_source_file>
AV-unprocessed.smi

> <i_m_source_file_index>
856

> <i_lp_mmshare_version>
43012

> <i_f3d_flags>
0

> <s_epik_input>
Tz1jMW4oW0NIM10pYyg9TyluKFtDSDNdKWMoYzEyKW5bY0hdbjJbQ0gyXVtDQEhdKFtPSF0pW0NIMl1PW0NIMl1jM1tjSF1bY0hdW2NIXW8z

> <s_epik_cmdline>
J2VwaWtfcHl0aG9uJywgJy1waCcsICc3LjAnLCAnLXRuJywgJzgnLCAnLW1hJywgJzIwMCcsICctbWV0YWxfYmluZGluZycsICctaW1hZScsICc8aW5maWxlLm1hZT4nLCAnLW9tYWUnLCAnPG91dGZpbGUubWFlPic=

> <r_lp_tautomer_probability>
1

> <r_epik_Ionization_Penalty>
1.33189e-06

> <r_epik_Ionization_Penalty_Charging>
3.64616e-09

> <r_epik_Ionization_Penalty_Neutral>
1.32824e-06

> <r_epik_State_Penalty>
-0

> <r_epik_Charging_Adjusted_Penalty>
3.64616e-09

> <i_epik_Tot_Q>
0

> <i_epik_Tot_abs_Q>
0

> <r_epik_Metal_State_Penalty>
-0

> <b_epik_Metal_Only>
0

> <s_lp_Force_Field>
OPLS_2005

> <r_lp_Energy>
33.5774

> <b_lp_Chiralities_Consistent>
1

> <s_lp_Variant>
AV-unprocessed.smi:856-2

> <Gold.Version>
5.8.1

> <Gold.Id.Protein>
6NUR|6NUR_protein|mol2

> <Gold.PLP.Fitness>
60.7274

> <Gold.PLP.PLP>
-52.9216

> <Gold.PLP.part.hbond>
-4.0000

> <Gold.PLP.part.metal>
0.0000

> <Gold.PLP.part.buried>
-8.2561

> <Gold.PLP.part.nonpolar>
-38.9657

> <Gold.PLP.part.repulsive>
0.4076

> <Gold.PLP.ligand.clash>
0.0000

> <Gold.PLP.ligand.torsion>
0.9190

> <Gold.PLP.Chemscore.Hbond>
2.0585

> <Gold.PLP.Chemscore.CHOScore>
1.1025

> <Gold.PLP.Chemscore.Metal>
0.0000

> <Gold.Chemscore.Hbonds>
donor molecule, donor type, donor heavy atom, donor atom, acceptor molecule, acceptor atom, score
      L1  H    12    32       P1  8028  1.00
      P1  H  7997  8008       L1     4  0.96
      P1  H  8011  8017       L1    14  0.05
      L1  C     8    28       P1  8028  0.87
      L1  C     8    28       P1  8029  0.22

> <Gold.PLP.Chemscore.Internal.Correction>
0.1608

> <Gold.Rescore>
     Score         DG    S(hbond)    S(metal)    S(lipo)     H(rot)  DE(clash)    DE(int)     intcor
      8.28     -12.71       1.74        0.00      81.21       3.16       1.42       3.01       ----

> <Gold.Chemscore.Fitness>
8.2831

> <Gold.Chemscore.DG>
-12.7127

> <Gold.Chemscore.ZeroCoef>
-5.4800

> <Gold.Chemscore.Hbond>
1.7425

> <Gold.Chemscore.Metal>
0.0000

> <Gold.Chemscore.Lipo>
81.2140

> <Gold.Chemscore.Internal_Hbond>
0.0000

> <Gold.Chemscore.DEClash>
1.4200

> <Gold.Chemscore.DEInternal>
3.0096

> <Gold.Chemscore.Rot>
3.1599

> <Gold.Chemscore.Internal.Correction>
   9.000000E+99

> <Gold.Chemscore.Hbonds>
donor molecule, donor type, donor heavy atom, donor atom, acceptor molecule, acceptor atom, score
      L1  H    12    32       P1  8028  0.85
      P1  H  7997  8008       L1     4  0.91

> <Gold.Chemscore.Hbond.Weighted>
-5.8199

> <Gold.Chemscore.Metal.Weighted>
-0.0000

> <Gold.Chemscore.Lipo.Weighted>
-9.5020

> <Gold.Chemscore.Internal_Hbond.Weighted>
0.0000

> <Gold.Chemscore.DEClash.Weighted>
1.4200

> <Gold.Chemscore.DEInternal.Weighted>
3.0096

> <Gold.Chemscore.Rot.Weighted>
8.0893

> <Gold.Chemscore.Internal.Correction.Weighted>
   9.000000E+99

> <Gold.Protein.RotatedTorsions>
[ 6907 6896 6895 6894 ] final   10.03 input  -60.11 | X-H torsion
[ 7974 7965 7964 7962 ] final   86.89 input  175.53 | X-H torsion
[ 8008 7997 7996 7995 ] final  -77.54 input   59.86 | X-H torsion
[ 10167 10162 10161 10158 ] final -177.04 input  -65.29 | X-H torsion
[ 10718 10713 10712 10709 ] final  -93.16 input   66.30 | X-H torsion
[ 10763 10752 10751 10750 ] final  142.66 input  -60.55 | X-H torsion
[ 11005 11000 10999 10996 ] final  163.15 input  -57.11 | X-H torsion

> <Gold.Protein.ActiveResidues>
 VAL166  LYS551  ARG553  GLY616  TRP617  ASP618  TYR619  PRO620  LYS621  CYS622 
 ASP623  PHE694  ASN695  SER759  ASP760  ASP761  ALA762  ILE779  LEU786  VAL792 
 PHE793  MET794  SER795  GLU796  ALA797  LYS798  CYS799  TRP800  GLU811  SER814 

> <Gold.Protein.RotatedAtoms>
  151.7317  135.0873  160.0300 H   0  0  0  0  0  0  0  0  0  0  0  0  # atno 6907 bound_to 6896
  152.3536  133.6206  159.5971 H   0  0  0  0  0  0  0  0  0  0  0  0  # atno 6908 bound_to 6896
  150.7556  133.9451  159.3510 H   0  0  0  0  0  0  0  0  0  0  0  0  # atno 6909 bound_to 6896
  145.5662  139.2309  143.2431 H   0  0  0  0  0  0  0  0  0  0  0  0  # atno 7974 bound_to 7965
  154.5606  140.0709  156.8813 H   0  0  0  0  0  0  0  0  0  0  0  0  # atno 8008 bound_to 7997
  155.2819  140.3372  155.4239 H   0  0  0  0  0  0  0  0  0  0  0  0  # atno 8009 bound_to 7997
  156.2039  140.1732  156.7827 H   0  0  0  0  0  0  0  0  0  0  0  0  # atno 8010 bound_to 7997
  139.5500  144.2135  152.1059 H   0  0  0  0  0  0  0  0  0  0  0  0  # atno 10167 bound_to 10162
  156.0010  130.5016  150.5734 H   0  0  0  0  0  0  0  0  0  0  0  0  # atno 10718 bound_to 10713
  153.9595  135.2961  155.3434 H   0  0  0  0  0  0  0  0  0  0  0  0  # atno 10763 bound_to 10752
  154.7382  135.5036  153.9081 H   0  0  0  0  0  0  0  0  0  0  0  0  # atno 10764 bound_to 10752
  153.0954  135.6719  153.9884 H   0  0  0  0  0  0  0  0  0  0  0  0  # atno 10765 bound_to 10752
  140.2329  134.8110  157.3335 H   0  0  0  0  0  0  0  0  0  0  0  0  # atno 11005 bound_to 11000
  146.1816  140.6488  142.9186 LP  0  0  0  0  0  0  0  0  0  0  0  0  # atno 17320 bound_to 7965
  144.7459  140.5066  143.6836 LP  0  0  0  0  0  0  0  0  0  0  0  0  # atno 17321 bound_to 7965
  140.1628  144.5009  150.6623 LP  0  0  0  0  0  0  0  0  0  0  0  0  # atno 17342 bound_to 10162
  140.6759  143.2305  151.5507 LP  0  0  0  0  0  0  0  0  0  0  0  0  # atno 17343 bound_to 10162
  157.3626  131.0752  151.1624 LP  0  0  0  0  0  0  0  0  0  0  0  0  # atno 17370 bound_to 10713
  157.2404  130.6566  149.5887 LP  0  0  0  0  0  0  0  0  0  0  0  0  # atno 17371 bound_to 10713
  140.1732  134.4582  155.7818 LP  0  0  0  0  0  0  0  0  0  0  0  0  # atno 17394 bound_to 11000
  141.2216  133.6951  156.7743 LP  0  0  0  0  0  0  0  0  0  0  0  0  # atno 17395 bound_to 11000

$$$$
