AV-unprocessed.smi:1672|AV-procd|sdf|6706|dock2
  -GOLD-   22720 7443D 1   1.00000     0.00000
 Structure written by MMmdl.
 49 51  0  0  0  0  0  0  0  0  3 V2000
  146.9629  132.6500  153.4609 C   0  0  0  0  0  0  0  0  0  0  0  0
  147.8688  133.5256  154.3383 C   0  0  2  0  0  0  0  0  0  0  0  0
  147.3821  134.9838  154.3819 C   0  0  0  0  0  0  0  0  0  0  0  0
  148.3154  135.8601  155.2342 C   0  0  0  0  0  0  0  0  0  0  0  0
  149.7133  135.7964  154.7360 N   0  3  1  0  0  0  0  0  0  0  0  0
  150.6103  136.7454  155.4450 C   0  0  0  0  0  0  0  0  0  0  0  0
  150.1258  138.2055  155.3465 C   0  0  1  0  0  0  0  0  0  0  0  0
  149.2487  138.4625  156.4248 O   0  0  0  0  0  0  0  0  0  0  0  0
  151.3019  139.2012  155.3997 C   0  0  0  0  0  0  0  0  0  0  0  0
  150.9342  140.4980  155.9928 N   0  0  0  0  0  0  0  0  0  0  0  0
  150.0464  141.4504  155.5785 C   0  0  0  0  0  0  0  0  0  0  0  0
  149.1881  141.4209  154.3563 C   0  0  0  0  0  0  0  0  0  0  0  0
  148.4412  142.6062  154.1967 O   0  0  0  0  0  0  0  0  0  0  0  0
  150.0879  142.4633  156.4897 N   0  3  0  0  0  0  0  0  0  0  0  0
  151.0000  142.1559  157.4993 C   0  0  0  0  0  0  0  0  0  0  0  0
  151.3792  142.8681  158.6328 C   0  0  0  0  0  0  0  0  0  0  0  0
  152.3419  142.2632  159.4673 C   0  0  0  0  0  0  0  0  0  0  0  0
  152.8889  140.9999  159.1617 C   0  0  0  0  0  0  0  0  0  0  0  0
  152.4972  140.2879  158.0087 C   0  0  0  0  0  0  0  0  0  0  0  0
  151.5451  140.8933  157.1887 C   0  0  0  0  0  0  0  0  0  0  0  0
  150.2228  134.3993  154.7237 C   0  0  0  0  0  0  0  0  0  0  0  0
  149.3301  133.4931  153.8592 C   0  0  0  0  0  0  0  0  0  0  0  0
  146.9515  132.9988  152.4276 H   0  0  0  0  0  0  0  0  0  0  0  0
  145.9355  132.6596  153.8261 H   0  0  0  0  0  0  0  0  0  0  0  0
  147.3013  131.6133  153.4579 H   0  0  0  0  0  0  0  0  0  0  0  0
  147.8348  133.1256  155.3530 H   0  0  0  0  0  0  0  0  0  0  0  0
  147.3287  135.3876  153.3696 H   0  0  0  0  0  0  0  0  0  0  0  0
  146.3695  135.0279  154.7848 H   0  0  0  0  0  0  0  0  0  0  0  0
  147.9591  136.8906  155.2044 H   0  0  0  0  0  0  0  0  0  0  0  0
  148.2838  135.5432  156.2781 H   0  0  0  0  0  0  0  0  0  0  0  0
  150.6720  136.4759  156.5008 H   0  0  0  0  0  0  0  0  0  0  0  0
  151.6222  136.6486  155.0485 H   0  0  0  0  0  0  0  0  0  0  0  0
  149.5759  138.3623  154.4196 H   0  0  0  0  0  0  0  0  0  0  0  0
  149.4351  137.8485  157.1194 H   0  0  0  0  0  0  0  0  0  0  0  0
  152.1246  138.7849  155.9815 H   0  0  0  0  0  0  0  0  0  0  0  0
  151.7002  139.3842  154.4011 H   0  0  0  0  0  0  0  0  0  0  0  0
  149.8052  141.2605  153.4726 H   0  0  0  0  0  0  0  0  0  0  0  0
  148.5003  140.5773  154.4196 H   0  0  0  0  0  0  0  0  0  0  0  0
  148.8639  143.2966  154.6852 H   0  0  0  0  0  0  0  0  0  0  0  0
  150.9608  143.8354  158.8700 H   0  0  0  0  0  0  0  0  0  0  0  0
  152.6661  142.7781  160.3603 H   0  0  0  0  0  0  0  0  0  0  0  0
  153.6239  140.5682  159.8259 H   0  0  0  0  0  0  0  0  0  0  0  0
  152.9220  139.3206  157.7854 H   0  0  0  0  0  0  0  0  0  0  0  0
  151.2389  134.3667  154.3330 H   0  0  0  0  0  0  0  0  0  0  0  0
  150.2667  134.0173  155.7449 H   0  0  0  0  0  0  0  0  0  0  0  0
  149.7094  132.4710  153.8875 H   0  0  0  0  0  0  0  0  0  0  0  0
  149.3868  133.8144  152.8180 H   0  0  0  0  0  0  0  0  0  0  0  0
  149.6806  136.1090  153.7755 H   0  0  0  0  0  0  0  0  0  0  0  0
  149.5293  143.3048  156.4221 H   0  0  0  0  0  0  0  0  0  0  0  0
  1  2  1  0  0  0  0
  1 23  1  0  0  0  0
  1 24  1  0  0  0  0
  1 25  1  0  0  0  0
  2 22  1  0  0  0  0
  2  3  1  0  0  0  0
  2 26  1  0  0  0  0
  3  4  1  0  0  0  0
  3 27  1  0  0  0  0
  3 28  1  0  0  0  0
  4  5  1  0  0  0  0
  4 29  1  0  0  0  0
  4 30  1  0  0  0  0
  5  6  1  0  0  0  0
  5 21  1  0  0  0  0
  5 48  1  0  0  0  0
  6  7  1  0  0  0  0
  6 31  1  0  0  0  0
  6 32  1  0  0  0  0
  7  8  1  0  0  0  0
  7  9  1  0  0  0  0
  7 33  1  0  0  0  0
  8 34  1  0  0  0  0
  9 10  1  0  0  0  0
  9 35  1  0  0  0  0
  9 36  1  0  0  0  0
 10 20  1  0  0  0  0
 10 11  1  0  0  0  0
 11 12  1  0  0  0  0
 11 14  2  0  0  0  0
 12 13  1  0  0  0  0
 12 37  1  0  0  0  0
 12 38  1  0  0  0  0
 13 39  1  0  0  0  0
 14 15  1  0  0  0  0
 14 49  1  0  0  0  0
 15 20  2  0  0  0  0
 15 16  1  0  0  0  0
 16 17  2  0  0  0  0
 16 40  1  0  0  0  0
 17 18  1  0  0  0  0
 17 41  1  0  0  0  0
 18 19  2  0  0  0  0
 18 42  1  0  0  0  0
 19 20  1  0  0  0  0
 19 43  1  0  0  0  0
 21 22  1  0  0  0  0
 21 44  1  0  0  0  0
 21 45  1  0  0  0  0
 22 46  1  0  0  0  0
 22 47  1  0  0  0  0
M  CHG  1   5   1
M  CHG  1  14   1
M  END
> <s_m_source_file>
AV-unprocessed.smi

> <i_m_source_file_index>
1672

> <i_lp_mmshare_version>
43012

> <i_f3d_flags>
0

> <s_epik_input>
W0NIM11bQ0hdMVtDSDJdW0NIMl1OKFtDSDJdW0NIMl0xKVtDSDJdW0NASF0oW09IXSlbQ0gyXW4oYyhuMilbQ0gyXVtPSF0pYyhjMjMpW2NIXVtjSF1bY0hdW2NIXTM=

> <s_epik_cmdline>
J2VwaWtfcHl0aG9uJywgJy1waCcsICc3LjAnLCAnLXRuJywgJzgnLCAnLW1hJywgJzIwMCcsICctbWV0YWxfYmluZGluZycsICctaW1hZScsICc8aW5maWxlLm1hZT4nLCAnLW9tYWUnLCAnPG91dGZpbGUubWFlPic=

> <r_epik_Ionization_Penalty>
1.51642

> <r_epik_Ionization_Penalty_Charging>
1.51557

> <r_epik_Ionization_Penalty_Neutral>
0.000856474

> <r_epik_State_Penalty>
1.6048

> <r_epik_Charging_Adjusted_Penalty>
3.12037

> <i_epik_Tot_Q>
2

> <i_epik_Tot_abs_Q>
2

> <r_epik_Metal_State_Penalty>
5.65673

> <b_epik_Metal_Only>
0

> <s_lp_Force_Field>
OPLS_2005

> <r_lp_Energy>
28.534

> <b_lp_Chiralities_Consistent>
1

> <s_lp_Variant>
AV-unprocessed.smi:1672-6

> <Gold.Version>
5.8.1

> <Gold.Id.Protein>
6NUR|6NUR_protein|mol2

> <Gold.PLP.Fitness>
53.2498

> <Gold.PLP.PLP>
-39.7359

> <Gold.PLP.part.hbond>
-4.5125

> <Gold.PLP.part.metal>
0.0000

> <Gold.PLP.part.buried>
-3.0318

> <Gold.PLP.part.nonpolar>
-31.4970

> <Gold.PLP.part.repulsive>
0.1078

> <Gold.PLP.ligand.clash>
0.0000

> <Gold.PLP.ligand.torsion>
0.7598

> <Gold.PLP.Chemscore.Hbond>
5.0000

> <Gold.PLP.Chemscore.CHOScore>
0.0000

> <Gold.PLP.Chemscore.Metal>
0.0000

> <Gold.Chemscore.Hbonds>
donor molecule, donor type, donor heavy atom, donor atom, acceptor molecule, acceptor atom, score
      L1  H     5    48       P1  7948  2.00
      L1  H    13    39       P1  8028  1.00
      L1  H    14    49       P1  8028  2.00

> <Gold.PLP.Chemscore.Internal.Correction>
0.0336

> <Gold.Rescore>
     Score         DG    S(hbond)    S(metal)    S(lipo)     H(rot)  DE(clash)    DE(int)     intcor
     17.83     -18.81       2.94        0.00      94.74       2.96       0.10       0.89       ----

> <Gold.Chemscore.Fitness>
17.8255

> <Gold.Chemscore.DG>
-18.8139

> <Gold.Chemscore.ZeroCoef>
-5.4800

> <Gold.Chemscore.Hbond>
2.9389

> <Gold.Chemscore.Metal>
0.0000

> <Gold.Chemscore.Lipo>
94.7360

> <Gold.Chemscore.Internal_Hbond>
0.0000

> <Gold.Chemscore.DEClash>
0.1032

> <Gold.Chemscore.DEInternal>
0.8851

> <Gold.Chemscore.Rot>
2.9555

> <Gold.Chemscore.Internal.Correction>
   9.000000E+99

> <Gold.Chemscore.Hbonds>
donor molecule, donor type, donor heavy atom, donor atom, acceptor molecule, acceptor atom, score
      L1  H     5    48       P1  7948  0.32
      L1  H    13    39       P1  8028  0.97
      L1  H    14    49       P1  8028  0.99

> <Gold.Chemscore.Hbond.Weighted>
-9.8158

> <Gold.Chemscore.Metal.Weighted>
-0.0000

> <Gold.Chemscore.Lipo.Weighted>
-11.0841

> <Gold.Chemscore.Internal_Hbond.Weighted>
0.0000

> <Gold.Chemscore.DEClash.Weighted>
0.1032

> <Gold.Chemscore.DEInternal.Weighted>
0.8851

> <Gold.Chemscore.Rot.Weighted>
7.5660

> <Gold.Chemscore.Internal.Correction.Weighted>
   9.000000E+99

> <Gold.Protein.RotatedTorsions>
[ 6907 6896 6895 6894 ] final   14.80 input  -60.11 | X-H torsion
[ 7974 7965 7964 7962 ] final   17.93 input  175.53 | X-H torsion
[ 8008 7997 7996 7995 ] final  -11.00 input   59.86 | X-H torsion
[ 10167 10162 10161 10158 ] final -146.44 input  -65.29 | X-H torsion
[ 10718 10713 10712 10709 ] final  145.08 input   66.30 | X-H torsion
[ 10763 10752 10751 10750 ] final  -53.49 input  -60.55 | X-H torsion
[ 11005 11000 10999 10996 ] final  -11.14 input  -57.11 | X-H torsion

> <Gold.Protein.ActiveResidues>
 VAL166  LYS551  ARG553  GLY616  TRP617  ASP618  TYR619  PRO620  LYS621  CYS622 
 ASP623  PHE694  ASN695  SER759  ASP760  ASP761  ALA762  ILE779  LEU786  VAL792 
 PHE793  MET794  SER795  GLU796  ALA797  LYS798  CYS799  TRP800  GLU811  SER814 

> <Gold.Protein.RotatedAtoms>
  151.8079  135.0689  160.0408 H   0  0  0  0  0  0  0  0  0  0  0  0  # atno 6907 bound_to 6896
  152.3042  133.5681  159.5646 H   0  0  0  0  0  0  0  0  0  0  0  0  # atno 6908 bound_to 6896
  150.7288  134.0164  159.3728 H   0  0  0  0  0  0  0  0  0  0  0  0  # atno 6909 bound_to 6896
  146.2202  139.8530  142.8619 H   0  0  0  0  0  0  0  0  0  0  0  0  # atno 7974 bound_to 7965
  154.5504  140.2314  155.8495 H   0  0  0  0  0  0  0  0  0  0  0  0  # atno 8008 bound_to 7997
  156.1941  140.3069  155.9353 H   0  0  0  0  0  0  0  0  0  0  0  0  # atno 8009 bound_to 7997
  155.3082  140.0434  157.3024 H   0  0  0  0  0  0  0  0  0  0  0  0  # atno 8010 bound_to 7997
  139.7713  143.8233  152.2625 H   0  0  0  0  0  0  0  0  0  0  0  0  # atno 10167 bound_to 10162
  157.3496  131.0948  151.1012 H   0  0  0  0  0  0  0  0  0  0  0  0  # atno 10718 bound_to 10713
  154.1597  135.6476  153.4983 H   0  0  0  0  0  0  0  0  0  0  0  0  # atno 10763 bound_to 10752
  153.0114  135.5358  154.6723 H   0  0  0  0  0  0  0  0  0  0  0  0  # atno 10764 bound_to 10752
  154.6033  135.2946  155.0483 H   0  0  0  0  0  0  0  0  0  0  0  0  # atno 10765 bound_to 10752
  140.7522  133.8583  155.9054 H   0  0  0  0  0  0  0  0  0  0  0  0  # atno 11005 bound_to 11000
  145.2782  141.0130  143.3733 LP  0  0  0  0  0  0  0  0  0  0  0  0  # atno 17320 bound_to 7965
  144.9170  139.4457  143.6559 LP  0  0  0  0  0  0  0  0  0  0  0  0  # atno 17321 bound_to 7965
  139.8269  144.7271  150.9501 LP  0  0  0  0  0  0  0  0  0  0  0  0  # atno 17342 bound_to 10162
  140.7814  143.4106  151.0998 LP  0  0  0  0  0  0  0  0  0  0  0  0  # atno 17343 bound_to 10162
  157.2193  130.6474  149.5804 LP  0  0  0  0  0  0  0  0  0  0  0  0  # atno 17370 bound_to 10713
  155.9719  130.4634  150.6182 LP  0  0  0  0  0  0  0  0  0  0  0  0  # atno 17371 bound_to 10713
  140.9741  134.1493  157.4551 LP  0  0  0  0  0  0  0  0  0  0  0  0  # atno 17394 bound_to 11000
  139.8785  134.9988  156.5922 LP  0  0  0  0  0  0  0  0  0  0  0  0  # atno 17395 bound_to 11000

$$$$
