AV-unprocessed.smi:69|AV-procd|sdf|656|dock5
  -GOLD-   2262016553D 1   1.00000     0.00000
 Structure written by MMmdl.
 32 34  0  0  0  0  0  0  0  0  1 V2000
  152.6410  139.0727  158.9331 N   0  0  0  0  0  0  0  0  0  0  0  0
  152.2738  139.2647  157.6587 C   0  0  0  0  0  0  0  0  0  0  0  0
  153.1021  138.8341  156.6780 N   0  0  0  0  0  0  0  0  0  0  0  0
  152.7554  139.0090  155.3981 C   0  0  0  0  0  0  0  0  0  0  0  0
  151.6536  139.5780  154.9000 N   0  0  0  0  0  0  0  0  0  0  0  0
  150.8233  140.0133  155.8928 C   0  0  0  0  0  0  0  0  0  0  0  0
  151.0584  139.8944  157.2896 C   0  0  0  0  0  0  0  0  0  0  0  0
  149.9960  140.4435  157.9948 N   0  0  0  0  0  0  0  0  0  0  0  0
  149.1795  140.8579  157.0625 C   0  0  0  0  0  0  0  0  0  0  0  0
  149.6066  140.6479  155.7668 N   0  0  0  0  0  0  0  0  0  0  0  0
  148.9260  140.9747  154.4728 C   0  0  1  0  0  0  0  0  0  0  0  0
  148.7106  139.7818  153.7800 O   0  0  0  0  0  0  0  0  0  0  0  0
  147.3905  139.3158  154.0387 C   0  0  2  0  0  0  0  0  0  0  0  0
  146.9566  138.2578  153.0095 C   0  0  0  0  0  0  0  0  0  0  0  0
  147.5737  138.5129  151.7655 O   0  0  0  0  0  0  0  0  0  0  0  0
  146.5922  140.6245  154.0264 C   0  0  2  0  0  0  0  0  0  0  0  0
  146.3149  141.0249  152.6938 O   0  0  0  0  0  0  0  0  0  0  0  0
  147.5374  141.5863  154.7465 C   0  0  2  0  0  0  0  0  0  0  0  0
  147.4101  142.9218  154.2948 O   0  0  0  0  0  0  0  0  0  0  0  0
  149.6249  141.6234  153.9428 H   0  0  0  0  0  0  0  0  0  0  0  0
  147.3452  138.8972  155.0461 H   0  0  0  0  0  0  0  0  0  0  0  0
  145.6434  140.5249  154.5546 H   0  0  0  0  0  0  0  0  0  0  0  0
  147.3311  141.5564  155.8178 H   0  0  0  0  0  0  0  0  0  0  0  0
  152.0381  139.3837  159.6813 H   0  0  0  0  0  0  0  0  0  0  0  0
  153.5143  138.6114  159.1432 H   0  0  0  0  0  0  0  0  0  0  0  0
  153.4618  138.6403  154.6690 H   0  0  0  0  0  0  0  0  0  0  0  0
  148.2378  141.3301  157.3033 H   0  0  0  0  0  0  0  0  0  0  0  0
  147.2742  137.2664  153.3340 H   0  0  0  0  0  0  0  0  0  0  0  0
  145.8725  138.2326  152.8952 H   0  0  0  0  0  0  0  0  0  0  0  0
  148.1808  139.2291  151.8729 H   0  0  0  0  0  0  0  0  0  0  0  0
  145.4414  140.7378  152.4742 H   0  0  0  0  0  0  0  0  0  0  0  0
  148.1177  143.4287  154.6637 H   0  0  0  0  0  0  0  0  0  0  0  0
  1  2  1  0  0  0  0
  1 24  1  0  0  0  0
  1 25  1  0  0  0  0
  2  7  1  0  0  0  0
  2  3  2  0  0  0  0
  3  4  1  0  0  0  0
  4  5  2  0  0  0  0
  4 26  1  0  0  0  0
  5  6  1  0  0  0  0
  6 10  1  0  0  0  0
  6  7  2  0  0  0  0
  7  8  1  0  0  0  0
  8  9  2  0  0  0  0
  9 10  1  0  0  0  0
  9 27  1  0  0  0  0
 10 11  1  0  0  0  0
 11 20  1  0  0  0  0
 11 18  1  0  0  0  0
 11 12  1  0  0  0  0
 12 13  1  0  0  0  0
 13 21  1  0  0  0  0
 13 14  1  0  0  0  0
 13 16  1  0  0  0  0
 14 15  1  0  0  0  0
 14 28  1  0  0  0  0
 14 29  1  0  0  0  0
 15 30  1  0  0  0  0
 16 22  1  0  0  0  0
 16 17  1  0  0  0  0
 16 18  1  0  0  0  0
 17 31  1  0  0  0  0
 18 23  1  0  0  0  0
 18 19  1  0  0  0  0
 19 32  1  0  0  0  0
M  END
> <s_m_source_file>
AV-unprocessed.smi

> <i_m_source_file_index>
69

> <i_lp_mmshare_version>
43012

> <i_f3d_flags>
0

> <s_epik_input>
bjFbY0hdbmMoW05IMl0pYyhjMTIpbltjSF1uMltDQEBIXTNPW0NASF0oW0NIMl1bT0hdKVtDQEBIXShbT0hdKVtDQEhdM1tPSF0=

> <s_epik_cmdline>
J2VwaWtfcHl0aG9uJywgJy1waCcsICc3LjAnLCAnLXRuJywgJzgnLCAnLW1hJywgJzIwMCcsICctbWV0YWxfYmluZGluZycsICctaW1hZScsICc8aW5maWxlLm1hZT4nLCAnLW9tYWUnLCAnPG91dGZpbGUubWFlPic=

> <r_lp_tautomer_probability>
1

> <r_epik_Ionization_Penalty>
0.000428445

> <r_epik_Ionization_Penalty_Charging>
0

> <r_epik_Ionization_Penalty_Neutral>
0.000428445

> <r_epik_State_Penalty>
-0

> <r_epik_Charging_Adjusted_Penalty>
0

> <i_epik_Tot_Q>
0

> <i_epik_Tot_abs_Q>
0

> <r_epik_Metal_State_Penalty>
-0

> <b_epik_Metal_Only>
0

> <s_epik_Chemistry_Notes>
This compound contains an acetal/aminal-like group ( X-CH(R)-Y where X, Y are N, S, or O) that may be acid/base labile, releasing an aldehyde.

> <s_lp_Force_Field>
OPLS_2005

> <r_lp_Energy>
39.6726

> <b_lp_Chiralities_Consistent>
1

> <s_lp_Variant>
AV-unprocessed.smi:69-14

> <Gold.Version>
5.8.1

> <Gold.Id.Protein>
6NUR|6NUR_protein|mol2

> <Gold.PLP.Fitness>
40.6272

> <Gold.PLP.PLP>
-24.4549

> <Gold.PLP.part.hbond>
-7.7650

> <Gold.PLP.part.metal>
0.0000

> <Gold.PLP.part.buried>
-1.1844

> <Gold.PLP.part.nonpolar>
-19.1317

> <Gold.PLP.part.repulsive>
2.9167

> <Gold.PLP.ligand.clash>
0.0000

> <Gold.PLP.ligand.torsion>
0.3220

> <Gold.PLP.Chemscore.Hbond>
5.5974

> <Gold.PLP.Chemscore.CHOScore>
0.0000

> <Gold.PLP.Chemscore.Metal>
0.0000

> <Gold.Chemscore.Hbonds>
donor molecule, donor type, donor heavy atom, donor atom, acceptor molecule, acceptor atom, score
      L1  H    15    30       P1  7957  0.85
      L1  H    17    31       P1 10175  0.90
      L1  H    19    32       P1  8028  1.00
      P1  H  7954  7966       L1    15  0.85
      P1  H  7989  7998       L1     5  1.00
      P1  H  7997  8008       L1     3  0.50

> <Gold.PLP.Chemscore.Internal.Correction>
0.0240

> <Gold.Rescore>
     Score         DG    S(hbond)    S(metal)    S(lipo)     H(rot)  DE(clash)    DE(int)     intcor
      7.81      -8.69       3.23        0.00      23.27       4.03       0.53       0.36       ----

> <Gold.Chemscore.Fitness>
7.8073

> <Gold.Chemscore.DG>
-8.6901

> <Gold.Chemscore.ZeroCoef>
-5.4800

> <Gold.Chemscore.Hbond>
3.2332

> <Gold.Chemscore.Metal>
0.0000

> <Gold.Chemscore.Lipo>
23.2661

> <Gold.Chemscore.Internal_Hbond>
0.0000

> <Gold.Chemscore.DEClash>
0.5252

> <Gold.Chemscore.DEInternal>
0.3576

> <Gold.Chemscore.Rot>
4.0277

> <Gold.Chemscore.Internal.Correction>
   9.000000E+99

> <Gold.Chemscore.Hbonds>
donor molecule, donor type, donor heavy atom, donor atom, acceptor molecule, acceptor atom, score
      L1  H    15    30       P1  7957  0.84
      L1  H    17    31       P1 10175  0.18
      L1  H    19    32       P1  8028  0.89
      P1  H  7954  7966       L1    15  0.15
      P1  H  7989  7998       L1     5  0.69
      P1  H  7997  8008       L1     3  0.01

> <Gold.Chemscore.Hbond.Weighted>
-10.7989

> <Gold.Chemscore.Metal.Weighted>
-0.0000

> <Gold.Chemscore.Lipo.Weighted>
-2.7221

> <Gold.Chemscore.Internal_Hbond.Weighted>
0.0000

> <Gold.Chemscore.DEClash.Weighted>
0.5252

> <Gold.Chemscore.DEInternal.Weighted>
0.3576

> <Gold.Chemscore.Rot.Weighted>
10.3110

> <Gold.Chemscore.Internal.Correction.Weighted>
   9.000000E+99

> <Gold.Protein.RotatedTorsions>
[ 6907 6896 6895 6894 ] final -165.19 input  -60.11 | X-H torsion
[ 7974 7965 7964 7962 ] final -179.56 input  175.53 | X-H torsion
[ 8008 7997 7996 7995 ] final  -52.07 input   59.86 | X-H torsion
[ 10167 10162 10161 10158 ] final   71.05 input  -65.29 | X-H torsion
[ 10718 10713 10712 10709 ] final   51.48 input   66.30 | X-H torsion
[ 10763 10752 10751 10750 ] final  170.32 input  -60.55 | X-H torsion
[ 11005 11000 10999 10996 ] final  -62.63 input  -57.11 | X-H torsion

> <Gold.Protein.ActiveResidues>
 VAL166  LYS551  ARG553  GLY616  TRP617  ASP618  TYR619  PRO620  LYS621  CYS622 
 ASP623  PHE694  ASN695  SER759  ASP760  ASP761  ALA762  ILE779  LEU786  VAL792 
 PHE793  MET794  SER795  GLU796  ALA797  LYS798  CYS799  TRP800  GLU811  SER814 

> <Gold.Protein.RotatedAtoms>
  151.4238  133.3690  159.2759 H   0  0  0  0  0  0  0  0  0  0  0  0  # atno 6907 bound_to 6896
  150.9274  134.8692  159.7539 H   0  0  0  0  0  0  0  0  0  0  0  0  # atno 6908 bound_to 6896
  152.5012  134.4180  159.9523 H   0  0  0  0  0  0  0  0  0  0  0  0  # atno 6909 bound_to 6896
  144.7137  140.0700  143.6429 H   0  0  0  0  0  0  0  0  0  0  0  0  # atno 7974 bound_to 7965
  154.4098  140.1232  156.4932 H   0  0  0  0  0  0  0  0  0  0  0  0  # atno 8008 bound_to 7997
  155.6969  140.3495  155.4897 H   0  0  0  0  0  0  0  0  0  0  0  0  # atno 8009 bound_to 7997
  155.9419  140.1088  157.1038 H   0  0  0  0  0  0  0  0  0  0  0  0  # atno 8010 bound_to 7997
  140.0503  144.5317  150.7368 H   0  0  0  0  0  0  0  0  0  0  0  0  # atno 10167 bound_to 10162
  157.4985  130.8422  149.8287 H   0  0  0  0  0  0  0  0  0  0  0  0  # atno 10718 bound_to 10713
  154.3959  135.2754  155.2126 H   0  0  0  0  0  0  0  0  0  0  0  0  # atno 10763 bound_to 10752
  154.4173  135.6008  153.5992 H   0  0  0  0  0  0  0  0  0  0  0  0  # atno 10764 bound_to 10752
  152.9831  135.5964  154.4220 H   0  0  0  0  0  0  0  0  0  0  0  0  # atno 10765 bound_to 10752
  141.1366  133.6642  156.5557 H   0  0  0  0  0  0  0  0  0  0  0  0  # atno 11005 bound_to 11000
  145.9792  139.2928  143.1052 LP  0  0  0  0  0  0  0  0  0  0  0  0  # atno 17320 bound_to 7965
  145.9030  140.9230  143.0493 LP  0  0  0  0  0  0  0  0  0  0  0  0  # atno 17321 bound_to 7965
  140.7219  143.2598  151.4248 LP  0  0  0  0  0  0  0  0  0  0  0  0  # atno 17342 bound_to 10162
  139.5957  144.1403  152.2141 LP  0  0  0  0  0  0  0  0  0  0  0  0  # atno 17343 bound_to 10162
  156.0215  130.3794  150.1949 LP  0  0  0  0  0  0  0  0  0  0  0  0  # atno 17370 bound_to 10713
  157.0138  130.9959  151.3358 LP  0  0  0  0  0  0  0  0  0  0  0  0  # atno 17371 bound_to 10713
  140.4028  134.7341  157.4790 LP  0  0  0  0  0  0  0  0  0  0  0  0  # atno 17394 bound_to 11000
  140.0483  134.6167  155.8893 LP  0  0  0  0  0  0  0  0  0  0  0  0  # atno 17395 bound_to 11000

$$$$
