AV-unprocessed.smi:2253|AV-procd|sdf|9119|dock1
  -GOLD-   2272012323D 1   1.00000     0.00000
 Structure written by MMmdl.
 51 53  0  0  0  0  0  0  0  0  2 V2000
  144.1611  134.2990  151.3421 C   0  0  0  0  0  0  0  0  0  0  0  0
  144.9042  135.3650  152.0478 N   0  3  2  0  0  0  0  0  0  0  0  0
  144.0984  136.0123  153.1060 C   0  0  0  0  0  0  0  0  0  0  0  0
  144.9455  137.0073  153.9151 C   0  0  0  0  0  0  0  0  0  0  0  0
  145.6145  138.0952  153.0298 C   0  0  1  0  0  0  0  0  0  0  0  0
  146.5304  138.9505  153.8195 N   0  0  0  0  0  0  0  0  0  0  0  0
  145.8216  139.6251  154.9214 C   0  0  0  0  0  0  0  0  0  0  0  0
  146.7714  140.4649  155.7931 C   0  0  0  0  0  0  0  0  0  0  0  0
  147.4860  141.5328  154.9582 C   0  0  0  0  0  0  0  0  0  0  0  0
  148.4709  142.2543  155.7592 N   0  0  0  0  0  0  0  0  0  0  0  0
  149.4022  141.6800  156.5346 C   0  0  0  0  0  0  0  0  0  0  0  0
  149.5218  140.4611  156.6527 O   0  0  0  0  0  0  0  0  0  0  0  0
  150.1610  142.6067  157.1461 N   0  0  0  0  0  0  0  0  0  0  0  0
  151.2438  142.4420  158.0565 C   0  0  0  0  0  0  0  0  0  0  0  0
  151.6184  141.2144  158.6577 C   0  0  0  0  0  0  0  0  0  0  0  0
  152.7173  141.2012  159.5403 C   0  0  0  0  0  0  0  0  0  0  0  0
  153.4406  142.2985  159.8464 N   0  0  0  0  0  0  0  0  0  0  0  0
  153.0844  143.4654  159.2701 C   0  0  0  0  0  0  0  0  0  0  0  0
  152.0034  143.5884  158.3745 C   0  0  0  0  0  0  0  0  0  0  0  0
  151.7026  144.7928  157.8308 F   0  0  0  0  0  0  0  0  0  0  0  0
  148.1692  140.8352  153.7803 C   0  0  0  0  0  0  0  0  0  0  0  0
  147.1634  139.9860  152.9836 C   0  0  0  0  0  0  0  0  0  0  0  0
  146.3586  137.3747  151.8716 C   0  0  0  0  0  0  0  0  0  0  0  0
  145.4700  136.3698  151.1215 C   0  0  0  0  0  0  0  0  0  0  0  0
  143.2944  134.7054  150.8189 H   0  0  0  0  0  0  0  0  0  0  0  0
  143.8127  133.5422  152.0457 H   0  0  0  0  0  0  0  0  0  0  0  0
  144.8007  133.8027  150.6114 H   0  0  0  0  0  0  0  0  0  0  0  0
  143.2438  136.5225  152.6582 H   0  0  0  0  0  0  0  0  0  0  0  0
  143.6971  135.2506  153.7759 H   0  0  0  0  0  0  0  0  0  0  0  0
  144.2756  137.4488  154.6509 H   0  0  0  0  0  0  0  0  0  0  0  0
  145.7095  136.4625  154.4718 H   0  0  0  0  0  0  0  0  0  0  0  0
  144.8326  138.7245  152.6012 H   0  0  0  0  0  0  0  0  0  0  0  0
  145.0218  140.2511  154.5228 H   0  0  0  0  0  0  0  0  0  0  0  0
  145.3603  138.9038  155.5914 H   0  0  0  0  0  0  0  0  0  0  0  0
  146.2062  140.9351  156.5986 H   0  0  0  0  0  0  0  0  0  0  0  0
  147.5020  139.8095  156.2701 H   0  0  0  0  0  0  0  0  0  0  0  0
  146.7497  142.2361  154.5638 H   0  0  0  0  0  0  0  0  0  0  0  0
  148.4392  143.2625  155.7180 H   0  0  0  0  0  0  0  0  0  0  0  0
  149.9199  143.5669  156.9484 H   0  0  0  0  0  0  0  0  0  0  0  0
  151.1018  140.2878  158.4673 H   0  0  0  0  0  0  0  0  0  0  0  0
  153.0249  140.2799  160.0129 H   0  0  0  0  0  0  0  0  0  0  0  0
  153.6797  144.3283  159.5298 H   0  0  0  0  0  0  0  0  0  0  0  0
  148.6250  141.5764  153.1227 H   0  0  0  0  0  0  0  0  0  0  0  0
  148.9800  140.1981  154.1376 H   0  0  0  0  0  0  0  0  0  0  0  0
  147.7274  139.5415  152.1671 H   0  0  0  0  0  0  0  0  0  0  0  0
  146.3992  140.6242  152.5372 H   0  0  0  0  0  0  0  0  0  0  0  0
  146.7130  138.0835  151.1250 H   0  0  0  0  0  0  0  0  0  0  0  0
  147.2384  136.8599  152.2606 H   0  0  0  0  0  0  0  0  0  0  0  0
  146.0607  135.8669  150.3545 H   0  0  0  0  0  0  0  0  0  0  0  0
  144.6619  136.8926  150.6069 H   0  0  0  0  0  0  0  0  0  0  0  0
  145.6851  134.9176  152.5067 H   0  0  0  0  0  0  0  0  0  0  0  0
  1  2  1  0  0  0  0
  1 25  1  0  0  0  0
  1 26  1  0  0  0  0
  1 27  1  0  0  0  0
  2 24  1  0  0  0  0
  2  3  1  0  0  0  0
  2 51  1  0  0  0  0
  3  4  1  0  0  0  0
  3 28  1  0  0  0  0
  3 29  1  0  0  0  0
  4  5  1  0  0  0  0
  4 30  1  0  0  0  0
  4 31  1  0  0  0  0
  5  6  1  0  0  0  0
  5 23  1  0  0  0  0
  5 32  1  0  0  0  0
  6 22  1  0  0  0  0
  6  7  1  0  0  0  0
  7  8  1  0  0  0  0
  7 33  1  0  0  0  0
  7 34  1  0  0  0  0
  8  9  1  0  0  0  0
  8 35  1  0  0  0  0
  8 36  1  0  0  0  0
  9 10  1  0  0  0  0
  9 21  1  0  0  0  0
  9 37  1  0  0  0  0
 10 11  1  0  0  0  0
 10 38  1  0  0  0  0
 11 12  2  0  0  0  0
 11 13  1  0  0  0  0
 13 14  1  0  0  0  0
 13 39  1  0  0  0  0
 14 19  1  0  0  0  0
 14 15  2  0  0  0  0
 15 16  1  0  0  0  0
 15 40  1  0  0  0  0
 16 17  2  0  0  0  0
 16 41  1  0  0  0  0
 17 18  1  0  0  0  0
 18 19  2  0  0  0  0
 18 42  1  0  0  0  0
 19 20  1  0  0  0  0
 21 22  1  0  0  0  0
 21 43  1  0  0  0  0
 21 44  1  0  0  0  0
 22 45  1  0  0  0  0
 22 46  1  0  0  0  0
 23 24  1  0  0  0  0
 23 47  1  0  0  0  0
 23 48  1  0  0  0  0
 24 49  1  0  0  0  0
 24 50  1  0  0  0  0
M  CHG  1   2   1
M  END
> <s_m_source_file>
AV-unprocessed.smi

> <i_m_source_file_index>
2253

> <i_lp_mmshare_version>
43012

> <i_f3d_flags>
0

> <s_epik_input>
W0NIM11OMVtDSDJdW0NIMl1bQ0hdKFtDSDJdW0NIMl0xKU4yW0NIMl1bQ0gyXVtDSF0oW0NIMl1bQ0gyXTIpW05IXUMoPU8pW05IXWMzW2NIXVtjSF1uW2NIXWMzRg==

> <s_epik_cmdline>
J2VwaWtfcHl0aG9uJywgJy1waCcsICc3LjAnLCAnLXRuJywgJzgnLCAnLW1hJywgJzIwMCcsICctbWV0YWxfYmluZGluZycsICctaW1hZScsICc8aW5maWxlLm1hZT4nLCAnLW9tYWUnLCAnPG91dGZpbGUubWFlPic=

> <r_epik_Ionization_Penalty>
1.01315

> <r_epik_Ionization_Penalty_Charging>
0.000974969

> <r_epik_Ionization_Penalty_Neutral>
1.01217

> <r_epik_State_Penalty>
1.10286

> <r_epik_Charging_Adjusted_Penalty>
1.10383

> <i_epik_Tot_Q>
1

> <i_epik_Tot_abs_Q>
1

> <r_epik_Metal_State_Penalty>
1.10232

> <b_epik_Metal_Only>
0

> <s_lp_Force_Field>
OPLS_2005

> <r_lp_Energy>
37.5712

> <b_lp_Chiralities_Consistent>
1

> <s_lp_Variant>
AV-unprocessed.smi:2253-5

> <Gold.Version>
5.8.1

> <Gold.Id.Protein>
6NUR|6NUR_protein|mol2

> <Gold.PLP.Fitness>
41.6091

> <Gold.PLP.PLP>
-36.2131

> <Gold.PLP.part.hbond>
-1.9457

> <Gold.PLP.part.metal>
0.0000

> <Gold.PLP.part.buried>
-0.3019

> <Gold.PLP.part.nonpolar>
-33.7596

> <Gold.PLP.part.repulsive>
0.2937

> <Gold.PLP.ligand.clash>
0.0000

> <Gold.PLP.ligand.torsion>
0.1243

> <Gold.PLP.Chemscore.Hbond>
1.8800

> <Gold.PLP.Chemscore.CHOScore>
0.0000

> <Gold.PLP.Chemscore.Metal>
0.0000

> <Gold.Chemscore.Hbonds>
donor molecule, donor type, donor heavy atom, donor atom, acceptor molecule, acceptor atom, score
      L1  H    10    38       P1  8028  0.96
      L1  H    13    39       P1  8028  0.86

> <Gold.PLP.Chemscore.Internal.Correction>
0.0047

> <Gold.Rescore>
     Score         DG    S(hbond)    S(metal)    S(lipo)     H(rot)  DE(clash)    DE(int)     intcor
     16.65     -20.58       1.85        0.00     103.61       1.24       1.51       2.43       ----

> <Gold.Chemscore.Fitness>
16.6464

> <Gold.Chemscore.DG>
-20.5814

> <Gold.Chemscore.ZeroCoef>
-5.4800

> <Gold.Chemscore.Hbond>
1.8454

> <Gold.Chemscore.Metal>
0.0000

> <Gold.Chemscore.Lipo>
103.6102

> <Gold.Chemscore.Internal_Hbond>
0.0000

> <Gold.Chemscore.DEClash>
1.5086

> <Gold.Chemscore.DEInternal>
2.4264

> <Gold.Chemscore.Rot>
1.2440

> <Gold.Chemscore.Internal.Correction>
   9.000000E+99

> <Gold.Chemscore.Hbonds>
donor molecule, donor type, donor heavy atom, donor atom, acceptor molecule, acceptor atom, score
      L1  H    10    38       P1  8028  0.87
      L1  H    13    39       P1  8028  0.81

> <Gold.Chemscore.Hbond.Weighted>
-6.1636

> <Gold.Chemscore.Metal.Weighted>
-0.0000

> <Gold.Chemscore.Lipo.Weighted>
-12.1224

> <Gold.Chemscore.Internal_Hbond.Weighted>
0.0000

> <Gold.Chemscore.DEClash.Weighted>
1.5086

> <Gold.Chemscore.DEInternal.Weighted>
2.4264

> <Gold.Chemscore.Rot.Weighted>
3.1847

> <Gold.Chemscore.Internal.Correction.Weighted>
   9.000000E+99

> <Gold.Protein.RotatedTorsions>
[ 6907 6896 6895 6894 ] final  -79.63 input  -60.11 | X-H torsion
[ 7974 7965 7964 7962 ] final  148.61 input  175.53 | X-H torsion
[ 8008 7997 7996 7995 ] final  -98.38 input   59.86 | X-H torsion
[ 10167 10162 10161 10158 ] final   23.05 input  -65.29 | X-H torsion
[ 10718 10713 10712 10709 ] final   34.92 input   66.30 | X-H torsion
[ 10763 10752 10751 10750 ] final   57.85 input  -60.55 | X-H torsion
[ 11005 11000 10999 10996 ] final -102.36 input  -57.11 | X-H torsion

> <Gold.Protein.ActiveResidues>
 VAL166  LYS551  ARG553  GLY616  TRP617  ASP618  TYR619  PRO620  LYS621  CYS622 
 ASP623  PHE694  ASN695  SER759  ASP760  ASP761  ALA762  ILE779  LEU786  VAL792 
 PHE793  MET794  SER795  GLU796  ALA797  LYS798  CYS799  TRP800  GLU811  SER814 

> <Gold.Protein.RotatedAtoms>
  150.6946  134.4093  159.5153 H   0  0  0  0  0  0  0  0  0  0  0  0  # atno 6907 bound_to 6896
  152.1854  134.8716  160.0532 H   0  0  0  0  0  0  0  0  0  0  0  0  # atno 6908 bound_to 6896
  151.9691  133.3685  159.4101 H   0  0  0  0  0  0  0  0  0  0  0  0  # atno 6909 bound_to 6896
  144.8501  139.6175  143.5977 H   0  0  0  0  0  0  0  0  0  0  0  0  # atno 7974 bound_to 7965
  154.8004  140.0455  157.1268 H   0  0  0  0  0  0  0  0  0  0  0  0  # atno 8008 bound_to 7997
  154.9486  140.3062  155.5066 H   0  0  0  0  0  0  0  0  0  0  0  0  # atno 8009 bound_to 7997
  156.2961  140.2292  156.4561 H   0  0  0  0  0  0  0  0  0  0  0  0  # atno 8010 bound_to 7997
  140.5300  143.9857  150.6460 H   0  0  0  0  0  0  0  0  0  0  0  0  # atno 10167 bound_to 10162
  157.3163  130.7425  149.6757 H   0  0  0  0  0  0  0  0  0  0  0  0  # atno 10718 bound_to 10713
  152.9858  135.5627  154.5457 H   0  0  0  0  0  0  0  0  0  0  0  0  # atno 10763 bound_to 10752
  154.4904  135.2792  155.1503 H   0  0  0  0  0  0  0  0  0  0  0  0  # atno 10764 bound_to 10752
  154.2975  135.6314  153.5464 H   0  0  0  0  0  0  0  0  0  0  0  0  # atno 10765 bound_to 10752
  141.1192  133.8552  157.1350 H   0  0  0  0  0  0  0  0  0  0  0  0  # atno 11005 bound_to 11000
  146.2777  139.6796  142.9251 LP  0  0  0  0  0  0  0  0  0  0  0  0  # atno 17320 bound_to 7965
  145.4517  141.0428  143.2800 LP  0  0  0  0  0  0  0  0  0  0  0  0  # atno 17321 bound_to 7965
  140.3230  143.3125  152.0765 LP  0  0  0  0  0  0  0  0  0  0  0  0  # atno 17342 bound_to 10162
  139.4951  144.6561  151.6569 LP  0  0  0  0  0  0  0  0  0  0  0  0  # atno 17343 bound_to 10162
  155.9682  130.4236  150.4571 LP  0  0  0  0  0  0  0  0  0  0  0  0  # atno 17370 bound_to 10713
  157.2578  131.0560  151.2339 LP  0  0  0  0  0  0  0  0  0  0  0  0  # atno 17371 bound_to 10713
  140.0137  134.9977  157.0448 LP  0  0  0  0  0  0  0  0  0  0  0  0  # atno 17394 bound_to 11000
  140.4557  134.1536  155.7186 LP  0  0  0  0  0  0  0  0  0  0  0  0  # atno 17395 bound_to 11000

$$$$
