AV-unprocessed.smi:1209|AV-procd|sdf|5072|dock1
  -GOLD-   22720 4113D 1   1.00000     0.00000
 Structure written by MMmdl.
 49 51  0  0  0  0  0  0  0  0  2 V2000
  147.3455  134.4518  162.0427 C   0  0  0  0  0  0  0  0  0  0  0  0
  147.5906  135.4929  161.0049 C   0  0  0  0  0  0  0  0  0  0  0  0
  147.2830  135.5746  159.6769 C   0  0  0  0  0  0  0  0  0  0  0  0
  147.8032  136.8403  159.2886 C   0  0  0  0  0  0  0  0  0  0  0  0
  147.7645  137.4938  157.9327 C   0  0  0  0  0  0  0  0  0  0  0  0
  149.0921  137.6676  157.3312 N   0  0  0  0  0  0  0  0  0  0  0  0
  149.8388  136.4126  157.3596 C   0  0  0  0  0  0  0  0  0  0  0  0
  149.0067  138.1631  155.9564 C   0  0  0  0  0  0  0  0  0  0  0  0
  150.2773  137.9583  155.0999 C   0  0  1  0  0  0  0  0  0  0  0  0
  149.9643  138.2768  153.7611 O   0  0  0  0  0  0  0  0  0  0  0  0
  151.4541  138.8567  155.5308 C   0  0  0  0  0  0  0  0  0  0  0  0
  151.0298  140.2100  155.9116 N   0  0  0  0  0  0  0  0  0  0  0  0
  150.1620  141.0623  155.3010 C   0  0  0  0  0  0  0  0  0  0  0  0
  150.0994  142.1940  156.0561 N   0  3  0  0  0  0  0  0  0  0  0  0
  150.9458  142.0656  157.1597 C   0  0  0  0  0  0  0  0  0  0  0  0
  151.2215  142.9404  158.2040 C   0  0  0  0  0  0  0  0  0  0  0  0
  152.1451  142.5063  159.1819 C   0  0  0  0  0  0  0  0  0  0  0  0
  152.4694  143.4379  160.3372 C   0  0  0  0  0  0  0  0  0  0  0  0
  152.7594  141.2302  159.0914 C   0  0  0  0  0  0  0  0  0  0  0  0
  153.7508  140.7739  160.1484 C   0  0  0  0  0  0  0  0  0  0  0  0
  152.4656  140.3553  158.0212 C   0  0  0  0  0  0  0  0  0  0  0  0
  151.5511  140.7973  157.0688 C   0  0  0  0  0  0  0  0  0  0  0  0
  148.3803  137.4649  160.3017 N   0  0  0  0  0  0  0  0  0  0  0  0
  148.2479  136.6124  161.4035 O   0  0  0  0  0  0  0  0  0  0  0  0
  147.1364  133.4858  161.5824 H   0  0  0  0  0  0  0  0  0  0  0  0
  146.4927  134.7221  162.6656 H   0  0  0  0  0  0  0  0  0  0  0  0
  148.2149  134.3356  162.6899 H   0  0  0  0  0  0  0  0  0  0  0  0
  146.7619  134.8451  159.0755 H   0  0  0  0  0  0  0  0  0  0  0  0
  147.1294  136.9202  157.2555 H   0  0  0  0  0  0  0  0  0  0  0  0
  147.2702  138.4566  158.0448 H   0  0  0  0  0  0  0  0  0  0  0  0
  150.8335  136.5436  156.9322 H   0  0  0  0  0  0  0  0  0  0  0  0
  149.3259  135.6356  156.7911 H   0  0  0  0  0  0  0  0  0  0  0  0
  149.9741  136.0533  158.3800 H   0  0  0  0  0  0  0  0  0  0  0  0
  148.1744  137.6826  155.4392 H   0  0  0  0  0  0  0  0  0  0  0  0
  148.7466  139.2211  155.9925 H   0  0  0  0  0  0  0  0  0  0  0  0
  150.6065  136.9215  155.1183 H   0  0  0  0  0  0  0  0  0  0  0  0
  149.6013  137.5074  153.3487 H   0  0  0  0  0  0  0  0  0  0  0  0
  151.9935  138.4205  156.3730 H   0  0  0  0  0  0  0  0  0  0  0  0
  152.1740  138.9557  154.7170 H   0  0  0  0  0  0  0  0  0  0  0  0
  149.6150  140.8715  154.3889 H   0  0  0  0  0  0  0  0  0  0  0  0
  150.7510  143.9106  158.2666 H   0  0  0  0  0  0  0  0  0  0  0  0
  152.1888  142.9817  161.2868 H   0  0  0  0  0  0  0  0  0  0  0  0
  151.9332  144.3835  160.2505 H   0  0  0  0  0  0  0  0  0  0  0  0
  153.5361  143.6617  160.3609 H   0  0  0  0  0  0  0  0  0  0  0  0
  154.1191  139.7682  159.9433 H   0  0  0  0  0  0  0  0  0  0  0  0
  153.2828  140.7618  161.1329 H   0  0  0  0  0  0  0  0  0  0  0  0
  154.6110  141.4430  160.1811 H   0  0  0  0  0  0  0  0  0  0  0  0
  152.9337  139.3843  157.9503 H   0  0  0  0  0  0  0  0  0  0  0  0
  149.5212  142.9939  155.8319 H   0  0  0  0  0  0  0  0  0  0  0  0
  1  2  1  0  0  0  0
  1 25  1  0  0  0  0
  1 26  1  0  0  0  0
  1 27  1  0  0  0  0
  2 24  1  0  0  0  0
  2  3  2  0  0  0  0
  3  4  1  0  0  0  0
  3 28  1  0  0  0  0
  4  5  1  0  0  0  0
  4 23  2  0  0  0  0
  5  6  1  0  0  0  0
  5 29  1  0  0  0  0
  5 30  1  0  0  0  0
  6  7  1  0  0  0  0
  6  8  1  0  0  0  0
  7 31  1  0  0  0  0
  7 32  1  0  0  0  0
  7 33  1  0  0  0  0
  8  9  1  0  0  0  0
  8 34  1  0  0  0  0
  8 35  1  0  0  0  0
  9 10  1  0  0  0  0
  9 11  1  0  0  0  0
  9 36  1  0  0  0  0
 10 37  1  0  0  0  0
 11 12  1  0  0  0  0
 11 38  1  0  0  0  0
 11 39  1  0  0  0  0
 12 22  1  0  0  0  0
 12 13  1  0  0  0  0
 13 14  2  0  0  0  0
 13 40  1  0  0  0  0
 14 15  1  0  0  0  0
 14 49  1  0  0  0  0
 15 22  2  0  0  0  0
 15 16  1  0  0  0  0
 16 17  2  0  0  0  0
 16 41  1  0  0  0  0
 17 18  1  0  0  0  0
 17 19  1  0  0  0  0
 18 42  1  0  0  0  0
 18 43  1  0  0  0  0
 18 44  1  0  0  0  0
 19 20  1  0  0  0  0
 19 21  2  0  0  0  0
 20 45  1  0  0  0  0
 20 46  1  0  0  0  0
 20 47  1  0  0  0  0
 21 22  1  0  0  0  0
 21 48  1  0  0  0  0
 23 24  1  0  0  0  0
M  CHG  1  14   1
M  END
> <s_m_source_file>
AV-unprocessed.smi

> <i_m_source_file_index>
1209

> <i_lp_mmshare_version>
43012

> <i_f3d_flags>
0

> <s_epik_input>
W0NIM11jMVtjSF1jKG5vMSlbQ0gyXU4oW0NIM10pW0NIMl1bQ0BIXShbT0hdKVtDSDJdbihbY0hdbjIpYyhjMjMpW2NIXWMoW0NIM10pYyhbY0hdMylbQ0gzXQ==

> <s_epik_cmdline>
J2VwaWtfcHl0aG9uJywgJy1waCcsICc3LjAnLCAnLXRuJywgJzgnLCAnLW1hJywgJzIwMCcsICctbWV0YWxfYmluZGluZycsICctaW1hZScsICc8aW5maWxlLm1hZT4nLCAnLW9tYWUnLCAnPG91dGZpbGUubWFlPic=

> <r_epik_Ionization_Penalty>
1.23608

> <r_epik_Ionization_Penalty_Charging>
1.21624

> <r_epik_Ionization_Penalty_Neutral>
0.0198409

> <r_epik_State_Penalty>
1.27749

> <r_epik_Charging_Adjusted_Penalty>
2.49372

> <i_epik_Tot_Q>
1

> <i_epik_Tot_abs_Q>
1

> <r_epik_Metal_State_Penalty>
1.34809

> <b_epik_Metal_Only>
0

> <s_lp_Force_Field>
OPLS_2005

> <r_lp_Energy>
23.0789

> <b_lp_Chiralities_Consistent>
1

> <s_lp_Variant>
AV-unprocessed.smi:1209-4

> <Gold.Version>
5.8.1

> <Gold.Id.Protein>
6NUR|6NUR_protein|mol2

> <Gold.PLP.Fitness>
52.8746

> <Gold.PLP.PLP>
-43.7171

> <Gold.PLP.part.hbond>
-5.5631

> <Gold.PLP.part.metal>
0.0000

> <Gold.PLP.part.buried>
-3.7461

> <Gold.PLP.part.nonpolar>
-33.8987

> <Gold.PLP.part.repulsive>
0.1173

> <Gold.PLP.ligand.clash>
0.0000

> <Gold.PLP.ligand.torsion>
0.6897

> <Gold.PLP.Chemscore.Hbond>
3.4758

> <Gold.PLP.Chemscore.CHOScore>
0.0000

> <Gold.PLP.Chemscore.Metal>
0.0000

> <Gold.Chemscore.Hbonds>
donor molecule, donor type, donor heavy atom, donor atom, acceptor molecule, acceptor atom, score
      L1  H    10    37       P1  7948  1.00
      L1  H    14    49       P1  8028  2.00
      P1  H  6934  6947       L1    23  0.49

> <Gold.PLP.Chemscore.Internal.Correction>
0.1095

> <Gold.Rescore>
     Score         DG    S(hbond)    S(metal)    S(lipo)     H(rot)  DE(clash)    DE(int)     intcor
     17.14     -18.01       1.96        0.00     106.50       2.53       0.18       0.69       ----

> <Gold.Chemscore.Fitness>
17.1358

> <Gold.Chemscore.DG>
-18.0116

> <Gold.Chemscore.ZeroCoef>
-5.4800

> <Gold.Chemscore.Hbond>
1.9576

> <Gold.Chemscore.Metal>
0.0000

> <Gold.Chemscore.Lipo>
106.5030

> <Gold.Chemscore.Internal_Hbond>
0.0000

> <Gold.Chemscore.DEClash>
0.1836

> <Gold.Chemscore.DEInternal>
0.6922

> <Gold.Chemscore.Rot>
2.5265

> <Gold.Chemscore.Internal.Correction>
   9.000000E+99

> <Gold.Chemscore.Hbonds>
donor molecule, donor type, donor heavy atom, donor atom, acceptor molecule, acceptor atom, score
      L1  H    10    37       P1  7948  0.76
      L1  H    14    49       P1  8028  1.00
      P1  H  6934  6947       L1    23  0.09

> <Gold.Chemscore.Hbond.Weighted>
-6.5385

> <Gold.Chemscore.Metal.Weighted>
-0.0000

> <Gold.Chemscore.Lipo.Weighted>
-12.4609

> <Gold.Chemscore.Internal_Hbond.Weighted>
0.0000

> <Gold.Chemscore.DEClash.Weighted>
0.1836

> <Gold.Chemscore.DEInternal.Weighted>
0.6922

> <Gold.Chemscore.Rot.Weighted>
6.4677

> <Gold.Chemscore.Internal.Correction.Weighted>
   9.000000E+99

> <Gold.Protein.RotatedTorsions>
[ 6907 6896 6895 6894 ] final  119.69 input  -60.11 | X-H torsion
[ 7974 7965 7964 7962 ] final  -44.46 input  175.53 | X-H torsion
[ 8008 7997 7996 7995 ] final -104.55 input   59.86 | X-H torsion
[ 10167 10162 10161 10158 ] final  177.53 input  -65.29 | X-H torsion
[ 10718 10713 10712 10709 ] final  111.99 input   66.30 | X-H torsion
[ 10763 10752 10751 10750 ] final   94.36 input  -60.55 | X-H torsion
[ 11005 11000 10999 10996 ] final  -97.09 input  -57.11 | X-H torsion

> <Gold.Protein.ActiveResidues>
 VAL166  LYS551  ARG553  GLY616  TRP617  ASP618  TYR619  PRO620  LYS621  CYS622 
 ASP623  PHE694  ASN695  SER759  ASP760  ASP761  ALA762  ILE779  LEU786  VAL792 
 PHE793  MET794  SER795  GLU796  ALA797  LYS798  CYS799  TRP800  GLU811  SER814 

> <Gold.Protein.RotatedAtoms>
  152.4453  133.7525  159.6701 H   0  0  0  0  0  0  0  0  0  0  0  0  # atno 6907 bound_to 6896
  150.8352  133.8015  159.3088 H   0  0  0  0  0  0  0  0  0  0  0  0  # atno 6908 bound_to 6896
  151.5657  135.1066  160.0035 H   0  0  0  0  0  0  0  0  0  0  0  0  # atno 6909 bound_to 6896
  145.9919  140.7171  142.9313 H   0  0  0  0  0  0  0  0  0  0  0  0  # atno 7974 bound_to 7965
  154.8869  140.0417  157.1816 H   0  0  0  0  0  0  0  0  0  0  0  0  # atno 8008 bound_to 7997
  154.8581  140.2939  155.5535 H   0  0  0  0  0  0  0  0  0  0  0  0  # atno 8009 bound_to 7997
  156.2998  140.2452  156.3550 H   0  0  0  0  0  0  0  0  0  0  0  0  # atno 8010 bound_to 7997
  139.5257  144.2787  152.0565 H   0  0  0  0  0  0  0  0  0  0  0  0  # atno 10167 bound_to 10162
  157.6416  131.0960  150.6829 H   0  0  0  0  0  0  0  0  0  0  0  0  # atno 10718 bound_to 10713
  153.2407  135.4292  155.0695 H   0  0  0  0  0  0  0  0  0  0  0  0  # atno 10763 bound_to 10752
  154.8339  135.3402  154.6653 H   0  0  0  0  0  0  0  0  0  0  0  0  # atno 10764 bound_to 10752
  153.7077  135.7024  153.5102 H   0  0  0  0  0  0  0  0  0  0  0  0  # atno 10765 bound_to 10752
  141.1390  133.8145  157.0659 H   0  0  0  0  0  0  0  0  0  0  0  0  # atno 11005 bound_to 11000
  144.6891  140.3084  143.7252 LP  0  0  0  0  0  0  0  0  0  0  0  0  # atno 17320 bound_to 7965
  145.7618  139.1827  143.2263 LP  0  0  0  0  0  0  0  0  0  0  0  0  # atno 17321 bound_to 7965
  140.2244  144.4433  150.6328 LP  0  0  0  0  0  0  0  0  0  0  0  0  # atno 17342 bound_to 10162
  140.6397  143.2201  151.6316 LP  0  0  0  0  0  0  0  0  0  0  0  0  # atno 17343 bound_to 10162
  156.7152  130.4664  149.5537 LP  0  0  0  0  0  0  0  0  0  0  0  0  # atno 17370 bound_to 10713
  156.1702  130.6432  151.0828 LP  0  0  0  0  0  0  0  0  0  0  0  0  # atno 17371 bound_to 10713
  140.0541  134.9790  157.1190 LP  0  0  0  0  0  0  0  0  0  0  0  0  # atno 17394 bound_to 11000
  140.3945  134.2149  155.7165 LP  0  0  0  0  0  0  0  0  0  0  0  0  # atno 17395 bound_to 11000

$$$$
