AV-unprocessed.smi:2718|AV-procd|sdf|10488|dock8
  -GOLD-   2272014533D 1   1.00000     0.00000
 Structure written by MMmdl.
 47 48  0  0  0  0  0  0  0  0  1 V2000
  145.0872  134.6780  150.7369 C   0  0  0  0  0  0  0  0  0  0  0  0
  145.6614  133.4505  151.4165 C   0  0  0  0  0  0  0  0  0  0  0  0
  145.6103  132.1817  150.5827 C   0  0  0  0  0  0  0  0  0  0  0  0
  146.1786  133.5078  152.6588 C   0  0  0  0  0  0  0  0  0  0  0  0
  146.7909  132.3767  153.4147 C   0  0  2  0  0  0  0  0  0  0  0  0
  147.1691  132.4477  154.8878 C   0  0  2  0  0  0  0  0  0  0  0  0
  146.9902  133.7175  155.6728 C   0  0  0  0  0  0  0  0  0  0  0  0
  146.6659  134.7999  155.1844 O   0  0  0  0  0  0  0  0  0  0  0  0
  147.2200  133.5608  156.9853 N   0  0  0  0  0  0  0  0  0  0  0  0
  147.1783  134.6141  157.9974 C   0  0  0  0  0  0  0  0  0  0  0  0
  147.3331  134.1016  159.4483 C   0  0  2  0  0  0  0  0  0  0  0  0
  146.2537  133.0692  159.8035 C   0  0  0  0  0  0  0  0  0  0  0  0
  147.3923  135.2102  160.4648 C   0  0  0  0  0  0  0  0  0  0  0  0
  147.3353  136.5110  160.1487 N   0  0  0  0  0  0  0  0  0  0  0  0
  147.4100  137.1909  161.3475 N   0  0  0  0  0  0  0  0  0  0  0  0
  147.4884  136.2337  162.2705 C   0  0  0  0  0  0  0  0  0  0  0  0
  147.4750  134.9809  161.7923 N   0  0  0  0  0  0  0  0  0  0  0  0
  147.5299  133.7341  162.5287 C   0  0  0  0  0  0  0  0  0  0  0  0
  148.2566  132.3294  153.8217 C   0  0  0  0  0  0  0  0  0  0  0  0
  149.0003  131.0077  153.7279 C   0  0  0  0  0  0  0  0  0  0  0  0
  149.2256  133.4598  153.4778 C   0  0  0  0  0  0  0  0  0  0  0  0
  145.6403  134.8961  149.8232 H   0  0  0  0  0  0  0  0  0  0  0  0
  145.1386  135.5558  151.3819 H   0  0  0  0  0  0  0  0  0  0  0  0
  144.0427  134.5131  150.4734 H   0  0  0  0  0  0  0  0  0  0  0  0
  144.5944  132.0025  150.2325 H   0  0  0  0  0  0  0  0  0  0  0  0
  145.9258  131.2999  151.1396 H   0  0  0  0  0  0  0  0  0  0  0  0
  146.2554  132.2808  149.7095 H   0  0  0  0  0  0  0  0  0  0  0  0
  146.1645  134.4606  153.1654 H   0  0  0  0  0  0  0  0  0  0  0  0
  146.3588  131.4310  153.0926 H   0  0  0  0  0  0  0  0  0  0  0  0
  146.9681  131.5405  155.4566 H   0  0  0  0  0  0  0  0  0  0  0  0
  147.4679  132.6371  157.3092 H   0  0  0  0  0  0  0  0  0  0  0  0
  147.9959  135.2977  157.7677 H   0  0  0  0  0  0  0  0  0  0  0  0
  146.2585  135.1915  157.8922 H   0  0  0  0  0  0  0  0  0  0  0  0
  148.2811  133.5665  159.4831 H   0  0  0  0  0  0  0  0  0  0  0  0
  146.4264  132.6486  160.7946 H   0  0  0  0  0  0  0  0  0  0  0  0
  146.2499  132.2443  159.0906 H   0  0  0  0  0  0  0  0  0  0  0  0
  145.2595  133.5167  159.8003 H   0  0  0  0  0  0  0  0  0  0  0  0
  147.5527  136.4540  163.3260 H   0  0  0  0  0  0  0  0  0  0  0  0
  147.5537  133.9314  163.6007 H   0  0  0  0  0  0  0  0  0  0  0  0
  148.4268  133.1813  162.2496 H   0  0  0  0  0  0  0  0  0  0  0  0
  146.6502  133.1323  162.3002 H   0  0  0  0  0  0  0  0  0  0  0  0
  149.8374  130.9922  154.4265 H   0  0  0  0  0  0  0  0  0  0  0  0
  149.3848  130.8568  152.7186 H   0  0  0  0  0  0  0  0  0  0  0  0
  148.3408  130.1728  153.9672 H   0  0  0  0  0  0  0  0  0  0  0  0
  149.9995  133.5350  154.2425 H   0  0  0  0  0  0  0  0  0  0  0  0
  148.7367  134.4277  153.3974 H   0  0  0  0  0  0  0  0  0  0  0  0
  149.7090  133.2631  152.5204 H   0  0  0  0  0  0  0  0  0  0  0  0
  1  2  1  0  0  0  0
  1 22  1  0  0  0  0
  1 23  1  0  0  0  0
  1 24  1  0  0  0  0
  2  3  1  0  0  0  0
  2  4  2  0  0  0  0
  3 25  1  0  0  0  0
  3 26  1  0  0  0  0
  3 27  1  0  0  0  0
  4  5  1  0  0  0  0
  4 28  1  0  0  0  0
  5 19  1  0  0  0  0
  5  6  1  0  0  0  0
  5 29  1  0  0  0  0
  6  7  1  0  0  0  0
  6 19  1  0  0  0  0
  6 30  1  0  0  0  0
  7  8  2  0  0  0  0
  7  9  1  0  0  0  0
  9 10  1  0  0  0  0
  9 31  1  0  0  0  0
 10 11  1  0  0  0  0
 10 32  1  0  0  0  0
 10 33  1  0  0  0  0
 11 12  1  0  0  0  0
 11 13  1  0  0  0  0
 11 34  1  0  0  0  0
 12 35  1  0  0  0  0
 12 36  1  0  0  0  0
 12 37  1  0  0  0  0
 13 17  1  0  0  0  0
 13 14  2  0  0  0  0
 14 15  1  0  0  0  0
 15 16  2  0  0  0  0
 16 17  1  0  0  0  0
 16 38  1  0  0  0  0
 17 18  1  0  0  0  0
 18 39  1  0  0  0  0
 18 40  1  0  0  0  0
 18 41  1  0  0  0  0
 19 20  1  0  0  0  0
 19 21  1  0  0  0  0
 20 42  1  0  0  0  0
 20 43  1  0  0  0  0
 20 44  1  0  0  0  0
 21 45  1  0  0  0  0
 21 46  1  0  0  0  0
 21 47  1  0  0  0  0
M  END
> <s_m_source_file>
AV-unprocessed.smi

> <i_m_source_file_index>
2718

> <i_lp_mmshare_version>
43012

> <i_f3d_flags>
0

> <s_epik_input>
W0NIM11DKFtDSDNdKT1bQ0hdW0NAQEhdKEMxKFtDSDNdKVtDSDNdKVtDQEhdMUMoPU8pW05IXVtDSDJdW0NASF0oW0NIM10pYzJubltjSF1uMltDSDNd

> <s_epik_cmdline>
J2VwaWtfcHl0aG9uJywgJy1waCcsICc3LjAnLCAnLXRuJywgJzgnLCAnLW1hJywgJzIwMCcsICctbWV0YWxfYmluZGluZycsICctaW1hZScsICc8aW5maWxlLm1hZT4nLCAnLW9tYWUnLCAnPG91dGZpbGUubWFlPic=

> <r_lp_tautomer_probability>
1

> <r_epik_Ionization_Penalty>
0.000449586

> <r_epik_Ionization_Penalty_Charging>
0

> <r_epik_Ionization_Penalty_Neutral>
0.000449586

> <r_epik_State_Penalty>
0.000243372

> <r_epik_Charging_Adjusted_Penalty>
0.000243372

> <i_epik_Tot_Q>
0

> <i_epik_Tot_abs_Q>
0

> <r_epik_Metal_State_Penalty>
-0

> <b_epik_Metal_Only>
0

> <s_lp_Force_Field>
OPLS_2005

> <r_lp_Energy>
15.3261

> <b_lp_Chiralities_Consistent>
1

> <s_lp_Variant>
AV-unprocessed.smi:2718-3

> <Gold.Version>
5.8.1

> <Gold.Id.Protein>
6NUR|6NUR_protein|mol2

> <Gold.PLP.Fitness>
38.6105

> <Gold.PLP.PLP>
-33.2174

> <Gold.PLP.part.hbond>
-2.0000

> <Gold.PLP.part.metal>
0.0000

> <Gold.PLP.part.buried>
-4.3135

> <Gold.PLP.part.nonpolar>
-26.9884

> <Gold.PLP.part.repulsive>
0.0374

> <Gold.PLP.ligand.clash>
0.0000

> <Gold.PLP.ligand.torsion>
0.2258

> <Gold.PLP.Chemscore.Hbond>
1.8400

> <Gold.PLP.Chemscore.CHOScore>
0.0000

> <Gold.PLP.Chemscore.Metal>
0.0000

> <Gold.Chemscore.Hbonds>
donor molecule, donor type, donor heavy atom, donor atom, acceptor molecule, acceptor atom, score
      P1  H  6931  6943       L1    15  0.81
      P1  H  6934  6947       L1    15  0.94

> <Gold.PLP.Chemscore.Internal.Correction>
0.3249

> <Gold.Rescore>
     Score         DG    S(hbond)    S(metal)    S(lipo)     H(rot)  DE(clash)    DE(int)     intcor
     10.77     -12.53       1.44        0.00      62.00       1.95       0.11       1.65       ----

> <Gold.Chemscore.Fitness>
10.7740

> <Gold.Chemscore.DG>
-12.5332

> <Gold.Chemscore.ZeroCoef>
-5.4800

> <Gold.Chemscore.Hbond>
1.4369

> <Gold.Chemscore.Metal>
0.0000

> <Gold.Chemscore.Lipo>
62.0032

> <Gold.Chemscore.Internal_Hbond>
0.0000

> <Gold.Chemscore.DEClash>
0.1112

> <Gold.Chemscore.DEInternal>
1.6481

> <Gold.Chemscore.Rot>
1.9533

> <Gold.Chemscore.Internal.Correction>
   9.000000E+99

> <Gold.Chemscore.Hbonds>
donor molecule, donor type, donor heavy atom, donor atom, acceptor molecule, acceptor atom, score
      P1  H  6931  6943       L1    15  0.15
      P1  H  6934  6947       L1    15  0.55

> <Gold.Chemscore.Hbond.Weighted>
-4.7994

> <Gold.Chemscore.Metal.Weighted>
-0.0000

> <Gold.Chemscore.Lipo.Weighted>
-7.2544

> <Gold.Chemscore.Internal_Hbond.Weighted>
0.0000

> <Gold.Chemscore.DEClash.Weighted>
0.1112

> <Gold.Chemscore.DEInternal.Weighted>
1.6481

> <Gold.Chemscore.Rot.Weighted>
5.0005

> <Gold.Chemscore.Internal.Correction.Weighted>
   9.000000E+99

> <Gold.Protein.RotatedTorsions>
[ 6907 6896 6895 6894 ] final  153.06 input  -60.11 | X-H torsion
[ 7974 7965 7964 7962 ] final  110.56 input  175.53 | X-H torsion
[ 8008 7997 7996 7995 ] final  -10.79 input   59.86 | X-H torsion
[ 10167 10162 10161 10158 ] final   36.87 input  -65.29 | X-H torsion
[ 10718 10713 10712 10709 ] final  157.74 input   66.30 | X-H torsion
[ 10763 10752 10751 10750 ] final   52.33 input  -60.55 | X-H torsion
[ 11005 11000 10999 10996 ] final  -14.97 input  -57.11 | X-H torsion

> <Gold.Protein.ActiveResidues>
 VAL166  LYS551  ARG553  GLY616  TRP617  ASP618  TYR619  PRO620  LYS621  CYS622 
 ASP623  PHE694  ASN695  SER759  ASP760  ASP761  ALA762  ILE779  LEU786  VAL792 
 PHE793  MET794  SER795  GLU796  ALA797  LYS798  CYS799  TRP800  GLU811  SER814 

> <Gold.Protein.RotatedAtoms>
  152.0779  133.4138  159.4487 H   0  0  0  0  0  0  0  0  0  0  0  0  # atno 6907 bound_to 6896
  150.6862  134.3016  159.4718 H   0  0  0  0  0  0  0  0  0  0  0  0  # atno 6908 bound_to 6896
  152.0854  134.9442  160.0623 H   0  0  0  0  0  0  0  0  0  0  0  0  # atno 6909 bound_to 6896
  145.2535  139.2730  143.4055 H   0  0  0  0  0  0  0  0  0  0  0  0  # atno 7974 bound_to 7965
  154.5522  140.2319  155.8466 H   0  0  0  0  0  0  0  0  0  0  0  0  # atno 8008 bound_to 7997
  156.1957  140.3066  155.9383 H   0  0  0  0  0  0  0  0  0  0  0  0  # atno 8009 bound_to 7997
  155.3048  140.0433  157.3022 H   0  0  0  0  0  0  0  0  0  0  0  0  # atno 8010 bound_to 7997
  140.4087  144.1623  150.6138 H   0  0  0  0  0  0  0  0  0  0  0  0  # atno 10167 bound_to 10162
  157.1874  131.0646  151.2098 H   0  0  0  0  0  0  0  0  0  0  0  0  # atno 10718 bound_to 10713
  152.9788  135.5816  154.4561 H   0  0  0  0  0  0  0  0  0  0  0  0  # atno 10763 bound_to 10752
  154.4143  135.2770  155.2019 H   0  0  0  0  0  0  0  0  0  0  0  0  # atno 10764 bound_to 10752
  154.3795  135.6150  153.5837 H   0  0  0  0  0  0  0  0  0  0  0  0  # atno 10765 bound_to 10752
  140.7919  133.8281  155.9387 H   0  0  0  0  0  0  0  0  0  0  0  0  # atno 11005 bound_to 11000
  146.3296  140.2932  142.8616 LP  0  0  0  0  0  0  0  0  0  0  0  0  # atno 17320 bound_to 7965
  144.9482  140.8150  143.5588 LP  0  0  0  0  0  0  0  0  0  0  0  0  # atno 17321 bound_to 7965
  140.4662  143.2430  151.9152 LP  0  0  0  0  0  0  0  0  0  0  0  0  # atno 17342 bound_to 10162
  139.4783  144.5417  151.8518 LP  0  0  0  0  0  0  0  0  0  0  0  0  # atno 17343 bound_to 10162
  157.3893  130.7273  149.6686 LP  0  0  0  0  0  0  0  0  0  0  0  0  # atno 17370 bound_to 10713
  155.9716  130.4151  150.4163 LP  0  0  0  0  0  0  0  0  0  0  0  0  # atno 17371 bound_to 10713
  140.9381  134.1936  157.4817 LP  0  0  0  0  0  0  0  0  0  0  0  0  # atno 17394 bound_to 11000
  139.8730  134.9860  156.5308 LP  0  0  0  0  0  0  0  0  0  0  0  0  # atno 17395 bound_to 11000

$$$$
