AV-unprocessed.smi:2413|AV-procd|sdf|9536|dock2
  -GOLD-   2272013173D 1   1.00000     0.00000
 Structure written by MMmdl.
 46 47  0  0  0  0  0  0  0  0  2 V2000
  155.6854  134.6482  162.9634 C   0  0  0  0  0  0  0  0  0  0  0  0
  154.6994  135.8051  162.8474 C   0  0  0  0  0  0  0  0  0  0  0  0
  154.2277  136.3171  163.8622 O   0  0  0  0  0  0  0  0  0  0  0  0
  154.4062  136.2134  161.6030 N   0  0  0  0  0  0  0  0  0  0  0  0
  153.4861  137.2946  161.2596 C   0  0  0  0  0  0  0  0  0  0  0  0
  153.6252  137.7406  159.7921 C   0  0  2  0  0  0  0  0  0  0  0  0
  152.6290  138.8505  159.4000 C   0  0  0  0  0  0  0  0  0  0  0  0
  152.6999  139.1460  157.9695 N   0  0  0  0  0  0  0  0  0  0  0  0
  152.0310  140.3033  157.5109 C   0  0  0  0  0  0  0  0  0  0  0  0
  151.1834  140.2710  156.3843 C   0  0  0  0  0  0  0  0  0  0  0  0
  150.5548  141.4744  156.0171 C   0  0  0  0  0  0  0  0  0  0  0  0
  150.7802  142.6101  156.7195 N   0  3  0  0  0  0  0  0  0  0  0  0
  151.6392  142.6027  157.7529 C   0  0  0  0  0  0  0  0  0  0  0  0
  151.7997  143.8655  158.6114 C   0  0  0  0  0  0  0  0  0  0  0  0
  150.4241  144.3839  159.0932 C   0  0  0  0  0  0  0  0  0  0  0  0
  152.5048  144.9591  157.7889 C   0  0  0  0  0  0  0  0  0  0  0  0
  152.6210  143.5612  159.8850 C   0  0  0  0  0  0  0  0  0  0  0  0
  152.2211  141.4692  158.1707 N   0  0  0  0  0  0  0  0  0  0  0  0
  152.5954  137.9582  157.1256 C   0  0  0  0  0  0  0  0  0  0  0  0
  153.5912  136.8820  157.5887 C   0  0  0  0  0  0  0  0  0  0  0  0
  153.3896  136.6016  158.9694 O   0  0  0  0  0  0  0  0  0  0  0  0
  155.3873  133.8226  162.3165 H   0  0  0  0  0  0  0  0  0  0  0  0
  155.7299  134.2786  163.9883 H   0  0  0  0  0  0  0  0  0  0  0  0
  156.6850  134.9723  162.6733 H   0  0  0  0  0  0  0  0  0  0  0  0
  154.8476  135.7326  160.8325 H   0  0  0  0  0  0  0  0  0  0  0  0
  152.4736  136.9282  161.4305 H   0  0  0  0  0  0  0  0  0  0  0  0
  153.6166  138.1456  161.9307 H   0  0  0  0  0  0  0  0  0  0  0  0
  154.6468  138.0888  159.6270 H   0  0  0  0  0  0  0  0  0  0  0  0
  151.6117  138.5498  159.6550 H   0  0  0  0  0  0  0  0  0  0  0  0
  152.8573  139.7512  159.9705 H   0  0  0  0  0  0  0  0  0  0  0  0
  151.0145  139.3726  155.8103 H   0  0  0  0  0  0  0  0  0  0  0  0
  149.8739  141.5651  155.1835 H   0  0  0  0  0  0  0  0  0  0  0  0
  150.5328  145.2538  159.7419 H   0  0  0  0  0  0  0  0  0  0  0  0
  149.8859  143.6208  159.6570 H   0  0  0  0  0  0  0  0  0  0  0  0
  149.7875  144.6899  158.2617 H   0  0  0  0  0  0  0  0  0  0  0  0
  151.9316  145.2154  156.8969 H   0  0  0  0  0  0  0  0  0  0  0  0
  153.4936  144.6349  157.4620 H   0  0  0  0  0  0  0  0  0  0  0  0
  152.6336  145.8731  158.3697 H   0  0  0  0  0  0  0  0  0  0  0  0
  152.7057  144.4427  160.5215 H   0  0  0  0  0  0  0  0  0  0  0  0
  153.6375  143.2440  159.6500 H   0  0  0  0  0  0  0  0  0  0  0  0
  152.1566  142.7731  160.4794 H   0  0  0  0  0  0  0  0  0  0  0  0
  151.5765  137.5732  157.1839 H   0  0  0  0  0  0  0  0  0  0  0  0
  152.7910  138.1849  156.0790 H   0  0  0  0  0  0  0  0  0  0  0  0
  153.4446  135.9657  157.0170 H   0  0  0  0  0  0  0  0  0  0  0  0
  154.6199  137.2027  157.4165 H   0  0  0  0  0  0  0  0  0  0  0  0
  150.3028  143.4706  156.4504 H   0  0  0  0  0  0  0  0  0  0  0  0
  1  2  1  0  0  0  0
  1 22  1  0  0  0  0
  1 23  1  0  0  0  0
  1 24  1  0  0  0  0
  2  3  2  0  0  0  0
  2  4  1  0  0  0  0
  4  5  1  0  0  0  0
  4 25  1  0  0  0  0
  5  6  1  0  0  0  0
  5 26  1  0  0  0  0
  5 27  1  0  0  0  0
  6 21  1  0  0  0  0
  6  7  1  0  0  0  0
  6 28  1  0  0  0  0
  7  8  1  0  0  0  0
  7 29  1  0  0  0  0
  7 30  1  0  0  0  0
  8  9  1  0  0  0  0
  8 19  1  0  0  0  0
  9 18  1  0  0  0  0
  9 10  2  0  0  0  0
 10 11  1  0  0  0  0
 10 31  1  0  0  0  0
 11 12  2  0  0  0  0
 11 32  1  0  0  0  0
 12 13  1  0  0  0  0
 12 46  1  0  0  0  0
 13 14  1  0  0  0  0
 13 18  2  0  0  0  0
 14 15  1  0  0  0  0
 14 16  1  0  0  0  0
 14 17  1  0  0  0  0
 15 33  1  0  0  0  0
 15 34  1  0  0  0  0
 15 35  1  0  0  0  0
 16 36  1  0  0  0  0
 16 37  1  0  0  0  0
 16 38  1  0  0  0  0
 17 39  1  0  0  0  0
 17 40  1  0  0  0  0
 17 41  1  0  0  0  0
 19 20  1  0  0  0  0
 19 42  1  0  0  0  0
 19 43  1  0  0  0  0
 20 21  1  0  0  0  0
 20 44  1  0  0  0  0
 20 45  1  0  0  0  0
M  CHG  1  12   1
M  END
> <s_m_source_file>
AV-unprocessed.smi

> <i_m_source_file_index>
2413

> <i_lp_mmshare_version>
43012

> <i_f3d_flags>
0

> <s_epik_input>
W0NIM11DKD1PKVtOSF1bQ0gyXVtDQEBIXTFbQ0gyXU4oW0NIMl1bQ0gyXU8xKWMyW2NIXVtjSF1uYyhuMilDKFtDSDNdKShbQ0gzXSlbQ0gzXQ==

> <s_epik_cmdline>
J2VwaWtfcHl0aG9uJywgJy1waCcsICc3LjAnLCAnLXRuJywgJzgnLCAnLW1hJywgJzIwMCcsICctbWV0YWxfYmluZGluZycsICctaW1hZScsICc8aW5maWxlLm1hZT4nLCAnLW9tYWUnLCAnPG91dGZpbGUubWFlPic=

> <r_lp_tautomer_probability>
0.999336

> <r_epik_Ionization_Penalty>
2.26127

> <r_epik_Ionization_Penalty_Charging>
2.26127

> <r_epik_Ionization_Penalty_Neutral>
4.08984e-07

> <r_epik_State_Penalty>
2.40914

> <r_epik_Charging_Adjusted_Penalty>
4.67041

> <i_epik_Tot_Q>
1

> <i_epik_Tot_abs_Q>
1

> <r_epik_Metal_State_Penalty>
2.42208

> <b_epik_Metal_Only>
0

> <s_lp_Force_Field>
OPLS_2005

> <r_lp_Energy>
13.7164

> <b_lp_Chiralities_Consistent>
1

> <s_lp_Variant>
AV-unprocessed.smi:2413-3

> <Gold.Version>
5.8.1

> <Gold.Id.Protein>
6NUR|6NUR_protein|mol2

> <Gold.PLP.Fitness>
42.9167

> <Gold.PLP.PLP>
-36.1937

> <Gold.PLP.part.hbond>
-1.6138

> <Gold.PLP.part.metal>
0.0000

> <Gold.PLP.part.buried>
-6.9758

> <Gold.PLP.part.nonpolar>
-27.6984

> <Gold.PLP.part.repulsive>
0.1769

> <Gold.PLP.ligand.clash>
0.0000

> <Gold.PLP.ligand.torsion>
0.3967

> <Gold.PLP.Chemscore.Hbond>
2.3411

> <Gold.PLP.Chemscore.CHOScore>
0.0000

> <Gold.PLP.Chemscore.Metal>
0.0000

> <Gold.Chemscore.Hbonds>
donor molecule, donor type, donor heavy atom, donor atom, acceptor molecule, acceptor atom, score
      L1  H    12    46       P1  8028  1.95
      P1  H  6896  6908       L1    21  0.23
      P1  H  7997  8009       L1     8  0.11

> <Gold.PLP.Chemscore.Internal.Correction>
0.4929

> <Gold.Rescore>
     Score         DG    S(hbond)    S(metal)    S(lipo)     H(rot)  DE(clash)    DE(int)     intcor
     13.85     -14.42       1.00        0.00      86.71       1.77       0.13       0.44       ----

> <Gold.Chemscore.Fitness>
13.8463

> <Gold.Chemscore.DG>
-14.4195

> <Gold.Chemscore.ZeroCoef>
-5.4800

> <Gold.Chemscore.Hbond>
0.9971

> <Gold.Chemscore.Metal>
0.0000

> <Gold.Chemscore.Lipo>
86.7108

> <Gold.Chemscore.Internal_Hbond>
0.0000

> <Gold.Chemscore.DEClash>
0.1334

> <Gold.Chemscore.DEInternal>
0.4397

> <Gold.Chemscore.Rot>
1.7719

> <Gold.Chemscore.Internal.Correction>
   9.000000E+99

> <Gold.Chemscore.Hbonds>
donor molecule, donor type, donor heavy atom, donor atom, acceptor molecule, acceptor atom, score
      L1  H    12    46       P1  8028  0.91
      P1  H  6896  6908       L1    21  0.19

> <Gold.Chemscore.Hbond.Weighted>
-3.3304

> <Gold.Chemscore.Metal.Weighted>
-0.0000

> <Gold.Chemscore.Lipo.Weighted>
-10.1452

> <Gold.Chemscore.Internal_Hbond.Weighted>
0.0000

> <Gold.Chemscore.DEClash.Weighted>
0.1334

> <Gold.Chemscore.DEInternal.Weighted>
0.4397

> <Gold.Chemscore.Rot.Weighted>
4.5361

> <Gold.Chemscore.Internal.Correction.Weighted>
   9.000000E+99

> <Gold.Protein.RotatedTorsions>
[ 6907 6896 6895 6894 ] final  -94.59 input  -60.11 | X-H torsion
[ 7974 7965 7964 7962 ] final -175.01 input  175.53 | X-H torsion
[ 8008 7997 7996 7995 ] final  148.97 input   59.86 | X-H torsion
[ 10167 10162 10161 10158 ] final  179.25 input  -65.29 | X-H torsion
[ 10718 10713 10712 10709 ] final -116.18 input   66.30 | X-H torsion
[ 10763 10752 10751 10750 ] final   17.50 input  -60.55 | X-H torsion
[ 11005 11000 10999 10996 ] final   13.73 input  -57.11 | X-H torsion

> <Gold.Protein.ActiveResidues>
 VAL166  LYS551  ARG553  GLY616  TRP617  ASP618  TYR619  PRO620  LYS621  CYS622 
 ASP623  PHE694  ASN695  SER759  ASP760  ASP761  ALA762  ILE779  LEU786  VAL792 
 PHE793  MET794  SER795  GLU796  ALA797  LYS798  CYS799  TRP800  GLU811  SER814 

> <Gold.Protein.RotatedAtoms>
  150.6945  134.1789  159.4240 H   0  0  0  0  0  0  0  0  0  0  0  0  # atno 6907 bound_to 6896
  151.9764  135.0048  160.0564 H   0  0  0  0  0  0  0  0  0  0  0  0  # atno 6908 bound_to 6896
  152.1795  133.4663  159.4987 H   0  0  0  0  0  0  0  0  0  0  0  0  # atno 6909 bound_to 6896
  144.7129  140.1385  143.6393 H   0  0  0  0  0  0  0  0  0  0  0  0  # atno 7974 bound_to 7965
  156.2772  140.2114  156.5783 H   0  0  0  0  0  0  0  0  0  0  0  0  # atno 8008 bound_to 7997
  154.7079  140.0515  157.0545 H   0  0  0  0  0  0  0  0  0  0  0  0  # atno 8009 bound_to 7997
  155.0645  140.3170  155.4653 H   0  0  0  0  0  0  0  0  0  0  0  0  # atno 8010 bound_to 7997
  139.5328  144.2583  152.0728 H   0  0  0  0  0  0  0  0  0  0  0  0  # atno 10167 bound_to 10162
  156.0946  130.6121  150.9003 H   0  0  0  0  0  0  0  0  0  0  0  0  # atno 10718 bound_to 10713
  153.1333  135.6745  153.9143 H   0  0  0  0  0  0  0  0  0  0  0  0  # atno 10763 bound_to 10752
  153.8623  135.3080  155.3439 H   0  0  0  0  0  0  0  0  0  0  0  0  # atno 10764 bound_to 10752
  154.7726  135.4931  153.9761 H   0  0  0  0  0  0  0  0  0  0  0  0  # atno 10765 bound_to 10752
  140.4775  134.0969  155.7744 H   0  0  0  0  0  0  0  0  0  0  0  0  # atno 11005 bound_to 11000
  145.9223  139.2553  143.1374 LP  0  0  0  0  0  0  0  0  0  0  0  0  # atno 17320 bound_to 7965
  145.9608  140.8837  143.0212 LP  0  0  0  0  0  0  0  0  0  0  0  0  # atno 17321 bound_to 7965
  140.2049  144.4621  150.6413 LP  0  0  0  0  0  0  0  0  0  0  0  0  # atno 17342 bound_to 10162
  140.6517  143.2227  151.6061 LP  0  0  0  0  0  0  0  0  0  0  0  0  # atno 17343 bound_to 10162
  157.6104  131.0936  150.8805 LP  0  0  0  0  0  0  0  0  0  0  0  0  # atno 17370 bound_to 10713
  156.8946  130.5225  149.5285 LP  0  0  0  0  0  0  0  0  0  0  0  0  # atno 17371 bound_to 10713
  141.1547  133.8904  157.2007 LP  0  0  0  0  0  0  0  0  0  0  0  0  # atno 17394 bound_to 11000
  139.9847  135.0086  156.9834 LP  0  0  0  0  0  0  0  0  0  0  0  0  # atno 17395 bound_to 11000

$$$$
