AV-unprocessed.smi:1893|AV-procd|sdf|7676|dock1
  -GOLD-   22720 9413D 1   1.00000     0.00000
 Structure written by MMmdl.
 43 44  0  0  0  0  0  0  0  0  2 V2000
  146.3594  131.9874  153.0573 C   0  0  0  0  0  0  0  0  0  0  0  0
  146.9568  133.1241  152.1993 C   0  0  1  0  0  0  0  0  0  0  0  0
  146.4535  133.0854  150.7410 C   0  0  0  0  0  0  0  0  0  0  0  0
  144.9915  133.5407  150.6232 C   0  0  0  0  0  0  0  0  0  0  0  0
  144.8184  134.9232  151.2634 C   0  0  0  0  0  0  0  0  0  0  0  0
  145.3304  134.9343  152.7132 C   0  0  0  0  0  0  0  0  0  0  0  0
  146.7474  134.4825  152.7851 N   0  3  1  0  0  0  0  0  0  0  0  0
  147.3647  134.6544  154.1259 C   0  0  0  0  0  0  0  0  0  0  0  0
  147.0575  136.0336  154.7389 C   0  0  0  0  0  0  0  0  0  0  0  0
  148.0316  137.0338  154.3194 N   0  0  0  0  0  0  0  0  0  0  0  0
  147.9605  138.3439  154.6075 C   0  0  0  0  0  0  0  0  0  0  0  0
  147.0247  138.8357  155.2395 O   0  0  0  0  0  0  0  0  0  0  0  0
  149.1155  139.2227  154.0942 C   0  0  1  0  0  0  0  0  0  0  0  0
  148.9377  140.7155  154.4385 C   0  0  0  0  0  0  0  0  0  0  0  0
  150.4000  138.7146  154.5618 N   0  0  0  0  0  0  0  0  0  0  0  0
  150.9881  137.5358  154.3469 C   0  0  0  0  0  0  0  0  0  0  0  0
  152.1544  137.3960  154.9612 N   0  0  0  0  0  0  0  0  0  0  0  0
  152.2308  138.6090  155.5851 C   0  0  0  0  0  0  0  0  0  0  0  0
  151.2030  139.4336  155.3855 N   0  0  0  0  0  0  0  0  0  0  0  0
  146.5548  131.0175  152.5993 H   0  0  0  0  0  0  0  0  0  0  0  0
  145.2799  132.0765  153.1738 H   0  0  0  0  0  0  0  0  0  0  0  0
  146.7985  131.9593  154.0544 H   0  0  0  0  0  0  0  0  0  0  0  0
  148.0342  132.9570  152.1597 H   0  0  0  0  0  0  0  0  0  0  0  0
  147.0781  133.7383  150.1295 H   0  0  0  0  0  0  0  0  0  0  0  0
  146.5690  132.0835  150.3259 H   0  0  0  0  0  0  0  0  0  0  0  0
  144.6921  133.5726  149.5752 H   0  0  0  0  0  0  0  0  0  0  0  0
  144.3330  132.8207  151.1097 H   0  0  0  0  0  0  0  0  0  0  0  0
  145.3617  135.6668  150.6787 H   0  0  0  0  0  0  0  0  0  0  0  0
  143.7687  135.2169  151.2361 H   0  0  0  0  0  0  0  0  0  0  0  0
  145.2376  135.9468  153.1041 H   0  0  0  0  0  0  0  0  0  0  0  0
  144.7020  134.3040  153.3431 H   0  0  0  0  0  0  0  0  0  0  0  0
  147.0359  133.8560  154.7928 H   0  0  0  0  0  0  0  0  0  0  0  0
  148.4470  134.5539  154.0326 H   0  0  0  0  0  0  0  0  0  0  0  0
  146.0508  136.3572  154.4688 H   0  0  0  0  0  0  0  0  0  0  0  0
  147.0873  135.9924  155.8270 H   0  0  0  0  0  0  0  0  0  0  0  0
  148.8304  136.7052  153.7960 H   0  0  0  0  0  0  0  0  0  0  0  0
  149.1136  139.1384  153.0063 H   0  0  0  0  0  0  0  0  0  0  0  0
  148.0086  141.1090  154.0244 H   0  0  0  0  0  0  0  0  0  0  0  0
  149.7540  141.3090  154.0254 H   0  0  0  0  0  0  0  0  0  0  0  0
  148.9189  140.8858  155.5158 H   0  0  0  0  0  0  0  0  0  0  0  0
  150.5525  136.7622  153.7317 H   0  0  0  0  0  0  0  0  0  0  0  0
  153.0660  138.8905  156.2093 H   0  0  0  0  0  0  0  0  0  0  0  0
  147.2618  135.1042  152.1774 H   0  0  0  0  0  0  0  0  0  0  0  0
  1  2  1  0  0  0  0
  1 20  1  0  0  0  0
  1 21  1  0  0  0  0
  1 22  1  0  0  0  0
  2  7  1  0  0  0  0
  2  3  1  0  0  0  0
  2 23  1  0  0  0  0
  3  4  1  0  0  0  0
  3 24  1  0  0  0  0
  3 25  1  0  0  0  0
  4  5  1  0  0  0  0
  4 26  1  0  0  0  0
  4 27  1  0  0  0  0
  5  6  1  0  0  0  0
  5 28  1  0  0  0  0
  5 29  1  0  0  0  0
  6  7  1  0  0  0  0
  6 30  1  0  0  0  0
  6 31  1  0  0  0  0
  7  8  1  0  0  0  0
  7 43  1  0  0  0  0
  8  9  1  0  0  0  0
  8 32  1  0  0  0  0
  8 33  1  0  0  0  0
  9 10  1  0  0  0  0
  9 34  1  0  0  0  0
  9 35  1  0  0  0  0
 10 11  1  0  0  0  0
 10 36  1  0  0  0  0
 11 12  2  0  0  0  0
 11 13  1  0  0  0  0
 13 14  1  0  0  0  0
 13 15  1  0  0  0  0
 13 37  1  0  0  0  0
 14 38  1  0  0  0  0
 14 39  1  0  0  0  0
 14 40  1  0  0  0  0
 15 19  1  0  0  0  0
 15 16  1  0  0  0  0
 16 17  2  0  0  0  0
 16 41  1  0  0  0  0
 17 18  1  0  0  0  0
 18 19  2  0  0  0  0
 18 42  1  0  0  0  0
M  CHG  1   7   1
M  END
> <s_m_source_file>
AV-unprocessed.smi

> <i_m_source_file_index>
1893

> <i_lp_mmshare_version>
43012

> <i_f3d_flags>
0

> <s_epik_input>
W0NIM11bQ0BASF0xW0NIMl1bQ0gyXVtDSDJdW0NIMl1OMVtDSDJdW0NIMl1bTkhdQyg9TylbQ0BIXShbQ0gzXSluMltjSF1uW2NIXW4y

> <s_epik_cmdline>
J2VwaWtfcHl0aG9uJywgJy1waCcsICc3LjAnLCAnLXRuJywgJzgnLCAnLW1hJywgJzIwMCcsICctbWV0YWxfYmluZGluZycsICctaW1hZScsICc8aW5maWxlLm1hZT4nLCAnLW9tYWUnLCAnPG91dGZpbGUubWFlPic=

> <r_lp_tautomer_probability>
1

> <r_epik_Ionization_Penalty>
0.00266409

> <r_epik_Ionization_Penalty_Charging>
0.00265606

> <r_epik_Ionization_Penalty_Neutral>
8.02794e-06

> <r_epik_State_Penalty>
0.00184955

> <r_epik_Charging_Adjusted_Penalty>
0.00450561

> <i_epik_Tot_Q>
1

> <i_epik_Tot_abs_Q>
1

> <r_epik_Metal_State_Penalty>
-0

> <b_epik_Metal_Only>
0

> <s_lp_Force_Field>
OPLS_2005

> <r_lp_Energy>
24.9679

> <b_lp_Chiralities_Consistent>
1

> <s_lp_Variant>
AV-unprocessed.smi:1893-6

> <Gold.Version>
5.8.1

> <Gold.Id.Protein>
6NUR|6NUR_protein|mol2

> <Gold.PLP.Fitness>
42.9634

> <Gold.PLP.PLP>
-30.3567

> <Gold.PLP.part.hbond>
-3.0000

> <Gold.PLP.part.metal>
0.0000

> <Gold.PLP.part.buried>
-3.0851

> <Gold.PLP.part.nonpolar>
-25.1027

> <Gold.PLP.part.repulsive>
0.1247

> <Gold.PLP.ligand.clash>
0.0336

> <Gold.PLP.ligand.torsion>
0.3386

> <Gold.PLP.Chemscore.Hbond>
3.3280

> <Gold.PLP.Chemscore.CHOScore>
1.0518

> <Gold.PLP.Chemscore.Metal>
0.0000

> <Gold.Chemscore.Hbonds>
donor molecule, donor type, donor heavy atom, donor atom, acceptor molecule, acceptor atom, score
      L1  H     7    43       P1  7948  1.95
      L1  H    10    36       P1  7948  0.61
      P1  H  7989  7998       L1    19  0.02
      P1  H 10752 10763       L1    17  0.78
      L1  C    16    41       P1  7948  0.49
      L1  C    16    41       P1  7949  0.53

> <Gold.PLP.Chemscore.Internal.Correction>
0.1782

> <Gold.Rescore>
     Score         DG    S(hbond)    S(metal)    S(lipo)     H(rot)  DE(clash)    DE(int)     intcor
     12.35     -13.13       2.46        0.00      50.79       2.54       0.05       0.73       ----

> <Gold.Chemscore.Fitness>
12.3512

> <Gold.Chemscore.DG>
-13.1329

> <Gold.Chemscore.ZeroCoef>
-5.4800

> <Gold.Chemscore.Hbond>
2.4572

> <Gold.Chemscore.Metal>
0.0000

> <Gold.Chemscore.Lipo>
50.7899

> <Gold.Chemscore.Internal_Hbond>
0.0000

> <Gold.Chemscore.DEClash>
0.0502

> <Gold.Chemscore.DEInternal>
0.7314

> <Gold.Chemscore.Rot>
2.5377

> <Gold.Chemscore.Internal.Correction>
   9.000000E+99

> <Gold.Chemscore.Hbonds>
donor molecule, donor type, donor heavy atom, donor atom, acceptor molecule, acceptor atom, score
      L1  H     7    43       P1  7948  0.87
      L1  H    10    36       P1  7948  0.58
      P1  H 10752 10763       L1    17  0.59

> <Gold.Chemscore.Hbond.Weighted>
-8.2071

> <Gold.Chemscore.Metal.Weighted>
-0.0000

> <Gold.Chemscore.Lipo.Weighted>
-5.9424

> <Gold.Chemscore.Internal_Hbond.Weighted>
0.0000

> <Gold.Chemscore.DEClash.Weighted>
0.0502

> <Gold.Chemscore.DEInternal.Weighted>
0.7314

> <Gold.Chemscore.Rot.Weighted>
6.4966

> <Gold.Chemscore.Internal.Correction.Weighted>
   9.000000E+99

> <Gold.Protein.RotatedTorsions>
[ 6907 6896 6895 6894 ] final   55.31 input  -60.11 | X-H torsion
[ 7974 7965 7964 7962 ] final  -63.60 input  175.53 | X-H torsion
[ 8008 7997 7996 7995 ] final  173.25 input   59.86 | X-H torsion
[ 10167 10162 10161 10158 ] final   -2.53 input  -65.29 | X-H torsion
[ 10718 10713 10712 10709 ] final  170.74 input   66.30 | X-H torsion
[ 10763 10752 10751 10750 ] final   59.49 input  -60.55 | X-H torsion
[ 11005 11000 10999 10996 ] final   45.12 input  -57.11 | X-H torsion

> <Gold.Protein.ActiveResidues>
 VAL166  LYS551  ARG553  GLY616  TRP617  ASP618  TYR619  PRO620  LYS621  CYS622 
 ASP623  PHE694  ASN695  SER759  ASP760  ASP761  ALA762  ILE779  LEU786  VAL792 
 PHE793  MET794  SER795  GLU796  ALA797  LYS798  CYS799  TRP800  GLU811  SER814 

> <Gold.Protein.RotatedAtoms>
  152.3526  134.6984  160.0231 H   0  0  0  0  0  0  0  0  0  0  0  0  # atno 6907 bound_to 6896
  151.7333  133.3313  159.3354 H   0  0  0  0  0  0  0  0  0  0  0  0  # atno 6908 bound_to 6896
  150.7550  134.6277  159.6214 H   0  0  0  0  0  0  0  0  0  0  0  0  # atno 6909 bound_to 6896
  145.7770  140.8782  143.0350 H   0  0  0  0  0  0  0  0  0  0  0  0  # atno 7974 bound_to 7965
  156.1094  140.1465  156.9359 H   0  0  0  0  0  0  0  0  0  0  0  0  # atno 8008 bound_to 7997
  154.4756  140.0895  156.7298 H   0  0  0  0  0  0  0  0  0  0  0  0  # atno 8009 bound_to 7997
  155.4622  140.3439  155.4316 H   0  0  0  0  0  0  0  0  0  0  0  0  # atno 8010 bound_to 7997
  140.6854  143.6647  150.8236 H   0  0  0  0  0  0  0  0  0  0  0  0  # atno 10167 bound_to 10162
  157.0037  131.0183  151.2823 H   0  0  0  0  0  0  0  0  0  0  0  0  # atno 10718 bound_to 10713
  152.9896  135.5569  154.5722 H   0  0  0  0  0  0  0  0  0  0  0  0  # atno 10763 bound_to 10752
  154.5120  135.2803  155.1337 H   0  0  0  0  0  0  0  0  0  0  0  0  # atno 10764 bound_to 10752
  154.2724  135.6360  153.5368 H   0  0  0  0  0  0  0  0  0  0  0  0  # atno 10765 bound_to 10752
  140.1489  134.4487  155.8396 H   0  0  0  0  0  0  0  0  0  0  0  0  # atno 11005 bound_to 11000
  144.6803  139.9935  143.7484 LP  0  0  0  0  0  0  0  0  0  0  0  0  # atno 17320 bound_to 7965
  146.0112  139.3172  143.0869 LP  0  0  0  0  0  0  0  0  0  0  0  0  # atno 17321 bound_to 7965
  140.0353  143.5402  152.2742 LP  0  0  0  0  0  0  0  0  0  0  0  0  # atno 17342 bound_to 10162
  139.6209  144.7629  151.2742 LP  0  0  0  0  0  0  0  0  0  0  0  0  # atno 17343 bound_to 10162
  157.5372  130.8096  149.7985 LP  0  0  0  0  0  0  0  0  0  0  0  0  # atno 17370 bound_to 10713
  156.0162  130.3813  150.2105 LP  0  0  0  0  0  0  0  0  0  0  0  0  # atno 17371 bound_to 10713
  141.2196  133.6864  156.7384 LP  0  0  0  0  0  0  0  0  0  0  0  0  # atno 17394 bound_to 11000
  140.2630  134.8452  157.3776 LP  0  0  0  0  0  0  0  0  0  0  0  0  # atno 17395 bound_to 11000

$$$$
