AV-unprocessed.smi:1208|AV-procd|sdf|5063|dock8
  -GOLD-   22720 4103D 1   1.00000     0.00000
 Structure written by MMmdl.
 35 36  0  0  0  0  0  0  0  0  2 V2000
  153.9309  140.9163  159.7416 C   0  0  0  0  0  0  0  0  0  0  0  0
  152.5037  141.4329  159.5076 C   0  0  2  0  0  0  0  0  0  0  0  0
  152.2145  141.3999  158.0751 N   0  0  0  0  0  0  0  0  0  0  0  0
  150.9974  141.4524  157.5114 C   0  0  0  0  0  0  0  0  0  0  0  0
  149.9534  141.5425  158.1590 O   0  0  0  0  0  0  0  0  0  0  0  0
  150.9759  141.4199  155.9753 C   0  0  0  0  0  0  0  0  0  0  0  0
  151.2445  140.0936  155.4007 N   0  0  0  0  0  0  0  0  0  0  0  0
  152.6646  139.7678  155.3030 N   0  5  0  0  0  0  0  0  0  0  0  0
  153.0349  138.5691  154.7792 C   0  0  0  0  0  0  0  0  0  0  0  0
  154.2096  138.2324  154.6505 O   0  0  0  0  0  0  0  0  0  0  0  0
  151.9875  137.6526  154.3602 C   0  0  0  0  0  0  0  0  0  0  0  0
  150.6838  137.9707  154.4830 C   0  0  0  0  0  0  0  0  0  0  0  0
  150.2412  139.2453  155.0349 C   0  0  0  0  0  0  0  0  0  0  0  0
  149.0516  139.5370  155.1620 O   0  0  0  0  0  0  0  0  0  0  0  0
  152.3077  142.8621  160.0510 C   0  0  1  0  0  0  0  0  0  0  0  0
  152.8550  143.9693  159.1462 C   0  0  0  0  0  0  0  0  0  0  0  0
  152.0104  145.1515  159.5602 C   0  0  0  0  0  0  0  0  0  0  0  0
  150.6502  144.4960  159.7729 C   0  0  0  0  0  0  0  0  0  0  0  0
  150.9197  143.1611  160.1935 O   0  0  0  0  0  0  0  0  0  0  0  0
  154.1709  140.8900  160.8047 H   0  0  0  0  0  0  0  0  0  0  0  0
  154.6695  141.5499  159.2495 H   0  0  0  0  0  0  0  0  0  0  0  0
  154.0492  139.9035  159.3545 H   0  0  0  0  0  0  0  0  0  0  0  0
  151.8203  140.7726  160.0447 H   0  0  0  0  0  0  0  0  0  0  0  0
  153.0098  141.3340  157.4569 H   0  0  0  0  0  0  0  0  0  0  0  0
  150.0026  141.7890  155.6472 H   0  0  0  0  0  0  0  0  0  0  0  0
  151.7053  142.1338  155.5880 H   0  0  0  0  0  0  0  0  0  0  0  0
  152.2607  136.6944  153.9438 H   0  0  0  0  0  0  0  0  0  0  0  0
  149.9394  137.2579  154.1612 H   0  0  0  0  0  0  0  0  0  0  0  0
  152.7665  142.9549  161.0368 H   0  0  0  0  0  0  0  0  0  0  0  0
  153.9238  144.1400  159.2799 H   0  0  0  0  0  0  0  0  0  0  0  0
  152.6755  143.7326  158.0962 H   0  0  0  0  0  0  0  0  0  0  0  0
  152.3812  145.5669  160.4981 H   0  0  0  0  0  0  0  0  0  0  0  0
  151.9888  145.9475  158.8153 H   0  0  0  0  0  0  0  0  0  0  0  0
  150.0409  145.0293  160.5028 H   0  0  0  0  0  0  0  0  0  0  0  0
  150.0967  144.4559  158.8339 H   0  0  0  0  0  0  0  0  0  0  0  0
  1  2  1  0  0  0  0
  1 20  1  0  0  0  0
  1 21  1  0  0  0  0
  1 22  1  0  0  0  0
  2  3  1  0  0  0  0
  2 15  1  0  0  0  0
  2 23  1  0  0  0  0
  3  4  1  0  0  0  0
  3 24  1  0  0  0  0
  4  5  2  0  0  0  0
  4  6  1  0  0  0  0
  6 25  1  0  0  0  0
  6 26  1  0  0  0  0
  6  7  1  0  0  0  0
  7  8  1  0  0  0  0
  7 13  1  0  0  0  0
  8  9  1  0  0  0  0
  9 10  2  0  0  0  0
  9 11  1  0  0  0  0
 11 27  1  0  0  0  0
 11 12  2  0  0  0  0
 12 28  1  0  0  0  0
 12 13  1  0  0  0  0
 13 14  2  0  0  0  0
 15 19  1  0  0  0  0
 15 16  1  0  0  0  0
 15 29  1  0  0  0  0
 16 17  1  0  0  0  0
 16 30  1  0  0  0  0
 16 31  1  0  0  0  0
 17 18  1  0  0  0  0
 17 32  1  0  0  0  0
 17 33  1  0  0  0  0
 18 19  1  0  0  0  0
 18 34  1  0  0  0  0
 18 35  1  0  0  0  0
M  CHG  1   8  -1
M  END
> <s_m_source_file>
AV-unprocessed.smi

> <i_m_source_file_index>
1208

> <i_lp_mmshare_version>
43012

> <i_f3d_flags>
0

> <s_epik_input>
TzFbQ0gyXVtDSDJdW0NIMl1bQ0BIXTFbQ0BIXShbQ0gzXSlbTkhdQyg9TylbQ0gyXW4yW25IXWMoPU8pW2NIXVtjSF1jMj1P

> <s_epik_cmdline>
J2VwaWtfcHl0aG9uJywgJy1waCcsICc3LjAnLCAnLXRuJywgJzgnLCAnLW1hJywgJzIwMCcsICctbWV0YWxfYmluZGluZycsICctaW1hZScsICc8aW5maWxlLm1hZT4nLCAnLW9tYWUnLCAnPG91dGZpbGUubWFlPic=

> <r_lp_tautomer_probability>
1

> <r_epik_Ionization_Penalty>
0.0975494

> <r_epik_Ionization_Penalty_Charging>
0.0975494

> <r_epik_Ionization_Penalty_Neutral>
2.30132e-08

> <r_epik_State_Penalty>
0.034345

> <r_epik_Charging_Adjusted_Penalty>
0.131894

> <i_epik_Tot_Q>
-1

> <i_epik_Tot_abs_Q>
1

> <r_epik_Metal_State_Penalty>
0.034345

> <b_epik_Metal_Only>
0

> <s_lp_Force_Field>
OPLS_2005

> <r_lp_Energy>
33.2444

> <b_lp_Chiralities_Consistent>
1

> <s_lp_Variant>
AV-unprocessed.smi:1208-3

> <Gold.Version>
5.8.1

> <Gold.Id.Protein>
6NUR|6NUR_protein|mol2

> <Gold.PLP.Fitness>
46.5431

> <Gold.PLP.PLP>
-43.1611

> <Gold.PLP.part.hbond>
-4.7707

> <Gold.PLP.part.metal>
0.0000

> <Gold.PLP.part.buried>
-3.0132

> <Gold.PLP.part.nonpolar>
-36.3635

> <Gold.PLP.part.repulsive>
0.2554

> <Gold.PLP.ligand.clash>
0.0000

> <Gold.PLP.ligand.torsion>
1.0189

> <Gold.PLP.Chemscore.Hbond>
1.8000

> <Gold.PLP.Chemscore.CHOScore>
0.0000

> <Gold.PLP.Chemscore.Metal>
0.0000

> <Gold.Chemscore.Hbonds>
donor molecule, donor type, donor heavy atom, donor atom, acceptor molecule, acceptor atom, score
      P1  H  7997  8010       L1     8  1.70

> <Gold.PLP.Chemscore.Internal.Correction>
0.0199

> <Gold.Rescore>
     Score         DG    S(hbond)    S(metal)    S(lipo)     H(rot)  DE(clash)    DE(int)     intcor
     10.18     -13.19       0.66        0.00      90.75       1.99       0.46       2.55       ----

> <Gold.Chemscore.Fitness>
10.1812

> <Gold.Chemscore.DG>
-13.1940

> <Gold.Chemscore.ZeroCoef>
-5.4800

> <Gold.Chemscore.Hbond>
0.6591

> <Gold.Chemscore.Metal>
0.0000

> <Gold.Chemscore.Lipo>
90.7466

> <Gold.Chemscore.Internal_Hbond>
0.0000

> <Gold.Chemscore.DEClash>
0.4616

> <Gold.Chemscore.DEInternal>
2.5512

> <Gold.Chemscore.Rot>
1.9940

> <Gold.Chemscore.Internal.Correction>
   9.000000E+99

> <Gold.Chemscore.Hbonds>
donor molecule, donor type, donor heavy atom, donor atom, acceptor molecule, acceptor atom, score
      P1  H  7997  8010       L1     8  0.14

> <Gold.Chemscore.Hbond.Weighted>
-2.2014

> <Gold.Chemscore.Metal.Weighted>
-0.0000

> <Gold.Chemscore.Lipo.Weighted>
-10.6173

> <Gold.Chemscore.Internal_Hbond.Weighted>
0.0000

> <Gold.Chemscore.DEClash.Weighted>
0.4616

> <Gold.Chemscore.DEInternal.Weighted>
2.5512

> <Gold.Chemscore.Rot.Weighted>
5.1047

> <Gold.Chemscore.Internal.Correction.Weighted>
   9.000000E+99

> <Gold.Protein.RotatedTorsions>
[ 6907 6896 6895 6894 ] final   40.54 input  -60.11 | X-H torsion
[ 7974 7965 7964 7962 ] final  161.81 input  175.53 | X-H torsion
[ 8008 7997 7996 7995 ] final   79.98 input   59.86 | X-H torsion
[ 10167 10162 10161 10158 ] final  135.97 input  -65.29 | X-H torsion
[ 10718 10713 10712 10709 ] final  -96.71 input   66.30 | X-H torsion
[ 10763 10752 10751 10750 ] final -140.14 input  -60.55 | X-H torsion
[ 11005 11000 10999 10996 ] final   41.02 input  -57.11 | X-H torsion

> <Gold.Protein.ActiveResidues>
 VAL166  LYS551  ARG553  GLY616  TRP617  ASP618  TYR619  PRO620  LYS621  CYS622 
 ASP623  PHE694  ASN695  SER759  ASP760  ASP761  ALA762  ILE779  LEU786  VAL792 
 PHE793  MET794  SER795  GLU796  ALA797  LYS798  CYS799  TRP800  GLU811  SER814 

> <Gold.Protein.RotatedAtoms>
  152.1838  134.8731  160.0523 H   0  0  0  0  0  0  0  0  0  0  0  0  # atno 6907 bound_to 6896
  151.9645  133.3701  159.4056 H   0  0  0  0  0  0  0  0  0  0  0  0  # atno 6908 bound_to 6896
  150.6922  134.4129  159.5214 H   0  0  0  0  0  0  0  0  0  0  0  0  # atno 6909 bound_to 6896
  144.7667  139.7950  143.6312 H   0  0  0  0  0  0  0  0  0  0  0  0  # atno 7974 bound_to 7965
  155.8772  140.3446  155.5862 H   0  0  0  0  0  0  0  0  0  0  0  0  # atno 8008 bound_to 7997
  155.7761  140.0852  157.2102 H   0  0  0  0  0  0  0  0  0  0  0  0  # atno 8009 bound_to 7997
  154.4021  140.1509  156.2985 H   0  0  0  0  0  0  0  0  0  0  0  0  # atno 8010 bound_to 7997
  139.5197  144.6489  151.5359 H   0  0  0  0  0  0  0  0  0  0  0  0  # atno 10167 bound_to 10162
  156.0068  130.5163  150.6266 H   0  0  0  0  0  0  0  0  0  0  0  0  # atno 10718 bound_to 10713
  154.8588  135.3562  154.5660 H   0  0  0  0  0  0  0  0  0  0  0  0  # atno 10763 bound_to 10752
  153.6274  135.7003  153.5293 H   0  0  0  0  0  0  0  0  0  0  0  0  # atno 10764 bound_to 10752
  153.3078  135.4187  155.1269 H   0  0  0  0  0  0  0  0  0  0  0  0  # atno 10765 bound_to 10752
  140.1874  134.4029  155.8165 H   0  0  0  0  0  0  0  0  0  0  0  0  # atno 11005 bound_to 11000
  146.1781  139.4961  142.9884 LP  0  0  0  0  0  0  0  0  0  0  0  0  # atno 17320 bound_to 7965
  145.6447  141.0276  143.1792 LP  0  0  0  0  0  0  0  0  0  0  0  0  # atno 17321 bound_to 7965
  140.6286  143.9120  150.6586 LP  0  0  0  0  0  0  0  0  0  0  0  0  # atno 17342 bound_to 10162
  140.2417  143.3659  152.1481 LP  0  0  0  0  0  0  0  0  0  0  0  0  # atno 17343 bound_to 10162
  157.4072  131.0818  151.1254 LP  0  0  0  0  0  0  0  0  0  0  0  0  # atno 17370 bound_to 10713
  157.1897  130.6346  149.5700 LP  0  0  0  0  0  0  0  0  0  0  0  0  # atno 17371 bound_to 10713
  141.2225  133.7030  156.8036 LP  0  0  0  0  0  0  0  0  0  0  0  0  # atno 17394 bound_to 11000
  140.2198  134.8765  157.3365 LP  0  0  0  0  0  0  0  0  0  0  0  0  # atno 17395 bound_to 11000

$$$$
