AV-unprocessed.smi:3310|AV-procd|sdf|12718|dock7
  -GOLD-   2272019 53D 1   1.00000     0.00000
 Structure written by MMmdl.
 45 46  0  0  0  0  0  0  0  0  2 V2000
  152.5283  138.8058  155.5511 C   0  0  0  0  0  0  0  0  0  0  0  0
  151.6526  138.7560  154.2943 C   0  0  0  0  0  0  0  0  0  0  0  0
  150.2520  138.3150  154.5865 C   0  0  0  0  0  0  0  0  0  0  0  0
  149.9436  137.0859  155.0171 N   0  0  0  0  0  0  0  0  0  0  0  0
  148.5693  137.0695  155.1452 N   0  0  0  0  0  0  0  0  0  0  0  0
  148.1833  138.2877  154.7701 C   0  0  0  0  0  0  0  0  0  0  0  0
  149.1777  139.1127  154.4077 N   0  0  0  0  0  0  0  0  0  0  0  0
  149.0825  140.4877  153.9525 C   0  0  0  0  0  0  0  0  0  0  0  0
  148.6259  141.4232  155.0804 C   0  0  0  0  0  0  0  0  0  0  0  0
  149.7798  142.0716  155.7325 N   0  3  0  0  0  0  0  0  0  0  0  0
  149.9890  141.6544  157.1335 C   0  0  0  0  0  0  0  0  0  0  0  0
  151.3083  142.2083  157.7030 C   0  0  2  0  0  0  0  0  0  0  0  0
  151.5862  141.6270  159.1036 C   0  0  0  0  0  0  0  0  0  0  0  0
  152.8917  142.1762  159.7057 C   0  0  0  0  0  0  0  0  0  0  0  0
  152.9170  143.7165  159.7541 C   0  0  2  0  0  0  0  0  0  0  0  0
  151.9997  144.2897  160.8487 C   0  0  0  0  0  0  0  0  0  0  0  0
  152.6138  144.3021  158.3610 C   0  0  0  0  0  0  0  0  0  0  0  0
  151.3080  143.7512  157.7618 C   0  0  0  0  0  0  0  0  0  0  0  0
  153.5378  139.1379  155.3087 H   0  0  0  0  0  0  0  0  0  0  0  0
  152.6031  137.8239  156.0186 H   0  0  0  0  0  0  0  0  0  0  0  0
  152.1186  139.4972  156.2882 H   0  0  0  0  0  0  0  0  0  0  0  0
  151.6155  139.7456  153.8376 H   0  0  0  0  0  0  0  0  0  0  0  0
  152.0994  138.0969  153.5503 H   0  0  0  0  0  0  0  0  0  0  0  0
  147.1450  138.5861  154.7593 H   0  0  0  0  0  0  0  0  0  0  0  0
  150.0492  140.7995  153.5561 H   0  0  0  0  0  0  0  0  0  0  0  0
  148.3768  140.5244  153.1216 H   0  0  0  0  0  0  0  0  0  0  0  0
  147.9645  142.1931  154.6801 H   0  0  0  0  0  0  0  0  0  0  0  0
  148.0575  140.8660  155.8263 H   0  0  0  0  0  0  0  0  0  0  0  0
  150.6143  141.8584  155.2049 H   0  0  0  0  0  0  0  0  0  0  0  0
  149.1480  141.9846  157.7450 H   0  0  0  0  0  0  0  0  0  0  0  0
  149.9980  140.5641  157.1674 H   0  0  0  0  0  0  0  0  0  0  0  0
  152.1212  141.8903  157.0480 H   0  0  0  0  0  0  0  0  0  0  0  0
  150.7515  141.8481  159.7699 H   0  0  0  0  0  0  0  0  0  0  0  0
  151.6482  140.5396  159.0478 H   0  0  0  0  0  0  0  0  0  0  0  0
  153.0437  141.7654  160.7045 H   0  0  0  0  0  0  0  0  0  0  0  0
  153.7321  141.8252  159.1053 H   0  0  0  0  0  0  0  0  0  0  0  0
  153.9319  144.0162  160.0188 H   0  0  0  0  0  0  0  0  0  0  0  0
  150.9518  144.0441  160.6783 H   0  0  0  0  0  0  0  0  0  0  0  0
  152.0794  145.3761  160.8947 H   0  0  0  0  0  0  0  0  0  0  0  0
  152.2728  143.9011  161.8300 H   0  0  0  0  0  0  0  0  0  0  0  0
  152.5717  145.3908  158.4112 H   0  0  0  0  0  0  0  0  0  0  0  0
  153.4386  144.0639  157.6880 H   0  0  0  0  0  0  0  0  0  0  0  0
  151.1760  144.1664  156.7625 H   0  0  0  0  0  0  0  0  0  0  0  0
  150.4578  144.1002  158.3484 H   0  0  0  0  0  0  0  0  0  0  0  0
  149.6342  143.0709  155.7172 H   0  0  0  0  0  0  0  0  0  0  0  0
  1  2  1  0  0  0  0
  1 19  1  0  0  0  0
  1 20  1  0  0  0  0
  1 21  1  0  0  0  0
  2  3  1  0  0  0  0
  2 22  1  0  0  0  0
  2 23  1  0  0  0  0
  3  7  1  0  0  0  0
  3  4  2  0  0  0  0
  4  5  1  0  0  0  0
  5  6  2  0  0  0  0
  6  7  1  0  0  0  0
  6 24  1  0  0  0  0
  7  8  1  0  0  0  0
  8  9  1  0  0  0  0
  8 25  1  0  0  0  0
  8 26  1  0  0  0  0
  9 10  1  0  0  0  0
  9 27  1  0  0  0  0
  9 28  1  0  0  0  0
 10 11  1  0  0  0  0
 10 29  1  0  0  0  0
 10 45  1  0  0  0  0
 11 12  1  0  0  0  0
 11 30  1  0  0  0  0
 11 31  1  0  0  0  0
 12 18  1  0  0  0  0
 12 13  1  0  0  0  0
 12 32  1  0  0  0  0
 13 14  1  0  0  0  0
 13 33  1  0  0  0  0
 13 34  1  0  0  0  0
 14 15  1  0  0  0  0
 14 35  1  0  0  0  0
 14 36  1  0  0  0  0
 15 16  1  0  0  0  0
 15 17  1  0  0  0  0
 15 37  1  0  0  0  0
 16 38  1  0  0  0  0
 16 39  1  0  0  0  0
 16 40  1  0  0  0  0
 17 18  1  0  0  0  0
 17 41  1  0  0  0  0
 17 42  1  0  0  0  0
 18 43  1  0  0  0  0
 18 44  1  0  0  0  0
M  CHG  1  10   1
M  END
> <s_m_source_file>
AV-unprocessed.smi

> <i_m_source_file_index>
3310

> <i_lp_mmshare_version>
43012

> <i_f3d_flags>
0

> <s_epik_input>
W0NIM11bQ0gyXWMxbm5bY0hdbjFbQ0gyXVtDSDJdW05IXVtDSDJdW0NAQEhdMltDSDJdW0NIMl1bQ0BASF0oW0NIM10pW0NIMl1bQ0gyXTI=

> <s_epik_cmdline>
J2VwaWtfcHl0aG9uJywgJy1waCcsICc3LjAnLCAnLXRuJywgJzgnLCAnLW1hJywgJzIwMCcsICctbWV0YWxfYmluZGluZycsICctaW1hZScsICc8aW5maWxlLm1hZT4nLCAnLW9tYWUnLCAnPG91dGZpbGUubWFlPic=

> <r_lp_tautomer_probability>
1

> <r_epik_Ionization_Penalty>
0.00127868

> <r_epik_Ionization_Penalty_Charging>
0.00126792

> <r_epik_Ionization_Penalty_Neutral>
1.07546e-05

> <r_epik_State_Penalty>
-0

> <r_epik_Charging_Adjusted_Penalty>
0.00126792

> <i_epik_Tot_Q>
1

> <i_epik_Tot_abs_Q>
1

> <r_epik_Metal_State_Penalty>
-0

> <b_epik_Metal_Only>
0

> <s_lp_Force_Field>
OPLS_2005

> <r_lp_Energy>
17.5761

> <b_lp_Chiralities_Consistent>
1

> <s_lp_Variant>
AV-unprocessed.smi:3310-2

> <Gold.Version>
5.8.1

> <Gold.Id.Protein>
6NUR|6NUR_protein|mol2

> <Gold.PLP.Fitness>
45.1514

> <Gold.PLP.PLP>
-40.5550

> <Gold.PLP.part.hbond>
-1.0000

> <Gold.PLP.part.metal>
0.0000

> <Gold.PLP.part.buried>
-3.0752

> <Gold.PLP.part.nonpolar>
-37.4028

> <Gold.PLP.part.repulsive>
0.3634

> <Gold.PLP.ligand.clash>
0.0000

> <Gold.PLP.ligand.torsion>
0.7358

> <Gold.PLP.Chemscore.Hbond>
2.0000

> <Gold.PLP.Chemscore.CHOScore>
0.0000

> <Gold.PLP.Chemscore.Metal>
0.0000

> <Gold.Chemscore.Hbonds>
donor molecule, donor type, donor heavy atom, donor atom, acceptor molecule, acceptor atom, score
      L1  H    10    45       P1  8028  2.00

> <Gold.PLP.Chemscore.Internal.Correction>
0.0679

> <Gold.Rescore>
     Score         DG    S(hbond)    S(metal)    S(lipo)     H(rot)  DE(clash)    DE(int)     intcor
     16.46     -17.27       1.00        0.00     116.67       2.03       0.13       0.68       ----

> <Gold.Chemscore.Fitness>
16.4566

> <Gold.Chemscore.DG>
-17.2665

> <Gold.Chemscore.ZeroCoef>
-5.4800

> <Gold.Chemscore.Hbond>
0.9976

> <Gold.Chemscore.Metal>
0.0000

> <Gold.Chemscore.Lipo>
116.6690

> <Gold.Chemscore.Internal_Hbond>
0.0000

> <Gold.Chemscore.DEClash>
0.1296

> <Gold.Chemscore.DEInternal>
0.6804

> <Gold.Chemscore.Rot>
2.0295

> <Gold.Chemscore.Internal.Correction>
   9.000000E+99

> <Gold.Chemscore.Hbonds>
donor molecule, donor type, donor heavy atom, donor atom, acceptor molecule, acceptor atom, score
      L1  H    10    45       P1  8028  1.00

> <Gold.Chemscore.Hbond.Weighted>
-3.3318

> <Gold.Chemscore.Metal.Weighted>
-0.0000

> <Gold.Chemscore.Lipo.Weighted>
-13.6503

> <Gold.Chemscore.Internal_Hbond.Weighted>
0.0000

> <Gold.Chemscore.DEClash.Weighted>
0.1296

> <Gold.Chemscore.DEInternal.Weighted>
0.6804

> <Gold.Chemscore.Rot.Weighted>
5.1956

> <Gold.Chemscore.Internal.Correction.Weighted>
   9.000000E+99

> <Gold.Protein.RotatedTorsions>
[ 6907 6896 6895 6894 ] final   47.43 input  -60.11 | X-H torsion
[ 7974 7965 7964 7962 ] final  158.19 input  175.53 | X-H torsion
[ 8008 7997 7996 7995 ] final  -28.35 input   59.86 | X-H torsion
[ 10167 10162 10161 10158 ] final   61.94 input  -65.29 | X-H torsion
[ 10718 10713 10712 10709 ] final -150.62 input   66.30 | X-H torsion
[ 10763 10752 10751 10750 ] final  157.35 input  -60.55 | X-H torsion
[ 11005 11000 10999 10996 ] final -100.41 input  -57.11 | X-H torsion

> <Gold.Protein.ActiveResidues>
 VAL166  LYS551  ARG553  GLY616  TRP617  ASP618  TYR619  PRO620  LYS621  CYS622 
 ASP623  PHE694  ASN695  SER759  ASP760  ASP761  ALA762  ILE779  LEU786  VAL792 
 PHE793  MET794  SER795  GLU796  ALA797  LYS798  CYS799  TRP800  GLU811  SER814 

> <Gold.Protein.RotatedAtoms>
  152.2680  134.7964  160.0419 H   0  0  0  0  0  0  0  0  0  0  0  0  # atno 6907 bound_to 6896
  151.8586  133.3448  159.3704 H   0  0  0  0  0  0  0  0  0  0  0  0  # atno 6908 bound_to 6896
  150.7141  134.5156  159.5673 H   0  0  0  0  0  0  0  0  0  0  0  0  # atno 6909 bound_to 6896
  144.7860  139.7444  143.6241 H   0  0  0  0  0  0  0  0  0  0  0  0  # atno 7974 bound_to 7965
  154.4336  140.1847  156.1076 H   0  0  0  0  0  0  0  0  0  0  0  0  # atno 8008 bound_to 7997
  156.0243  140.3337  155.7046 H   0  0  0  0  0  0  0  0  0  0  0  0  # atno 8009 bound_to 7997
  155.5931  140.0633  157.2744 H   0  0  0  0  0  0  0  0  0  0  0  0  # atno 8010 bound_to 7997
  140.1494  144.4477  150.6768 H   0  0  0  0  0  0  0  0  0  0  0  0  # atno 10167 bound_to 10162
  156.4485  130.8156  151.2387 H   0  0  0  0  0  0  0  0  0  0  0  0  # atno 10718 bound_to 10713
  154.1988  135.2791  155.2998 H   0  0  0  0  0  0  0  0  0  0  0  0  # atno 10763 bound_to 10752
  154.5871  135.5571  153.7245 H   0  0  0  0  0  0  0  0  0  0  0  0  # atno 10764 bound_to 10752
  153.0093  135.6359  154.2126 H   0  0  0  0  0  0  0  0  0  0  0  0  # atno 10765 bound_to 10752
  141.1271  133.8397  157.1099 H   0  0  0  0  0  0  0  0  0  0  0  0  # atno 11005 bound_to 11000
  146.2091  139.5436  142.9693 LP  0  0  0  0  0  0  0  0  0  0  0  0  # atno 17320 bound_to 7965
  145.5921  141.0368  143.2064 LP  0  0  0  0  0  0  0  0  0  0  0  0  # atno 17321 bound_to 7965
  140.6712  143.2286  151.5620 LP  0  0  0  0  0  0  0  0  0  0  0  0  # atno 17342 bound_to 10162
  139.5433  144.2588  152.1394 LP  0  0  0  0  0  0  0  0  0  0  0  0  # atno 17343 bound_to 10162
  157.7504  131.0145  150.3468 LP  0  0  0  0  0  0  0  0  0  0  0  0  # atno 17370 bound_to 10713
  156.3841  130.3886  149.7079 LP  0  0  0  0  0  0  0  0  0  0  0  0  # atno 17371 bound_to 10713
  140.0281  134.9914  157.0727 LP  0  0  0  0  0  0  0  0  0  0  0  0  # atno 17394 bound_to 11000
  140.4329  134.1761  155.7169 LP  0  0  0  0  0  0  0  0  0  0  0  0  # atno 17395 bound_to 11000

$$$$
