AV-unprocessed.smi:490|AV-procd|sdf|2706|dock3
  -GOLD-   2262023143D 1   1.00000     0.00000
 Structure written by MMmdl.
 50 52  0  0  0  0  0  0  0  0  2 V2000
  152.2579  144.4227  160.0232 C   0  0  0  0  0  0  0  0  0  0  0  0
  152.4177  142.9468  159.7008 C   0  0  0  0  0  0  0  0  0  0  0  0
  153.4156  142.2066  160.3670 C   0  0  0  0  0  0  0  0  0  0  0  0
  153.5943  140.8404  160.0881 C   0  0  0  0  0  0  0  0  0  0  0  0
  152.7712  140.1962  159.1443 C   0  0  0  0  0  0  0  0  0  0  0  0
  152.9859  138.7226  158.8514 C   0  0  0  0  0  0  0  0  0  0  0  0
  151.7564  140.9263  158.4823 C   0  0  0  0  0  0  0  0  0  0  0  0
  150.9539  140.2948  157.5671 O   0  0  0  0  0  0  0  0  0  0  0  0
  151.3519  140.5037  156.2199 C   0  0  0  0  0  0  0  0  0  0  0  0
  150.0986  140.7523  155.3680 C   0  0  1  0  0  0  0  0  0  0  0  0
  150.3040  140.1817  154.0910 O   0  0  0  0  0  0  0  0  0  0  0  0
  148.8391  140.1317  156.0039 C   0  0  0  0  0  0  0  0  0  0  0  0
  147.5907  140.7143  155.4837 N   0  0  0  0  0  0  0  0  0  0  0  0
  146.9443  140.4912  154.3024 C   0  0  0  0  0  0  0  0  0  0  0  0
  147.3580  139.5589  153.2112 C   0  0  0  0  0  0  0  0  0  0  0  0
  146.3822  139.4518  152.1986 O   0  0  0  0  0  0  0  0  0  0  0  0
  145.8281  141.2731  154.2988 N   0  3  0  0  0  0  0  0  0  0  0  0
  145.7563  142.0008  155.4870 C   0  0  0  0  0  0  0  0  0  0  0  0
  144.8108  142.9177  155.9363 C   0  0  0  0  0  0  0  0  0  0  0  0
  145.0313  143.4815  157.2100 C   0  0  0  0  0  0  0  0  0  0  0  0
  146.1552  143.1275  157.9844 C   0  0  0  0  0  0  0  0  0  0  0  0
  147.1074  142.1973  157.5175 C   0  0  0  0  0  0  0  0  0  0  0  0
  146.8842  141.6459  156.2554 C   0  0  0  0  0  0  0  0  0  0  0  0
  151.5870  142.3089  158.7459 C   0  0  0  0  0  0  0  0  0  0  0  0
  150.5160  143.1039  158.0105 C   0  0  0  0  0  0  0  0  0  0  0  0
  152.8761  144.7121  160.8738 H   0  0  0  0  0  0  0  0  0  0  0  0
  151.2220  144.6545  160.2721 H   0  0  0  0  0  0  0  0  0  0  0  0
  152.5552  145.0324  159.1698 H   0  0  0  0  0  0  0  0  0  0  0  0
  154.0546  142.6859  161.0943 H   0  0  0  0  0  0  0  0  0  0  0  0
  154.3674  140.2887  160.6026 H   0  0  0  0  0  0  0  0  0  0  0  0
  152.8296  138.5062  157.7942 H   0  0  0  0  0  0  0  0  0  0  0  0
  152.2916  138.1169  159.4338 H   0  0  0  0  0  0  0  0  0  0  0  0
  154.0011  138.4172  159.1064 H   0  0  0  0  0  0  0  0  0  0  0  0
  152.0613  141.3283  156.1322 H   0  0  0  0  0  0  0  0  0  0  0  0
  151.8619  139.6064  155.8650 H   0  0  0  0  0  0  0  0  0  0  0  0
  149.9464  141.8262  155.2542 H   0  0  0  0  0  0  0  0  0  0  0  0
  150.0200  139.2804  154.1194 H   0  0  0  0  0  0  0  0  0  0  0  0
  148.8201  139.0498  155.8715 H   0  0  0  0  0  0  0  0  0  0  0  0
  148.8467  140.2986  157.0812 H   0  0  0  0  0  0  0  0  0  0  0  0
  148.2905  139.9104  152.7690 H   0  0  0  0  0  0  0  0  0  0  0  0
  147.5552  138.5698  153.6245 H   0  0  0  0  0  0  0  0  0  0  0  0
  145.6748  140.0462  152.3974 H   0  0  0  0  0  0  0  0  0  0  0  0
  143.9473  143.1876  155.3462 H   0  0  0  0  0  0  0  0  0  0  0  0
  144.3231  144.1971  157.6023 H   0  0  0  0  0  0  0  0  0  0  0  0
  146.2894  143.5767  158.9578 H   0  0  0  0  0  0  0  0  0  0  0  0
  147.9596  141.9290  158.1238 H   0  0  0  0  0  0  0  0  0  0  0  0
  150.1129  142.5645  157.1537 H   0  0  0  0  0  0  0  0  0  0  0  0
  150.9214  144.0428  157.6332 H   0  0  0  0  0  0  0  0  0  0  0  0
  149.6893  143.3318  158.6838 H   0  0  0  0  0  0  0  0  0  0  0  0
  145.1614  141.2994  153.5383 H   0  0  0  0  0  0  0  0  0  0  0  0
  1  2  1  0  0  0  0
  1 26  1  0  0  0  0
  1 27  1  0  0  0  0
  1 28  1  0  0  0  0
  2 24  1  0  0  0  0
  2  3  2  0  0  0  0
  3  4  1  0  0  0  0
  3 29  1  0  0  0  0
  4  5  2  0  0  0  0
  4 30  1  0  0  0  0
  5  6  1  0  0  0  0
  5  7  1  0  0  0  0
  6 31  1  0  0  0  0
  6 32  1  0  0  0  0
  6 33  1  0  0  0  0
  7  8  1  0  0  0  0
  7 24  2  0  0  0  0
  8  9  1  0  0  0  0
  9 10  1  0  0  0  0
  9 34  1  0  0  0  0
  9 35  1  0  0  0  0
 10 11  1  0  0  0  0
 10 12  1  0  0  0  0
 10 36  1  0  0  0  0
 11 37  1  0  0  0  0
 12 13  1  0  0  0  0
 12 38  1  0  0  0  0
 12 39  1  0  0  0  0
 13 23  1  0  0  0  0
 13 14  1  0  0  0  0
 14 15  1  0  0  0  0
 14 17  2  0  0  0  0
 15 16  1  0  0  0  0
 15 40  1  0  0  0  0
 15 41  1  0  0  0  0
 16 42  1  0  0  0  0
 17 18  1  0  0  0  0
 17 50  1  0  0  0  0
 18 23  2  0  0  0  0
 18 19  1  0  0  0  0
 19 20  2  0  0  0  0
 19 43  1  0  0  0  0
 20 21  1  0  0  0  0
 20 44  1  0  0  0  0
 21 22  2  0  0  0  0
 21 45  1  0  0  0  0
 22 23  1  0  0  0  0
 22 46  1  0  0  0  0
 24 25  1  0  0  0  0
 25 47  1  0  0  0  0
 25 48  1  0  0  0  0
 25 49  1  0  0  0  0
M  CHG  1  17   1
M  END
> <s_m_source_file>
AV-unprocessed.smi

> <i_m_source_file_index>
490

> <i_lp_mmshare_version>
43012

> <i_f3d_flags>
0

> <s_epik_input>
W0NIM11jMVtjSF1bY0hdYyhbQ0gzXSljKGMxW0NIM10pT1tDSDJdW0NASF0oW09IXSlbQ0gyXW4oYyhuMilbQ0gyXVtPSF0pYyhjMjMpW2NIXVtjSF1bY0hdW2NIXTM=

> <s_epik_cmdline>
J2VwaWtfcHl0aG9uJywgJy1waCcsICc3LjAnLCAnLXRuJywgJzgnLCAnLW1hJywgJzIwMCcsICctbWV0YWxfYmluZGluZycsICctaW1hZScsICc8aW5maWxlLm1hZT4nLCAnLW9tYWUnLCAnPG91dGZpbGUubWFlPic=

> <r_lp_tautomer_probability>
1

> <r_epik_Ionization_Penalty>
1.43125

> <r_epik_Ionization_Penalty_Charging>
1.43039

> <r_epik_Ionization_Penalty_Neutral>
0.000858184

> <r_epik_State_Penalty>
1.51493

> <r_epik_Charging_Adjusted_Penalty>
2.94531

> <i_epik_Tot_Q>
1

> <i_epik_Tot_abs_Q>
1

> <r_epik_Metal_State_Penalty>
5.5599

> <b_epik_Metal_Only>
0

> <s_lp_Force_Field>
OPLS_2005

> <r_lp_Energy>
24.5509

> <b_lp_Chiralities_Consistent>
1

> <s_lp_Variant>
AV-unprocessed.smi:490-4

> <Gold.Version>
5.8.1

> <Gold.Id.Protein>
6NUR|6NUR_protein|mol2

> <Gold.PLP.Fitness>
54.8109

> <Gold.PLP.PLP>
-45.6914

> <Gold.PLP.part.hbond>
-4.0000

> <Gold.PLP.part.metal>
0.0000

> <Gold.PLP.part.buried>
-6.1224

> <Gold.PLP.part.nonpolar>
-35.9156

> <Gold.PLP.part.repulsive>
0.0000

> <Gold.PLP.ligand.clash>
0.0000

> <Gold.PLP.ligand.torsion>
1.5207

> <Gold.PLP.Chemscore.Hbond>
3.9920

> <Gold.PLP.Chemscore.CHOScore>
0.0000

> <Gold.PLP.Chemscore.Metal>
0.0000

> <Gold.Chemscore.Hbonds>
donor molecule, donor type, donor heavy atom, donor atom, acceptor molecule, acceptor atom, score
      L1  H    16    42       P1 10175  1.00
      L1  H    17    50       P1 10175  2.00
      P1  H  7989  7998       L1    11  0.99

> <Gold.PLP.Chemscore.Internal.Correction>
0.1848

> <Gold.Rescore>
     Score         DG    S(hbond)    S(metal)    S(lipo)     H(rot)  DE(clash)    DE(int)     intcor
     18.56     -20.05       2.56        0.00     117.45       3.02       0.00       1.49       ----

> <Gold.Chemscore.Fitness>
18.5644

> <Gold.Chemscore.DG>
-20.0535

> <Gold.Chemscore.ZeroCoef>
-5.4800

> <Gold.Chemscore.Hbond>
2.5622

> <Gold.Chemscore.Metal>
0.0000

> <Gold.Chemscore.Lipo>
117.4495

> <Gold.Chemscore.Internal_Hbond>
0.0000

> <Gold.Chemscore.DEClash>
0.0015

> <Gold.Chemscore.DEInternal>
1.4876

> <Gold.Chemscore.Rot>
3.0180

> <Gold.Chemscore.Internal.Correction>
   9.000000E+99

> <Gold.Chemscore.Hbonds>
donor molecule, donor type, donor heavy atom, donor atom, acceptor molecule, acceptor atom, score
      L1  H    16    42       P1 10175  0.76
      L1  H    17    50       P1 10175  0.28
      P1  H  7989  7998       L1    11  0.56

> <Gold.Chemscore.Hbond.Weighted>
-8.5579

> <Gold.Chemscore.Metal.Weighted>
-0.0000

> <Gold.Chemscore.Lipo.Weighted>
-13.7416

> <Gold.Chemscore.Internal_Hbond.Weighted>
0.0000

> <Gold.Chemscore.DEClash.Weighted>
0.0015

> <Gold.Chemscore.DEInternal.Weighted>
1.4876

> <Gold.Chemscore.Rot.Weighted>
7.7260

> <Gold.Chemscore.Internal.Correction.Weighted>
   9.000000E+99

> <Gold.Protein.RotatedTorsions>
[ 6907 6896 6895 6894 ] final -175.39 input  -60.11 | X-H torsion
[ 7974 7965 7964 7962 ] final   37.10 input  175.53 | X-H torsion
[ 8008 7997 7996 7995 ] final  -53.35 input   59.86 | X-H torsion
[ 10167 10162 10161 10158 ] final -124.20 input  -65.29 | X-H torsion
[ 10718 10713 10712 10709 ] final  130.67 input   66.30 | X-H torsion
[ 10763 10752 10751 10750 ] final  -67.24 input  -60.55 | X-H torsion
[ 11005 11000 10999 10996 ] final   50.97 input  -57.11 | X-H torsion

> <Gold.Protein.ActiveResidues>
 VAL166  LYS551  ARG553  GLY616  TRP617  ASP618  TYR619  PRO620  LYS621  CYS622 
 ASP623  PHE694  ASN695  SER759  ASP760  ASP761  ALA762  ILE779  LEU786  VAL792 
 PHE793  MET794  SER795  GLU796  ALA797  LYS798  CYS799  TRP800  GLU811  SER814 

> <Gold.Protein.RotatedAtoms>
  151.5879  133.3370  159.3021 H   0  0  0  0  0  0  0  0  0  0  0  0  # atno 6907 bound_to 6896
  150.8277  134.7518  159.6838 H   0  0  0  0  0  0  0  0  0  0  0  0  # atno 6908 bound_to 6896
  152.4364  134.5684  159.9965 H   0  0  0  0  0  0  0  0  0  0  0  0  # atno 6909 bound_to 6896
  146.1162  139.5936  142.9319 H   0  0  0  0  0  0  0  0  0  0  0  0  # atno 7974 bound_to 7965
  154.4131  140.1202  156.5140 H   0  0  0  0  0  0  0  0  0  0  0  0  # atno 8008 bound_to 7997
  155.6770  140.3496  155.4821 H   0  0  0  0  0  0  0  0  0  0  0  0  # atno 8009 bound_to 7997
  155.9584  140.1118  157.0907 H   0  0  0  0  0  0  0  0  0  0  0  0  # atno 8010 bound_to 7997
  139.9953  143.5598  152.2325 H   0  0  0  0  0  0  0  0  0  0  0  0  # atno 10167 bound_to 10162
  157.5040  131.1095  150.9387 H   0  0  0  0  0  0  0  0  0  0  0  0  # atno 10718 bound_to 10713
  154.3716  135.6094  153.5743 H   0  0  0  0  0  0  0  0  0  0  0  0  # atno 10763 bound_to 10752
  152.9790  135.5839  154.4515 H   0  0  0  0  0  0  0  0  0  0  0  0  # atno 10764 bound_to 10752
  154.4270  135.2847  155.1916 H   0  0  0  0  0  0  0  0  0  0  0  0  # atno 10765 bound_to 10752
  140.0972  134.5130  155.8796 H   0  0  0  0  0  0  0  0  0  0  0  0  # atno 11005 bound_to 11000
  145.5561  141.0409  143.2252 LP  0  0  0  0  0  0  0  0  0  0  0  0  # atno 17320 bound_to 7965
  144.7555  139.7084  143.7255 LP  0  0  0  0  0  0  0  0  0  0  0  0  # atno 17321 bound_to 7965
  139.6310  144.7644  151.2535 LP  0  0  0  0  0  0  0  0  0  0  0  0  # atno 17342 bound_to 10162
  140.7439  143.6479  150.8275 LP  0  0  0  0  0  0  0  0  0  0  0  0  # atno 17343 bound_to 10162
  157.0048  130.5614  149.5315 LP  0  0  0  0  0  0  0  0  0  0  0  0  # atno 17370 bound_to 10713
  156.0247  130.5341  150.8373 LP  0  0  0  0  0  0  0  0  0  0  0  0  # atno 17371 bound_to 10713
  141.2095  133.6685  156.6446 LP  0  0  0  0  0  0  0  0  0  0  0  0  # atno 17394 bound_to 11000
  140.3270  134.7960  157.4297 LP  0  0  0  0  0  0  0  0  0  0  0  0  # atno 17395 bound_to 11000

$$$$
