AV-unprocessed.smi:694|AV-procd|sdf|3380|dock10
  -GOLD-   22720 0363D 1   1.00000     0.00000
 Structure written by MMmdl.
 42 43  0  0  0  0  0  0  0  0  1 V2000
  151.6091  145.7043  160.0136 C   0  0  0  0  0  0  0  0  0  0  0  0
  151.8961  144.4148  159.3928 N   0  0  0  0  0  0  0  0  0  0  0  0
  151.6267  144.2173  157.9744 C   0  0  0  0  0  0  0  0  0  0  0  0
  152.5338  143.4006  160.1434 C   0  0  0  0  0  0  0  0  0  0  0  0
  152.6723  143.4972  161.5500 C   0  0  0  0  0  0  0  0  0  0  0  0
  153.3107  142.4566  162.2508 C   0  0  0  0  0  0  0  0  0  0  0  0
  153.7927  141.3392  161.5427 C   0  0  0  0  0  0  0  0  0  0  0  0
  154.4409  140.3130  162.2831 N   0  0  0  0  0  0  0  0  0  0  0  0
  154.4718  138.9905  162.0437 C   0  0  0  0  0  0  0  0  0  0  0  0
  153.9174  138.4201  161.1050 O   0  0  0  0  0  0  0  0  0  0  0  0
  155.1812  138.3469  162.9814 N   0  0  0  0  0  0  0  0  0  0  0  0
  155.3998  136.9047  163.0244 C   0  0  0  0  0  0  0  0  0  0  0  0
  154.1552  136.1393  163.5183 C   0  0  2  0  0  0  0  0  0  0  0  0
  153.8724  136.3025  165.0207 C   0  0  0  0  0  0  0  0  0  0  0  0
  153.1726  135.0112  165.4744 C   0  0  0  0  0  0  0  0  0  0  0  0
  153.1685  134.0720  164.2625 C   0  0  0  0  0  0  0  0  0  0  0  0
  154.2498  134.6219  163.3316 C   0  0  1  0  0  0  0  0  0  0  0  0
  154.0236  134.2301  161.9934 O   0  0  0  0  0  0  0  0  0  0  0  0
  153.6235  141.3345  160.1381 C   0  0  0  0  0  0  0  0  0  0  0  0
  153.0126  142.3307  159.4629 N   0  0  0  0  0  0  0  0  0  0  0  0
  152.5319  146.1855  160.3394 H   0  0  0  0  0  0  0  0  0  0  0  0
  150.9592  145.5775  160.8801 H   0  0  0  0  0  0  0  0  0  0  0  0
  151.1081  146.3783  159.3188 H   0  0  0  0  0  0  0  0  0  0  0  0
  150.9449  143.3794  157.8271 H   0  0  0  0  0  0  0  0  0  0  0  0
  152.5509  144.0164  157.4320 H   0  0  0  0  0  0  0  0  0  0  0  0
  151.1670  145.1006  157.5311 H   0  0  0  0  0  0  0  0  0  0  0  0
  152.3031  144.3460  162.1051 H   0  0  0  0  0  0  0  0  0  0  0  0
  153.4238  142.5183  163.3233 H   0  0  0  0  0  0  0  0  0  0  0  0
  154.8970  140.6177  163.1305 H   0  0  0  0  0  0  0  0  0  0  0  0
  155.5992  138.8927  163.7206 H   0  0  0  0  0  0  0  0  0  0  0  0
  155.6970  136.5482  162.0368 H   0  0  0  0  0  0  0  0  0  0  0  0
  156.2444  136.7122  163.6864 H   0  0  0  0  0  0  0  0  0  0  0  0
  153.2761  136.4918  162.9751 H   0  0  0  0  0  0  0  0  0  0  0  0
  154.8061  136.4180  165.5729 H   0  0  0  0  0  0  0  0  0  0  0  0
  153.2673  137.1875  165.2207 H   0  0  0  0  0  0  0  0  0  0  0  0
  153.7210  134.5621  166.3032 H   0  0  0  0  0  0  0  0  0  0  0  0
  152.1572  135.2034  165.8225 H   0  0  0  0  0  0  0  0  0  0  0  0
  153.3417  133.0309  164.5364 H   0  0  0  0  0  0  0  0  0  0  0  0
  152.1940  134.1255  163.7742 H   0  0  0  0  0  0  0  0  0  0  0  0
  155.2284  134.2635  163.6546 H   0  0  0  0  0  0  0  0  0  0  0  0
  153.4263  134.8454  161.5964 H   0  0  0  0  0  0  0  0  0  0  0  0
  153.9925  140.5352  159.5158 H   0  0  0  0  0  0  0  0  0  0  0  0
  1  2  1  0  0  0  0
  1 21  1  0  0  0  0
  1 22  1  0  0  0  0
  1 23  1  0  0  0  0
  2  3  1  0  0  0  0
  2  4  1  0  0  0  0
  3 24  1  0  0  0  0
  3 25  1  0  0  0  0
  3 26  1  0  0  0  0
  4 20  1  0  0  0  0
  4  5  2  0  0  0  0
  5  6  1  0  0  0  0
  5 27  1  0  0  0  0
  6  7  2  0  0  0  0
  6 28  1  0  0  0  0
  7  8  1  0  0  0  0
  7 19  1  0  0  0  0
  8  9  1  0  0  0  0
  8 29  1  0  0  0  0
  9 10  2  0  0  0  0
  9 11  1  0  0  0  0
 11 12  1  0  0  0  0
 11 30  1  0  0  0  0
 12 13  1  0  0  0  0
 12 31  1  0  0  0  0
 12 32  1  0  0  0  0
 13 17  1  0  0  0  0
 13 14  1  0  0  0  0
 13 33  1  0  0  0  0
 14 15  1  0  0  0  0
 14 34  1  0  0  0  0
 14 35  1  0  0  0  0
 15 16  1  0  0  0  0
 15 36  1  0  0  0  0
 15 37  1  0  0  0  0
 16 17  1  0  0  0  0
 16 38  1  0  0  0  0
 16 39  1  0  0  0  0
 17 18  1  0  0  0  0
 17 40  1  0  0  0  0
 18 41  1  0  0  0  0
 19 20  2  0  0  0  0
 19 42  1  0  0  0  0
M  END
> <s_m_source_file>
AV-unprocessed.smi

> <i_m_source_file_index>
694

> <i_lp_mmshare_version>
43012

> <i_f3d_flags>
0

> <s_epik_input>
W0NIM11OKFtDSDNdKWMxW2NIXVtjSF1jKFtjSF1uMSlbTkhdQyg9TylbTkhdW0NIMl1bQ0BASF0yW0NIMl1bQ0gyXVtDSDJdW0NASF0yW09IXQ==

> <s_epik_cmdline>
J2VwaWtfcHl0aG9uJywgJy1waCcsICc3LjAnLCAnLXRuJywgJzgnLCAnLW1hJywgJzIwMCcsICctbWV0YWxfYmluZGluZycsICctaW1hZScsICc8aW5maWxlLm1hZT4nLCAnLW9tYWUnLCAnPG91dGZpbGUubWFlPic=

> <r_lp_tautomer_probability>
1

> <r_epik_Ionization_Penalty>
0.60335

> <r_epik_Ionization_Penalty_Charging>
0

> <r_epik_Ionization_Penalty_Neutral>
0.60335

> <r_epik_State_Penalty>
0.616805

> <r_epik_Charging_Adjusted_Penalty>
0.616805

> <i_epik_Tot_Q>
0

> <i_epik_Tot_abs_Q>
0

> <r_epik_Metal_State_Penalty>
0.301709

> <b_epik_Metal_Only>
0

> <s_lp_Force_Field>
OPLS_2005

> <r_lp_Energy>
26.6001

> <b_lp_Chiralities_Consistent>
1

> <s_lp_Variant>
AV-unprocessed.smi:694-5

> <Gold.Version>
5.8.1

> <Gold.Id.Protein>
6NUR|6NUR_protein|mol2

> <Gold.PLP.Fitness>
46.2818

> <Gold.PLP.PLP>
-47.1425

> <Gold.PLP.part.hbond>
-0.1372

> <Gold.PLP.part.metal>
0.0000

> <Gold.PLP.part.buried>
-5.3081

> <Gold.PLP.part.nonpolar>
-42.0132

> <Gold.PLP.part.repulsive>
0.0000

> <Gold.PLP.ligand.clash>
0.0000

> <Gold.PLP.ligand.torsion>
0.4370

> <Gold.PLP.Chemscore.Hbond>
0.0000

> <Gold.PLP.Chemscore.CHOScore>
0.0000

> <Gold.PLP.Chemscore.Metal>
0.0000

> <Gold.PLP.Chemscore.Internal.Correction>
0.0131

> <Gold.Rescore>
     Score         DG    S(hbond)    S(metal)    S(lipo)     H(rot)  DE(clash)    DE(int)     intcor
     12.39     -13.40       0.00        0.00     105.49       1.73       0.00       1.01       ----

> <Gold.Chemscore.Fitness>
12.3902

> <Gold.Chemscore.DG>
-13.4039

> <Gold.Chemscore.ZeroCoef>
-5.4800

> <Gold.Chemscore.Hbond>
0.0000

> <Gold.Chemscore.Metal>
0.0000

> <Gold.Chemscore.Lipo>
105.4894

> <Gold.Chemscore.Internal_Hbond>
0.0000

> <Gold.Chemscore.DEClash>
0.0015

> <Gold.Chemscore.DEInternal>
1.0122

> <Gold.Chemscore.Rot>
1.7259

> <Gold.Chemscore.Internal.Correction>
   9.000000E+99

> <Gold.Chemscore.Hbond.Weighted>
-0.0000

> <Gold.Chemscore.Metal.Weighted>
-0.0000

> <Gold.Chemscore.Lipo.Weighted>
-12.3423

> <Gold.Chemscore.Internal_Hbond.Weighted>
0.0000

> <Gold.Chemscore.DEClash.Weighted>
0.0015

> <Gold.Chemscore.DEInternal.Weighted>
1.0122

> <Gold.Chemscore.Rot.Weighted>
4.4184

> <Gold.Chemscore.Internal.Correction.Weighted>
   9.000000E+99

> <Gold.Protein.RotatedTorsions>
[ 6907 6896 6895 6894 ] final   54.15 input  -60.11 | X-H torsion
[ 7974 7965 7964 7962 ] final  -64.19 input  175.53 | X-H torsion
[ 8008 7997 7996 7995 ] final  140.06 input   59.86 | X-H torsion
[ 10167 10162 10161 10158 ] final  -49.24 input  -65.29 | X-H torsion
[ 10718 10713 10712 10709 ] final  147.48 input   66.30 | X-H torsion
[ 10763 10752 10751 10750 ] final  128.61 input  -60.55 | X-H torsion
[ 11005 11000 10999 10996 ] final    5.33 input  -57.11 | X-H torsion

> <Gold.Protein.ActiveResidues>
 VAL166  LYS551  ARG553  GLY616  TRP617  ASP618  TYR619  PRO620  LYS621  CYS622 
 ASP623  PHE694  ASN695  SER759  ASP760  ASP761  ALA762  ILE779  LEU786  VAL792 
 PHE793  MET794  SER795  GLU796  ALA797  LYS798  CYS799  TRP800  GLU811  SER814 

> <Gold.Protein.RotatedAtoms>
  152.3410  134.7135  160.0263 H   0  0  0  0  0  0  0  0  0  0  0  0  # atno 6907 bound_to 6896
  151.7520  133.3322  159.3402 H   0  0  0  0  0  0  0  0  0  0  0  0  # atno 6908 bound_to 6896
  150.7479  134.6116  159.6134 H   0  0  0  0  0  0  0  0  0  0  0  0  # atno 6909 bound_to 6896
  145.7697  140.8819  143.0386 H   0  0  0  0  0  0  0  0  0  0  0  0  # atno 7974 bound_to 7965
  156.2983  140.2351  156.4339 H   0  0  0  0  0  0  0  0  0  0  0  0  # atno 8008 bound_to 7997
  154.8245  140.0436  157.1454 H   0  0  0  0  0  0  0  0  0  0  0  0  # atno 8009 bound_to 7997
  154.9277  140.3012  155.5187 H   0  0  0  0  0  0  0  0  0  0  0  0  # atno 8010 bound_to 7997
  140.6694  143.2706  151.4187 H   0  0  0  0  0  0  0  0  0  0  0  0  # atno 10167 bound_to 10162
  157.3205  131.0903  151.1244 H   0  0  0  0  0  0  0  0  0  0  0  0  # atno 10718 bound_to 10713
  153.7284  135.3242  155.3281 H   0  0  0  0  0  0  0  0  0  0  0  0  # atno 10763 bound_to 10752
  154.8334  135.4516  154.1147 H   0  0  0  0  0  0  0  0  0  0  0  0  # atno 10764 bound_to 10752
  153.2287  135.6957  153.7996 H   0  0  0  0  0  0  0  0  0  0  0  0  # atno 10765 bound_to 10752
  140.5719  134.0094  155.8012 H   0  0  0  0  0  0  0  0  0  0  0  0  # atno 11005 bound_to 11000
  144.6815  139.9838  143.7483 LP  0  0  0  0  0  0  0  0  0  0  0  0  # atno 17320 bound_to 7965
  146.0182  139.3228  143.0829 LP  0  0  0  0  0  0  0  0  0  0  0  0  # atno 17321 bound_to 7965
  139.5956  144.1405  152.2139 LP  0  0  0  0  0  0  0  0  0  0  0  0  # atno 17342 bound_to 10162
  140.0773  144.5730  150.7148 LP  0  0  0  0  0  0  0  0  0  0  0  0  # atno 17343 bound_to 10162
  157.2531  130.6623  149.5940 LP  0  0  0  0  0  0  0  0  0  0  0  0  # atno 17370 bound_to 10713
  155.9685  130.4532  150.5803 LP  0  0  0  0  0  0  0  0  0  0  0  0  # atno 17371 bound_to 10713
  141.1050  133.9707  157.3012 LP  0  0  0  0  0  0  0  0  0  0  0  0  # atno 17394 bound_to 11000
  139.9357  135.0196  156.8549 LP  0  0  0  0  0  0  0  0  0  0  0  0  # atno 17395 bound_to 11000

$$$$
