AV-unprocessed.smi:561|AV-procd|sdf|2941|dock3
  -GOLD-   2262023443D 1   1.00000     0.00000
 Structure written by MMmdl.
 36 37  0  0  0  0  0  0  0  0  3 V2000
  154.3151  141.4381  160.7780 C   0  0  0  0  0  0  0  0  0  0  0  0
  152.8627  141.8899  160.5732 C   0  0  1  0  0  0  0  0  0  0  0  0
  152.7315  143.4309  160.6895 C   0  0  0  0  0  0  0  0  0  0  0  0
  151.9885  144.0641  159.5840 N   0  0  0  0  0  0  0  0  0  0  0  0
  152.4391  144.2932  158.3070 C   0  0  0  0  0  0  0  0  0  0  0  0
  151.4105  144.8932  157.6283 C   0  0  0  0  0  0  0  0  0  0  0  0
  150.3794  145.0189  158.5197 N   0  3  0  0  0  0  0  0  0  0  0  0
  150.7339  144.5222  159.7091 C   0  0  0  0  0  0  0  0  0  0  0  0
  152.4125  141.4433  159.2497 N   0  5  0  0  0  0  0  0  0  0  0  0
  152.5780  140.1879  158.7366 C   0  0  0  0  0  0  0  0  0  0  0  0
  153.1878  139.2539  159.2760 O   0  0  0  0  0  0  0  0  0  0  0  0
  151.9548  139.8872  157.4140 C   0  0  0  0  0  0  0  0  0  0  0  0
  152.6604  139.2711  156.5180 N   0  0  0  0  0  0  0  0  0  0  0  0
  152.1634  138.9714  155.2666 N   0  0  0  0  0  0  0  0  0  0  0  0
  153.1656  138.5271  154.3000 C   0  0  0  0  0  0  0  0  0  0  0  0
  150.8536  139.0332  154.9220 C   0  0  0  0  0  0  0  0  0  0  0  0
  150.4283  138.7689  153.7972 O   0  0  0  0  0  0  0  0  0  0  0  0
  149.8741  139.4243  156.0310 C   0  0  0  0  0  0  0  0  0  0  0  0
  150.5296  140.3157  157.1041 C   0  0  0  0  0  0  0  0  0  0  0  0
  154.6854  141.7448  161.7566 H   0  0  0  0  0  0  0  0  0  0  0  0
  154.9774  141.8655  160.0242 H   0  0  0  0  0  0  0  0  0  0  0  0
  154.4015  140.3524  160.7218 H   0  0  0  0  0  0  0  0  0  0  0  0
  152.2733  141.4434  161.3754 H   0  0  0  0  0  0  0  0  0  0  0  0
  152.2203  143.6937  161.6165 H   0  0  0  0  0  0  0  0  0  0  0  0
  153.7169  143.8970  160.7371 H   0  0  0  0  0  0  0  0  0  0  0  0
  153.4285  144.0023  157.9844 H   0  0  0  0  0  0  0  0  0  0  0  0
  151.3373  145.2296  156.6046 H   0  0  0  0  0  0  0  0  0  0  0  0
  150.1231  144.4823  160.5933 H   0  0  0  0  0  0  0  0  0  0  0  0
  152.9732  137.4975  153.9951 H   0  0  0  0  0  0  0  0  0  0  0  0
  154.1761  138.5672  154.7104 H   0  0  0  0  0  0  0  0  0  0  0  0
  153.1482  139.1570  153.4093 H   0  0  0  0  0  0  0  0  0  0  0  0
  149.0025  139.9221  155.6050 H   0  0  0  0  0  0  0  0  0  0  0  0
  149.5162  138.5023  156.4904 H   0  0  0  0  0  0  0  0  0  0  0  0
  149.9058  140.2728  157.9975 H   0  0  0  0  0  0  0  0  0  0  0  0
  150.5300  141.3562  156.7776 H   0  0  0  0  0  0  0  0  0  0  0  0
  149.4754  145.4232  158.3105 H   0  0  0  0  0  0  0  0  0  0  0  0
  1  2  1  0  0  0  0
  1 20  1  0  0  0  0
  1 21  1  0  0  0  0
  1 22  1  0  0  0  0
  2  3  1  0  0  0  0
  2  9  1  0  0  0  0
  2 23  1  0  0  0  0
  3  4  1  0  0  0  0
  3 24  1  0  0  0  0
  3 25  1  0  0  0  0
  4  8  1  0  0  0  0
  4  5  1  0  0  0  0
  5  6  2  0  0  0  0
  5 26  1  0  0  0  0
  6  7  1  0  0  0  0
  6 27  1  0  0  0  0
  7  8  2  0  0  0  0
  7 36  1  0  0  0  0
  8 28  1  0  0  0  0
  9 10  1  0  0  0  0
 10 11  2  0  0  0  0
 10 12  1  0  0  0  0
 12 19  1  0  0  0  0
 12 13  2  0  0  0  0
 13 14  1  0  0  0  0
 14 15  1  0  0  0  0
 14 16  1  0  0  0  0
 15 29  1  0  0  0  0
 15 30  1  0  0  0  0
 15 31  1  0  0  0  0
 16 17  2  0  0  0  0
 16 18  1  0  0  0  0
 18 19  1  0  0  0  0
 18 32  1  0  0  0  0
 18 33  1  0  0  0  0
 19 34  1  0  0  0  0
 19 35  1  0  0  0  0
M  CHG  1   7   1
M  CHG  1   9  -1
M  END
> <s_m_source_file>
AV-unprocessed.smi

> <i_m_source_file_index>
561

> <i_lp_mmshare_version>
43012

> <i_f3d_flags>
0

> <s_epik_input>
W2NIXTFuW2NIXVtjSF1uMVtDSDJdW0NAQEhdKFtDSDNdKVtOSF1DKD1PKUMyPU5OKFtDSDNdKUMoPU8pW0NIMl1bQ0gyXTI=

> <s_epik_cmdline>
J2VwaWtfcHl0aG9uJywgJy1waCcsICc3LjAnLCAnLXRuJywgJzgnLCAnLW1hJywgJzIwMCcsICctbWV0YWxfYmluZGluZycsICctaW1hZScsICc8aW5maWxlLm1hZT4nLCAnLW9tYWUnLCAnPG91dGZpbGUubWFlPic=

> <r_lp_tautomer_probability>
1

> <r_epik_Ionization_Penalty>
5.37239

> <r_epik_Ionization_Penalty_Charging>
5.18263

> <r_epik_Ionization_Penalty_Neutral>
0.189756

> <r_epik_State_Penalty>
5.53772

> <r_epik_Charging_Adjusted_Penalty>
10.7204

> <i_epik_Tot_Q>
0

> <i_epik_Tot_abs_Q>
2

> <r_epik_Metal_State_Penalty>
1.80836

> <b_epik_Metal_Only>
1

> <s_epik_Chemistry_Notes>
This compound has an imine and may undergo hydrolysis.

> <s_lp_Force_Field>
OPLS_2005

> <r_lp_Energy>
21.245

> <b_lp_Chiralities_Consistent>
1

> <s_lp_Variant>
AV-unprocessed.smi:561-6

> <Gold.Version>
5.8.1

> <Gold.Id.Protein>
6NUR|6NUR_protein|mol2

> <Gold.PLP.Fitness>
46.7480

> <Gold.PLP.PLP>
-41.2237

> <Gold.PLP.part.hbond>
-2.4749

> <Gold.PLP.part.metal>
0.0000

> <Gold.PLP.part.buried>
-5.5789

> <Gold.PLP.part.nonpolar>
-34.2942

> <Gold.PLP.part.repulsive>
1.1124

> <Gold.PLP.ligand.clash>
0.0000

> <Gold.PLP.ligand.torsion>
1.7903

> <Gold.PLP.Chemscore.Hbond>
3.0000

> <Gold.PLP.Chemscore.CHOScore>
0.0000

> <Gold.PLP.Chemscore.Metal>
0.0000

> <Gold.Chemscore.Hbonds>
donor molecule, donor type, donor heavy atom, donor atom, acceptor molecule, acceptor atom, score
      L1  H     7    36       P1  8029  2.00
      P1  H  7997  8008       L1    13  1.00

> <Gold.PLP.Chemscore.Internal.Correction>
0.1050

> <Gold.Rescore>
     Score         DG    S(hbond)    S(metal)    S(lipo)     H(rot)  DE(clash)    DE(int)     intcor
     11.23     -14.30       1.12        0.00      81.14       1.73       0.08       2.99       ----

> <Gold.Chemscore.Fitness>
11.2306

> <Gold.Chemscore.DG>
-14.3007

> <Gold.Chemscore.ZeroCoef>
-5.4800

> <Gold.Chemscore.Hbond>
1.1246

> <Gold.Chemscore.Metal>
0.0000

> <Gold.Chemscore.Lipo>
81.1379

> <Gold.Chemscore.Internal_Hbond>
0.0000

> <Gold.Chemscore.DEClash>
0.0796

> <Gold.Chemscore.DEInternal>
2.9904

> <Gold.Chemscore.Rot>
1.7299

> <Gold.Chemscore.Internal.Correction>
   9.000000E+99

> <Gold.Chemscore.Hbonds>
donor molecule, donor type, donor heavy atom, donor atom, acceptor molecule, acceptor atom, score
      L1  H     7    36       P1  8029  0.69
      P1  H  7997  8008       L1    13  0.55

> <Gold.Chemscore.Hbond.Weighted>
-3.7562

> <Gold.Chemscore.Metal.Weighted>
-0.0000

> <Gold.Chemscore.Lipo.Weighted>
-9.4931

> <Gold.Chemscore.Internal_Hbond.Weighted>
0.0000

> <Gold.Chemscore.DEClash.Weighted>
0.0796

> <Gold.Chemscore.DEInternal.Weighted>
2.9904

> <Gold.Chemscore.Rot.Weighted>
4.4286

> <Gold.Chemscore.Internal.Correction.Weighted>
   9.000000E+99

> <Gold.Protein.RotatedTorsions>
[ 6907 6896 6895 6894 ] final  145.52 input  -60.11 | X-H torsion
[ 7974 7965 7964 7962 ] final -176.05 input  175.53 | X-H torsion
[ 8008 7997 7996 7995 ] final  -45.22 input   59.86 | X-H torsion
[ 10167 10162 10161 10158 ] final  -33.78 input  -65.29 | X-H torsion
[ 10718 10713 10712 10709 ] final  -93.88 input   66.30 | X-H torsion
[ 10763 10752 10751 10750 ] final  124.39 input  -60.55 | X-H torsion
[ 11005 11000 10999 10996 ] final  110.56 input  -57.11 | X-H torsion

> <Gold.Protein.ActiveResidues>
 VAL166  LYS551  ARG553  GLY616  TRP617  ASP618  TYR619  PRO620  LYS621  CYS622 
 ASP623  PHE694  ASN695  SER759  ASP760  ASP761  ALA762  ILE779  LEU786  VAL792 
 PHE793  MET794  SER795  GLU796  ALA797  LYS798  CYS799  TRP800  GLU811  SER814 

> <Gold.Protein.RotatedAtoms>
  152.1798  133.4699  159.4951 H   0  0  0  0  0  0  0  0  0  0  0  0  # atno 6907 bound_to 6896
  150.6932  134.1848  159.4271 H   0  0  0  0  0  0  0  0  0  0  0  0  # atno 6908 bound_to 6896
  151.9759  135.0053  160.0605 H   0  0  0  0  0  0  0  0  0  0  0  0  # atno 6909 bound_to 6896
  144.7127  140.1228  143.6404 H   0  0  0  0  0  0  0  0  0  0  0  0  # atno 7974 bound_to 7965
  154.4000  140.1402  156.3811 H   0  0  0  0  0  0  0  0  0  0  0  0  # atno 8008 bound_to 7997
  155.8003  140.3476  155.5378 H   0  0  0  0  0  0  0  0  0  0  0  0  # atno 8009 bound_to 7997
  155.8490  140.0938  157.1677 H   0  0  0  0  0  0  0  0  0  0  0  0  # atno 8010 bound_to 7997
  140.7198  143.3595  151.1992 H   0  0  0  0  0  0  0  0  0  0  0  0  # atno 10167 bound_to 10162
  156.0019  130.5045  150.5842 H   0  0  0  0  0  0  0  0  0  0  0  0  # atno 10718 bound_to 10713
  153.6607  135.3347  155.3126 H   0  0  0  0  0  0  0  0  0  0  0  0  # atno 10763 bound_to 10752
  154.8515  135.4363  154.1808 H   0  0  0  0  0  0  0  0  0  0  0  0  # atno 10764 bound_to 10752
  153.2774  135.7006  153.7495 H   0  0  0  0  0  0  0  0  0  0  0  0  # atno 10765 bound_to 10752
  139.8884  134.9487  156.6298 H   0  0  0  0  0  0  0  0  0  0  0  0  # atno 11005 bound_to 11000
  145.9355  139.2634  143.1299 LP  0  0  0  0  0  0  0  0  0  0  0  0  # atno 17320 bound_to 7965
  145.9478  140.8932  143.0275 LP  0  0  0  0  0  0  0  0  0  0  0  0  # atno 17321 bound_to 7965
  139.7144  143.9325  152.2960 LP  0  0  0  0  0  0  0  0  0  0  0  0  # atno 17342 bound_to 10162
  139.9060  144.6884  150.8613 LP  0  0  0  0  0  0  0  0  0  0  0  0  # atno 17343 bound_to 10162
  157.3717  131.0767  151.1552 LP  0  0  0  0  0  0  0  0  0  0  0  0  # atno 17370 bound_to 10713
  157.2303  130.6522  149.5847 LP  0  0  0  0  0  0  0  0  0  0  0  0  # atno 17371 bound_to 10713
  140.7675  133.8766  155.8466 LP  0  0  0  0  0  0  0  0  0  0  0  0  # atno 17394 bound_to 11000
  140.9870  134.1330  157.4443 LP  0  0  0  0  0  0  0  0  0  0  0  0  # atno 17395 bound_to 11000

$$$$
