AV-unprocessed.smi:1506|AV-procd|sdf|6079|dock9
  -GOLD-   22720 6203D 1   1.00000     0.00000
 Structure written by MMmdl.
 40 42  0  0  0  0  0  0  0  0  2 V2000
  152.9781  142.6461  162.8193 C   0  0  0  0  0  0  0  0  0  0  0  0
  152.4192  143.2452  161.5452 C   0  0  0  0  0  0  0  0  0  0  0  0
  152.0410  144.6017  161.5017 C   0  0  0  0  0  0  0  0  0  0  0  0
  151.5240  145.1483  160.3127 C   0  0  0  0  0  0  0  0  0  0  0  0
  151.3838  144.3444  159.1650 C   0  0  0  0  0  0  0  0  0  0  0  0
  151.7627  142.9783  159.1957 C   0  0  0  0  0  0  0  0  0  0  0  0
  151.6611  142.1211  158.1207 O   0  0  0  0  0  0  0  0  0  0  0  0
  150.9034  142.5422  156.9941 C   0  0  0  0  0  0  0  0  0  0  0  0
  150.3064  141.3092  156.2998 C   0  0  1  0  0  0  0  0  0  0  0  0
  149.6374  141.7366  155.1297 O   0  0  0  0  0  0  0  0  0  0  0  0
  151.3756  140.2557  155.9464 C   0  0  0  0  0  0  0  0  0  0  0  0
  150.7966  139.0207  155.3981 N   0  0  0  0  0  0  0  0  0  0  0  0
  149.9880  138.8498  154.3171 C   0  0  0  0  0  0  0  0  0  0  0  0
  149.7195  137.5191  154.2094 N   0  3  0  0  0  0  0  0  0  0  0  0
  150.3658  136.8284  155.2365 C   0  0  0  0  0  0  0  0  0  0  0  0
  150.3949  135.4712  155.5427 C   0  0  0  0  0  0  0  0  0  0  0  0
  151.1591  135.0918  156.6656 C   0  0  0  0  0  0  0  0  0  0  0  0
  151.8569  136.0451  157.4350 C   0  0  0  0  0  0  0  0  0  0  0  0
  151.8198  137.4186  157.1159 C   0  0  0  0  0  0  0  0  0  0  0  0
  151.0608  137.7866  156.0050 C   0  0  0  0  0  0  0  0  0  0  0  0
  152.2792  142.4434  160.3941 C   0  0  0  0  0  0  0  0  0  0  0  0
  152.7967  143.2963  163.6758 H   0  0  0  0  0  0  0  0  0  0  0  0
  154.0538  142.4970  162.7240 H   0  0  0  0  0  0  0  0  0  0  0  0
  152.5134  141.6811  163.0230 H   0  0  0  0  0  0  0  0  0  0  0  0
  152.1454  145.2263  162.3768 H   0  0  0  0  0  0  0  0  0  0  0  0
  151.2336  146.1881  160.2802 H   0  0  0  0  0  0  0  0  0  0  0  0
  150.9819  144.8007  158.2735 H   0  0  0  0  0  0  0  0  0  0  0  0
  150.0986  143.2002  157.3273 H   0  0  0  0  0  0  0  0  0  0  0  0
  151.5285  143.0986  156.2934 H   0  0  0  0  0  0  0  0  0  0  0  0
  149.5588  140.8599  156.9549 H   0  0  0  0  0  0  0  0  0  0  0  0
  149.2566  142.5854  155.2943 H   0  0  0  0  0  0  0  0  0  0  0  0
  152.1112  140.6541  155.2477 H   0  0  0  0  0  0  0  0  0  0  0  0
  151.9300  139.9751  156.8428 H   0  0  0  0  0  0  0  0  0  0  0  0
  149.6265  139.6292  153.6618 H   0  0  0  0  0  0  0  0  0  0  0  0
  149.8623  134.7387  154.9540 H   0  0  0  0  0  0  0  0  0  0  0  0
  151.2121  134.0484  156.9415 H   0  0  0  0  0  0  0  0  0  0  0  0
  152.4333  135.7162  158.2875 H   0  0  0  0  0  0  0  0  0  0  0  0
  152.3619  138.1378  157.7113 H   0  0  0  0  0  0  0  0  0  0  0  0
  152.5715  141.4039  160.4289 H   0  0  0  0  0  0  0  0  0  0  0  0
  149.1392  137.1148  153.4856 H   0  0  0  0  0  0  0  0  0  0  0  0
  1  2  1  0  0  0  0
  1 22  1  0  0  0  0
  1 23  1  0  0  0  0
  1 24  1  0  0  0  0
  2 21  1  0  0  0  0
  2  3  2  0  0  0  0
  3  4  1  0  0  0  0
  3 25  1  0  0  0  0
  4  5  2  0  0  0  0
  4 26  1  0  0  0  0
  5  6  1  0  0  0  0
  5 27  1  0  0  0  0
  6  7  1  0  0  0  0
  6 21  2  0  0  0  0
  7  8  1  0  0  0  0
  8  9  1  0  0  0  0
  8 28  1  0  0  0  0
  8 29  1  0  0  0  0
  9 10  1  0  0  0  0
  9 11  1  0  0  0  0
  9 30  1  0  0  0  0
 10 31  1  0  0  0  0
 11 12  1  0  0  0  0
 11 32  1  0  0  0  0
 11 33  1  0  0  0  0
 12 20  1  0  0  0  0
 12 13  1  0  0  0  0
 13 14  2  0  0  0  0
 13 34  1  0  0  0  0
 14 15  1  0  0  0  0
 14 40  1  0  0  0  0
 15 20  2  0  0  0  0
 15 16  1  0  0  0  0
 16 17  2  0  0  0  0
 16 35  1  0  0  0  0
 17 18  1  0  0  0  0
 17 36  1  0  0  0  0
 18 19  2  0  0  0  0
 18 37  1  0  0  0  0
 19 20  1  0  0  0  0
 19 38  1  0  0  0  0
 21 39  1  0  0  0  0
M  CHG  1  14   1
M  END
> <s_m_source_file>
AV-unprocessed.smi

> <i_m_source_file_index>
1506

> <i_lp_mmshare_version>
43012

> <i_f3d_flags>
0

> <s_epik_input>
W0NIM11jMVtjSF1bY0hdW2NIXWMoW2NIXTEpT1tDSDJdW0NASF0oW09IXSlbQ0gyXW4oW2NIXW4yKWMoYzIzKVtjSF1bY0hdW2NIXVtjSF0z

> <s_epik_cmdline>
J2VwaWtfcHl0aG9uJywgJy1waCcsICc3LjAnLCAnLXRuJywgJzgnLCAnLW1hJywgJzIwMCcsICctbWV0YWxfYmluZGluZycsICctaW1hZScsICc8aW5maWxlLm1hZT4nLCAnLW9tYWUnLCAnPG91dGZpbGUubWFlPic=

> <r_lp_tautomer_probability>
1

> <r_epik_Ionization_Penalty>
1.37864

> <r_epik_Ionization_Penalty_Charging>
1.37864

> <r_epik_Ionization_Penalty_Neutral>
2.3993e-06

> <r_epik_State_Penalty>
1.45896

> <r_epik_Charging_Adjusted_Penalty>
2.8376

> <i_epik_Tot_Q>
1

> <i_epik_Tot_abs_Q>
1

> <r_epik_Metal_State_Penalty>
5.49899

> <b_epik_Metal_Only>
0

> <s_lp_Force_Field>
OPLS_2005

> <r_lp_Energy>
20.0977

> <b_lp_Chiralities_Consistent>
1

> <s_lp_Variant>
AV-unprocessed.smi:1506-4

> <Gold.Version>
5.8.1

> <Gold.Id.Protein>
6NUR|6NUR_protein|mol2

> <Gold.PLP.Fitness>
59.0400

> <Gold.PLP.PLP>
-47.7102

> <Gold.PLP.part.hbond>
-3.4311

> <Gold.PLP.part.metal>
0.0000

> <Gold.PLP.part.buried>
0.0766

> <Gold.PLP.part.nonpolar>
-43.2944

> <Gold.PLP.part.repulsive>
0.0621

> <Gold.PLP.ligand.clash>
0.0000

> <Gold.PLP.ligand.torsion>
0.3611

> <Gold.PLP.Chemscore.Hbond>
3.0000

> <Gold.PLP.Chemscore.CHOScore>
0.9992

> <Gold.PLP.Chemscore.Metal>
0.0000

> <Gold.Chemscore.Hbonds>
donor molecule, donor type, donor heavy atom, donor atom, acceptor molecule, acceptor atom, score
      L1  H    10    31       P1  8028  0.60
      L1  H    14    40       P1  7948  1.98
      L1  C    13    34       P1  7957  0.99

> <Gold.PLP.Chemscore.Internal.Correction>
0.0543

> <Gold.Rescore>
     Score         DG    S(hbond)    S(metal)    S(lipo)     H(rot)  DE(clash)    DE(int)     intcor
     20.95     -21.54       1.92        0.00     132.16       2.27       0.15       0.45       ----

> <Gold.Chemscore.Fitness>
20.9453

> <Gold.Chemscore.DG>
-21.5398

> <Gold.Chemscore.ZeroCoef>
-5.4800

> <Gold.Chemscore.Hbond>
1.9205

> <Gold.Chemscore.Metal>
0.0000

> <Gold.Chemscore.Lipo>
132.1562

> <Gold.Chemscore.Internal_Hbond>
0.0000

> <Gold.Chemscore.DEClash>
0.1492

> <Gold.Chemscore.DEInternal>
0.4453

> <Gold.Chemscore.Rot>
2.2723

> <Gold.Chemscore.Internal.Correction>
   9.000000E+99

> <Gold.Chemscore.Hbonds>
donor molecule, donor type, donor heavy atom, donor atom, acceptor molecule, acceptor atom, score
      L1  H    10    31       P1  8028  0.60
      L1  H    14    40       P1  7948  0.93

> <Gold.Chemscore.Hbond.Weighted>
-6.4146

> <Gold.Chemscore.Metal.Weighted>
-0.0000

> <Gold.Chemscore.Lipo.Weighted>
-15.4623

> <Gold.Chemscore.Internal_Hbond.Weighted>
0.0000

> <Gold.Chemscore.DEClash.Weighted>
0.1492

> <Gold.Chemscore.DEInternal.Weighted>
0.4453

> <Gold.Chemscore.Rot.Weighted>
5.8170

> <Gold.Chemscore.Internal.Correction.Weighted>
   9.000000E+99

> <Gold.Protein.RotatedTorsions>
[ 6907 6896 6895 6894 ] final  -23.94 input  -60.11 | X-H torsion
[ 7974 7965 7964 7962 ] final -108.62 input  175.53 | X-H torsion
[ 8008 7997 7996 7995 ] final  -52.58 input   59.86 | X-H torsion
[ 10167 10162 10161 10158 ] final  109.77 input  -65.29 | X-H torsion
[ 10718 10713 10712 10709 ] final -147.87 input   66.30 | X-H torsion
[ 10763 10752 10751 10750 ] final   40.63 input  -60.55 | X-H torsion
[ 11005 11000 10999 10996 ] final   -6.13 input  -57.11 | X-H torsion

> <Gold.Protein.ActiveResidues>
 VAL166  LYS551  ARG553  GLY616  TRP617  ASP618  TYR619  PRO620  LYS621  CYS622 
 ASP623  PHE694  ASN695  SER759  ASP760  ASP761  ALA762  ILE779  LEU786  VAL792 
 PHE793  MET794  SER795  GLU796  ALA797  LYS798  CYS799  TRP800  GLU811  SER814 

> <Gold.Protein.RotatedAtoms>
  151.1968  135.0426  159.8855 H   0  0  0  0  0  0  0  0  0  0  0  0  # atno 6907 bound_to 6896
  152.5435  134.0895  159.8280 H   0  0  0  0  0  0  0  0  0  0  0  0  # atno 6908 bound_to 6896
  151.1030  133.5182  159.2641 H   0  0  0  0  0  0  0  0  0  0  0  0  # atno 6909 bound_to 6896
  145.1906  140.9013  143.3427 H   0  0  0  0  0  0  0  0  0  0  0  0  # atno 7974 bound_to 7965
  154.4110  140.1220  156.5015 H   0  0  0  0  0  0  0  0  0  0  0  0  # atno 8008 bound_to 7997
  155.6890  140.3495  155.4866 H   0  0  0  0  0  0  0  0  0  0  0  0  # atno 8009 bound_to 7997
  155.9485  140.1100  157.0986 H   0  0  0  0  0  0  0  0  0  0  0  0  # atno 8010 bound_to 7997
  139.6740  144.7123  151.1636 H   0  0  0  0  0  0  0  0  0  0  0  0  # atno 10167 bound_to 10162
  156.4130  130.7991  151.2209 H   0  0  0  0  0  0  0  0  0  0  0  0  # atno 10718 bound_to 10713
  152.9931  135.6185  154.2657 H   0  0  0  0  0  0  0  0  0  0  0  0  # atno 10763 bound_to 10752
  154.2392  135.2789  155.2862 H   0  0  0  0  0  0  0  0  0  0  0  0  # atno 10764 bound_to 10752
  154.5384  135.5768  153.6876 H   0  0  0  0  0  0  0  0  0  0  0  0  # atno 10765 bound_to 10752
  140.6986  133.9009  155.8667 H   0  0  0  0  0  0  0  0  0  0  0  0  # atno 11005 bound_to 11000
  145.0045  139.3567  143.6151 LP  0  0  0  0  0  0  0  0  0  0  0  0  # atno 17320 bound_to 7965
  146.3437  139.9282  142.8757 LP  0  0  0  0  0  0  0  0  0  0  0  0  # atno 17321 bound_to 7965
  140.7628  143.5800  150.8905 LP  0  0  0  0  0  0  0  0  0  0  0  0  # atno 17342 bound_to 10162
  139.9468  143.6318  152.3039 LP  0  0  0  0  0  0  0  0  0  0  0  0  # atno 17343 bound_to 10162
  157.7507  131.0252  150.3907 LP  0  0  0  0  0  0  0  0  0  0  0  0  # atno 17370 bound_to 10713
  156.4209  130.3953  149.6825 LP  0  0  0  0  0  0  0  0  0  0  0  0  # atno 17371 bound_to 10713
  141.0182  134.0926  157.4149 LP  0  0  0  0  0  0  0  0  0  0  0  0  # atno 17394 bound_to 11000
  139.8903  135.0111  156.6728 LP  0  0  0  0  0  0  0  0  0  0  0  0  # atno 17395 bound_to 11000

$$$$
