AV-unprocessed.smi:101|AV-procd|sdf|920|dock4
  -GOLD-   2262017423D 1   1.00000     0.00000
 Structure written by MMmdl.
 44 46  0  0  0  0  0  0  0  0  1 V2000
  146.6979  142.8915  157.6800 C   0  0  0  0  0  0  0  0  0  0  0  0
  146.7979  142.1442  156.3601 C   0  0  0  0  0  0  0  0  0  0  0  0
  147.9541  141.5750  155.9328 C   0  0  0  0  0  0  0  0  0  0  0  0
  148.0781  140.8889  154.7299 N   0  0  0  0  0  0  0  0  0  0  0  0
  149.3886  140.2754  154.2664 C   0  0  1  0  0  0  0  0  0  0  0  0
  150.4182  140.6578  155.1296 O   0  0  0  0  0  0  0  0  0  0  0  0
  150.7772  139.5628  155.9646 C   0  0  2  0  0  0  0  0  0  0  0  0
  152.1652  139.7716  156.5833 C   0  0  0  0  0  0  0  0  0  0  0  0
  152.0718  140.8405  157.5098 O   0  0  0  0  0  0  0  0  0  0  0  0
  152.8492  140.8639  158.6073 C   0  0  0  0  0  0  0  0  0  0  0  0
  153.6705  139.9870  158.8826 O   0  0  0  0  0  0  0  0  0  0  0  0
  152.6116  142.0694  159.4533 C   0  0  0  0  0  0  0  0  0  0  0  0
  152.1912  143.2744  158.8433 C   0  0  0  0  0  0  0  0  0  0  0  0
  151.9581  144.4271  159.6186 C   0  0  0  0  0  0  0  0  0  0  0  0
  152.1437  144.3894  161.0129 C   0  0  0  0  0  0  0  0  0  0  0  0
  152.5618  143.1970  161.6318 C   0  0  0  0  0  0  0  0  0  0  0  0
  152.7942  142.0430  160.8586 C   0  0  0  0  0  0  0  0  0  0  0  0
  150.6218  138.3608  155.0315 C   0  0  2  0  0  0  0  0  0  0  0  0
  151.7447  138.2373  154.1779 O   0  0  0  0  0  0  0  0  0  0  0  0
  149.3710  138.7236  154.2381 C   0  0  1  0  0  0  0  0  0  0  0  0
  148.2360  138.1498  154.8645 O   0  0  0  0  0  0  0  0  0  0  0  0
  146.9547  140.7744  153.8854 C   0  0  0  0  0  0  0  0  0  0  0  0
  146.9928  140.1838  152.8065 O   0  0  0  0  0  0  0  0  0  0  0  0
  145.7671  141.3559  154.3243 N   0  0  0  0  0  0  0  0  0  0  0  0
  145.5964  142.0461  155.5266 C   0  0  0  0  0  0  0  0  0  0  0  0
  144.4943  142.5144  155.8068 O   0  0  0  0  0  0  0  0  0  0  0  0
  144.9610  141.2724  153.7222 H   0  0  0  0  0  0  0  0  0  0  0  0
  147.6540  142.9210  158.2040 H   0  0  0  0  0  0  0  0  0  0  0  0
  145.9718  142.4100  158.3358 H   0  0  0  0  0  0  0  0  0  0  0  0
  146.3787  143.9205  157.5120 H   0  0  0  0  0  0  0  0  0  0  0  0
  148.8152  141.6761  156.5752 H   0  0  0  0  0  0  0  0  0  0  0  0
  149.5939  140.7240  153.2925 H   0  0  0  0  0  0  0  0  0  0  0  0
  150.0387  139.4650  156.7624 H   0  0  0  0  0  0  0  0  0  0  0  0
  152.4832  138.8714  157.1107 H   0  0  0  0  0  0  0  0  0  0  0  0
  152.9049  139.9866  155.8107 H   0  0  0  0  0  0  0  0  0  0  0  0
  152.0416  143.3272  157.7744 H   0  0  0  0  0  0  0  0  0  0  0  0
  151.6364  145.3413  159.1421 H   0  0  0  0  0  0  0  0  0  0  0  0
  151.9658  145.2738  161.6069 H   0  0  0  0  0  0  0  0  0  0  0  0
  152.7052  143.1665  162.7019 H   0  0  0  0  0  0  0  0  0  0  0  0
  153.1142  141.1449  161.3666 H   0  0  0  0  0  0  0  0  0  0  0  0
  150.5149  137.4263  155.5844 H   0  0  0  0  0  0  0  0  0  0  0  0
  151.5509  137.5902  153.5169 H   0  0  0  0  0  0  0  0  0  0  0  0
  149.4125  138.3701  153.2068 H   0  0  0  0  0  0  0  0  0  0  0  0
  148.2206  137.2264  154.6631 H   0  0  0  0  0  0  0  0  0  0  0  0
  1  2  1  0  0  0  0
  1 28  1  0  0  0  0
  1 29  1  0  0  0  0
  1 30  1  0  0  0  0
  2 25  1  0  0  0  0
  2  3  2  0  0  0  0
  3  4  1  0  0  0  0
  3 31  1  0  0  0  0
  4  5  1  0  0  0  0
  4 22  1  0  0  0  0
  5 20  1  0  0  0  0
  5  6  1  0  0  0  0
  5 32  1  0  0  0  0
  6  7  1  0  0  0  0
  7  8  1  0  0  0  0
  7 18  1  0  0  0  0
  7 33  1  0  0  0  0
  8  9  1  0  0  0  0
  8 34  1  0  0  0  0
  8 35  1  0  0  0  0
  9 10  1  0  0  0  0
 10 11  2  0  0  0  0
 10 12  1  0  0  0  0
 12 17  1  0  0  0  0
 12 13  2  0  0  0  0
 13 14  1  0  0  0  0
 13 36  1  0  0  0  0
 14 15  2  0  0  0  0
 14 37  1  0  0  0  0
 15 16  1  0  0  0  0
 15 38  1  0  0  0  0
 16 17  2  0  0  0  0
 16 39  1  0  0  0  0
 17 40  1  0  0  0  0
 18 19  1  0  0  0  0
 18 20  1  0  0  0  0
 18 41  1  0  0  0  0
 19 42  1  0  0  0  0
 20 21  1  0  0  0  0
 20 43  1  0  0  0  0
 21 44  1  0  0  0  0
 22 23  2  0  0  0  0
 22 24  1  0  0  0  0
 24 27  1  0  0  0  0
 24 25  1  0  0  0  0
 25 26  2  0  0  0  0
M  END
> <s_m_source_file>
AV-unprocessed.smi

> <i_m_source_file_index>
101

> <i_lp_mmshare_version>
43012

> <i_f3d_flags>
0

> <s_epik_input>
Tz1jMVtuSF1jKD1PKW4oW2NIXWMxW0NIM10pW0NAQEhdMk9bQ0BIXShbQ0BASF0oW09IXSlbQ0BIXTJbT0hdKVtDSDJdT0MoPU8pYzNbY0hdW2NIXVtjSF1bY0hdW2NIXTM=

> <s_epik_cmdline>
J2VwaWtfcHl0aG9uJywgJy1waCcsICc3LjAnLCAnLXRuJywgJzgnLCAnLW1hJywgJzIwMCcsICctbWV0YWxfYmluZGluZycsICctaW1hZScsICc8aW5maWxlLm1hZT4nLCAnLW9tYWUnLCAnPG91dGZpbGUubWFlPic=

> <r_lp_tautomer_probability>
0.999537

> <r_epik_Ionization_Penalty>
0.00263537

> <r_epik_Ionization_Penalty_Charging>
0.00263428

> <r_epik_Ionization_Penalty_Neutral>
1.09111e-06

> <r_epik_State_Penalty>
0.00183335

> <r_epik_Charging_Adjusted_Penalty>
0.00446763

> <i_epik_Tot_Q>
0

> <i_epik_Tot_abs_Q>
0

> <r_epik_Metal_State_Penalty>
1.00528

> <b_epik_Metal_Only>
0

> <s_epik_Chemistry_Notes>
This compound has an ester and may undergo hydrolysis at high or low pH. This compound contains an acetal/aminal-like group ( X-CH(R)-Y where X, Y are N, S, or O) that may be acid/base labile, releasing an aldehyde.

> <s_lp_Force_Field>
OPLS_2005

> <r_lp_Energy>
36.6069

> <b_lp_Chiralities_Consistent>
1

> <s_lp_Variant>
AV-unprocessed.smi:101-8

> <Gold.Version>
5.8.1

> <Gold.Id.Protein>
6NUR|6NUR_protein|mol2

> <Gold.PLP.Fitness>
51.1596

> <Gold.PLP.PLP>
-45.3453

> <Gold.PLP.part.hbond>
-3.0000

> <Gold.PLP.part.metal>
0.0000

> <Gold.PLP.part.buried>
-3.4675

> <Gold.PLP.part.nonpolar>
-38.2682

> <Gold.PLP.part.repulsive>
0.7566

> <Gold.PLP.ligand.clash>
0.0000

> <Gold.PLP.ligand.torsion>
0.7352

> <Gold.PLP.Chemscore.Hbond>
2.4068

> <Gold.PLP.Chemscore.CHOScore>
0.0000

> <Gold.PLP.Chemscore.Metal>
0.0000

> <Gold.Chemscore.Hbonds>
donor molecule, donor type, donor heavy atom, donor atom, acceptor molecule, acceptor atom, score
      L1  H    24    27       P1 10175  1.00
      P1  H  7989  7998       L1     6  0.40
      P1  H  7997  8010       L1    11  1.00

> <Gold.PLP.Chemscore.Internal.Correction>
0.0643

> <Gold.Rescore>
     Score         DG    S(hbond)    S(metal)    S(lipo)     H(rot)  DE(clash)    DE(int)     intcor
     13.10     -14.04       1.60        0.00     100.12       3.32       0.16       0.78       ----

> <Gold.Chemscore.Fitness>
13.0981

> <Gold.Chemscore.DG>
-14.0379

> <Gold.Chemscore.ZeroCoef>
-5.4800

> <Gold.Chemscore.Hbond>
1.5974

> <Gold.Chemscore.Metal>
0.0000

> <Gold.Chemscore.Lipo>
100.1241

> <Gold.Chemscore.Internal_Hbond>
0.0000

> <Gold.Chemscore.DEClash>
0.1551

> <Gold.Chemscore.DEInternal>
0.7848

> <Gold.Chemscore.Rot>
3.3172

> <Gold.Chemscore.Internal.Correction>
   9.000000E+99

> <Gold.Chemscore.Hbonds>
donor molecule, donor type, donor heavy atom, donor atom, acceptor molecule, acceptor atom, score
      L1  H    24    27       P1 10175  0.39
      P1  H  7989  7998       L1     6  0.01
      P1  H  7997  8010       L1    11  0.31

> <Gold.Chemscore.Hbond.Weighted>
-5.3354

> <Gold.Chemscore.Metal.Weighted>
-0.0000

> <Gold.Chemscore.Lipo.Weighted>
-11.7145

> <Gold.Chemscore.Internal_Hbond.Weighted>
0.0000

> <Gold.Chemscore.DEClash.Weighted>
0.1551

> <Gold.Chemscore.DEInternal.Weighted>
0.7848

> <Gold.Chemscore.Rot.Weighted>
8.4920

> <Gold.Chemscore.Internal.Correction.Weighted>
   9.000000E+99

> <Gold.Protein.RotatedTorsions>
[ 6907 6896 6895 6894 ] final -140.27 input  -60.11 | X-H torsion
[ 7974 7965 7964 7962 ] final -179.22 input  175.53 | X-H torsion
[ 8008 7997 7996 7995 ] final   13.38 input   59.86 | X-H torsion
[ 10167 10162 10161 10158 ] final  -31.50 input  -65.29 | X-H torsion
[ 10718 10713 10712 10709 ] final  -25.72 input   66.30 | X-H torsion
[ 10763 10752 10751 10750 ] final  172.72 input  -60.55 | X-H torsion
[ 11005 11000 10999 10996 ] final -153.60 input  -57.11 | X-H torsion

> <Gold.Protein.ActiveResidues>
 VAL166  LYS551  ARG553  GLY616  TRP617  ASP618  TYR619  PRO620  LYS621  CYS622 
 ASP623  PHE694  ASN695  SER759  ASP760  ASP761  ALA762  ILE779  LEU786  VAL792 
 PHE793  MET794  SER795  GLU796  ALA797  LYS798  CYS799  TRP800  GLU811  SER814 

> <Gold.Protein.RotatedAtoms>
  151.0585  133.5564  159.2636 H   0  0  0  0  0  0  0  0  0  0  0  0  # atno 6907 bound_to 6896
  151.2548  135.0633  159.9085 H   0  0  0  0  0  0  0  0  0  0  0  0  # atno 6908 bound_to 6896
  152.5394  134.0340  159.8091 H   0  0  0  0  0  0  0  0  0  0  0  0  # atno 6909 bound_to 6896
  144.7135  140.0750  143.6428 H   0  0  0  0  0  0  0  0  0  0  0  0  # atno 7974 bound_to 7965
  154.8336  140.2903  155.5706 H   0  0  0  0  0  0  0  0  0  0  0  0  # atno 8008 bound_to 7997
  156.3007  140.2527  156.3197 H   0  0  0  0  0  0  0  0  0  0  0  0  # atno 8009 bound_to 7997
  154.9204  140.0386  157.1984 H   0  0  0  0  0  0  0  0  0  0  0  0  # atno 8010 bound_to 7997
  140.7235  143.3766  151.1678 H   0  0  0  0  0  0  0  0  0  0  0  0  # atno 10167 bound_to 10162
  156.4606  130.4503  149.6931 H   0  0  0  0  0  0  0  0  0  0  0  0  # atno 10718 bound_to 10713
  154.4301  135.2759  155.1918 H   0  0  0  0  0  0  0  0  0  0  0  0  # atno 10763 bound_to 10752
  154.3828  135.6084  153.5803 H   0  0  0  0  0  0  0  0  0  0  0  0  # atno 10764 bound_to 10752
  152.9836  135.5884  154.4611 H   0  0  0  0  0  0  0  0  0  0  0  0  # atno 10765 bound_to 10752
  140.7064  134.3881  157.5203 H   0  0  0  0  0  0  0  0  0  0  0  0  # atno 11005 bound_to 11000
  145.9751  139.2898  143.1075 LP  0  0  0  0  0  0  0  0  0  0  0  0  # atno 17320 bound_to 7965
  145.9073  140.9203  143.0472 LP  0  0  0  0  0  0  0  0  0  0  0  0  # atno 17321 bound_to 7965
  139.7347  143.9017  152.3031 LP  0  0  0  0  0  0  0  0  0  0  0  0  # atno 17342 bound_to 10162
  139.8818  144.7013  150.8869 LP  0  0  0  0  0  0  0  0  0  0  0  0  # atno 17343 bound_to 10162
  156.3720  130.7535  151.2519 LP  0  0  0  0  0  0  0  0  0  0  0  0  # atno 17370 bound_to 10713
  157.7498  131.0320  150.4208 LP  0  0  0  0  0  0  0  0  0  0  0  0  # atno 17371 bound_to 10713
  139.8883  134.8860  156.2481 LP  0  0  0  0  0  0  0  0  0  0  0  0  # atno 17394 bound_to 11000
  141.0121  133.7090  156.1128 LP  0  0  0  0  0  0  0  0  0  0  0  0  # atno 17395 bound_to 11000

$$$$
