AV-unprocessed.smi:2413|AV-procd|sdf|9537|dock10
  -GOLD-   2272013173D 1   1.00000     0.00000
 Structure written by MMmdl.
 46 47  0  0  0  0  0  0  0  0  2 V2000
  147.6020  146.1177  160.9590 C   0  0  0  0  0  0  0  0  0  0  0  0
  147.5760  144.6252  160.6455 C   0  0  0  0  0  0  0  0  0  0  0  0
  147.6469  143.8055  161.5604 O   0  0  0  0  0  0  0  0  0  0  0  0
  147.4696  144.2850  159.3522 N   0  0  0  0  0  0  0  0  0  0  0  0
  147.4205  142.9178  158.8435 C   0  0  0  0  0  0  0  0  0  0  0  0
  146.9135  142.8439  157.3912 C   0  0  1  0  0  0  0  0  0  0  0  0
  147.4507  141.6178  156.6217 C   0  0  0  0  0  0  0  0  0  0  0  0
  146.8533  141.5607  155.2942 N   0  0  0  0  0  0  0  0  0  0  0  0
  147.3868  140.5506  154.4850 C   0  0  0  0  0  0  0  0  0  0  0  0
  146.9307  140.3133  153.1742 C   0  0  0  0  0  0  0  0  0  0  0  0
  147.5547  139.2695  152.4680 C   0  0  0  0  0  0  0  0  0  0  0  0
  148.5438  138.5453  153.0460 N   0  3  0  0  0  0  0  0  0  0  0  0
  148.9371  138.8211  154.3027 C   0  0  0  0  0  0  0  0  0  0  0  0
  150.0564  137.9707  154.9228 C   0  0  0  0  0  0  0  0  0  0  0  0
  149.6699  136.4742  155.0055 C   0  0  0  0  0  0  0  0  0  0  0  0
  150.3386  138.4523  156.3604 C   0  0  0  0  0  0  0  0  0  0  0  0
  151.3279  138.0745  154.0574 C   0  0  0  0  0  0  0  0  0  0  0  0
  148.3712  139.8033  155.0220 N   0  0  0  0  0  0  0  0  0  0  0  0
  145.3972  141.5726  155.3323 C   0  0  0  0  0  0  0  0  0  0  0  0
  144.9056  142.7908  156.1312 C   0  0  0  0  0  0  0  0  0  0  0  0
  145.4894  142.7725  157.4308 O   0  0  0  0  0  0  0  0  0  0  0  0
  147.6755  146.7174  160.0508 H   0  0  0  0  0  0  0  0  0  0  0  0
  148.4570  146.3543  161.5924 H   0  0  0  0  0  0  0  0  0  0  0  0
  146.6931  146.4061  161.4872 H   0  0  0  0  0  0  0  0  0  0  0  0
  147.4246  145.0275  158.6693 H   0  0  0  0  0  0  0  0  0  0  0  0
  148.4252  142.4989  158.9061 H   0  0  0  0  0  0  0  0  0  0  0  0
  146.7920  142.3061  159.4929 H   0  0  0  0  0  0  0  0  0  0  0  0
  147.2023  143.7574  156.8681 H   0  0  0  0  0  0  0  0  0  0  0  0
  148.5358  141.6753  156.5266 H   0  0  0  0  0  0  0  0  0  0  0  0
  147.2221  140.7028  157.1701 H   0  0  0  0  0  0  0  0  0  0  0  0
  146.1415  140.9001  152.7271 H   0  0  0  0  0  0  0  0  0  0  0  0
  147.2954  138.9895  151.4573 H   0  0  0  0  0  0  0  0  0  0  0  0
  150.4716  135.8822  155.4489 H   0  0  0  0  0  0  0  0  0  0  0  0
  149.4703  136.0533  154.0191 H   0  0  0  0  0  0  0  0  0  0  0  0
  148.7810  136.3201  155.6189 H   0  0  0  0  0  0  0  0  0  0  0  0
  149.4455  138.3845  156.9828 H   0  0  0  0  0  0  0  0  0  0  0  0
  150.6755  139.4892  156.3812 H   0  0  0  0  0  0  0  0  0  0  0  0
  151.1157  137.8523  156.8351 H   0  0  0  0  0  0  0  0  0  0  0  0
  152.1349  137.4624  154.4623 H   0  0  0  0  0  0  0  0  0  0  0  0
  151.6971  139.0991  154.0031 H   0  0  0  0  0  0  0  0  0  0  0  0
  151.1406  137.7379  153.0371 H   0  0  0  0  0  0  0  0  0  0  0  0
  144.9998  141.6046  154.3170 H   0  0  0  0  0  0  0  0  0  0  0  0
  145.0301  140.6558  155.7953 H   0  0  0  0  0  0  0  0  0  0  0  0
  145.1580  143.7212  155.6198 H   0  0  0  0  0  0  0  0  0  0  0  0
  143.8202  142.7639  156.2283 H   0  0  0  0  0  0  0  0  0  0  0  0
  148.9867  137.7913  152.5200 H   0  0  0  0  0  0  0  0  0  0  0  0
  1  2  1  0  0  0  0
  1 22  1  0  0  0  0
  1 23  1  0  0  0  0
  1 24  1  0  0  0  0
  2  3  2  0  0  0  0
  2  4  1  0  0  0  0
  4  5  1  0  0  0  0
  4 25  1  0  0  0  0
  5  6  1  0  0  0  0
  5 26  1  0  0  0  0
  5 27  1  0  0  0  0
  6 21  1  0  0  0  0
  6  7  1  0  0  0  0
  6 28  1  0  0  0  0
  7  8  1  0  0  0  0
  7 29  1  0  0  0  0
  7 30  1  0  0  0  0
  8  9  1  0  0  0  0
  8 19  1  0  0  0  0
  9 18  1  0  0  0  0
  9 10  2  0  0  0  0
 10 11  1  0  0  0  0
 10 31  1  0  0  0  0
 11 12  2  0  0  0  0
 11 32  1  0  0  0  0
 12 13  1  0  0  0  0
 12 46  1  0  0  0  0
 13 14  1  0  0  0  0
 13 18  2  0  0  0  0
 14 15  1  0  0  0  0
 14 16  1  0  0  0  0
 14 17  1  0  0  0  0
 15 33  1  0  0  0  0
 15 34  1  0  0  0  0
 15 35  1  0  0  0  0
 16 36  1  0  0  0  0
 16 37  1  0  0  0  0
 16 38  1  0  0  0  0
 17 39  1  0  0  0  0
 17 40  1  0  0  0  0
 17 41  1  0  0  0  0
 19 20  1  0  0  0  0
 19 42  1  0  0  0  0
 19 43  1  0  0  0  0
 20 21  1  0  0  0  0
 20 44  1  0  0  0  0
 20 45  1  0  0  0  0
M  CHG  1  12   1
M  END
> <s_m_source_file>
AV-unprocessed.smi

> <i_m_source_file_index>
2413

> <i_lp_mmshare_version>
43012

> <i_f3d_flags>
0

> <s_epik_input>
W0NIM11DKD1PKVtOSF1bQ0gyXVtDQEBIXTFbQ0gyXU4oW0NIMl1bQ0gyXU8xKWMyW2NIXVtjSF1uYyhuMilDKFtDSDNdKShbQ0gzXSlbQ0gzXQ==

> <s_epik_cmdline>
J2VwaWtfcHl0aG9uJywgJy1waCcsICc3LjAnLCAnLXRuJywgJzgnLCAnLW1hJywgJzIwMCcsICctbWV0YWxfYmluZGluZycsICctaW1hZScsICc8aW5maWxlLm1hZT4nLCAnLW9tYWUnLCAnPG91dGZpbGUubWFlPic=

> <r_lp_tautomer_probability>
0.999336

> <r_epik_Ionization_Penalty>
2.26127

> <r_epik_Ionization_Penalty_Charging>
2.26127

> <r_epik_Ionization_Penalty_Neutral>
4.08984e-07

> <r_epik_State_Penalty>
2.40914

> <r_epik_Charging_Adjusted_Penalty>
4.67041

> <i_epik_Tot_Q>
1

> <i_epik_Tot_abs_Q>
1

> <r_epik_Metal_State_Penalty>
2.42208

> <b_epik_Metal_Only>
0

> <s_lp_Force_Field>
OPLS_2005

> <r_lp_Energy>
19.627

> <b_lp_Chiralities_Consistent>
1

> <s_lp_Variant>
AV-unprocessed.smi:2413-4

> <Gold.Version>
5.8.1

> <Gold.Id.Protein>
6NUR|6NUR_protein|mol2

> <Gold.PLP.Fitness>
36.6838

> <Gold.PLP.PLP>
-25.6584

> <Gold.PLP.part.hbond>
-4.0000

> <Gold.PLP.part.metal>
0.0000

> <Gold.PLP.part.buried>
0.5096

> <Gold.PLP.part.nonpolar>
-21.8809

> <Gold.PLP.part.repulsive>
0.5015

> <Gold.PLP.ligand.clash>
0.0000

> <Gold.PLP.ligand.torsion>
0.5470

> <Gold.PLP.Chemscore.Hbond>
4.0000

> <Gold.PLP.Chemscore.CHOScore>
0.0000

> <Gold.PLP.Chemscore.Metal>
0.0000

> <Gold.Chemscore.Hbonds>
donor molecule, donor type, donor heavy atom, donor atom, acceptor molecule, acceptor atom, score
      L1  H     4    25       P1  8029  1.00
      L1  H    12    46       P1  7948  2.00
      P1  H  6933  6944       L1     3  1.00

> <Gold.PLP.Chemscore.Internal.Correction>
0.1193

> <Gold.Rescore>
     Score         DG    S(hbond)    S(metal)    S(lipo)     H(rot)  DE(clash)    DE(int)     intcor
     15.07     -17.20       2.95        0.00      54.61       1.77       1.52       0.61       ----

> <Gold.Chemscore.Fitness>
15.0746

> <Gold.Chemscore.DG>
-17.1989

> <Gold.Chemscore.ZeroCoef>
-5.4800

> <Gold.Chemscore.Hbond>
2.9537

> <Gold.Chemscore.Metal>
0.0000

> <Gold.Chemscore.Lipo>
54.6123

> <Gold.Chemscore.Internal_Hbond>
0.0000

> <Gold.Chemscore.DEClash>
1.5162

> <Gold.Chemscore.DEInternal>
0.6081

> <Gold.Chemscore.Rot>
1.7719

> <Gold.Chemscore.Internal.Correction>
   9.000000E+99

> <Gold.Chemscore.Hbonds>
donor molecule, donor type, donor heavy atom, donor atom, acceptor molecule, acceptor atom, score
      L1  H     4    25       P1  8029  0.99
      L1  H    12    46       P1  7948  0.96
      P1  H  6933  6944       L1     3  0.99

> <Gold.Chemscore.Hbond.Weighted>
-9.8654

> <Gold.Chemscore.Metal.Weighted>
-0.0000

> <Gold.Chemscore.Lipo.Weighted>
-6.3896

> <Gold.Chemscore.Internal_Hbond.Weighted>
0.0000

> <Gold.Chemscore.DEClash.Weighted>
1.5162

> <Gold.Chemscore.DEInternal.Weighted>
0.6081

> <Gold.Chemscore.Rot.Weighted>
4.5361

> <Gold.Chemscore.Internal.Correction.Weighted>
   9.000000E+99

> <Gold.Protein.RotatedTorsions>
[ 6907 6896 6895 6894 ] final   -1.23 input  -60.11 | X-H torsion
[ 7974 7965 7964 7962 ] final -157.82 input  175.53 | X-H torsion
[ 8008 7997 7996 7995 ] final  -12.33 input   59.86 | X-H torsion
[ 10167 10162 10161 10158 ] final  111.94 input  -65.29 | X-H torsion
[ 10718 10713 10712 10709 ] final  122.19 input   66.30 | X-H torsion
[ 10763 10752 10751 10750 ] final   76.48 input  -60.55 | X-H torsion
[ 11005 11000 10999 10996 ] final    9.73 input  -57.11 | X-H torsion

> <Gold.Protein.ActiveResidues>
 VAL166  LYS551  ARG553  GLY616  TRP617  ASP618  TYR619  PRO620  LYS621  CYS622 
 ASP623  PHE694  ASN695  SER759  ASP760  ASP761  ALA762  ILE779  LEU786  VAL792 
 PHE793  MET794  SER795  GLU796  ALA797  LYS798  CYS799  TRP800  GLU811  SER814 

> <Gold.Protein.RotatedAtoms>
  151.5494  135.1067  159.9945 H   0  0  0  0  0  0  0  0  0  0  0  0  # atno 6907 bound_to 6896
  152.4498  133.7603  159.6754 H   0  0  0  0  0  0  0  0  0  0  0  0  # atno 6908 bound_to 6896
  150.8424  133.7848  159.3080 H   0  0  0  0  0  0  0  0  0  0  0  0  # atno 6909 bound_to 6896
  144.7532  140.3915  143.6032 H   0  0  0  0  0  0  0  0  0  0  0  0  # atno 7974 bound_to 7965
  154.5386  140.2279  155.8679 H   0  0  0  0  0  0  0  0  0  0  0  0  # atno 8008 bound_to 7997
  156.1836  140.3094  155.9158 H   0  0  0  0  0  0  0  0  0  0  0  0  # atno 8009 bound_to 7997
  155.3303  140.0445  157.3033 H   0  0  0  0  0  0  0  0  0  0  0  0  # atno 8010 bound_to 7997
  139.6573  144.7129  151.1933 H   0  0  0  0  0  0  0  0  0  0  0  0  # atno 10167 bound_to 10162
  157.5761  131.1079  150.8276 H   0  0  0  0  0  0  0  0  0  0  0  0  # atno 10718 bound_to 10713
  153.0728  135.4950  154.8342 H   0  0  0  0  0  0  0  0  0  0  0  0  # atno 10763 bound_to 10752
  154.7046  135.3008  154.9291 H   0  0  0  0  0  0  0  0  0  0  0  0  # atno 10764 bound_to 10752
  154.0004  135.6767  153.4812 H   0  0  0  0  0  0  0  0  0  0  0  0  # atno 10765 bound_to 10752
  140.5224  134.0546  155.7849 H   0  0  0  0  0  0  0  0  0  0  0  0  # atno 11005 bound_to 11000
  145.6872  139.1631  143.2667 LP  0  0  0  0  0  0  0  0  0  0  0  0  # atno 17320 bound_to 7965
  146.1509  140.6927  142.9323 LP  0  0  0  0  0  0  0  0  0  0  0  0  # atno 17321 bound_to 7965
  140.7565  143.6052  150.8660 LP  0  0  0  0  0  0  0  0  0  0  0  0  # atno 17342 bound_to 10162
  139.9706  143.6061  152.2975 LP  0  0  0  0  0  0  0  0  0  0  0  0  # atno 17343 bound_to 10162
  156.8735  130.5154  149.5295 LP  0  0  0  0  0  0  0  0  0  0  0  0  # atno 17370 bound_to 10713
  156.0806  130.5817  150.9555 LP  0  0  0  0  0  0  0  0  0  0  0  0  # atno 17371 bound_to 10713
  141.1327  133.9275  157.2502 LP  0  0  0  0  0  0  0  0  0  0  0  0  # atno 17394 bound_to 11000
  139.9598  135.0157  156.9230 LP  0  0  0  0  0  0  0  0  0  0  0  0  # atno 17395 bound_to 11000

$$$$
