AV-unprocessed.smi:2523|AV-procd|sdf|9920|dock5
  -GOLD-   2272013553D 1   1.00000     0.00000
 Structure written by MMmdl.
 34 36  0  0  0  0  0  0  0  0  1 V2000
  146.9701  142.1324  154.5468 C   0  0  0  0  0  0  0  0  0  0  0  0
  147.9630  141.0660  154.4394 N   0  0  0  0  0  0  0  0  0  0  0  0
  147.6399  140.0536  153.5283 N   0  0  0  0  0  0  0  0  0  0  0  0
  148.4301  139.0446  153.3343 C   0  0  0  0  0  0  0  0  0  0  0  0
  149.6751  138.9861  154.0939 C   0  0  0  0  0  0  0  0  0  0  0  0
  150.7667  138.0783  154.1717 C   0  0  0  0  0  0  0  0  0  0  0  0
  151.6880  138.4790  155.0458 N   0  0  0  0  0  0  0  0  0  0  0  0
  151.2278  139.6500  155.5569 N   0  0  0  0  0  0  0  0  0  0  0  0
  152.0122  140.3515  156.5616 C   0  0  0  0  0  0  0  0  0  0  0  0
  151.4578  140.1623  157.9885 C   0  0  2  0  0  0  0  0  0  0  0  0
  150.0436  140.2048  157.9754 O   0  0  0  0  0  0  0  0  0  0  0  0
  152.0457  141.1825  158.9502 C   0  0  0  0  0  0  0  0  0  0  0  0
  152.8827  140.7616  160.0058 C   0  0  0  0  0  0  0  0  0  0  0  0
  153.4316  141.7059  160.8952 C   0  0  0  0  0  0  0  0  0  0  0  0
  153.1494  143.0756  160.7324 C   0  0  0  0  0  0  0  0  0  0  0  0
  152.3172  143.5020  159.6792 C   0  0  0  0  0  0  0  0  0  0  0  0
  151.9728  145.1804  159.4766 Cl  0  0  0  0  0  0  0  0  0  0  0  0
  151.7664  142.5577  158.7908 C   0  0  0  0  0  0  0  0  0  0  0  0
  150.0104  139.9556  154.9806 C   0  0  0  0  0  0  0  0  0  0  0  0
  149.1006  141.1066  155.1968 C   0  0  0  0  0  0  0  0  0  0  0  0
  149.3659  142.0070  155.9931 O   0  0  0  0  0  0  0  0  0  0  0  0
  147.4124  143.0963  154.2912 H   0  0  0  0  0  0  0  0  0  0  0  0
  146.5816  142.1935  155.5644 H   0  0  0  0  0  0  0  0  0  0  0  0
  146.1226  141.9712  153.8787 H   0  0  0  0  0  0  0  0  0  0  0  0
  148.1769  138.2573  152.6244 H   0  0  0  0  0  0  0  0  0  0  0  0
  150.9193  137.1545  153.6336 H   0  0  0  0  0  0  0  0  0  0  0  0
  153.0377  139.9820  156.5124 H   0  0  0  0  0  0  0  0  0  0  0  0
  152.0633  141.4078  156.3002 H   0  0  0  0  0  0  0  0  0  0  0  0
  151.7330  139.1654  158.3355 H   0  0  0  0  0  0  0  0  0  0  0  0
  149.7716  141.1096  157.9600 H   0  0  0  0  0  0  0  0  0  0  0  0
  153.1077  139.7134  160.1381 H   0  0  0  0  0  0  0  0  0  0  0  0
  154.0704  141.3795  161.7025 H   0  0  0  0  0  0  0  0  0  0  0  0
  153.5727  143.7979  161.4149 H   0  0  0  0  0  0  0  0  0  0  0  0
  151.1302  142.8901  157.9833 H   0  0  0  0  0  0  0  0  0  0  0  0
  1  2  1  0  0  0  0
  1 22  1  0  0  0  0
  1 23  1  0  0  0  0
  1 24  1  0  0  0  0
  2 20  1  0  0  0  0
  2  3  1  0  0  0  0
  3  4  2  0  0  0  0
  4  5  1  0  0  0  0
  4 25  1  0  0  0  0
  5 19  2  0  0  0  0
  5  6  1  0  0  0  0
  6  7  2  0  0  0  0
  6 26  1  0  0  0  0
  7  8  1  0  0  0  0
  8  9  1  0  0  0  0
  8 19  1  0  0  0  0
  9 10  1  0  0  0  0
  9 27  1  0  0  0  0
  9 28  1  0  0  0  0
 10 11  1  0  0  0  0
 10 12  1  0  0  0  0
 10 29  1  0  0  0  0
 11 30  1  0  0  0  0
 12 18  1  0  0  0  0
 12 13  2  0  0  0  0
 13 14  1  0  0  0  0
 13 31  1  0  0  0  0
 14 15  2  0  0  0  0
 14 32  1  0  0  0  0
 15 16  1  0  0  0  0
 15 33  1  0  0  0  0
 16 17  1  0  0  0  0
 16 18  2  0  0  0  0
 18 34  1  0  0  0  0
 19 20  1  0  0  0  0
 20 21  2  0  0  0  0
M  END
> <s_m_source_file>
AV-unprocessed.smi

> <i_m_source_file_index>
2523

> <i_lp_mmshare_version>
43012

> <i_f3d_flags>
0

> <s_epik_input>
W2NIXTFubihbQ0gzXSljKD1PKWMoYzEyKW4obltjSF0yKVtDSDJdW0NASF0oW09IXSljM1tjSF1bY0hdW2NIXWMoQ2wpW2NIXTM=

> <s_epik_cmdline>
J2VwaWtfcHl0aG9uJywgJy1waCcsICc3LjAnLCAnLXRuJywgJzgnLCAnLW1hJywgJzIwMCcsICctbWV0YWxfYmluZGluZycsICctaW1hZScsICc8aW5maWxlLm1hZT4nLCAnLW9tYWUnLCAnPG91dGZpbGUubWFlPic=

> <r_lp_tautomer_probability>
1

> <r_epik_Ionization_Penalty>
8.52698e-06

> <r_epik_Ionization_Penalty_Charging>
1.65421e-10

> <r_epik_Ionization_Penalty_Neutral>
8.52681e-06

> <r_epik_State_Penalty>
-0

> <r_epik_Charging_Adjusted_Penalty>
1.65421e-10

> <i_epik_Tot_Q>
0

> <i_epik_Tot_abs_Q>
0

> <r_epik_Metal_State_Penalty>
-0

> <b_epik_Metal_Only>
0

> <s_lp_Force_Field>
OPLS_2005

> <r_lp_Energy>
27.0285

> <b_lp_Chiralities_Consistent>
1

> <s_lp_Variant>
AV-unprocessed.smi:2523-1

> <Gold.Version>
5.8.1

> <Gold.Id.Protein>
6NUR|6NUR_protein|mol2

> <Gold.PLP.Fitness>
46.8885

> <Gold.PLP.PLP>
-41.4241

> <Gold.PLP.part.hbond>
0.0000

> <Gold.PLP.part.metal>
0.0000

> <Gold.PLP.part.buried>
-1.8053

> <Gold.PLP.part.nonpolar>
-42.0906

> <Gold.PLP.part.repulsive>
3.1755

> <Gold.PLP.ligand.clash>
0.0000

> <Gold.PLP.ligand.torsion>
0.4129

> <Gold.PLP.Chemscore.Hbond>
0.0000

> <Gold.PLP.Chemscore.CHOScore>
2.0892

> <Gold.PLP.Chemscore.Metal>
0.0000

> <Gold.Chemscore.Hbonds>
donor molecule, donor type, donor heavy atom, donor atom, acceptor molecule, acceptor atom, score
      L1  C     4    25       P1  7948  1.00
      L1  C     6    26       P1  7948  0.11
      L1  C     6    26       P1  7949  0.98

> <Gold.PLP.Chemscore.Internal.Correction>
0.0226

> <Gold.Rescore>
     Score         DG    S(hbond)    S(metal)    S(lipo)     H(rot)  DE(clash)    DE(int)     intcor
     12.82     -13.58       0.00        0.00     111.39       1.93       0.24       0.52       ----

> <Gold.Chemscore.Fitness>
12.8181

> <Gold.Chemscore.DG>
-13.5804

> <Gold.Chemscore.ZeroCoef>
-5.4800

> <Gold.Chemscore.Hbond>
0.0000

> <Gold.Chemscore.Metal>
0.0000

> <Gold.Chemscore.Lipo>
111.3858

> <Gold.Chemscore.Internal_Hbond>
0.0000

> <Gold.Chemscore.DEClash>
0.2408

> <Gold.Chemscore.DEInternal>
0.5214

> <Gold.Chemscore.Rot>
1.9265

> <Gold.Chemscore.Internal.Correction>
   9.000000E+99

> <Gold.Chemscore.Hbond.Weighted>
-0.0000

> <Gold.Chemscore.Metal.Weighted>
-0.0000

> <Gold.Chemscore.Lipo.Weighted>
-13.0321

> <Gold.Chemscore.Internal_Hbond.Weighted>
0.0000

> <Gold.Chemscore.DEClash.Weighted>
0.2408

> <Gold.Chemscore.DEInternal.Weighted>
0.5214

> <Gold.Chemscore.Rot.Weighted>
4.9317

> <Gold.Chemscore.Internal.Correction.Weighted>
   9.000000E+99

> <Gold.Protein.RotatedTorsions>
[ 6907 6896 6895 6894 ] final  -12.03 input  -60.11 | X-H torsion
[ 7974 7965 7964 7962 ] final  -14.66 input  175.53 | X-H torsion
[ 8008 7997 7996 7995 ] final   44.61 input   59.86 | X-H torsion
[ 10167 10162 10161 10158 ] final  -63.10 input  -65.29 | X-H torsion
[ 10718 10713 10712 10709 ] final  -70.45 input   66.30 | X-H torsion
[ 10763 10752 10751 10750 ] final  118.75 input  -60.55 | X-H torsion
[ 11005 11000 10999 10996 ] final  -72.82 input  -57.11 | X-H torsion

> <Gold.Protein.ActiveResidues>
 VAL166  LYS551  ARG553  GLY616  TRP617  ASP618  TYR619  PRO620  LYS621  CYS622 
 ASP623  PHE694  ASN695  SER759  ASP760  ASP761  ALA762  ILE779  LEU786  VAL792 
 PHE793  MET794  SER795  GLU796  ALA797  LYS798  CYS799  TRP800  GLU811  SER814 

> <Gold.Protein.RotatedAtoms>
  151.3770  135.0933  159.9483 H   0  0  0  0  0  0  0  0  0  0  0  0  # atno 6907 bound_to 6896
  152.5119  133.9109  159.7498 H   0  0  0  0  0  0  0  0  0  0  0  0  # atno 6908 bound_to 6896
  150.9535  133.6468  159.2796 H   0  0  0  0  0  0  0  0  0  0  0  0  # atno 6909 bound_to 6896
  146.2065  140.3380  142.8405 H   0  0  0  0  0  0  0  0  0  0  0  0  # atno 7974 bound_to 7965
  155.3221  140.3397  155.4241 H   0  0  0  0  0  0  0  0  0  0  0  0  # atno 8008 bound_to 7997
  156.1904  140.1695  156.8141 H   0  0  0  0  0  0  0  0  0  0  0  0  # atno 8009 bound_to 7997
  154.5435  140.0720  156.8533 H   0  0  0  0  0  0  0  0  0  0  0  0  # atno 8010 bound_to 7997
  140.5894  143.2339  151.6172 H   0  0  0  0  0  0  0  0  0  0  0  0  # atno 10167 bound_to 10162
  156.0407  130.4331  150.2297 H   0  0  0  0  0  0  0  0  0  0  0  0  # atno 10718 bound_to 10713
  153.5724  135.3499  155.2843 H   0  0  0  0  0  0  0  0  0  0  0  0  # atno 10763 bound_to 10752
  154.8680  135.4162  154.2710 H   0  0  0  0  0  0  0  0  0  0  0  0  # atno 10764 bound_to 10752
  153.3479  135.7053  153.6883 H   0  0  0  0  0  0  0  0  0  0  0  0  # atno 10765 bound_to 10752
  141.1614  133.6859  156.7118 H   0  0  0  0  0  0  0  0  0  0  0  0  # atno 11005 bound_to 11000
  144.8805  140.7394  143.5989 LP  0  0  0  0  0  0  0  0  0  0  0  0  # atno 17320 bound_to 7965
  145.3301  139.1762  143.4541 LP  0  0  0  0  0  0  0  0  0  0  0  0  # atno 17321 bound_to 7965
  139.5218  144.3182  152.0934 LP  0  0  0  0  0  0  0  0  0  0  0  0  # atno 17342 bound_to 10162
  140.2344  144.4335  150.6286 LP  0  0  0  0  0  0  0  0  0  0  0  0  # atno 17343 bound_to 10162
  157.0392  131.0030  151.3289 LP  0  0  0  0  0  0  0  0  0  0  0  0  # atno 17370 bound_to 10713
  157.5222  130.8005  149.7821 LP  0  0  0  0  0  0  0  0  0  0  0  0  # atno 17371 bound_to 10713
  140.2882  134.8262  157.3993 LP  0  0  0  0  0  0  0  0  0  0  0  0  # atno 17394 bound_to 11000
  140.1371  134.5020  155.8060 LP  0  0  0  0  0  0  0  0  0  0  0  0  # atno 17395 bound_to 11000

$$$$
