AV-unprocessed.smi:157|AV-procd|sdf|1307|dock4
  -GOLD-   2262018593D 1   1.00000     0.00000
 Structure written by MMmdl.
 36 38  0  0  0  0  0  0  0  0  2 V2000
  149.7534  138.4861  153.2824 O   0  0  0  0  0  0  0  0  0  0  0  0
  150.1431  137.6577  154.3570 C   0  0  0  0  0  0  0  0  0  0  0  0
  151.4370  138.1916  154.9909 C   0  0  1  0  0  0  0  0  0  0  0  0
  151.2970  139.5881  155.2309 O   0  0  0  0  0  0  0  0  0  0  0  0
  152.1091  139.9119  156.3042 C   0  0  1  0  0  0  0  0  0  0  0  0
  151.6525  141.2167  156.8712 N   0  0  0  0  0  0  0  0  0  0  0  0
  150.7652  142.0513  156.2923 C   0  0  0  0  0  0  0  0  0  0  0  0
  150.5065  143.1436  156.9911 N   0  3  0  0  0  0  0  0  0  0  0  0
  151.2625  143.0605  158.1411 C   0  0  0  0  0  0  0  0  0  0  0  0
  151.9733  141.8609  158.0470 C   0  0  0  0  0  0  0  0  0  0  0  0
  152.8897  141.2905  158.9452 N   0  0  0  0  0  0  0  0  0  0  0  0
  153.4555  141.9605  159.8956 C   0  0  0  0  0  0  0  0  0  0  0  0
  153.2367  143.2701  160.2890 N   0  0  0  0  0  0  0  0  0  0  0  0
  151.9085  143.8241  160.4820 C   0  0  0  0  0  0  0  0  0  0  0  0
  151.1771  144.1436  159.1713 C   0  0  1  0  0  0  0  0  0  0  0  0
  151.6382  145.3886  158.6886 O   0  0  0  0  0  0  0  0  0  0  0  0
  151.9370  138.7742  157.3013 C   0  0  0  0  0  0  0  0  0  0  0  0
  151.7382  137.5794  156.3780 C   0  0  2  0  0  0  0  0  0  0  0  0
  152.9161  136.7986  156.3312 O   0  0  0  0  0  0  0  0  0  0  0  0
  152.2867  138.0373  154.3221 H   0  0  0  0  0  0  0  0  0  0  0  0
  153.1415  140.0596  155.9818 H   0  0  0  0  0  0  0  0  0  0  0  0
  150.1230  144.2885  159.4105 H   0  0  0  0  0  0  0  0  0  0  0  0
  150.9177  136.9585  156.7407 H   0  0  0  0  0  0  0  0  0  0  0  0
  149.4249  137.9401  152.5846 H   0  0  0  0  0  0  0  0  0  0  0  0
  149.3414  137.5836  155.0927 H   0  0  0  0  0  0  0  0  0  0  0  0
  150.3075  136.6583  153.9530 H   0  0  0  0  0  0  0  0  0  0  0  0
  150.3077  141.8409  155.3421 H   0  0  0  0  0  0  0  0  0  0  0  0
  154.2133  141.4699  160.5081 H   0  0  0  0  0  0  0  0  0  0  0  0
  153.9129  143.7120  160.8958 H   0  0  0  0  0  0  0  0  0  0  0  0
  151.3271  143.0884  161.0398 H   0  0  0  0  0  0  0  0  0  0  0  0
  151.9673  144.7073  161.1193 H   0  0  0  0  0  0  0  0  0  0  0  0
  152.1388  145.8121  159.3687 H   0  0  0  0  0  0  0  0  0  0  0  0
  152.7971  138.7014  157.9684 H   0  0  0  0  0  0  0  0  0  0  0  0
  151.0400  138.9358  157.8999 H   0  0  0  0  0  0  0  0  0  0  0  0
  153.3947  136.9241  157.1363 H   0  0  0  0  0  0  0  0  0  0  0  0
  149.8691  143.8859  156.7321 H   0  0  0  0  0  0  0  0  0  0  0  0
  1  2  1  0  0  0  0
  1 24  1  0  0  0  0
  2  3  1  0  0  0  0
  2 25  1  0  0  0  0
  2 26  1  0  0  0  0
  3 20  1  0  0  0  0
  3 18  1  0  0  0  0
  3  4  1  0  0  0  0
  4  5  1  0  0  0  0
  5 21  1  0  0  0  0
  5  6  1  0  0  0  0
  5 17  1  0  0  0  0
  6 10  1  0  0  0  0
  6  7  1  0  0  0  0
  7  8  2  0  0  0  0
  7 27  1  0  0  0  0
  8  9  1  0  0  0  0
  8 36  1  0  0  0  0
  9 15  1  0  0  0  0
  9 10  2  0  0  0  0
 10 11  1  0  0  0  0
 11 12  2  0  0  0  0
 12 13  1  0  0  0  0
 12 28  1  0  0  0  0
 13 14  1  0  0  0  0
 13 29  1  0  0  0  0
 14 15  1  0  0  0  0
 14 30  1  0  0  0  0
 14 31  1  0  0  0  0
 15 22  1  0  0  0  0
 15 16  1  0  0  0  0
 16 32  1  0  0  0  0
 17 18  1  0  0  0  0
 17 33  1  0  0  0  0
 17 34  1  0  0  0  0
 18 23  1  0  0  0  0
 18 19  1  0  0  0  0
 19 35  1  0  0  0  0
M  CHG  1   8   1
M  END
> <s_m_source_file>
AV-unprocessed.smi

> <i_m_source_file_index>
157

> <i_lp_mmshare_version>
43012

> <i_f3d_flags>
0

> <s_epik_input>
W09IXVtDSDJdW0NASF0xT1tDQEhdKFtDSDJdW0NAQEhdMVtPSF0pbihbY0hdbjIpYyhjMjMpTj1bQ0hdW05IXVtDSDJdW0NASF0zW09IXQ==

> <s_epik_cmdline>
J2VwaWtfcHl0aG9uJywgJy1waCcsICc3LjAnLCAnLXRuJywgJzgnLCAnLW1hJywgJzIwMCcsICctbWV0YWxfYmluZGluZycsICctaW1hZScsICc8aW5maWxlLm1hZT4nLCAnLW9tYWUnLCAnPG91dGZpbGUubWFlPic=

> <r_epik_Ionization_Penalty>
1.68594

> <r_epik_Ionization_Penalty_Charging>
0

> <r_epik_Ionization_Penalty_Neutral>
1.68594

> <r_epik_State_Penalty>
1.79006

> <r_epik_Charging_Adjusted_Penalty>
1.79006

> <i_epik_Tot_Q>
1

> <i_epik_Tot_abs_Q>
1

> <r_epik_Metal_State_Penalty>
5.85324

> <b_epik_Metal_Only>
0

> <s_epik_Chemistry_Notes>
This compound has an imine and may undergo hydrolysis. This compound contains an acetal/aminal-like group ( X-CH(R)-Y where X, Y are N, S, or O) that may be acid/base labile, releasing an aldehyde.

> <s_lp_Force_Field>
OPLS_2005

> <r_lp_Energy>
53.8219

> <b_lp_Chiralities_Consistent>
1

> <s_lp_Variant>
AV-unprocessed.smi:157-17

> <Gold.Version>
5.8.1

> <Gold.Id.Protein>
6NUR|6NUR_protein|mol2

> <Gold.PLP.Fitness>
45.4573

> <Gold.PLP.PLP>
-32.2430

> <Gold.PLP.part.hbond>
-5.0281

> <Gold.PLP.part.metal>
0.0000

> <Gold.PLP.part.buried>
-3.7154

> <Gold.PLP.part.nonpolar>
-22.6350

> <Gold.PLP.part.repulsive>
0.0700

> <Gold.PLP.ligand.clash>
0.0000

> <Gold.PLP.ligand.torsion>
0.2585

> <Gold.PLP.Chemscore.Hbond>
4.5700

> <Gold.PLP.Chemscore.CHOScore>
0.0000

> <Gold.PLP.Chemscore.Metal>
0.0000

> <Gold.Chemscore.Hbonds>
donor molecule, donor type, donor heavy atom, donor atom, acceptor molecule, acceptor atom, score
      L1  H     1    24       P1  7948  1.00
      L1  H     8    36       P1  8028  2.00
      P1  H  7989  7998       L1     4  0.63
      P1  H 10752 10764       L1    19  0.86

> <Gold.PLP.Chemscore.Internal.Correction>
0.0214

> <Gold.Rescore>
     Score         DG    S(hbond)    S(metal)    S(lipo)     H(rot)  DE(clash)    DE(int)     intcor
     12.58     -13.02       3.13        0.00      55.35       3.67       0.15       0.28       ----

> <Gold.Chemscore.Fitness>
12.5813

> <Gold.Chemscore.DG>
-13.0156

> <Gold.Chemscore.ZeroCoef>
-5.4800

> <Gold.Chemscore.Hbond>
3.1270

> <Gold.Chemscore.Metal>
0.0000

> <Gold.Chemscore.Lipo>
55.3516

> <Gold.Chemscore.Internal_Hbond>
0.0000

> <Gold.Chemscore.DEClash>
0.1512

> <Gold.Chemscore.DEInternal>
0.2831

> <Gold.Chemscore.Rot>
3.6659

> <Gold.Chemscore.Internal.Correction>
   9.000000E+99

> <Gold.Chemscore.Hbonds>
donor molecule, donor type, donor heavy atom, donor atom, acceptor molecule, acceptor atom, score
      L1  H     1    24       P1  7948  0.75
      L1  H     8    36       P1  8028  0.97
      P1  H  7989  7998       L1     4  0.48
      P1  H 10752 10764       L1    19  0.85

> <Gold.Chemscore.Hbond.Weighted>
-10.4442

> <Gold.Chemscore.Metal.Weighted>
-0.0000

> <Gold.Chemscore.Lipo.Weighted>
-6.4761

> <Gold.Chemscore.Internal_Hbond.Weighted>
0.0000

> <Gold.Chemscore.DEClash.Weighted>
0.1512

> <Gold.Chemscore.DEInternal.Weighted>
0.2831

> <Gold.Chemscore.Rot.Weighted>
9.3848

> <Gold.Chemscore.Internal.Correction.Weighted>
   9.000000E+99

> <Gold.Protein.RotatedTorsions>
[ 6907 6896 6895 6894 ] final -168.73 input  -60.11 | X-H torsion
[ 7974 7965 7964 7962 ] final   11.25 input  175.53 | X-H torsion
[ 8008 7997 7996 7995 ] final -134.87 input   59.86 | X-H torsion
[ 10167 10162 10161 10158 ] final -172.84 input  -65.29 | X-H torsion
[ 10718 10713 10712 10709 ] final   91.23 input   66.30 | X-H torsion
[ 10763 10752 10751 10750 ] final  -15.66 input  -60.55 | X-H torsion
[ 11005 11000 10999 10996 ] final   54.85 input  -57.11 | X-H torsion

> <Gold.Protein.ActiveResidues>
 VAL166  LYS551  ARG553  GLY616  TRP617  ASP618  TYR619  PRO620  LYS621  CYS622 
 ASP623  PHE694  ASN695  SER759  ASP760  ASP761  ALA762  ILE779  LEU786  VAL792 
 PHE793  MET794  SER795  GLU796  ALA797  LYS798  CYS799  TRP800  GLU811  SER814 

> <Gold.Protein.RotatedAtoms>
  151.4803  133.3548  159.2836 H   0  0  0  0  0  0  0  0  0  0  0  0  # atno 6907 bound_to 6896
  150.8901  134.8306  159.7298 H   0  0  0  0  0  0  0  0  0  0  0  0  # atno 6908 bound_to 6896
  152.4818  134.4712  159.9688 H   0  0  0  0  0  0  0  0  0  0  0  0  # atno 6909 bound_to 6896
  146.2374  139.9514  142.8470 H   0  0  0  0  0  0  0  0  0  0  0  0  # atno 7974 bound_to 7965
  155.3693  140.0487  157.3045 H   0  0  0  0  0  0  0  0  0  0  0  0  # atno 8008 bound_to 7997
  154.5138  140.2201  155.9068 H   0  0  0  0  0  0  0  0  0  0  0  0  # atno 8009 bound_to 7997
  156.1613  140.3116  155.8818 H   0  0  0  0  0  0  0  0  0  0  0  0  # atno 8010 bound_to 7997
  139.5722  144.1616  152.1399 H   0  0  0  0  0  0  0  0  0  0  0  0  # atno 10167 bound_to 10162
  157.6960  131.0399  150.3697 H   0  0  0  0  0  0  0  0  0  0  0  0  # atno 10718 bound_to 10713
  153.5468  135.7012  153.5610 H   0  0  0  0  0  0  0  0  0  0  0  0  # atno 10763 bound_to 10752
  153.3552  135.3984  155.1676 H   0  0  0  0  0  0  0  0  0  0  0  0  # atno 10764 bound_to 10752
  154.8666  135.3775  154.4976 H   0  0  0  0  0  0  0  0  0  0  0  0  # atno 10765 bound_to 10752
  140.0654  134.5544  155.9105 H   0  0  0  0  0  0  0  0  0  0  0  0  # atno 11005 bound_to 11000
  145.1858  140.9788  143.4240 LP  0  0  0  0  0  0  0  0  0  0  0  0  # atno 17320 bound_to 7965
  144.9901  139.3698  143.6219 LP  0  0  0  0  0  0  0  0  0  0  0  0  # atno 17321 bound_to 7965
  140.1151  144.5423  150.6899 LP  0  0  0  0  0  0  0  0  0  0  0  0  # atno 17342 bound_to 10162
  140.7006  143.2432  151.4876 LP  0  0  0  0  0  0  0  0  0  0  0  0  # atno 17343 bound_to 10162
  156.4124  130.3936  149.6882 LP  0  0  0  0  0  0  0  0  0  0  0  0  # atno 17370 bound_to 10713
  156.4162  130.7746  151.2761 LP  0  0  0  0  0  0  0  0  0  0  0  0  # atno 17371 bound_to 10713
  141.1990  133.6604  156.5823 LP  0  0  0  0  0  0  0  0  0  0  0  0  # atno 17394 bound_to 11000
  140.3707  134.7608  157.4597 LP  0  0  0  0  0  0  0  0  0  0  0  0  # atno 17395 bound_to 11000

$$$$
