AV-unprocessed.smi:371|AV-procd|sdf|2441|dock1
  -GOLD-   2262022383D 1   1.00000     0.00000
 Structure written by MMmdl.
 39 40  0  0  0  0  0  0  0  0  1 V2000
  148.4179  137.3886  153.2718 C   0  0  0  0  0  0  0  0  0  0  0  0
  148.9887  138.6127  153.9777 C   0  0  0  0  0  0  0  0  0  0  0  0
  150.2306  138.4590  154.6990 C   0  0  0  0  0  0  0  0  0  0  0  0
  150.7629  139.4786  155.3913 C   0  0  0  0  0  0  0  0  0  0  0  0
  152.0672  139.2986  156.1602 C   0  0  0  0  0  0  0  0  0  0  0  0
  150.1245  140.7496  155.4103 N   0  0  0  0  0  0  0  0  0  0  0  0
  150.7202  141.8574  156.1955 C   0  0  0  0  0  0  0  0  0  0  0  0
  150.6918  141.5772  157.7173 C   0  0  2  0  0  0  0  0  0  0  0  0
  149.3621  141.3022  158.1128 O   0  0  0  0  0  0  0  0  0  0  0  0
  151.2547  142.7553  158.5025 C   0  0  0  0  0  0  0  0  0  0  0  0
  150.6624  144.0328  158.3810 C   0  0  0  0  0  0  0  0  0  0  0  0
  151.1755  145.1287  159.1012 C   0  0  0  0  0  0  0  0  0  0  0  0
  152.2867  144.9564  159.9474 C   0  0  0  0  0  0  0  0  0  0  0  0
  152.8846  143.6880  160.0711 C   0  0  0  0  0  0  0  0  0  0  0  0
  152.3727  142.5897  159.3527 C   0  0  0  0  0  0  0  0  0  0  0  0
  152.9629  141.3780  159.4888 F   0  0  0  0  0  0  0  0  0  0  0  0
  148.9701  140.9944  154.7106 C   0  0  0  0  0  0  0  0  0  0  0  0
  148.4881  142.1314  154.6826 O   0  0  0  0  0  0  0  0  0  0  0  0
  148.3781  139.8284  153.9979 C   0  0  0  0  0  0  0  0  0  0  0  0
  147.1051  140.0638  153.2875 C   0  0  0  0  0  0  0  0  0  0  0  0
  146.3251  141.0179  153.8142 N   0  0  0  0  0  0  0  0  0  0  0  0
  146.7043  139.4075  152.3275 O   0  0  0  0  0  0  0  0  0  0  0  0
  148.9688  136.4866  153.5395 H   0  0  0  0  0  0  0  0  0  0  0  0
  148.4817  137.5061  152.1898 H   0  0  0  0  0  0  0  0  0  0  0  0
  147.3754  137.2265  153.5473 H   0  0  0  0  0  0  0  0  0  0  0  0
  150.7340  137.5029  154.6895 H   0  0  0  0  0  0  0  0  0  0  0  0
  152.3215  138.2417  156.2454 H   0  0  0  0  0  0  0  0  0  0  0  0
  152.0077  139.6876  157.1747 H   0  0  0  0  0  0  0  0  0  0  0  0
  152.8884  139.7904  155.6384 H   0  0  0  0  0  0  0  0  0  0  0  0
  151.7475  142.0191  155.8727 H   0  0  0  0  0  0  0  0  0  0  0  0
  150.2596  142.8236  155.9807 H   0  0  0  0  0  0  0  0  0  0  0  0
  151.2787  140.6865  157.9409 H   0  0  0  0  0  0  0  0  0  0  0  0
  148.7909  141.4682  157.3784 H   0  0  0  0  0  0  0  0  0  0  0  0
  149.8104  144.1760  157.7326 H   0  0  0  0  0  0  0  0  0  0  0  0
  150.7161  146.1014  159.0042 H   0  0  0  0  0  0  0  0  0  0  0  0
  152.6805  145.7961  160.5009 H   0  0  0  0  0  0  0  0  0  0  0  0
  153.7381  143.5564  160.7197 H   0  0  0  0  0  0  0  0  0  0  0  0
  145.4285  141.2233  153.3973 H   0  0  0  0  0  0  0  0  0  0  0  0
  146.6281  141.5142  154.6394 H   0  0  0  0  0  0  0  0  0  0  0  0
  1  2  1  0  0  0  0
  1 23  1  0  0  0  0
  1 24  1  0  0  0  0
  1 25  1  0  0  0  0
  2 19  2  0  0  0  0
  2  3  1  0  0  0  0
  3  4  2  0  0  0  0
  3 26  1  0  0  0  0
  4  5  1  0  0  0  0
  4  6  1  0  0  0  0
  5 27  1  0  0  0  0
  5 28  1  0  0  0  0
  5 29  1  0  0  0  0
  6  7  1  0  0  0  0
  6 17  1  0  0  0  0
  7  8  1  0  0  0  0
  7 30  1  0  0  0  0
  7 31  1  0  0  0  0
  8  9  1  0  0  0  0
  8 10  1  0  0  0  0
  8 32  1  0  0  0  0
  9 33  1  0  0  0  0
 10 15  1  0  0  0  0
 10 11  2  0  0  0  0
 11 12  1  0  0  0  0
 11 34  1  0  0  0  0
 12 13  2  0  0  0  0
 12 35  1  0  0  0  0
 13 14  1  0  0  0  0
 13 36  1  0  0  0  0
 14 15  2  0  0  0  0
 14 37  1  0  0  0  0
 15 16  1  0  0  0  0
 17 18  2  0  0  0  0
 17 19  1  0  0  0  0
 19 20  1  0  0  0  0
 20 21  1  0  0  0  0
 20 22  2  0  0  0  0
 21 38  1  0  0  0  0
 21 39  1  0  0  0  0
M  END
> <s_m_source_file>
AV-unprocessed.smi

> <i_m_source_file_index>
371

> <i_lp_mmshare_version>
43012

> <i_f3d_flags>
0

> <s_epik_input>
W0NIM11jMVtjSF1jKFtDSDNdKW4oYyg9TyljMUMoPU8pW05IMl0pW0NIMl1bQ0BIXShbT0hdKWMyW2NIXVtjSF1bY0hdW2NIXWMyRg==

> <s_epik_cmdline>
J2VwaWtfcHl0aG9uJywgJy1waCcsICc3LjAnLCAnLXRuJywgJzgnLCAnLW1hJywgJzIwMCcsICctbWV0YWxfYmluZGluZycsICctaW1hZScsICc8aW5maWxlLm1hZT4nLCAnLW9tYWUnLCAnPG91dGZpbGUubWFlPic=

> <r_lp_tautomer_probability>
1

> <r_epik_Ionization_Penalty>
3.46512e-07

> <r_epik_Ionization_Penalty_Charging>
1.35363e-07

> <r_epik_Ionization_Penalty_Neutral>
2.11149e-07

> <r_epik_State_Penalty>
-0

> <r_epik_Charging_Adjusted_Penalty>
1.35363e-07

> <i_epik_Tot_Q>
0

> <i_epik_Tot_abs_Q>
0

> <r_epik_Metal_State_Penalty>
-0

> <b_epik_Metal_Only>
0

> <s_lp_Force_Field>
OPLS_2005

> <r_lp_Energy>
40.8148

> <b_lp_Chiralities_Consistent>
1

> <s_lp_Variant>
AV-unprocessed.smi:371-1

> <Gold.Version>
5.8.1

> <Gold.Id.Protein>
6NUR|6NUR_protein|mol2

> <Gold.PLP.Fitness>
38.1665

> <Gold.PLP.PLP>
-35.7230

> <Gold.PLP.part.hbond>
-1.4289

> <Gold.PLP.part.metal>
0.0000

> <Gold.PLP.part.buried>
3.8158

> <Gold.PLP.part.nonpolar>
-40.7731

> <Gold.PLP.part.repulsive>
2.8153

> <Gold.PLP.ligand.clash>
0.0000

> <Gold.PLP.ligand.torsion>
0.3506

> <Gold.PLP.Chemscore.Hbond>
0.9188

> <Gold.PLP.Chemscore.CHOScore>
0.0000

> <Gold.PLP.Chemscore.Metal>
0.0000

> <Gold.Chemscore.Hbonds>
donor molecule, donor type, donor heavy atom, donor atom, acceptor molecule, acceptor atom, score
      L1  H    21    38       P1 10175  0.82

> <Gold.PLP.Chemscore.Internal.Correction>
0.3881

> <Gold.Rescore>
     Score         DG    S(hbond)    S(metal)    S(lipo)     H(rot)  DE(clash)    DE(int)     intcor
     12.72     -16.70       0.95        0.00     113.29       2.04       2.30       1.69       ----

> <Gold.Chemscore.Fitness>
12.7167

> <Gold.Chemscore.DG>
-16.7037

> <Gold.Chemscore.ZeroCoef>
-5.4800

> <Gold.Chemscore.Hbond>
0.9550

> <Gold.Chemscore.Metal>
0.0000

> <Gold.Chemscore.Lipo>
113.2941

> <Gold.Chemscore.Internal_Hbond>
0.0000

> <Gold.Chemscore.DEClash>
2.3004

> <Gold.Chemscore.DEInternal>
1.6866

> <Gold.Chemscore.Rot>
2.0396

> <Gold.Chemscore.Internal.Correction>
   9.000000E+99

> <Gold.Chemscore.Hbonds>
donor molecule, donor type, donor heavy atom, donor atom, acceptor molecule, acceptor atom, score
      L1  H    21    38       P1 10175  0.23

> <Gold.Chemscore.Hbond.Weighted>
-3.1896

> <Gold.Chemscore.Metal.Weighted>
-0.0000

> <Gold.Chemscore.Lipo.Weighted>
-13.2554

> <Gold.Chemscore.Internal_Hbond.Weighted>
0.0000

> <Gold.Chemscore.DEClash.Weighted>
2.3004

> <Gold.Chemscore.DEInternal.Weighted>
1.6866

> <Gold.Chemscore.Rot.Weighted>
5.2214

> <Gold.Chemscore.Internal.Correction.Weighted>
   9.000000E+99

> <Gold.Protein.RotatedTorsions>
[ 6907 6896 6895 6894 ] final   11.82 input  -60.11 | X-H torsion
[ 7974 7965 7964 7962 ] final  -10.52 input  175.53 | X-H torsion
[ 8008 7997 7996 7995 ] final  -38.00 input   59.86 | X-H torsion
[ 10167 10162 10161 10158 ] final  -96.06 input  -65.29 | X-H torsion
[ 10718 10713 10712 10709 ] final   73.09 input   66.30 | X-H torsion
[ 10763 10752 10751 10750 ] final   65.57 input  -60.55 | X-H torsion
[ 11005 11000 10999 10996 ] final  -28.01 input  -57.11 | X-H torsion

> <Gold.Protein.ActiveResidues>
 VAL166  LYS551  ARG553  GLY616  TRP617  ASP618  TYR619  PRO620  LYS621  CYS622 
 ASP623  PHE694  ASN695  SER759  ASP760  ASP761  ALA762  ILE779  LEU786  VAL792 
 PHE793  MET794  SER795  GLU796  ALA797  LYS798  CYS799  TRP800  GLU811  SER814 

> <Gold.Protein.RotatedAtoms>
  151.7604  135.0811  160.0344 H   0  0  0  0  0  0  0  0  0  0  0  0  # atno 6907 bound_to 6896
  152.3357  133.6004  159.5849 H   0  0  0  0  0  0  0  0  0  0  0  0  # atno 6908 bound_to 6896
  150.7449  133.9716  159.3589 H   0  0  0  0  0  0  0  0  0  0  0  0  # atno 6909 bound_to 6896
  146.2218  140.2776  142.8360 H   0  0  0  0  0  0  0  0  0  0  0  0  # atno 7974 bound_to 7965
  154.4044  140.1589  156.2628 H   0  0  0  0  0  0  0  0  0  0  0  0  # atno 8008 bound_to 7997
  155.9022  140.3432  155.6012 H   0  0  0  0  0  0  0  0  0  0  0  0  # atno 8009 bound_to 7997
  155.7435  140.0795  157.2225 H   0  0  0  0  0  0  0  0  0  0  0  0  # atno 8010 bound_to 7997
  140.2978  143.3181  152.0280 H   0  0  0  0  0  0  0  0  0  0  0  0  # atno 10167 bound_to 10162
  157.6531  130.9611  150.1020 H   0  0  0  0  0  0  0  0  0  0  0  0  # atno 10718 bound_to 10713
  153.0102  135.5352  154.6688 H   0  0  0  0  0  0  0  0  0  0  0  0  # atno 10763 bound_to 10752
  154.5878  135.2856  155.0669 H   0  0  0  0  0  0  0  0  0  0  0  0  # atno 10764 bound_to 10752
  154.1773  135.6522  153.5077 H   0  0  0  0  0  0  0  0  0  0  0  0  # atno 10765 bound_to 10752
  140.9170  133.7423  156.0749 H   0  0  0  0  0  0  0  0  0  0  0  0  # atno 11005 bound_to 11000
  144.9221  140.7880  143.5742 LP  0  0  0  0  0  0  0  0  0  0  0  0  # atno 17320 bound_to 7965
  145.2713  139.1953  143.4840 LP  0  0  0  0  0  0  0  0  0  0  0  0  # atno 17321 bound_to 7965
  139.4922  144.6478  151.6740 LP  0  0  0  0  0  0  0  0  0  0  0  0  # atno 17342 bound_to 10162
  140.5677  144.0161  150.6201 LP  0  0  0  0  0  0  0  0  0  0  0  0  # atno 17343 bound_to 10162
  156.1940  130.3656  149.8873 LP  0  0  0  0  0  0  0  0  0  0  0  0  # atno 17370 bound_to 10713
  156.6794  130.8852  151.3573 LP  0  0  0  0  0  0  0  0  0  0  0  0  # atno 17371 bound_to 10713
  140.8037  134.3480  157.5432 LP  0  0  0  0  0  0  0  0  0  0  0  0  # atno 17394 bound_to 11000
  139.8768  134.9213  156.3271 LP  0  0  0  0  0  0  0  0  0  0  0  0  # atno 17395 bound_to 11000

$$$$
