AV-unprocessed.smi:1412|AV-procd|sdf|5740|dock7
  -GOLD-   22720 5373D 1   1.00000     0.00000
 Structure written by MMmdl.
 41 42  0  0  0  0  0  0  0  0  1 V2000
  148.0573  135.2569  158.0527 C   0  0  0  0  0  0  0  0  0  0  0  0
  148.9384  136.2037  157.2150 C   0  0  0  0  0  0  0  0  0  0  0  0
  148.8981  136.0525  155.6560 C   0  0  1  0  0  0  0  0  0  0  0  0
  149.4512  134.6517  155.2894 C   0  0  0  0  0  0  0  0  0  0  0  0
  147.4086  136.0943  155.1971 C   0  0  0  0  0  0  0  0  0  0  0  0
  147.2494  135.6247  153.8229 N   0  0  0  0  0  0  0  0  0  0  0  0
  146.2583  134.8394  153.3818 C   0  0  0  0  0  0  0  0  0  0  0  0
  145.3708  134.3916  154.1077 O   0  0  0  0  0  0  0  0  0  0  0  0
  146.3682  134.6185  152.0619 N   0  0  0  0  0  0  0  0  0  0  0  0
  145.4967  133.8755  151.2268 C   0  0  0  0  0  0  0  0  0  0  0  0
  146.0341  133.1822  150.2163 N   0  0  0  0  0  0  0  0  0  0  0  0
  145.0702  132.5062  149.4780 N   0  0  0  0  0  0  0  0  0  0  0  0
  143.8421  132.7174  149.9606 C   0  0  0  0  0  0  0  0  0  0  0  0
  143.7396  133.7626  151.3664 S   0  0  0  0  0  0  0  0  0  0  0  0
  149.6829  137.1540  155.0164 N   0  0  0  0  0  0  0  0  0  0  0  0
  149.0994  138.4955  155.1538 C   0  0  0  0  0  0  0  0  0  0  0  0
  149.8871  139.5591  154.3698 C   0  0  0  0  0  0  0  0  0  0  0  0
  151.2438  139.5623  154.7937 O   0  0  0  0  0  0  0  0  0  0  0  0
  151.8668  138.2977  154.6124 C   0  0  0  0  0  0  0  0  0  0  0  0
  151.0995  137.2241  155.4025 C   0  0  0  0  0  0  0  0  0  0  0  0
  148.2504  135.4067  159.1149 H   0  0  0  0  0  0  0  0  0  0  0  0
  148.2572  134.2085  157.8352 H   0  0  0  0  0  0  0  0  0  0  0  0
  146.9942  135.4420  157.9010 H   0  0  0  0  0  0  0  0  0  0  0  0
  148.6783  137.2279  157.4864 H   0  0  0  0  0  0  0  0  0  0  0  0
  149.9576  136.0548  157.5703 H   0  0  0  0  0  0  0  0  0  0  0  0
  148.8468  133.8551  155.7221 H   0  0  0  0  0  0  0  0  0  0  0  0
  150.4691  134.5042  155.6496 H   0  0  0  0  0  0  0  0  0  0  0  0
  149.4533  134.4792  154.2137 H   0  0  0  0  0  0  0  0  0  0  0  0
  146.7695  135.4962  155.8452 H   0  0  0  0  0  0  0  0  0  0  0  0
  147.0078  137.1027  155.3045 H   0  0  0  0  0  0  0  0  0  0  0  0
  147.9386  135.9438  153.1575 H   0  0  0  0  0  0  0  0  0  0  0  0
  147.1567  135.0434  151.5968 H   0  0  0  0  0  0  0  0  0  0  0  0
  142.9903  132.2542  149.4850 H   0  0  0  0  0  0  0  0  0  0  0  0
  148.0762  138.5193  154.7853 H   0  0  0  0  0  0  0  0  0  0  0  0
  149.0666  138.7864  156.2037 H   0  0  0  0  0  0  0  0  0  0  0  0
  149.8333  139.3661  153.2972 H   0  0  0  0  0  0  0  0  0  0  0  0
  149.4593  140.5472  154.5389 H   0  0  0  0  0  0  0  0  0  0  0  0
  151.8988  138.0470  153.5509 H   0  0  0  0  0  0  0  0  0  0  0  0
  152.8985  138.3567  154.9587 H   0  0  0  0  0  0  0  0  0  0  0  0
  151.1922  137.4416  156.4663 H   0  0  0  0  0  0  0  0  0  0  0  0
  151.6035  136.2767  155.2261 H   0  0  0  0  0  0  0  0  0  0  0  0
  1  2  1  0  0  0  0
  1 21  1  0  0  0  0
  1 22  1  0  0  0  0
  1 23  1  0  0  0  0
  2  3  1  0  0  0  0
  2 24  1  0  0  0  0
  2 25  1  0  0  0  0
  3  4  1  0  0  0  0
  3  5  1  0  0  0  0
  3 15  1  0  0  0  0
  4 26  1  0  0  0  0
  4 27  1  0  0  0  0
  4 28  1  0  0  0  0
  5  6  1  0  0  0  0
  5 29  1  0  0  0  0
  5 30  1  0  0  0  0
  6  7  1  0  0  0  0
  6 31  1  0  0  0  0
  7  8  2  0  0  0  0
  7  9  1  0  0  0  0
  9 10  1  0  0  0  0
  9 32  1  0  0  0  0
 10 14  1  0  0  0  0
 10 11  2  0  0  0  0
 11 12  1  0  0  0  0
 12 13  2  0  0  0  0
 13 14  1  0  0  0  0
 13 33  1  0  0  0  0
 15 20  1  0  0  0  0
 15 16  1  0  0  0  0
 16 17  1  0  0  0  0
 16 34  1  0  0  0  0
 16 35  1  0  0  0  0
 17 18  1  0  0  0  0
 17 36  1  0  0  0  0
 17 37  1  0  0  0  0
 18 19  1  0  0  0  0
 19 20  1  0  0  0  0
 19 38  1  0  0  0  0
 19 39  1  0  0  0  0
 20 40  1  0  0  0  0
 20 41  1  0  0  0  0
M  END
> <s_m_source_file>
AV-unprocessed.smi

> <i_m_source_file_index>
1412

> <i_lp_mmshare_version>
43012

> <i_f3d_flags>
0

> <s_epik_input>
W0NIMl0xW0NIMl1PW0NIMl1bQ0gyXU4xW0NAQF0oW0NIM10pKFtDSDJdW0NIM10pW0NIMl1bTkhdQyg9TylbTkhdYzJubltjSF1zMg==

> <s_epik_cmdline>
J2VwaWtfcHl0aG9uJywgJy1waCcsICc3LjAnLCAnLXRuJywgJzgnLCAnLW1hJywgJzIwMCcsICctbWV0YWxfYmluZGluZycsICctaW1hZScsICc8aW5maWxlLm1hZT4nLCAnLW9tYWUnLCAnPG91dGZpbGUubWFlPic=

> <r_lp_tautomer_probability>
1

> <r_epik_Ionization_Penalty>
0.295854

> <r_epik_Ionization_Penalty_Charging>
0

> <r_epik_Ionization_Penalty_Neutral>
0.295854

> <r_epik_State_Penalty>
0.288723

> <r_epik_Charging_Adjusted_Penalty>
0.288723

> <i_epik_Tot_Q>
0

> <i_epik_Tot_abs_Q>
0

> <r_epik_Metal_State_Penalty>
0.510549

> <b_epik_Metal_Only>
0

> <s_lp_Force_Field>
OPLS_2005

> <r_lp_Energy>
43.1066

> <b_lp_Chiralities_Consistent>
1

> <s_lp_Variant>
AV-unprocessed.smi:1412-1

> <Gold.Version>
5.8.1

> <Gold.Id.Protein>
6NUR|6NUR_protein|mol2

> <Gold.PLP.Fitness>
35.1472

> <Gold.PLP.PLP>
-27.1420

> <Gold.PLP.part.hbond>
-3.0000

> <Gold.PLP.part.metal>
0.0000

> <Gold.PLP.part.buried>
-7.0277

> <Gold.PLP.part.nonpolar>
-18.5241

> <Gold.PLP.part.repulsive>
0.8182

> <Gold.PLP.ligand.clash>
0.0000

> <Gold.PLP.ligand.torsion>
0.5981

> <Gold.PLP.Chemscore.Hbond>
2.6406

> <Gold.PLP.Chemscore.CHOScore>
0.4052

> <Gold.PLP.Chemscore.Metal>
0.0000

> <Gold.Chemscore.Hbonds>
donor molecule, donor type, donor heavy atom, donor atom, acceptor molecule, acceptor atom, score
      L1  H     6    31       P1  7948  1.00
      L1  H     9    32       P1  7948  0.71
      P1  H  7989  7998       L1    18  0.50
      L1  C    13    33       P1 10952  0.11

> <Gold.PLP.Chemscore.Internal.Correction>
0.0637

> <Gold.Rescore>
     Score         DG    S(hbond)    S(metal)    S(lipo)     H(rot)  DE(clash)    DE(int)     intcor
     12.94     -13.61       1.98        0.00      53.67       1.86       0.04       0.62       ----

> <Gold.Chemscore.Fitness>
12.9433

> <Gold.Chemscore.DG>
-13.6071

> <Gold.Chemscore.ZeroCoef>
-5.4800

> <Gold.Chemscore.Hbond>
1.9795

> <Gold.Chemscore.Metal>
0.0000

> <Gold.Chemscore.Lipo>
53.6689

> <Gold.Chemscore.Internal_Hbond>
0.0000

> <Gold.Chemscore.DEClash>
0.0398

> <Gold.Chemscore.DEInternal>
0.6241

> <Gold.Chemscore.Rot>
1.8609

> <Gold.Chemscore.Internal.Correction>
   9.000000E+99

> <Gold.Chemscore.Hbonds>
donor molecule, donor type, donor heavy atom, donor atom, acceptor molecule, acceptor atom, score
      L1  H     6    31       P1  7948  1.00
      L1  H     9    32       P1  7948  0.62
      P1  H  7989  7998       L1    18  0.02

> <Gold.Chemscore.Hbond.Weighted>
-6.6117

> <Gold.Chemscore.Metal.Weighted>
-0.0000

> <Gold.Chemscore.Lipo.Weighted>
-6.2793

> <Gold.Chemscore.Internal_Hbond.Weighted>
0.0000

> <Gold.Chemscore.DEClash.Weighted>
0.0398

> <Gold.Chemscore.DEInternal.Weighted>
0.6241

> <Gold.Chemscore.Rot.Weighted>
4.7638

> <Gold.Chemscore.Internal.Correction.Weighted>
   9.000000E+99

> <Gold.Protein.RotatedTorsions>
[ 6907 6896 6895 6894 ] final   55.03 input  -60.11 | X-H torsion
[ 7974 7965 7964 7962 ] final   93.97 input  175.53 | X-H torsion
[ 8008 7997 7996 7995 ] final  -27.06 input   59.86 | X-H torsion
[ 10167 10162 10161 10158 ] final  -21.19 input  -65.29 | X-H torsion
[ 10718 10713 10712 10709 ] final   40.73 input   66.30 | X-H torsion
[ 10763 10752 10751 10750 ] final   56.95 input  -60.55 | X-H torsion
[ 11005 11000 10999 10996 ] final -122.92 input  -57.11 | X-H torsion

> <Gold.Protein.ActiveResidues>
 VAL166  LYS551  ARG553  GLY616  TRP617  ASP618  TYR619  PRO620  LYS621  CYS622 
 ASP623  PHE694  ASN695  SER759  ASP760  ASP761  ALA762  ILE779  LEU786  VAL792 
 PHE793  MET794  SER795  GLU796  ALA797  LYS798  CYS799  TRP800  GLU811  SER814 

> <Gold.Protein.RotatedAtoms>
  152.3498  134.7021  160.0239 H   0  0  0  0  0  0  0  0  0  0  0  0  # atno 6907 bound_to 6896
  151.7378  133.3315  159.3366 H   0  0  0  0  0  0  0  0  0  0  0  0  # atno 6908 bound_to 6896
  150.7533  134.6238  159.6195 H   0  0  0  0  0  0  0  0  0  0  0  0  # atno 6909 bound_to 6896
  145.4719  139.2281  143.2930 H   0  0  0  0  0  0  0  0  0  0  0  0  # atno 7974 bound_to 7965
  154.4395  140.1882  156.0872 H   0  0  0  0  0  0  0  0  0  0  0  0  # atno 8008 bound_to 7997
  156.0393  140.3321  155.7200 H   0  0  0  0  0  0  0  0  0  0  0  0  # atno 8009 bound_to 7997
  155.5723  140.0614  157.2794 H   0  0  0  0  0  0  0  0  0  0  0  0  # atno 8010 bound_to 7997
  140.7280  143.4651  151.0325 H   0  0  0  0  0  0  0  0  0  0  0  0  # atno 10167 bound_to 10162
  157.3855  130.7777  149.7227 H   0  0  0  0  0  0  0  0  0  0  0  0  # atno 10718 bound_to 10713
  152.9841  135.5658  154.5311 H   0  0  0  0  0  0  0  0  0  0  0  0  # atno 10763 bound_to 10752
  154.4783  135.2787  155.1592 H   0  0  0  0  0  0  0  0  0  0  0  0  # atno 10764 bound_to 10752
  154.3112  135.6288  153.5519 H   0  0  0  0  0  0  0  0  0  0  0  0  # atno 10765 bound_to 10752
  140.9958  134.0473  157.3598 H   0  0  0  0  0  0  0  0  0  0  0  0  # atno 11005 bound_to 11000
  146.2392  140.5497  142.8941 LP  0  0  0  0  0  0  0  0  0  0  0  0  # atno 17320 bound_to 7965
  144.7940  140.6087  143.6522 LP  0  0  0  0  0  0  0  0  0  0  0  0  # atno 17321 bound_to 7965
  139.8338  143.7655  152.3180 LP  0  0  0  0  0  0  0  0  0  0  0  0  # atno 17342 bound_to 10162
  139.7780  144.7454  151.0129 LP  0  0  0  0  0  0  0  0  0  0  0  0  # atno 17343 bound_to 10162
  155.9785  130.4050  150.3641 LP  0  0  0  0  0  0  0  0  0  0  0  0  # atno 17370 bound_to 10713
  157.1750  131.0378  151.2776 LP  0  0  0  0  0  0  0  0  0  0  0  0  # atno 17371 bound_to 10713
  139.9014  135.0166  156.7287 LP  0  0  0  0  0  0  0  0  0  0  0  0  # atno 17394 bound_to 11000
  140.6967  133.9342  155.7999 LP  0  0  0  0  0  0  0  0  0  0  0  0  # atno 17395 bound_to 11000

$$$$
