AV-unprocessed.smi:1880|AV-procd|sdf|7637|dock7
  -GOLD-   22720 9363D 1   1.00000     0.00000
 Structure written by MMmdl.
 37 39  0  0  0  0  0  0  0  0  2 V2000
  150.1903  137.2910  154.3049 O   0  0  0  0  0  0  0  0  0  0  0  0
  149.9066  138.5308  154.9223 C   0  0  2  0  0  0  0  0  0  0  0  0
  148.8749  139.2931  154.0751 C   0  0  0  0  0  0  0  0  0  0  0  0
  147.7485  138.4684  153.8237 O   0  0  0  0  0  0  0  0  0  0  0  0
  146.8686  139.0192  152.8601 C   0  0  0  0  0  0  0  0  0  0  0  0
  146.2482  137.8659  152.1482 C   0  0  0  0  0  0  0  0  0  0  0  0
  145.2838  136.9576  152.4876 C   0  0  0  0  0  0  0  0  0  0  0  0
  145.1272  136.1007  151.3630 C   0  0  0  0  0  0  0  0  0  0  0  0
  146.0077  136.5511  150.4210 C   0  0  0  0  0  0  0  0  0  0  0  0
  146.6985  137.6282  150.8839 O   0  0  0  0  0  0  0  0  0  0  0  0
  151.1894  139.3382  155.2047 C   0  0  0  0  0  0  0  0  0  0  0  0
  150.9155  140.6399  155.8298 N   0  0  0  0  0  0  0  0  0  0  0  0
  150.1630  141.6790  155.3768 C   0  0  0  0  0  0  0  0  0  0  0  0
  150.2229  142.6681  156.3109 N   0  3  0  0  0  0  0  0  0  0  0  0
  151.0256  142.2555  157.3769 C   0  0  0  0  0  0  0  0  0  0  0  0
  151.3851  142.9068  158.5523 C   0  0  0  0  0  0  0  0  0  0  0  0
  152.2238  142.2003  159.4392 C   0  0  0  0  0  0  0  0  0  0  0  0
  152.6061  142.7895  160.5968 F   0  0  0  0  0  0  0  0  0  0  0  0
  152.6701  140.8946  159.1442 C   0  0  0  0  0  0  0  0  0  0  0  0
  153.4724  140.2512  160.0249 F   0  0  0  0  0  0  0  0  0  0  0  0
  152.2978  140.2439  157.9495 C   0  0  0  0  0  0  0  0  0  0  0  0
  151.4725  140.9516  157.0760 C   0  0  0  0  0  0  0  0  0  0  0  0
  149.7735  137.2753  153.4574 H   0  0  0  0  0  0  0  0  0  0  0  0
  149.4363  138.2886  155.8761 H   0  0  0  0  0  0  0  0  0  0  0  0
  148.5763  140.2182  154.5715 H   0  0  0  0  0  0  0  0  0  0  0  0
  149.3285  139.5718  153.1226 H   0  0  0  0  0  0  0  0  0  0  0  0
  146.1010  139.6294  153.3387 H   0  0  0  0  0  0  0  0  0  0  0  0
  147.4145  139.6514  152.1584 H   0  0  0  0  0  0  0  0  0  0  0  0
  144.7553  136.9165  153.4287 H   0  0  0  0  0  0  0  0  0  0  0  0
  144.4554  135.2619  151.2565 H   0  0  0  0  0  0  0  0  0  0  0  0
  146.2589  136.2388  149.4180 H   0  0  0  0  0  0  0  0  0  0  0  0
  151.8855  138.7811  155.8318 H   0  0  0  0  0  0  0  0  0  0  0  0
  151.7147  139.5338  154.2691 H   0  0  0  0  0  0  0  0  0  0  0  0
  149.6183  141.7134  154.4440 H   0  0  0  0  0  0  0  0  0  0  0  0
  151.0445  143.9054  158.7835 H   0  0  0  0  0  0  0  0  0  0  0  0
  152.6424  139.2423  157.7379 H   0  0  0  0  0  0  0  0  0  0  0  0
  149.7504  143.5590  156.2234 H   0  0  0  0  0  0  0  0  0  0  0  0
  1  2  1  0  0  0  0
  1 23  1  0  0  0  0
  2  3  1  0  0  0  0
  2 11  1  0  0  0  0
  2 24  1  0  0  0  0
  3  4  1  0  0  0  0
  3 25  1  0  0  0  0
  3 26  1  0  0  0  0
  4  5  1  0  0  0  0
  5  6  1  0  0  0  0
  5 27  1  0  0  0  0
  5 28  1  0  0  0  0
  6 10  1  0  0  0  0
  6  7  2  0  0  0  0
  7  8  1  0  0  0  0
  7 29  1  0  0  0  0
  8  9  2  0  0  0  0
  8 30  1  0  0  0  0
  9 10  1  0  0  0  0
  9 31  1  0  0  0  0
 11 12  1  0  0  0  0
 11 32  1  0  0  0  0
 11 33  1  0  0  0  0
 12 22  1  0  0  0  0
 12 13  1  0  0  0  0
 13 14  2  0  0  0  0
 13 34  1  0  0  0  0
 14 15  1  0  0  0  0
 14 37  1  0  0  0  0
 15 22  2  0  0  0  0
 15 16  1  0  0  0  0
 16 17  2  0  0  0  0
 16 35  1  0  0  0  0
 17 18  1  0  0  0  0
 17 19  1  0  0  0  0
 19 20  1  0  0  0  0
 19 21  2  0  0  0  0
 21 22  1  0  0  0  0
 21 36  1  0  0  0  0
M  CHG  1  14   1
M  END
> <s_m_source_file>
AV-unprocessed.smi

> <i_m_source_file_index>
1880

> <i_lp_mmshare_version>
43012

> <i_f3d_flags>
0

> <s_epik_input>
W2NIXTFjKEYpYyhGKVtjSF1jKGMxMiluKFtjSF1uMilbQ0gyXVtDQEhdKFtPSF0pW0NIMl1PW0NIMl1jM1tjSF1bY0hdW2NIXW8z

> <s_epik_cmdline>
J2VwaWtfcHl0aG9uJywgJy1waCcsICc3LjAnLCAnLXRuJywgJzgnLCAnLW1hJywgJzIwMCcsICctbWV0YWxfYmluZGluZycsICctaW1hZScsICc8aW5maWxlLm1hZT4nLCAnLW9tYWUnLCAnPG91dGZpbGUubWFlPic=

> <r_epik_Ionization_Penalty>
2.17656

> <r_epik_Ionization_Penalty_Charging>
2.17656

> <r_epik_Ionization_Penalty_Neutral>
9.34185e-07

> <r_epik_State_Penalty>
2.31826

> <r_epik_Charging_Adjusted_Penalty>
4.49482

> <i_epik_Tot_Q>
1

> <i_epik_Tot_abs_Q>
1

> <r_epik_Metal_State_Penalty>
6.39906

> <b_epik_Metal_Only>
0

> <s_lp_Force_Field>
OPLS_2005

> <r_lp_Energy>
13.1736

> <b_lp_Chiralities_Consistent>
1

> <s_lp_Variant>
AV-unprocessed.smi:1880-3

> <Gold.Version>
5.8.1

> <Gold.Id.Protein>
6NUR|6NUR_protein|mol2

> <Gold.PLP.Fitness>
56.5384

> <Gold.PLP.PLP>
-42.4347

> <Gold.PLP.part.hbond>
-3.4823

> <Gold.PLP.part.metal>
0.0000

> <Gold.PLP.part.buried>
-1.5706

> <Gold.PLP.part.nonpolar>
-40.0945

> <Gold.PLP.part.repulsive>
2.5361

> <Gold.PLP.ligand.clash>
0.0000

> <Gold.PLP.ligand.torsion>
0.4274

> <Gold.PLP.Chemscore.Hbond>
3.9600

> <Gold.PLP.Chemscore.CHOScore>
1.0000

> <Gold.PLP.Chemscore.Metal>
0.0000

> <Gold.Chemscore.Hbonds>
donor molecule, donor type, donor heavy atom, donor atom, acceptor molecule, acceptor atom, score
      L1  H     1    23       P1  7948  0.98
      L1  H    14    37       P1  8028  2.00
      P1  H  7954  7966       L1    10  1.00
      L1  C     9    31       P1  7921  1.00

> <Gold.PLP.Chemscore.Internal.Correction>
0.0784

> <Gold.Rescore>
     Score         DG    S(hbond)    S(metal)    S(lipo)     H(rot)  DE(clash)    DE(int)     intcor
     14.94     -17.87       2.69        0.00      93.53       2.94       1.44       1.50       ----

> <Gold.Chemscore.Fitness>
14.9380

> <Gold.Chemscore.DG>
-17.8748

> <Gold.Chemscore.ZeroCoef>
-5.4800

> <Gold.Chemscore.Hbond>
2.6857

> <Gold.Chemscore.Metal>
0.0000

> <Gold.Chemscore.Lipo>
93.5321

> <Gold.Chemscore.Internal_Hbond>
0.0000

> <Gold.Chemscore.DEClash>
1.4374

> <Gold.Chemscore.DEInternal>
1.4994

> <Gold.Chemscore.Rot>
2.9369

> <Gold.Chemscore.Internal.Correction>
   9.000000E+99

> <Gold.Chemscore.Hbonds>
donor molecule, donor type, donor heavy atom, donor atom, acceptor molecule, acceptor atom, score
      L1  H     1    23       P1  7948  0.58
      L1  H    14    37       P1  8028  0.95
      P1  H  7954  7966       L1    10  0.70

> <Gold.Chemscore.Hbond.Weighted>
-8.9701

> <Gold.Chemscore.Metal.Weighted>
-0.0000

> <Gold.Chemscore.Lipo.Weighted>
-10.9433

> <Gold.Chemscore.Internal_Hbond.Weighted>
0.0000

> <Gold.Chemscore.DEClash.Weighted>
1.4374

> <Gold.Chemscore.DEInternal.Weighted>
1.4994

> <Gold.Chemscore.Rot.Weighted>
7.5185

> <Gold.Chemscore.Internal.Correction.Weighted>
   9.000000E+99

> <Gold.Protein.RotatedTorsions>
[ 6907 6896 6895 6894 ] final  -66.43 input  -60.11 | X-H torsion
[ 7974 7965 7964 7962 ] final  143.91 input  175.53 | X-H torsion
[ 8008 7997 7996 7995 ] final  158.37 input   59.86 | X-H torsion
[ 10167 10162 10161 10158 ] final   23.11 input  -65.29 | X-H torsion
[ 10718 10713 10712 10709 ] final   65.40 input   66.30 | X-H torsion
[ 10763 10752 10751 10750 ] final -157.05 input  -60.55 | X-H torsion
[ 11005 11000 10999 10996 ] final   11.99 input  -57.11 | X-H torsion

> <Gold.Protein.ActiveResidues>
 VAL166  LYS551  ARG553  GLY616  TRP617  ASP618  TYR619  PRO620  LYS621  CYS622 
 ASP623  PHE694  ASN695  SER759  ASP760  ASP761  ALA762  ILE779  LEU786  VAL792 
 PHE793  MET794  SER795  GLU796  ALA797  LYS798  CYS799  TRP800  GLU811  SER814 

> <Gold.Protein.RotatedAtoms>
  150.7466  134.6022  159.6042 H   0  0  0  0  0  0  0  0  0  0  0  0  # atno 6907 bound_to 6896
  152.3380  134.7169  160.0280 H   0  0  0  0  0  0  0  0  0  0  0  0  # atno 6908 bound_to 6896
  151.7631  133.3299  159.3460 H   0  0  0  0  0  0  0  0  0  0  0  0  # atno 6909 bound_to 6896
  144.8880  139.5599  143.5811 H   0  0  0  0  0  0  0  0  0  0  0  0  # atno 7974 bound_to 7965
  156.2306  140.1860  156.7251 H   0  0  0  0  0  0  0  0  0  0  0  0  # atno 8008 bound_to 7997
  154.6017  140.0635  156.9404 H   0  0  0  0  0  0  0  0  0  0  0  0  # atno 8009 bound_to 7997
  155.2164  140.3304  155.4324 H   0  0  0  0  0  0  0  0  0  0  0  0  # atno 8010 bound_to 7997
  140.5295  143.9866  150.6458 H   0  0  0  0  0  0  0  0  0  0  0  0  # atno 10167 bound_to 10162
  157.6103  130.9212  149.9971 H   0  0  0  0  0  0  0  0  0  0  0  0  # atno 10718 bound_to 10713
  154.7666  135.3133  154.8274 H   0  0  0  0  0  0  0  0  0  0  0  0  # atno 10763 bound_to 10752
  153.9020  135.6814  153.4759 H   0  0  0  0  0  0  0  0  0  0  0  0  # atno 10764 bound_to 10752
  153.1273  135.4796  154.9226 H   0  0  0  0  0  0  0  0  0  0  0  0  # atno 10765 bound_to 10752
  140.4970  134.0783  155.7784 H   0  0  0  0  0  0  0  0  0  0  0  0  # atno 11005 bound_to 11000
  146.3036  139.7508  142.9072 LP  0  0  0  0  0  0  0  0  0  0  0  0  # atno 17320 bound_to 7965
  145.3833  141.0361  143.3165 LP  0  0  0  0  0  0  0  0  0  0  0  0  # atno 17321 bound_to 7965
  140.3237  143.3121  152.0758 LP  0  0  0  0  0  0  0  0  0  0  0  0  # atno 17342 bound_to 10162
  139.4949  144.6556  151.6579 LP  0  0  0  0  0  0  0  0  0  0  0  0  # atno 17343 bound_to 10162
  156.1203  130.3646  149.9899 LP  0  0  0  0  0  0  0  0  0  0  0  0  # atno 17370 bound_to 10713
  156.7980  130.9280  151.3646 LP  0  0  0  0  0  0  0  0  0  0  0  0  # atno 17371 bound_to 10713
  141.1455  133.9063  157.2226 LP  0  0  0  0  0  0  0  0  0  0  0  0  # atno 17394 bound_to 11000
  139.9735  135.0121  156.9573 LP  0  0  0  0  0  0  0  0  0  0  0  0  # atno 17395 bound_to 11000

$$$$
