AV-unprocessed.smi:265|AV-procd|sdf|2024|dock5
  -GOLD-   2262021223D 1   1.00000     0.00000
 Structure written by MMmdl.
 52 56  0  0  0  0  0  0  0  0  1 V2000
  150.9537  137.9005  154.1555 C   0  0  0  0  0  0  0  0  0  0  0  0
  150.8095  138.7690  155.4160 C   0  0  1  0  0  0  0  0  0  0  0  0
  152.0610  139.3539  155.7753 O   0  0  0  0  0  0  0  0  0  0  0  0
  151.9308  140.7650  155.8836 C   0  0  0  0  0  0  0  0  0  0  0  0
  150.4559  140.9905  156.1896 C   0  0  0  0  0  0  0  0  0  0  0  0
  149.7778  139.9180  155.3495 C   0  0  1  0  0  0  0  0  0  0  0  0
  149.6473  140.4043  154.0225 O   0  0  0  0  0  0  0  0  0  0  0  0
  148.3788  139.5036  155.8635 C   0  0  0  0  0  0  0  0  0  0  0  0
  147.8645  138.2957  155.2366 N   0  0  0  0  0  0  0  0  0  0  0  0
  148.0722  137.0014  155.6568 C   0  0  0  0  0  0  0  0  0  0  0  0
  147.5088  136.0811  154.9234 N   0  0  0  0  0  0  0  0  0  0  0  0
  146.8494  136.7951  153.9299 C   0  0  0  0  0  0  0  0  0  0  0  0
  146.0473  136.4272  152.8132 C   0  0  0  0  0  0  0  0  0  0  0  0
  145.7463  135.1358  152.5253 N   0  0  0  0  0  0  0  0  0  0  0  0
  146.7984  134.1355  152.7021 C   0  0  0  0  0  0  0  0  0  0  0  0
  146.2027  132.7194  152.7265 C   0  0  0  0  0  0  0  0  0  0  0  0
  145.3227  132.4460  151.4956 C   0  0  2  0  0  0  0  0  0  0  0  0
  146.1236  132.3814  150.3226 O   0  0  0  0  0  0  0  0  0  0  0  0
  145.4109  131.9506  149.1619 C   0  0  0  0  0  0  0  0  0  0  0  0
  144.0924  132.7214  148.9645 C   0  0  0  0  0  0  0  0  0  0  0  0
  143.5169  132.6843  147.8794 O   0  0  0  0  0  0  0  0  0  0  0  0
  143.5845  133.3852  150.0156 N   0  0  0  0  0  0  0  0  0  0  0  0
  144.2784  133.5644  151.2866 C   0  0  2  0  0  0  0  0  0  0  0  0
  144.9313  134.9606  151.3250 C   0  0  0  0  0  0  0  0  0  0  0  0
  145.5736  137.4303  152.0261 N   0  0  0  0  0  0  0  0  0  0  0  0
  145.8523  138.7047  152.3159 C   0  0  0  0  0  0  0  0  0  0  0  0
  146.5760  139.1915  153.3256 N   0  0  0  0  0  0  0  0  0  0  0  0
  147.0646  138.1905  154.1120 C   0  0  0  0  0  0  0  0  0  0  0  0
  144.8239  131.4847  151.6333 H   0  0  0  0  0  0  0  0  0  0  0  0
  143.5366  133.5059  152.0844 H   0  0  0  0  0  0  0  0  0  0  0  0
  149.9970  137.4624  153.8700 H   0  0  0  0  0  0  0  0  0  0  0  0
  151.6541  137.0833  154.3278 H   0  0  0  0  0  0  0  0  0  0  0  0
  151.3277  138.4777  153.3094 H   0  0  0  0  0  0  0  0  0  0  0  0
  150.5485  138.1147  156.2488 H   0  0  0  0  0  0  0  0  0  0  0  0
  152.5880  141.1708  156.6528 H   0  0  0  0  0  0  0  0  0  0  0  0
  152.1994  141.2217  154.9301 H   0  0  0  0  0  0  0  0  0  0  0  0
  150.2817  140.8041  157.2500 H   0  0  0  0  0  0  0  0  0  0  0  0
  150.1204  142.0046  155.9684 H   0  0  0  0  0  0  0  0  0  0  0  0
  149.3485  139.6959  153.4731 H   0  0  0  0  0  0  0  0  0  0  0  0
  148.4092  139.3412  156.9419 H   0  0  0  0  0  0  0  0  0  0  0  0
  147.6595  140.3063  155.6969 H   0  0  0  0  0  0  0  0  0  0  0  0
  148.6649  136.7597  156.5272 H   0  0  0  0  0  0  0  0  0  0  0  0
  147.5202  134.2232  151.8888 H   0  0  0  0  0  0  0  0  0  0  0  0
  147.3373  134.3167  153.6333 H   0  0  0  0  0  0  0  0  0  0  0  0
  146.9997  131.9781  152.7913 H   0  0  0  0  0  0  0  0  0  0  0  0
  145.6004  132.6029  153.6284 H   0  0  0  0  0  0  0  0  0  0  0  0
  146.0485  132.0782  148.2869 H   0  0  0  0  0  0  0  0  0  0  0  0
  145.1882  130.8864  149.2475 H   0  0  0  0  0  0  0  0  0  0  0  0
  142.7004  133.8586  149.8998 H   0  0  0  0  0  0  0  0  0  0  0  0
  144.1561  135.7230  151.2543 H   0  0  0  0  0  0  0  0  0  0  0  0
  145.5758  135.0956  150.4550 H   0  0  0  0  0  0  0  0  0  0  0  0
  145.4349  139.4391  151.6429 H   0  0  0  0  0  0  0  0  0  0  0  0
  1  2  1  0  0  0  0
  1 31  1  0  0  0  0
  1 32  1  0  0  0  0
  1 33  1  0  0  0  0
  2  6  1  0  0  0  0
  2  3  1  0  0  0  0
  2 34  1  0  0  0  0
  3  4  1  0  0  0  0
  4  5  1  0  0  0  0
  4 35  1  0  0  0  0
  4 36  1  0  0  0  0
  5  6  1  0  0  0  0
  5 37  1  0  0  0  0
  5 38  1  0  0  0  0
  6  7  1  0  0  0  0
  6  8  1  0  0  0  0
  7 39  1  0  0  0  0
  8  9  1  0  0  0  0
  8 40  1  0  0  0  0
  8 41  1  0  0  0  0
  9 28  1  0  0  0  0
  9 10  1  0  0  0  0
 10 11  2  0  0  0  0
 10 42  1  0  0  0  0
 11 12  1  0  0  0  0
 12 28  2  0  0  0  0
 12 13  1  0  0  0  0
 13 14  1  0  0  0  0
 13 25  2  0  0  0  0
 14 24  1  0  0  0  0
 14 15  1  0  0  0  0
 15 16  1  0  0  0  0
 15 43  1  0  0  0  0
 15 44  1  0  0  0  0
 16 17  1  0  0  0  0
 16 45  1  0  0  0  0
 16 46  1  0  0  0  0
 17 29  1  0  0  0  0
 17 23  1  0  0  0  0
 17 18  1  0  0  0  0
 18 19  1  0  0  0  0
 19 20  1  0  0  0  0
 19 47  1  0  0  0  0
 19 48  1  0  0  0  0
 20 21  2  0  0  0  0
 20 22  1  0  0  0  0
 22 23  1  0  0  0  0
 22 49  1  0  0  0  0
 23 30  1  0  0  0  0
 23 24  1  0  0  0  0
 24 50  1  0  0  0  0
 24 51  1  0  0  0  0
 25 26  1  0  0  0  0
 26 27  2  0  0  0  0
 26 52  1  0  0  0  0
 27 28  1  0  0  0  0
M  END
> <s_m_source_file>
AV-unprocessed.smi

> <i_m_source_file_index>
265

> <i_lp_mmshare_version>
43012

> <i_f3d_flags>
0

> <s_epik_input>
W0NIMl0xW0NIMl1PW0NAQEhdKFtDSDNdKVtDQEBdMShbT0hdKVtDSDJdbihbY0hdbjIpYyhjMjMpbltjSF1uYzNOKFtDSDJdW0NIMl00KVtDSDJdW0NAQEhdKFtDQEhdNDUpW05IXUMoPU8pW0NIMl1PNQ==

> <s_epik_cmdline>
J2VwaWtfcHl0aG9uJywgJy1waCcsICc3LjAnLCAnLXRuJywgJzgnLCAnLW1hJywgJzIwMCcsICctbWV0YWxfYmluZGluZycsICctaW1hZScsICc8aW5maWxlLm1hZT4nLCAnLW9tYWUnLCAnPG91dGZpbGUubWFlPic=

> <r_lp_tautomer_probability>
1

> <r_epik_Ionization_Penalty>
0.00221504

> <r_epik_Ionization_Penalty_Charging>
0

> <r_epik_Ionization_Penalty_Neutral>
0.00221504

> <r_epik_State_Penalty>
-0

> <r_epik_Charging_Adjusted_Penalty>
0

> <i_epik_Tot_Q>
0

> <i_epik_Tot_abs_Q>
0

> <r_epik_Metal_State_Penalty>
-0

> <b_epik_Metal_Only>
0

> <s_lp_Force_Field>
OPLS_2005

> <r_lp_Energy>
44.7189

> <b_lp_Chiralities_Consistent>
1

> <s_lp_Variant>
AV-unprocessed.smi:265-10

> <Gold.Version>
5.8.1

> <Gold.Id.Protein>
6NUR|6NUR_protein|mol2

> <Gold.PLP.Fitness>
38.7059

> <Gold.PLP.PLP>
-30.4243

> <Gold.PLP.part.hbond>
-4.1556

> <Gold.PLP.part.metal>
0.0000

> <Gold.PLP.part.buried>
-1.3915

> <Gold.PLP.part.nonpolar>
-27.1930

> <Gold.PLP.part.repulsive>
2.1654

> <Gold.PLP.ligand.clash>
0.0000

> <Gold.PLP.ligand.torsion>
0.7461

> <Gold.PLP.Chemscore.Hbond>
1.9396

> <Gold.PLP.Chemscore.CHOScore>
1.1981

> <Gold.PLP.Chemscore.Metal>
0.0000

> <Gold.Chemscore.Hbonds>
donor molecule, donor type, donor heavy atom, donor atom, acceptor molecule, acceptor atom, score
      L1  H     7    39       P1  7957  0.06
      L1  H    22    49       P1 10186  1.00
      P1  H  7989  7998       L1     7  0.59
      L1  C    26    52       P1 10171  0.77
      L1  C    26    52       P1 10175  0.69

> <Gold.PLP.Chemscore.Internal.Correction>
0.3607

> <Gold.Rescore>
     Score         DG    S(hbond)    S(metal)    S(lipo)     H(rot)  DE(clash)    DE(int)     intcor
     11.39     -14.09       1.91        0.00      68.32       2.25       1.46       1.24       ----

> <Gold.Chemscore.Fitness>
11.3898

> <Gold.Chemscore.DG>
-14.0897

> <Gold.Chemscore.ZeroCoef>
-5.4800

> <Gold.Chemscore.Hbond>
1.9055

> <Gold.Chemscore.Metal>
0.0000

> <Gold.Chemscore.Lipo>
68.3190

> <Gold.Chemscore.Internal_Hbond>
0.0000

> <Gold.Chemscore.DEClash>
1.4624

> <Gold.Chemscore.DEInternal>
1.2376

> <Gold.Chemscore.Rot>
2.2453

> <Gold.Chemscore.Internal.Correction>
   9.000000E+99

> <Gold.Chemscore.Hbonds>
donor molecule, donor type, donor heavy atom, donor atom, acceptor molecule, acceptor atom, score
      L1  H     7    39       P1  7957  0.06
      L1  H    22    49       P1 10186  1.00
      P1  H  7989  7998       L1     7  0.17

> <Gold.Chemscore.Hbond.Weighted>
-6.3643

> <Gold.Chemscore.Metal.Weighted>
-0.0000

> <Gold.Chemscore.Lipo.Weighted>
-7.9933

> <Gold.Chemscore.Internal_Hbond.Weighted>
0.0000

> <Gold.Chemscore.DEClash.Weighted>
1.4624

> <Gold.Chemscore.DEInternal.Weighted>
1.2376

> <Gold.Chemscore.Rot.Weighted>
5.7479

> <Gold.Chemscore.Internal.Correction.Weighted>
   9.000000E+99

> <Gold.Protein.RotatedTorsions>
[ 6907 6896 6895 6894 ] final  138.50 input  -60.11 | X-H torsion
[ 7974 7965 7964 7962 ] final -136.12 input  175.53 | X-H torsion
[ 8008 7997 7996 7995 ] final  145.81 input   59.86 | X-H torsion
[ 10167 10162 10161 10158 ] final   18.14 input  -65.29 | X-H torsion
[ 10718 10713 10712 10709 ] final -173.54 input   66.30 | X-H torsion
[ 10763 10752 10751 10750 ] final  128.07 input  -60.55 | X-H torsion
[ 11005 11000 10999 10996 ] final -137.30 input  -57.11 | X-H torsion

> <Gold.Protein.ActiveResidues>
 VAL166  LYS551  ARG553  GLY616  TRP617  ASP618  TYR619  PRO620  LYS621  CYS622 
 ASP623  PHE694  ASN695  SER759  ASP760  ASP761  ALA762  ILE779  LEU786  VAL792 
 PHE793  MET794  SER795  GLU796  ALA797  LYS798  CYS799  TRP800  GLU811  SER814 

> <Gold.Protein.RotatedAtoms>
  152.2658  133.5338  159.5409 H   0  0  0  0  0  0  0  0  0  0  0  0  # atno 6907 bound_to 6896
  150.7141  134.0766  159.3892 H   0  0  0  0  0  0  0  0  0  0  0  0  # atno 6908 bound_to 6896
  151.8682  135.0499  160.0527 H   0  0  0  0  0  0  0  0  0  0  0  0  # atno 6909 bound_to 6896
  144.8954  140.6700  143.5118 H   0  0  0  0  0  0  0  0  0  0  0  0  # atno 7974 bound_to 7965
  156.2873  140.2199  156.5276 H   0  0  0  0  0  0  0  0  0  0  0  0  # atno 8008 bound_to 7997
  154.7476  140.0483  157.0888 H   0  0  0  0  0  0  0  0  0  0  0  0  # atno 8009 bound_to 7997
  155.0151  140.3117  155.4818 H   0  0  0  0  0  0  0  0  0  0  0  0  # atno 8010 bound_to 7997
  140.5675  143.9224  150.6687 H   0  0  0  0  0  0  0  0  0  0  0  0  # atno 10167 bound_to 10162
  156.7718  130.9451  151.3120 H   0  0  0  0  0  0  0  0  0  0  0  0  # atno 10718 bound_to 10713
  153.7196  135.3255  155.3264 H   0  0  0  0  0  0  0  0  0  0  0  0  # atno 10763 bound_to 10752
  154.8360  135.4496  154.1231 H   0  0  0  0  0  0  0  0  0  0  0  0  # atno 10764 bound_to 10752
  153.2347  135.6964  153.7930 H   0  0  0  0  0  0  0  0  0  0  0  0  # atno 10765 bound_to 10752
  140.8724  134.2034  157.4642 H   0  0  0  0  0  0  0  0  0  0  0  0  # atno 11005 bound_to 11000
  145.3708  139.1659  143.4333 LP  0  0  0  0  0  0  0  0  0  0  0  0  # atno 17320 bound_to 7965
  146.3078  140.3780  142.8681 LP  0  0  0  0  0  0  0  0  0  0  0  0  # atno 17321 bound_to 7965
  140.2690  143.3469  152.1255 LP  0  0  0  0  0  0  0  0  0  0  0  0  # atno 17342 bound_to 10162
  139.5100  144.6877  151.5843 LP  0  0  0  0  0  0  0  0  0  0  0  0  # atno 17343 bound_to 10162
  157.6687  130.9031  149.9991 LP  0  0  0  0  0  0  0  0  0  0  0  0  # atno 17370 bound_to 10713
  156.1273  130.3644  149.9789 LP  0  0  0  0  0  0  0  0  0  0  0  0  # atno 17371 bound_to 10713
  139.8713  134.9780  156.4982 LP  0  0  0  0  0  0  0  0  0  0  0  0  # atno 17394 bound_to 11000
  140.8557  133.8098  155.9214 LP  0  0  0  0  0  0  0  0  0  0  0  0  # atno 17395 bound_to 11000

$$$$
