AV-unprocessed.smi:2010|AV-procd|sdf|8150|dock6
  -GOLD-   2272010393D 1   1.00000     0.00000
 Structure written by MMmdl.
 41 42  0  0  0  0  0  0  0  0  1 V2000
  152.1182  145.2931  159.0536 C   0  0  0  0  0  0  0  0  0  0  0  0
  151.8459  143.7841  159.1268 C   0  0  0  0  0  0  0  0  0  0  0  0
  153.0542  143.0129  159.6752 C   0  0  0  0  0  0  0  0  0  0  0  0
  152.7748  141.5028  159.7526 C   0  0  0  0  0  0  0  0  0  0  0  0
  152.3300  140.9646  158.4515 N   0  0  0  0  0  0  0  0  0  0  0  0
  152.3963  139.2483  158.2193 S   0  0  0  0  0  0  0  0  0  0  0  0
  153.8014  138.8377  158.0745 O   0  0  0  0  0  0  0  0  0  0  0  0
  151.5094  138.5904  159.1911 O   0  0  0  0  0  0  0  0  0  0  0  0
  151.6516  139.1658  156.6688 N   0  0  0  0  0  0  0  0  0  0  0  0
  151.4843  137.8672  156.0134 C   0  0  1  0  0  0  0  0  0  0  0  0
  150.7651  136.9009  156.9669 C   0  0  0  0  0  0  0  0  0  0  0  0
  150.7860  138.0559  154.6502 C   0  0  0  0  0  0  0  0  0  0  0  0
  149.8876  139.1986  154.6102 N   0  0  0  0  0  0  0  0  0  0  0  0
  148.5444  139.2187  154.2974 C   0  0  0  0  0  0  0  0  0  0  0  0
  148.1241  140.5144  154.3896 C   0  0  0  0  0  0  0  0  0  0  0  0
  149.2962  141.2226  154.7760 C   0  0  0  0  0  0  0  0  0  0  0  0
  150.3495  140.4327  154.9090 N   0  0  0  0  0  0  0  0  0  0  0  0
  151.2045  141.6948  157.8345 C   0  0  0  0  0  0  0  0  0  0  0  0
  151.4849  143.2039  157.7528 C   0  0  0  0  0  0  0  0  0  0  0  0
  152.9561  145.5131  158.3913 H   0  0  0  0  0  0  0  0  0  0  0  0
  152.3559  145.6966  160.0381 H   0  0  0  0  0  0  0  0  0  0  0  0
  151.2470  145.8309  158.6786 H   0  0  0  0  0  0  0  0  0  0  0  0
  151.0019  143.6280  159.8002 H   0  0  0  0  0  0  0  0  0  0  0  0
  153.9240  143.1884  159.0404 H   0  0  0  0  0  0  0  0  0  0  0  0
  153.3171  143.3850  160.6658 H   0  0  0  0  0  0  0  0  0  0  0  0
  153.6784  140.9857  160.0751 H   0  0  0  0  0  0  0  0  0  0  0  0
  152.0087  141.2982  160.5014 H   0  0  0  0  0  0  0  0  0  0  0  0
  150.8279  139.7620  156.5961 H   0  0  0  0  0  0  0  0  0  0  0  0
  152.4758  137.4583  155.8145 H   0  0  0  0  0  0  0  0  0  0  0  0
  150.6235  135.9263  156.4994 H   0  0  0  0  0  0  0  0  0  0  0  0
  149.7841  137.2757  157.2599 H   0  0  0  0  0  0  0  0  0  0  0  0
  151.3453  136.7484  157.8774 H   0  0  0  0  0  0  0  0  0  0  0  0
  151.5286  138.1755  153.8601 H   0  0  0  0  0  0  0  0  0  0  0  0
  150.2181  137.1586  154.3996 H   0  0  0  0  0  0  0  0  0  0  0  0
  148.0079  138.3190  154.0347 H   0  0  0  0  0  0  0  0  0  0  0  0
  147.1307  140.8978  154.2099 H   0  0  0  0  0  0  0  0  0  0  0  0
  149.4124  142.2799  154.9632 H   0  0  0  0  0  0  0  0  0  0  0  0
  151.0191  141.3080  156.8325 H   0  0  0  0  0  0  0  0  0  0  0  0
  150.3007  141.5099  158.4165 H   0  0  0  0  0  0  0  0  0  0  0  0
  150.6103  143.7146  157.3486 H   0  0  0  0  0  0  0  0  0  0  0  0
  152.2988  143.3842  157.0489 H   0  0  0  0  0  0  0  0  0  0  0  0
  1  2  1  0  0  0  0
  1 20  1  0  0  0  0
  1 21  1  0  0  0  0
  1 22  1  0  0  0  0
  2 19  1  0  0  0  0
  2  3  1  0  0  0  0
  2 23  1  0  0  0  0
  3  4  1  0  0  0  0
  3 24  1  0  0  0  0
  3 25  1  0  0  0  0
  4  5  1  0  0  0  0
  4 26  1  0  0  0  0
  4 27  1  0  0  0  0
  5  6  1  0  0  0  0
  5 18  1  0  0  0  0
  6  7  2  0  0  0  0
  6  8  2  0  0  0  0
  6  9  1  0  0  0  0
  9 10  1  0  0  0  0
  9 28  1  0  0  0  0
 10 11  1  0  0  0  0
 10 12  1  0  0  0  0
 10 29  1  0  0  0  0
 11 30  1  0  0  0  0
 11 31  1  0  0  0  0
 11 32  1  0  0  0  0
 12 13  1  0  0  0  0
 12 33  1  0  0  0  0
 12 34  1  0  0  0  0
 13 17  1  0  0  0  0
 13 14  1  0  0  0  0
 14 15  2  0  0  0  0
 14 35  1  0  0  0  0
 15 16  1  0  0  0  0
 15 36  1  0  0  0  0
 16 17  2  0  0  0  0
 16 37  1  0  0  0  0
 18 19  1  0  0  0  0
 18 38  1  0  0  0  0
 18 39  1  0  0  0  0
 19 40  1  0  0  0  0
 19 41  1  0  0  0  0
M  END
> <s_m_source_file>
AV-unprocessed.smi

> <i_m_source_file_index>
2010

> <i_lp_mmshare_version>
43012

> <i_f3d_flags>
0

> <s_epik_input>
W0NIM11bQ0hdMVtDSDJdW0NIMl1OKFtDSDJdW0NIMl0xKVMoPU8pKD1PKVtOSF1bQ0BIXShbQ0gzXSlbQ0gyXW4yW2NIXVtjSF1bY0hdbjI=

> <s_epik_cmdline>
J2VwaWtfcHl0aG9uJywgJy1waCcsICc3LjAnLCAnLXRuJywgJzgnLCAnLW1hJywgJzIwMCcsICctbWV0YWxfYmluZGluZycsICctaW1hZScsICc8aW5maWxlLm1hZT4nLCAnLW9tYWUnLCAnPG91dGZpbGUubWFlPic=

> <r_lp_tautomer_probability>
1

> <r_epik_Ionization_Penalty>
0.0313937

> <r_epik_Ionization_Penalty_Charging>
0

> <r_epik_Ionization_Penalty_Neutral>
0.0313937

> <r_epik_State_Penalty>
0.0259441

> <r_epik_Charging_Adjusted_Penalty>
0.0259441

> <i_epik_Tot_Q>
0

> <i_epik_Tot_abs_Q>
0

> <r_epik_Metal_State_Penalty>
0.365037

> <b_epik_Metal_Only>
0

> <s_lp_Force_Field>
OPLS_2005

> <r_lp_Energy>
7.16397

> <b_lp_Chiralities_Consistent>
1

> <s_lp_Variant>
AV-unprocessed.smi:2010-2

> <Gold.Version>
5.8.1

> <Gold.Id.Protein>
6NUR|6NUR_protein|mol2

> <Gold.PLP.Fitness>
48.9287

> <Gold.PLP.PLP>
-41.3144

> <Gold.PLP.part.hbond>
-1.8455

> <Gold.PLP.part.metal>
0.0000

> <Gold.PLP.part.buried>
-4.1475

> <Gold.PLP.part.nonpolar>
-34.9704

> <Gold.PLP.part.repulsive>
0.0923

> <Gold.PLP.ligand.clash>
0.0000

> <Gold.PLP.ligand.torsion>
1.7152

> <Gold.PLP.Chemscore.Hbond>
1.9760

> <Gold.PLP.Chemscore.CHOScore>
1.0000

> <Gold.PLP.Chemscore.Metal>
0.0000

> <Gold.Chemscore.Hbonds>
donor molecule, donor type, donor heavy atom, donor atom, acceptor molecule, acceptor atom, score
      P1  H  7989  7998       L1    17  1.00
      P1  H  7997  8010       L1     7  1.00
      L1  C    16    37       P1  8028  0.87

> <Gold.PLP.Chemscore.Internal.Correction>
2.1168

> <Gold.Rescore>
     Score         DG    S(hbond)    S(metal)    S(lipo)     H(rot)  DE(clash)    DE(int)     intcor
     14.28     -18.93       1.84        0.00      97.36       1.59       0.05       4.61       ----

> <Gold.Chemscore.Fitness>
14.2775

> <Gold.Chemscore.DG>
-18.9330

> <Gold.Chemscore.ZeroCoef>
-5.4800

> <Gold.Chemscore.Hbond>
1.8362

> <Gold.Chemscore.Metal>
0.0000

> <Gold.Chemscore.Lipo>
97.3583

> <Gold.Chemscore.Internal_Hbond>
0.0000

> <Gold.Chemscore.DEClash>
0.0464

> <Gold.Chemscore.DEInternal>
4.6091

> <Gold.Chemscore.Rot>
1.5901

> <Gold.Chemscore.Internal.Correction>
   9.000000E+99

> <Gold.Chemscore.Hbonds>
donor molecule, donor type, donor heavy atom, donor atom, acceptor molecule, acceptor atom, score
      P1  H  7989  7998       L1    17  0.34
      P1  H  7997  8010       L1     7  0.49

> <Gold.Chemscore.Hbond.Weighted>
-6.1327

> <Gold.Chemscore.Metal.Weighted>
-0.0000

> <Gold.Chemscore.Lipo.Weighted>
-11.3909

> <Gold.Chemscore.Internal_Hbond.Weighted>
0.0000

> <Gold.Chemscore.DEClash.Weighted>
0.0464

> <Gold.Chemscore.DEInternal.Weighted>
4.6091

> <Gold.Chemscore.Rot.Weighted>
4.0707

> <Gold.Chemscore.Internal.Correction.Weighted>
   9.000000E+99

> <Gold.Protein.RotatedTorsions>
[ 6907 6896 6895 6894 ] final   82.44 input  -60.11 | X-H torsion
[ 7974 7965 7964 7962 ] final  112.86 input  175.53 | X-H torsion
[ 8008 7997 7996 7995 ] final   43.11 input   59.86 | X-H torsion
[ 10167 10162 10161 10158 ] final  -35.97 input  -65.29 | X-H torsion
[ 10718 10713 10712 10709 ] final   36.15 input   66.30 | X-H torsion
[ 10763 10752 10751 10750 ] final -162.61 input  -60.55 | X-H torsion
[ 11005 11000 10999 10996 ] final -103.14 input  -57.11 | X-H torsion

> <Gold.Protein.ActiveResidues>
 VAL166  LYS551  ARG553  GLY616  TRP617  ASP618  TYR619  PRO620  LYS621  CYS622 
 ASP623  PHE694  ASN695  SER759  ASP760  ASP761  ALA762  ILE779  LEU786  VAL792 
 PHE793  MET794  SER795  GLU796  ALA797  LYS798  CYS799  TRP800  GLU811  SER814 

> <Gold.Protein.RotatedAtoms>
  152.5299  134.3049  159.9092 H   0  0  0  0  0  0  0  0  0  0  0  0  # atno 6907 bound_to 6896
  151.3000  133.4120  159.2646 H   0  0  0  0  0  0  0  0  0  0  0  0  # atno 6908 bound_to 6896
  151.0127  134.9426  159.8073 H   0  0  0  0  0  0  0  0  0  0  0  0  # atno 6909 bound_to 6896
  145.2242  139.2848  143.4202 H   0  0  0  0  0  0  0  0  0  0  0  0  # atno 7974 bound_to 7965
  155.2973  140.3382  155.4249 H   0  0  0  0  0  0  0  0  0  0  0  0  # atno 8008 bound_to 7997
  156.2018  140.1736  156.7923 H   0  0  0  0  0  0  0  0  0  0  0  0  # atno 8009 bound_to 7997
  154.5569  140.0695  156.8741 H   0  0  0  0  0  0  0  0  0  0  0  0  # atno 8010 bound_to 7997
  140.7153  143.3440  151.2296 H   0  0  0  0  0  0  0  0  0  0  0  0  # atno 10167 bound_to 10162
  157.3314  130.7499  149.6850 H   0  0  0  0  0  0  0  0  0  0  0  0  # atno 10718 bound_to 10713
  154.7199  135.3023  154.9065 H   0  0  0  0  0  0  0  0  0  0  0  0  # atno 10763 bound_to 10752
  153.9940  135.6715  153.4759 H   0  0  0  0  0  0  0  0  0  0  0  0  # atno 10764 bound_to 10752
  153.0825  135.5001  154.8447 H   0  0  0  0  0  0  0  0  0  0  0  0  # atno 10765 bound_to 10752
  141.1159  133.8616  157.1448 H   0  0  0  0  0  0  0  0  0  0  0  0  # atno 11005 bound_to 11000
  146.3369  140.2557  142.8600 LP  0  0  0  0  0  0  0  0  0  0  0  0  # atno 17320 bound_to 7965
  144.9737  140.8393  143.5439 LP  0  0  0  0  0  0  0  0  0  0  0  0  # atno 17321 bound_to 7965
  139.6955  143.9620  152.2880 LP  0  0  0  0  0  0  0  0  0  0  0  0  # atno 17342 bound_to 10162
  139.9296  144.6749  150.8377 LP  0  0  0  0  0  0  0  0  0  0  0  0  # atno 17343 bound_to 10162
  155.9696  130.4194  150.4374 LP  0  0  0  0  0  0  0  0  0  0  0  0  # atno 17370 bound_to 10713
  157.2407  131.0524  151.2438 LP  0  0  0  0  0  0  0  0  0  0  0  0  # atno 17371 bound_to 10713
  140.0081  135.0000  157.0335 LP  0  0  0  0  0  0  0  0  0  0  0  0  # atno 17394 bound_to 11000
  140.4648  134.1447  155.7195 LP  0  0  0  0  0  0  0  0  0  0  0  0  # atno 17395 bound_to 11000

$$$$
