AV-unprocessed.smi:1554|AV-procd|sdf|6256|dock10
  -GOLD-   22720 6443D 1   1.00000     0.00000
 Structure written by MMmdl.
 49 51  0  0  0  0  0  0  0  0  3 V2000
  153.5477  142.2527  161.2956 C   0  0  0  0  0  0  0  0  0  0  0  0
  152.7325  141.9265  160.0556 C   0  0  0  0  0  0  0  0  0  0  0  0
  152.7515  140.6014  159.5650 C   0  0  0  0  0  0  0  0  0  0  0  0
  151.9995  140.3353  158.4269 C   0  0  0  0  0  0  0  0  0  0  0  0
  151.8162  139.1522  157.7085 N   0  3  0  0  0  0  0  0  0  0  0  0
  150.9858  139.3839  156.6544 C   0  0  0  0  0  0  0  0  0  0  0  0
  150.6377  140.6993  156.6869 N   0  0  0  0  0  0  0  0  0  0  0  0
  149.7623  141.4604  155.7830 C   0  0  0  0  0  0  0  0  0  0  0  0
  149.1853  140.6016  154.6398 C   0  0  2  0  0  0  0  0  0  0  0  0
  150.2341  140.1649  153.7973 O   0  0  0  0  0  0  0  0  0  0  0  0
  148.1695  141.3933  153.7919 C   0  0  0  0  0  0  0  0  0  0  0  0
  147.0149  141.8874  154.5853 N   0  3  1  0  0  0  0  0  0  0  0  0
  146.1782  142.8821  153.8693 C   0  0  0  0  0  0  0  0  0  0  0  0
  145.0339  143.3692  154.7734 C   0  0  0  0  0  0  0  0  0  0  0  0
  144.2630  142.2569  155.2102 O   0  0  0  0  0  0  0  0  0  0  0  0
  145.0303  141.3373  155.9789 C   0  0  1  0  0  0  0  0  0  0  0  0
  144.0944  140.2303  156.4765 C   0  0  0  0  0  0  0  0  0  0  0  0
  146.1727  140.7839  155.1052 C   0  0  0  0  0  0  0  0  0  0  0  0
  151.2438  141.3322  157.7795 C   0  0  0  0  0  0  0  0  0  0  0  0
  151.2125  142.6424  158.2517 C   0  0  0  0  0  0  0  0  0  0  0  0
  151.9726  142.9341  159.4069 C   0  0  0  0  0  0  0  0  0  0  0  0
  151.9593  144.3559  159.9421 C   0  0  0  0  0  0  0  0  0  0  0  0
  154.0505  141.3678  161.6868 H   0  0  0  0  0  0  0  0  0  0  0  0
  152.9063  142.6469  162.0841 H   0  0  0  0  0  0  0  0  0  0  0  0
  154.3120  142.9956  161.0660 H   0  0  0  0  0  0  0  0  0  0  0  0
  153.3283  139.8294  160.0534 H   0  0  0  0  0  0  0  0  0  0  0  0
  150.6617  138.6547  155.9258 H   0  0  0  0  0  0  0  0  0  0  0  0
  148.9490  141.8598  156.3903 H   0  0  0  0  0  0  0  0  0  0  0  0
  150.3053  142.3242  155.3984 H   0  0  0  0  0  0  0  0  0  0  0  0
  148.7135  139.7222  155.0774 H   0  0  0  0  0  0  0  0  0  0  0  0
  149.8857  140.0329  152.9283 H   0  0  0  0  0  0  0  0  0  0  0  0
  148.6555  142.2380  153.3010 H   0  0  0  0  0  0  0  0  0  0  0  0
  147.8091  140.7442  152.9918 H   0  0  0  0  0  0  0  0  0  0  0  0
  146.7773  143.7373  153.5598 H   0  0  0  0  0  0  0  0  0  0  0  0
  145.7696  142.4331  152.9625 H   0  0  0  0  0  0  0  0  0  0  0  0
  145.4216  143.9197  155.6321 H   0  0  0  0  0  0  0  0  0  0  0  0
  144.3867  144.0527  154.2239 H   0  0  0  0  0  0  0  0  0  0  0  0
  145.4473  141.8538  156.8453 H   0  0  0  0  0  0  0  0  0  0  0  0
  144.6340  139.5037  157.0844 H   0  0  0  0  0  0  0  0  0  0  0  0
  143.6358  139.6955  155.6443 H   0  0  0  0  0  0  0  0  0  0  0  0
  143.2924  140.6438  157.0885 H   0  0  0  0  0  0  0  0  0  0  0  0
  145.7675  140.2114  154.2691 H   0  0  0  0  0  0  0  0  0  0  0  0
  146.7858  140.1008  155.6949 H   0  0  0  0  0  0  0  0  0  0  0  0
  150.6379  143.4122  157.7583 H   0  0  0  0  0  0  0  0  0  0  0  0
  151.3603  145.0142  159.3123 H   0  0  0  0  0  0  0  0  0  0  0  0
  152.9703  144.7622  159.9789 H   0  0  0  0  0  0  0  0  0  0  0  0
  151.5376  144.3815  160.9471 H   0  0  0  0  0  0  0  0  0  0  0  0
  147.4034  142.3513  155.3946 H   0  0  0  0  0  0  0  0  0  0  0  0
  152.2248  138.2509  157.9211 H   0  0  0  0  0  0  0  0  0  0  0  0
  1  2  1  0  0  0  0
  1 23  1  0  0  0  0
  1 24  1  0  0  0  0
  1 25  1  0  0  0  0
  2 21  1  0  0  0  0
  2  3  2  0  0  0  0
  3  4  1  0  0  0  0
  3 26  1  0  0  0  0
  4 19  2  0  0  0  0
  4  5  1  0  0  0  0
  5  6  2  0  0  0  0
  5 49  1  0  0  0  0
  6  7  1  0  0  0  0
  6 27  1  0  0  0  0
  7  8  1  0  0  0  0
  7 19  1  0  0  0  0
  8  9  1  0  0  0  0
  8 28  1  0  0  0  0
  8 29  1  0  0  0  0
  9 10  1  0  0  0  0
  9 11  1  0  0  0  0
  9 30  1  0  0  0  0
 10 31  1  0  0  0  0
 11 12  1  0  0  0  0
 11 32  1  0  0  0  0
 11 33  1  0  0  0  0
 12 18  1  0  0  0  0
 12 13  1  0  0  0  0
 12 48  1  0  0  0  0
 13 14  1  0  0  0  0
 13 34  1  0  0  0  0
 13 35  1  0  0  0  0
 14 15  1  0  0  0  0
 14 36  1  0  0  0  0
 14 37  1  0  0  0  0
 15 16  1  0  0  0  0
 16 17  1  0  0  0  0
 16 18  1  0  0  0  0
 16 38  1  0  0  0  0
 17 39  1  0  0  0  0
 17 40  1  0  0  0  0
 17 41  1  0  0  0  0
 18 42  1  0  0  0  0
 18 43  1  0  0  0  0
 19 20  1  0  0  0  0
 20 21  2  0  0  0  0
 20 44  1  0  0  0  0
 21 22  1  0  0  0  0
 22 45  1  0  0  0  0
 22 46  1  0  0  0  0
 22 47  1  0  0  0  0
M  CHG  1   5   1
M  CHG  1  12   1
M  END
> <s_m_source_file>
AV-unprocessed.smi

> <i_m_source_file_index>
1554

> <i_lp_mmshare_version>
43012

> <i_f3d_flags>
0

> <s_epik_input>
W0NIM11jKFtjSF0xKWMoW0NIM10pW2NIXWMoYzEyKW4oW2NIXW4yKVtDSDJdW0NASF0oW09IXSlbQ0gyXU4zW0NIMl1bQ0gyXU9bQ0BASF0oW0NIM10pW0NIMl0z

> <s_epik_cmdline>
J2VwaWtfcHl0aG9uJywgJy1waCcsICc3LjAnLCAnLXRuJywgJzgnLCAnLW1hJywgJzIwMCcsICctbWV0YWxfYmluZGluZycsICctaW1hZScsICc8aW5maWxlLm1hZT4nLCAnLW9tYWUnLCAnPG91dGZpbGUubWFlPic=

> <r_epik_Ionization_Penalty>
1.8848

> <r_epik_Ionization_Penalty_Charging>
1.88479

> <r_epik_Ionization_Penalty_Neutral>
1.42224e-05

> <r_epik_State_Penalty>
1.94551

> <r_epik_Charging_Adjusted_Penalty>
3.8303

> <i_epik_Tot_Q>
2

> <i_epik_Tot_abs_Q>
2

> <r_epik_Metal_State_Penalty>
5.95849

> <b_epik_Metal_Only>
0

> <s_lp_Force_Field>
OPLS_2005

> <r_lp_Energy>
29.8274

> <b_lp_Chiralities_Consistent>
1

> <s_lp_Variant>
AV-unprocessed.smi:1554-17

> <Gold.Version>
5.8.1

> <Gold.Id.Protein>
6NUR|6NUR_protein|mol2

> <Gold.PLP.Fitness>
49.7116

> <Gold.PLP.PLP>
-44.2571

> <Gold.PLP.part.hbond>
-1.8720

> <Gold.PLP.part.metal>
0.0000

> <Gold.PLP.part.buried>
-5.4298

> <Gold.PLP.part.nonpolar>
-36.7369

> <Gold.PLP.part.repulsive>
0.3161

> <Gold.PLP.ligand.clash>
0.0000

> <Gold.PLP.ligand.torsion>
0.0593

> <Gold.PLP.Chemscore.Hbond>
1.8480

> <Gold.PLP.Chemscore.CHOScore>
0.0000

> <Gold.PLP.Chemscore.Metal>
0.0000

> <Gold.Chemscore.Hbonds>
donor molecule, donor type, donor heavy atom, donor atom, acceptor molecule, acceptor atom, score
      L1  H    10    31       P1  7957  1.00
      P1  H  7989  7998       L1    10  0.83

> <Gold.PLP.Chemscore.Internal.Correction>
0.0292

> <Gold.Rescore>
     Score         DG    S(hbond)    S(metal)    S(lipo)     H(rot)  DE(clash)    DE(int)     intcor
     18.21     -18.47       1.56        0.00     112.57       2.11       0.02       0.24       ----

> <Gold.Chemscore.Fitness>
18.2052

> <Gold.Chemscore.DG>
-18.4680

> <Gold.Chemscore.ZeroCoef>
-5.4800

> <Gold.Chemscore.Hbond>
1.5643

> <Gold.Chemscore.Metal>
0.0000

> <Gold.Chemscore.Lipo>
112.5689

> <Gold.Chemscore.Internal_Hbond>
0.0000

> <Gold.Chemscore.DEClash>
0.0233

> <Gold.Chemscore.DEInternal>
0.2394

> <Gold.Chemscore.Rot>
2.1122

> <Gold.Chemscore.Internal.Correction>
   9.000000E+99

> <Gold.Chemscore.Hbonds>
donor molecule, donor type, donor heavy atom, donor atom, acceptor molecule, acceptor atom, score
      L1  H    10    31       P1  7957  1.00
      P1  H  7989  7998       L1    10  0.24

> <Gold.Chemscore.Hbond.Weighted>
-5.2247

> <Gold.Chemscore.Metal.Weighted>
-0.0000

> <Gold.Chemscore.Lipo.Weighted>
-13.1706

> <Gold.Chemscore.Internal_Hbond.Weighted>
0.0000

> <Gold.Chemscore.DEClash.Weighted>
0.0233

> <Gold.Chemscore.DEInternal.Weighted>
0.2394

> <Gold.Chemscore.Rot.Weighted>
5.4073

> <Gold.Chemscore.Internal.Correction.Weighted>
   9.000000E+99

> <Gold.Protein.RotatedTorsions>
[ 6907 6896 6895 6894 ] final -103.46 input  -60.11 | X-H torsion
[ 7974 7965 7964 7962 ] final  152.38 input  175.53 | X-H torsion
[ 8008 7997 7996 7995 ] final  -36.36 input   59.86 | X-H torsion
[ 10167 10162 10161 10158 ] final  126.64 input  -65.29 | X-H torsion
[ 10718 10713 10712 10709 ] final   13.32 input   66.30 | X-H torsion
[ 10763 10752 10751 10750 ] final   57.03 input  -60.55 | X-H torsion
[ 11005 11000 10999 10996 ] final   98.18 input  -57.11 | X-H torsion

> <Gold.Protein.ActiveResidues>
 VAL166  LYS551  ARG553  GLY616  TRP617  ASP618  TYR619  PRO620  LYS621  CYS622 
 ASP623  PHE694  ASN695  SER759  ASP760  ASP761  ALA762  ILE779  LEU786  VAL792 
 PHE793  MET794  SER795  GLU796  ALA797  LYS798  CYS799  TRP800  GLU811  SER814 

> <Gold.Protein.RotatedAtoms>
  150.7241  134.0425  159.3770 H   0  0  0  0  0  0  0  0  0  0  0  0  # atno 6907 bound_to 6896
  151.8399  135.0591  160.0456 H   0  0  0  0  0  0  0  0  0  0  0  0  # atno 6908 bound_to 6896
  152.2870  133.5489  159.5570 H   0  0  0  0  0  0  0  0  0  0  0  0  # atno 6909 bound_to 6896
  144.8227  139.6661  143.6093 H   0  0  0  0  0  0  0  0  0  0  0  0  # atno 7974 bound_to 7965
  154.4075  140.1633  156.2361 H   0  0  0  0  0  0  0  0  0  0  0  0  # atno 8008 bound_to 7997
  155.9241  140.3419  155.6174 H   0  0  0  0  0  0  0  0  0  0  0  0  # atno 8009 bound_to 7997
  155.7186  140.0765  157.2331 H   0  0  0  0  0  0  0  0  0  0  0  0  # atno 8010 bound_to 7997
  139.5620  144.6888  151.4015 H   0  0  0  0  0  0  0  0  0  0  0  0  # atno 10167 bound_to 10162
  157.0230  130.6162  149.5724 H   0  0  0  0  0  0  0  0  0  0  0  0  # atno 10718 bound_to 10713
  152.9842  135.5655  154.5325 H   0  0  0  0  0  0  0  0  0  0  0  0  # atno 10763 bound_to 10752
  154.4794  135.2788  155.1584 H   0  0  0  0  0  0  0  0  0  0  0  0  # atno 10764 bound_to 10752
  154.3099  135.6290  153.5514 H   0  0  0  0  0  0  0  0  0  0  0  0  # atno 10765 bound_to 10752
  139.8773  134.9037  156.4418 H   0  0  0  0  0  0  0  0  0  0  0  0  # atno 11005 bound_to 11000
  146.2532  139.6245  142.9413 LP  0  0  0  0  0  0  0  0  0  0  0  0  # atno 17320 bound_to 7965
  145.5070  141.0436  143.2509 LP  0  0  0  0  0  0  0  0  0  0  0  0  # atno 17321 bound_to 7965
  140.6901  143.7881  150.7243 LP  0  0  0  0  0  0  0  0  0  0  0  0  # atno 17342 bound_to 10162
  140.1361  143.4482  152.2223 LP  0  0  0  0  0  0  0  0  0  0  0  0  # atno 17343 bound_to 10162
  156.0096  130.5186  150.7944 LP  0  0  0  0  0  0  0  0  0  0  0  0  # atno 17370 bound_to 10713
  157.5235  131.0933  151.0047 LP  0  0  0  0  0  0  0  0  0  0  0  0  # atno 17371 bound_to 10713
  140.8994  133.7790  155.9662 LP  0  0  0  0  0  0  0  0  0  0  0  0  # atno 17394 bound_to 11000
  140.8667  134.2775  157.5209 LP  0  0  0  0  0  0  0  0  0  0  0  0  # atno 17395 bound_to 11000

$$$$
