AV-unprocessed.smi:3071|AV-procd|sdf|11716|dock1
  -GOLD-   2272017113D 1   1.00000     0.00000
 Structure written by MMmdl.
 29 30  0  0  0  0  0  0  0  0  3 V2000
  151.1707  138.7224  154.3432 C   0  0  0  0  0  0  0  0  0  0  0  0
  150.2697  139.9150  154.3763 C   0  0  0  0  0  0  0  0  0  0  0  0
  149.3060  140.1846  153.4879 N   0  3  0  0  0  0  0  0  0  0  0  0
  148.6671  141.3492  153.8155 C   0  0  0  0  0  0  0  0  0  0  0  0
  149.2680  141.8122  154.9565 C   0  0  0  0  0  0  0  0  0  0  0  0
  150.2528  140.9119  155.2779 N   0  0  0  0  0  0  0  0  0  0  0  0
  151.1641  140.9913  156.4288 C   0  0  0  0  0  0  0  0  0  0  0  0
  150.8520  142.1777  157.3612 C   0  0  1  0  0  0  0  0  0  0  0  0
  151.5553  142.1372  158.7215 C   0  0  0  0  0  0  0  0  0  0  0  0
  151.5495  143.6005  159.1473 C   0  0  0  0  0  0  0  0  0  0  0  0
  151.7404  144.3570  157.8301 C   0  0  0  0  0  0  0  0  0  0  0  0
  151.2387  143.4702  156.7600 N   0  3  0  0  0  0  0  0  0  0  0  0
  150.9158  138.1085  153.4786 H   0  0  0  0  0  0  0  0  0  0  0  0
  151.0276  138.1484  155.2589 H   0  0  0  0  0  0  0  0  0  0  0  0
  152.2033  139.0617  154.2644 H   0  0  0  0  0  0  0  0  0  0  0  0
  147.8533  141.7497  153.2282 H   0  0  0  0  0  0  0  0  0  0  0  0
  149.0721  142.6953  155.5474 H   0  0  0  0  0  0  0  0  0  0  0  0
  151.0825  140.0503  156.9745 H   0  0  0  0  0  0  0  0  0  0  0  0
  152.1885  141.0462  156.0584 H   0  0  0  0  0  0  0  0  0  0  0  0
  149.7769  142.2268  157.5391 H   0  0  0  0  0  0  0  0  0  0  0  0
  151.0551  141.4865  159.4398 H   0  0  0  0  0  0  0  0  0  0  0  0
  152.5841  141.7907  158.6095 H   0  0  0  0  0  0  0  0  0  0  0  0
  150.5814  143.8526  159.5830 H   0  0  0  0  0  0  0  0  0  0  0  0
  152.3192  143.8326  159.8843 H   0  0  0  0  0  0  0  0  0  0  0  0
  151.2203  145.3155  157.8273 H   0  0  0  0  0  0  0  0  0  0  0  0
  152.7991  144.5485  157.6512 H   0  0  0  0  0  0  0  0  0  0  0  0
  151.9843  143.3227  156.0943 H   0  0  0  0  0  0  0  0  0  0  0  0
  150.4461  143.8873  156.2926 H   0  0  0  0  0  0  0  0  0  0  0  0
  149.0807  139.6049  152.6888 H   0  0  0  0  0  0  0  0  0  0  0  0
  1  2  1  0  0  0  0
  1 13  1  0  0  0  0
  1 14  1  0  0  0  0
  1 15  1  0  0  0  0
  2  6  1  0  0  0  0
  2  3  2  0  0  0  0
  3  4  1  0  0  0  0
  3 29  1  0  0  0  0
  4  5  2  0  0  0  0
  4 16  1  0  0  0  0
  5  6  1  0  0  0  0
  5 17  1  0  0  0  0
  6  7  1  0  0  0  0
  7  8  1  0  0  0  0
  7 18  1  0  0  0  0
  7 19  1  0  0  0  0
  8 12  1  0  0  0  0
  8  9  1  0  0  0  0
  8 20  1  0  0  0  0
  9 10  1  0  0  0  0
  9 21  1  0  0  0  0
  9 22  1  0  0  0  0
 10 11  1  0  0  0  0
 10 23  1  0  0  0  0
 10 24  1  0  0  0  0
 11 12  1  0  0  0  0
 11 25  1  0  0  0  0
 11 26  1  0  0  0  0
 12 27  1  0  0  0  0
 12 28  1  0  0  0  0
M  CHG  1   3   1
M  CHG  1  12   1
M  END
> <s_m_source_file>
AV-unprocessed.smi

> <i_m_source_file_index>
3071

> <i_lp_mmshare_version>
43012

> <i_f3d_flags>
0

> <s_epik_input>
W0NIM11jMW5bY0hdW2NIXW4xW0NIMl1bQ0BASF0yW0NIMl1bQ0gyXVtDSDJdW05IXTI=

> <s_epik_cmdline>
J2VwaWtfcHl0aG9uJywgJy1waCcsICc3LjAnLCAnLXRuJywgJzgnLCAnLW1hJywgJzIwMCcsICctbWV0YWxfYmluZGluZycsICctaW1hZScsICc8aW5maWxlLm1hZT4nLCAnLW9tYWUnLCAnPG91dGZpbGUubWFlPic=

> <r_lp_tautomer_probability>
1

> <r_epik_Ionization_Penalty>
0.770167

> <r_epik_Ionization_Penalty_Charging>
0.000985251

> <r_epik_Ionization_Penalty_Neutral>
0.769181

> <r_epik_State_Penalty>
0.493256

> <r_epik_Charging_Adjusted_Penalty>
0.494241

> <i_epik_Tot_Q>
2

> <i_epik_Tot_abs_Q>
2

> <r_epik_Metal_State_Penalty>
4.24699

> <b_epik_Metal_Only>
0

> <s_lp_Force_Field>
OPLS_2005

> <r_lp_Energy>
34.2931

> <b_lp_Chiralities_Consistent>
1

> <s_lp_Variant>
AV-unprocessed.smi:3071-4

> <Gold.Version>
5.8.1

> <Gold.Id.Protein>
6NUR|6NUR_protein|mol2

> <Gold.PLP.Fitness>
39.8622

> <Gold.PLP.PLP>
-30.3494

> <Gold.PLP.part.hbond>
-2.0000

> <Gold.PLP.part.metal>
0.0000

> <Gold.PLP.part.buried>
-1.4322

> <Gold.PLP.part.nonpolar>
-26.8659

> <Gold.PLP.part.repulsive>
0.1876

> <Gold.PLP.ligand.clash>
0.0000

> <Gold.PLP.ligand.torsion>
0.1007

> <Gold.PLP.Chemscore.Hbond>
2.2379

> <Gold.PLP.Chemscore.CHOScore>
1.0000

> <Gold.PLP.Chemscore.Metal>
0.0000

> <Gold.Chemscore.Hbonds>
donor molecule, donor type, donor heavy atom, donor atom, acceptor molecule, acceptor atom, score
      L1  H     3    29       P1  7957  0.42
      L1  H    12    28       P1  8028  2.00
      L1  C     5    17       P1  8028  1.00

> <Gold.PLP.Chemscore.Internal.Correction>
0.0004

> <Gold.Rescore>
     Score         DG    S(hbond)    S(metal)    S(lipo)     H(rot)  DE(clash)    DE(int)     intcor
     13.99     -15.30       1.43        0.00      70.37       1.25       1.22       0.09       ----

> <Gold.Chemscore.Fitness>
13.9931

> <Gold.Chemscore.DG>
-15.3028

> <Gold.Chemscore.ZeroCoef>
-5.4800

> <Gold.Chemscore.Hbond>
1.4322

> <Gold.Chemscore.Metal>
0.0000

> <Gold.Chemscore.Lipo>
70.3709

> <Gold.Chemscore.Internal_Hbond>
0.0000

> <Gold.Chemscore.DEClash>
1.2170

> <Gold.Chemscore.DEInternal>
0.0927

> <Gold.Chemscore.Rot>
1.2477

> <Gold.Chemscore.Internal.Correction>
   9.000000E+99

> <Gold.Chemscore.Hbonds>
donor molecule, donor type, donor heavy atom, donor atom, acceptor molecule, acceptor atom, score
      L1  H     3    29       P1  7957  0.42
      L1  H    12    28       P1  8028  1.00

> <Gold.Chemscore.Hbond.Weighted>
-4.7835

> <Gold.Chemscore.Metal.Weighted>
-0.0000

> <Gold.Chemscore.Lipo.Weighted>
-8.2334

> <Gold.Chemscore.Internal_Hbond.Weighted>
0.0000

> <Gold.Chemscore.DEClash.Weighted>
1.2170

> <Gold.Chemscore.DEInternal.Weighted>
0.0927

> <Gold.Chemscore.Rot.Weighted>
3.1941

> <Gold.Chemscore.Internal.Correction.Weighted>
   9.000000E+99

> <Gold.Protein.RotatedTorsions>
[ 6907 6896 6895 6894 ] final -146.44 input  -60.11 | X-H torsion
[ 7974 7965 7964 7962 ] final -145.05 input  175.53 | X-H torsion
[ 8008 7997 7996 7995 ] final  102.67 input   59.86 | X-H torsion
[ 10167 10162 10161 10158 ] final  -64.09 input  -65.29 | X-H torsion
[ 10718 10713 10712 10709 ] final  -51.55 input   66.30 | X-H torsion
[ 10763 10752 10751 10750 ] final   34.86 input  -60.55 | X-H torsion
[ 11005 11000 10999 10996 ] final  157.45 input  -57.11 | X-H torsion

> <Gold.Protein.ActiveResidues>
 VAL166  LYS551  ARG553  GLY616  TRP617  ASP618  TYR619  PRO620  LYS621  CYS622 
 ASP623  PHE694  ASN695  SER759  ASP760  ASP761  ALA762  ILE779  LEU786  VAL792 
 PHE793  MET794  SER795  GLU796  ALA797  LYS798  CYS799  TRP800  GLU811  SER814 

> <Gold.Protein.RotatedAtoms>
  151.1417  133.4966  159.2596 H   0  0  0  0  0  0  0  0  0  0  0  0  # atno 6907 bound_to 6896
  151.1647  135.0290  159.8736 H   0  0  0  0  0  0  0  0  0  0  0  0  # atno 6908 bound_to 6896
  152.5462  134.1287  159.8483 H   0  0  0  0  0  0  0  0  0  0  0  0  # atno 6909 bound_to 6896
  144.8254  140.5632  143.5550 H   0  0  0  0  0  0  0  0  0  0  0  0  # atno 7974 bound_to 7965
  156.1414  140.3177  155.8502 H   0  0  0  0  0  0  0  0  0  0  0  0  # atno 8008 bound_to 7997
  155.4146  140.0508  157.3046 H   0  0  0  0  0  0  0  0  0  0  0  0  # atno 8009 bound_to 7997
  154.4980  140.2118  155.9419 H   0  0  0  0  0  0  0  0  0  0  0  0  # atno 8010 bound_to 7997
  140.5825  143.2329  151.6312 H   0  0  0  0  0  0  0  0  0  0  0  0  # atno 10167 bound_to 10162
  156.1700  130.4149  149.9661 H   0  0  0  0  0  0  0  0  0  0  0  0  # atno 10718 bound_to 10713
  153.0145  135.6349  154.1735 H   0  0  0  0  0  0  0  0  0  0  0  0  # atno 10763 bound_to 10752
  154.1475  135.2831  155.3146 H   0  0  0  0  0  0  0  0  0  0  0  0  # atno 10764 bound_to 10752
  154.6078  135.5566  153.7502 H   0  0  0  0  0  0  0  0  0  0  0  0  # atno 10765 bound_to 10752
  140.1771  134.8502  157.2759 H   0  0  0  0  0  0  0  0  0  0  0  0  # atno 11005 bound_to 11000
  145.5012  139.1483  143.3656 LP  0  0  0  0  0  0  0  0  0  0  0  0  # atno 17320 bound_to 7965
  146.2559  140.5151  142.8873 LP  0  0  0  0  0  0  0  0  0  0  0  0  # atno 17321 bound_to 7965
  139.5178  144.3303  152.0832 LP  0  0  0  0  0  0  0  0  0  0  0  0  # atno 17342 bound_to 10162
  140.2456  144.4224  150.6242 LP  0  0  0  0  0  0  0  0  0  0  0  0  # atno 17343 bound_to 10162
  156.7464  130.9099  151.3635 LP  0  0  0  0  0  0  0  0  0  0  0  0  # atno 17370 bound_to 10713
  157.6796  130.9127  150.0234 LP  0  0  0  0  0  0  0  0  0  0  0  0  # atno 17371 bound_to 10713
  140.2310  134.3909  155.7522 LP  0  0  0  0  0  0  0  0  0  0  0  0  # atno 17394 bound_to 11000
  141.2221  133.7215  156.8641 LP  0  0  0  0  0  0  0  0  0  0  0  0  # atno 17395 bound_to 11000

$$$$
