AV-unprocessed.smi:176|AV-procd|sdf|1434|dock3
  -GOLD-   2262019213D 1   1.00000     0.00000
 Structure written by MMmdl.
 57 61  0  0  0  0  0  0  0  0  1 V2000
  146.9934  132.5960  149.8927 O   0  0  0  0  0  0  0  0  0  0  0  0
  145.6533  132.1508  149.8386 C   0  0  0  0  0  0  0  0  0  0  0  0
  144.7591  132.9633  150.7892 C   0  0  0  0  0  0  0  0  0  0  0  0
  143.3288  132.3880  150.7567 C   0  0  0  0  0  0  0  0  0  0  0  0
  142.8821  132.1873  149.4307 O   0  0  0  0  0  0  0  0  0  0  0  0
  145.3387  133.2096  152.2004 C   0  0  0  0  0  0  0  0  0  0  0  0
  144.8336  134.6529  152.1497 C   0  0  0  0  0  0  0  0  0  0  0  0
  145.5552  135.7092  152.7962 N   0  0  0  0  0  0  0  0  0  0  0  0
  145.3657  137.0624  152.6261 C   0  0  0  0  0  0  0  0  0  0  0  0
  146.1243  137.8275  153.3621 N   0  0  0  0  0  0  0  0  0  0  0  0
  146.8711  136.9342  154.1210 C   0  0  0  0  0  0  0  0  0  0  0  0
  147.8676  137.0821  155.1258 C   0  0  0  0  0  0  0  0  0  0  0  0
  148.3234  138.2950  155.5259 N   0  0  0  0  0  0  0  0  0  0  0  0
  147.3652  139.0764  156.3044 C   0  0  0  0  0  0  0  0  0  0  0  0
  148.0729  140.2037  157.0756 C   0  0  0  0  0  0  0  0  0  0  0  0
  148.9538  141.0803  156.1530 C   0  0  1  0  0  0  0  0  0  0  0  0
  148.0851  141.7882  155.2860 O   0  0  0  0  0  0  0  0  0  0  0  0
  149.7436  142.1570  156.9342 C   0  0  0  0  0  0  0  0  0  0  0  0
  150.9116  141.5740  157.7467 C   0  0  0  0  0  0  0  0  0  0  0  0
  151.8474  140.7506  156.8518 C   0  0  0  0  0  0  0  0  0  0  0  0
  151.0785  139.6374  156.1258 C   0  0  0  0  0  0  0  0  0  0  0  0
  149.9038  140.1991  155.2937 C   0  0  1  0  0  0  0  0  0  0  0  0
  149.1332  139.0661  154.5818 C   0  0  0  0  0  0  0  0  0  0  0  0
  148.3638  135.9474  155.6879 N   0  0  0  0  0  0  0  0  0  0  0  0
  147.9255  134.7499  155.2881 C   0  0  0  0  0  0  0  0  0  0  0  0
  147.0127  134.4632  154.3579 N   0  0  0  0  0  0  0  0  0  0  0  0
  146.5080  135.5977  153.7937 C   0  0  0  0  0  0  0  0  0  0  0  0
  144.8533  134.4962  150.6274 C   0  0  0  0  0  0  0  0  0  0  0  0
  147.5567  131.8419  149.9773 H   0  0  0  0  0  0  0  0  0  0  0  0
  145.3017  132.2059  148.8082 H   0  0  0  0  0  0  0  0  0  0  0  0
  145.6437  131.0943  150.1079 H   0  0  0  0  0  0  0  0  0  0  0  0
  143.2784  131.4289  151.2722 H   0  0  0  0  0  0  0  0  0  0  0  0
  142.6238  133.0430  151.2691 H   0  0  0  0  0  0  0  0  0  0  0  0
  142.1732  132.7880  149.2589 H   0  0  0  0  0  0  0  0  0  0  0  0
  144.8974  132.6078  152.9954 H   0  0  0  0  0  0  0  0  0  0  0  0
  146.4285  133.1533  152.2315 H   0  0  0  0  0  0  0  0  0  0  0  0
  143.8088  134.7159  152.5196 H   0  0  0  0  0  0  0  0  0  0  0  0
  144.6480  137.4698  151.9290 H   0  0  0  0  0  0  0  0  0  0  0  0
  146.6234  139.4965  155.6239 H   0  0  0  0  0  0  0  0  0  0  0  0
  146.8179  138.4499  157.0082 H   0  0  0  0  0  0  0  0  0  0  0  0
  147.3334  140.8172  157.5917 H   0  0  0  0  0  0  0  0  0  0  0  0
  148.6827  139.7505  157.8568 H   0  0  0  0  0  0  0  0  0  0  0  0
  148.2217  142.7141  155.4154 H   0  0  0  0  0  0  0  0  0  0  0  0
  150.1512  142.8875  156.2333 H   0  0  0  0  0  0  0  0  0  0  0  0
  149.0756  142.7131  157.5934 H   0  0  0  0  0  0  0  0  0  0  0  0
  151.4702  142.3821  158.2193 H   0  0  0  0  0  0  0  0  0  0  0  0
  150.5330  140.9515  158.5576 H   0  0  0  0  0  0  0  0  0  0  0  0
  152.3246  141.4039  156.1201 H   0  0  0  0  0  0  0  0  0  0  0  0
  152.6496  140.3187  157.4507 H   0  0  0  0  0  0  0  0  0  0  0  0
  151.7622  139.0890  155.4772 H   0  0  0  0  0  0  0  0  0  0  0  0
  150.7136  138.9162  156.8579 H   0  0  0  0  0  0  0  0  0  0  0  0
  150.3459  140.8295  154.5204 H   0  0  0  0  0  0  0  0  0  0  0  0
  149.8377  138.4120  154.0657 H   0  0  0  0  0  0  0  0  0  0  0  0
  148.4769  139.4874  153.8188 H   0  0  0  0  0  0  0  0  0  0  0  0
  148.3718  133.9001  155.7827 H   0  0  0  0  0  0  0  0  0  0  0  0
  145.7985  134.8177  150.1853 H   0  0  0  0  0  0  0  0  0  0  0  0
  144.0075  134.9559  150.1152 H   0  0  0  0  0  0  0  0  0  0  0  0
  1  2  1  0  0  0  0
  1 29  1  0  0  0  0
  2  3  1  0  0  0  0
  2 30  1  0  0  0  0
  2 31  1  0  0  0  0
  3 28  1  0  0  0  0
  3  4  1  0  0  0  0
  3  6  1  0  0  0  0
  4  5  1  0  0  0  0
  4 32  1  0  0  0  0
  4 33  1  0  0  0  0
  5 34  1  0  0  0  0
  6  7  1  0  0  0  0
  6 35  1  0  0  0  0
  6 36  1  0  0  0  0
  7  8  1  0  0  0  0
  7 28  1  0  0  0  0
  7 37  1  0  0  0  0
  8 27  1  0  0  0  0
  8  9  1  0  0  0  0
  9 10  2  0  0  0  0
  9 38  1  0  0  0  0
 10 11  1  0  0  0  0
 11 27  2  0  0  0  0
 11 12  1  0  0  0  0
 12 13  1  0  0  0  0
 12 24  2  0  0  0  0
 13 23  1  0  0  0  0
 13 14  1  0  0  0  0
 14 15  1  0  0  0  0
 14 39  1  0  0  0  0
 14 40  1  0  0  0  0
 15 16  1  0  0  0  0
 15 41  1  0  0  0  0
 15 42  1  0  0  0  0
 16 22  1  0  0  0  0
 16 17  1  0  0  0  0
 16 18  1  0  0  0  0
 17 43  1  0  0  0  0
 18 19  1  0  0  0  0
 18 44  1  0  0  0  0
 18 45  1  0  0  0  0
 19 20  1  0  0  0  0
 19 46  1  0  0  0  0
 19 47  1  0  0  0  0
 20 21  1  0  0  0  0
 20 48  1  0  0  0  0
 20 49  1  0  0  0  0
 21 22  1  0  0  0  0
 21 50  1  0  0  0  0
 21 51  1  0  0  0  0
 22 23  1  0  0  0  0
 22 52  1  0  0  0  0
 23 53  1  0  0  0  0
 23 54  1  0  0  0  0
 24 25  1  0  0  0  0
 25 26  2  0  0  0  0
 25 55  1  0  0  0  0
 26 27  1  0  0  0  0
 28 56  1  0  0  0  0
 28 57  1  0  0  0  0
M  END
> <s_m_source_file>
AV-unprocessed.smi

> <i_m_source_file_index>
176

> <i_lp_mmshare_version>
43012

> <i_f3d_flags>
0

> <s_epik_input>
W09IXVtDSDJdQzEoW0NIMl1bT0hdKVtDSDJdW0NIXShbQ0gyXTEpbihbY0hdbjIpYyhjMjMpbltjSF1uYzNOKFtDSDJdW0NIMl00KVtDSDJdW0NAQEhdKFtDQF00NVtPSF0pW0NIMl1bQ0gyXVtDSDJdW0NIMl01

> <s_epik_cmdline>
J2VwaWtfcHl0aG9uJywgJy1waCcsICc3LjAnLCAnLXRuJywgJzgnLCAnLW1hJywgJzIwMCcsICctbWV0YWxfYmluZGluZycsICctaW1hZScsICc8aW5maWxlLm1hZT4nLCAnLW9tYWUnLCAnPG91dGZpbGUubWFlPic=

> <r_lp_tautomer_probability>
1

> <r_epik_Ionization_Penalty>
0.00642876

> <r_epik_Ionization_Penalty_Charging>
0

> <r_epik_Ionization_Penalty_Neutral>
0.00642876

> <r_epik_State_Penalty>
0.00467813

> <r_epik_Charging_Adjusted_Penalty>
0.00467813

> <i_epik_Tot_Q>
0

> <i_epik_Tot_abs_Q>
0

> <r_epik_Metal_State_Penalty>
-0

> <b_epik_Metal_Only>
0

> <s_lp_Force_Field>
OPLS_2005

> <r_lp_Energy>
50.7593

> <b_lp_Chiralities_Consistent>
1

> <s_lp_Variant>
AV-unprocessed.smi:176-2

> <Gold.Version>
5.8.1

> <Gold.Id.Protein>
6NUR|6NUR_protein|mol2

> <Gold.PLP.Fitness>
48.2167

> <Gold.PLP.PLP>
-34.7819

> <Gold.PLP.part.hbond>
-5.2767

> <Gold.PLP.part.metal>
0.0000

> <Gold.PLP.part.buried>
-2.1842

> <Gold.PLP.part.nonpolar>
-27.6183

> <Gold.PLP.part.repulsive>
0.4029

> <Gold.PLP.ligand.clash>
0.0000

> <Gold.PLP.ligand.torsion>
0.6473

> <Gold.PLP.Chemscore.Hbond>
3.6163

> <Gold.PLP.Chemscore.CHOScore>
1.0000

> <Gold.PLP.Chemscore.Metal>
0.0000

> <Gold.Chemscore.Hbonds>
donor molecule, donor type, donor heavy atom, donor atom, acceptor molecule, acceptor atom, score
      L1  H     1    29       P1 10747  1.00
      L1  H     5    34       P1 10186  1.00
      L1  H    17    43       P1  8028  0.80
      P1  H 10785 10796       L1     5  0.62
      L1  C     9    38       P1 10171  1.00

> <Gold.PLP.Chemscore.Internal.Correction>
0.8806

> <Gold.Rescore>
     Score         DG    S(hbond)    S(metal)    S(lipo)     H(rot)  DE(clash)    DE(int)     intcor
     14.70     -17.17       3.44        0.00      82.92       3.71       0.76       1.72       ----

> <Gold.Chemscore.Fitness>
14.6961

> <Gold.Chemscore.DG>
-17.1711

> <Gold.Chemscore.ZeroCoef>
-5.4800

> <Gold.Chemscore.Hbond>
3.4398

> <Gold.Chemscore.Metal>
0.0000

> <Gold.Chemscore.Lipo>
82.9231

> <Gold.Chemscore.Internal_Hbond>
0.0000

> <Gold.Chemscore.DEClash>
0.7564

> <Gold.Chemscore.DEInternal>
1.7186

> <Gold.Chemscore.Rot>
3.7109

> <Gold.Chemscore.Internal.Correction>
   9.000000E+99

> <Gold.Chemscore.Hbonds>
donor molecule, donor type, donor heavy atom, donor atom, acceptor molecule, acceptor atom, score
      L1  H     1    29       P1 10747  1.00
      L1  H     5    34       P1 10186  0.94
      L1  H    17    43       P1  8028  0.77
      P1  H 10785 10796       L1     5  0.53

> <Gold.Chemscore.Hbond.Weighted>
-11.4890

> <Gold.Chemscore.Metal.Weighted>
-0.0000

> <Gold.Chemscore.Lipo.Weighted>
-9.7020

> <Gold.Chemscore.Internal_Hbond.Weighted>
0.0000

> <Gold.Chemscore.DEClash.Weighted>
0.7564

> <Gold.Chemscore.DEInternal.Weighted>
1.7186

> <Gold.Chemscore.Rot.Weighted>
9.5000

> <Gold.Chemscore.Internal.Correction.Weighted>
   9.000000E+99

> <Gold.Protein.RotatedTorsions>
[ 6907 6896 6895 6894 ] final  -50.85 input  -60.11 | X-H torsion
[ 7974 7965 7964 7962 ] final   36.52 input  175.53 | X-H torsion
[ 8008 7997 7996 7995 ] final   12.91 input   59.86 | X-H torsion
[ 10167 10162 10161 10158 ] final   24.49 input  -65.29 | X-H torsion
[ 10718 10713 10712 10709 ] final   58.85 input   66.30 | X-H torsion
[ 10763 10752 10751 10750 ] final  136.71 input  -60.55 | X-H torsion
[ 11005 11000 10999 10996 ] final  105.50 input  -57.11 | X-H torsion

> <Gold.Protein.ActiveResidues>
 VAL166  LYS551  ARG553  GLY616  TRP617  ASP618  TYR619  PRO620  LYS621  CYS622 
 ASP623  PHE694  ASN695  SER759  ASP760  ASP761  ALA762  ILE779  LEU786  VAL792 
 PHE793  MET794  SER795  GLU796  ALA797  LYS798  CYS799  TRP800  GLU811  SER814 

> <Gold.Protein.RotatedAtoms>
  150.8667  134.8032  159.7123 H   0  0  0  0  0  0  0  0  0  0  0  0  # atno 6907 bound_to 6896
  152.4686  134.5012  159.9735 H   0  0  0  0  0  0  0  0  0  0  0  0  # atno 6908 bound_to 6896
  151.5107  133.3447  159.2920 H   0  0  0  0  0  0  0  0  0  0  0  0  # atno 6909 bound_to 6896
  146.1205  139.6008  142.9292 H   0  0  0  0  0  0  0  0  0  0  0  0  # atno 7974 bound_to 7965
  154.8272  140.2893  155.5747 H   0  0  0  0  0  0  0  0  0  0  0  0  # atno 8008 bound_to 7997
  156.3002  140.2539  156.3121 H   0  0  0  0  0  0  0  0  0  0  0  0  # atno 8009 bound_to 7997
  154.9272  140.0384  157.2018 H   0  0  0  0  0  0  0  0  0  0  0  0  # atno 8010 bound_to 7997
  140.5184  144.0044  150.6405 H   0  0  0  0  0  0  0  0  0  0  0  0  # atno 10167 bound_to 10162
  157.5629  130.8849  149.9140 H   0  0  0  0  0  0  0  0  0  0  0  0  # atno 10718 bound_to 10713
  153.8610  135.3067  155.3438 H   0  0  0  0  0  0  0  0  0  0  0  0  # atno 10763 bound_to 10752
  154.7849  135.4815  153.9927 H   0  0  0  0  0  0  0  0  0  0  0  0  # atno 10764 bound_to 10752
  153.1462  135.6834  153.9046 H   0  0  0  0  0  0  0  0  0  0  0  0  # atno 10765 bound_to 10752
  139.8803  134.9338  156.5523 H   0  0  0  0  0  0  0  0  0  0  0  0  # atno 11005 bound_to 11000
  145.5475  141.0416  143.2297 LP  0  0  0  0  0  0  0  0  0  0  0  0  # atno 17320 bound_to 7965
  144.7593  139.6996  143.7241 LP  0  0  0  0  0  0  0  0  0  0  0  0  # atno 17321 bound_to 7965
  140.3386  143.3033  152.0612 LP  0  0  0  0  0  0  0  0  0  0  0  0  # atno 17342 bound_to 10162
  139.4916  144.6458  151.6780 LP  0  0  0  0  0  0  0  0  0  0  0  0  # atno 17343 bound_to 10162
  156.0680  130.3689  150.0837 LP  0  0  0  0  0  0  0  0  0  0  0  0  # atno 17370 bound_to 10713
  156.8999  130.9617  151.3577 LP  0  0  0  0  0  0  0  0  0  0  0  0  # atno 17371 bound_to 10713
  140.8231  133.8338  155.8914 LP  0  0  0  0  0  0  0  0  0  0  0  0  # atno 17394 bound_to 11000
  140.9400  134.1913  157.4804 LP  0  0  0  0  0  0  0  0  0  0  0  0  # atno 17395 bound_to 11000

$$$$
