AV-unprocessed.smi:61|AV-procd|sdf|600|dock4
  -GOLD-   2262016493D 1   1.00000     0.00000
 Structure written by MMmdl.
 29 30  0  0  0  0  0  0  0  0  2 V2000
  146.9422  138.2163  151.8190 N   0  0  0  0  0  0  0  0  0  0  0  0
  147.4822  139.0949  152.7260 C   0  0  0  0  0  0  0  0  0  0  0  0
  146.8137  140.2206  152.9964 N   0  0  0  0  0  0  0  0  0  0  0  0
  147.3368  141.0893  153.8836 C   0  0  0  0  0  0  0  0  0  0  0  0
  148.5597  140.8351  154.5262 C   0  0  0  0  0  0  0  0  0  0  0  0
  149.2127  139.6255  154.2009 C   0  0  0  0  0  0  0  0  0  0  0  0
  150.4379  139.2326  154.7594 N   0  0  0  0  0  0  0  0  0  0  0  0
  151.1444  140.3039  155.4527 C   0  0  0  0  0  0  0  0  0  0  0  0
  151.8504  139.6616  156.6552 C   0  0  0  0  0  0  0  0  0  0  0  0
  151.7206  138.1597  156.4119 C   0  0  0  0  0  0  0  0  0  0  0  0
  150.4074  138.0676  155.6348 C   0  0  2  0  0  0  0  0  0  0  0  0
  150.2213  136.7509  154.8587 C   0  0  0  0  0  0  0  0  0  0  0  0
  151.3528  136.5009  154.0533 O   0  0  0  0  0  0  0  0  0  0  0  0
  148.6537  138.7823  153.2974 N   0  3  0  0  0  0  0  0  0  0  0  0
  147.4219  137.3567  151.5926 H   0  0  0  0  0  0  0  0  0  0  0  0
  146.0624  138.4181  151.3663 H   0  0  0  0  0  0  0  0  0  0  0  0
  146.7771  141.9918  154.0799 H   0  0  0  0  0  0  0  0  0  0  0  0
  148.9736  141.5420  155.2302 H   0  0  0  0  0  0  0  0  0  0  0  0
  151.8761  140.7342  154.7682 H   0  0  0  0  0  0  0  0  0  0  0  0
  150.4776  141.1064  155.7715 H   0  0  0  0  0  0  0  0  0  0  0  0
  152.8877  139.9825  156.7561 H   0  0  0  0  0  0  0  0  0  0  0  0
  151.3269  139.9318  157.5731 H   0  0  0  0  0  0  0  0  0  0  0  0
  152.5528  137.8092  155.7994 H   0  0  0  0  0  0  0  0  0  0  0  0
  151.7108  137.5801  157.3354 H   0  0  0  0  0  0  0  0  0  0  0  0
  149.5845  138.1782  156.3420 H   0  0  0  0  0  0  0  0  0  0  0  0
  150.1002  135.9107  155.5432 H   0  0  0  0  0  0  0  0  0  0  0  0
  149.3300  136.7884  154.2315 H   0  0  0  0  0  0  0  0  0  0  0  0
  151.0759  136.4477  153.1509 H   0  0  0  0  0  0  0  0  0  0  0  0
  149.1298  137.9116  153.0616 H   0  0  0  0  0  0  0  0  0  0  0  0
  1  2  1  0  0  0  0
  1 15  1  0  0  0  0
  1 16  1  0  0  0  0
  2 14  1  0  0  0  0
  2  3  2  0  0  0  0
  3  4  1  0  0  0  0
  4  5  2  0  0  0  0
  4 17  1  0  0  0  0
  5  6  1  0  0  0  0
  5 18  1  0  0  0  0
  6  7  1  0  0  0  0
  6 14  2  0  0  0  0
  7 11  1  0  0  0  0
  7  8  1  0  0  0  0
  8  9  1  0  0  0  0
  8 19  1  0  0  0  0
  8 20  1  0  0  0  0
  9 10  1  0  0  0  0
  9 21  1  0  0  0  0
  9 22  1  0  0  0  0
 10 11  1  0  0  0  0
 10 23  1  0  0  0  0
 10 24  1  0  0  0  0
 11 12  1  0  0  0  0
 11 25  1  0  0  0  0
 12 13  1  0  0  0  0
 12 26  1  0  0  0  0
 12 27  1  0  0  0  0
 13 28  1  0  0  0  0
 14 29  1  0  0  0  0
M  CHG  1  14   1
M  END
> <s_m_source_file>
AV-unprocessed.smi

> <i_m_source_file_index>
61

> <i_lp_mmshare_version>
43012

> <i_f3d_flags>
0

> <s_epik_input>
W05IMl1jMW5bY0hdW2NIXWMobjEpTjJbQ0gyXVtDSDJdW0NIMl1bQ0BIXTJbQ0gyXVtPSF0=

> <s_epik_cmdline>
J2VwaWtfcHl0aG9uJywgJy1waCcsICc3LjAnLCAnLXRuJywgJzgnLCAnLW1hJywgJzIwMCcsICctbWV0YWxfYmluZGluZycsICctaW1hZScsICc8aW5maWxlLm1hZT4nLCAnLW9tYWUnLCAnPG91dGZpbGUubWFlPic=

> <r_lp_tautomer_probability>
0.424989

> <r_epik_Ionization_Penalty>
0.696162

> <r_epik_Ionization_Penalty_Charging>
0.696158

> <r_epik_Ionization_Penalty_Neutral>
4.43138e-06

> <r_epik_State_Penalty>
0.906374

> <r_epik_Charging_Adjusted_Penalty>
1.60253

> <i_epik_Tot_Q>
1

> <i_epik_Tot_abs_Q>
1

> <r_epik_Metal_State_Penalty>
1.16703

> <b_epik_Metal_Only>
0

> <s_lp_Force_Field>
OPLS_2005

> <r_lp_Energy>
27.4593

> <b_lp_Chiralities_Consistent>
1

> <s_lp_Variant>
AV-unprocessed.smi:61-6

> <Gold.Version>
5.8.1

> <Gold.Id.Protein>
6NUR|6NUR_protein|mol2

> <Gold.PLP.Fitness>
37.9838

> <Gold.PLP.PLP>
-21.6300

> <Gold.PLP.part.hbond>
-5.4423

> <Gold.PLP.part.metal>
0.0000

> <Gold.PLP.part.buried>
0.4252

> <Gold.PLP.part.nonpolar>
-17.7581

> <Gold.PLP.part.repulsive>
0.4923

> <Gold.PLP.ligand.clash>
0.0000

> <Gold.PLP.ligand.torsion>
0.2507

> <Gold.PLP.Chemscore.Hbond>
5.6012

> <Gold.PLP.Chemscore.CHOScore>
0.0000

> <Gold.PLP.Chemscore.Metal>
0.0000

> <Gold.Chemscore.Hbonds>
donor molecule, donor type, donor heavy atom, donor atom, acceptor molecule, acceptor atom, score
      L1  H     1    15       P1  7948  1.95
      L1  H    13    28       P1  7949  1.00
      L1  H    14    29       P1  7948  1.65
      P1  H 10752 10764       L1    13  1.00

> <Gold.PLP.Chemscore.Internal.Correction>
0.0517

> <Gold.Rescore>
     Score         DG    S(hbond)    S(metal)    S(lipo)     H(rot)  DE(clash)    DE(int)     intcor
     14.94     -16.56       3.37        0.00      41.91       1.98       0.34       1.28       ----

> <Gold.Chemscore.Fitness>
14.9363

> <Gold.Chemscore.DG>
-16.5610

> <Gold.Chemscore.ZeroCoef>
-5.4800

> <Gold.Chemscore.Hbond>
3.3701

> <Gold.Chemscore.Metal>
0.0000

> <Gold.Chemscore.Lipo>
41.9087

> <Gold.Chemscore.Internal_Hbond>
0.0000

> <Gold.Chemscore.DEClash>
0.3447

> <Gold.Chemscore.DEInternal>
1.2800

> <Gold.Chemscore.Rot>
1.9838

> <Gold.Chemscore.Internal.Correction>
   9.000000E+99

> <Gold.Chemscore.Hbonds>
donor molecule, donor type, donor heavy atom, donor atom, acceptor molecule, acceptor atom, score
      L1  H     1    15       P1  7948  0.93
      L1  H    13    28       P1  7949  0.30
      L1  H    14    29       P1  7948  0.75
      P1  H 10752 10764       L1    13  0.60

> <Gold.Chemscore.Hbond.Weighted>
-11.2562

> <Gold.Chemscore.Metal.Weighted>
-0.0000

> <Gold.Chemscore.Lipo.Weighted>
-4.9033

> <Gold.Chemscore.Internal_Hbond.Weighted>
0.0000

> <Gold.Chemscore.DEClash.Weighted>
0.3447

> <Gold.Chemscore.DEInternal.Weighted>
1.2800

> <Gold.Chemscore.Rot.Weighted>
5.0786

> <Gold.Chemscore.Internal.Correction.Weighted>
   9.000000E+99

> <Gold.Protein.RotatedTorsions>
[ 6907 6896 6895 6894 ] final   99.51 input  -60.11 | X-H torsion
[ 7974 7965 7964 7962 ] final   31.56 input  175.53 | X-H torsion
[ 8008 7997 7996 7995 ] final   86.93 input   59.86 | X-H torsion
[ 10167 10162 10161 10158 ] final  171.33 input  -65.29 | X-H torsion
[ 10718 10713 10712 10709 ] final  112.19 input   66.30 | X-H torsion
[ 10763 10752 10751 10750 ] final  -85.62 input  -60.55 | X-H torsion
[ 11005 11000 10999 10996 ] final -120.66 input  -57.11 | X-H torsion

> <Gold.Protein.ActiveResidues>
 VAL166  LYS551  ARG553  GLY616  TRP617  ASP618  TYR619  PRO620  LYS621  CYS622 
 ASP623  PHE694  ASN695  SER759  ASP760  ASP761  ALA762  ILE779  LEU786  VAL792 
 PHE793  MET794  SER795  GLU796  ALA797  LYS798  CYS799  TRP800  GLU811  SER814 

> <Gold.Protein.RotatedAtoms>
  152.5390  134.0418  159.8070 H   0  0  0  0  0  0  0  0  0  0  0  0  # atno 6907 bound_to 6896
  151.0573  133.5566  159.2644 H   0  0  0  0  0  0  0  0  0  0  0  0  # atno 6908 bound_to 6896
  151.2478  135.0619  159.9104 H   0  0  0  0  0  0  0  0  0  0  0  0  # atno 6909 bound_to 6896
  146.1542  139.6640  142.9078 H   0  0  0  0  0  0  0  0  0  0  0  0  # atno 7974 bound_to 7965
  155.9690  140.3387  155.6558 H   0  0  0  0  0  0  0  0  0  0  0  0  # atno 8008 bound_to 7997
  155.6699  140.0725  157.2542 H   0  0  0  0  0  0  0  0  0  0  0  0  # atno 8009 bound_to 7997
  154.4161  140.1693  156.1856 H   0  0  0  0  0  0  0  0  0  0  0  0  # atno 8010 bound_to 7997
  139.5044  144.3497  151.9935 H   0  0  0  0  0  0  0  0  0  0  0  0  # atno 10167 bound_to 10162
  157.6405  131.0963  150.6859 H   0  0  0  0  0  0  0  0  0  0  0  0  # atno 10718 bound_to 10713
  154.6132  135.5478  153.7495 H   0  0  0  0  0  0  0  0  0  0  0  0  # atno 10763 bound_to 10752
  153.0204  135.6394  154.1548 H   0  0  0  0  0  0  0  0  0  0  0  0  # atno 10764 bound_to 10752
  154.1485  135.2904  155.3121 H   0  0  0  0  0  0  0  0  0  0  0  0  # atno 10765 bound_to 10752
  141.0127  134.0240  157.3391 H   0  0  0  0  0  0  0  0  0  0  0  0  # atno 11005 bound_to 11000
  145.4749  141.0437  143.2678 LP  0  0  0  0  0  0  0  0  0  0  0  0  # atno 17320 bound_to 7965
  144.7942  139.6267  143.7100 LP  0  0  0  0  0  0  0  0  0  0  0  0  # atno 17321 bound_to 7965
  140.2934  144.3728  150.6081 LP  0  0  0  0  0  0  0  0  0  0  0  0  # atno 17342 bound_to 10162
  140.5929  143.2167  151.7219 LP  0  0  0  0  0  0  0  0  0  0  0  0  # atno 17343 bound_to 10162
  156.7184  130.4673  149.5529 LP  0  0  0  0  0  0  0  0  0  0  0  0  # atno 17370 bound_to 10713
  156.1682  130.6419  151.0805 LP  0  0  0  0  0  0  0  0  0  0  0  0  # atno 17371 bound_to 10713
  139.9099  135.0188  156.7648 LP  0  0  0  0  0  0  0  0  0  0  0  0  # atno 17394 bound_to 11000
  140.6706  133.9563  155.7854 LP  0  0  0  0  0  0  0  0  0  0  0  0  # atno 17395 bound_to 11000

$$$$
