AV-unprocessed.smi:35|AV-procd|sdf|269|dock6
  -GOLD-   2262016 33D 1   1.00000     0.00000
 Structure written by MMmdl.
 28 29  0  0  0  0  0  0  0  0  2 V2000
  150.6133  134.6078  157.2847 O   0  0  0  0  0  0  0  0  0  0  0  0
  150.5572  135.6549  156.6426 C   0  0  0  0  0  0  0  0  0  0  0  0
  151.6098  136.1420  155.9251 N   0  5  0  0  0  0  0  0  0  0  0  0
  151.5359  137.2945  155.1966 C   0  0  0  0  0  0  0  0  0  0  0  0
  152.5009  137.7647  154.5946 O   0  0  0  0  0  0  0  0  0  0  0  0
  150.2979  137.9963  155.1328 N   0  0  0  0  0  0  0  0  0  0  0  0
  150.2148  139.2916  154.3387 C   0  0  2  0  0  0  0  0  0  0  0  0
  151.1370  140.2145  154.8529 O   0  0  0  0  0  0  0  0  0  0  0  0
  150.4934  141.2413  155.6076 C   0  0  2  0  0  0  0  0  0  0  0  0
  150.3514  140.8327  157.0926 C   0  0  0  0  0  0  0  0  0  0  0  0
  149.5553  141.7753  157.7789 O   0  0  0  0  0  0  0  0  0  0  0  0
  149.1720  141.3909  154.8462 C   0  0  2  0  0  0  0  0  0  0  0  0
  148.1446  141.9822  155.6176 O   0  0  0  0  0  0  0  0  0  0  0  0
  148.8254  139.9638  154.4437 C   0  0  1  0  0  0  0  0  0  0  0  0
  148.1520  139.9799  153.2011 O   0  0  0  0  0  0  0  0  0  0  0  0
  149.2355  137.5588  155.9103 C   0  0  0  0  0  0  0  0  0  0  0  0
  149.3205  136.4296  156.6414 C   0  0  0  0  0  0  0  0  0  0  0  0
  147.7134  135.9216  157.6831 Br  0  0  0  0  0  0  0  0  0  0  0  0
  150.5026  139.0101  153.3243 H   0  0  0  0  0  0  0  0  0  0  0  0
  151.0666  142.1671  155.5415 H   0  0  0  0  0  0  0  0  0  0  0  0
  149.8334  139.8779  157.1788 H   0  0  0  0  0  0  0  0  0  0  0  0
  151.3131  140.7081  157.5874 H   0  0  0  0  0  0  0  0  0  0  0  0
  149.2900  141.3988  158.6042 H   0  0  0  0  0  0  0  0  0  0  0  0
  149.3503  142.0012  153.9589 H   0  0  0  0  0  0  0  0  0  0  0  0
  148.3637  142.8916  155.7533 H   0  0  0  0  0  0  0  0  0  0  0  0
  148.2259  139.4751  155.2138 H   0  0  0  0  0  0  0  0  0  0  0  0
  148.8002  140.0870  152.5202 H   0  0  0  0  0  0  0  0  0  0  0  0
  148.3132  138.1177  155.9453 H   0  0  0  0  0  0  0  0  0  0  0  0
  1  2  2  0  0  0  0
  2 17  1  0  0  0  0
  2  3  1  0  0  0  0
  3  4  1  0  0  0  0
  4  5  2  0  0  0  0
  4  6  1  0  0  0  0
  6  7  1  0  0  0  0
  6 16  1  0  0  0  0
  7 14  1  0  0  0  0
  7  8  1  0  0  0  0
  7 19  1  0  0  0  0
  8  9  1  0  0  0  0
  9 10  1  0  0  0  0
  9 12  1  0  0  0  0
  9 20  1  0  0  0  0
 10 11  1  0  0  0  0
 10 21  1  0  0  0  0
 10 22  1  0  0  0  0
 11 23  1  0  0  0  0
 12 13  1  0  0  0  0
 12 14  1  0  0  0  0
 12 24  1  0  0  0  0
 13 25  1  0  0  0  0
 14 15  1  0  0  0  0
 14 26  1  0  0  0  0
 15 27  1  0  0  0  0
 16 17  2  0  0  0  0
 16 28  1  0  0  0  0
 17 18  1  0  0  0  0
M  CHG  1   3  -1
M  END
> <s_m_source_file>
AV-unprocessed.smi

> <i_m_source_file_index>
35

> <i_lp_mmshare_version>
43012

> <i_f3d_flags>
0

> <s_epik_input>
Tz1jMVtuSF1jKD1PKW4oW2NIXWMxQnIpW0NAQEhdMk9bQ0BASF0oW0NIMl1bT0hdKVtDQEBIXShbT0hdKVtDQEhdMltPSF0=

> <s_epik_cmdline>
J2VwaWtfcHl0aG9uJywgJy1waCcsICc3LjAnLCAnLXRuJywgJzgnLCAnLW1hJywgJzIwMCcsICctbWV0YWxfYmluZGluZycsICctaW1hZScsICc8aW5maWxlLm1hZT4nLCAnLW9tYWUnLCAnPG91dGZpbGUubWFlPic=

> <r_epik_Ionization_Penalty>
1.06112

> <r_epik_Ionization_Penalty_Charging>
2.1796e-09

> <r_epik_Ionization_Penalty_Neutral>
1.06112

> <r_epik_State_Penalty>
1.11484

> <r_epik_Charging_Adjusted_Penalty>
1.11484

> <i_epik_Tot_Q>
-1

> <i_epik_Tot_abs_Q>
1

> <r_epik_Metal_State_Penalty>
0.0032876

> <b_epik_Metal_Only>
0

> <s_epik_Chemistry_Notes>
This compound contains an acetal/aminal-like group ( X-CH(R)-Y where X, Y are N, S, or O) that may be acid/base labile, releasing an aldehyde.

> <s_lp_Force_Field>
OPLS_2005

> <r_lp_Energy>
39.1741

> <b_lp_Chiralities_Consistent>
1

> <s_lp_Variant>
AV-unprocessed.smi:35-23

> <Gold.Version>
5.8.1

> <Gold.Id.Protein>
6NUR|6NUR_protein|mol2

> <Gold.PLP.Fitness>
41.6438

> <Gold.PLP.PLP>
-25.4648

> <Gold.PLP.part.hbond>
-5.8989

> <Gold.PLP.part.metal>
0.0000

> <Gold.PLP.part.buried>
-4.1012

> <Gold.PLP.part.nonpolar>
-15.5131

> <Gold.PLP.part.repulsive>
0.1741

> <Gold.PLP.ligand.clash>
0.0000

> <Gold.PLP.ligand.torsion>
0.0456

> <Gold.PLP.Chemscore.Hbond>
5.4030

> <Gold.PLP.Chemscore.CHOScore>
0.0000

> <Gold.PLP.Chemscore.Metal>
0.0000

> <Gold.Chemscore.Hbonds>
donor molecule, donor type, donor heavy atom, donor atom, acceptor molecule, acceptor atom, score
      L1  H    13    25       P1  8028  1.00
      L1  H    15    27       P1  7957  1.00
      P1  H  6896  6908       L1     1  0.44
      P1  H  7989  7998       L1     8  1.00
      P1  H 10752 10764       L1     3  1.80

> <Gold.PLP.Chemscore.Internal.Correction>
0.0612

> <Gold.Rescore>
     Score         DG    S(hbond)    S(metal)    S(lipo)     H(rot)  DE(clash)    DE(int)     intcor
      9.24     -10.61       3.24        0.00      30.64       3.63       0.01       1.37       ----

> <Gold.Chemscore.Fitness>
9.2358

> <Gold.Chemscore.DG>
-10.6121

> <Gold.Chemscore.ZeroCoef>
-5.4800

> <Gold.Chemscore.Hbond>
3.2427

> <Gold.Chemscore.Metal>
0.0000

> <Gold.Chemscore.Lipo>
30.6359

> <Gold.Chemscore.Internal_Hbond>
0.0000

> <Gold.Chemscore.DEClash>
0.0098

> <Gold.Chemscore.DEInternal>
1.3665

> <Gold.Chemscore.Rot>
3.6261

> <Gold.Chemscore.Internal.Correction>
   9.000000E+99

> <Gold.Chemscore.Hbonds>
donor molecule, donor type, donor heavy atom, donor atom, acceptor molecule, acceptor atom, score
      L1  H    13    25       P1  8028  0.98
      L1  H    15    27       P1  7957  0.97
      P1  H  6896  6908       L1     1  0.42
      P1  H  7989  7998       L1     8  0.15
      P1  H 10752 10764       L1     3  0.17

> <Gold.Chemscore.Hbond.Weighted>
-10.8305

> <Gold.Chemscore.Metal.Weighted>
-0.0000

> <Gold.Chemscore.Lipo.Weighted>
-3.5844

> <Gold.Chemscore.Internal_Hbond.Weighted>
0.0000

> <Gold.Chemscore.DEClash.Weighted>
0.0098

> <Gold.Chemscore.DEInternal.Weighted>
1.3665

> <Gold.Chemscore.Rot.Weighted>
9.2828

> <Gold.Chemscore.Internal.Correction.Weighted>
   9.000000E+99

> <Gold.Protein.RotatedTorsions>
[ 6907 6896 6895 6894 ] final  132.14 input  -60.11 | X-H torsion
[ 7974 7965 7964 7962 ] final -110.61 input  175.53 | X-H torsion
[ 8008 7997 7996 7995 ] final  -25.37 input   59.86 | X-H torsion
[ 10167 10162 10161 10158 ] final  -55.01 input  -65.29 | X-H torsion
[ 10718 10713 10712 10709 ] final   62.46 input   66.30 | X-H torsion
[ 10763 10752 10751 10750 ] final  -18.15 input  -60.55 | X-H torsion
[ 11005 11000 10999 10996 ] final -161.66 input  -57.11 | X-H torsion

> <Gold.Protein.ActiveResidues>
 VAL166  LYS551  ARG553  GLY616  TRP617  ASP618  TYR619  PRO620  LYS621  CYS622 
 ASP623  PHE694  ASN695  SER759  ASP760  ASP761  ALA762  ILE779  LEU786  VAL792 
 PHE793  MET794  SER795  GLU796  ALA797  LYS798  CYS799  TRP800  GLU811  SER814 

> <Gold.Protein.RotatedAtoms>
  152.3354  133.6006  159.5838 H   0  0  0  0  0  0  0  0  0  0  0  0  # atno 6907 bound_to 6896
  150.7447  133.9803  159.3583 H   0  0  0  0  0  0  0  0  0  0  0  0  # atno 6908 bound_to 6896
  151.7674  135.0796  160.0406 H   0  0  0  0  0  0  0  0  0  0  0  0  # atno 6909 bound_to 6896
  145.1662  140.8903  143.3562 H   0  0  0  0  0  0  0  0  0  0  0  0  # atno 7974 bound_to 7965
  154.4479  140.1928  156.0608 H   0  0  0  0  0  0  0  0  0  0  0  0  # atno 8008 bound_to 7997
  156.0584  140.3300  155.7405 H   0  0  0  0  0  0  0  0  0  0  0  0  # atno 8009 bound_to 7997
  155.5450  140.0590  157.2853 H   0  0  0  0  0  0  0  0  0  0  0  0  # atno 8010 bound_to 7997
  140.6399  143.2502  151.5018 H   0  0  0  0  0  0  0  0  0  0  0  0  # atno 10167 bound_to 10162
  157.5902  130.9051  149.9590 H   0  0  0  0  0  0  0  0  0  0  0  0  # atno 10718 bound_to 10713
  153.5849  135.7004  153.5447 H   0  0  0  0  0  0  0  0  0  0  0  0  # atno 10763 bound_to 10752
  153.3228  135.4069  155.1431 H   0  0  0  0  0  0  0  0  0  0  0  0  # atno 10764 bound_to 10752
  154.8611  135.3700  154.5378 H   0  0  0  0  0  0  0  0  0  0  0  0  # atno 10765 bound_to 10752
  140.6179  134.4781  157.5221 H   0  0  0  0  0  0  0  0  0  0  0  0  # atno 11005 bound_to 11000
  145.0280  139.3366  143.6039 LP  0  0  0  0  0  0  0  0  0  0  0  0  # atno 17320 bound_to 7965
  146.3475  139.9606  142.8718 LP  0  0  0  0  0  0  0  0  0  0  0  0  # atno 17321 bound_to 7965
  139.5608  144.2161  152.1688 LP  0  0  0  0  0  0  0  0  0  0  0  0  # atno 17342 bound_to 10162
  140.1428  144.5186  150.6733 LP  0  0  0  0  0  0  0  0  0  0  0  0  # atno 17343 bound_to 10162
  156.0956  130.3659  150.0313 LP  0  0  0  0  0  0  0  0  0  0  0  0  # atno 17370 bound_to 10713
  156.8438  130.9435  151.3630 LP  0  0  0  0  0  0  0  0  0  0  0  0  # atno 17371 bound_to 10713
  139.9165  134.8235  156.1349 LP  0  0  0  0  0  0  0  0  0  0  0  0  # atno 17394 bound_to 11000
  141.0763  133.6774  156.2242 LP  0  0  0  0  0  0  0  0  0  0  0  0  # atno 17395 bound_to 11000

$$$$
