AV-unprocessed.smi:3026|AV-procd|sdf|11514|dock2
  -GOLD-   2272016453D 1   1.00000     0.00000
 Structure written by MMmdl.
 33 34  0  0  0  0  0  0  0  0  1 V2000
  152.0341  143.8156  160.6116 C   0  0  0  0  0  0  0  0  0  0  0  0
  152.5065  142.5594  159.9117 C   0  0  0  0  0  0  0  0  0  0  0  0
  153.6638  141.8711  160.3314 C   0  0  0  0  0  0  0  0  0  0  0  0
  154.0004  140.7165  159.5971 C   0  0  0  0  0  0  0  0  0  0  0  0
  153.2543  140.2948  158.5535 N   0  0  0  0  0  0  0  0  0  0  0  0
  152.1680  141.0172  158.2482 C   0  0  0  0  0  0  0  0  0  0  0  0
  151.4029  140.6144  157.1610 N   0  0  0  0  0  0  0  0  0  0  0  0
  151.0130  141.7327  156.3073 C   0  0  0  0  0  0  0  0  0  0  0  0
  149.9193  141.3162  155.3173 C   0  0  0  0  0  0  0  0  0  0  0  0
  150.3953  140.2217  154.5496 O   0  0  0  0  0  0  0  0  0  0  0  0
  150.6598  139.0892  155.3669 C   0  0  0  0  0  0  0  0  0  0  0  0
  151.7611  139.3994  156.4116 C   0  0  2  0  0  0  0  0  0  0  0  0
  151.9838  138.1768  157.3419 C   0  0  0  0  0  0  0  0  0  0  0  0
  150.8039  137.8799  158.2818 C   0  0  0  0  0  0  0  0  0  0  0  0
  151.2197  137.0048  159.3083 O   0  0  0  0  0  0  0  0  0  0  0  0
  151.7638  142.1315  158.8674 N   0  0  0  0  0  0  0  0  0  0  0  0
  152.7778  144.1713  161.3251 H   0  0  0  0  0  0  0  0  0  0  0  0
  151.1070  143.6212  161.1514 H   0  0  0  0  0  0  0  0  0  0  0  0
  151.8512  144.6099  159.8875 H   0  0  0  0  0  0  0  0  0  0  0  0
  154.2618  142.2065  161.1659 H   0  0  0  0  0  0  0  0  0  0  0  0
  154.8725  140.1303  159.8464 H   0  0  0  0  0  0  0  0  0  0  0  0
  150.6549  142.5647  156.9155 H   0  0  0  0  0  0  0  0  0  0  0  0
  151.8901  142.0894  155.7654 H   0  0  0  0  0  0  0  0  0  0  0  0
  148.9975  141.0492  155.8368 H   0  0  0  0  0  0  0  0  0  0  0  0
  149.6827  142.1438  154.6484 H   0  0  0  0  0  0  0  0  0  0  0  0
  149.7390  138.7642  155.8546 H   0  0  0  0  0  0  0  0  0  0  0  0
  150.9699  138.2794  154.7078 H   0  0  0  0  0  0  0  0  0  0  0  0
  152.6905  139.6080  155.8796 H   0  0  0  0  0  0  0  0  0  0  0  0
  152.1568  137.2770  156.7523 H   0  0  0  0  0  0  0  0  0  0  0  0
  152.8915  138.3251  157.9290 H   0  0  0  0  0  0  0  0  0  0  0  0
  150.4227  138.7901  158.7438 H   0  0  0  0  0  0  0  0  0  0  0  0
  149.9825  137.4175  157.7337 H   0  0  0  0  0  0  0  0  0  0  0  0
  151.3579  137.5091  160.0956 H   0  0  0  0  0  0  0  0  0  0  0  0
  1  2  1  0  0  0  0
  1 17  1  0  0  0  0
  1 18  1  0  0  0  0
  1 19  1  0  0  0  0
  2 16  1  0  0  0  0
  2  3  2  0  0  0  0
  3  4  1  0  0  0  0
  3 20  1  0  0  0  0
  4  5  2  0  0  0  0
  4 21  1  0  0  0  0
  5  6  1  0  0  0  0
  6  7  1  0  0  0  0
  6 16  2  0  0  0  0
  7 12  1  0  0  0  0
  7  8  1  0  0  0  0
  8  9  1  0  0  0  0
  8 22  1  0  0  0  0
  8 23  1  0  0  0  0
  9 10  1  0  0  0  0
  9 24  1  0  0  0  0
  9 25  1  0  0  0  0
 10 11  1  0  0  0  0
 11 12  1  0  0  0  0
 11 26  1  0  0  0  0
 11 27  1  0  0  0  0
 12 13  1  0  0  0  0
 12 28  1  0  0  0  0
 13 14  1  0  0  0  0
 13 29  1  0  0  0  0
 13 30  1  0  0  0  0
 14 15  1  0  0  0  0
 14 31  1  0  0  0  0
 14 32  1  0  0  0  0
 15 33  1  0  0  0  0
M  END
> <s_m_source_file>
AV-unprocessed.smi

> <i_m_source_file_index>
3026

> <i_lp_mmshare_version>
43012

> <i_f3d_flags>
0

> <s_epik_input>
W0NIM11jMVtjSF1bY0hdbmMobjEpTjJbQ0gyXVtDSDJdT1tDSDJdW0NASF0yW0NIMl1bQ0gyXVtPSF0=

> <s_epik_cmdline>
J2VwaWtfcHl0aG9uJywgJy1waCcsICc3LjAnLCAnLXRuJywgJzgnLCAnLW1hJywgJzIwMCcsICctbWV0YWxfYmluZGluZycsICctaW1hZScsICc8aW5maWxlLm1hZT4nLCAnLW9tYWUnLCAnPG91dGZpbGUubWFlPic=

> <r_lp_tautomer_probability>
1

> <r_epik_Ionization_Penalty>
6.52665e-05

> <r_epik_Ionization_Penalty_Charging>
0

> <r_epik_Ionization_Penalty_Neutral>
6.52665e-05

> <r_epik_State_Penalty>
-0

> <r_epik_Charging_Adjusted_Penalty>
0

> <i_epik_Tot_Q>
0

> <i_epik_Tot_abs_Q>
0

> <r_epik_Metal_State_Penalty>
-0

> <b_epik_Metal_Only>
0

> <s_lp_Force_Field>
OPLS_2005

> <r_lp_Energy>
13.9454

> <b_lp_Chiralities_Consistent>
1

> <s_lp_Variant>
AV-unprocessed.smi:3026-2

> <Gold.Version>
5.8.1

> <Gold.Id.Protein>
6NUR|6NUR_protein|mol2

> <Gold.PLP.Fitness>
39.4514

> <Gold.PLP.PLP>
-31.0165

> <Gold.PLP.part.hbond>
-3.0000

> <Gold.PLP.part.metal>
0.0000

> <Gold.PLP.part.buried>
-4.1498

> <Gold.PLP.part.nonpolar>
-23.4018

> <Gold.PLP.part.repulsive>
0.0914

> <Gold.PLP.ligand.clash>
0.0000

> <Gold.PLP.ligand.torsion>
0.3076

> <Gold.PLP.Chemscore.Hbond>
2.9120

> <Gold.PLP.Chemscore.CHOScore>
0.0000

> <Gold.PLP.Chemscore.Metal>
0.0000

> <Gold.Chemscore.Hbonds>
donor molecule, donor type, donor heavy atom, donor atom, acceptor molecule, acceptor atom, score
      P1  H  6896  6908       L1    15  1.00
      P1  H  7989  7998       L1    10  1.00
      P1  H  7997  8009       L1     5  0.90

> <Gold.PLP.Chemscore.Internal.Correction>
0.3141

> <Gold.Rescore>
     Score         DG    S(hbond)    S(metal)    S(lipo)     H(rot)  DE(clash)    DE(int)     intcor
     13.65     -15.42       1.72        0.00      79.38       1.99       0.09       1.69       ----

> <Gold.Chemscore.Fitness>
13.6501

> <Gold.Chemscore.DG>
-15.4228

> <Gold.Chemscore.ZeroCoef>
-5.4800

> <Gold.Chemscore.Hbond>
1.7186

> <Gold.Chemscore.Metal>
0.0000

> <Gold.Chemscore.Lipo>
79.3822

> <Gold.Chemscore.Internal_Hbond>
0.0000

> <Gold.Chemscore.DEClash>
0.0871

> <Gold.Chemscore.DEInternal>
1.6857

> <Gold.Chemscore.Rot>
1.9864

> <Gold.Chemscore.Internal.Correction>
   9.000000E+99

> <Gold.Chemscore.Hbonds>
donor molecule, donor type, donor heavy atom, donor atom, acceptor molecule, acceptor atom, score
      P1  H  6896  6908       L1    15  0.39
      P1  H  7989  7998       L1    10  0.54
      P1  H  7997  8009       L1     5  0.30

> <Gold.Chemscore.Hbond.Weighted>
-5.7402

> <Gold.Chemscore.Metal.Weighted>
-0.0000

> <Gold.Chemscore.Lipo.Weighted>
-9.2877

> <Gold.Chemscore.Internal_Hbond.Weighted>
0.0000

> <Gold.Chemscore.DEClash.Weighted>
0.0871

> <Gold.Chemscore.DEInternal.Weighted>
1.6857

> <Gold.Chemscore.Rot.Weighted>
5.0851

> <Gold.Chemscore.Internal.Correction.Weighted>
   9.000000E+99

> <Gold.Protein.RotatedTorsions>
[ 6907 6896 6895 6894 ] final -129.49 input  -60.11 | X-H torsion
[ 7974 7965 7964 7962 ] final -172.21 input  175.53 | X-H torsion
[ 8008 7997 7996 7995 ] final  151.00 input   59.86 | X-H torsion
[ 10167 10162 10161 10158 ] final  124.11 input  -65.29 | X-H torsion
[ 10718 10713 10712 10709 ] final  -32.32 input   66.30 | X-H torsion
[ 10763 10752 10751 10750 ] final    4.33 input  -60.55 | X-H torsion
[ 11005 11000 10999 10996 ] final    6.85 input  -57.11 | X-H torsion

> <Gold.Protein.ActiveResidues>
 VAL166  LYS551  ARG553  GLY616  TRP617  ASP618  TYR619  PRO620  LYS621  CYS622 
 ASP623  PHE694  ASN695  SER759  ASP760  ASP761  ALA762  ILE779  LEU786  VAL792 
 PHE793  MET794  SER795  GLU796  ALA797  LYS798  CYS799  TRP800  GLU811  SER814 

> <Gold.Protein.RotatedAtoms>
  150.9293  133.6786  159.2814 H   0  0  0  0  0  0  0  0  0  0  0  0  # atno 6907 bound_to 6896
  151.4214  135.0997  159.9624 H   0  0  0  0  0  0  0  0  0  0  0  0  # atno 6908 bound_to 6896
  152.5018  133.8744  159.7369 H   0  0  0  0  0  0  0  0  0  0  0  0  # atno 6909 bound_to 6896
  144.7148  140.1807  143.6358 H   0  0  0  0  0  0  0  0  0  0  0  0  # atno 7974 bound_to 7965
  156.2692  140.2059  156.6107 H   0  0  0  0  0  0  0  0  0  0  0  0  # atno 8008 bound_to 7997
  154.6834  140.0537  157.0313 H   0  0  0  0  0  0  0  0  0  0  0  0  # atno 8009 bound_to 7997
  155.0968  140.3202  155.4561 H   0  0  0  0  0  0  0  0  0  0  0  0  # atno 8010 bound_to 7997
  139.5760  144.6963  151.3652 H   0  0  0  0  0  0  0  0  0  0  0  0  # atno 10167 bound_to 10162
  156.3764  130.4348  149.7504 H   0  0  0  0  0  0  0  0  0  0  0  0  # atno 10718 bound_to 10713
  153.2726  135.6933  153.7465 H   0  0  0  0  0  0  0  0  0  0  0  0  # atno 10763 bound_to 10752
  153.6483  135.3381  155.3093 H   0  0  0  0  0  0  0  0  0  0  0  0  # atno 10764 bound_to 10752
  154.8469  135.4448  154.1753 H   0  0  0  0  0  0  0  0  0  0  0  0  # atno 10765 bound_to 10752
  140.5548  134.0248  155.7950 H   0  0  0  0  0  0  0  0  0  0  0  0  # atno 11005 bound_to 11000
  145.8859  139.2349  143.1578 LP  0  0  0  0  0  0  0  0  0  0  0  0  # atno 17320 bound_to 7965
  145.9950  140.8570  143.0047 LP  0  0  0  0  0  0  0  0  0  0  0  0  # atno 17321 bound_to 7965
  140.7042  143.7554  150.7454 LP  0  0  0  0  0  0  0  0  0  0  0  0  # atno 17342 bound_to 10162
  140.1074  143.4731  152.2390 LP  0  0  0  0  0  0  0  0  0  0  0  0  # atno 17343 bound_to 10162
  156.4611  130.7952  151.2972 LP  0  0  0  0  0  0  0  0  0  0  0  0  # atno 17370 bound_to 10713
  157.7488  131.0065  150.3155 LP  0  0  0  0  0  0  0  0  0  0  0  0  # atno 17371 bound_to 10713
  141.1150  133.9555  157.2840 LP  0  0  0  0  0  0  0  0  0  0  0  0  # atno 17394 bound_to 11000
  139.9437  135.0187  156.8786 LP  0  0  0  0  0  0  0  0  0  0  0  0  # atno 17395 bound_to 11000

$$$$
