AV-unprocessed.smi:171|AV-procd|sdf|1421|dock1
  -GOLD-   2262019183D 1   1.00000     0.00000
 Structure written by MMmdl.
 56 59  0  0  0  0  0  0  0  0  1 V2000
  147.2603  135.0309  156.4444 C   0  0  0  0  0  0  0  0  0  0  0  0
  148.0692  136.2318  156.9597 C   0  0  0  0  0  0  0  0  0  0  0  0
  148.4845  136.0023  158.4213 C   0  0  0  0  0  0  0  0  0  0  0  0
  147.3349  137.5850  156.8110 C   0  0  0  0  0  0  0  0  0  0  0  0
  146.8356  137.9168  155.3717 C   0  0  1  0  0  0  0  0  0  0  0  0
  145.9345  139.1719  155.2552 C   0  0  0  0  0  0  0  0  0  0  0  0
  145.2681  139.5613  156.2117 O   0  0  0  0  0  0  0  0  0  0  0  0
  145.9009  139.8187  154.0762 N   0  0  0  0  0  0  0  0  0  0  0  0
  146.6857  139.4788  152.8865 C   0  0  0  0  0  0  0  0  0  0  0  0
  147.4538  138.1457  153.0102 C   0  0  0  0  0  0  0  0  0  0  0  0
  147.9243  137.9376  154.3778 N   0  0  0  0  0  0  0  0  0  0  0  0
  149.0874  138.5968  154.6342 C   0  0  0  0  0  0  0  0  0  0  0  0
  150.2885  137.9968  154.4174 N   0  0  0  0  0  0  0  0  0  0  0  0
  151.4254  138.6445  154.6866 C   0  0  0  0  0  0  0  0  0  0  0  0
  151.5886  139.8756  155.1744 N   0  0  0  0  0  0  0  0  0  0  0  0
  150.3876  140.4815  155.3982 C   0  0  0  0  0  0  0  0  0  0  0  0
  149.1025  139.9198  155.1554 C   0  0  0  0  0  0  0  0  0  0  0  0
  148.1128  140.8351  155.4924 N   0  0  0  0  0  0  0  0  0  0  0  0
  148.7751  141.8769  155.9158 C   0  0  0  0  0  0  0  0  0  0  0  0
  150.1459  141.7466  155.9042 N   0  0  0  0  0  0  0  0  0  0  0  0
  151.1212  142.7399  156.3277 C   0  0  0  0  0  0  0  0  0  0  0  0
  151.0653  143.0484  157.8473 C   0  0  2  0  0  0  0  0  0  0  0  0
  149.8001  143.6198  158.1358 O   0  0  0  0  0  0  0  0  0  0  0  0
  152.1368  144.0355  158.3059 C   0  0  0  0  0  0  0  0  0  0  0  0
  152.3903  143.6246  159.7479 C   0  0  0  0  0  0  0  0  0  0  0  0
  152.3343  142.2115  159.6741 O   0  0  0  0  0  0  0  0  0  0  0  0
  151.2675  141.8399  158.8055 C   0  0  2  0  0  0  0  0  0  0  0  0
  151.6322  140.4940  158.1600 C   0  0  0  0  0  0  0  0  0  0  0  0
  146.3026  134.9464  156.9589 H   0  0  0  0  0  0  0  0  0  0  0  0
  147.8027  134.0980  156.5998 H   0  0  0  0  0  0  0  0  0  0  0  0
  147.0645  135.1097  155.3755 H   0  0  0  0  0  0  0  0  0  0  0  0
  148.9876  136.2851  156.3736 H   0  0  0  0  0  0  0  0  0  0  0  0
  147.6136  135.9384  159.0748 H   0  0  0  0  0  0  0  0  0  0  0  0
  149.1156  136.8133  158.7856 H   0  0  0  0  0  0  0  0  0  0  0  0
  149.0499  135.0762  158.5291 H   0  0  0  0  0  0  0  0  0  0  0  0
  146.5154  137.6458  157.5287 H   0  0  0  0  0  0  0  0  0  0  0  0
  148.0427  138.3516  157.1284 H   0  0  0  0  0  0  0  0  0  0  0  0
  146.2028  137.0845  155.0611 H   0  0  0  0  0  0  0  0  0  0  0  0
  145.3056  140.6314  154.0079 H   0  0  0  0  0  0  0  0  0  0  0  0
  146.0377  139.4668  152.0098 H   0  0  0  0  0  0  0  0  0  0  0  0
  147.3985  140.2901  152.7349 H   0  0  0  0  0  0  0  0  0  0  0  0
  146.7873  137.3201  152.7581 H   0  0  0  0  0  0  0  0  0  0  0  0
  148.2631  138.1039  152.2802 H   0  0  0  0  0  0  0  0  0  0  0  0
  152.3340  138.0974  154.4838 H   0  0  0  0  0  0  0  0  0  0  0  0
  148.2774  142.7735  156.2553 H   0  0  0  0  0  0  0  0  0  0  0  0
  152.1132  142.3838  156.0468 H   0  0  0  0  0  0  0  0  0  0  0  0
  150.9412  143.6451  155.7474 H   0  0  0  0  0  0  0  0  0  0  0  0
  149.4454  143.9814  157.3381 H   0  0  0  0  0  0  0  0  0  0  0  0
  153.0541  143.8854  157.7351 H   0  0  0  0  0  0  0  0  0  0  0  0
  151.8486  145.0825  158.2011 H   0  0  0  0  0  0  0  0  0  0  0  0
  153.3529  143.9716  160.1240 H   0  0  0  0  0  0  0  0  0  0  0  0
  151.6038  143.9939  160.4078 H   0  0  0  0  0  0  0  0  0  0  0  0
  150.3799  141.6935  159.4240 H   0  0  0  0  0  0  0  0  0  0  0  0
  150.8433  140.1456  157.4933 H   0  0  0  0  0  0  0  0  0  0  0  0
  151.7738  139.7292  158.9236 H   0  0  0  0  0  0  0  0  0  0  0  0
  152.5591  140.5593  157.5896 H   0  0  0  0  0  0  0  0  0  0  0  0
  1  2  1  0  0  0  0
  1 29  1  0  0  0  0
  1 30  1  0  0  0  0
  1 31  1  0  0  0  0
  2  3  1  0  0  0  0
  2  4  1  0  0  0  0
  2 32  1  0  0  0  0
  3 33  1  0  0  0  0
  3 34  1  0  0  0  0
  3 35  1  0  0  0  0
  4  5  1  0  0  0  0
  4 36  1  0  0  0  0
  4 37  1  0  0  0  0
  5 11  1  0  0  0  0
  5  6  1  0  0  0  0
  5 38  1  0  0  0  0
  6  7  2  0  0  0  0
  6  8  1  0  0  0  0
  8  9  1  0  0  0  0
  8 39  1  0  0  0  0
  9 10  1  0  0  0  0
  9 40  1  0  0  0  0
  9 41  1  0  0  0  0
 10 11  1  0  0  0  0
 10 42  1  0  0  0  0
 10 43  1  0  0  0  0
 11 12  1  0  0  0  0
 12 17  1  0  0  0  0
 12 13  2  0  0  0  0
 13 14  1  0  0  0  0
 14 15  2  0  0  0  0
 14 44  1  0  0  0  0
 15 16  1  0  0  0  0
 16 20  1  0  0  0  0
 16 17  2  0  0  0  0
 17 18  1  0  0  0  0
 18 19  2  0  0  0  0
 19 20  1  0  0  0  0
 19 45  1  0  0  0  0
 20 21  1  0  0  0  0
 21 22  1  0  0  0  0
 21 46  1  0  0  0  0
 21 47  1  0  0  0  0
 22 27  1  0  0  0  0
 22 23  1  0  0  0  0
 22 24  1  0  0  0  0
 23 48  1  0  0  0  0
 24 25  1  0  0  0  0
 24 49  1  0  0  0  0
 24 50  1  0  0  0  0
 25 26  1  0  0  0  0
 25 51  1  0  0  0  0
 25 52  1  0  0  0  0
 26 27  1  0  0  0  0
 27 28  1  0  0  0  0
 27 53  1  0  0  0  0
 28 54  1  0  0  0  0
 28 55  1  0  0  0  0
 28 56  1  0  0  0  0
M  END
> <s_m_source_file>
AV-unprocessed.smi

> <i_m_source_file_index>
171

> <i_lp_mmshare_version>
43012

> <i_f3d_flags>
0

> <s_epik_input>
W0NIM11bQ0hdKFtDSDNdKVtDSDJdW0NAQEhdMUMoPU8pW05IXVtDSDJdW0NIMl1OMWMobltjSF1uMiljKGMyMyluW2NIXW4zW0NIMl1bQ0BAXTQoW09IXSlbQ0gyXVtDSDJdT1tDQEhdNFtDSDNd

> <s_epik_cmdline>
J2VwaWtfcHl0aG9uJywgJy1waCcsICc3LjAnLCAnLXRuJywgJzgnLCAnLW1hJywgJzIwMCcsICctbWV0YWxfYmluZGluZycsICctaW1hZScsICc8aW5maWxlLm1hZT4nLCAnLW9tYWUnLCAnPG91dGZpbGUubWFlPic=

> <r_lp_tautomer_probability>
1

> <r_epik_Ionization_Penalty>
0.000670584

> <r_epik_Ionization_Penalty_Charging>
0

> <r_epik_Ionization_Penalty_Neutral>
0.000670584

> <r_epik_State_Penalty>
0.000304767

> <r_epik_Charging_Adjusted_Penalty>
0.000304767

> <i_epik_Tot_Q>
0

> <i_epik_Tot_abs_Q>
0

> <r_epik_Metal_State_Penalty>
-0

> <b_epik_Metal_Only>
0

> <s_lp_Force_Field>
OPLS_2005

> <r_lp_Energy>
45.2633

> <b_lp_Chiralities_Consistent>
1

> <s_lp_Variant>
AV-unprocessed.smi:171-8

> <Gold.Version>
5.8.1

> <Gold.Id.Protein>
6NUR|6NUR_protein|mol2

> <Gold.PLP.Fitness>
38.8526

> <Gold.PLP.PLP>
-32.4159

> <Gold.PLP.part.hbond>
-3.7247

> <Gold.PLP.part.metal>
0.0000

> <Gold.PLP.part.buried>
1.0429

> <Gold.PLP.part.nonpolar>
-31.3730

> <Gold.PLP.part.repulsive>
0.7675

> <Gold.PLP.ligand.clash>
0.0000

> <Gold.PLP.ligand.torsion>
0.5748

> <Gold.PLP.Chemscore.Hbond>
1.4676

> <Gold.PLP.Chemscore.CHOScore>
0.8943

> <Gold.PLP.Chemscore.Metal>
0.0000

> <Gold.Chemscore.Hbonds>
donor molecule, donor type, donor heavy atom, donor atom, acceptor molecule, acceptor atom, score
      L1  H     8    39       P1 10175  0.15
      L1  H    23    48       P1  8028  1.00
      P1  H  7989  7998       L1    15  0.33
      L1  C    19    45       P1  8028  0.87

> <Gold.PLP.Chemscore.Internal.Correction>
0.5006

> <Gold.Rescore>
     Score         DG    S(hbond)    S(metal)    S(lipo)     H(rot)  DE(clash)    DE(int)     intcor
      3.17     -10.54       0.67        0.00      81.18       2.61       1.79       5.58       ----

> <Gold.Chemscore.Fitness>
3.1732

> <Gold.Chemscore.DG>
-10.5365

> <Gold.Chemscore.ZeroCoef>
-5.4800

> <Gold.Chemscore.Hbond>
0.6685

> <Gold.Chemscore.Metal>
0.0000

> <Gold.Chemscore.Lipo>
81.1846

> <Gold.Chemscore.Internal_Hbond>
0.0000

> <Gold.Chemscore.DEClash>
1.7857

> <Gold.Chemscore.DEInternal>
5.5776

> <Gold.Chemscore.Rot>
2.6074

> <Gold.Chemscore.Internal.Correction>
   9.000000E+99

> <Gold.Chemscore.Hbonds>
donor molecule, donor type, donor heavy atom, donor atom, acceptor molecule, acceptor atom, score
      L1  H     8    39       P1 10175  0.16
      L1  H    23    48       P1  8028  0.35

> <Gold.Chemscore.Hbond.Weighted>
-2.2327

> <Gold.Chemscore.Metal.Weighted>
-0.0000

> <Gold.Chemscore.Lipo.Weighted>
-9.4986

> <Gold.Chemscore.Internal_Hbond.Weighted>
0.0000

> <Gold.Chemscore.DEClash.Weighted>
1.7857

> <Gold.Chemscore.DEInternal.Weighted>
5.5776

> <Gold.Chemscore.Rot.Weighted>
6.6748

> <Gold.Chemscore.Internal.Correction.Weighted>
   9.000000E+99

> <Gold.Protein.RotatedTorsions>
[ 6907 6896 6895 6894 ] final  174.69 input  -60.11 | X-H torsion
[ 7974 7965 7964 7962 ] final  -59.73 input  175.53 | X-H torsion
[ 8008 7997 7996 7995 ] final  -53.46 input   59.86 | X-H torsion
[ 10167 10162 10161 10158 ] final  -26.91 input  -65.29 | X-H torsion
[ 10718 10713 10712 10709 ] final  160.29 input   66.30 | X-H torsion
[ 10763 10752 10751 10750 ] final    8.76 input  -60.55 | X-H torsion
[ 11005 11000 10999 10996 ] final   66.23 input  -57.11 | X-H torsion

> <Gold.Protein.ActiveResidues>
 VAL166  LYS551  ARG553  GLY616  TRP617  ASP618  TYR619  PRO620  LYS621  CYS622 
 ASP623  PHE694  ASN695  SER759  ASP760  ASP761  ALA762  ILE779  LEU786  VAL792 
 PHE793  MET794  SER795  GLU796  ALA797  LYS798  CYS799  TRP800  GLU811  SER814 

> <Gold.Protein.RotatedAtoms>
  151.7482  133.3326  159.3384 H   0  0  0  0  0  0  0  0  0  0  0  0  # atno 6907 bound_to 6896
  150.7546  134.6216  159.6148 H   0  0  0  0  0  0  0  0  0  0  0  0  # atno 6908 bound_to 6896
  152.3486  134.7039  160.0294 H   0  0  0  0  0  0  0  0  0  0  0  0  # atno 6909 bound_to 6896
  145.8240  140.8522  143.0118 H   0  0  0  0  0  0  0  0  0  0  0  0  # atno 7974 bound_to 7965
  154.4134  140.1199  156.5158 H   0  0  0  0  0  0  0  0  0  0  0  0  # atno 8008 bound_to 7997
  155.6753  140.3496  155.4815 H   0  0  0  0  0  0  0  0  0  0  0  0  # atno 8009 bound_to 7997
  155.9598  140.1120  157.0895 H   0  0  0  0  0  0  0  0  0  0  0  0  # atno 8010 bound_to 7997
  140.7280  143.4138  151.1062 H   0  0  0  0  0  0  0  0  0  0  0  0  # atno 10167 bound_to 10162
  157.1525  131.0567  151.2273 H   0  0  0  0  0  0  0  0  0  0  0  0  # atno 10718 bound_to 10713
  153.2215  135.6882  153.7995 H   0  0  0  0  0  0  0  0  0  0  0  0  # atno 10763 bound_to 10752
  153.7191  135.3270  155.3264 H   0  0  0  0  0  0  0  0  0  0  0  0  # atno 10764 bound_to 10752
  154.8272  135.4609  154.1064 H   0  0  0  0  0  0  0  0  0  0  0  0  # atno 10765 bound_to 10752
  139.9845  134.6691  156.0202 H   0  0  0  0  0  0  0  0  0  0  0  0  # atno 11005 bound_to 11000
  144.6745  140.0575  143.7477 LP  0  0  0  0  0  0  0  0  0  0  0  0  # atno 17320 bound_to 7965
  145.9643  139.2823  143.1136 LP  0  0  0  0  0  0  0  0  0  0  0  0  # atno 17321 bound_to 7965
  139.7774  143.8404  152.3132 LP  0  0  0  0  0  0  0  0  0  0  0  0  # atno 17342 bound_to 10162
  139.8344  144.7239  150.9410 LP  0  0  0  0  0  0  0  0  0  0  0  0  # atno 17343 bound_to 10162
  157.4207  130.7436  149.6911 LP  0  0  0  0  0  0  0  0  0  0  0  0  # atno 17370 bound_to 10713
  155.9768  130.4071  150.3755 LP  0  0  0  0  0  0  0  0  0  0  0  0  # atno 17371 bound_to 10713
  141.1512  133.6548  156.4019 LP  0  0  0  0  0  0  0  0  0  0  0  0  # atno 17394 bound_to 11000
  140.5030  134.6467  157.5256 LP  0  0  0  0  0  0  0  0  0  0  0  0  # atno 17395 bound_to 11000

$$$$
