AV-unprocessed.smi:2807|AV-procd|sdf|10823|dock3
  -GOLD-   2272015263D 1   1.00000     0.00000
 Structure written by MMmdl.
 31 32  0  0  0  0  0  0  0  0  2 V2000
  148.9873  142.2028  157.7099 O   0  0  0  0  0  0  0  0  0  0  0  0
  149.5462  141.1214  157.4910 C   0  0  0  0  0  0  0  0  0  0  0  0
  149.0972  140.0298  156.8076 N   0  5  0  0  0  0  0  0  0  0  0  0
  148.2724  140.1005  155.6029 C   0  0  1  0  0  0  0  0  0  0  0  0
  146.9880  140.9050  155.8419 C   0  0  0  0  0  0  0  0  0  0  0  0
  146.5751  141.4409  154.4621 C   0  0  0  0  0  0  0  0  0  0  0  0
  147.8183  141.3340  153.5631 C   0  0  0  0  0  0  0  0  0  0  0  0
  148.9634  140.8930  154.4862 C   0  0  2  0  0  0  0  0  0  0  0  0
  149.9199  140.1160  153.7947 O   0  0  0  0  0  0  0  0  0  0  0  0
  150.9816  140.9147  158.0191 C   0  0  0  0  0  0  0  0  0  0  0  0
  150.9932  139.8649  158.8445 F   0  0  0  0  0  0  0  0  0  0  0  0
  151.7972  140.6312  156.9979 F   0  0  0  0  0  0  0  0  0  0  0  0
  151.4585  142.1450  158.7906 C   0  0  0  0  0  0  0  0  0  0  0  0
  151.5596  143.4001  158.1477 C   0  0  0  0  0  0  0  0  0  0  0  0
  152.0273  144.5032  158.8866 C   0  0  0  0  0  0  0  0  0  0  0  0
  152.3736  144.3167  160.2382 C   0  0  0  0  0  0  0  0  0  0  0  0
  152.2345  143.0290  160.7923 C   0  0  0  0  0  0  0  0  0  0  0  0
  151.7864  141.9654  160.0929 N   0  0  0  0  0  0  0  0  0  0  0  0
  148.0010  139.1148  155.2182 H   0  0  0  0  0  0  0  0  0  0  0  0
  146.2043  140.3053  156.3058 H   0  0  0  0  0  0  0  0  0  0  0  0
  147.1882  141.7490  156.5050 H   0  0  0  0  0  0  0  0  0  0  0  0
  145.7568  140.8524  154.0440 H   0  0  0  0  0  0  0  0  0  0  0  0
  146.2242  142.4709  154.5376 H   0  0  0  0  0  0  0  0  0  0  0  0
  147.6368  140.5941  152.7802 H   0  0  0  0  0  0  0  0  0  0  0  0
  148.0464  142.2769  153.0643 H   0  0  0  0  0  0  0  0  0  0  0  0
  149.4507  141.7796  154.8964 H   0  0  0  0  0  0  0  0  0  0  0  0
  149.6253  140.0155  152.9027 H   0  0  0  0  0  0  0  0  0  0  0  0
  151.2954  143.5094  157.1061 H   0  0  0  0  0  0  0  0  0  0  0  0
  152.1218  145.4742  158.4236 H   0  0  0  0  0  0  0  0  0  0  0  0
  152.7385  145.1391  160.8351 H   0  0  0  0  0  0  0  0  0  0  0  0
  152.4900  142.8486  161.8259 H   0  0  0  0  0  0  0  0  0  0  0  0
  1  2  2  0  0  0  0
  2  3  1  0  0  0  0
  2 10  1  0  0  0  0
  3  4  1  0  0  0  0
  4  8  1  0  0  0  0
  4  5  1  0  0  0  0
  4 19  1  0  0  0  0
  5  6  1  0  0  0  0
  5 20  1  0  0  0  0
  5 21  1  0  0  0  0
  6  7  1  0  0  0  0
  6 22  1  0  0  0  0
  6 23  1  0  0  0  0
  7  8  1  0  0  0  0
  7 24  1  0  0  0  0
  7 25  1  0  0  0  0
  8  9  1  0  0  0  0
  8 26  1  0  0  0  0
  9 27  1  0  0  0  0
 10 11  1  0  0  0  0
 10 12  1  0  0  0  0
 10 13  1  0  0  0  0
 13 18  1  0  0  0  0
 13 14  2  0  0  0  0
 14 15  1  0  0  0  0
 14 28  1  0  0  0  0
 15 16  2  0  0  0  0
 15 29  1  0  0  0  0
 16 17  1  0  0  0  0
 16 30  1  0  0  0  0
 17 18  2  0  0  0  0
 17 31  1  0  0  0  0
M  CHG  1   3  -1
M  END
> <s_m_source_file>
AV-unprocessed.smi

> <i_m_source_file_index>
2807

> <i_lp_mmshare_version>
43012

> <i_f3d_flags>
0

> <s_epik_input>
bjFbY0hdW2NIXVtjSF1bY0hdYzFDKEYpKEYpQyg9TylbTkhdW0NAQEhdMltDSDJdW0NIMl1bQ0gyXVtDQEhdMltPSF0=

> <s_epik_cmdline>
J2VwaWtfcHl0aG9uJywgJy1waCcsICc3LjAnLCAnLXRuJywgJzgnLCAnLW1hJywgJzIwMCcsICctbWV0YWxfYmluZGluZycsICctaW1hZScsICc8aW5maWxlLm1hZT4nLCAnLW9tYWUnLCAnPG91dGZpbGUubWFlPic=

> <r_lp_tautomer_probability>
1

> <r_epik_Ionization_Penalty>
5.72231

> <r_epik_Ionization_Penalty_Charging>
5.72231

> <r_epik_Ionization_Penalty_Neutral>
5.49816e-06

> <r_epik_State_Penalty>
5.72227

> <r_epik_Charging_Adjusted_Penalty>
11.4446

> <i_epik_Tot_Q>
-1

> <i_epik_Tot_abs_Q>
1

> <r_epik_Metal_State_Penalty>
1.70075

> <b_epik_Metal_Only>
1

> <s_lp_Force_Field>
OPLS_2005

> <r_lp_Energy>
34.2298

> <b_lp_Chiralities_Consistent>
1

> <s_lp_Variant>
AV-unprocessed.smi:2807-8

> <Gold.Version>
5.8.1

> <Gold.Id.Protein>
6NUR|6NUR_protein|mol2

> <Gold.PLP.Fitness>
39.5552

> <Gold.PLP.PLP>
-34.7614

> <Gold.PLP.part.hbond>
-2.1501

> <Gold.PLP.part.metal>
0.0000

> <Gold.PLP.part.buried>
-5.9297

> <Gold.PLP.part.nonpolar>
-26.6297

> <Gold.PLP.part.repulsive>
0.3238

> <Gold.PLP.ligand.clash>
0.0000

> <Gold.PLP.ligand.torsion>
0.2989

> <Gold.PLP.Chemscore.Hbond>
1.7840

> <Gold.PLP.Chemscore.CHOScore>
0.0000

> <Gold.PLP.Chemscore.Metal>
0.0000

> <Gold.Chemscore.Hbonds>
donor molecule, donor type, donor heavy atom, donor atom, acceptor molecule, acceptor atom, score
      L1  H     9    27       P1  7957  1.00
      P1  H  7989  7998       L1     9  0.73

> <Gold.PLP.Chemscore.Internal.Correction>
0.0396

> <Gold.Rescore>
     Score         DG    S(hbond)    S(metal)    S(lipo)     H(rot)  DE(clash)    DE(int)     intcor
     14.01     -15.65       1.46        0.00      88.95       2.00       0.02       1.62       ----

> <Gold.Chemscore.Fitness>
14.0119

> <Gold.Chemscore.DG>
-15.6523

> <Gold.Chemscore.ZeroCoef>
-5.4800

> <Gold.Chemscore.Hbond>
1.4600

> <Gold.Chemscore.Metal>
0.0000

> <Gold.Chemscore.Lipo>
88.9472

> <Gold.Chemscore.Internal_Hbond>
0.0000

> <Gold.Chemscore.DEClash>
0.0186

> <Gold.Chemscore.DEInternal>
1.6217

> <Gold.Chemscore.Rot>
1.9964

> <Gold.Chemscore.Internal.Correction>
   9.000000E+99

> <Gold.Chemscore.Hbonds>
donor molecule, donor type, donor heavy atom, donor atom, acceptor molecule, acceptor atom, score
      L1  H     9    27       P1  7957  1.00
      P1  H  7989  7998       L1     9  0.16

> <Gold.Chemscore.Hbond.Weighted>
-4.8763

> <Gold.Chemscore.Metal.Weighted>
-0.0000

> <Gold.Chemscore.Lipo.Weighted>
-10.4068

> <Gold.Chemscore.Internal_Hbond.Weighted>
0.0000

> <Gold.Chemscore.DEClash.Weighted>
0.0186

> <Gold.Chemscore.DEInternal.Weighted>
1.6217

> <Gold.Chemscore.Rot.Weighted>
5.1108

> <Gold.Chemscore.Internal.Correction.Weighted>
   9.000000E+99

> <Gold.Protein.RotatedTorsions>
[ 6907 6896 6895 6894 ] final    1.97 input  -60.11 | X-H torsion
[ 7974 7965 7964 7962 ] final   39.73 input  175.53 | X-H torsion
[ 8008 7997 7996 7995 ] final   56.86 input   59.86 | X-H torsion
[ 10167 10162 10161 10158 ] final  110.17 input  -65.29 | X-H torsion
[ 10718 10713 10712 10709 ] final   -7.26 input   66.30 | X-H torsion
[ 10763 10752 10751 10750 ] final   40.82 input  -60.55 | X-H torsion
[ 11005 11000 10999 10996 ] final -152.95 input  -57.11 | X-H torsion

> <Gold.Protein.ActiveResidues>
 VAL166  LYS551  ARG553  GLY616  TRP617  ASP618  TYR619  PRO620  LYS621  CYS622 
 ASP623  PHE694  ASN695  SER759  ASP760  ASP761  ALA762  ILE779  LEU786  VAL792 
 PHE793  MET794  SER795  GLU796  ALA797  LYS798  CYS799  TRP800  GLU811  SER814 

> <Gold.Protein.RotatedAtoms>
  151.6013  135.1047  160.0060 H   0  0  0  0  0  0  0  0  0  0  0  0  # atno 6907 bound_to 6896
  152.4256  133.7185  159.6530 H   0  0  0  0  0  0  0  0  0  0  0  0  # atno 6908 bound_to 6896
  150.8145  133.8290  159.3189 H   0  0  0  0  0  0  0  0  0  0  0  0  # atno 6909 bound_to 6896
  146.0961  139.5617  142.9444 H   0  0  0  0  0  0  0  0  0  0  0  0  # atno 7974 bound_to 7965
  155.5243  140.3480  155.4413 H   0  0  0  0  0  0  0  0  0  0  0  0  # atno 8008 bound_to 7997
  156.0762  140.1375  156.9795 H   0  0  0  0  0  0  0  0  0  0  0  0  # atno 8009 bound_to 7997
  154.4555  140.0955  156.6719 H   0  0  0  0  0  0  0  0  0  0  0  0  # atno 8010 bound_to 7997
  139.6709  144.7125  151.1690 H   0  0  0  0  0  0  0  0  0  0  0  0  # atno 10167 bound_to 10162
  156.7199  130.5147  149.5871 H   0  0  0  0  0  0  0  0  0  0  0  0  # atno 10718 bound_to 10713
  152.9925  135.6180  154.2688 H   0  0  0  0  0  0  0  0  0  0  0  0  # atno 10763 bound_to 10752
  154.2422  135.2788  155.2851 H   0  0  0  0  0  0  0  0  0  0  0  0  # atno 10764 bound_to 10752
  154.5360  135.5774  153.6856 H   0  0  0  0  0  0  0  0  0  0  0  0  # atno 10765 bound_to 10752
  140.7133  134.3808  157.5194 H   0  0  0  0  0  0  0  0  0  0  0  0  # atno 11005 bound_to 11000
  145.5945  141.0364  143.2052 LP  0  0  0  0  0  0  0  0  0  0  0  0  # atno 17320 bound_to 7965
  144.7396  139.7485  143.7316 LP  0  0  0  0  0  0  0  0  0  0  0  0  # atno 17321 bound_to 7965
  140.7617  143.5846  150.8859 LP  0  0  0  0  0  0  0  0  0  0  0  0  # atno 17342 bound_to 10162
  139.9511  143.6271  152.3028 LP  0  0  0  0  0  0  0  0  0  0  0  0  # atno 17343 bound_to 10162
  156.1602  130.6369  151.0709 LP  0  0  0  0  0  0  0  0  0  0  0  0  # atno 17370 bound_to 10713
  157.6902  131.0812  150.7128 LP  0  0  0  0  0  0  0  0  0  0  0  0  # atno 17371 bound_to 10713
  139.8866  134.8905  156.2576 LP  0  0  0  0  0  0  0  0  0  0  0  0  # atno 17394 bound_to 11000
  141.0065  133.7120  156.1044 LP  0  0  0  0  0  0  0  0  0  0  0  0  # atno 17395 bound_to 11000

$$$$
