AV-unprocessed.smi:2969|AV-procd|sdf|11330|dock2
  -GOLD-   2272016243D 1   1.00000     0.00000
 Structure written by MMmdl.
 39 39  0  0  0  0  0  0  0  0  2 V2000
  149.0624  132.5218  153.5941 C   0  0  0  0  0  0  0  0  0  0  0  0
  149.1794  133.3882  154.8551 C   0  0  0  0  0  0  0  0  0  0  0  0
  150.1106  134.6102  154.7046 C   0  0  0  0  0  0  0  0  0  0  0  0
  150.0294  135.5436  155.8517 N   0  0  0  0  0  0  0  0  0  0  0  0
  149.6883  136.9015  155.6064 C   0  0  0  0  0  0  0  0  0  0  0  0
  149.4318  137.3077  154.3049 N   0  0  0  0  0  0  0  0  0  0  0  0
  149.6273  137.7843  156.6384 C   0  0  0  0  0  0  0  0  0  0  0  0
  149.2833  139.1359  156.4564 N   0  0  0  0  0  0  0  0  0  0  0  0
  150.3045  140.1289  156.8274 C   0  0  0  0  0  0  0  0  0  0  0  0
  151.3422  140.3595  155.7096 C   0  0  0  0  0  0  0  0  0  0  0  0
  152.4907  139.5417  155.8833 O   0  0  0  0  0  0  0  0  0  0  0  0
  152.8070  138.7422  154.7540 C   0  0  0  0  0  0  0  0  0  0  0  0
  148.1214  139.5208  155.8619 C   0  0  0  0  0  0  0  0  0  0  0  0
  147.2655  138.6985  155.5271 O   0  0  0  0  0  0  0  0  0  0  0  0
  147.8443  141.0117  155.5714 C   0  0  0  0  0  0  0  0  0  0  0  0
  147.8839  141.7185  156.7000 F   0  0  0  0  0  0  0  0  0  0  0  0
  148.7364  141.4896  154.7041 F   0  0  0  0  0  0  0  0  0  0  0  0
  146.6293  141.1448  155.0360 F   0  0  0  0  0  0  0  0  0  0  0  0
  149.8765  137.3020  158.0012 C   0  0  0  0  0  0  0  0  0  0  0  0
  149.7925  138.0765  158.9547 O   0  0  0  0  0  0  0  0  0  0  0  0
  150.1961  135.9909  158.1591 N   0  5  0  0  0  0  0  0  0  0  0  0
  150.2839  135.1067  157.1246 C   0  0  0  0  0  0  0  0  0  0  0  0
  150.5902  133.9283  157.3106 O   0  0  0  0  0  0  0  0  0  0  0  0
  148.4501  131.6407  153.7856 H   0  0  0  0  0  0  0  0  0  0  0  0
  150.0421  132.1807  153.2586 H   0  0  0  0  0  0  0  0  0  0  0  0
  148.5981  133.0713  152.7749 H   0  0  0  0  0  0  0  0  0  0  0  0
  148.1833  133.7102  155.1588 H   0  0  0  0  0  0  0  0  0  0  0  0
  149.5523  132.7671  155.6699 H   0  0  0  0  0  0  0  0  0  0  0  0
  151.1388  134.2706  154.5779 H   0  0  0  0  0  0  0  0  0  0  0  0
  149.8947  135.1063  153.7576 H   0  0  0  0  0  0  0  0  0  0  0  0
  149.4798  136.6680  153.5252 H   0  0  0  0  0  0  0  0  0  0  0  0
  149.1603  138.2567  154.0909 H   0  0  0  0  0  0  0  0  0  0  0  0
  149.8269  141.0816  157.0637 H   0  0  0  0  0  0  0  0  0  0  0  0
  150.7884  139.8130  157.7523 H   0  0  0  0  0  0  0  0  0  0  0  0
  150.9138  140.2102  154.7175 H   0  0  0  0  0  0  0  0  0  0  0  0
  151.6823  141.3938  155.7442 H   0  0  0  0  0  0  0  0  0  0  0  0
  153.7211  138.1826  154.9516 H   0  0  0  0  0  0  0  0  0  0  0  0
  152.9780  139.3578  153.8701 H   0  0  0  0  0  0  0  0  0  0  0  0
  152.0211  138.0212  154.5308 H   0  0  0  0  0  0  0  0  0  0  0  0
  1  2  1  0  0  0  0
  1 24  1  0  0  0  0
  1 25  1  0  0  0  0
  1 26  1  0  0  0  0
  2  3  1  0  0  0  0
  2 27  1  0  0  0  0
  2 28  1  0  0  0  0
  3  4  1  0  0  0  0
  3 29  1  0  0  0  0
  3 30  1  0  0  0  0
  4 22  1  0  0  0  0
  4  5  1  0  0  0  0
  5  6  1  0  0  0  0
  5  7  2  0  0  0  0
  6 31  1  0  0  0  0
  6 32  1  0  0  0  0
  7  8  1  0  0  0  0
  7 19  1  0  0  0  0
  8  9  1  0  0  0  0
  8 13  1  0  0  0  0
  9 10  1  0  0  0  0
  9 33  1  0  0  0  0
  9 34  1  0  0  0  0
 10 11  1  0  0  0  0
 10 35  1  0  0  0  0
 10 36  1  0  0  0  0
 11 12  1  0  0  0  0
 12 37  1  0  0  0  0
 12 38  1  0  0  0  0
 12 39  1  0  0  0  0
 13 14  2  0  0  0  0
 13 15  1  0  0  0  0
 15 16  1  0  0  0  0
 15 17  1  0  0  0  0
 15 18  1  0  0  0  0
 19 20  2  0  0  0  0
 19 21  1  0  0  0  0
 21 22  1  0  0  0  0
 22 23  2  0  0  0  0
M  CHG  1  21  -1
M  END
> <s_m_source_file>
AV-unprocessed.smi

> <i_m_source_file_index>
2969

> <i_lp_mmshare_version>
43012

> <i_f3d_flags>
0

> <s_epik_input>
W0NIM11bQ0gyXVtDSDJdbjFjKFtOSDJdKWMoYyg9TylbbkhdYzE9TylOKEMoPU8pQyhGKShGKUYpW0NIMl1bQ0gyXU9bQ0gzXQ==

> <s_epik_cmdline>
J2VwaWtfcHl0aG9uJywgJy1waCcsICc3LjAnLCAnLXRuJywgJzgnLCAnLW1hJywgJzIwMCcsICctbWV0YWxfYmluZGluZycsICctaW1hZScsICc8aW5maWxlLm1hZT4nLCAnLW9tYWUnLCAnPG91dGZpbGUubWFlPic=

> <r_lp_tautomer_probability>
1

> <r_epik_Ionization_Penalty>
4.29138

> <r_epik_Ionization_Penalty_Charging>
0.0262752

> <r_epik_Ionization_Penalty_Neutral>
4.26511

> <r_epik_State_Penalty>
4.26466

> <r_epik_Charging_Adjusted_Penalty>
4.29094

> <i_epik_Tot_Q>
-1

> <i_epik_Tot_abs_Q>
1

> <r_epik_Metal_State_Penalty>
0.502851

> <b_epik_Metal_Only>
1

> <s_epik_Chemistry_Notes>
This compound has an imine and may undergo hydrolysis.

> <s_lp_Force_Field>
OPLS_2005

> <r_lp_Energy>
42.256

> <b_lp_Chiralities_Consistent>
1

> <s_lp_Variant>
AV-unprocessed.smi:2969-2

> <Gold.Version>
5.8.1

> <Gold.Id.Protein>
6NUR|6NUR_protein|mol2

> <Gold.PLP.Fitness>
38.7915

> <Gold.PLP.PLP>
-29.8974

> <Gold.PLP.part.hbond>
-4.3261

> <Gold.PLP.part.metal>
0.0000

> <Gold.PLP.part.buried>
-4.2220

> <Gold.PLP.part.nonpolar>
-22.6146

> <Gold.PLP.part.repulsive>
0.0147

> <Gold.PLP.ligand.clash>
4.3256

> <Gold.PLP.ligand.torsion>
2.1287

> <Gold.PLP.Chemscore.Hbond>
3.9425

> <Gold.PLP.Chemscore.CHOScore>
0.0000

> <Gold.PLP.Chemscore.Metal>
0.0000

> <Gold.Chemscore.Hbonds>
donor molecule, donor type, donor heavy atom, donor atom, acceptor molecule, acceptor atom, score
      L1  H     6    31       P1  7948  0.99
      P1  H  6896  6907       L1    21  1.63
      P1  H  6896  6909       L1    23  0.32
      P1  H  7997  8008       L1    11  0.95

> <Gold.PLP.Chemscore.Internal.Correction>
5.6496

> <Gold.Rescore>
     Score         DG    S(hbond)    S(metal)    S(lipo)     H(rot)  DE(clash)    DE(int)     intcor
      7.35     -13.21       2.51        0.00      43.22       2.24       0.13       5.73       ----

> <Gold.Chemscore.Fitness>
7.3491

> <Gold.Chemscore.DG>
-13.2051

> <Gold.Chemscore.ZeroCoef>
-5.4800

> <Gold.Chemscore.Hbond>
2.5133

> <Gold.Chemscore.Metal>
0.0000

> <Gold.Chemscore.Lipo>
43.2184

> <Gold.Chemscore.Internal_Hbond>
0.0000

> <Gold.Chemscore.DEClash>
0.1308

> <Gold.Chemscore.DEInternal>
5.7252

> <Gold.Chemscore.Rot>
2.2366

> <Gold.Chemscore.Internal.Correction>
   9.000000E+99

> <Gold.Chemscore.Hbonds>
donor molecule, donor type, donor heavy atom, donor atom, acceptor molecule, acceptor atom, score
      L1  H     6    31       P1  7948  0.78
      P1  H  6896  6907       L1    21  0.29
      P1  H  6896  6909       L1    23  0.30
      P1  H  7997  8008       L1    11  0.21

> <Gold.Chemscore.Hbond.Weighted>
-8.3943

> <Gold.Chemscore.Metal.Weighted>
-0.0000

> <Gold.Chemscore.Lipo.Weighted>
-5.0566

> <Gold.Chemscore.Internal_Hbond.Weighted>
0.0000

> <Gold.Chemscore.DEClash.Weighted>
0.1308

> <Gold.Chemscore.DEInternal.Weighted>
5.7252

> <Gold.Chemscore.Rot.Weighted>
5.7257

> <Gold.Chemscore.Internal.Correction.Weighted>
   9.000000E+99

> <Gold.Protein.RotatedTorsions>
[ 6907 6896 6895 6894 ] final  -41.79 input  -60.11 | X-H torsion
[ 7974 7965 7964 7962 ] final  -61.48 input  175.53 | X-H torsion
[ 8008 7997 7996 7995 ] final  -47.11 input   59.86 | X-H torsion
[ 10167 10162 10161 10158 ] final   67.50 input  -65.29 | X-H torsion
[ 10718 10713 10712 10709 ] final  -96.89 input   66.30 | X-H torsion
[ 10763 10752 10751 10750 ] final  -55.95 input  -60.55 | X-H torsion
[ 11005 11000 10999 10996 ] final  -57.60 input  -57.11 | X-H torsion

> <Gold.Protein.ActiveResidues>
 VAL166  LYS551  ARG553  GLY616  TRP617  ASP618  TYR619  PRO620  LYS621  CYS622 
 ASP623  PHE694  ASN695  SER759  ASP760  ASP761  ALA762  ILE779  LEU786  VAL792 
 PHE793  MET794  SER795  GLU796  ALA797  LYS798  CYS799  TRP800  GLU811  SER814 

> <Gold.Protein.RotatedAtoms>
  150.9626  134.9012  159.7739 H   0  0  0  0  0  0  0  0  0  0  0  0  # atno 6907 bound_to 6896
  152.5162  134.3651  159.9308 H   0  0  0  0  0  0  0  0  0  0  0  0  # atno 6908 bound_to 6896
  151.3663  133.3830  159.2729 H   0  0  0  0  0  0  0  0  0  0  0  0  # atno 6909 bound_to 6896
  145.8029  140.8644  143.0222 H   0  0  0  0  0  0  0  0  0  0  0  0  # atno 7974 bound_to 7965
  154.4013  140.1354  156.4122 H   0  0  0  0  0  0  0  0  0  0  0  0  # atno 8008 bound_to 7997
  155.7723  140.3483  155.5233 H   0  0  0  0  0  0  0  0  0  0  0  0  # atno 8009 bound_to 7997
  155.8755  140.0979  157.1511 H   0  0  0  0  0  0  0  0  0  0  0  0  # atno 8010 bound_to 7997
  140.0888  144.5006  150.7112 H   0  0  0  0  0  0  0  0  0  0  0  0  # atno 10167 bound_to 10162
  156.0072  130.5171  150.6294 H   0  0  0  0  0  0  0  0  0  0  0  0  # atno 10718 bound_to 10713
  154.1989  135.6414  153.5081 H   0  0  0  0  0  0  0  0  0  0  0  0  # atno 10763 bound_to 10752
  153.0017  135.5446  154.6336 H   0  0  0  0  0  0  0  0  0  0  0  0  # atno 10764 bound_to 10752
  154.5744  135.2919  155.0768 H   0  0  0  0  0  0  0  0  0  0  0  0  # atno 10765 bound_to 10752
  141.1172  133.6610  156.4794 H   0  0  0  0  0  0  0  0  0  0  0  0  # atno 11005 bound_to 11000
  144.6766  140.0285  143.7483 LP  0  0  0  0  0  0  0  0  0  0  0  0  # atno 17320 bound_to 7965
  145.9859  139.2977  143.1014 LP  0  0  0  0  0  0  0  0  0  0  0  0  # atno 17321 bound_to 7965
  140.7039  143.2454  151.4783 LP  0  0  0  0  0  0  0  0  0  0  0  0  # atno 17342 bound_to 10162
  139.5737  144.1870  152.1872 LP  0  0  0  0  0  0  0  0  0  0  0  0  # atno 17343 bound_to 10162
  157.4094  131.0821  151.1234 LP  0  0  0  0  0  0  0  0  0  0  0  0  # atno 17370 bound_to 10713
  157.1871  130.6335  149.5691 LP  0  0  0  0  0  0  0  0  0  0  0  0  # atno 17371 bound_to 10713
  140.4613  134.6839  157.5086 LP  0  0  0  0  0  0  0  0  0  0  0  0  # atno 17394 bound_to 11000
  140.0102  134.6702  155.9393 LP  0  0  0  0  0  0  0  0  0  0  0  0  # atno 17395 bound_to 11000

$$$$
