AV-unprocessed.smi:21|AV-procd|sdf|137|dock7
  -GOLD-   2262015333D 1   1.00000     0.00000
 Structure written by MMmdl.
 62 65  0  0  0  0  0  0  0  0  2 V2000
  144.5865  132.5164  150.3140 C   0  0  0  0  0  0  0  0  0  0  0  0
  144.5823  132.7639  151.7106 O   0  0  0  0  0  0  0  0  0  0  0  0
  145.5122  133.7580  152.1148 C   0  0  1  0  0  0  0  0  0  0  0  0
  145.4117  134.1100  153.5953 C   0  0  0  0  0  0  0  0  0  0  0  0
  146.7976  134.6804  153.9303 C   0  0  1  0  0  0  0  0  0  0  0  0
  147.1742  134.5623  155.4280 C   0  0  0  0  0  0  0  0  0  0  0  0
  146.3562  135.4291  156.2813 N   0  0  0  0  0  0  0  0  0  0  0  0
  145.0471  134.9390  156.6951 C   0  0  0  0  0  0  0  0  0  0  0  0
  146.8973  136.5287  156.8831 C   0  0  0  0  0  0  0  0  0  0  0  0
  146.0612  137.3816  157.5336 N   0  0  0  0  0  0  0  0  0  0  0  0
  146.5281  138.4758  158.1386 C   0  0  0  0  0  0  0  0  0  0  0  0
  147.7854  138.9067  158.2202 N   0  0  0  0  0  0  0  0  0  0  0  0
  148.6414  138.0622  157.5799 C   0  0  0  0  0  0  0  0  0  0  0  0
  148.2876  136.8663  156.8865 C   0  0  0  0  0  0  0  0  0  0  0  0
  149.4349  136.2969  156.3431 N   0  0  0  0  0  0  0  0  0  0  0  0
  150.4010  137.0958  156.7012 C   0  0  0  0  0  0  0  0  0  0  0  0
  150.0171  138.1742  157.4637 N   0  0  0  0  0  0  0  0  0  0  0  0
  150.8900  139.2110  157.9975 C   0  0  0  0  0  0  0  0  0  0  0  0
  150.6082  140.6363  157.4449 C   0  0  2  0  0  0  0  0  0  0  0  0
  150.4721  140.6570  155.9035 C   0  0  0  0  0  0  0  0  0  0  0  0
  151.6173  140.1087  155.2843 O   0  0  0  0  0  0  0  0  0  0  0  0
  151.6556  141.6720  157.9309 C   0  0  2  0  0  0  0  0  0  0  0  0
  151.8011  141.7649  159.4413 C   0  0  0  0  0  0  0  0  0  0  0  0
  152.5117  143.1019  159.6156 C   0  0  0  0  0  0  0  0  0  0  0  0
  152.0481  143.9224  158.5494 O   0  0  0  0  0  0  0  0  0  0  0  0
  151.3224  143.1338  157.6119 C   0  0  0  0  0  0  0  0  0  0  0  0
  147.7404  134.0362  152.9675 N   0  3  1  0  0  0  0  0  0  0  0  0
  148.9034  133.3038  153.5220 C   0  0  0  0  0  0  0  0  0  0  0  0
  146.9408  133.2281  152.0187 C   0  0  0  0  0  0  0  0  0  0  0  0
  145.4169  134.6566  151.5022 H   0  0  0  0  0  0  0  0  0  0  0  0
  146.7972  135.7373  153.6599 H   0  0  0  0  0  0  0  0  0  0  0  0
  143.8817  131.7170  150.0848 H   0  0  0  0  0  0  0  0  0  0  0  0
  145.5728  132.2024  149.9709 H   0  0  0  0  0  0  0  0  0  0  0  0
  144.2833  133.3983  149.7492 H   0  0  0  0  0  0  0  0  0  0  0  0
  144.6051  134.8110  153.8132 H   0  0  0  0  0  0  0  0  0  0  0  0
  145.2305  133.2006  154.1700 H   0  0  0  0  0  0  0  0  0  0  0  0
  147.1388  133.5230  155.7532 H   0  0  0  0  0  0  0  0  0  0  0  0
  148.2099  134.8716  155.5686 H   0  0  0  0  0  0  0  0  0  0  0  0
  145.0953  134.5048  157.6939 H   0  0  0  0  0  0  0  0  0  0  0  0
  144.6866  134.1680  156.0140 H   0  0  0  0  0  0  0  0  0  0  0  0
  144.3123  135.7448  156.6936 H   0  0  0  0  0  0  0  0  0  0  0  0
  145.7892  139.0935  158.6276 H   0  0  0  0  0  0  0  0  0  0  0  0
  151.4291  136.9139  156.4230 H   0  0  0  0  0  0  0  0  0  0  0  0
  150.7790  139.2111  159.0824 H   0  0  0  0  0  0  0  0  0  0  0  0
  151.9245  138.9208  157.8159 H   0  0  0  0  0  0  0  0  0  0  0  0
  149.6443  140.9461  157.8518 H   0  0  0  0  0  0  0  0  0  0  0  0
  149.6213  140.0583  155.5804 H   0  0  0  0  0  0  0  0  0  0  0  0
  150.3017  141.6674  155.5313 H   0  0  0  0  0  0  0  0  0  0  0  0
  151.9421  139.4038  155.8239 H   0  0  0  0  0  0  0  0  0  0  0  0
  152.6289  141.4456  157.4935 H   0  0  0  0  0  0  0  0  0  0  0  0
  150.8195  141.8015  159.9163 H   0  0  0  0  0  0  0  0  0  0  0  0
  152.3580  140.9408  159.8850 H   0  0  0  0  0  0  0  0  0  0  0  0
  152.3135  143.5561  160.5865 H   0  0  0  0  0  0  0  0  0  0  0  0
  153.5902  142.9750  159.5132 H   0  0  0  0  0  0  0  0  0  0  0  0
  151.5824  143.4102  156.5901 H   0  0  0  0  0  0  0  0  0  0  0  0
  150.2583  143.3277  157.7545 H   0  0  0  0  0  0  0  0  0  0  0  0
  148.5897  132.4718  154.1536 H   0  0  0  0  0  0  0  0  0  0  0  0
  149.5457  133.9657  154.1027 H   0  0  0  0  0  0  0  0  0  0  0  0
  149.5090  132.8976  152.7109 H   0  0  0  0  0  0  0  0  0  0  0  0
  146.9584  132.1814  152.3287 H   0  0  0  0  0  0  0  0  0  0  0  0
  147.3408  133.2818  151.0058 H   0  0  0  0  0  0  0  0  0  0  0  0
  148.1248  134.7981  152.4269 H   0  0  0  0  0  0  0  0  0  0  0  0
  1  2  1  0  0  0  0
  1 32  1  0  0  0  0
  1 33  1  0  0  0  0
  1 34  1  0  0  0  0
  2  3  1  0  0  0  0
  3 30  1  0  0  0  0
  3 29  1  0  0  0  0
  3  4  1  0  0  0  0
  4  5  1  0  0  0  0
  4 35  1  0  0  0  0
  4 36  1  0  0  0  0
  5 31  1  0  0  0  0
  5  6  1  0  0  0  0
  5 27  1  0  0  0  0
  6  7  1  0  0  0  0
  6 37  1  0  0  0  0
  6 38  1  0  0  0  0
  7  8  1  0  0  0  0
  7  9  1  0  0  0  0
  8 39  1  0  0  0  0
  8 40  1  0  0  0  0
  8 41  1  0  0  0  0
  9 14  1  0  0  0  0
  9 10  2  0  0  0  0
 10 11  1  0  0  0  0
 11 12  2  0  0  0  0
 11 42  1  0  0  0  0
 12 13  1  0  0  0  0
 13 17  1  0  0  0  0
 13 14  2  0  0  0  0
 14 15  1  0  0  0  0
 15 16  2  0  0  0  0
 16 17  1  0  0  0  0
 16 43  1  0  0  0  0
 17 18  1  0  0  0  0
 18 19  1  0  0  0  0
 18 44  1  0  0  0  0
 18 45  1  0  0  0  0
 19 20  1  0  0  0  0
 19 22  1  0  0  0  0
 19 46  1  0  0  0  0
 20 21  1  0  0  0  0
 20 47  1  0  0  0  0
 20 48  1  0  0  0  0
 21 49  1  0  0  0  0
 22 26  1  0  0  0  0
 22 23  1  0  0  0  0
 22 50  1  0  0  0  0
 23 24  1  0  0  0  0
 23 51  1  0  0  0  0
 23 52  1  0  0  0  0
 24 25  1  0  0  0  0
 24 53  1  0  0  0  0
 24 54  1  0  0  0  0
 25 26  1  0  0  0  0
 26 55  1  0  0  0  0
 26 56  1  0  0  0  0
 27 28  1  0  0  0  0
 27 29  1  0  0  0  0
 27 62  1  0  0  0  0
 28 57  1  0  0  0  0
 28 58  1  0  0  0  0
 28 59  1  0  0  0  0
 29 60  1  0  0  0  0
 29 61  1  0  0  0  0
M  CHG  1  27   1
M  END
> <s_m_source_file>
AV-unprocessed.smi

> <i_m_source_file_index>
21

> <i_lp_mmshare_version>
43012

> <i_f3d_flags>
0

> <s_epik_input>
W0NIM11PW0NASF0xW0NIMl1bQ0BIXShOKFtDSDNdKVtDSDJdMSlbQ0gyXU4oW0NIM10pYyhuW2NIXW4yKWMoYzIzKW5bY0hdbjNbQ0gyXVtDQEhdKFtDSDJdW09IXSlbQ0BASF00W0NIMl1bQ0gyXU9bQ0gyXTQ=

> <s_epik_cmdline>
J2VwaWtfcHl0aG9uJywgJy1waCcsICc3LjAnLCAnLXRuJywgJzgnLCAnLW1hJywgJzIwMCcsICctbWV0YWxfYmluZGluZycsICctaW1hZScsICc8aW5maWxlLm1hZT4nLCAnLW9tYWUnLCAnPG91dGZpbGUubWFlPic=

> <r_lp_tautomer_probability>
1

> <r_epik_Ionization_Penalty>
0.0157465

> <r_epik_Ionization_Penalty_Charging>
0.015354

> <r_epik_Ionization_Penalty_Neutral>
0.000392529

> <r_epik_State_Penalty>
0.0120612

> <r_epik_Charging_Adjusted_Penalty>
0.0274152

> <i_epik_Tot_Q>
1

> <i_epik_Tot_abs_Q>
1

> <r_epik_Metal_State_Penalty>
0.0121253

> <b_epik_Metal_Only>
0

> <s_lp_Force_Field>
OPLS_2005

> <r_lp_Energy>
60.1072

> <b_lp_Chiralities_Consistent>
1

> <s_lp_Variant>
AV-unprocessed.smi:21-17

> <Gold.Version>
5.8.1

> <Gold.Id.Protein>
6NUR|6NUR_protein|mol2

> <Gold.PLP.Fitness>
43.4248

> <Gold.PLP.PLP>
-35.0844

> <Gold.PLP.part.hbond>
-2.8441

> <Gold.PLP.part.metal>
0.0000

> <Gold.PLP.part.buried>
-7.6452

> <Gold.PLP.part.nonpolar>
-24.8945

> <Gold.PLP.part.repulsive>
0.1898

> <Gold.PLP.ligand.clash>
0.0000

> <Gold.PLP.ligand.torsion>
0.5312

> <Gold.PLP.Chemscore.Hbond>
2.9920

> <Gold.PLP.Chemscore.CHOScore>
0.0000

> <Gold.PLP.Chemscore.Metal>
0.0000

> <Gold.Chemscore.Hbonds>
donor molecule, donor type, donor heavy atom, donor atom, acceptor molecule, acceptor atom, score
      L1  H    27    62       P1  7948  2.00
      P1  H  7989  7998       L1    21  0.96

> <Gold.PLP.Chemscore.Internal.Correction>
0.4268

> <Gold.Rescore>
     Score         DG    S(hbond)    S(metal)    S(lipo)     H(rot)  DE(clash)    DE(int)     intcor
     11.99     -13.97       1.86        0.00      86.72       3.08       0.24       1.74       ----

> <Gold.Chemscore.Fitness>
11.9882

> <Gold.Chemscore.DG>
-13.9662

> <Gold.Chemscore.ZeroCoef>
-5.4800

> <Gold.Chemscore.Hbond>
1.8605

> <Gold.Chemscore.Metal>
0.0000

> <Gold.Chemscore.Lipo>
86.7202

> <Gold.Chemscore.Internal_Hbond>
0.0000

> <Gold.Chemscore.DEClash>
0.2424

> <Gold.Chemscore.DEInternal>
1.7356

> <Gold.Chemscore.Rot>
3.0758

> <Gold.Chemscore.Internal.Correction>
   9.000000E+99

> <Gold.Chemscore.Hbonds>
donor molecule, donor type, donor heavy atom, donor atom, acceptor molecule, acceptor atom, score
      L1  H    27    62       P1  7948  0.55
      P1  H  7989  7998       L1    21  0.46

> <Gold.Chemscore.Hbond.Weighted>
-6.2140

> <Gold.Chemscore.Metal.Weighted>
-0.0000

> <Gold.Chemscore.Lipo.Weighted>
-10.1463

> <Gold.Chemscore.Internal_Hbond.Weighted>
0.0000

> <Gold.Chemscore.DEClash.Weighted>
0.2424

> <Gold.Chemscore.DEInternal.Weighted>
1.7356

> <Gold.Chemscore.Rot.Weighted>
7.8741

> <Gold.Chemscore.Internal.Correction.Weighted>
   9.000000E+99

> <Gold.Protein.RotatedTorsions>
[ 6907 6896 6895 6894 ] final  -93.69 input  -60.11 | X-H torsion
[ 7974 7965 7964 7962 ] final  -95.01 input  175.53 | X-H torsion
[ 8008 7997 7996 7995 ] final  122.70 input   59.86 | X-H torsion
[ 10167 10162 10161 10158 ] final -142.66 input  -65.29 | X-H torsion
[ 10718 10713 10712 10709 ] final  -54.86 input   66.30 | X-H torsion
[ 10763 10752 10751 10750 ] final   54.68 input  -60.55 | X-H torsion
[ 11005 11000 10999 10996 ] final  144.33 input  -57.11 | X-H torsion

> <Gold.Protein.ActiveResidues>
 VAL166  LYS551  ARG553  GLY616  TRP617  ASP618  TYR619  PRO620  LYS621  CYS622 
 ASP623  PHE694  ASN695  SER759  ASP760  ASP761  ALA762  ILE779  LEU786  VAL792 
 PHE793  MET794  SER795  GLU796  ALA797  LYS798  CYS799  TRP800  GLU811  SER814 

> <Gold.Protein.RotatedAtoms>
  150.6927  134.1927  159.4291 H   0  0  0  0  0  0  0  0  0  0  0  0  # atno 6907 bound_to 6896
  151.9897  134.9983  160.0570 H   0  0  0  0  0  0  0  0  0  0  0  0  # atno 6908 bound_to 6896
  152.1678  133.4589  159.4931 H   0  0  0  0  0  0  0  0  0  0  0  0  # atno 6909 bound_to 6896
  145.3656  140.9498  143.2476 H   0  0  0  0  0  0  0  0  0  0  0  0  # atno 7974 bound_to 7965
  156.2738  140.2779  156.1510 H   0  0  0  0  0  0  0  0  0  0  0  0  # atno 8008 bound_to 7997
  155.0853  140.0388  157.2669 H   0  0  0  0  0  0  0  0  0  0  0  0  # atno 8009 bound_to 7997
  154.6932  140.2633  155.6798 H   0  0  0  0  0  0  0  0  0  0  0  0  # atno 8010 bound_to 7997
  139.8067  143.7758  152.2661 H   0  0  0  0  0  0  0  0  0  0  0  0  # atno 10167 bound_to 10162
  156.1416  130.4154  150.0094 H   0  0  0  0  0  0  0  0  0  0  0  0  # atno 10718 bound_to 10713
  152.9807  135.5736  154.4944 H   0  0  0  0  0  0  0  0  0  0  0  0  # atno 10763 bound_to 10752
  154.4473  135.2777  155.1808 H   0  0  0  0  0  0  0  0  0  0  0  0  # atno 10764 bound_to 10752
  154.3450  135.6221  153.5668 H   0  0  0  0  0  0  0  0  0  0  0  0  # atno 10765 bound_to 10752
  140.0624  134.9197  157.1206 H   0  0  0  0  0  0  0  0  0  0  0  0  # atno 11005 bound_to 11000
  144.8614  139.5172  143.6810 LP  0  0  0  0  0  0  0  0  0  0  0  0  # atno 17320 bound_to 7965
  146.2908  139.7133  142.9162 LP  0  0  0  0  0  0  0  0  0  0  0  0  # atno 17321 bound_to 7965
  139.7895  144.7415  150.9975 LP  0  0  0  0  0  0  0  0  0  0  0  0  # atno 17342 bound_to 10162
  140.7819  143.4457  151.0486 LP  0  0  0  0  0  0  0  0  0  0  0  0  # atno 17343 bound_to 10162
  156.7977  130.9279  151.3646 LP  0  0  0  0  0  0  0  0  0  0  0  0  # atno 17370 bound_to 10713
  157.6580  130.8941  149.9770 LP  0  0  0  0  0  0  0  0  0  0  0  0  # atno 17371 bound_to 10713
  140.3750  134.2348  155.7175 LP  0  0  0  0  0  0  0  0  0  0  0  0  # atno 17394 bound_to 11000
  141.1978  133.8049  157.0609 LP  0  0  0  0  0  0  0  0  0  0  0  0  # atno 17395 bound_to 11000

$$$$
