AV-unprocessed.smi:2317|AV-procd|sdf|9271|dock3
  -GOLD-   2272012493D 1   1.00000     0.00000
 Structure written by MMmdl.
 37 38  0  0  0  0  0  0  0  0  1 V2000
  144.5464  136.7711  151.8630 O   0  0  0  0  0  0  0  0  0  0  0  0
  145.7689  136.6247  151.8572 C   0  0  0  0  0  0  0  0  0  0  0  0
  146.6363  137.6143  152.1120 N   0  0  0  0  0  0  0  0  0  0  0  0
  146.2666  138.9931  152.4180 C   0  0  0  0  0  0  0  0  0  0  0  0
  147.0599  139.5774  153.6122 C   0  0  2  0  0  0  0  0  0  0  0  0
  147.1582  141.1189  153.5262 C   0  0  0  0  0  0  0  0  0  0  0  0
  147.9690  141.7134  154.6876 C   0  0  0  0  0  0  0  0  0  0  0  0
  149.3731  141.0987  154.7517 C   0  0  0  0  0  0  0  0  0  0  0  0
  149.2926  139.5706  154.8673 C   0  0  0  0  0  0  0  0  0  0  0  0
  148.4768  138.9594  153.7128 C   0  0  1  0  0  0  0  0  0  0  0  0
  148.3913  137.5659  153.9350 O   0  0  0  0  0  0  0  0  0  0  0  0
  146.4036  135.4653  151.6185 N   0  0  0  0  0  0  0  0  0  0  0  0
  145.8044  134.2067  151.3561 C   0  0  0  0  0  0  0  0  0  0  0  0
  144.5309  134.1871  150.7510 C   0  0  0  0  0  0  0  0  0  0  0  0
  143.9193  132.9421  150.5018 C   0  0  0  0  0  0  0  0  0  0  0  0
  144.4836  131.7599  150.8272 N   0  0  0  0  0  0  0  0  0  0  0  0
  145.6910  131.7828  151.4313 C   0  0  0  0  0  0  0  0  0  0  0  0
  146.3891  132.9711  151.7278 C   0  0  0  0  0  0  0  0  0  0  0  0
  147.5747  132.9100  152.3805 F   0  0  0  0  0  0  0  0  0  0  0  0
  147.6230  137.4017  152.0933 H   0  0  0  0  0  0  0  0  0  0  0  0
  146.4044  139.6031  151.5239 H   0  0  0  0  0  0  0  0  0  0  0  0
  145.1986  139.0137  152.6370 H   0  0  0  0  0  0  0  0  0  0  0  0
  146.5241  139.3315  154.5307 H   0  0  0  0  0  0  0  0  0  0  0  0
  147.6214  141.4040  152.5805 H   0  0  0  0  0  0  0  0  0  0  0  0
  146.1638  141.5658  153.5277 H   0  0  0  0  0  0  0  0  0  0  0  0
  148.0419  142.7953  154.5740 H   0  0  0  0  0  0  0  0  0  0  0  0
  147.4466  141.5354  155.6284 H   0  0  0  0  0  0  0  0  0  0  0  0
  149.9351  141.3716  153.8577 H   0  0  0  0  0  0  0  0  0  0  0  0
  149.9212  141.5081  155.6007 H   0  0  0  0  0  0  0  0  0  0  0  0
  150.2991  139.1503  154.8781 H   0  0  0  0  0  0  0  0  0  0  0  0
  148.8374  139.3072  155.8233 H   0  0  0  0  0  0  0  0  0  0  0  0
  149.0102  139.1187  152.7746 H   0  0  0  0  0  0  0  0  0  0  0  0
  148.4471  137.1246  153.1011 H   0  0  0  0  0  0  0  0  0  0  0  0
  147.4022  135.4582  151.7647 H   0  0  0  0  0  0  0  0  0  0  0  0
  144.0337  135.1045  150.4712 H   0  0  0  0  0  0  0  0  0  0  0  0
  142.9489  132.8960  150.0300 H   0  0  0  0  0  0  0  0  0  0  0  0
  146.1084  130.8237  151.6995 H   0  0  0  0  0  0  0  0  0  0  0  0
  1  2  2  0  0  0  0
  2  3  1  0  0  0  0
  2 12  1  0  0  0  0
  3  4  1  0  0  0  0
  3 20  1  0  0  0  0
  4  5  1  0  0  0  0
  4 21  1  0  0  0  0
  4 22  1  0  0  0  0
  5 10  1  0  0  0  0
  5  6  1  0  0  0  0
  5 23  1  0  0  0  0
  6  7  1  0  0  0  0
  6 24  1  0  0  0  0
  6 25  1  0  0  0  0
  7  8  1  0  0  0  0
  7 26  1  0  0  0  0
  7 27  1  0  0  0  0
  8  9  1  0  0  0  0
  8 28  1  0  0  0  0
  8 29  1  0  0  0  0
  9 10  1  0  0  0  0
  9 30  1  0  0  0  0
  9 31  1  0  0  0  0
 10 11  1  0  0  0  0
 10 32  1  0  0  0  0
 11 33  1  0  0  0  0
 12 13  1  0  0  0  0
 12 34  1  0  0  0  0
 13 18  1  0  0  0  0
 13 14  2  0  0  0  0
 14 15  1  0  0  0  0
 14 35  1  0  0  0  0
 15 16  2  0  0  0  0
 15 36  1  0  0  0  0
 16 17  1  0  0  0  0
 17 18  2  0  0  0  0
 17 37  1  0  0  0  0
 18 19  1  0  0  0  0
M  END
> <s_m_source_file>
AV-unprocessed.smi

> <i_m_source_file_index>
2317

> <i_lp_mmshare_version>
43012

> <i_f3d_flags>
0

> <s_epik_input>
RmMxW2NIXW5bY0hdW2NIXWMxW05IXUMoPU8pW05IXVtDSDJdW0NAQEhdMltDSDJdW0NIMl1bQ0gyXVtDSDJdW0NASF0yW09IXQ==

> <s_epik_cmdline>
J2VwaWtfcHl0aG9uJywgJy1waCcsICc3LjAnLCAnLXRuJywgJzgnLCAnLW1hJywgJzIwMCcsICctbWV0YWxfYmluZGluZycsICctaW1hZScsICc8aW5maWxlLm1hZT4nLCAnLW9tYWUnLCAnPG91dGZpbGUubWFlPic=

> <r_epik_Ionization_Penalty>
0.00317647

> <r_epik_Ionization_Penalty_Charging>
0

> <r_epik_Ionization_Penalty_Neutral>
0.00317647

> <r_epik_State_Penalty>
0.0022093

> <r_epik_Charging_Adjusted_Penalty>
0.0022093

> <i_epik_Tot_Q>
0

> <i_epik_Tot_abs_Q>
0

> <r_epik_Metal_State_Penalty>
-0

> <b_epik_Metal_Only>
0

> <s_lp_Force_Field>
OPLS_2005

> <r_lp_Energy>
18.7745

> <b_lp_Chiralities_Consistent>
1

> <s_lp_Variant>
AV-unprocessed.smi:2317-1

> <Gold.Version>
5.8.1

> <Gold.Id.Protein>
6NUR|6NUR_protein|mol2

> <Gold.PLP.Fitness>
44.4622

> <Gold.PLP.PLP>
-33.5489

> <Gold.PLP.part.hbond>
-2.9309

> <Gold.PLP.part.metal>
0.0000

> <Gold.PLP.part.buried>
-1.9028

> <Gold.PLP.part.nonpolar>
-31.0253

> <Gold.PLP.part.repulsive>
1.8982

> <Gold.PLP.ligand.clash>
0.0000

> <Gold.PLP.ligand.torsion>
0.6089

> <Gold.PLP.Chemscore.Hbond>
3.0000

> <Gold.PLP.Chemscore.CHOScore>
0.9995

> <Gold.PLP.Chemscore.Metal>
0.0000

> <Gold.Chemscore.Hbonds>
donor molecule, donor type, donor heavy atom, donor atom, acceptor molecule, acceptor atom, score
      L1  H     3    20       P1  7948  1.00
      L1  H    11    33       P1  7948  1.00
      L1  H    12    34       P1  7948  1.00
      L1  C    15    36       P1 10186  1.00

> <Gold.PLP.Chemscore.Internal.Correction>
0.1326

> <Gold.Rescore>
     Score         DG    S(hbond)    S(metal)    S(lipo)     H(rot)  DE(clash)    DE(int)     intcor
     15.33     -18.95       2.88        0.00      71.90       1.79       0.03       3.59       ----

> <Gold.Chemscore.Fitness>
15.3316

> <Gold.Chemscore.DG>
-18.9516

> <Gold.Chemscore.ZeroCoef>
-5.4800

> <Gold.Chemscore.Hbond>
2.8831

> <Gold.Chemscore.Metal>
0.0000

> <Gold.Chemscore.Lipo>
71.9018

> <Gold.Chemscore.Internal_Hbond>
0.0000

> <Gold.Chemscore.DEClash>
0.0342

> <Gold.Chemscore.DEInternal>
3.5858

> <Gold.Chemscore.Rot>
1.7853

> <Gold.Chemscore.Internal.Correction>
   9.000000E+99

> <Gold.Chemscore.Hbonds>
donor molecule, donor type, donor heavy atom, donor atom, acceptor molecule, acceptor atom, score
      L1  H     3    20       P1  7948  0.94
      L1  H    11    33       P1  7948  0.98
      L1  H    12    34       P1  7948  0.96

> <Gold.Chemscore.Hbond.Weighted>
-9.6295

> <Gold.Chemscore.Metal.Weighted>
-0.0000

> <Gold.Chemscore.Lipo.Weighted>
-8.4125

> <Gold.Chemscore.Internal_Hbond.Weighted>
0.0000

> <Gold.Chemscore.DEClash.Weighted>
0.0342

> <Gold.Chemscore.DEInternal.Weighted>
3.5858

> <Gold.Chemscore.Rot.Weighted>
4.5704

> <Gold.Chemscore.Internal.Correction.Weighted>
   9.000000E+99

> <Gold.Protein.RotatedTorsions>
[ 6907 6896 6895 6894 ] final  157.39 input  -60.11 | X-H torsion
[ 7974 7965 7964 7962 ] final  -25.49 input  175.53 | X-H torsion
[ 8008 7997 7996 7995 ] final  146.16 input   59.86 | X-H torsion
[ 10167 10162 10161 10158 ] final  -93.95 input  -65.29 | X-H torsion
[ 10718 10713 10712 10709 ] final   19.80 input   66.30 | X-H torsion
[ 10763 10752 10751 10750 ] final  -57.92 input  -60.55 | X-H torsion
[ 11005 11000 10999 10996 ] final  155.72 input  -57.11 | X-H torsion

> <Gold.Protein.ActiveResidues>
 VAL166  LYS551  ARG553  GLY616  TRP617  ASP618  TYR619  PRO620  LYS621  CYS622 
 ASP623  PHE694  ASN695  SER759  ASP760  ASP761  ALA762  ILE779  LEU786  VAL792 
 PHE793  MET794  SER795  GLU796  ALA797  LYS798  CYS799  TRP800  GLU811  SER814 

> <Gold.Protein.RotatedAtoms>
  152.0158  133.3879  159.4237 H   0  0  0  0  0  0  0  0  0  0  0  0  # atno 6907 bound_to 6896
  150.6895  134.3680  159.4989 H   0  0  0  0  0  0  0  0  0  0  0  0  # atno 6908 bound_to 6896
  152.1447  134.9035  160.0602 H   0  0  0  0  0  0  0  0  0  0  0  0  # atno 6909 bound_to 6896
  146.1488  140.4893  142.8620 H   0  0  0  0  0  0  0  0  0  0  0  0  # atno 7974 bound_to 7965
  156.2863  140.2190  156.5332 H   0  0  0  0  0  0  0  0  0  0  0  0  # atno 8008 bound_to 7997
  154.7431  140.0486  157.0851 H   0  0  0  0  0  0  0  0  0  0  0  0  # atno 8009 bound_to 7997
  155.0205  140.3123  155.4798 H   0  0  0  0  0  0  0  0  0  0  0  0  # atno 8010 bound_to 7997
  140.3194  143.3058  152.0063 H   0  0  0  0  0  0  0  0  0  0  0  0  # atno 10167 bound_to 10162
  157.1156  130.6527  149.5909 H   0  0  0  0  0  0  0  0  0  0  0  0  # atno 10718 bound_to 10713
  154.2300  135.6362  153.5172 H   0  0  0  0  0  0  0  0  0  0  0  0  # atno 10763 bound_to 10752
  152.9951  135.5517  154.6023 H   0  0  0  0  0  0  0  0  0  0  0  0  # atno 10764 bound_to 10752
  154.5503  135.2901  155.0988 H   0  0  0  0  0  0  0  0  0  0  0  0  # atno 10765 bound_to 10752
  140.1607  134.8611  157.2571 H   0  0  0  0  0  0  0  0  0  0  0  0  # atno 11005 bound_to 11000
  144.7878  140.5972  143.6562 LP  0  0  0  0  0  0  0  0  0  0  0  0  # atno 17320 bound_to 7965
  145.4874  139.1491  143.3728 LP  0  0  0  0  0  0  0  0  0  0  0  0  # atno 17321 bound_to 7965
  139.4877  144.6323  151.7046 LP  0  0  0  0  0  0  0  0  0  0  0  0  # atno 17342 bound_to 10162
  140.5497  144.0445  150.6122 LP  0  0  0  0  0  0  0  0  0  0  0  0  # atno 17343 bound_to 10162
  155.9840  130.4863  150.6962 LP  0  0  0  0  0  0  0  0  0  0  0  0  # atno 17370 bound_to 10713
  157.4521  131.0874  151.0834 LP  0  0  0  0  0  0  0  0  0  0  0  0  # atno 17371 bound_to 10713
  140.2493  134.3702  155.7449 LP  0  0  0  0  0  0  0  0  0  0  0  0  # atno 17394 bound_to 11000
  141.2209  133.7307  156.8910 LP  0  0  0  0  0  0  0  0  0  0  0  0  # atno 17395 bound_to 11000

$$$$
