AV-unprocessed.smi:104|AV-procd|sdf|1004|dock2
  -GOLD-   2262017593D 1   1.00000     0.00000
 Structure written by MMmdl.
 47 49  0  0  0  0  0  0  0  0  1 V2000
  148.2404  134.2906  158.4885 C   0  0  0  0  0  0  0  0  0  0  0  0
  147.4648  135.5131  158.0158 C   0  0  0  0  0  0  0  0  0  0  0  0
  147.1677  136.4263  158.7864 O   0  0  0  0  0  0  0  0  0  0  0  0
  147.1660  135.4529  156.7109 O   0  0  0  0  0  0  0  0  0  0  0  0
  146.3902  136.4809  156.1184 C   0  0  0  0  0  0  0  0  0  0  0  0
  146.0164  136.0605  154.6940 C   0  0  1  0  0  0  0  0  0  0  0  0
  145.2896  134.8407  154.7160 O   0  0  0  0  0  0  0  0  0  0  0  0
  144.6224  134.6871  153.5054 C   0  0  2  0  0  0  0  0  0  0  0  0
  145.4820  133.9188  152.5354 N   0  0  0  0  0  0  0  0  0  0  0  0
  146.8036  133.5065  152.5950 C   0  0  0  0  0  0  0  0  0  0  0  0
  147.9794  133.8367  154.0599 Br  0  0  0  0  0  0  0  0  0  0  0  0
  147.2575  132.8278  151.5782 N   0  0  0  0  0  0  0  0  0  0  0  0
  146.1463  132.7114  150.7575 C   0  0  0  0  0  0  0  0  0  0  0  0
  145.9060  132.0917  149.5053 C   0  0  0  0  0  0  0  0  0  0  0  0
  146.8554  131.4438  148.8165 N   0  0  0  0  0  0  0  0  0  0  0  0
  144.6593  132.1518  148.9820 N   0  0  0  0  0  0  0  0  0  0  0  0
  143.6930  132.7855  149.6539 C   0  0  0  0  0  0  0  0  0  0  0  0
  143.7683  133.4131  150.8304 N   0  0  0  0  0  0  0  0  0  0  0  0
  145.0290  133.3628  151.3535 C   0  0  0  0  0  0  0  0  0  0  0  0
  144.3636  136.1108  152.9757 C   0  0  1  0  0  0  0  0  0  0  0  0
  142.9645  136.3549  152.9109 O   0  0  0  0  0  0  0  0  0  0  0  0
  142.1803  136.1192  153.9776 C   0  0  0  0  0  0  0  0  0  0  0  0
  140.7102  136.4010  153.6953 C   0  0  0  0  0  0  0  0  0  0  0  0
  142.5536  135.7161  155.0792 O   0  0  0  0  0  0  0  0  0  0  0  0
  145.0313  137.0061  154.0149 C   0  0  2  0  0  0  0  0  0  0  0  0
  145.7316  138.0727  153.3880 O   0  0  0  0  0  0  0  0  0  0  0  0
  146.3231  139.0256  154.1281 C   0  0  0  0  0  0  0  0  0  0  0  0
  147.1694  139.9724  153.2878 C   0  0  0  0  0  0  0  0  0  0  0  0
  146.2257  139.1628  155.3477 O   0  0  0  0  0  0  0  0  0  0  0  0
  147.6071  133.4042  158.4487 H   0  0  0  0  0  0  0  0  0  0  0  0
  148.5818  134.4266  159.5150 H   0  0  0  0  0  0  0  0  0  0  0  0
  149.1107  134.1235  157.8539 H   0  0  0  0  0  0  0  0  0  0  0  0
  145.4927  136.6806  156.7057 H   0  0  0  0  0  0  0  0  0  0  0  0
  146.9806  137.3977  156.0938 H   0  0  0  0  0  0  0  0  0  0  0  0
  146.9092  135.9441  154.0759 H   0  0  0  0  0  0  0  0  0  0  0  0
  143.7289  134.0717  153.6158 H   0  0  0  0  0  0  0  0  0  0  0  0
  147.7924  131.3819  149.1879 H   0  0  0  0  0  0  0  0  0  0  0  0
  146.6330  131.0211  147.9269 H   0  0  0  0  0  0  0  0  0  0  0  0
  142.7220  132.7931  149.1813 H   0  0  0  0  0  0  0  0  0  0  0  0
  144.8560  136.2239  152.0089 H   0  0  0  0  0  0  0  0  0  0  0  0
  140.1521  135.4663  153.6437 H   0  0  0  0  0  0  0  0  0  0  0  0
  140.5884  136.9288  152.7492 H   0  0  0  0  0  0  0  0  0  0  0  0
  140.2851  137.0148  154.4894 H   0  0  0  0  0  0  0  0  0  0  0  0
  144.3027  137.3541  154.7496 H   0  0  0  0  0  0  0  0  0  0  0  0
  148.1296  139.5125  153.0542 H   0  0  0  0  0  0  0  0  0  0  0  0
  147.3528  140.9015  153.8277 H   0  0  0  0  0  0  0  0  0  0  0  0
  146.6618  140.2120  152.3532 H   0  0  0  0  0  0  0  0  0  0  0  0
  1  2  1  0  0  0  0
  1 30  1  0  0  0  0
  1 31  1  0  0  0  0
  1 32  1  0  0  0  0
  2  3  2  0  0  0  0
  2  4  1  0  0  0  0
  4  5  1  0  0  0  0
  5  6  1  0  0  0  0
  5 33  1  0  0  0  0
  5 34  1  0  0  0  0
  6 25  1  0  0  0  0
  6  7  1  0  0  0  0
  6 35  1  0  0  0  0
  7  8  1  0  0  0  0
  8  9  1  0  0  0  0
  8 20  1  0  0  0  0
  8 36  1  0  0  0  0
  9 19  1  0  0  0  0
  9 10  1  0  0  0  0
 10 11  1  0  0  0  0
 10 12  2  0  0  0  0
 12 13  1  0  0  0  0
 13 19  2  0  0  0  0
 13 14  1  0  0  0  0
 14 15  1  0  0  0  0
 14 16  2  0  0  0  0
 15 37  1  0  0  0  0
 15 38  1  0  0  0  0
 16 17  1  0  0  0  0
 17 18  2  0  0  0  0
 17 39  1  0  0  0  0
 18 19  1  0  0  0  0
 20 21  1  0  0  0  0
 20 25  1  0  0  0  0
 20 40  1  0  0  0  0
 21 22  1  0  0  0  0
 22 23  1  0  0  0  0
 22 24  2  0  0  0  0
 23 41  1  0  0  0  0
 23 42  1  0  0  0  0
 23 43  1  0  0  0  0
 25 26  1  0  0  0  0
 25 44  1  0  0  0  0
 26 27  1  0  0  0  0
 27 28  1  0  0  0  0
 27 29  2  0  0  0  0
 28 45  1  0  0  0  0
 28 46  1  0  0  0  0
 28 47  1  0  0  0  0
M  END
> <s_m_source_file>
AV-unprocessed.smi

> <i_m_source_file_index>
104

> <i_lp_mmshare_version>
43012

> <i_f3d_flags>
0

> <s_epik_input>
W0NIM11DKD1PKU9bQ0gyXVtDQEBIXTFPW0NASF0oW0NAQEhdKE9DKD1PKVtDSDNdKVtDQEhdMU9DKD1PKVtDSDNdKW4oYyhCciluMiljKGMyMyluW2NIXW5jM1tOSDJd

> <s_epik_cmdline>
J2VwaWtfcHl0aG9uJywgJy1waCcsICc3LjAnLCAnLXRuJywgJzgnLCAnLW1hJywgJzIwMCcsICctbWV0YWxfYmluZGluZycsICctaW1hZScsICc8aW5maWxlLm1hZT4nLCAnLW9tYWUnLCAnPG91dGZpbGUubWFlPic=

> <r_lp_tautomer_probability>
1

> <r_epik_Ionization_Penalty>
7.36622e-05

> <r_epik_Ionization_Penalty_Charging>
0

> <r_epik_Ionization_Penalty_Neutral>
7.36622e-05

> <r_epik_State_Penalty>
-0

> <r_epik_Charging_Adjusted_Penalty>
0

> <i_epik_Tot_Q>
0

> <i_epik_Tot_abs_Q>
0

> <r_epik_Metal_State_Penalty>
-0

> <b_epik_Metal_Only>
0

> <s_epik_Chemistry_Notes>
This compound has an ester and may undergo hydrolysis at high or low pH. This compound contains an acetal/aminal-like group ( X-CH(R)-Y where X, Y are N, S, or O) that may be acid/base labile, releasing an aldehyde.

> <s_lp_Force_Field>
OPLS_2005

> <r_lp_Energy>
12.8289

> <b_lp_Chiralities_Consistent>
1

> <s_lp_Variant>
AV-unprocessed.smi:104-12

> <Gold.Version>
5.8.1

> <Gold.Id.Protein>
6NUR|6NUR_protein|mol2

> <Gold.PLP.Fitness>
35.4991

> <Gold.PLP.PLP>
-30.4862

> <Gold.PLP.part.hbond>
-2.5445

> <Gold.PLP.part.metal>
0.0000

> <Gold.PLP.part.buried>
-7.7584

> <Gold.PLP.part.nonpolar>
-22.4895

> <Gold.PLP.part.repulsive>
2.7478

> <Gold.PLP.ligand.clash>
0.0000

> <Gold.PLP.ligand.torsion>
0.4493

> <Gold.PLP.Chemscore.Hbond>
1.0000

> <Gold.PLP.Chemscore.CHOScore>
0.9116

> <Gold.PLP.Chemscore.Metal>
0.0000

> <Gold.Chemscore.Hbonds>
donor molecule, donor type, donor heavy atom, donor atom, acceptor molecule, acceptor atom, score
      L1  H    15    37       P1 10747  1.00
      L1  C    17    39       P1 10186  0.93

> <Gold.PLP.Chemscore.Internal.Correction>
0.1768

> <Gold.Rescore>
     Score         DG    S(hbond)    S(metal)    S(lipo)     H(rot)  DE(clash)    DE(int)     intcor
     -2.50      -2.04       1.00        0.00      36.33       4.31       1.33       3.20       ----

> <Gold.Chemscore.Fitness>
-2.5001

> <Gold.Chemscore.DG>
-2.0353

> <Gold.Chemscore.ZeroCoef>
-5.4800

> <Gold.Chemscore.Hbond>
0.9972

> <Gold.Chemscore.Metal>
0.0000

> <Gold.Chemscore.Lipo>
36.3282

> <Gold.Chemscore.Internal_Hbond>
0.0000

> <Gold.Chemscore.DEClash>
1.3322

> <Gold.Chemscore.DEInternal>
3.2032

> <Gold.Chemscore.Rot>
4.3070

> <Gold.Chemscore.Internal.Correction>
   9.000000E+99

> <Gold.Chemscore.Hbonds>
donor molecule, donor type, donor heavy atom, donor atom, acceptor molecule, acceptor atom, score
      L1  H    15    37       P1 10747  0.98

> <Gold.Chemscore.Hbond.Weighted>
-3.3308

> <Gold.Chemscore.Metal.Weighted>
-0.0000

> <Gold.Chemscore.Lipo.Weighted>
-4.2504

> <Gold.Chemscore.Internal_Hbond.Weighted>
0.0000

> <Gold.Chemscore.DEClash.Weighted>
1.3322

> <Gold.Chemscore.DEInternal.Weighted>
3.2032

> <Gold.Chemscore.Rot.Weighted>
11.0259

> <Gold.Chemscore.Internal.Correction.Weighted>
   9.000000E+99

> <Gold.Protein.RotatedTorsions>
[ 6907 6896 6895 6894 ] final   85.87 input  -60.11 | X-H torsion
[ 7974 7965 7964 7962 ] final  172.05 input  175.53 | X-H torsion
[ 8008 7997 7996 7995 ] final  -63.23 input   59.86 | X-H torsion
[ 10167 10162 10161 10158 ] final -151.29 input  -65.29 | X-H torsion
[ 10718 10713 10712 10709 ] final   68.97 input   66.30 | X-H torsion
[ 10763 10752 10751 10750 ] final   47.01 input  -60.55 | X-H torsion
[ 11005 11000 10999 10996 ] final   68.90 input  -57.11 | X-H torsion

> <Gold.Protein.ActiveResidues>
 VAL166  LYS551  ARG553  GLY616  TRP617  ASP618  TYR619  PRO620  LYS621  CYS622 
 ASP623  PHE694  ASN695  SER759  ASP760  ASP761  ALA762  ILE779  LEU786  VAL792 
 PHE793  MET794  SER795  GLU796  ALA797  LYS798  CYS799  TRP800  GLU811  SER814 

> <Gold.Protein.RotatedAtoms>
  152.5383  134.2520  159.8902 H   0  0  0  0  0  0  0  0  0  0  0  0  # atno 6907 bound_to 6896
  151.2483  133.4357  159.2618 H   0  0  0  0  0  0  0  0  0  0  0  0  # atno 6908 bound_to 6896
  151.0563  134.9721  159.8293 H   0  0  0  0  0  0  0  0  0  0  0  0  # atno 6909 bound_to 6896
  144.7278  139.9442  143.6429 H   0  0  0  0  0  0  0  0  0  0  0  0  # atno 7974 bound_to 7965
  154.4543  140.0979  156.6711 H   0  0  0  0  0  0  0  0  0  0  0  0  # atno 8008 bound_to 7997
  155.5187  140.3478  155.4384 H   0  0  0  0  0  0  0  0  0  0  0  0  # atno 8009 bound_to 7997
  156.0745  140.1358  156.9777 H   0  0  0  0  0  0  0  0  0  0  0  0  # atno 8010 bound_to 7997
  139.7280  143.8853  152.2525 H   0  0  0  0  0  0  0  0  0  0  0  0  # atno 10167 bound_to 10162
  157.6319  130.9401  150.0449 H   0  0  0  0  0  0  0  0  0  0  0  0  # atno 10718 bound_to 10713
  152.9804  135.5990  154.3692 H   0  0  0  0  0  0  0  0  0  0  0  0  # atno 10763 bound_to 10752
  154.3367  135.2768  155.2446 H   0  0  0  0  0  0  0  0  0  0  0  0  # atno 10764 bound_to 10752
  154.4545  135.5981  153.6269 H   0  0  0  0  0  0  0  0  0  0  0  0  # atno 10765 bound_to 10752
  139.9684  134.6941  156.0497 H   0  0  0  0  0  0  0  0  0  0  0  0  # atno 11005 bound_to 11000
  146.0761  139.3749  143.0493 LP  0  0  0  0  0  0  0  0  0  0  0  0  # atno 17320 bound_to 7965
  145.7903  140.9817  143.1053 LP  0  0  0  0  0  0  0  0  0  0  0  0  # atno 17321 bound_to 7965
  139.8768  144.7039  150.8924 LP  0  0  0  0  0  0  0  0  0  0  0  0  # atno 17342 bound_to 10162
  140.7766  143.3693  151.1679 LP  0  0  0  0  0  0  0  0  0  0  0  0  # atno 17343 bound_to 10162
  156.1529  130.3642  149.9411 LP  0  0  0  0  0  0  0  0  0  0  0  0  # atno 17370 bound_to 10713
  156.7427  130.9085  151.3633 LP  0  0  0  0  0  0  0  0  0  0  0  0  # atno 17371 bound_to 10713
  141.1364  133.6574  156.3606 LP  0  0  0  0  0  0  0  0  0  0  0  0  # atno 17394 bound_to 11000
  140.5345  134.6180  157.5360 LP  0  0  0  0  0  0  0  0  0  0  0  0  # atno 17395 bound_to 11000

$$$$
