AV-unprocessed.smi:13|AV-procd|sdf|72|dock9
  -GOLD-   2262015193D 1   1.00000     0.00000
 Structure written by MMmdl.
 54 58  0  0  0  0  0  0  0  0  1 V2000
  154.2827  137.4287  162.7083 C   0  0  0  0  0  0  0  0  0  0  0  0
  154.5765  137.8011  161.2554 C   0  0  0  0  0  0  0  0  0  0  0  0
  156.0544  138.2123  161.1954 C   0  0  0  0  0  0  0  0  0  0  0  0
  154.1318  136.7752  160.1989 C   0  0  0  0  0  0  0  0  0  0  0  0
  153.7219  137.9069  159.3861 N   0  0  0  0  0  0  0  0  0  0  0  0
  152.5729  137.6623  158.5862 C   0  0  0  0  0  0  0  0  0  0  0  0
  151.4643  137.0593  159.0949 N   0  0  0  0  0  0  0  0  0  0  0  0
  150.3882  136.8472  158.3321 C   0  0  0  0  0  0  0  0  0  0  0  0
  150.2062  137.1486  157.0458 N   0  0  0  0  0  0  0  0  0  0  0  0
  151.3147  137.7437  156.5212 C   0  0  0  0  0  0  0  0  0  0  0  0
  152.5226  138.0337  157.2158 C   0  0  0  0  0  0  0  0  0  0  0  0
  153.4250  138.6513  156.3601 N   0  0  0  0  0  0  0  0  0  0  0  0
  152.7859  138.7254  155.2246 C   0  0  0  0  0  0  0  0  0  0  0  0
  151.5165  138.1904  155.2262 N   0  0  0  0  0  0  0  0  0  0  0  0
  150.5807  138.1476  154.1117 C   0  0  0  0  0  0  0  0  0  0  0  0
  149.2910  138.9867  154.3054 C   0  0  2  0  0  0  0  0  0  0  0  0
  148.5130  138.8096  153.1354 O   0  0  0  0  0  0  0  0  0  0  0  0
  149.5066  140.4872  154.5081 C   0  0  0  0  0  0  0  0  0  0  0  0
  148.3265  140.8876  155.3825 C   0  0  0  0  0  0  0  0  0  0  0  0
  148.2198  139.7877  156.2687 O   0  0  0  0  0  0  0  0  0  0  0  0
  148.4211  138.5942  155.5200 C   0  0  0  0  0  0  0  0  0  0  0  0
  153.5444  138.7290  160.5782 C   0  0  2  0  0  0  0  0  0  0  0  0
  153.8257  140.2041  160.2908 C   0  0  2  0  0  0  0  0  0  0  0  0
  153.7359  141.1060  161.5242 C   0  0  0  0  0  0  0  0  0  0  0  0
  153.2400  142.4379  160.9776 C   0  0  0  0  0  0  0  0  0  0  0  0
  152.9263  142.1484  159.5090 C   0  0  0  0  0  0  0  0  0  0  0  0
  152.8170  140.7359  159.4459 O   0  0  0  0  0  0  0  0  0  0  0  0
  154.9243  136.6167  163.0515 H   0  0  0  0  0  0  0  0  0  0  0  0
  153.2508  137.0996  162.8351 H   0  0  0  0  0  0  0  0  0  0  0  0
  154.4347  138.2768  163.3764 H   0  0  0  0  0  0  0  0  0  0  0  0
  156.3452  138.5347  160.1952 H   0  0  0  0  0  0  0  0  0  0  0  0
  156.7080  137.3822  161.4646 H   0  0  0  0  0  0  0  0  0  0  0  0
  156.2737  139.0341  161.8770 H   0  0  0  0  0  0  0  0  0  0  0  0
  154.9412  136.1899  159.7617 H   0  0  0  0  0  0  0  0  0  0  0  0
  153.2962  136.1496  160.5201 H   0  0  0  0  0  0  0  0  0  0  0  0
  149.5543  136.3684  158.8235 H   0  0  0  0  0  0  0  0  0  0  0  0
  153.2285  139.1812  154.3511 H   0  0  0  0  0  0  0  0  0  0  0  0
  151.1097  138.4841  153.2188 H   0  0  0  0  0  0  0  0  0  0  0  0
  150.3213  137.1035  153.9314 H   0  0  0  0  0  0  0  0  0  0  0  0
  148.6392  137.9269  152.8226 H   0  0  0  0  0  0  0  0  0  0  0  0
  150.4178  140.6867  155.0688 H   0  0  0  0  0  0  0  0  0  0  0  0
  149.5641  141.0540  153.5778 H   0  0  0  0  0  0  0  0  0  0  0  0
  148.4939  141.8225  155.9177 H   0  0  0  0  0  0  0  0  0  0  0  0
  147.4120  140.9815  154.7945 H   0  0  0  0  0  0  0  0  0  0  0  0
  147.4509  138.1983  155.2150 H   0  0  0  0  0  0  0  0  0  0  0  0
  148.8815  137.8417  156.1570 H   0  0  0  0  0  0  0  0  0  0  0  0
  152.5701  138.5808  161.0474 H   0  0  0  0  0  0  0  0  0  0  0  0
  154.7957  140.3401  159.8082 H   0  0  0  0  0  0  0  0  0  0  0  0
  153.0097  140.7098  162.2355 H   0  0  0  0  0  0  0  0  0  0  0  0
  154.6919  141.1964  162.0399 H   0  0  0  0  0  0  0  0  0  0  0  0
  152.3439  142.7544  161.5127 H   0  0  0  0  0  0  0  0  0  0  0  0
  153.9861  143.2273  161.0742 H   0  0  0  0  0  0  0  0  0  0  0  0
  152.0127  142.6362  159.1681 H   0  0  0  0  0  0  0  0  0  0  0  0
  153.7471  142.4736  158.8678 H   0  0  0  0  0  0  0  0  0  0  0  0
  1  2  1  0  0  0  0
  1 28  1  0  0  0  0
  1 29  1  0  0  0  0
  1 30  1  0  0  0  0
  2 22  1  0  0  0  0
  2  3  1  0  0  0  0
  2  4  1  0  0  0  0
  3 31  1  0  0  0  0
  3 32  1  0  0  0  0
  3 33  1  0  0  0  0
  4  5  1  0  0  0  0
  4 34  1  0  0  0  0
  4 35  1  0  0  0  0
  5  6  1  0  0  0  0
  5 22  1  0  0  0  0
  6 11  1  0  0  0  0
  6  7  2  0  0  0  0
  7  8  1  0  0  0  0
  8  9  2  0  0  0  0
  8 36  1  0  0  0  0
  9 10  1  0  0  0  0
 10 14  1  0  0  0  0
 10 11  2  0  0  0  0
 11 12  1  0  0  0  0
 12 13  2  0  0  0  0
 13 14  1  0  0  0  0
 13 37  1  0  0  0  0
 14 15  1  0  0  0  0
 15 16  1  0  0  0  0
 15 38  1  0  0  0  0
 15 39  1  0  0  0  0
 16 21  1  0  0  0  0
 16 17  1  0  0  0  0
 16 18  1  0  0  0  0
 17 40  1  0  0  0  0
 18 19  1  0  0  0  0
 18 41  1  0  0  0  0
 18 42  1  0  0  0  0
 19 20  1  0  0  0  0
 19 43  1  0  0  0  0
 19 44  1  0  0  0  0
 20 21  1  0  0  0  0
 21 45  1  0  0  0  0
 21 46  1  0  0  0  0
 22 23  1  0  0  0  0
 22 47  1  0  0  0  0
 23 27  1  0  0  0  0
 23 24  1  0  0  0  0
 23 48  1  0  0  0  0
 24 25  1  0  0  0  0
 24 49  1  0  0  0  0
 24 50  1  0  0  0  0
 25 26  1  0  0  0  0
 25 51  1  0  0  0  0
 25 52  1  0  0  0  0
 26 27  1  0  0  0  0
 26 53  1  0  0  0  0
 26 54  1  0  0  0  0
M  END
> <s_m_source_file>
AV-unprocessed.smi

> <i_m_source_file_index>
13

> <i_lp_mmshare_version>
43012

> <i_f3d_flags>
0

> <s_epik_input>
TzFbQ0gyXVtDSDJdW0NIMl1bQ0BIXTFbQ0BASF0yTihbQ0gyXUMyKFtDSDNdKVtDSDNdKWMobltjSF1uMyljKGMzNCluW2NIXW40W0NIMl1bQ0BAXTUoW09IXSlbQ0gyXVtDSDJdT1tDSDJdNQ==

> <s_epik_cmdline>
J2VwaWtfcHl0aG9uJywgJy1waCcsICc3LjAnLCAnLXRuJywgJzgnLCAnLW1hJywgJzIwMCcsICctbWV0YWxfYmluZGluZycsICctaW1hZScsICc8aW5maWxlLm1hZT4nLCAnLW9tYWUnLCAnPG91dGZpbGUubWFlPic=

> <r_lp_tautomer_probability>
1

> <r_epik_Ionization_Penalty>
0.00202764

> <r_epik_Ionization_Penalty_Charging>
0

> <r_epik_Ionization_Penalty_Neutral>
0.00202764

> <r_epik_State_Penalty>
0.00134017

> <r_epik_Charging_Adjusted_Penalty>
0.00134017

> <i_epik_Tot_Q>
0

> <i_epik_Tot_abs_Q>
0

> <r_epik_Metal_State_Penalty>
-0

> <b_epik_Metal_Only>
0

> <s_lp_Force_Field>
OPLS_2005

> <r_lp_Energy>
64.4217

> <b_lp_Chiralities_Consistent>
1

> <s_lp_Variant>
AV-unprocessed.smi:13-4

> <Gold.Version>
5.8.1

> <Gold.Id.Protein>
6NUR|6NUR_protein|mol2

> <Gold.PLP.Fitness>
50.7869

> <Gold.PLP.PLP>
-42.8711

> <Gold.PLP.part.hbond>
-3.8293

> <Gold.PLP.part.metal>
0.0000

> <Gold.PLP.part.buried>
-5.5462

> <Gold.PLP.part.nonpolar>
-34.7319

> <Gold.PLP.part.repulsive>
0.0003

> <Gold.PLP.ligand.clash>
0.0000

> <Gold.PLP.ligand.torsion>
0.3076

> <Gold.PLP.Chemscore.Hbond>
2.6920

> <Gold.PLP.Chemscore.CHOScore>
0.0000

> <Gold.PLP.Chemscore.Metal>
0.0000

> <Gold.Chemscore.Hbonds>
donor molecule, donor type, donor heavy atom, donor atom, acceptor molecule, acceptor atom, score
      L1  H    17    40       P1  7948  1.00
      P1  H  6896  6908       L1     7  0.78
      P1  H  7997  8009       L1    12  0.91

> <Gold.PLP.Chemscore.Internal.Correction>
0.4551

> <Gold.Rescore>
     Score         DG    S(hbond)    S(metal)    S(lipo)     H(rot)  DE(clash)    DE(int)     intcor
     16.05     -17.81       1.86        0.00     102.77       2.30       0.00       1.76       ----

> <Gold.Chemscore.Fitness>
16.0468

> <Gold.Chemscore.DG>
-17.8136

> <Gold.Chemscore.ZeroCoef>
-5.4800

> <Gold.Chemscore.Hbond>
1.8551

> <Gold.Chemscore.Metal>
0.0000

> <Gold.Chemscore.Lipo>
102.7737

> <Gold.Chemscore.Internal_Hbond>
0.0000

> <Gold.Chemscore.DEClash>
0.0019

> <Gold.Chemscore.DEInternal>
1.7649

> <Gold.Chemscore.Rot>
2.2996

> <Gold.Chemscore.Internal.Correction>
   9.000000E+99

> <Gold.Chemscore.Hbonds>
donor molecule, donor type, donor heavy atom, donor atom, acceptor molecule, acceptor atom, score
      L1  H    17    40       P1  7948  0.99
      P1  H  6896  6908       L1     7  0.14
      P1  H  7997  8009       L1    12  0.58

> <Gold.Chemscore.Hbond.Weighted>
-6.1960

> <Gold.Chemscore.Metal.Weighted>
-0.0000

> <Gold.Chemscore.Lipo.Weighted>
-12.0245

> <Gold.Chemscore.Internal_Hbond.Weighted>
0.0000

> <Gold.Chemscore.DEClash.Weighted>
0.0019

> <Gold.Chemscore.DEInternal.Weighted>
1.7649

> <Gold.Chemscore.Rot.Weighted>
5.8869

> <Gold.Chemscore.Internal.Correction.Weighted>
   9.000000E+99

> <Gold.Protein.RotatedTorsions>
[ 6907 6896 6895 6894 ] final -119.76 input  -60.11 | X-H torsion
[ 7974 7965 7964 7962 ] final   19.16 input  175.53 | X-H torsion
[ 8008 7997 7996 7995 ] final -174.99 input   59.86 | X-H torsion
[ 10167 10162 10161 10158 ] final   84.04 input  -65.29 | X-H torsion
[ 10718 10713 10712 10709 ] final   43.69 input   66.30 | X-H torsion
[ 10763 10752 10751 10750 ] final -127.34 input  -60.55 | X-H torsion
[ 11005 11000 10999 10996 ] final   50.48 input  -57.11 | X-H torsion

> <Gold.Protein.ActiveResidues>
 VAL166  LYS551  ARG553  GLY616  TRP617  ASP618  TYR619  PRO620  LYS621  CYS622 
 ASP623  PHE694  ASN695  SER759  ASP760  ASP761  ALA762  ILE779  LEU786  VAL792 
 PHE793  MET794  SER795  GLU796  ALA797  LYS798  CYS799  TRP800  GLU811  SER814 

> <Gold.Protein.RotatedAtoms>
  150.8333  133.8055  159.3089 H   0  0  0  0  0  0  0  0  0  0  0  0  # atno 6907 bound_to 6896
  151.5778  135.1058  160.0020 H   0  0  0  0  0  0  0  0  0  0  0  0  # atno 6908 bound_to 6896
  152.4409  133.7405  159.6694 H   0  0  0  0  0  0  0  0  0  0  0  0  # atno 6909 bound_to 6896
  146.2159  139.8353  142.8652 H   0  0  0  0  0  0  0  0  0  0  0  0  # atno 7974 bound_to 7965
  155.9771  140.1174  157.0760 H   0  0  0  0  0  0  0  0  0  0  0  0  # atno 8008 bound_to 7997
  154.4172  140.1152  156.5452 H   0  0  0  0  0  0  0  0  0  0  0  0  # atno 8009 bound_to 7997
  155.6521  140.3473  155.4754 H   0  0  0  0  0  0  0  0  0  0  0  0  # atno 8010 bound_to 7997
  139.9121  144.6265  150.8526 H   0  0  0  0  0  0  0  0  0  0  0  0  # atno 10167 bound_to 10162
  157.4187  130.7956  149.7495 H   0  0  0  0  0  0  0  0  0  0  0  0  # atno 10718 bound_to 10713
  154.8752  135.3965  154.3578 H   0  0  0  0  0  0  0  0  0  0  0  0  # atno 10763 bound_to 10752
  153.4354  135.7026  153.6208 H   0  0  0  0  0  0  0  0  0  0  0  0  # atno 10764 bound_to 10752
  153.4812  135.3769  155.2412 H   0  0  0  0  0  0  0  0  0  0  0  0  # atno 10765 bound_to 10752
  140.1014  134.5077  155.8759 H   0  0  0  0  0  0  0  0  0  0  0  0  # atno 11005 bound_to 11000
  145.2954  141.0179  143.3639 LP  0  0  0  0  0  0  0  0  0  0  0  0  # atno 17320 bound_to 7965
  144.9045  139.4606  143.6616 LP  0  0  0  0  0  0  0  0  0  0  0  0  # atno 17321 bound_to 7965
  140.7683  143.3358  151.2312 LP  0  0  0  0  0  0  0  0  0  0  0  0  # atno 17342 bound_to 10162
  139.6933  143.9655  152.2870 LP  0  0  0  0  0  0  0  0  0  0  0  0  # atno 17343 bound_to 10162
  155.9873  130.3968  150.3170 LP  0  0  0  0  0  0  0  0  0  0  0  0  # atno 17370 bound_to 10713
  157.1315  131.0273  151.2967 LP  0  0  0  0  0  0  0  0  0  0  0  0  # atno 17371 bound_to 10713
  141.2106  133.6697  156.6524 LP  0  0  0  0  0  0  0  0  0  0  0  0  # atno 17394 bound_to 11000
  140.3215  134.8003  157.4256 LP  0  0  0  0  0  0  0  0  0  0  0  0  # atno 17395 bound_to 11000

$$$$
