AV-unprocessed.smi:618|AV-procd|sdf|3079|dock6
  -GOLD-   22720 0 03D 1   1.00000     0.00000
 Structure written by MMmdl.
 41 43  0  0  0  0  0  0  0  0  2 V2000
  150.1850  135.3126  156.2183 O   0  0  0  0  0  0  0  0  0  0  0  0
  149.8526  135.5697  155.0621 C   0  0  0  0  0  0  0  0  0  0  0  0
  149.2326  134.6923  154.2608 N   0  0  0  0  0  0  0  0  0  0  0  0
  148.8806  133.3221  154.6241 C   0  0  0  0  0  0  0  0  0  0  0  0
  147.7093  132.7544  153.7958 C   0  0  1  0  0  0  0  0  0  0  0  0
  147.9767  132.7279  152.2751 C   0  0  0  0  0  0  0  0  0  0  0  0
  146.8670  132.0899  151.5297 N   0  3  2  0  0  0  0  0  0  0  0  0
  145.6833  132.9331  151.2550 C   0  0  0  0  0  0  0  0  0  0  0  0
  144.4804  131.9783  151.1941 C   0  0  0  0  0  0  0  0  0  0  0  0
  145.0587  130.5746  151.4048 C   0  0  0  0  0  0  0  0  0  0  0  0
  146.3929  130.8179  152.1120 C   0  0  2  0  0  0  0  0  0  0  0  0
  146.2308  130.9239  153.6452 C   0  0  0  0  0  0  0  0  0  0  0  0
  147.4179  131.4332  154.2357 O   0  0  0  0  0  0  0  0  0  0  0  0
  150.0424  136.7440  154.4365 N   0  0  0  0  0  0  0  0  0  0  0  0
  150.6710  137.9240  154.9203 C   0  0  0  0  0  0  0  0  0  0  0  0
  151.6546  137.9520  155.9392 C   0  0  0  0  0  0  0  0  0  0  0  0
  152.2092  139.1907  156.3146 C   0  0  0  0  0  0  0  0  0  0  0  0
  151.7666  140.3541  155.6559 C   0  0  0  0  0  0  0  0  0  0  0  0
  150.8389  140.3416  154.6761 N   0  0  0  0  0  0  0  0  0  0  0  0
  150.3117  139.1505  154.3214 C   0  0  0  0  0  0  0  0  0  0  0  0
  148.9847  134.9937  153.3298 H   0  0  0  0  0  0  0  0  0  0  0  0
  149.7520  132.6699  154.5444 H   0  0  0  0  0  0  0  0  0  0  0  0
  148.6038  133.3278  155.6785 H   0  0  0  0  0  0  0  0  0  0  0  0
  146.8412  133.3833  153.9998 H   0  0  0  0  0  0  0  0  0  0  0  0
  148.1573  133.7322  151.8900 H   0  0  0  0  0  0  0  0  0  0  0  0
  148.8752  132.1464  152.0665 H   0  0  0  0  0  0  0  0  0  0  0  0
  145.5337  133.6701  152.0450 H   0  0  0  0  0  0  0  0  0  0  0  0
  145.8223  133.4745  150.3189 H   0  0  0  0  0  0  0  0  0  0  0  0
  143.7763  132.2193  151.9917 H   0  0  0  0  0  0  0  0  0  0  0  0
  143.9423  132.0539  150.2486 H   0  0  0  0  0  0  0  0  0  0  0  0
  144.3891  129.9186  151.9625 H   0  0  0  0  0  0  0  0  0  0  0  0
  145.2416  130.1097  150.4352 H   0  0  0  0  0  0  0  0  0  0  0  0
  147.1085  130.0271  151.8827 H   0  0  0  0  0  0  0  0  0  0  0  0
  145.3867  131.5605  153.9161 H   0  0  0  0  0  0  0  0  0  0  0  0
  146.0244  129.9396  154.0662 H   0  0  0  0  0  0  0  0  0  0  0  0
  149.6508  136.8178  153.5090 H   0  0  0  0  0  0  0  0  0  0  0  0
  152.0046  137.0581  156.4303 H   0  0  0  0  0  0  0  0  0  0  0  0
  152.9604  139.2473  157.0884 H   0  0  0  0  0  0  0  0  0  0  0  0
  152.1727  141.3195  155.9194 H   0  0  0  0  0  0  0  0  0  0  0  0
  149.5747  139.1791  153.5320 H   0  0  0  0  0  0  0  0  0  0  0  0
  147.2313  131.8529  150.6178 H   0  0  0  0  0  0  0  0  0  0  0  0
  1  2  2  0  0  0  0
  2  3  1  0  0  0  0
  2 14  1  0  0  0  0
  3  4  1  0  0  0  0
  3 21  1  0  0  0  0
  4  5  1  0  0  0  0
  4 22  1  0  0  0  0
  4 23  1  0  0  0  0
  5 13  1  0  0  0  0
  5  6  1  0  0  0  0
  5 24  1  0  0  0  0
  6  7  1  0  0  0  0
  6 25  1  0  0  0  0
  6 26  1  0  0  0  0
  7 11  1  0  0  0  0
  7  8  1  0  0  0  0
  7 41  1  0  0  0  0
  8  9  1  0  0  0  0
  8 27  1  0  0  0  0
  8 28  1  0  0  0  0
  9 10  1  0  0  0  0
  9 29  1  0  0  0  0
  9 30  1  0  0  0  0
 10 11  1  0  0  0  0
 10 31  1  0  0  0  0
 10 32  1  0  0  0  0
 11 12  1  0  0  0  0
 11 33  1  0  0  0  0
 12 13  1  0  0  0  0
 12 34  1  0  0  0  0
 12 35  1  0  0  0  0
 14 15  1  0  0  0  0
 14 36  1  0  0  0  0
 15 20  1  0  0  0  0
 15 16  2  0  0  0  0
 16 17  1  0  0  0  0
 16 37  1  0  0  0  0
 17 18  2  0  0  0  0
 17 38  1  0  0  0  0
 18 19  1  0  0  0  0
 18 39  1  0  0  0  0
 19 20  2  0  0  0  0
 20 40  1  0  0  0  0
M  CHG  1   7   1
M  END
> <s_m_source_file>
AV-unprocessed.smi

> <i_m_source_file_index>
618

> <i_lp_mmshare_version>
43012

> <i_f3d_flags>
0

> <s_epik_input>
W2NIXTFuW2NIXVtjSF1bY0hdYzFbTkhdQyg9TylbTkhdW0NIMl1bQ0BIXShbQ0gyXTIpT1tDSDJdW0NAQEhdKE4yMylbQ0gyXVtDSDJdW0NIMl0z

> <s_epik_cmdline>
J2VwaWtfcHl0aG9uJywgJy1waCcsICc3LjAnLCAnLXRuJywgJzgnLCAnLW1hJywgJzIwMCcsICctbWV0YWxfYmluZGluZycsICctaW1hZScsICc8aW5maWxlLm1hZT4nLCAnLW9tYWUnLCAnPG91dGZpbGUubWFlPic=

> <r_epik_Ionization_Penalty>
0.111044

> <r_epik_Ionization_Penalty_Charging>
0.10673

> <r_epik_Ionization_Penalty_Neutral>
0.00431361

> <r_epik_State_Penalty>
0.0978747

> <r_epik_Charging_Adjusted_Penalty>
0.204605

> <i_epik_Tot_Q>
1

> <i_epik_Tot_abs_Q>
1

> <r_epik_Metal_State_Penalty>
0.0947591

> <b_epik_Metal_Only>
0

> <s_lp_Force_Field>
OPLS_2005

> <r_lp_Energy>
40.8554

> <b_lp_Chiralities_Consistent>
1

> <s_lp_Variant>
AV-unprocessed.smi:618-6

> <Gold.Version>
5.8.1

> <Gold.Id.Protein>
6NUR|6NUR_protein|mol2

> <Gold.PLP.Fitness>
45.1553

> <Gold.PLP.PLP>
-32.1914

> <Gold.PLP.part.hbond>
-4.1577

> <Gold.PLP.part.metal>
0.0000

> <Gold.PLP.part.buried>
-1.4944

> <Gold.PLP.part.nonpolar>
-27.0021

> <Gold.PLP.part.repulsive>
0.2517

> <Gold.PLP.ligand.clash>
0.0000

> <Gold.PLP.ligand.torsion>
0.3012

> <Gold.PLP.Chemscore.Hbond>
3.5234

> <Gold.PLP.Chemscore.CHOScore>
0.9978

> <Gold.PLP.Chemscore.Metal>
0.0000

> <Gold.Chemscore.Hbonds>
donor molecule, donor type, donor heavy atom, donor atom, acceptor molecule, acceptor atom, score
      L1  H     3    21       P1  7948  1.00
      L1  H     7    41       P1 10747  0.51
      L1  H    14    36       P1  7948  1.00
      P1  H  7989  7998       L1    19  0.96
      L1  C    20    40       P1  7957  1.00

> <Gold.PLP.Chemscore.Internal.Correction>
0.0027

> <Gold.Rescore>
     Score         DG    S(hbond)    S(metal)    S(lipo)     H(rot)  DE(clash)    DE(int)     intcor
     18.43     -20.10       2.25        0.00      88.44       1.27       0.60       1.08       ----

> <Gold.Chemscore.Fitness>
18.4253

> <Gold.Chemscore.DG>
-20.0994

> <Gold.Chemscore.ZeroCoef>
-5.4800

> <Gold.Chemscore.Hbond>
2.2490

> <Gold.Chemscore.Metal>
0.0000

> <Gold.Chemscore.Lipo>
88.4422

> <Gold.Chemscore.Internal_Hbond>
0.0000

> <Gold.Chemscore.DEClash>
0.5991

> <Gold.Chemscore.DEInternal>
1.0751

> <Gold.Chemscore.Rot>
1.2656

> <Gold.Chemscore.Internal.Correction>
   9.000000E+99

> <Gold.Chemscore.Hbonds>
donor molecule, donor type, donor heavy atom, donor atom, acceptor molecule, acceptor atom, score
      L1  H     3    21       P1  7948  0.25
      L1  H     7    41       P1 10747  0.48
      L1  H    14    36       P1  7948  0.65
      P1  H  7989  7998       L1    19  0.21

> <Gold.Chemscore.Hbond.Weighted>
-7.5116

> <Gold.Chemscore.Metal.Weighted>
-0.0000

> <Gold.Chemscore.Lipo.Weighted>
-10.3477

> <Gold.Chemscore.Internal_Hbond.Weighted>
0.0000

> <Gold.Chemscore.DEClash.Weighted>
0.5991

> <Gold.Chemscore.DEInternal.Weighted>
1.0751

> <Gold.Chemscore.Rot.Weighted>
3.2399

> <Gold.Chemscore.Internal.Correction.Weighted>
   9.000000E+99

> <Gold.Protein.RotatedTorsions>
[ 6907 6896 6895 6894 ] final -143.58 input  -60.11 | X-H torsion
[ 7974 7965 7964 7962 ] final   -3.53 input  175.53 | X-H torsion
[ 8008 7997 7996 7995 ] final  150.87 input   59.86 | X-H torsion
[ 10167 10162 10161 10158 ] final -133.39 input  -65.29 | X-H torsion
[ 10718 10713 10712 10709 ] final   -1.66 input   66.30 | X-H torsion
[ 10763 10752 10751 10750 ] final   19.93 input  -60.55 | X-H torsion
[ 11005 11000 10999 10996 ] final   46.53 input  -57.11 | X-H torsion

> <Gold.Protein.ActiveResidues>
 VAL166  LYS551  ARG553  GLY616  TRP617  ASP618  TYR619  PRO620  LYS621  CYS622 
 ASP623  PHE694  ASN695  SER759  ASP760  ASP761  ALA762  ILE779  LEU786  VAL792 
 PHE793  MET794  SER795  GLU796  ALA797  LYS798  CYS799  TRP800  GLU811  SER814 

> <Gold.Protein.RotatedAtoms>
  151.1024  133.5233  159.2609 H   0  0  0  0  0  0  0  0  0  0  0  0  # atno 6907 bound_to 6896
  151.2059  135.0461  159.8901 H   0  0  0  0  0  0  0  0  0  0  0  0  # atno 6908 bound_to 6896
  152.5444  134.0846  159.8304 H   0  0  0  0  0  0  0  0  0  0  0  0  # atno 6909 bound_to 6896
  146.2388  140.1735  142.8332 H   0  0  0  0  0  0  0  0  0  0  0  0  # atno 7974 bound_to 7965
  156.2698  140.2063  156.6085 H   0  0  0  0  0  0  0  0  0  0  0  0  # atno 8008 bound_to 7997
  154.6850  140.0536  157.0329 H   0  0  0  0  0  0  0  0  0  0  0  0  # atno 8009 bound_to 7997
  155.0947  140.3200  155.4567 H   0  0  0  0  0  0  0  0  0  0  0  0  # atno 8010 bound_to 7997
  139.8988  143.6633  152.2599 H   0  0  0  0  0  0  0  0  0  0  0  0  # atno 10167 bound_to 10162
  156.8024  130.5397  149.5720 H   0  0  0  0  0  0  0  0  0  0  0  0  # atno 10718 bound_to 10713
  153.1120  135.6699  153.9483 H   0  0  0  0  0  0  0  0  0  0  0  0  # atno 10763 bound_to 10752
  153.9023  135.3034  155.3450 H   0  0  0  0  0  0  0  0  0  0  0  0  # atno 10764 bound_to 10752
  154.7539  135.5021  153.9417 H   0  0  0  0  0  0  0  0  0  0  0  0  # atno 10765 bound_to 10752
  140.1361  134.4643  155.8484 H   0  0  0  0  0  0  0  0  0  0  0  0  # atno 11005 bound_to 11000
  144.9992  140.8617  143.5292 LP  0  0  0  0  0  0  0  0  0  0  0  0  # atno 17320 bound_to 7965
  145.1752  139.2382  143.5321 LP  0  0  0  0  0  0  0  0  0  0  0  0  # atno 17321 bound_to 7965
  139.7044  144.7630  151.1218 LP  0  0  0  0  0  0  0  0  0  0  0  0  # atno 17342 bound_to 10162
  140.7711  143.5414  150.9308 LP  0  0  0  0  0  0  0  0  0  0  0  0  # atno 17343 bound_to 10162
  156.1093  130.6028  151.0022 LP  0  0  0  0  0  0  0  0  0  0  0  0  # atno 17370 bound_to 10713
  157.6547  131.0891  150.7974 LP  0  0  0  0  0  0  0  0  0  0  0  0  # atno 17371 bound_to 10713
  141.2178  133.6814  156.7160 LP  0  0  0  0  0  0  0  0  0  0  0  0  # atno 17394 bound_to 11000
  140.2781  134.8339  157.3908 LP  0  0  0  0  0  0  0  0  0  0  0  0  # atno 17395 bound_to 11000

$$$$
