AV-unprocessed.smi:3111|AV-procd|sdf|11834|dock7
  -GOLD-   2272017213D 1   1.00000     0.00000
 Structure written by MMmdl.
 30 30  0  0  0  0  0  0  0  0  2 V2000
  149.0495  133.0511  153.5063 C   0  0  0  0  0  0  0  0  0  0  0  0
  148.2864  134.2827  153.6380 N   0  0  0  0  0  0  0  0  0  0  0  0
  147.0860  134.3663  154.2280 C   0  0  0  0  0  0  0  0  0  0  0  0
  146.5137  133.3976  154.7299 O   0  0  0  0  0  0  0  0  0  0  0  0
  146.4513  135.7622  154.2727 C   0  0  0  0  0  0  0  0  0  0  0  0
  147.3670  136.8156  153.8406 N   0  0  0  0  0  0  0  0  0  0  0  0
  147.3772  138.0720  154.3141 C   0  0  0  0  0  0  0  0  0  0  0  0
  146.5775  138.4801  155.1570 O   0  0  0  0  0  0  0  0  0  0  0  0
  148.4502  139.0104  153.7409 C   0  0  2  0  0  0  0  0  0  0  0  0
  149.8610  138.6861  154.2682 C   0  0  0  0  0  0  0  0  0  0  0  0
  148.0902  140.4187  153.9755 N   0  0  0  0  0  0  0  0  0  0  0  0
  146.9097  141.0332  153.6405 C   0  0  0  0  0  0  0  0  0  0  0  0
  147.0120  142.3361  154.0552 C   0  0  0  0  0  0  0  0  0  0  0  0
  148.2478  142.4642  154.6295 N   0  3  0  0  0  0  0  0  0  0  0  0
  148.9013  141.2991  154.5821 C   0  0  0  0  0  0  0  0  0  0  0  0
  149.9629  133.2376  152.9410 H   0  0  0  0  0  0  0  0  0  0  0  0
  148.4731  132.2890  152.9799 H   0  0  0  0  0  0  0  0  0  0  0  0
  149.3283  132.6625  154.4867 H   0  0  0  0  0  0  0  0  0  0  0  0
  148.6947  135.1227  153.2539 H   0  0  0  0  0  0  0  0  0  0  0  0
  145.5849  135.7688  153.6113 H   0  0  0  0  0  0  0  0  0  0  0  0
  146.0804  135.9742  155.2772 H   0  0  0  0  0  0  0  0  0  0  0  0
  148.0612  136.5589  153.1538 H   0  0  0  0  0  0  0  0  0  0  0  0
  148.4682  138.8688  152.6587 H   0  0  0  0  0  0  0  0  0  0  0  0
  150.1299  137.6503  154.0576 H   0  0  0  0  0  0  0  0  0  0  0  0
  149.9414  138.8349  155.3457 H   0  0  0  0  0  0  0  0  0  0  0  0
  150.6092  139.3199  153.7913 H   0  0  0  0  0  0  0  0  0  0  0  0
  146.1042  140.5120  153.1436 H   0  0  0  0  0  0  0  0  0  0  0  0
  146.3156  143.1594  153.9875 H   0  0  0  0  0  0  0  0  0  0  0  0
  149.8893  141.1063  154.9619 H   0  0  0  0  0  0  0  0  0  0  0  0
  148.6163  143.3159  155.0343 H   0  0  0  0  0  0  0  0  0  0  0  0
  1  2  1  0  0  0  0
  1 16  1  0  0  0  0
  1 17  1  0  0  0  0
  1 18  1  0  0  0  0
  2  3  1  0  0  0  0
  2 19  1  0  0  0  0
  3  4  2  0  0  0  0
  3  5  1  0  0  0  0
  5  6  1  0  0  0  0
  5 20  1  0  0  0  0
  5 21  1  0  0  0  0
  6  7  1  0  0  0  0
  6 22  1  0  0  0  0
  7  8  2  0  0  0  0
  7  9  1  0  0  0  0
  9 10  1  0  0  0  0
  9 11  1  0  0  0  0
  9 23  1  0  0  0  0
 10 24  1  0  0  0  0
 10 25  1  0  0  0  0
 10 26  1  0  0  0  0
 11 15  1  0  0  0  0
 11 12  1  0  0  0  0
 12 13  2  0  0  0  0
 12 27  1  0  0  0  0
 13 14  1  0  0  0  0
 13 28  1  0  0  0  0
 14 15  2  0  0  0  0
 14 30  1  0  0  0  0
 15 29  1  0  0  0  0
M  CHG  1  14   1
M  END
> <s_m_source_file>
AV-unprocessed.smi

> <i_m_source_file_index>
3111

> <i_lp_mmshare_version>
43012

> <i_f3d_flags>
0

> <s_epik_input>
W0NIM11bTkhdQyg9TylbQ0gyXVtOSF1DKD1PKVtDQEhdKFtDSDNdKW4xW2NIXVtjSF1uW2NIXTE=

> <s_epik_cmdline>
J2VwaWtfcHl0aG9uJywgJy1waCcsICc3LjAnLCAnLXRuJywgJzgnLCAnLW1hJywgJzIwMCcsICctbWV0YWxfYmluZGluZycsICctaW1hZScsICc8aW5maWxlLm1hZT4nLCAnLW9tYWUnLCAnPG91dGZpbGUubWFlPic=

> <r_lp_tautomer_probability>
1

> <r_epik_Ionization_Penalty>
0.581414

> <r_epik_Ionization_Penalty_Charging>
0

> <r_epik_Ionization_Penalty_Neutral>
0.581414

> <r_epik_State_Penalty>
0.594207

> <r_epik_Charging_Adjusted_Penalty>
0.594207

> <i_epik_Tot_Q>
1

> <i_epik_Tot_abs_Q>
1

> <r_epik_Metal_State_Penalty>
0.784638

> <b_epik_Metal_Only>
0

> <s_lp_Force_Field>
OPLS_2005

> <r_lp_Energy>
6.41512

> <b_lp_Chiralities_Consistent>
1

> <s_lp_Variant>
AV-unprocessed.smi:3111-3

> <Gold.Version>
5.8.1

> <Gold.Id.Protein>
6NUR|6NUR_protein|mol2

> <Gold.PLP.Fitness>
37.1568

> <Gold.PLP.PLP>
-23.5319

> <Gold.PLP.part.hbond>
-2.9775

> <Gold.PLP.part.metal>
0.0000

> <Gold.PLP.part.buried>
-2.0716

> <Gold.PLP.part.nonpolar>
-19.5509

> <Gold.PLP.part.repulsive>
0.3076

> <Gold.PLP.ligand.clash>
0.0000

> <Gold.PLP.ligand.torsion>
0.7173

> <Gold.PLP.Chemscore.Hbond>
3.9920

> <Gold.PLP.Chemscore.CHOScore>
1.0000

> <Gold.PLP.Chemscore.Metal>
0.0000

> <Gold.Chemscore.Hbonds>
donor molecule, donor type, donor heavy atom, donor atom, acceptor molecule, acceptor atom, score
      L1  H     2    19       P1  7948  0.99
      L1  H     6    22       P1  7948  1.00
      L1  H    14    30       P1  8028  2.00
      L1  C    12    27       P1 10175  1.00

> <Gold.PLP.Chemscore.Internal.Correction>
0.0835

> <Gold.Rescore>
     Score         DG    S(hbond)    S(metal)    S(lipo)     H(rot)  DE(clash)    DE(int)     intcor
     12.02     -13.52       2.97        0.00      34.93       2.33       0.04       1.45       ----

> <Gold.Chemscore.Fitness>
12.0199

> <Gold.Chemscore.DG>
-13.5151

> <Gold.Chemscore.ZeroCoef>
-5.4800

> <Gold.Chemscore.Hbond>
2.9687

> <Gold.Chemscore.Metal>
0.0000

> <Gold.Chemscore.Lipo>
34.9328

> <Gold.Chemscore.Internal_Hbond>
0.0000

> <Gold.Chemscore.DEClash>
0.0405

> <Gold.Chemscore.DEInternal>
1.4546

> <Gold.Chemscore.Rot>
2.3311

> <Gold.Chemscore.Internal.Correction>
   9.000000E+99

> <Gold.Chemscore.Hbonds>
donor molecule, donor type, donor heavy atom, donor atom, acceptor molecule, acceptor atom, score
      L1  H     2    19       P1  7948  0.65
      L1  H     6    22       P1  7948  0.99
      L1  H    14    30       P1  8028  0.94

> <Gold.Chemscore.Hbond.Weighted>
-9.9155

> <Gold.Chemscore.Metal.Weighted>
-0.0000

> <Gold.Chemscore.Lipo.Weighted>
-4.0871

> <Gold.Chemscore.Internal_Hbond.Weighted>
0.0000

> <Gold.Chemscore.DEClash.Weighted>
0.0405

> <Gold.Chemscore.DEInternal.Weighted>
1.4546

> <Gold.Chemscore.Rot.Weighted>
5.9676

> <Gold.Chemscore.Internal.Correction.Weighted>
   9.000000E+99

> <Gold.Protein.RotatedTorsions>
[ 6907 6896 6895 6894 ] final  -40.13 input  -60.11 | X-H torsion
[ 7974 7965 7964 7962 ] final  100.83 input  175.53 | X-H torsion
[ 8008 7997 7996 7995 ] final  -69.47 input   59.86 | X-H torsion
[ 10167 10162 10161 10158 ] final   34.05 input  -65.29 | X-H torsion
[ 10718 10713 10712 10709 ] final    9.50 input   66.30 | X-H torsion
[ 10763 10752 10751 10750 ] final  128.17 input  -60.55 | X-H torsion
[ 11005 11000 10999 10996 ] final  -50.28 input  -57.11 | X-H torsion

> <Gold.Protein.ActiveResidues>
 VAL166  LYS551  ARG553  GLY616  TRP617  ASP618  TYR619  PRO620  LYS621  CYS622 
 ASP623  PHE694  ASN695  SER759  ASP760  ASP761  ALA762  ILE779  LEU786  VAL792 
 PHE793  MET794  SER795  GLU796  ALA797  LYS798  CYS799  TRP800  GLU811  SER814 

> <Gold.Protein.RotatedAtoms>
  150.9821  134.9174  159.7849 H   0  0  0  0  0  0  0  0  0  0  0  0  # atno 6907 bound_to 6896
  152.5225  134.3396  159.9222 H   0  0  0  0  0  0  0  0  0  0  0  0  # atno 6908 bound_to 6896
  151.3403  133.3924  159.2705 H   0  0  0  0  0  0  0  0  0  0  0  0  # atno 6909 bound_to 6896
  145.3804  139.2381  143.3407 H   0  0  0  0  0  0  0  0  0  0  0  0  # atno 7974 bound_to 7965
  154.4941  140.0853  156.7659 H   0  0  0  0  0  0  0  0  0  0  0  0  # atno 8008 bound_to 7997
  155.4158  140.3443  155.4249 H   0  0  0  0  0  0  0  0  0  0  0  0  # atno 8009 bound_to 7997
  156.1370  140.1518  156.8967 H   0  0  0  0  0  0  0  0  0  0  0  0  # atno 8010 bound_to 7997
  140.4351  144.1269  150.6165 H   0  0  0  0  0  0  0  0  0  0  0  0  # atno 10167 bound_to 10162
  156.9673  130.5955  149.5666 H   0  0  0  0  0  0  0  0  0  0  0  0  # atno 10718 bound_to 10713
  153.7213  135.3253  155.3267 H   0  0  0  0  0  0  0  0  0  0  0  0  # atno 10763 bound_to 10752
  154.8355  135.4500  154.1215 H   0  0  0  0  0  0  0  0  0  0  0  0  # atno 10764 bound_to 10752
  153.2336  135.6963  153.7942 H   0  0  0  0  0  0  0  0  0  0  0  0  # atno 10765 bound_to 10752
  141.0807  133.6654  156.3708 H   0  0  0  0  0  0  0  0  0  0  0  0  # atno 11005 bound_to 11000
  146.2845  140.4470  142.8763 LP  0  0  0  0  0  0  0  0  0  0  0  0  # atno 17320 bound_to 7965
  144.8512  140.7004  143.6167 LP  0  0  0  0  0  0  0  0  0  0  0  0  # atno 17321 bound_to 7965
  140.4383  143.2538  151.9506 LP  0  0  0  0  0  0  0  0  0  0  0  0  # atno 17342 bound_to 10162
  139.4786  144.5679  151.8136 LP  0  0  0  0  0  0  0  0  0  0  0  0  # atno 17343 bound_to 10162
  156.0297  130.5389  150.8502 LP  0  0  0  0  0  0  0  0  0  0  0  0  # atno 17370 bound_to 10713
  157.5617  131.0946  150.9550 LP  0  0  0  0  0  0  0  0  0  0  0  0  # atno 17371 bound_to 10713
  140.5475  134.6060  157.5398 LP  0  0  0  0  0  0  0  0  0  0  0  0  # atno 17394 bound_to 11000
  139.9621  134.7435  156.0216 LP  0  0  0  0  0  0  0  0  0  0  0  0  # atno 17395 bound_to 11000

$$$$
