AV-unprocessed.smi:1692|AV-procd|sdf|6780|dock6
  -GOLD-   22720 7543D 1   1.00000     0.00000
 Structure written by MMmdl.
 46 47  0  0  0  0  0  0  0  0  2 V2000
  151.0998  135.1326  156.8848 C   0  0  0  0  0  0  0  0  0  0  0  0
  150.7423  136.4315  156.1540 C   0  0  2  0  0  0  0  0  0  0  0  0
  149.7905  136.1855  154.9655 C   0  0  0  0  0  0  0  0  0  0  0  0
  149.5218  137.4408  154.2224 N   0  3  1  0  0  0  0  0  0  0  0  0
  148.5466  138.3358  154.9008 C   0  0  0  0  0  0  0  0  0  0  0  0
  148.0095  139.4343  153.9680 C   0  0  0  0  0  0  0  0  0  0  0  0
  146.7552  138.9835  153.2012 C   0  0  0  0  0  0  0  0  0  0  0  0
  146.9068  137.6357  152.6649 N   0  0  0  0  0  0  0  0  0  0  0  0
  145.8976  136.7827  152.4358 C   0  0  0  0  0  0  0  0  0  0  0  0
  144.7168  137.0587  152.6510 O   0  0  0  0  0  0  0  0  0  0  0  0
  146.3484  135.6136  151.9480 N   0  0  0  0  0  0  0  0  0  0  0  0
  145.5951  134.4679  151.5768 C   0  0  0  0  0  0  0  0  0  0  0  0
  146.3613  133.3673  151.1310 C   0  0  0  0  0  0  0  0  0  0  0  0
  145.7093  132.1820  150.7395 C   0  0  0  0  0  0  0  0  0  0  0  0
  144.3057  132.1277  150.8036 C   0  0  0  0  0  0  0  0  0  0  0  0
  143.6182  133.2680  151.2583 C   0  0  0  0  0  0  0  0  0  0  0  0
  144.2411  134.4054  151.6339 N   0  0  0  0  0  0  0  0  0  0  0  0
  150.7988  138.0907  153.8299 C   0  0  0  0  0  0  0  0  0  0  0  0
  151.7416  138.2724  155.0392 C   0  0  2  0  0  0  0  0  0  0  0  0
  153.1092  138.8249  154.6231 C   0  0  0  0  0  0  0  0  0  0  0  0
  151.9477  137.0105  155.6658 O   0  0  0  0  0  0  0  0  0  0  0  0
  150.2087  134.6519  157.2898 H   0  0  0  0  0  0  0  0  0  0  0  0
  151.7781  135.3275  157.7160 H   0  0  0  0  0  0  0  0  0  0  0  0
  151.5885  134.4237  156.2159 H   0  0  0  0  0  0  0  0  0  0  0  0
  150.2802  137.1116  156.8713 H   0  0  0  0  0  0  0  0  0  0  0  0
  150.2464  135.4733  154.2760 H   0  0  0  0  0  0  0  0  0  0  0  0
  148.8570  135.7307  155.2993 H   0  0  0  0  0  0  0  0  0  0  0  0
  147.6968  137.7402  155.2368 H   0  0  0  0  0  0  0  0  0  0  0  0
  148.9820  138.7760  155.7979 H   0  0  0  0  0  0  0  0  0  0  0  0
  147.7725  140.3299  154.5413 H   0  0  0  0  0  0  0  0  0  0  0  0
  148.7859  139.7194  153.2568 H   0  0  0  0  0  0  0  0  0  0  0  0
  145.8907  138.9878  153.8657 H   0  0  0  0  0  0  0  0  0  0  0  0
  146.5289  139.6815  152.3933 H   0  0  0  0  0  0  0  0  0  0  0  0
  147.8467  137.3282  152.4618 H   0  0  0  0  0  0  0  0  0  0  0  0
  147.3472  135.5318  151.8292 H   0  0  0  0  0  0  0  0  0  0  0  0
  147.4391  133.4254  151.0883 H   0  0  0  0  0  0  0  0  0  0  0  0
  146.2773  131.3300  150.3964 H   0  0  0  0  0  0  0  0  0  0  0  0
  143.7702  131.2363  150.5122 H   0  0  0  0  0  0  0  0  0  0  0  0
  142.5403  133.2680  151.3223 H   0  0  0  0  0  0  0  0  0  0  0  0
  151.2832  137.4528  153.0892 H   0  0  0  0  0  0  0  0  0  0  0  0
  150.6206  139.0435  153.3336 H   0  0  0  0  0  0  0  0  0  0  0  0
  151.3041  138.9632  155.7610 H   0  0  0  0  0  0  0  0  0  0  0  0
  153.0094  139.8001  154.1458 H   0  0  0  0  0  0  0  0  0  0  0  0
  153.6084  138.1571  153.9204 H   0  0  0  0  0  0  0  0  0  0  0  0
  153.7611  138.9446  155.4886 H   0  0  0  0  0  0  0  0  0  0  0  0
  149.0668  137.1601  153.3654 H   0  0  0  0  0  0  0  0  0  0  0  0
  1  2  1  0  0  0  0
  1 22  1  0  0  0  0
  1 23  1  0  0  0  0
  1 24  1  0  0  0  0
  2 21  1  0  0  0  0
  2  3  1  0  0  0  0
  2 25  1  0  0  0  0
  3  4  1  0  0  0  0
  3 26  1  0  0  0  0
  3 27  1  0  0  0  0
  4  5  1  0  0  0  0
  4 18  1  0  0  0  0
  4 46  1  0  0  0  0
  5  6  1  0  0  0  0
  5 28  1  0  0  0  0
  5 29  1  0  0  0  0
  6  7  1  0  0  0  0
  6 30  1  0  0  0  0
  6 31  1  0  0  0  0
  7  8  1  0  0  0  0
  7 32  1  0  0  0  0
  7 33  1  0  0  0  0
  8  9  1  0  0  0  0
  8 34  1  0  0  0  0
  9 10  2  0  0  0  0
  9 11  1  0  0  0  0
 11 12  1  0  0  0  0
 11 35  1  0  0  0  0
 12 17  1  0  0  0  0
 12 13  2  0  0  0  0
 13 14  1  0  0  0  0
 13 36  1  0  0  0  0
 14 15  2  0  0  0  0
 14 37  1  0  0  0  0
 15 16  1  0  0  0  0
 15 38  1  0  0  0  0
 16 17  2  0  0  0  0
 16 39  1  0  0  0  0
 18 19  1  0  0  0  0
 18 40  1  0  0  0  0
 18 41  1  0  0  0  0
 19 20  1  0  0  0  0
 19 21  1  0  0  0  0
 19 42  1  0  0  0  0
 20 43  1  0  0  0  0
 20 44  1  0  0  0  0
 20 45  1  0  0  0  0
M  CHG  1   4   1
M  END
> <s_m_source_file>
AV-unprocessed.smi

> <i_m_source_file_index>
1692

> <i_lp_mmshare_version>
43012

> <i_f3d_flags>
0

> <s_epik_input>
W0NIM11bQ0BASF0xW0NIMl1OKFtDSDJdW0NASF0oTzEpW0NIM10pW0NIMl1bQ0gyXVtDSDJdW05IXUMoPU8pW05IXWMyW2NIXVtjSF1bY0hdW2NIXW4y

> <s_epik_cmdline>
J2VwaWtfcHl0aG9uJywgJy1waCcsICc3LjAnLCAnLXRuJywgJzgnLCAnLW1hJywgJzIwMCcsICctbWV0YWxfYmluZGluZycsICctaW1hZScsICc8aW5maWxlLm1hZT4nLCAnLW9tYWUnLCAnPG91dGZpbGUubWFlPic=

> <r_epik_Ionization_Penalty>
0.270538

> <r_epik_Ionization_Penalty_Charging>
0.270496

> <r_epik_Ionization_Penalty_Neutral>
4.22978e-05

> <r_epik_State_Penalty>
0.262618

> <r_epik_Charging_Adjusted_Penalty>
0.533114

> <i_epik_Tot_Q>
1

> <i_epik_Tot_abs_Q>
1

> <r_epik_Metal_State_Penalty>
0.262618

> <b_epik_Metal_Only>
0

> <s_lp_Force_Field>
OPLS_2005

> <r_lp_Energy>
18.3

> <b_lp_Chiralities_Consistent>
1

> <s_lp_Variant>
AV-unprocessed.smi:1692-3

> <Gold.Version>
5.8.1

> <Gold.Id.Protein>
6NUR|6NUR_protein|mol2

> <Gold.PLP.Fitness>
50.4413

> <Gold.PLP.PLP>
-33.3515

> <Gold.PLP.part.hbond>
-4.0000

> <Gold.PLP.part.metal>
0.0000

> <Gold.PLP.part.buried>
-2.9451

> <Gold.PLP.part.nonpolar>
-27.4941

> <Gold.PLP.part.repulsive>
0.5172

> <Gold.PLP.ligand.clash>
0.0000

> <Gold.PLP.ligand.torsion>
0.4861

> <Gold.PLP.Chemscore.Hbond>
5.0000

> <Gold.PLP.Chemscore.CHOScore>
0.9989

> <Gold.PLP.Chemscore.Metal>
0.0000

> <Gold.Chemscore.Hbonds>
donor molecule, donor type, donor heavy atom, donor atom, acceptor molecule, acceptor atom, score
      L1  H     4    46       P1  7948  2.00
      L1  H     8    34       P1  7948  1.00
      L1  H    11    35       P1  7948  1.00
      P1  H 10752 10763       L1    21  0.99
      L1  C    16    39       P1 10186  0.72

> <Gold.PLP.Chemscore.Internal.Correction>
0.0652

> <Gold.Rescore>
     Score         DG    S(hbond)    S(metal)    S(lipo)     H(rot)  DE(clash)    DE(int)     intcor
     21.14     -22.99       3.81        0.00      79.95       1.78       0.01       1.84       ----

> <Gold.Chemscore.Fitness>
21.1427

> <Gold.Chemscore.DG>
-22.9928

> <Gold.Chemscore.ZeroCoef>
-5.4800

> <Gold.Chemscore.Hbond>
3.8082

> <Gold.Chemscore.Metal>
0.0000

> <Gold.Chemscore.Lipo>
79.9477

> <Gold.Chemscore.Internal_Hbond>
0.0000

> <Gold.Chemscore.DEClash>
0.0145

> <Gold.Chemscore.DEInternal>
1.8356

> <Gold.Chemscore.Rot>
1.7814

> <Gold.Chemscore.Internal.Correction>
   9.000000E+99

> <Gold.Chemscore.Hbonds>
donor molecule, donor type, donor heavy atom, donor atom, acceptor molecule, acceptor atom, score
      L1  H     4    46       P1  7948  0.96
      L1  H     8    34       P1  7948  0.97
      L1  H    11    35       P1  7948  0.96
      P1  H 10752 10763       L1    21  0.59

> <Gold.Chemscore.Hbond.Weighted>
-12.7193

> <Gold.Chemscore.Metal.Weighted>
-0.0000

> <Gold.Chemscore.Lipo.Weighted>
-9.3539

> <Gold.Chemscore.Internal_Hbond.Weighted>
0.0000

> <Gold.Chemscore.DEClash.Weighted>
0.0145

> <Gold.Chemscore.DEInternal.Weighted>
1.8356

> <Gold.Chemscore.Rot.Weighted>
4.5603

> <Gold.Chemscore.Internal.Correction.Weighted>
   9.000000E+99

> <Gold.Protein.RotatedTorsions>
[ 6907 6896 6895 6894 ] final   67.73 input  -60.11 | X-H torsion
[ 7974 7965 7964 7962 ] final    6.02 input  175.53 | X-H torsion
[ 8008 7997 7996 7995 ] final  179.27 input   59.86 | X-H torsion
[ 10167 10162 10161 10158 ] final -157.25 input  -65.29 | X-H torsion
[ 10718 10713 10712 10709 ] final  141.70 input   66.30 | X-H torsion
[ 10763 10752 10751 10750 ] final   82.21 input  -60.55 | X-H torsion
[ 11005 11000 10999 10996 ] final  177.10 input  -57.11 | X-H torsion

> <Gold.Protein.ActiveResidues>
 VAL166  LYS551  ARG553  GLY616  TRP617  ASP618  TYR619  PRO620  LYS621  CYS622 
 ASP623  PHE694  ASN695  SER759  ASP760  ASP761  ALA762  ILE779  LEU786  VAL792 
 PHE793  MET794  SER795  GLU796  ALA797  LYS798  CYS799  TRP800  GLU811  SER814 

> <Gold.Protein.RotatedAtoms>
  152.4572  134.5265  159.9797 H   0  0  0  0  0  0  0  0  0  0  0  0  # atno 6907 bound_to 6896
  151.5323  133.3441  159.2928 H   0  0  0  0  0  0  0  0  0  0  0  0  # atno 6908 bound_to 6896
  150.8521  134.7879  159.7079 H   0  0  0  0  0  0  0  0  0  0  0  0  # atno 6909 bound_to 6896
  146.2437  140.0297  142.8391 H   0  0  0  0  0  0  0  0  0  0  0  0  # atno 7974 bound_to 7965
  156.0453  140.1313  157.0111 H   0  0  0  0  0  0  0  0  0  0  0  0  # atno 8008 bound_to 7997
  154.4409  140.1022  156.6367 H   0  0  0  0  0  0  0  0  0  0  0  0  # atno 8009 bound_to 7997
  155.5606  140.3464  155.4492 H   0  0  0  0  0  0  0  0  0  0  0  0  # atno 8010 bound_to 7997
  139.6785  143.9622  152.2324 H   0  0  0  0  0  0  0  0  0  0  0  0  # atno 10167 bound_to 10162
  157.3890  131.1002  151.0665 H   0  0  0  0  0  0  0  0  0  0  0  0  # atno 10718 bound_to 10713
  153.1183  135.4736  154.9153 H   0  0  0  0  0  0  0  0  0  0  0  0  # atno 10763 bound_to 10752
  154.7551  135.3116  154.8488 H   0  0  0  0  0  0  0  0  0  0  0  0  # atno 10764 bound_to 10752
  153.9059  135.6870  153.4807 H   0  0  0  0  0  0  0  0  0  0  0  0  # atno 10765 bound_to 10752
  140.3803  134.6952  157.4447 H   0  0  0  0  0  0  0  0  0  0  0  0  # atno 11005 bound_to 11000
  145.1166  140.9437  143.4625 LP  0  0  0  0  0  0  0  0  0  0  0  0  # atno 17320 bound_to 7965
  145.0522  139.3172  143.5922 LP  0  0  0  0  0  0  0  0  0  0  0  0  # atno 17321 bound_to 7965
  139.9405  144.6684  150.8271 LP  0  0  0  0  0  0  0  0  0  0  0  0  # atno 17342 bound_to 10162
  140.7644  143.3247  151.2542 LP  0  0  0  0  0  0  0  0  0  0  0  0  # atno 17343 bound_to 10162
  157.1706  130.6265  149.5639 LP  0  0  0  0  0  0  0  0  0  0  0  0  # atno 17370 bound_to 10713
  155.9793  130.4786  150.6710 LP  0  0  0  0  0  0  0  0  0  0  0  0  # atno 17371 bound_to 10713
  140.0483  134.6167  155.8893 LP  0  0  0  0  0  0  0  0  0  0  0  0  # atno 17394 bound_to 11000
  141.1925  133.6575  156.5507 LP  0  0  0  0  0  0  0  0  0  0  0  0  # atno 17395 bound_to 11000

$$$$
