AV-unprocessed.smi:539|AV-procd|sdf|2867|dock2
  -GOLD-   2262023363D 1   1.00000     0.00000
 Structure written by MMmdl.
 40 42  0  0  0  0  0  0  0  0  1 V2000
  152.1949  138.2880  159.9019 C   0  0  0  0  0  0  0  0  0  0  0  0
  152.5715  138.7520  158.6180 O   0  0  0  0  0  0  0  0  0  0  0  0
  151.4552  139.1067  157.8180 C   0  0  0  0  0  0  0  0  0  0  0  0
  151.9350  139.7215  156.4957 C   0  0  0  0  0  0  0  0  0  0  0  0
  150.9038  140.5524  155.8775 N   0  0  0  0  0  0  0  0  0  0  0  0
  150.6009  141.8516  156.1416 C   0  0  0  0  0  0  0  0  0  0  0  0
  151.2643  142.5743  157.1306 N   0  0  0  0  0  0  0  0  0  0  0  0
  151.7505  142.0382  158.3942 C   0  0  0  0  0  0  0  0  0  0  0  0
  152.1370  143.2223  159.2899 C   0  0  0  0  0  0  0  0  0  0  0  0
  152.0369  144.4416  158.3794 C   0  0  0  0  0  0  0  0  0  0  0  0
  151.9870  143.8283  156.9863 C   0  0  0  0  0  0  0  0  0  0  0  0
  149.6629  142.3796  155.3515 N   0  0  0  0  0  0  0  0  0  0  0  0
  149.3150  141.3185  154.5295 C   0  0  0  0  0  0  0  0  0  0  0  0
  150.0517  140.2162  154.8227 C   0  0  0  0  0  0  0  0  0  0  0  0
  149.9171  138.9589  154.0728 C   0  0  0  0  0  0  0  0  0  0  0  0
  150.5804  137.9514  154.3068 O   0  0  0  0  0  0  0  0  0  0  0  0
  148.9880  139.0237  153.0883 N   0  0  0  0  0  0  0  0  0  0  0  0
  148.2118  140.0965  152.7460 C   0  0  0  0  0  0  0  0  0  0  0  0
  147.4105  140.0040  151.8162 O   0  0  0  0  0  0  0  0  0  0  0  0
  148.3670  141.2516  153.4686 N   0  0  0  0  0  0  0  0  0  0  0  0
  147.5650  142.4325  153.1433 C   0  0  0  0  0  0  0  0  0  0  0  0
  148.8569  138.1853  152.5416 H   0  0  0  0  0  0  0  0  0  0  0  0
  153.0862  138.0282  160.4727 H   0  0  0  0  0  0  0  0  0  0  0  0
  151.5682  137.3980  159.8317 H   0  0  0  0  0  0  0  0  0  0  0  0
  151.6526  139.0560  160.4551 H   0  0  0  0  0  0  0  0  0  0  0  0
  150.8448  138.2255  157.6163 H   0  0  0  0  0  0  0  0  0  0  0  0
  150.8273  139.8222  158.3515 H   0  0  0  0  0  0  0  0  0  0  0  0
  152.8356  140.3106  156.6554 H   0  0  0  0  0  0  0  0  0  0  0  0
  152.2349  138.9322  155.8126 H   0  0  0  0  0  0  0  0  0  0  0  0
  150.9810  141.4254  158.8643 H   0  0  0  0  0  0  0  0  0  0  0  0
  152.6133  141.3985  158.2045 H   0  0  0  0  0  0  0  0  0  0  0  0
  151.4668  143.3175  160.1450 H   0  0  0  0  0  0  0  0  0  0  0  0
  153.1504  143.0948  159.6716 H   0  0  0  0  0  0  0  0  0  0  0  0
  151.1093  144.9796  158.5798 H   0  0  0  0  0  0  0  0  0  0  0  0
  152.8670  145.1373  158.5041 H   0  0  0  0  0  0  0  0  0  0  0  0
  152.9958  143.6032  156.6369 H   0  0  0  0  0  0  0  0  0  0  0  0
  151.5427  144.5032  156.2577 H   0  0  0  0  0  0  0  0  0  0  0  0
  146.5018  142.1876  153.1284 H   0  0  0  0  0  0  0  0  0  0  0  0
  147.8396  142.8174  152.1603 H   0  0  0  0  0  0  0  0  0  0  0  0
  147.6982  143.2405  153.8623 H   0  0  0  0  0  0  0  0  0  0  0  0
  1  2  1  0  0  0  0
  1 23  1  0  0  0  0
  1 24  1  0  0  0  0
  1 25  1  0  0  0  0
  2  3  1  0  0  0  0
  3  4  1  0  0  0  0
  3 26  1  0  0  0  0
  3 27  1  0  0  0  0
  4  5  1  0  0  0  0
  4 28  1  0  0  0  0
  4 29  1  0  0  0  0
  5 14  1  0  0  0  0
  5  6  1  0  0  0  0
  6  7  1  0  0  0  0
  6 12  2  0  0  0  0
  7 11  1  0  0  0  0
  7  8  1  0  0  0  0
  8  9  1  0  0  0  0
  8 30  1  0  0  0  0
  8 31  1  0  0  0  0
  9 10  1  0  0  0  0
  9 32  1  0  0  0  0
  9 33  1  0  0  0  0
 10 11  1  0  0  0  0
 10 34  1  0  0  0  0
 10 35  1  0  0  0  0
 11 36  1  0  0  0  0
 11 37  1  0  0  0  0
 12 13  1  0  0  0  0
 13 20  1  0  0  0  0
 13 14  2  0  0  0  0
 14 15  1  0  0  0  0
 15 16  2  0  0  0  0
 15 17  1  0  0  0  0
 17 22  1  0  0  0  0
 17 18  1  0  0  0  0
 18 19  2  0  0  0  0
 18 20  1  0  0  0  0
 20 21  1  0  0  0  0
 21 38  1  0  0  0  0
 21 39  1  0  0  0  0
 21 40  1  0  0  0  0
M  END
> <s_m_source_file>
AV-unprocessed.smi

> <i_m_source_file_index>
539

> <i_lp_mmshare_version>
43012

> <i_f3d_flags>
0

> <s_epik_input>
W0NIM11uMWMoPU8pW25IXWMoPU8pYyhjMTIpbihbQ0gyXVtDSDJdT1tDSDNdKWMobjIpTjNbQ0gyXVtDSDJdW0NIMl1bQ0gyXTM=

> <s_epik_cmdline>
J2VwaWtfcHl0aG9uJywgJy1waCcsICc3LjAnLCAnLXRuJywgJzgnLCAnLW1hJywgJzIwMCcsICctbWV0YWxfYmluZGluZycsICctaW1hZScsICc8aW5maWxlLm1hZT4nLCAnLW9tYWUnLCAnPG91dGZpbGUubWFlPic=

> <r_lp_tautomer_probability>
1

> <r_epik_Ionization_Penalty>
0.000190904

> <r_epik_Ionization_Penalty_Charging>
2.17435e-05

> <r_epik_Ionization_Penalty_Neutral>
0.00016916

> <r_epik_State_Penalty>
-0

> <r_epik_Charging_Adjusted_Penalty>
2.17435e-05

> <i_epik_Tot_Q>
0

> <i_epik_Tot_abs_Q>
0

> <r_epik_Metal_State_Penalty>
0.0206064

> <b_epik_Metal_Only>
0

> <s_lp_Force_Field>
OPLS_2005

> <r_lp_Energy>
47.9611

> <b_lp_Chiralities_Consistent>
1

> <s_lp_Variant>
AV-unprocessed.smi:539-1

> <Gold.Version>
5.8.1

> <Gold.Id.Protein>
6NUR|6NUR_protein|mol2

> <Gold.PLP.Fitness>
44.0014

> <Gold.PLP.PLP>
-39.9058

> <Gold.PLP.part.hbond>
-3.0000

> <Gold.PLP.part.metal>
0.0000

> <Gold.PLP.part.buried>
-2.1945

> <Gold.PLP.part.nonpolar>
-38.8921

> <Gold.PLP.part.repulsive>
4.4026

> <Gold.PLP.ligand.clash>
0.0000

> <Gold.PLP.ligand.torsion>
1.1594

> <Gold.PLP.Chemscore.Hbond>
2.0000

> <Gold.PLP.Chemscore.CHOScore>
0.0000

> <Gold.PLP.Chemscore.Metal>
0.0000

> <Gold.Chemscore.Hbonds>
donor molecule, donor type, donor heavy atom, donor atom, acceptor molecule, acceptor atom, score
      L1  H    17    22       P1  7948  0.99

> <Gold.PLP.Chemscore.Internal.Correction>
0.4144

> <Gold.Rescore>
     Score         DG    S(hbond)    S(metal)    S(lipo)     H(rot)  DE(clash)    DE(int)     intcor
     12.73     -16.47       1.84        0.00      74.66       1.52       2.31       1.43       ----

> <Gold.Chemscore.Fitness>
12.7296

> <Gold.Chemscore.DG>
-16.4676

> <Gold.Chemscore.ZeroCoef>
-5.4800

> <Gold.Chemscore.Hbond>
1.8363

> <Gold.Chemscore.Metal>
0.0000

> <Gold.Chemscore.Lipo>
74.6575

> <Gold.Chemscore.Internal_Hbond>
0.0000

> <Gold.Chemscore.DEClash>
2.3063

> <Gold.Chemscore.DEInternal>
1.4316

> <Gold.Chemscore.Rot>
1.5159

> <Gold.Chemscore.Internal.Correction>
   9.000000E+99

> <Gold.Chemscore.Hbonds>
donor molecule, donor type, donor heavy atom, donor atom, acceptor molecule, acceptor atom, score
      L1  H    17    22       P1  7948  0.92

> <Gold.Chemscore.Hbond.Weighted>
-6.1333

> <Gold.Chemscore.Metal.Weighted>
-0.0000

> <Gold.Chemscore.Lipo.Weighted>
-8.7349

> <Gold.Chemscore.Internal_Hbond.Weighted>
0.0000

> <Gold.Chemscore.DEClash.Weighted>
2.3063

> <Gold.Chemscore.DEInternal.Weighted>
1.4316

> <Gold.Chemscore.Rot.Weighted>
3.8806

> <Gold.Chemscore.Internal.Correction.Weighted>
   9.000000E+99

> <Gold.Protein.RotatedTorsions>
[ 6907 6896 6895 6894 ] final  -28.09 input  -60.11 | X-H torsion
[ 7974 7965 7964 7962 ] final   40.46 input  175.53 | X-H torsion
[ 8008 7997 7996 7995 ] final   36.83 input   59.86 | X-H torsion
[ 10167 10162 10161 10158 ] final -103.86 input  -65.29 | X-H torsion
[ 10718 10713 10712 10709 ] final   48.20 input   66.30 | X-H torsion
[ 10763 10752 10751 10750 ] final  176.38 input  -60.55 | X-H torsion
[ 11005 11000 10999 10996 ] final  179.93 input  -57.11 | X-H torsion

> <Gold.Protein.ActiveResidues>
 VAL166  LYS551  ARG553  GLY616  TRP617  ASP618  TYR619  PRO620  LYS621  CYS622 
 ASP623  PHE694  ASN695  SER759  ASP760  ASP761  ALA762  ILE779  LEU786  VAL792 
 PHE793  MET794  SER795  GLU796  ALA797  LYS798  CYS799  TRP800  GLU811  SER814 

> <Gold.Protein.RotatedAtoms>
  151.1378  135.0164  159.8611 H   0  0  0  0  0  0  0  0  0  0  0  0  # atno 6907 bound_to 6896
  152.5452  134.1535  159.8538 H   0  0  0  0  0  0  0  0  0  0  0  0  # atno 6908 bound_to 6896
  151.1607  133.4801  159.2627 H   0  0  0  0  0  0  0  0  0  0  0  0  # atno 6909 bound_to 6896
  146.0903  139.5530  142.9480 H   0  0  0  0  0  0  0  0  0  0  0  0  # atno 7974 bound_to 7965
  155.1939  140.3310  155.4354 H   0  0  0  0  0  0  0  0  0  0  0  0  # atno 8008 bound_to 7997
  156.2432  140.1905  156.6980 H   0  0  0  0  0  0  0  0  0  0  0  0  # atno 8009 bound_to 7997
  154.6187  140.0598  156.9573 H   0  0  0  0  0  0  0  0  0  0  0  0  # atno 8010 bound_to 7997
  140.2154  143.3715  152.1015 H   0  0  0  0  0  0  0  0  0  0  0  0  # atno 10167 bound_to 10162
  157.4662  130.8227  149.7939 H   0  0  0  0  0  0  0  0  0  0  0  0  # atno 10718 bound_to 10713
  154.4803  135.2774  155.1575 H   0  0  0  0  0  0  0  0  0  0  0  0  # atno 10763 bound_to 10752
  154.3288  135.6194  153.5545 H   0  0  0  0  0  0  0  0  0  0  0  0  # atno 10764 bound_to 10752
  152.9874  135.5760  154.5202 H   0  0  0  0  0  0  0  0  0  0  0  0  # atno 10765 bound_to 10752
  140.4116  134.6687  157.4617 H   0  0  0  0  0  0  0  0  0  0  0  0  # atno 11005 bound_to 11000
  145.6052  141.0349  143.1996 LP  0  0  0  0  0  0  0  0  0  0  0  0  # atno 17320 bound_to 7965
  144.7355  139.7598  143.7331 LP  0  0  0  0  0  0  0  0  0  0  0  0  # atno 17321 bound_to 7965
  139.5164  144.6977  151.5584 LP  0  0  0  0  0  0  0  0  0  0  0  0  # atno 17342 bound_to 10162
  140.6293  143.9107  150.6592 LP  0  0  0  0  0  0  0  0  0  0  0  0  # atno 17343 bound_to 10162
  156.0052  130.3859  150.2459 LP  0  0  0  0  0  0  0  0  0  0  0  0  # atno 17370 bound_to 10713
  157.0639  131.0098  151.3213 LP  0  0  0  0  0  0  0  0  0  0  0  0  # atno 17371 bound_to 10713
  140.0263  134.6472  155.9168 LP  0  0  0  0  0  0  0  0  0  0  0  0  # atno 17394 bound_to 11000
  141.1819  133.6548  156.5055 LP  0  0  0  0  0  0  0  0  0  0  0  0  # atno 17395 bound_to 11000

$$$$
