AV-unprocessed.smi:2472|AV-procd|sdf|9742|dock4
  -GOLD-   2272013383D 1   1.00000     0.00000
 Structure written by MMmdl.
 48 50  0  0  0  0  0  0  0  0  2 V2000
  145.3931  135.6877  151.0148 C   0  0  0  0  0  0  0  0  0  0  0  0
  145.2492  134.1759  151.0103 C   0  0  0  0  0  0  0  0  0  0  0  0
  144.1427  133.5836  150.3631 C   0  0  0  0  0  0  0  0  0  0  0  0
  144.0017  132.2412  150.3529 N   0  3  0  0  0  0  0  0  0  0  0  0
  144.8818  131.4101  150.9487 C   0  0  0  0  0  0  0  0  0  0  0  0
  146.0076  131.9376  151.6116 C   0  0  0  0  0  0  0  0  0  0  0  0
  146.2102  133.3408  151.6358 C   0  0  0  0  0  0  0  0  0  0  0  0
  147.3138  133.9433  152.3018 N   0  0  0  0  0  0  0  0  0  0  0  0
  147.9897  133.4773  153.3653 C   0  0  0  0  0  0  0  0  0  0  0  0
  147.7405  132.4261  153.9551 O   0  0  0  0  0  0  0  0  0  0  0  0
  149.0096  134.2921  153.6893 N   0  0  0  0  0  0  0  0  0  0  0  0
  150.0038  134.1132  154.7643 C   0  0  0  0  0  0  0  0  0  0  0  0
  151.0713  135.2449  154.8002 C   0  0  0  0  0  0  0  0  0  0  0  0
  152.0249  135.1672  155.5759 O   0  0  0  0  0  0  0  0  0  0  0  0
  150.9061  136.2973  153.9820 N   0  0  0  0  0  0  0  0  0  0  0  0
  151.8127  137.4301  153.8805 C   0  0  0  0  0  0  0  0  0  0  0  0
  151.9418  138.2218  155.1647 C   0  0  0  0  0  0  0  0  0  0  0  0
  151.3431  139.6040  155.2794 C   0  0  0  0  0  0  0  0  0  0  0  0
  152.8430  139.4315  155.2466 C   0  0  0  0  0  0  0  0  0  0  0  0
  149.2540  134.0978  156.1183 C   0  0  0  0  0  0  0  0  0  0  0  0
  149.9795  133.0846  157.0011 C   0  0  0  0  0  0  0  0  0  0  0  0
  150.4007  131.9898  156.0303 C   0  0  0  0  0  0  0  0  0  0  0  0
  150.6620  132.6988  154.6951 C   0  0  0  0  0  0  0  0  0  0  0  0
  144.5893  136.1637  150.4524 H   0  0  0  0  0  0  0  0  0  0  0  0
  146.3401  135.9824  150.5617 H   0  0  0  0  0  0  0  0  0  0  0  0
  145.3630  136.0699  152.0355 H   0  0  0  0  0  0  0  0  0  0  0  0
  143.3673  134.1395  149.8561 H   0  0  0  0  0  0  0  0  0  0  0  0
  144.6581  130.3554  150.8834 H   0  0  0  0  0  0  0  0  0  0  0  0
  146.6903  131.2588  152.1001 H   0  0  0  0  0  0  0  0  0  0  0  0
  147.6923  134.7682  151.8596 H   0  0  0  0  0  0  0  0  0  0  0  0
  149.1240  135.1258  153.1318 H   0  0  0  0  0  0  0  0  0  0  0  0
  150.0996  136.3020  153.3755 H   0  0  0  0  0  0  0  0  0  0  0  0
  152.7969  137.0757  153.5704 H   0  0  0  0  0  0  0  0  0  0  0  0
  151.4580  138.1052  153.0998 H   0  0  0  0  0  0  0  0  0  0  0  0
  151.8764  137.6098  156.0628 H   0  0  0  0  0  0  0  0  0  0  0  0
  150.8674  140.0268  154.3966 H   0  0  0  0  0  0  0  0  0  0  0  0
  150.8896  139.8779  156.2298 H   0  0  0  0  0  0  0  0  0  0  0  0
  153.3890  139.5881  156.1748 H   0  0  0  0  0  0  0  0  0  0  0  0
  153.3637  139.7393  154.3420 H   0  0  0  0  0  0  0  0  0  0  0  0
  149.1984  135.0779  156.5955 H   0  0  0  0  0  0  0  0  0  0  0  0
  148.2247  133.7626  155.9797 H   0  0  0  0  0  0  0  0  0  0  0  0
  150.8615  133.5441  157.4488 H   0  0  0  0  0  0  0  0  0  0  0  0
  149.3537  132.7082  157.8107 H   0  0  0  0  0  0  0  0  0  0  0  0
  151.2690  131.4329  156.3836 H   0  0  0  0  0  0  0  0  0  0  0  0
  149.5819  131.2791  155.9098 H   0  0  0  0  0  0  0  0  0  0  0  0
  150.2633  132.0861  153.8859 H   0  0  0  0  0  0  0  0  0  0  0  0
  151.7361  132.7584  154.5137 H   0  0  0  0  0  0  0  0  0  0  0  0
  143.1928  131.8380  149.8791 H   0  0  0  0  0  0  0  0  0  0  0  0
  1  2  1  0  0  0  0
  1 24  1  0  0  0  0
  1 25  1  0  0  0  0
  1 26  1  0  0  0  0
  2  7  1  0  0  0  0
  2  3  2  0  0  0  0
  3  4  1  0  0  0  0
  3 27  1  0  0  0  0
  4  5  2  0  0  0  0
  4 48  1  0  0  0  0
  5  6  1  0  0  0  0
  5 28  1  0  0  0  0
  6  7  2  0  0  0  0
  6 29  1  0  0  0  0
  7  8  1  0  0  0  0
  8  9  1  0  0  0  0
  8 30  1  0  0  0  0
  9 10  2  0  0  0  0
  9 11  1  0  0  0  0
 11 12  1  0  0  0  0
 11 31  1  0  0  0  0
 12 23  1  0  0  0  0
 12 13  1  0  0  0  0
 12 20  1  0  0  0  0
 13 14  2  0  0  0  0
 13 15  1  0  0  0  0
 15 16  1  0  0  0  0
 15 32  1  0  0  0  0
 16 17  1  0  0  0  0
 16 33  1  0  0  0  0
 16 34  1  0  0  0  0
 17 19  1  0  0  0  0
 17 18  1  0  0  0  0
 17 35  1  0  0  0  0
 18 19  1  0  0  0  0
 18 36  1  0  0  0  0
 18 37  1  0  0  0  0
 19 38  1  0  0  0  0
 19 39  1  0  0  0  0
 20 21  1  0  0  0  0
 20 40  1  0  0  0  0
 20 41  1  0  0  0  0
 21 22  1  0  0  0  0
 21 42  1  0  0  0  0
 21 43  1  0  0  0  0
 22 23  1  0  0  0  0
 22 44  1  0  0  0  0
 22 45  1  0  0  0  0
 23 46  1  0  0  0  0
 23 47  1  0  0  0  0
M  CHG  1   4   1
M  END
> <s_m_source_file>
AV-unprocessed.smi

> <i_m_source_file_index>
2472

> <i_lp_mmshare_version>
43012

> <i_f3d_flags>
0

> <s_epik_input>
W0NIM11jMVtjSF1uW2NIXVtjSF1jMVtOSF1DKD1PKVtOSF1DMihbQ0gyXVtDSDJdW0NIMl1bQ0gyXTIpQyg9TylbTkhdW0NIMl1bQ0hdM1tDSDJdW0NIMl0z

> <s_epik_cmdline>
J2VwaWtfcHl0aG9uJywgJy1waCcsICc3LjAnLCAnLXRuJywgJzgnLCAnLW1hJywgJzIwMCcsICctbWV0YWxfYmluZGluZycsICctaW1hZScsICc8aW5maWxlLm1hZT4nLCAnLW9tYWUnLCAnPG91dGZpbGUubWFlPic=

> <r_epik_Ionization_Penalty>
0.772167

> <r_epik_Ionization_Penalty_Charging>
0.772149

> <r_epik_Ionization_Penalty_Neutral>
1.87678e-05

> <r_epik_State_Penalty>
0.800952

> <r_epik_Charging_Adjusted_Penalty>
1.5731

> <i_epik_Tot_Q>
1

> <i_epik_Tot_abs_Q>
1

> <r_epik_Metal_State_Penalty>
0.9454

> <b_epik_Metal_Only>
0

> <s_lp_Force_Field>
OPLS_2005

> <r_lp_Energy>
39.076

> <b_lp_Chiralities_Consistent>
1

> <s_lp_Variant>
AV-unprocessed.smi:2472-2

> <Gold.Version>
5.8.1

> <Gold.Id.Protein>
6NUR|6NUR_protein|mol2

> <Gold.PLP.Fitness>
51.7898

> <Gold.PLP.PLP>
-40.7020

> <Gold.PLP.part.hbond>
-5.0000

> <Gold.PLP.part.metal>
0.0000

> <Gold.PLP.part.buried>
-3.4641

> <Gold.PLP.part.nonpolar>
-31.5175

> <Gold.PLP.part.repulsive>
0.2747

> <Gold.PLP.ligand.clash>
0.0000

> <Gold.PLP.ligand.torsion>
0.7820

> <Gold.PLP.Chemscore.Hbond>
4.0000

> <Gold.PLP.Chemscore.CHOScore>
0.0000

> <Gold.PLP.Chemscore.Metal>
0.0000

> <Gold.Chemscore.Hbonds>
donor molecule, donor type, donor heavy atom, donor atom, acceptor molecule, acceptor atom, score
      L1  H     8    30       P1  7948  1.00
      L1  H    11    31       P1  7948  0.80
      L1  H    15    32       P1  7948  0.50
      P1  H 10752 10765       L1    14  0.28

> <Gold.PLP.Chemscore.Internal.Correction>
0.6519

> <Gold.Rescore>
     Score         DG    S(hbond)    S(metal)    S(lipo)     H(rot)  DE(clash)    DE(int)     intcor
     18.06     -22.48       3.18        0.00      90.13       1.63       0.24       4.18       ----

> <Gold.Chemscore.Fitness>
18.0601

> <Gold.Chemscore.DG>
-22.4754

> <Gold.Chemscore.ZeroCoef>
-5.4800

> <Gold.Chemscore.Hbond>
3.1795

> <Gold.Chemscore.Metal>
0.0000

> <Gold.Chemscore.Lipo>
90.1295

> <Gold.Chemscore.Internal_Hbond>
0.0000

> <Gold.Chemscore.DEClash>
0.2385

> <Gold.Chemscore.DEInternal>
4.1768

> <Gold.Chemscore.Rot>
1.6286

> <Gold.Chemscore.Internal.Correction>
   9.000000E+99

> <Gold.Chemscore.Hbonds>
donor molecule, donor type, donor heavy atom, donor atom, acceptor molecule, acceptor atom, score
      L1  H     8    30       P1  7948  0.47
      L1  H    11    31       P1  7948  0.12
      L1  H    15    32       P1  7948  0.02
      P1  H 10752 10765       L1    14  0.18

> <Gold.Chemscore.Hbond.Weighted>
-10.6194

> <Gold.Chemscore.Metal.Weighted>
-0.0000

> <Gold.Chemscore.Lipo.Weighted>
-10.5452

> <Gold.Chemscore.Internal_Hbond.Weighted>
0.0000

> <Gold.Chemscore.DEClash.Weighted>
0.2385

> <Gold.Chemscore.DEInternal.Weighted>
4.1768

> <Gold.Chemscore.Rot.Weighted>
4.1692

> <Gold.Chemscore.Internal.Correction.Weighted>
   9.000000E+99

> <Gold.Protein.RotatedTorsions>
[ 6907 6896 6895 6894 ] final  107.66 input  -60.11 | X-H torsion
[ 7974 7965 7964 7962 ] final   61.69 input  175.53 | X-H torsion
[ 8008 7997 7996 7995 ] final  155.42 input   59.86 | X-H torsion
[ 10167 10162 10161 10158 ] final   94.51 input  -65.29 | X-H torsion
[ 10718 10713 10712 10709 ] final   68.24 input   66.30 | X-H torsion
[ 10763 10752 10751 10750 ] final -157.91 input  -60.55 | X-H torsion
[ 11005 11000 10999 10996 ] final  -87.30 input  -57.11 | X-H torsion

> <Gold.Protein.ActiveResidues>
 VAL166  LYS551  ARG553  GLY616  TRP617  ASP618  TYR619  PRO620  LYS621  CYS622 
 ASP623  PHE694  ASN695  SER759  ASP760  ASP761  ALA762  ILE779  LEU786  VAL792 
 PHE793  MET794  SER795  GLU796  ALA797  LYS798  CYS799  TRP800  GLU811  SER814 

> <Gold.Protein.RotatedAtoms>
  152.5145  133.9202  159.7530 H   0  0  0  0  0  0  0  0  0  0  0  0  # atno 6907 bound_to 6896
  150.9575  133.6472  159.2767 H   0  0  0  0  0  0  0  0  0  0  0  0  # atno 6908 bound_to 6896
  151.3729  135.0931  159.9524 H   0  0  0  0  0  0  0  0  0  0  0  0  # atno 6909 bound_to 6896
  145.8819  139.3449  143.0701 H   0  0  0  0  0  0  0  0  0  0  0  0  # atno 7974 bound_to 7965
  156.2479  140.1940  156.6798 H   0  0  0  0  0  0  0  0  0  0  0  0  # atno 8008 bound_to 7997
  154.6330  140.0593  156.9781 H   0  0  0  0  0  0  0  0  0  0  0  0  # atno 8009 bound_to 7997
  155.1680  140.3266  155.4401 H   0  0  0  0  0  0  0  0  0  0  0  0  # atno 8010 bound_to 7997
  139.8077  144.6787  150.9681 H   0  0  0  0  0  0  0  0  0  0  0  0  # atno 10167 bound_to 10162
  157.6278  130.9363  150.0351 H   0  0  0  0  0  0  0  0  0  0  0  0  # atno 10718 bound_to 10713
  154.7598  135.3115  154.8400 H   0  0  0  0  0  0  0  0  0  0  0  0  # atno 10763 bound_to 10752
  153.9163  135.6800  153.4753 H   0  0  0  0  0  0  0  0  0  0  0  0  # atno 10764 bound_to 10752
  153.1198  135.4828  154.9107 H   0  0  0  0  0  0  0  0  0  0  0  0  # atno 10765 bound_to 10752
  141.1618  133.7504  156.9287 H   0  0  0  0  0  0  0  0  0  0  0  0  # atno 11005 bound_to 11000
  145.9013  140.9241  143.0501 LP  0  0  0  0  0  0  0  0  0  0  0  0  # atno 17320 bound_to 7965
  144.6727  140.1036  143.7459 LP  0  0  0  0  0  0  0  0  0  0  0  0  # atno 17321 bound_to 7965
  140.7819  143.4217  151.0831 LP  0  0  0  0  0  0  0  0  0  0  0  0  # atno 17342 bound_to 10162
  139.7885  143.8252  152.3148 LP  0  0  0  0  0  0  0  0  0  0  0  0  # atno 17343 bound_to 10162
  156.1461  130.3642  149.9509 LP  0  0  0  0  0  0  0  0  0  0  0  0  # atno 17370 bound_to 10713
  156.7539  130.9125  151.3638 LP  0  0  0  0  0  0  0  0  0  0  0  0  # atno 17371 bound_to 10713
  140.1401  134.9299  157.2455 LP  0  0  0  0  0  0  0  0  0  0  0  0  # atno 17394 bound_to 11000
  140.2847  134.3309  155.7332 LP  0  0  0  0  0  0  0  0  0  0  0  0  # atno 17395 bound_to 11000

$$$$
