AV-unprocessed.smi:102|AV-procd|sdf|959|dock2
  -GOLD-   2262017493D 1   1.00000     0.00000
 Structure written by MMmdl.
 44 45  0  0  0  0  0  0  0  0  1 V2000
  147.5435  135.7475  162.3261 C   0  0  0  0  0  0  0  0  0  0  0  0
  147.4343  136.6568  161.1095 C   0  0  0  0  0  0  0  0  0  0  0  0
  146.3904  137.2497  160.8382 O   0  0  0  0  0  0  0  0  0  0  0  0
  148.5761  136.7118  160.4137 O   0  0  0  0  0  0  0  0  0  0  0  0
  148.5968  137.3027  159.1252 C   0  0  0  0  0  0  0  0  0  0  0  0
  149.2887  136.3790  158.1039 C   0  0  2  0  0  0  0  0  0  0  0  0
  150.6548  136.2259  158.4805 O   0  0  0  0  0  0  0  0  0  0  0  0
  151.5059  136.5970  157.4368 C   0  0  2  0  0  0  0  0  0  0  0  0
  152.6763  137.3744  157.9990 N   0  0  0  0  0  0  0  0  0  0  0  0
  152.4995  138.4638  158.8433 C   0  0  0  0  0  0  0  0  0  0  0  0
  153.5315  139.1973  159.3223 C   0  0  0  0  0  0  0  0  0  0  0  0
  153.2833  140.2424  160.1293 F   0  0  0  0  0  0  0  0  0  0  0  0
  154.9084  138.8695  158.9633 C   0  0  0  0  0  0  0  0  0  0  0  0
  155.9081  139.4713  159.3497 O   0  0  0  0  0  0  0  0  0  0  0  0
  155.0358  137.7747  158.1032 N   0  0  0  0  0  0  0  0  0  0  0  0
  153.9801  137.0147  157.5967 C   0  0  0  0  0  0  0  0  0  0  0  0
  154.2034  136.0816  156.8267 O   0  0  0  0  0  0  0  0  0  0  0  0
  150.6845  137.4189  156.4284 C   0  0  2  0  0  0  0  0  0  0  0  0
  150.7633  138.8118  156.7313 O   0  0  0  0  0  0  0  0  0  0  0  0
  151.1767  139.6944  155.8081 C   0  0  0  0  0  0  0  0  0  0  0  0
  151.1007  141.1302  156.3084 C   0  0  0  0  0  0  0  0  0  0  0  0
  151.5726  139.4280  154.6736 O   0  0  0  0  0  0  0  0  0  0  0  0
  149.2910  136.8412  156.6357 C   0  0  2  0  0  0  0  0  0  0  0  0
  148.2622  137.7624  156.2868 O   0  0  0  0  0  0  0  0  0  0  0  0
  148.3167  138.4349  155.1253 C   0  0  0  0  0  0  0  0  0  0  0  0
  147.1388  139.3836  154.9508 C   0  0  0  0  0  0  0  0  0  0  0  0
  149.1896  138.3251  154.2643 O   0  0  0  0  0  0  0  0  0  0  0  0
  155.9700  137.5168  157.8200 H   0  0  0  0  0  0  0  0  0  0  0  0
  148.1203  134.8540  162.0844 H   0  0  0  0  0  0  0  0  0  0  0  0
  146.5536  135.4382  162.6618 H   0  0  0  0  0  0  0  0  0  0  0  0
  148.0398  136.2704  163.1437 H   0  0  0  0  0  0  0  0  0  0  0  0
  147.5776  137.5103  158.7960 H   0  0  0  0  0  0  0  0  0  0  0  0
  149.1180  138.2592  159.1784 H   0  0  0  0  0  0  0  0  0  0  0  0
  148.8104  135.4009  158.1610 H   0  0  0  0  0  0  0  0  0  0  0  0
  151.9156  135.6811  157.0060 H   0  0  0  0  0  0  0  0  0  0  0  0
  151.5042  138.7622  159.1356 H   0  0  0  0  0  0  0  0  0  0  0  0
  151.0614  137.2169  155.4245 H   0  0  0  0  0  0  0  0  0  0  0  0
  150.0751  141.4952  156.2504 H   0  0  0  0  0  0  0  0  0  0  0  0
  151.7345  141.7798  155.7044 H   0  0  0  0  0  0  0  0  0  0  0  0
  151.4327  141.1914  157.3451 H   0  0  0  0  0  0  0  0  0  0  0  0
  149.2223  135.9559  156.0012 H   0  0  0  0  0  0  0  0  0  0  0  0
  147.0724  140.0651  155.7991 H   0  0  0  0  0  0  0  0  0  0  0  0
  146.2076  138.8208  154.8835 H   0  0  0  0  0  0  0  0  0  0  0  0
  147.2529  139.9738  154.0412 H   0  0  0  0  0  0  0  0  0  0  0  0
  1  2  1  0  0  0  0
  1 29  1  0  0  0  0
  1 30  1  0  0  0  0
  1 31  1  0  0  0  0
  2  3  2  0  0  0  0
  2  4  1  0  0  0  0
  4  5  1  0  0  0  0
  5  6  1  0  0  0  0
  5 32  1  0  0  0  0
  5 33  1  0  0  0  0
  6 23  1  0  0  0  0
  6  7  1  0  0  0  0
  6 34  1  0  0  0  0
  7  8  1  0  0  0  0
  8  9  1  0  0  0  0
  8 18  1  0  0  0  0
  8 35  1  0  0  0  0
  9 16  1  0  0  0  0
  9 10  1  0  0  0  0
 10 11  2  0  0  0  0
 10 36  1  0  0  0  0
 11 12  1  0  0  0  0
 11 13  1  0  0  0  0
 13 14  2  0  0  0  0
 13 15  1  0  0  0  0
 15 28  1  0  0  0  0
 15 16  1  0  0  0  0
 16 17  2  0  0  0  0
 18 19  1  0  0  0  0
 18 23  1  0  0  0  0
 18 37  1  0  0  0  0
 19 20  1  0  0  0  0
 20 21  1  0  0  0  0
 20 22  2  0  0  0  0
 21 38  1  0  0  0  0
 21 39  1  0  0  0  0
 21 40  1  0  0  0  0
 23 24  1  0  0  0  0
 23 41  1  0  0  0  0
 24 25  1  0  0  0  0
 25 26  1  0  0  0  0
 25 27  2  0  0  0  0
 26 42  1  0  0  0  0
 26 43  1  0  0  0  0
 26 44  1  0  0  0  0
M  END
> <s_m_source_file>
AV-unprocessed.smi

> <i_m_source_file_index>
102

> <i_lp_mmshare_version>
43012

> <i_f3d_flags>
0

> <s_epik_input>
W0NIM11DKD1PKU9bQ0gyXVtDQEBIXTFPW0NASF0oW0NAQEhdKE9DKD1PKVtDSDNdKVtDQEhdMU9DKD1PKVtDSDNdKW4yW2NIXWMoRiljKD1PKVtuSF1jMj1P

> <s_epik_cmdline>
J2VwaWtfcHl0aG9uJywgJy1waCcsICc3LjAnLCAnLXRuJywgJzgnLCAnLW1hJywgJzIwMCcsICctbWV0YWxfYmluZGluZycsICctaW1hZScsICc8aW5maWxlLm1hZT4nLCAnLW9tYWUnLCAnPG91dGZpbGUubWFlPic=

> <r_lp_tautomer_probability>
0.999537

> <r_epik_Ionization_Penalty>
0.058267

> <r_epik_Ionization_Penalty_Charging>
0.058267

> <r_epik_Ionization_Penalty_Neutral>
6.57791e-16

> <r_epik_State_Penalty>
0.0503774

> <r_epik_Charging_Adjusted_Penalty>
0.108644

> <i_epik_Tot_Q>
0

> <i_epik_Tot_abs_Q>
0

> <r_epik_Metal_State_Penalty>
2.6644

> <b_epik_Metal_Only>
0

> <s_epik_Chemistry_Notes>
This compound has an ester and may undergo hydrolysis at high or low pH. This compound contains an acetal/aminal-like group ( X-CH(R)-Y where X, Y are N, S, or O) that may be acid/base labile, releasing an aldehyde.

> <s_lp_Force_Field>
OPLS_2005

> <r_lp_Energy>
17.4488

> <b_lp_Chiralities_Consistent>
1

> <s_lp_Variant>
AV-unprocessed.smi:102-15

> <Gold.Version>
5.8.1

> <Gold.Id.Protein>
6NUR|6NUR_protein|mol2

> <Gold.PLP.Fitness>
36.7961

> <Gold.PLP.PLP>
-27.9297

> <Gold.PLP.part.hbond>
-5.8714

> <Gold.PLP.part.metal>
0.0000

> <Gold.PLP.part.buried>
-4.2064

> <Gold.PLP.part.nonpolar>
-18.8556

> <Gold.PLP.part.repulsive>
0.4217

> <Gold.PLP.ligand.clash>
0.0000

> <Gold.PLP.ligand.torsion>
1.5018

> <Gold.PLP.Chemscore.Hbond>
3.8000

> <Gold.PLP.Chemscore.CHOScore>
0.0000

> <Gold.PLP.Chemscore.Metal>
0.0000

> <Gold.Chemscore.Hbonds>
donor molecule, donor type, donor heavy atom, donor atom, acceptor molecule, acceptor atom, score
      P1  H  6896  6909       L1     7  0.82
      P1  H  6934  6947       L1     3  0.80
      P1  H  7989  7998       L1    22  1.00
      P1  H 10752 10764       L1    17  1.00

> <Gold.PLP.Chemscore.Internal.Correction>
0.4700

> <Gold.Rescore>
     Score         DG    S(hbond)    S(metal)    S(lipo)     H(rot)  DE(clash)    DE(int)     intcor
      9.04     -12.31       3.81        0.00      38.37       4.05       0.00       3.27       ----

> <Gold.Chemscore.Fitness>
9.0357

> <Gold.Chemscore.DG>
-12.3084

> <Gold.Chemscore.ZeroCoef>
-5.4800

> <Gold.Chemscore.Hbond>
3.8060

> <Gold.Chemscore.Metal>
0.0000

> <Gold.Chemscore.Lipo>
38.3719

> <Gold.Chemscore.Internal_Hbond>
0.0000

> <Gold.Chemscore.DEClash>
0.0000

> <Gold.Chemscore.DEInternal>
3.2727

> <Gold.Chemscore.Rot>
4.0520

> <Gold.Chemscore.Internal.Correction>
   9.000000E+99

> <Gold.Chemscore.Hbonds>
donor molecule, donor type, donor heavy atom, donor atom, acceptor molecule, acceptor atom, score
      P1  H  6896  6909       L1     7  0.69
      P1  H  6934  6947       L1     3  0.12
      P1  H  7989  7998       L1    22  0.92
      P1  H 10752 10764       L1    17  0.98

> <Gold.Chemscore.Hbond.Weighted>
-12.7121

> <Gold.Chemscore.Metal.Weighted>
-0.0000

> <Gold.Chemscore.Lipo.Weighted>
-4.4895

> <Gold.Chemscore.Internal_Hbond.Weighted>
0.0000

> <Gold.Chemscore.DEClash.Weighted>
0.0000

> <Gold.Chemscore.DEInternal.Weighted>
3.2727

> <Gold.Chemscore.Rot.Weighted>
10.3732

> <Gold.Chemscore.Internal.Correction.Weighted>
   9.000000E+99

> <Gold.Protein.RotatedTorsions>
[ 6907 6896 6895 6894 ] final   75.25 input  -60.11 | X-H torsion
[ 7974 7965 7964 7962 ] final   82.57 input  175.53 | X-H torsion
[ 8008 7997 7996 7995 ] final  -34.76 input   59.86 | X-H torsion
[ 10167 10162 10161 10158 ] final   40.68 input  -65.29 | X-H torsion
[ 10718 10713 10712 10709 ] final   90.79 input   66.30 | X-H torsion
[ 10763 10752 10751 10750 ] final   33.14 input  -60.55 | X-H torsion
[ 11005 11000 10999 10996 ] final -101.02 input  -57.11 | X-H torsion

> <Gold.Protein.ActiveResidues>
 VAL166  LYS551  ARG553  GLY616  TRP617  ASP618  TYR619  PRO620  LYS621  CYS622 
 ASP623  PHE694  ASN695  SER759  ASP760  ASP761  ALA762  ILE779  LEU786  VAL792 
 PHE793  MET794  SER795  GLU796  ALA797  LYS798  CYS799  TRP800  GLU811  SER814 

> <Gold.Protein.RotatedAtoms>
  152.5017  134.4148  159.9460 H   0  0  0  0  0  0  0  0  0  0  0  0  # atno 6907 bound_to 6896
  151.4118  133.3719  159.2752 H   0  0  0  0  0  0  0  0  0  0  0  0  # atno 6908 bound_to 6896
  150.9286  134.8724  159.7595 H   0  0  0  0  0  0  0  0  0  0  0  0  # atno 6909 bound_to 6896
  145.6233  139.2390  143.2126 H   0  0  0  0  0  0  0  0  0  0  0  0  # atno 7974 bound_to 7965
  154.4112  140.1675  156.2102 H   0  0  0  0  0  0  0  0  0  0  0  0  # atno 8008 bound_to 7997
  155.9450  140.3405  155.6336 H   0  0  0  0  0  0  0  0  0  0  0  0  # atno 8009 bound_to 7997
  155.6941  140.0737  157.2427 H   0  0  0  0  0  0  0  0  0  0  0  0  # atno 8010 bound_to 7997
  140.3718  144.2095  150.6133 H   0  0  0  0  0  0  0  0  0  0  0  0  # atno 10167 bound_to 10162
  157.6959  131.0384  150.3632 H   0  0  0  0  0  0  0  0  0  0  0  0  # atno 10718 bound_to 10713
  153.0227  135.6395  154.1465 H   0  0  0  0  0  0  0  0  0  0  0  0  # atno 10763 bound_to 10752
  154.1197  135.2847  155.3213 H   0  0  0  0  0  0  0  0  0  0  0  0  # atno 10764 bound_to 10752
  154.6272  135.5505  153.7702 H   0  0  0  0  0  0  0  0  0  0  0  0  # atno 10765 bound_to 10752
  141.1247  133.8445  157.1178 H   0  0  0  0  0  0  0  0  0  0  0  0  # atno 11005 bound_to 11000
  146.1414  140.7052  142.9365 LP  0  0  0  0  0  0  0  0  0  0  0  0  # atno 17320 bound_to 7965
  144.7222  140.4411  143.6999 LP  0  0  0  0  0  0  0  0  0  0  0  0  # atno 17321 bound_to 7965
  140.5025  143.2313  151.8657 LP  0  0  0  0  0  0  0  0  0  0  0  0  # atno 17342 bound_to 10162
  139.4803  144.5043  151.9019 LP  0  0  0  0  0  0  0  0  0  0  0  0  # atno 17343 bound_to 10162
  156.4065  130.3926  149.6922 LP  0  0  0  0  0  0  0  0  0  0  0  0  # atno 17370 bound_to 10713
  156.4221  130.7773  151.2791 LP  0  0  0  0  0  0  0  0  0  0  0  0  # atno 17371 bound_to 10713
  140.0235  134.9935  157.0640 LP  0  0  0  0  0  0  0  0  0  0  0  0  # atno 17394 bound_to 11000
  140.4400  134.1691  155.7173 LP  0  0  0  0  0  0  0  0  0  0  0  0  # atno 17395 bound_to 11000

$$$$
