AV-unprocessed.smi:3345|AV-procd|sdf|12900|dock9
  -GOLD-   2272019313D 1   1.00000     0.00000
 Structure written by MMmdl.
 40 41  0  0  0  0  0  0  0  0  1 V2000
  151.0016  140.3728  156.6323 C   0  0  0  0  0  0  0  0  0  0  0  0
  150.2024  141.6292  157.0109 C   0  0  1  0  0  0  0  0  0  0  0  0
  151.1342  142.8178  157.3340 C   0  0  0  0  0  0  0  0  0  0  0  0
  151.3512  143.0699  158.7590 N   0  0  0  0  0  0  0  0  0  0  0  0
  151.7212  144.4560  159.0374 C   0  0  0  0  0  0  0  0  0  0  0  0
  151.9738  144.6949  160.5364 C   0  0  0  0  0  0  0  0  0  0  0  0
  152.9734  143.7956  161.0041 O   0  0  0  0  0  0  0  0  0  0  0  0
  152.6233  142.4313  160.7965 C   0  0  0  0  0  0  0  0  0  0  0  0
  152.3804  142.1867  159.2971 C   0  0  0  0  0  0  0  0  0  0  0  0
  149.3226  141.9756  155.8968 N   0  0  0  0  0  0  0  0  0  0  0  0
  148.1815  141.3444  155.5770 C   0  0  0  0  0  0  0  0  0  0  0  0
  147.7357  140.3896  156.2140 O   0  0  0  0  0  0  0  0  0  0  0  0
  147.4378  141.8684  154.3405 C   0  0  2  0  0  0  0  0  0  0  0  0
  146.1762  142.6678  154.7241 C   0  0  0  0  0  0  0  0  0  0  0  0
  147.1515  140.7656  153.4300 N   0  0  0  0  0  0  0  0  0  0  0  0
  146.7394  140.7905  152.1604 C   0  0  0  0  0  0  0  0  0  0  0  0
  146.6289  139.5920  151.6048 N   0  0  0  0  0  0  0  0  0  0  0  0
  147.0310  138.8166  152.6549 C   0  0  0  0  0  0  0  0  0  0  0  0
  147.3663  139.4690  153.7675 N   0  0  0  0  0  0  0  0  0  0  0  0
  151.6560  140.0635  157.4479 H   0  0  0  0  0  0  0  0  0  0  0  0
  151.6239  140.5467  155.7536 H   0  0  0  0  0  0  0  0  0  0  0  0
  150.3385  139.5356  156.4111 H   0  0  0  0  0  0  0  0  0  0  0  0
  149.6184  141.3901  157.9019 H   0  0  0  0  0  0  0  0  0  0  0  0
  152.1062  142.6028  156.8881 H   0  0  0  0  0  0  0  0  0  0  0  0
  150.7856  143.7243  156.8361 H   0  0  0  0  0  0  0  0  0  0  0  0
  152.6165  144.7208  158.4730 H   0  0  0  0  0  0  0  0  0  0  0  0
  150.9315  145.1305  158.7081 H   0  0  0  0  0  0  0  0  0  0  0  0
  152.3067  145.7188  160.7063 H   0  0  0  0  0  0  0  0  0  0  0  0
  151.0550  144.5576  161.1088 H   0  0  0  0  0  0  0  0  0  0  0  0
  153.4311  141.7957  161.1591 H   0  0  0  0  0  0  0  0  0  0  0  0
  151.7339  142.1833  161.3782 H   0  0  0  0  0  0  0  0  0  0  0  0
  152.0913  141.1459  159.1463 H   0  0  0  0  0  0  0  0  0  0  0  0
  153.3148  142.3326  158.7528 H   0  0  0  0  0  0  0  0  0  0  0  0
  149.6094  142.7523  155.3191 H   0  0  0  0  0  0  0  0  0  0  0  0
  148.1025  142.5519  153.8089 H   0  0  0  0  0  0  0  0  0  0  0  0
  146.4310  143.5200  155.3551 H   0  0  0  0  0  0  0  0  0  0  0  0
  145.4524  142.0607  155.2697 H   0  0  0  0  0  0  0  0  0  0  0  0
  145.6783  143.0572  153.8356 H   0  0  0  0  0  0  0  0  0  0  0  0
  146.5210  141.7054  151.6296 H   0  0  0  0  0  0  0  0  0  0  0  0
  147.0843  137.7394  152.5956 H   0  0  0  0  0  0  0  0  0  0  0  0
  1  2  1  0  0  0  0
  1 20  1  0  0  0  0
  1 21  1  0  0  0  0
  1 22  1  0  0  0  0
  2  3  1  0  0  0  0
  2 10  1  0  0  0  0
  2 23  1  0  0  0  0
  3  4  1  0  0  0  0
  3 24  1  0  0  0  0
  3 25  1  0  0  0  0
  4  9  1  0  0  0  0
  4  5  1  0  0  0  0
  5  6  1  0  0  0  0
  5 26  1  0  0  0  0
  5 27  1  0  0  0  0
  6  7  1  0  0  0  0
  6 28  1  0  0  0  0
  6 29  1  0  0  0  0
  7  8  1  0  0  0  0
  8  9  1  0  0  0  0
  8 30  1  0  0  0  0
  8 31  1  0  0  0  0
  9 32  1  0  0  0  0
  9 33  1  0  0  0  0
 10 11  1  0  0  0  0
 10 34  1  0  0  0  0
 11 12  2  0  0  0  0
 11 13  1  0  0  0  0
 13 14  1  0  0  0  0
 13 15  1  0  0  0  0
 13 35  1  0  0  0  0
 14 36  1  0  0  0  0
 14 37  1  0  0  0  0
 14 38  1  0  0  0  0
 15 19  1  0  0  0  0
 15 16  1  0  0  0  0
 16 17  2  0  0  0  0
 16 39  1  0  0  0  0
 17 18  1  0  0  0  0
 18 19  2  0  0  0  0
 18 40  1  0  0  0  0
M  END
> <s_m_source_file>
AV-unprocessed.smi

> <i_m_source_file_index>
3345

> <i_lp_mmshare_version>
43012

> <i_f3d_flags>
0

> <s_epik_input>
W0NIMl0xW0NIMl1PW0NIMl1bQ0gyXU4xW0NIMl1bQ0BASF0oW0NIM10pW05IXUMoPU8pW0NASF0oW0NIM10pbjJbY0hdbltjSF1uMg==

> <s_epik_cmdline>
J2VwaWtfcHl0aG9uJywgJy1waCcsICc3LjAnLCAnLXRuJywgJzgnLCAnLW1hJywgJzIwMCcsICctbWV0YWxfYmluZGluZycsICctaW1hZScsICc8aW5maWxlLm1hZT4nLCAnLW9tYWUnLCAnPG91dGZpbGUubWFlPic=

> <r_lp_tautomer_probability>
1

> <r_epik_Ionization_Penalty>
0.211373

> <r_epik_Ionization_Penalty_Charging>
0

> <r_epik_Ionization_Penalty_Neutral>
0.211373

> <r_epik_State_Penalty>
0.201459

> <r_epik_Charging_Adjusted_Penalty>
0.201459

> <i_epik_Tot_Q>
0

> <i_epik_Tot_abs_Q>
0

> <r_epik_Metal_State_Penalty>
0.201458

> <b_epik_Metal_Only>
0

> <s_lp_Force_Field>
OPLS_2005

> <r_lp_Energy>
31.9378

> <b_lp_Chiralities_Consistent>
1

> <s_lp_Variant>
AV-unprocessed.smi:3345-2

> <Gold.Version>
5.8.1

> <Gold.Id.Protein>
6NUR|6NUR_protein|mol2

> <Gold.PLP.Fitness>
34.1135

> <Gold.PLP.PLP>
-32.5146

> <Gold.PLP.part.hbond>
-1.0000

> <Gold.PLP.part.metal>
0.0000

> <Gold.PLP.part.buried>
-0.8102

> <Gold.PLP.part.nonpolar>
-32.8870

> <Gold.PLP.part.repulsive>
2.1977

> <Gold.PLP.ligand.clash>
0.0000

> <Gold.PLP.ligand.torsion>
1.4212

> <Gold.PLP.Chemscore.Hbond>
0.4373

> <Gold.PLP.Chemscore.CHOScore>
1.0000

> <Gold.PLP.Chemscore.Metal>
0.0000

> <Gold.Chemscore.Hbonds>
donor molecule, donor type, donor heavy atom, donor atom, acceptor molecule, acceptor atom, score
      L1  H    10    34       P1  8028  0.35
      L1  C    18    40       P1  7948  1.00

> <Gold.PLP.Chemscore.Internal.Correction>
0.1294

> <Gold.Rescore>
     Score         DG    S(hbond)    S(metal)    S(lipo)     H(rot)  DE(clash)    DE(int)     intcor
      3.64      -9.92       0.47        0.00      79.86       2.54       3.47       2.81       ----

> <Gold.Chemscore.Fitness>
3.6438

> <Gold.Chemscore.DG>
-9.9192

> <Gold.Chemscore.ZeroCoef>
-5.4800

> <Gold.Chemscore.Hbond>
0.4749

> <Gold.Chemscore.Metal>
0.0000

> <Gold.Chemscore.Lipo>
79.8600

> <Gold.Chemscore.Internal_Hbond>
0.0000

> <Gold.Chemscore.DEClash>
3.4680

> <Gold.Chemscore.DEInternal>
2.8074

> <Gold.Chemscore.Rot>
2.5353

> <Gold.Chemscore.Internal.Correction>
   9.000000E+99

> <Gold.Chemscore.Hbonds>
donor molecule, donor type, donor heavy atom, donor atom, acceptor molecule, acceptor atom, score
      L1  H    10    34       P1  8028  0.34

> <Gold.Chemscore.Hbond.Weighted>
-1.5861

> <Gold.Chemscore.Metal.Weighted>
-0.0000

> <Gold.Chemscore.Lipo.Weighted>
-9.3436

> <Gold.Chemscore.Internal_Hbond.Weighted>
0.0000

> <Gold.Chemscore.DEClash.Weighted>
3.4680

> <Gold.Chemscore.DEInternal.Weighted>
2.8074

> <Gold.Chemscore.Rot.Weighted>
6.4905

> <Gold.Chemscore.Internal.Correction.Weighted>
   9.000000E+99

> <Gold.Protein.RotatedTorsions>
[ 6907 6896 6895 6894 ] final -118.73 input  -60.11 | X-H torsion
[ 7974 7965 7964 7962 ] final  154.99 input  175.53 | X-H torsion
[ 8008 7997 7996 7995 ] final -173.72 input   59.86 | X-H torsion
[ 10167 10162 10161 10158 ] final  -83.04 input  -65.29 | X-H torsion
[ 10718 10713 10712 10709 ] final  -75.28 input   66.30 | X-H torsion
[ 10763 10752 10751 10750 ] final -149.17 input  -60.55 | X-H torsion
[ 11005 11000 10999 10996 ] final  -42.19 input  -57.11 | X-H torsion

> <Gold.Protein.ActiveResidues>
 VAL166  LYS551  ARG553  GLY616  TRP617  ASP618  TYR619  PRO620  LYS621  CYS622 
 ASP623  PHE694  ASN695  SER759  ASP760  ASP761  ALA762  ILE779  LEU786  VAL792 
 PHE793  MET794  SER795  GLU796  ALA797  LYS798  CYS799  TRP800  GLU811  SER814 

> <Gold.Protein.RotatedAtoms>
  150.8244  133.8197  159.3124 H   0  0  0  0  0  0  0  0  0  0  0  0  # atno 6907 bound_to 6896
  151.5945  135.1049  160.0056 H   0  0  0  0  0  0  0  0  0  0  0  0  # atno 6908 bound_to 6896
  152.4331  133.7271  159.6622 H   0  0  0  0  0  0  0  0  0  0  0  0  # atno 6909 bound_to 6896
  144.8053  139.7008  143.6164 H   0  0  0  0  0  0  0  0  0  0  0  0  # atno 7974 bound_to 7965
  155.9610  140.1144  157.0896 H   0  0  0  0  0  0  0  0  0  0  0  0  # atno 8008 bound_to 7997
  154.4132  140.1182  156.5245 H   0  0  0  0  0  0  0  0  0  0  0  0  # atno 8009 bound_to 7997
  155.6720  140.3473  155.4824 H   0  0  0  0  0  0  0  0  0  0  0  0  # atno 8010 bound_to 7997
  140.4264  143.2565  151.8820 H   0  0  0  0  0  0  0  0  0  0  0  0  # atno 10167 bound_to 10162
  156.0213  130.4437  150.3019 H   0  0  0  0  0  0  0  0  0  0  0  0  # atno 10718 bound_to 10713
  154.8192  135.3316  154.7087 H   0  0  0  0  0  0  0  0  0  0  0  0  # atno 10763 bound_to 10752
  153.7723  135.6924  153.4908 H   0  0  0  0  0  0  0  0  0  0  0  0  # atno 10764 bound_to 10752
  153.2036  135.4507  155.0245 H   0  0  0  0  0  0  0  0  0  0  0  0  # atno 10765 bound_to 10752
  141.0298  133.6825  156.2560 H   0  0  0  0  0  0  0  0  0  0  0  0  # atno 11005 bound_to 11000
  146.2343  139.5874  142.9534 LP  0  0  0  0  0  0  0  0  0  0  0  0  # atno 17320 bound_to 7965
  145.5454  141.0417  143.2308 LP  0  0  0  0  0  0  0  0  0  0  0  0  # atno 17321 bound_to 7965
  139.4783  144.5382  151.8567 LP  0  0  0  0  0  0  0  0  0  0  0  0  # atno 17342 bound_to 10162
  140.4476  144.1899  150.5895 LP  0  0  0  0  0  0  0  0  0  0  0  0  # atno 17343 bound_to 10162
  157.1122  131.0224  151.3043 LP  0  0  0  0  0  0  0  0  0  0  0  0  # atno 17370 bound_to 10713
  157.4696  130.7701  149.7311 LP  0  0  0  0  0  0  0  0  0  0  0  0  # atno 17371 bound_to 10713
  140.6426  134.5150  157.5571 LP  0  0  0  0  0  0  0  0  0  0  0  0  # atno 17394 bound_to 11000
  139.9200  134.8168  156.1241 LP  0  0  0  0  0  0  0  0  0  0  0  0  # atno 17395 bound_to 11000

$$$$
