AV-unprocessed.smi:2829|AV-procd|sdf|10900|dock8
  -GOLD-   2272015343D 1   1.00000     0.00000
 Structure written by MMmdl.
 50 53  0  0  0  0  0  0  0  0  1 V2000
  150.6311  122.5921  151.7640 C   0  0  0  0  0  0  0  0  0  0  0  0
  149.1254  122.8943  151.9115 C   0  0  0  0  0  0  0  0  0  0  0  0
  148.3331  122.1631  150.8078 C   0  0  0  0  0  0  0  0  0  0  0  0
  148.6676  122.3190  153.2709 C   0  0  0  0  0  0  0  0  0  0  0  0
  148.8876  124.4113  151.8038 C   0  0  0  0  0  0  0  0  0  0  0  0
  149.2648  125.1760  150.6768 C   0  0  0  0  0  0  0  0  0  0  0  0
  148.9882  126.5533  150.6984 C   0  0  0  0  0  0  0  0  0  0  0  0
  148.3538  127.0932  151.8350 C   0  0  0  0  0  0  0  0  0  0  0  0
  148.0966  128.4869  151.7811 N   0  0  0  0  0  0  0  0  0  0  0  0
  147.0336  129.1595  152.2642 C   0  0  0  0  0  0  0  0  0  0  0  0
  146.1321  128.6594  152.9342 O   0  0  0  0  0  0  0  0  0  0  0  0
  147.0290  130.4681  151.9543 N   0  0  0  0  0  0  0  0  0  0  0  0
  146.0236  131.4650  152.3250 C   0  0  2  0  0  0  0  0  0  0  0  0
  145.3161  132.0681  151.0966 C   0  0  1  0  0  0  0  0  0  0  0  0
  143.8390  131.8550  150.9013 C   0  0  0  0  0  0  0  0  0  0  0  0
  143.2304  133.1438  151.4614 C   0  0  0  0  0  0  0  0  0  0  0  0
  144.2233  133.6555  152.3472 O   0  0  0  0  0  0  0  0  0  0  0  0
  145.4923  133.4401  151.7373 C   0  0  1  0  0  0  0  0  0  0  0  0
  146.5819  132.8676  152.6520 C   0  0  0  0  0  0  0  0  0  0  0  0
  148.0541  133.2625  152.4256 C   0  0  0  0  0  0  0  0  0  0  0  0
  148.2527  133.2625  153.9435 C   0  0  0  0  0  0  0  0  0  0  0  0
  146.7318  133.3491  154.1022 C   0  0  0  0  0  0  0  0  0  0  0  0
  148.0206  126.3002  152.8837 N   0  0  0  0  0  0  0  0  0  0  0  0
  148.2807  124.9896  152.8691 N   0  0  0  0  0  0  0  0  0  0  0  0
  150.8333  121.5244  151.8548 H   0  0  0  0  0  0  0  0  0  0  0  0
  151.2140  123.1035  152.5311 H   0  0  0  0  0  0  0  0  0  0  0  0
  151.0153  122.9094  150.7938 H   0  0  0  0  0  0  0  0  0  0  0  0
  148.6530  122.4665  149.8104 H   0  0  0  0  0  0  0  0  0  0  0  0
  147.2646  122.3680  150.8863 H   0  0  0  0  0  0  0  0  0  0  0  0
  148.4662  121.0827  150.8718 H   0  0  0  0  0  0  0  0  0  0  0  0
  148.8448  121.2441  153.3247 H   0  0  0  0  0  0  0  0  0  0  0  0
  147.6007  122.4742  153.4359 H   0  0  0  0  0  0  0  0  0  0  0  0
  149.2078  122.7716  154.1033 H   0  0  0  0  0  0  0  0  0  0  0  0
  149.7482  124.7464  149.8131 H   0  0  0  0  0  0  0  0  0  0  0  0
  149.2551  127.1774  149.8578 H   0  0  0  0  0  0  0  0  0  0  0  0
  148.7725  129.0341  151.2688 H   0  0  0  0  0  0  0  0  0  0  0  0
  147.8090  130.8075  151.4098 H   0  0  0  0  0  0  0  0  0  0  0  0
  145.3032  131.1241  153.0716 H   0  0  0  0  0  0  0  0  0  0  0  0
  145.9119  131.9801  150.1859 H   0  0  0  0  0  0  0  0  0  0  0  0
  143.5707  131.7063  149.8550 H   0  0  0  0  0  0  0  0  0  0  0  0
  143.4926  130.9865  151.4623 H   0  0  0  0  0  0  0  0  0  0  0  0
  143.0625  133.8673  150.6621 H   0  0  0  0  0  0  0  0  0  0  0  0
  142.2832  132.9750  151.9739 H   0  0  0  0  0  0  0  0  0  0  0  0
  145.7980  134.2246  151.0435 H   0  0  0  0  0  0  0  0  0  0  0  0
  148.6687  132.5406  151.8882 H   0  0  0  0  0  0  0  0  0  0  0  0
  148.1574  134.2608  151.9982 H   0  0  0  0  0  0  0  0  0  0  0  0
  148.6674  132.3259  154.3167 H   0  0  0  0  0  0  0  0  0  0  0  0
  148.7982  134.1244  154.3285 H   0  0  0  0  0  0  0  0  0  0  0  0
  146.3815  134.3727  154.2434 H   0  0  0  0  0  0  0  0  0  0  0  0
  146.3171  132.6749  154.8521 H   0  0  0  0  0  0  0  0  0  0  0  0
  1  2  1  0  0  0  0
  1 25  1  0  0  0  0
  1 26  1  0  0  0  0
  1 27  1  0  0  0  0
  2  3  1  0  0  0  0
  2  4  1  0  0  0  0
  2  5  1  0  0  0  0
  3 28  1  0  0  0  0
  3 29  1  0  0  0  0
  3 30  1  0  0  0  0
  4 31  1  0  0  0  0
  4 32  1  0  0  0  0
  4 33  1  0  0  0  0
  5 24  1  0  0  0  0
  5  6  2  0  0  0  0
  6  7  1  0  0  0  0
  6 34  1  0  0  0  0
  7  8  2  0  0  0  0
  7 35  1  0  0  0  0
  8  9  1  0  0  0  0
  8 23  1  0  0  0  0
  9 10  1  0  0  0  0
  9 36  1  0  0  0  0
 10 11  2  0  0  0  0
 10 12  1  0  0  0  0
 12 13  1  0  0  0  0
 12 37  1  0  0  0  0
 13 19  1  0  0  0  0
 13 14  1  0  0  0  0
 13 38  1  0  0  0  0
 14 18  1  0  0  0  0
 14 15  1  0  0  0  0
 14 39  1  0  0  0  0
 15 16  1  0  0  0  0
 15 40  1  0  0  0  0
 15 41  1  0  0  0  0
 16 17  1  0  0  0  0
 16 42  1  0  0  0  0
 16 43  1  0  0  0  0
 17 18  1  0  0  0  0
 18 19  1  0  0  0  0
 18 44  1  0  0  0  0
 19 22  1  0  0  0  0
 19 20  1  0  0  0  0
 20 21  1  0  0  0  0
 20 45  1  0  0  0  0
 20 46  1  0  0  0  0
 21 22  1  0  0  0  0
 21 47  1  0  0  0  0
 21 48  1  0  0  0  0
 22 49  1  0  0  0  0
 22 50  1  0  0  0  0
 23 24  2  0  0  0  0
M  END
> <s_m_source_file>
AV-unprocessed.smi

> <i_m_source_file_index>
2829

> <i_lp_mmshare_version>
43012

> <i_f3d_flags>
0

> <s_epik_input>
W0NIM11DKFtDSDNdKShbQ0gzXSljMVtjSF1bY0hdYyhubjEpW05IXUMoPU8pW05IXVtDQEBIXTJbQ0BIXShbQ0gyXVtDSDJdTzMpW0NAQEhdM0MyNFtDSDJdW0NIMl1bQ0gyXTQ=

> <s_epik_cmdline>
J2VwaWtfcHl0aG9uJywgJy1waCcsICc3LjAnLCAnLXRuJywgJzgnLCAnLW1hJywgJzIwMCcsICctbWV0YWxfYmluZGluZycsICctaW1hZScsICc8aW5maWxlLm1hZT4nLCAnLW9tYWUnLCAnPG91dGZpbGUubWFlPic=

> <r_lp_tautomer_probability>
1

> <r_epik_Ionization_Penalty>
0.011915

> <r_epik_Ionization_Penalty_Charging>
0

> <r_epik_Ionization_Penalty_Neutral>
0.011915

> <r_epik_State_Penalty>
0.00486223

> <r_epik_Charging_Adjusted_Penalty>
0.00486223

> <i_epik_Tot_Q>
0

> <i_epik_Tot_abs_Q>
0

> <r_epik_Metal_State_Penalty>
-0

> <b_epik_Metal_Only>
0

> <s_lp_Force_Field>
OPLS_2005

> <r_lp_Energy>
59.5843

> <b_lp_Chiralities_Consistent>
1

> <s_lp_Variant>
AV-unprocessed.smi:2829-3

> <Gold.Version>
5.8.1

> <Gold.Id.Protein>
6NUR|6NUR_protein|mol2

> <Gold.PLP.Fitness>
45.1607

> <Gold.PLP.PLP>
-42.3660

> <Gold.PLP.part.hbond>
-3.9304

> <Gold.PLP.part.metal>
0.0000

> <Gold.PLP.part.buried>
-5.9610

> <Gold.PLP.part.nonpolar>
-32.8837

> <Gold.PLP.part.repulsive>
0.3928

> <Gold.PLP.ligand.clash>
0.0000

> <Gold.PLP.ligand.torsion>
0.4451

> <Gold.PLP.Chemscore.Hbond>
1.1632

> <Gold.PLP.Chemscore.CHOScore>
0.0000

> <Gold.PLP.Chemscore.Metal>
0.0000

> <Gold.Chemscore.Hbonds>
donor molecule, donor type, donor heavy atom, donor atom, acceptor molecule, acceptor atom, score
      L1  H     9    36       P1 10747  0.17
      L1  H    12    37       P1 10747  1.00

> <Gold.PLP.Chemscore.Internal.Correction>
0.1953

> <Gold.Rescore>
     Score         DG    S(hbond)    S(metal)    S(lipo)     H(rot)  DE(clash)    DE(int)     intcor
     13.94     -15.38       1.00        0.00      81.58       1.16       0.04       1.40       ----

> <Gold.Chemscore.Fitness>
13.9394

> <Gold.Chemscore.DG>
-15.3796

> <Gold.Chemscore.ZeroCoef>
-5.4800

> <Gold.Chemscore.Hbond>
0.9968

> <Gold.Chemscore.Metal>
0.0000

> <Gold.Chemscore.Lipo>
81.5754

> <Gold.Chemscore.Internal_Hbond>
0.0000

> <Gold.Chemscore.DEClash>
0.0376

> <Gold.Chemscore.DEInternal>
1.4026

> <Gold.Chemscore.Rot>
1.1618

> <Gold.Chemscore.Internal.Correction>
   9.000000E+99

> <Gold.Chemscore.Hbonds>
donor molecule, donor type, donor heavy atom, donor atom, acceptor molecule, acceptor atom, score
      L1  H    12    37       P1 10747  0.99

> <Gold.Chemscore.Hbond.Weighted>
-3.3294

> <Gold.Chemscore.Metal.Weighted>
-0.0000

> <Gold.Chemscore.Lipo.Weighted>
-9.5443

> <Gold.Chemscore.Internal_Hbond.Weighted>
0.0000

> <Gold.Chemscore.DEClash.Weighted>
0.0376

> <Gold.Chemscore.DEInternal.Weighted>
1.4026

> <Gold.Chemscore.Rot.Weighted>
2.9741

> <Gold.Chemscore.Internal.Correction.Weighted>
   9.000000E+99

> <Gold.Protein.RotatedTorsions>
[ 6907 6896 6895 6894 ] final   47.63 input  -60.11 | X-H torsion
[ 7974 7965 7964 7962 ] final   84.38 input  175.53 | X-H torsion
[ 8008 7997 7996 7995 ] final   43.59 input   59.86 | X-H torsion
[ 10167 10162 10161 10158 ] final -118.59 input  -65.29 | X-H torsion
[ 10718 10713 10712 10709 ] final -164.46 input   66.30 | X-H torsion
[ 10763 10752 10751 10750 ] final  -83.76 input  -60.55 | X-H torsion
[ 11005 11000 10999 10996 ] final  145.93 input  -57.11 | X-H torsion

> <Gold.Protein.ActiveResidues>
 VAL166  LYS551  ARG553  GLY616  TRP617  ASP618  TYR619  PRO620  LYS621  CYS622 
 ASP623  PHE694  ASN695  SER759  ASP760  ASP761  ALA762  ILE779  LEU786  VAL792 
 PHE793  MET794  SER795  GLU796  ALA797  LYS798  CYS799  TRP800  GLU811  SER814 

> <Gold.Protein.RotatedAtoms>
  152.2703  134.7940  160.0415 H   0  0  0  0  0  0  0  0  0  0  0  0  # atno 6907 bound_to 6896
  151.8555  133.3442  159.3695 H   0  0  0  0  0  0  0  0  0  0  0  0  # atno 6908 bound_to 6896
  150.7149  134.5185  159.5686 H   0  0  0  0  0  0  0  0  0  0  0  0  # atno 6909 bound_to 6896
  145.5996  139.2350  143.2253 H   0  0  0  0  0  0  0  0  0  0  0  0  # atno 7974 bound_to 7965
  155.3052  140.3387  155.4246 H   0  0  0  0  0  0  0  0  0  0  0  0  # atno 8008 bound_to 7997
  156.1982  140.1723  156.7993 H   0  0  0  0  0  0  0  0  0  0  0  0  # atno 8009 bound_to 7997
  154.5525  140.0703  156.8675 H   0  0  0  0  0  0  0  0  0  0  0  0  # atno 8010 bound_to 7997
  140.0558  143.5015  152.2058 H   0  0  0  0  0  0  0  0  0  0  0  0  # atno 10167 bound_to 10162
  156.6393  130.8962  151.2993 H   0  0  0  0  0  0  0  0  0  0  0  0  # atno 10718 bound_to 10713
  154.5916  135.5544  153.7284 H   0  0  0  0  0  0  0  0  0  0  0  0  # atno 10763 bound_to 10752
  153.0119  135.6344  154.1841 H   0  0  0  0  0  0  0  0  0  0  0  0  # atno 10764 bound_to 10752
  154.1782  135.2888  155.3040 H   0  0  0  0  0  0  0  0  0  0  0  0  # atno 10765 bound_to 10752
  140.0752  134.9129  157.1411 H   0  0  0  0  0  0  0  0  0  0  0  0  # atno 11005 bound_to 11000
  146.1586  140.6821  142.9288 LP  0  0  0  0  0  0  0  0  0  0  0  0  # atno 17320 bound_to 7965
  144.7316  140.4687  143.6934 LP  0  0  0  0  0  0  0  0  0  0  0  0  # atno 17321 bound_to 7965
  139.5924  144.7555  151.3368 LP  0  0  0  0  0  0  0  0  0  0  0  0  # atno 17342 bound_to 10162
  140.7195  143.7175  150.7722 LP  0  0  0  0  0  0  0  0  0  0  0  0  # atno 17343 bound_to 10162
  157.7176  130.9517  150.1314 LP  0  0  0  0  0  0  0  0  0  0  0  0  # atno 17370 bound_to 10713
  156.2172  130.3671  149.8599 LP  0  0  0  0  0  0  0  0  0  0  0  0  # atno 17371 bound_to 10713
  140.3568  134.2538  155.7191 LP  0  0  0  0  0  0  0  0  0  0  0  0  # atno 17394 bound_to 11000
  141.2027  133.7932  157.0379 LP  0  0  0  0  0  0  0  0  0  0  0  0  # atno 17395 bound_to 11000

$$$$
