AV-unprocessed.smi:2100|AV-procd|sdf|8576|dock10
  -GOLD-   2272011303D 1   1.00000     0.00000
 Structure written by MMmdl.
 40 41  0  0  0  0  0  0  0  0  2 V2000
  148.0841  139.1080  153.6072 C   0  0  0  0  0  0  0  0  0  0  0  0
  148.8169  138.7727  154.9107 C   0  0  2  0  0  0  0  0  0  0  0  0
  150.3160  138.5266  154.6765 C   0  0  0  0  0  0  0  0  0  0  0  0
  150.9792  138.0852  155.9178 N   0  0  0  0  0  0  0  0  0  0  0  0
  152.7155  138.0983  155.9518 S   0  0  0  0  0  0  0  0  0  0  0  0
  153.1371  136.8008  156.5043 O   0  0  0  0  0  0  0  0  0  0  0  0
  153.1389  138.4336  154.5821 O   0  0  0  0  0  0  0  0  0  0  0  0
  152.8842  139.3104  157.0127 N   0  5  0  0  0  0  0  0  0  0  0  0
  152.3359  139.1746  158.3511 C   0  0  0  0  0  0  0  0  0  0  0  0
  152.9641  140.2293  159.2915 C   0  0  0  0  0  0  0  0  0  0  0  0
  152.5317  141.6712  159.0292 C   0  0  0  0  0  0  0  0  0  0  0  0
  152.9959  142.7230  159.8526 C   0  0  0  0  0  0  0  0  0  0  0  0
  152.5716  144.0361  159.5760 C   0  0  0  0  0  0  0  0  0  0  0  0
  151.7108  144.2546  158.4837 C   0  0  0  0  0  0  0  0  0  0  0  0
  151.3111  143.1441  157.7140 C   0  0  0  0  0  0  0  0  0  0  0  0
  151.7100  141.8801  157.9711 N   0  0  0  0  0  0  0  0  0  0  0  0
  150.3040  136.9371  156.5440 C   0  0  0  0  0  0  0  0  0  0  0  0
  148.7899  137.1817  156.6993 C   0  0  1  0  0  0  0  0  0  0  0  0
  148.4415  138.1319  157.8593 C   0  0  0  0  0  0  0  0  0  0  0  0
  148.2165  137.6081  155.4659 O   0  0  0  0  0  0  0  0  0  0  0  0
  148.4985  140.0048  153.1455 H   0  0  0  0  0  0  0  0  0  0  0  0
  147.0247  139.2874  153.7907 H   0  0  0  0  0  0  0  0  0  0  0  0
  148.1652  138.2928  152.8877 H   0  0  0  0  0  0  0  0  0  0  0  0
  148.6895  139.6153  155.5904 H   0  0  0  0  0  0  0  0  0  0  0  0
  150.4621  137.7630  153.9115 H   0  0  0  0  0  0  0  0  0  0  0  0
  150.7768  139.4393  154.3000 H   0  0  0  0  0  0  0  0  0  0  0  0
  151.2537  139.3082  158.3455 H   0  0  0  0  0  0  0  0  0  0  0  0
  152.5096  138.1809  158.7657 H   0  0  0  0  0  0  0  0  0  0  0  0
  152.7447  139.9769  160.3298 H   0  0  0  0  0  0  0  0  0  0  0  0
  154.0500  140.1789  159.2022 H   0  0  0  0  0  0  0  0  0  0  0  0
  153.6513  142.5220  160.6876 H   0  0  0  0  0  0  0  0  0  0  0  0
  152.9004  144.8603  160.1915 H   0  0  0  0  0  0  0  0  0  0  0  0
  151.3653  145.2485  158.2412 H   0  0  0  0  0  0  0  0  0  0  0  0
  150.6531  143.2754  156.8677 H   0  0  0  0  0  0  0  0  0  0  0  0
  150.4760  136.0574  155.9229 H   0  0  0  0  0  0  0  0  0  0  0  0
  150.7463  136.7254  157.5173 H   0  0  0  0  0  0  0  0  0  0  0  0
  148.3237  136.2236  156.9304 H   0  0  0  0  0  0  0  0  0  0  0  0
  148.7570  137.7086  158.8129 H   0  0  0  0  0  0  0  0  0  0  0  0
  147.3660  138.3020  157.9136 H   0  0  0  0  0  0  0  0  0  0  0  0
  148.9314  139.1004  157.7609 H   0  0  0  0  0  0  0  0  0  0  0  0
  1  2  1  0  0  0  0
  1 21  1  0  0  0  0
  1 22  1  0  0  0  0
  1 23  1  0  0  0  0
  2 20  1  0  0  0  0
  2  3  1  0  0  0  0
  2 24  1  0  0  0  0
  3  4  1  0  0  0  0
  3 25  1  0  0  0  0
  3 26  1  0  0  0  0
  4  5  1  0  0  0  0
  4 17  1  0  0  0  0
  5  6  2  0  0  0  0
  5  7  2  0  0  0  0
  5  8  1  0  0  0  0
  8  9  1  0  0  0  0
  9 10  1  0  0  0  0
  9 27  1  0  0  0  0
  9 28  1  0  0  0  0
 10 11  1  0  0  0  0
 10 29  1  0  0  0  0
 10 30  1  0  0  0  0
 11 16  1  0  0  0  0
 11 12  2  0  0  0  0
 12 13  1  0  0  0  0
 12 31  1  0  0  0  0
 13 14  2  0  0  0  0
 13 32  1  0  0  0  0
 14 15  1  0  0  0  0
 14 33  1  0  0  0  0
 15 16  2  0  0  0  0
 15 34  1  0  0  0  0
 17 18  1  0  0  0  0
 17 35  1  0  0  0  0
 17 36  1  0  0  0  0
 18 19  1  0  0  0  0
 18 20  1  0  0  0  0
 18 37  1  0  0  0  0
 19 38  1  0  0  0  0
 19 39  1  0  0  0  0
 19 40  1  0  0  0  0
M  CHG  1   8  -1
M  END
> <s_m_source_file>
AV-unprocessed.smi

> <i_m_source_file_index>
2100

> <i_lp_mmshare_version>
43012

> <i_f3d_flags>
0

> <s_epik_input>
W0NIM11bQ0BASF0xW0NIMl1OKFtDSDJdW0NASF0oTzEpW0NIM10pUyg9TykoPU8pW05IXVtDSDJdW0NIMl1jMltjSF1bY0hdW2NIXVtjSF1uMg==

> <s_epik_cmdline>
J2VwaWtfcHl0aG9uJywgJy1waCcsICc3LjAnLCAnLXRuJywgJzgnLCAnLW1hJywgJzIwMCcsICctbWV0YWxfYmluZGluZycsICctaW1hZScsICc8aW5maWxlLm1hZT4nLCAnLW9tYWUnLCAnPG91dGZpbGUubWFlPic=

> <r_epik_Ionization_Penalty>
1.27779

> <r_epik_Ionization_Penalty_Charging>
1.20871

> <r_epik_Ionization_Penalty_Neutral>
0.0690773

> <r_epik_State_Penalty>
1.64557

> <r_epik_Charging_Adjusted_Penalty>
2.85428

> <i_epik_Tot_Q>
-1

> <i_epik_Tot_abs_Q>
1

> <r_epik_Metal_State_Penalty>
0.643506

> <b_epik_Metal_Only>
0

> <s_lp_Force_Field>
OPLS_2005

> <r_lp_Energy>
11.2488

> <b_lp_Chiralities_Consistent>
1

> <s_lp_Variant>
AV-unprocessed.smi:2100-4

> <Gold.Version>
5.8.1

> <Gold.Id.Protein>
6NUR|6NUR_protein|mol2

> <Gold.PLP.Fitness>
43.0673

> <Gold.PLP.PLP>
-31.6025

> <Gold.PLP.part.hbond>
-2.5176

> <Gold.PLP.part.metal>
0.0000

> <Gold.PLP.part.buried>
-2.9290

> <Gold.PLP.part.nonpolar>
-26.3466

> <Gold.PLP.part.repulsive>
0.1218

> <Gold.PLP.ligand.clash>
0.0000

> <Gold.PLP.ligand.torsion>
0.9380

> <Gold.PLP.Chemscore.Hbond>
2.9440

> <Gold.PLP.Chemscore.CHOScore>
1.0000

> <Gold.PLP.Chemscore.Metal>
0.0000

> <Gold.Chemscore.Hbonds>
donor molecule, donor type, donor heavy atom, donor atom, acceptor molecule, acceptor atom, score
      P1  H  7997  8008       L1     8  2.00
      P1  H 10752 10764       L1     6  0.83
      L1  C    15    34       P1  8028  0.90

> <Gold.PLP.Chemscore.Internal.Correction>
1.5088

> <Gold.Rescore>
     Score         DG    S(hbond)    S(metal)    S(lipo)     H(rot)  DE(clash)    DE(int)     intcor
     17.37     -18.38       1.84        0.00      90.07       1.47       0.06       0.96       ----

> <Gold.Chemscore.Fitness>
17.3655

> <Gold.Chemscore.DG>
-18.3780

> <Gold.Chemscore.ZeroCoef>
-5.4800

> <Gold.Chemscore.Hbond>
1.8357

> <Gold.Chemscore.Metal>
0.0000

> <Gold.Chemscore.Lipo>
90.0682

> <Gold.Chemscore.Internal_Hbond>
0.0000

> <Gold.Chemscore.DEClash>
0.0567

> <Gold.Chemscore.DEInternal>
0.9557

> <Gold.Chemscore.Rot>
1.4731

> <Gold.Chemscore.Internal.Correction>
   9.000000E+99

> <Gold.Chemscore.Hbonds>
donor molecule, donor type, donor heavy atom, donor atom, acceptor molecule, acceptor atom, score
      P1  H  7997  8008       L1     8  0.40
      P1  H 10752 10764       L1     6  0.73

> <Gold.Chemscore.Hbond.Weighted>
-6.1312

> <Gold.Chemscore.Metal.Weighted>
-0.0000

> <Gold.Chemscore.Lipo.Weighted>
-10.5380

> <Gold.Chemscore.Internal_Hbond.Weighted>
0.0000

> <Gold.Chemscore.DEClash.Weighted>
0.0567

> <Gold.Chemscore.DEInternal.Weighted>
0.9557

> <Gold.Chemscore.Rot.Weighted>
3.7712

> <Gold.Chemscore.Internal.Correction.Weighted>
   9.000000E+99

> <Gold.Protein.RotatedTorsions>
[ 6907 6896 6895 6894 ] final    4.64 input  -60.11 | X-H torsion
[ 7974 7965 7964 7962 ] final -118.17 input  175.53 | X-H torsion
[ 8008 7997 7996 7995 ] final  -49.19 input   59.86 | X-H torsion
[ 10167 10162 10161 10158 ] final  103.21 input  -65.29 | X-H torsion
[ 10718 10713 10712 10709 ] final -103.45 input   66.30 | X-H torsion
[ 10763 10752 10751 10750 ] final  -15.51 input  -60.55 | X-H torsion
[ 11005 11000 10999 10996 ] final  -51.32 input  -57.11 | X-H torsion

> <Gold.Protein.ActiveResidues>
 VAL166  LYS551  ARG553  GLY616  TRP617  ASP618  TYR619  PRO620  LYS621  CYS622 
 ASP623  PHE694  ASN695  SER759  ASP760  ASP761  ALA762  ILE779  LEU786  VAL792 
 PHE793  MET794  SER795  GLU796  ALA797  LYS798  CYS799  TRP800  GLU811  SER814 

> <Gold.Protein.RotatedAtoms>
  151.6446  135.1009  160.0148 H   0  0  0  0  0  0  0  0  0  0  0  0  # atno 6907 bound_to 6896
  152.4035  133.6849  159.6345 H   0  0  0  0  0  0  0  0  0  0  0  0  # atno 6908 bound_to 6896
  150.7932  133.8667  159.3288 H   0  0  0  0  0  0  0  0  0  0  0  0  # atno 6909 bound_to 6896
  145.0769  140.8398  143.4062 H   0  0  0  0  0  0  0  0  0  0  0  0  # atno 7974 bound_to 7965
  154.4040  140.1303  156.4463 H   0  0  0  0  0  0  0  0  0  0  0  0  # atno 8008 bound_to 7997
  155.7410  140.3490  155.5084 H   0  0  0  0  0  0  0  0  0  0  0  0  # atno 8009 bound_to 7997
  155.9039  140.1024  157.1320 H   0  0  0  0  0  0  0  0  0  0  0  0  # atno 8010 bound_to 7997
  139.7282  144.7042  151.0763 H   0  0  0  0  0  0  0  0  0  0  0  0  # atno 10167 bound_to 10162
  156.0266  130.5468  150.7255 H   0  0  0  0  0  0  0  0  0  0  0  0  # atno 10718 bound_to 10713
  153.5445  135.7012  153.5621 H   0  0  0  0  0  0  0  0  0  0  0  0  # atno 10763 bound_to 10752
  153.3572  135.3979  155.1691 H   0  0  0  0  0  0  0  0  0  0  0  0  # atno 10764 bound_to 10752
  154.8669  135.3780  154.4951 H   0  0  0  0  0  0  0  0  0  0  0  0  # atno 10765 bound_to 10752
  141.0865  133.6641  156.3860 H   0  0  0  0  0  0  0  0  0  0  0  0  # atno 11005 bound_to 11000
  145.1225  139.2684  143.5581 LP  0  0  0  0  0  0  0  0  0  0  0  0  # atno 17320 bound_to 7965
  146.3530  140.0853  142.8615 LP  0  0  0  0  0  0  0  0  0  0  0  0  # atno 17321 bound_to 7965
  140.7766  143.5077  150.9691 LP  0  0  0  0  0  0  0  0  0  0  0  0  # atno 17342 bound_to 10162
  139.8765  143.7126  152.3161 LP  0  0  0  0  0  0  0  0  0  0  0  0  # atno 17343 bound_to 10162
  157.4860  131.0906  151.0482 LP  0  0  0  0  0  0  0  0  0  0  0  0  # atno 17370 bound_to 10713
  157.0902  130.5939  149.5438 LP  0  0  0  0  0  0  0  0  0  0  0  0  # atno 17371 bound_to 10713
  140.5352  134.6174  157.5362 LP  0  0  0  0  0  0  0  0  0  0  0  0  # atno 17394 bound_to 11000
  139.9684  134.7335  156.0092 LP  0  0  0  0  0  0  0  0  0  0  0  0  # atno 17395 bound_to 11000

$$$$
