AV-unprocessed.smi:1868|AV-procd|sdf|7585|dock10
  -GOLD-   22720 9293D 1   1.00000     0.00000
 Structure written by MMmdl.
 47 49  0  0  0  0  0  0  0  0  2 V2000
  151.9425  138.9488  156.0342 C   0  0  0  0  0  0  0  0  0  0  0  0
  152.1225  140.0318  157.0502 C   0  0  0  0  0  0  0  0  0  0  0  0
  152.9543  139.9057  158.0838 N   0  0  0  0  0  0  0  0  0  0  0  0
  152.8116  141.1147  158.7373 C   0  0  0  0  0  0  0  0  0  0  0  0
  153.4271  141.6024  159.9122 C   0  0  0  0  0  0  0  0  0  0  0  0
  153.1176  142.8895  160.3984 C   0  0  0  0  0  0  0  0  0  0  0  0
  152.1910  143.7061  159.7183 C   0  0  0  0  0  0  0  0  0  0  0  0
  151.5660  143.2396  158.5459 C   0  0  0  0  0  0  0  0  0  0  0  0
  151.8773  141.9534  158.0654 C   0  0  0  0  0  0  0  0  0  0  0  0
  151.4478  141.2053  156.9732 N   0  0  0  0  0  0  0  0  0  0  0  0
  150.4760  141.6150  155.9683 C   0  0  0  0  0  0  0  0  0  0  0  0
  149.0223  141.4934  156.4664 C   0  0  1  0  0  0  0  0  0  0  0  0
  148.6539  142.6822  157.1391 O   0  0  0  0  0  0  0  0  0  0  0  0
  148.0373  141.2632  155.3034 C   0  0  0  0  0  0  0  0  0  0  0  0
  147.0437  142.3600  155.1742 N   0  3  2  0  0  0  0  0  0  0  0  0
  145.8820  142.2151  156.0914 C   0  0  0  0  0  0  0  0  0  0  0  0
  144.9597  143.4433  156.0154 C   0  0  0  0  0  0  0  0  0  0  0  0
  144.4781  143.6937  154.5765 C   0  0  1  0  0  0  0  0  0  0  0  0
  143.5840  144.9383  154.4851 C   0  0  0  0  0  0  0  0  0  0  0  0
  145.6977  143.7994  153.6459 C   0  0  0  0  0  0  0  0  0  0  0  0
  146.6051  142.5639  153.7697 C   0  0  0  0  0  0  0  0  0  0  0  0
  152.5385  138.0745  156.2981 H   0  0  0  0  0  0  0  0  0  0  0  0
  152.2632  139.2966  155.0521 H   0  0  0  0  0  0  0  0  0  0  0  0
  150.8970  138.6465  155.9794 H   0  0  0  0  0  0  0  0  0  0  0  0
  154.1384  140.9848  160.4406 H   0  0  0  0  0  0  0  0  0  0  0  0
  153.5935  143.2519  161.2980 H   0  0  0  0  0  0  0  0  0  0  0  0
  151.9597  144.6907  160.0978 H   0  0  0  0  0  0  0  0  0  0  0  0
  150.8548  143.8629  158.0247 H   0  0  0  0  0  0  0  0  0  0  0  0
  150.6921  142.6431  155.6743 H   0  0  0  0  0  0  0  0  0  0  0  0
  150.6212  141.0108  155.0726 H   0  0  0  0  0  0  0  0  0  0  0  0
  148.9671  140.6723  157.1796 H   0  0  0  0  0  0  0  0  0  0  0  0
  149.0137  143.4188  156.6673 H   0  0  0  0  0  0  0  0  0  0  0  0
  148.6122  141.1730  154.3803 H   0  0  0  0  0  0  0  0  0  0  0  0
  147.5118  140.3148  155.4257 H   0  0  0  0  0  0  0  0  0  0  0  0
  145.3246  141.3124  155.8356 H   0  0  0  0  0  0  0  0  0  0  0  0
  146.2204  142.0935  157.1195 H   0  0  0  0  0  0  0  0  0  0  0  0
  144.1040  143.3001  156.6763 H   0  0  0  0  0  0  0  0  0  0  0  0
  145.4919  144.3207  156.3863 H   0  0  0  0  0  0  0  0  0  0  0  0
  143.8835  142.8345  154.2621 H   0  0  0  0  0  0  0  0  0  0  0  0
  144.1194  145.8362  154.7952 H   0  0  0  0  0  0  0  0  0  0  0  0
  142.7049  144.8381  155.1226 H   0  0  0  0  0  0  0  0  0  0  0  0
  143.2335  145.0955  153.4646 H   0  0  0  0  0  0  0  0  0  0  0  0
  145.3701  143.9109  152.6116 H   0  0  0  0  0  0  0  0  0  0  0  0
  146.2704  144.6964  153.8862 H   0  0  0  0  0  0  0  0  0  0  0  0
  147.4761  142.6975  153.1268 H   0  0  0  0  0  0  0  0  0  0  0  0
  146.0828  141.6733  153.4162 H   0  0  0  0  0  0  0  0  0  0  0  0
  147.5281  143.2058  155.4404 H   0  0  0  0  0  0  0  0  0  0  0  0
  1  2  1  0  0  0  0
  1 22  1  0  0  0  0
  1 23  1  0  0  0  0
  1 24  1  0  0  0  0
  2 10  1  0  0  0  0
  2  3  2  0  0  0  0
  3  4  1  0  0  0  0
  4  9  2  0  0  0  0
  4  5  1  0  0  0  0
  5  6  2  0  0  0  0
  5 25  1  0  0  0  0
  6  7  1  0  0  0  0
  6 26  1  0  0  0  0
  7  8  2  0  0  0  0
  7 27  1  0  0  0  0
  8  9  1  0  0  0  0
  8 28  1  0  0  0  0
  9 10  1  0  0  0  0
 10 11  1  0  0  0  0
 11 12  1  0  0  0  0
 11 29  1  0  0  0  0
 11 30  1  0  0  0  0
 12 13  1  0  0  0  0
 12 14  1  0  0  0  0
 12 31  1  0  0  0  0
 13 32  1  0  0  0  0
 14 15  1  0  0  0  0
 14 33  1  0  0  0  0
 14 34  1  0  0  0  0
 15 21  1  0  0  0  0
 15 16  1  0  0  0  0
 15 47  1  0  0  0  0
 16 17  1  0  0  0  0
 16 35  1  0  0  0  0
 16 36  1  0  0  0  0
 17 18  1  0  0  0  0
 17 37  1  0  0  0  0
 17 38  1  0  0  0  0
 18 19  1  0  0  0  0
 18 20  1  0  0  0  0
 18 39  1  0  0  0  0
 19 40  1  0  0  0  0
 19 41  1  0  0  0  0
 19 42  1  0  0  0  0
 20 21  1  0  0  0  0
 20 43  1  0  0  0  0
 20 44  1  0  0  0  0
 21 45  1  0  0  0  0
 21 46  1  0  0  0  0
M  CHG  1  15   1
M  END
> <s_m_source_file>
AV-unprocessed.smi

> <i_m_source_file_index>
1868

> <i_lp_mmshare_version>
43012

> <i_f3d_flags>
0

> <s_epik_input>
W2NIXTFbY0hdW2NIXVtjSF1jKGMxMiluKGMobjIpW0NIM10pW0NIMl1bQ0BIXShbT0hdKVtDSDJdTjNbQ0gyXVtDSDJdW0NIXShbQ0gzXSlbQ0gyXVtDSDJdMw==

> <s_epik_cmdline>
J2VwaWtfcHl0aG9uJywgJy1waCcsICc3LjAnLCAnLXRuJywgJzgnLCAnLW1hJywgJzIwMCcsICctbWV0YWxfYmluZGluZycsICctaW1hZScsICc8aW5maWxlLm1hZT4nLCAnLW9tYWUnLCAnPG91dGZpbGUubWFlPic=

> <r_epik_Ionization_Penalty>
0.101157

> <r_epik_Ionization_Penalty_Charging>
0.00181365

> <r_epik_Ionization_Penalty_Neutral>
0.0993436

> <r_epik_State_Penalty>
0.0871902

> <r_epik_Charging_Adjusted_Penalty>
0.0890039

> <i_epik_Tot_Q>
1

> <i_epik_Tot_abs_Q>
1

> <r_epik_Metal_State_Penalty>
9.24346e-05

> <b_epik_Metal_Only>
0

> <s_lp_Force_Field>
OPLS_2005

> <r_lp_Energy>
21.7142

> <b_lp_Chiralities_Consistent>
1

> <s_lp_Variant>
AV-unprocessed.smi:1868-2

> <Gold.Version>
5.8.1

> <Gold.Id.Protein>
6NUR|6NUR_protein|mol2

> <Gold.PLP.Fitness>
52.0468

> <Gold.PLP.PLP>
-43.6590

> <Gold.PLP.part.hbond>
-2.9801

> <Gold.PLP.part.metal>
0.0000

> <Gold.PLP.part.buried>
-5.0508

> <Gold.PLP.part.nonpolar>
-34.8591

> <Gold.PLP.part.repulsive>
0.0773

> <Gold.PLP.ligand.clash>
0.0028

> <Gold.PLP.ligand.torsion>
1.6333

> <Gold.PLP.Chemscore.Hbond>
3.8760

> <Gold.PLP.Chemscore.CHOScore>
0.0000

> <Gold.PLP.Chemscore.Metal>
0.0000

> <Gold.Chemscore.Hbonds>
donor molecule, donor type, donor heavy atom, donor atom, acceptor molecule, acceptor atom, score
      L1  H    13    32       P1  8028  1.00
      L1  H    15    47       P1  8028  1.90
      P1  H  7997  8009       L1     3  0.93

> <Gold.PLP.Chemscore.Internal.Correction>
0.0291

> <Gold.Rescore>
     Score         DG    S(hbond)    S(metal)    S(lipo)     H(rot)  DE(clash)    DE(int)     intcor
     16.87     -19.76       1.47        0.00     121.96       1.92       0.13       2.75       ----

> <Gold.Chemscore.Fitness>
16.8704

> <Gold.Chemscore.DG>
-19.7575

> <Gold.Chemscore.ZeroCoef>
-5.4800

> <Gold.Chemscore.Hbond>
1.4741

> <Gold.Chemscore.Metal>
0.0000

> <Gold.Chemscore.Lipo>
121.9560

> <Gold.Chemscore.Internal_Hbond>
0.0000

> <Gold.Chemscore.DEClash>
0.1350

> <Gold.Chemscore.DEInternal>
2.7521

> <Gold.Chemscore.Rot>
1.9198

> <Gold.Chemscore.Internal.Correction>
   9.000000E+99

> <Gold.Chemscore.Hbonds>
donor molecule, donor type, donor heavy atom, donor atom, acceptor molecule, acceptor atom, score
      L1  H    13    32       P1  8028  0.87
      L1  H    15    47       P1  8028  0.21
      P1  H  7997  8009       L1     3  0.10

> <Gold.Chemscore.Hbond.Weighted>
-4.9233

> <Gold.Chemscore.Metal.Weighted>
-0.0000

> <Gold.Chemscore.Lipo.Weighted>
-14.2689

> <Gold.Chemscore.Internal_Hbond.Weighted>
0.0000

> <Gold.Chemscore.DEClash.Weighted>
0.1350

> <Gold.Chemscore.DEInternal.Weighted>
2.7521

> <Gold.Chemscore.Rot.Weighted>
4.9147

> <Gold.Chemscore.Internal.Correction.Weighted>
   9.000000E+99

> <Gold.Protein.RotatedTorsions>
[ 6907 6896 6895 6894 ] final   48.43 input  -60.11 | X-H torsion
[ 7974 7965 7964 7962 ] final   44.77 input  175.53 | X-H torsion
[ 8008 7997 7996 7995 ] final  145.55 input   59.86 | X-H torsion
[ 10167 10162 10161 10158 ] final   92.08 input  -65.29 | X-H torsion
[ 10718 10713 10712 10709 ] final  -18.63 input   66.30 | X-H torsion
[ 10763 10752 10751 10750 ] final  -50.82 input  -60.55 | X-H torsion
[ 11005 11000 10999 10996 ] final  155.04 input  -57.11 | X-H torsion

> <Gold.Protein.ActiveResidues>
 VAL166  LYS551  ARG553  GLY616  TRP617  ASP618  TYR619  PRO620  LYS621  CYS622 
 ASP623  PHE694  ASN695  SER759  ASP760  ASP761  ALA762  ILE779  LEU786  VAL792 
 PHE793  MET794  SER795  GLU796  ALA797  LYS798  CYS799  TRP800  GLU811  SER814 

> <Gold.Protein.RotatedAtoms>
  152.2795  134.7845  160.0399 H   0  0  0  0  0  0  0  0  0  0  0  0  # atno 6907 bound_to 6896
  151.8429  133.3421  159.3657 H   0  0  0  0  0  0  0  0  0  0  0  0  # atno 6908 bound_to 6896
  150.7184  134.5302  159.5741 H   0  0  0  0  0  0  0  0  0  0  0  0  # atno 6909 bound_to 6896
  146.0539  139.5038  142.9701 H   0  0  0  0  0  0  0  0  0  0  0  0  # atno 7974 bound_to 7965
  156.2880  140.2206  156.5233 H   0  0  0  0  0  0  0  0  0  0  0  0  # atno 8008 bound_to 7997
  154.7510  140.0480  157.0915 H   0  0  0  0  0  0  0  0  0  0  0  0  # atno 8009 bound_to 7997
  155.0109  140.3113  155.4833 H   0  0  0  0  0  0  0  0  0  0  0  0  # atno 8010 bound_to 7997
  139.8312  144.6686  150.9398 H   0  0  0  0  0  0  0  0  0  0  0  0  # atno 10167 bound_to 10162
  156.5568  130.4715  149.6425 H   0  0  0  0  0  0  0  0  0  0  0  0  # atno 10718 bound_to 10713
  154.1165  135.6541  153.4895 H   0  0  0  0  0  0  0  0  0  0  0  0  # atno 10763 bound_to 10752
  153.0239  135.5260  154.7140 H   0  0  0  0  0  0  0  0  0  0  0  0  # atno 10764 bound_to 10752
  154.6335  135.2979  155.0159 H   0  0  0  0  0  0  0  0  0  0  0  0  # atno 10765 bound_to 10752
  140.1544  134.8652  157.2496 H   0  0  0  0  0  0  0  0  0  0  0  0  # atno 11005 bound_to 11000
  145.6677  141.0224  143.1674 LP  0  0  0  0  0  0  0  0  0  0  0  0  # atno 17320 bound_to 7965
  144.7137  139.8274  143.7406 LP  0  0  0  0  0  0  0  0  0  0  0  0  # atno 17321 bound_to 7965
  140.7806  143.3999  151.1166 LP  0  0  0  0  0  0  0  0  0  0  0  0  # atno 17342 bound_to 10162
  139.7653  143.8575  152.3109 LP  0  0  0  0  0  0  0  0  0  0  0  0  # atno 17343 bound_to 10162
  156.2834  130.7084  151.1914 LP  0  0  0  0  0  0  0  0  0  0  0  0  # atno 17370 bound_to 10713
  157.7376  131.0549  150.5343 LP  0  0  0  0  0  0  0  0  0  0  0  0  # atno 17371 bound_to 10713
  140.2565  134.3622  155.7422 LP  0  0  0  0  0  0  0  0  0  0  0  0  # atno 17394 bound_to 11000
  141.2203  133.7345  156.9015 LP  0  0  0  0  0  0  0  0  0  0  0  0  # atno 17395 bound_to 11000

$$$$
