AV-unprocessed.smi:522|AV-procd|sdf|2801|dock1
  -GOLD-   2262023273D 1   1.00000     0.00000
 Structure written by MMmdl.
 41 42  0  0  0  0  0  0  0  0  1 V2000
  153.1340  137.5132  157.4373 C   0  0  0  0  0  0  0  0  0  0  0  0
  153.7761  138.7356  157.7550 O   0  0  0  0  0  0  0  0  0  0  0  0
  153.5683  139.1137  159.1065 C   0  0  0  0  0  0  0  0  0  0  0  0
  154.6800  140.0660  159.5673 C   0  0  0  0  0  0  0  0  0  0  0  0
  154.2269  140.9667  160.6172 N   0  0  0  0  0  0  0  0  0  0  0  0
  154.4656  140.8931  161.9503 C   0  0  0  0  0  0  0  0  0  0  0  0
  155.4398  139.5942  162.6500 S   0  0  0  0  0  0  0  0  0  0  0  0
  154.2623  138.2126  162.5257 C   0  0  0  0  0  0  0  0  0  0  0  0
  154.5669  137.1226  163.5559 C   0  0  0  0  0  0  0  0  0  0  0  0
  154.8704  137.4832  164.6937 O   0  0  0  0  0  0  0  0  0  0  0  0
  154.4767  135.7049  163.1093 C   0  0  0  0  0  0  0  0  0  0  0  0
  154.3922  135.3743  161.7219 C   0  0  0  0  0  0  0  0  0  0  0  0
  154.3070  135.1009  160.6000 N   0  0  0  0  0  0  0  0  0  0  0  0
  154.4743  134.6666  163.9876 C   0  0  0  0  0  0  0  0  0  0  0  0
  154.3811  133.2201  163.5262 C   0  0  0  0  0  0  0  0  0  0  0  0
  154.5529  134.7741  165.3665 N   0  0  0  0  0  0  0  0  0  0  0  0
  153.9280  141.8697  162.6837 N   0  0  0  0  0  0  0  0  0  0  0  0
  153.2651  142.6330  161.7438 C   0  0  0  0  0  0  0  0  0  0  0  0
  152.4898  143.8052  161.8923 C   0  0  0  0  0  0  0  0  0  0  0  0
  151.9000  144.4175  160.7670 C   0  0  0  0  0  0  0  0  0  0  0  0
  152.0779  143.8688  159.4804 C   0  0  0  0  0  0  0  0  0  0  0  0
  152.8476  142.7018  159.3109 C   0  0  0  0  0  0  0  0  0  0  0  0
  153.4328  142.0942  160.4379 C   0  0  0  0  0  0  0  0  0  0  0  0
  153.3042  137.2668  156.3907 H   0  0  0  0  0  0  0  0  0  0  0  0
  152.0568  137.5807  157.5933 H   0  0  0  0  0  0  0  0  0  0  0  0
  153.5257  136.6941  158.0420 H   0  0  0  0  0  0  0  0  0  0  0  0
  152.5994  139.6039  159.2109 H   0  0  0  0  0  0  0  0  0  0  0  0
  153.5534  138.2271  159.7426 H   0  0  0  0  0  0  0  0  0  0  0  0
  155.5469  139.5025  159.9111 H   0  0  0  0  0  0  0  0  0  0  0  0
  155.0251  140.6662  158.7249 H   0  0  0  0  0  0  0  0  0  0  0  0
  153.2545  138.5925  162.6931 H   0  0  0  0  0  0  0  0  0  0  0  0
  154.2760  137.7952  161.5189 H   0  0  0  0  0  0  0  0  0  0  0  0
  153.4567  133.0569  162.9709 H   0  0  0  0  0  0  0  0  0  0  0  0
  154.3926  132.5209  164.3638 H   0  0  0  0  0  0  0  0  0  0  0  0
  155.2206  132.9728  162.8754 H   0  0  0  0  0  0  0  0  0  0  0  0
  154.6202  135.6682  165.8316 H   0  0  0  0  0  0  0  0  0  0  0  0
  154.5589  133.9573  165.9621 H   0  0  0  0  0  0  0  0  0  0  0  0
  152.3482  144.2335  162.8734 H   0  0  0  0  0  0  0  0  0  0  0  0
  151.3085  145.3126  160.8918 H   0  0  0  0  0  0  0  0  0  0  0  0
  151.6227  144.3443  158.6239 H   0  0  0  0  0  0  0  0  0  0  0  0
  152.9855  142.2782  158.3271 H   0  0  0  0  0  0  0  0  0  0  0  0
  1  2  1  0  0  0  0
  1 24  1  0  0  0  0
  1 25  1  0  0  0  0
  1 26  1  0  0  0  0
  2  3  1  0  0  0  0
  3  4  1  0  0  0  0
  3 27  1  0  0  0  0
  3 28  1  0  0  0  0
  4  5  1  0  0  0  0
  4 29  1  0  0  0  0
  4 30  1  0  0  0  0
  5 23  1  0  0  0  0
  5  6  1  0  0  0  0
  6  7  1  0  0  0  0
  6 17  2  0  0  0  0
  7  8  1  0  0  0  0
  8  9  1  0  0  0  0
  8 31  1  0  0  0  0
  8 32  1  0  0  0  0
  9 10  2  0  0  0  0
  9 11  1  0  0  0  0
 11 12  1  0  0  0  0
 11 14  2  0  0  0  0
 12 13  3  0  0  0  0
 14 15  1  0  0  0  0
 14 16  1  0  0  0  0
 15 33  1  0  0  0  0
 15 34  1  0  0  0  0
 15 35  1  0  0  0  0
 16 36  1  0  0  0  0
 16 37  1  0  0  0  0
 17 18  1  0  0  0  0
 18 23  2  0  0  0  0
 18 19  1  0  0  0  0
 19 20  2  0  0  0  0
 19 38  1  0  0  0  0
 20 21  1  0  0  0  0
 20 39  1  0  0  0  0
 21 22  2  0  0  0  0
 21 40  1  0  0  0  0
 22 23  1  0  0  0  0
 22 41  1  0  0  0  0
M  END
> <s_m_source_file>
AV-unprocessed.smi

> <i_m_source_file_index>
522

> <i_lp_mmshare_version>
43012

> <i_f3d_flags>
0

> <s_epik_input>
W2NIXTFbY0hdW2NIXVtjSF1jKGMxMiluKFtDSDJdW0NIMl1PW0NIM10pYyhuMilTW0NIMl1DKD1PKS9DKEMjTik9QygvW0NIM10pW05IMl0=

> <s_epik_cmdline>
J2VwaWtfcHl0aG9uJywgJy1waCcsICc3LjAnLCAnLXRuJywgJzgnLCAnLW1hJywgJzIwMCcsICctbWV0YWxfYmluZGluZycsICctaW1hZScsICc8aW5maWxlLm1hZT4nLCAnLW9tYWUnLCAnPG91dGZpbGUubWFlPic=

> <r_lp_tautomer_probability>
0.5

> <r_epik_Ionization_Penalty>
0.0129021

> <r_epik_Ionization_Penalty_Charging>
0

> <r_epik_Ionization_Penalty_Neutral>
0.0129021

> <r_epik_State_Penalty>
0.42069

> <r_epik_Charging_Adjusted_Penalty>
0.42069

> <i_epik_Tot_Q>
0

> <i_epik_Tot_abs_Q>
0

> <r_epik_Metal_State_Penalty>
0.41068

> <b_epik_Metal_Only>
0

> <s_lp_Force_Field>
OPLS_2005

> <r_lp_Energy>
14.5632

> <b_lp_Chiralities_Consistent>
1

> <s_lp_Variant>
AV-unprocessed.smi:522-1

> <Gold.Version>
5.8.1

> <Gold.Id.Protein>
6NUR|6NUR_protein|mol2

> <Gold.PLP.Fitness>
54.0451

> <Gold.PLP.PLP>
-50.0754

> <Gold.PLP.part.hbond>
-3.5213

> <Gold.PLP.part.metal>
0.0000

> <Gold.PLP.part.buried>
-4.5411

> <Gold.PLP.part.nonpolar>
-41.7151

> <Gold.PLP.part.repulsive>
0.1606

> <Gold.PLP.ligand.clash>
0.0000

> <Gold.PLP.ligand.torsion>
1.1308

> <Gold.PLP.Chemscore.Hbond>
2.0000

> <Gold.PLP.Chemscore.CHOScore>
0.0000

> <Gold.PLP.Chemscore.Metal>
0.0000

> <Gold.Chemscore.Hbonds>
donor molecule, donor type, donor heavy atom, donor atom, acceptor molecule, acceptor atom, score
      P1  H  6896  6908       L1    13  1.00
      P1  H  7997  8008       L1     2  1.00

> <Gold.PLP.Chemscore.Internal.Correction>
0.2313

> <Gold.Rescore>
     Score         DG    S(hbond)    S(metal)    S(lipo)     H(rot)  DE(clash)    DE(int)     intcor
     18.54     -20.16       1.95        0.00     120.59       2.33       0.33       1.30       ----

> <Gold.Chemscore.Fitness>
18.5356

> <Gold.Chemscore.DG>
-20.1582

> <Gold.Chemscore.ZeroCoef>
-5.4800

> <Gold.Chemscore.Hbond>
1.9549

> <Gold.Chemscore.Metal>
0.0000

> <Gold.Chemscore.Lipo>
120.5869

> <Gold.Chemscore.Internal_Hbond>
0.0000

> <Gold.Chemscore.DEClash>
0.3253

> <Gold.Chemscore.DEInternal>
1.2973

> <Gold.Chemscore.Rot>
2.3280

> <Gold.Chemscore.Internal.Correction>
   9.000000E+99

> <Gold.Chemscore.Hbonds>
donor molecule, donor type, donor heavy atom, donor atom, acceptor molecule, acceptor atom, score
      P1  H  6896  6908       L1    13  0.91
      P1  H  7997  8008       L1     2  0.50

> <Gold.Chemscore.Hbond.Weighted>
-6.5293

> <Gold.Chemscore.Metal.Weighted>
-0.0000

> <Gold.Chemscore.Lipo.Weighted>
-14.1087

> <Gold.Chemscore.Internal_Hbond.Weighted>
0.0000

> <Gold.Chemscore.DEClash.Weighted>
0.3253

> <Gold.Chemscore.DEInternal.Weighted>
1.2973

> <Gold.Chemscore.Rot.Weighted>
5.9598

> <Gold.Chemscore.Internal.Correction.Weighted>
   9.000000E+99

> <Gold.Protein.RotatedTorsions>
[ 6907 6896 6895 6894 ] final  -47.97 input  -60.11 | X-H torsion
[ 7974 7965 7964 7962 ] final -138.26 input  175.53 | X-H torsion
[ 8008 7997 7996 7995 ] final  -91.28 input   59.86 | X-H torsion
[ 10167 10162 10161 10158 ] final -165.05 input  -65.29 | X-H torsion
[ 10718 10713 10712 10709 ] final  -73.69 input   66.30 | X-H torsion
[ 10763 10752 10751 10750 ] final   19.02 input  -60.55 | X-H torsion
[ 11005 11000 10999 10996 ] final -144.02 input  -57.11 | X-H torsion

> <Gold.Protein.ActiveResidues>
 VAL166  LYS551  ARG553  GLY616  TRP617  ASP618  TYR619  PRO620  LYS621  CYS622 
 ASP623  PHE694  ASN695  SER759  ASP760  ASP761  ALA762  ILE779  LEU786  VAL792 
 PHE793  MET794  SER795  GLU796  ALA797  LYS798  CYS799  TRP800  GLU811  SER814 

> <Gold.Protein.RotatedAtoms>
  150.8953  134.8361  159.7321 H   0  0  0  0  0  0  0  0  0  0  0  0  # atno 6907 bound_to 6896
  152.4861  134.4585  159.9607 H   0  0  0  0  0  0  0  0  0  0  0  0  # atno 6908 bound_to 6896
  151.4643  133.3546  159.2849 H   0  0  0  0  0  0  0  0  0  0  0  0  # atno 6909 bound_to 6896
  144.8773  140.6456  143.5228 H   0  0  0  0  0  0  0  0  0  0  0  0  # atno 7974 bound_to 7965
  154.7088  140.0521  157.0530 H   0  0  0  0  0  0  0  0  0  0  0  0  # atno 8008 bound_to 7997
  155.0583  140.3186  155.4650 H   0  0  0  0  0  0  0  0  0  0  0  0  # atno 8009 bound_to 7997
  156.2783  140.2103  156.5709 H   0  0  0  0  0  0  0  0  0  0  0  0  # atno 8010 bound_to 7997
  139.6209  144.0627  152.1931 H   0  0  0  0  0  0  0  0  0  0  0  0  # atno 10167 bound_to 10162
  156.0271  130.4400  150.2780 H   0  0  0  0  0  0  0  0  0  0  0  0  # atno 10718 bound_to 10713
  153.1199  135.6716  153.9354 H   0  0  0  0  0  0  0  0  0  0  0  0  # atno 10763 bound_to 10752
  153.8873  135.3051  155.3448 H   0  0  0  0  0  0  0  0  0  0  0  0  # atno 10764 bound_to 10752
  154.7611  135.4987  153.9545 H   0  0  0  0  0  0  0  0  0  0  0  0  # atno 10765 bound_to 10752
  140.8066  134.2794  157.4958 H   0  0  0  0  0  0  0  0  0  0  0  0  # atno 11005 bound_to 11000
  145.4019  139.1596  143.4173 LP  0  0  0  0  0  0  0  0  0  0  0  0  # atno 17320 bound_to 7965
  146.2971  140.4116  142.8717 LP  0  0  0  0  0  0  0  0  0  0  0  0  # atno 17321 bound_to 7965
  140.0268  144.6111  150.7520 LP  0  0  0  0  0  0  0  0  0  0  0  0  # atno 17342 bound_to 10162
  140.7381  143.2774  151.3701 LP  0  0  0  0  0  0  0  0  0  0  0  0  # atno 17343 bound_to 10162
  157.0883  131.0162  151.3131 LP  0  0  0  0  0  0  0  0  0  0  0  0  # atno 17370 bound_to 10713
  157.4874  130.7801  149.7473 LP  0  0  0  0  0  0  0  0  0  0  0  0  # atno 17371 bound_to 10713
  139.8717  134.9460  156.3925 LP  0  0  0  0  0  0  0  0  0  0  0  0  # atno 17394 bound_to 11000
  140.9240  133.7625  155.9942 LP  0  0  0  0  0  0  0  0  0  0  0  0  # atno 17395 bound_to 11000

$$$$
